0:0:0
     RDKit          3D

 97106  0  0  1  0  0  0  0  0999 V2000
  -30.4690  -23.5040   20.4080 C   0  0  0  0  0  0  0  0  0  0  0  0
  -29.2670  -23.5970   19.8220 C   0  0  0  0  0  0  0  0  0  0  0  0
  -30.9520  -22.1000   20.4100 C   0  0  0  0  0  0  0  0  0  0  0  0
  -28.8590  -22.1530   19.4770 C   0  0  0  0  0  2  0  0  0  0  0  0
  -31.3220  -24.6540   20.9040 C   0  0  0  0  0  1  0  0  0  0  0  0
  -30.0190  -21.2730   19.8600 N   0  0  0  0  0  0  0  0  0  0  0  0
  -32.0510  -21.7200   20.8190 O   0  0  0  0  0  0  0  0  0  0  0  0
  -30.1490  -18.5050   17.2870 C   0  0  0  0  0  3  0  0  0  0  0  0
  -29.9490  -19.7250   17.9530 C   0  0  0  0  0  3  0  0  0  0  0  0
  -30.6340  -17.3710   17.9600 C   0  0  0  0  0  3  0  0  0  0  0  0
  -30.2770  -19.8990   19.3120 C   0  0  0  0  0  0  0  0  0  0  0  0
  -30.9620  -17.3940   19.3340 C   0  0  0  0  0  0  0  0  0  0  0  0
  -30.8290  -18.7160   19.9810 C   0  0  0  0  0  0  0  0  0  0  0  0
  -31.1620  -18.8340   21.2860 F   0  0  0  0  0  0  0  0  0  0  0  0
  -31.7180  -14.9350   19.1980 C   0  0  0  0  0  0  0  0  0  0  0  0
  -31.1840  -12.7090   18.1370 C   0  0  0  0  0  2  0  0  0  0  0  0
  -30.0420  -12.8440   17.1000 C   0  0  0  0  0  2  0  0  0  0  0  0
  -28.6640  -12.7300   17.7730 C   0  0  0  0  0  2  0  0  0  0  0  0
  -28.5670  -13.6060   19.0490 C   0  0  0  0  0  3  0  0  0  0  0  0
  -29.7860  -13.3920   19.9650 C   0  0  0  0  0  2  0  0  0  0  0  0
  -30.9980  -13.7390   19.1990 N   0  0  0  0  0  0  0  0  0  0  0  0
  -32.7190  -15.0040   18.4750 O   0  0  0  0  0  0  0  0  0  0  0  0
  -31.3050  -15.9020   21.3180 C   0  0  0  0  0  0  0  0  0  0  0  0
  -31.3290  -16.0620   19.9540 N   0  0  0  0  0  0  0  0  0  0  0  0
  -31.9730  -15.0270   21.8880 O   0  0  0  0  0  0  0  0  0  0  0  0
  -26.4450  -14.3420   20.2860 C   0  0  0  0  0  0  0  0  0  0  0  0
  -25.3880  -13.6410   20.7960 C   0  0  0  0  0  0  0  0  0  0  0  0
  -25.6640  -12.2630   20.5360 C   0  0  0  0  0  0  0  0  0  0  0  0
  -27.3090  -13.3970   19.7610 N   0  0  0  0  0  0  0  0  0  0  0  0
  -26.8580  -12.1340   19.9680 N   0  0  0  0  0  0  0  0  0  0  0  0
  -24.8370  -11.0690   20.7410 C   0  0  0  0  0  0  0  0  0  0  0  0
  -25.2320  -10.0360   21.6200 C   0  0  0  0  0  3  0  0  0  0  0  0
  -24.4100   -8.9060   21.8120 C   0  0  0  0  0  3  0  0  0  0  0  0
  -23.1770   -8.7990   21.1260 C   0  0  0  0  0  0  0  0  0  0  0  0
  -22.7970   -9.8190   20.2340 C   0  0  0  0  0  3  0  0  0  0  0  0
  -23.6200  -10.9410   20.0400 C   0  0  0  0  0  3  0  0  0  0  0  0
  -22.3240   -7.7270   21.2280 O   0  0  0  0  0  0  0  0  0  0  0  0
  -22.1550   -7.0570   22.4140 C   0  0  0  0  0  0  0  0  0  0  0  0
  -21.7810   -7.7230   23.6020 C   0  0  0  0  0  3  0  0  0  0  0  0
  -21.5520   -6.9860   24.7820 C   0  0  0  0  0  3  0  0  0  0  0  0
  -21.6840   -5.5850   24.7730 C   0  0  0  0  0  0  0  0  0  0  0  0
  -22.0520   -4.9180   23.5900 C   0  0  0  0  0  3  0  0  0  0  0  0
  -22.2840   -5.6530   22.4130 C   0  0  0  0  0  0  0  0  0  0  0  0
  -22.6150   -5.0040   21.2690 F   0  0  0  0  0  0  0  0  0  0  0  0
  -21.4560   -4.8770   25.9000 F   0  0  0  0  0  0  0  0  0  0  0  0
  -24.1400  -14.2190   21.3970 C   0  0  0  0  0  0  0  0  0  0  0  0
  -23.5590  -13.5400   22.3810 N   0  0  0  0  0  0  0  0  0  0  0  0
  -23.6990  -15.3080   21.0250 O   0  0  0  0  0  0  0  0  0  0  0  0
  -23.9330  -12.6570   22.6940 H   0  0  0  0  0  0  0  0  0  0  0  0
  -22.7310  -13.9130   22.8260 H   0  0  0  0  0  0  0  0  0  0  0  0
  -26.7320  -15.7010   20.1930 N   0  0  0  0  0  0  0  0  0  0  0  0
  -26.0130  -16.3860   20.3980 H   0  0  0  0  0  0  0  0  0  0  0  0
  -27.4490  -16.0580   19.5760 H   0  0  0  0  0  0  0  0  0  0  0  0
  -29.9340  -16.4260   23.2730 C   0  0  0  0  0  2  0  0  0  0  0  0
  -30.4480  -16.8060   22.0870 C   0  0  0  0  0  3  0  0  0  0  0  0
  -28.3530  -24.8350   19.3940 C   0  0  0  0  0  2  0  0  0  0  0  0
  -28.6350  -26.3010   19.6220 O   0  0  0  0  0  0  0  0  0  0  0  0
  -24.6750  -31.5650   22.6930 C   0  0  0  0  0  0  0  0  0  0  0  0
  -27.5080  -27.1700   19.5450 C   0  0  0  0  0  0  0  0  0  0  0  0
  -23.5400  -30.1340   21.0400 C   0  0  0  0  0  3  0  0  0  0  0  0
  -25.0650  -28.7030   19.5620 C   0  0  0  0  0  0  0  0  0  0  0  0
  -26.0630  -30.5860   20.8480 C   0  0  0  0  0  2  0  0  0  0  0  0
  -26.2130  -29.2250   20.1710 C   0  0  0  0  0  0  0  0  0  0  0  0
  -27.4350  -28.4720   20.1520 C   0  0  0  0  0  3  0  0  0  0  0  0
  -26.3310  -26.7400   18.8810 C   0  0  0  0  0  3  0  0  0  0  0  0
  -25.1310  -27.4700   18.9010 C   0  0  0  0  0  3  0  0  0  0  0  0
  -23.7810  -29.5090   19.6410 C   0  0  0  0  0  2  0  0  0  0  0  0
  -24.7780  -30.7790   21.5820 N   0  0  0  0  0  0  0  0  0  0  0  0
  -23.5810  -31.7720   23.2400 O   0  0  0  0  0  0  0  0  0  0  0  0
  -22.9450  -29.0580   21.9810 C   0  0  0  0  0  0  0  0  0  0  0  0
  -21.6140  -28.8720   21.9300 N   0  0  0  0  0  0  0  0  0  0  0  0
  -23.6790  -28.4000   22.7240 O   0  0  0  0  0  0  0  0  0  0  0  0
  -21.0790  -29.4580   21.3040 H   0  0  0  0  0  0  0  0  0  0  0  0
  -18.2790  -27.6720   22.6570 C   0  0  0  0  0  0  0  0  0  0  0  0
  -20.8550  -27.8880   22.7040 C   0  0  0  0  0  3  0  0  0  0  0  0
  -20.8810  -26.5030   22.0190 C   0  0  0  0  0  2  0  0  0  0  0  0
  -19.6830  -26.2660   21.0920 C   0  0  0  0  0  2  0  0  0  0  0  0
  -18.3700  -26.3750   21.8690 C   0  0  0  0  0  2  0  0  0  0  0  0
  -19.4440  -28.3900   23.0350 C   0  0  0  0  0  0  0  0  0  0  0  0
  -19.3000  -29.6070   23.7360 C   0  0  0  0  0  3  0  0  0  0  0  0
  -18.0240  -30.1060   24.0610 C   0  0  0  0  0  3  0  0  0  0  0  0
  -16.8760  -29.3840   23.6970 C   0  0  0  0  0  3  0  0  0  0  0  0
  -17.0040  -28.1690   23.0010 C   0  0  0  0  0  3  0  0  0  0  0  0
  -25.9220  -32.2640   23.3160 C   0  0  0  0  0  3  0  0  0  0  0  0
  -26.5930  -31.4200   24.4690 C   0  0  1  0  0  0  0  0  0  0  0  0
  -25.5960  -30.9340   25.5470 C   0  0  0  0  0  1  0  0  0  0  0  0
  -27.3070  -30.1740   23.8960 C   0  0  0  0  0  1  0  0  0  0  0  0
  -27.6810  -32.2680   25.1710 C   0  0  0  0  0  1  0  0  0  0  0  0
  -25.4960  -33.5790   23.8160 N   0  0  0  0  0  0  0  0  0  0  0  0
  -25.7520  -34.7460   23.2090 C   0  0  0  0  0  0  0  0  0  0  0  0
  -26.4440  -34.8300   22.1900 O   0  0  0  0  0  0  0  0  0  0  0  0
  -24.8860  -33.5810   24.6200 H   0  0  0  0  0  0  0  0  0  0  0  0
  -23.9080  -36.4470   23.0280 C   0  0  0  0  0  1  0  0  0  0  0  0
  -25.1470  -36.0200   23.8290 C   0  0  0  0  0  3  0  0  0  0  0  0
  -27.1770  -36.9360   24.8670 C   0  0  0  0  0  1  0  0  0  0  0  0
  -26.1020  -37.1480   23.9010 N   0  0  0  0  0  0  0  0  0  0  0  0
  -25.6230  -38.0120   24.1440 H   0  0  0  0  0  0  0  0  0  0  0  0
  1  3  1  0
  1  5  1  0
  2  1  2  0
  3  7  2  0
  4  2  1  0
  4  6  1  0
  6  3  1  0
  8  9  2  0
  8 10  1  0
  9 11  1  0
 10 12  2  0
 11  6  1  0
 11 13  2  0
 12 24  1  0
 12 13  1  0
 13 14  1  0
 15 21  1  0
 15 24  1  0
 16 21  1  0
 17 18  1  0
 17 16  1  0
 19 18  1  0
 19 29  1  0
 19 20  1  0
 21 20  1  0
 22 15  2  0
 23 25  2  0
 23 55  1  0
 24 23  1  0
 26 27  2  0
 27 46  1  0
 28 31  1  0
 28 27  1  0
 29 30  1  0
 29 26  1  0
 30 28  2  0
 31 32  1  0
 32 33  2  0
 34 37  1  0
 34 33  1  0
 35 34  2  0
 36 35  1  0
 36 31  2  0
 37 38  1  0
 38 39  1  0
 39 40  2  0
 41 40  1  0
 41 45  1  0
 42 41  2  0
 43 38  2  0
 43 42  1  0
 44 43  1  0
 46 47  1  0
 47 49  1  0
 47 50  1  0
 48 46  2  0
 51 26  1  0
 51 52  1  0
 53 51  1  0
 55 54  2  0
 56 57  1  0
 56  2  1  0
 58 69  2  0
 59 57  1  0
 59 64  1  0
 60 68  1  0
 60 70  1  0
 61 67  1  0
 61 63  1  0
 62 68  1  0
 63 62  1  0
 64 63  2  0
 65 66  1  0
 65 59  2  0
 66 61  2  0
 67 60  1  0
 68 58  1  0
 70 72  2  0
 71 70  1  0
 73 71  1  0
 74 83  2  0
 74 79  1  0
 75 71  1  0
 75 79  1  0
 76 75  1  0
 77 78  1  0
 77 76  1  0
 78 74  1  0
 79 80  2  0
 80 81  1  0
 82 81  2  0
 83 82  1  0
 84 58  1  0
 84 89  1  0
 84 85  1  0
 85 88  1  1
 85 86  1  0
 87 85  1  0
 89 92  1  0
 90 89  1  0
 90 94  1  0
 91 90  2  0
 94 93  1  0
 94 96  1  0
 96 97  1  0
 96 95  1  0
M  ISO  4  15 100  24 100  56 101  57 101
M  END
>  <TORSDO>  (1) 
F 19

>  <SCORE>  (1) 
-8.010

>  <name>  (1) 
0

>  <ligand_id>  (1) 
0

>  <original_smiles>  (1) 
[H]C([H])=C([H])C(=O)N(C(=O)N1C([H])([H])C([H])([H])C([H])([H])C([H])(n2nc(-c3c([H])c([H])c(Oc4c([H])c([H])c(F)c([H])c4F)c([H])c3[H])c(C(=O)N([H])[H])c2N([H])[H])C1([H])[H])c1c([H])c([H])c([H])c(N2C(=O)C(C([H])([H])[H])=C(C([H])([H])Oc3c([H])c([H])c4c(c3[H])C([H])([H])N(C(=O)C([H])(N([H])C(=O)C([H])(N([H])C([H])([H])[H])C([H])([H])[H])C(C([H])([H])[H])(C([H])([H])[H])C([H])([H])[H])C([H])(C(=O)N([H])C3([H])c5c([H])c([H])c([H])c([H])c5C([H])([H])C([H])([H])C3([H])[H])C4([H])[H])C2([H])[H])c1F

>  <smiles>  (1) 
[H]C([H])=C([H])C(=O)N(C(=O)N1C([H])([H])C([H])([H])C([H])([H])C([H])(n2nc(-c3c([H])c([H])c(Oc4c([H])c([H])c(F)c([H])c4F)c([H])c3[H])c(C(=O)N([H])[H])c2N([H])[H])C1([H])[H])c1c([H])c([H])c([H])c(N2C(=O)C(C([H])([H])[H])=C(C([H])([H])Oc3c([H])c([H])c4c(c3[H])C([H])([H])N(C(=O)C([H])(N([H])C(=O)C([H])(N([H])C([H])([H])[H])C([H])([H])[H])C(C([H])([H])[H])(C([H])([H])[H])C([H])([H])[H])C([H])(C(=O)N([H])C3([H])c5c([H])c([H])c([H])c([H])c5C([H])([H])C([H])([H])C3([H])[H])C4([H])[H])C2([H])[H])c1F

$$$$
1:0:0
     RDKit          3D

 94103  0  0  1  0  0  0  0  0999 V2000
  -28.9320  -22.5650   20.6140 C   0  0  0  0  0  3  0  0  0  0  0  0
  -28.2680  -23.7010   20.1600 C   0  0  0  0  0  0  0  0  0  0  0  0
  -26.8670  -22.0800   18.7940 C   0  0  0  0  0  0  0  0  0  0  0  0
  -25.5980  -21.7610   18.4850 C   0  0  0  0  0  2  0  0  0  0  0  0
  -27.2860  -23.5340   19.0090 C   0  0  0  0  0  2  0  0  0  0  0  0
  -27.9300  -20.9960   18.9730 C   0  0  0  0  0  2  0  0  0  0  0  0
  -28.8260  -21.2000   20.1170 N   0  0  0  0  0  0  0  0  0  0  0  0
  -30.5700  -20.1080   21.4920 C   0  0  0  0  0  3  0  0  0  0  0  0
  -31.2740  -18.9980   22.0010 C   0  0  0  0  0  3  0  0  0  0  0  0
  -29.2520  -18.5790   20.1600 C   0  0  0  0  0  3  0  0  0  0  0  0
  -29.5150  -19.9730   20.5600 C   0  0  0  0  0  0  0  0  0  0  0  0
  -29.9700  -17.4040   20.6650 C   0  0  0  0  0  0  0  0  0  0  0  0
  -30.9800  -17.6760   21.6170 C   0  0  0  0  0  0  0  0  0  0  0  0
  -31.6530  -16.6700   22.2220 F   0  0  0  0  0  0  0  0  0  0  0  0
  -30.4400  -14.8650   20.0870 C   0  0  0  0  0  0  0  0  0  0  0  0
  -30.2180  -12.6320   18.9660 C   0  0  0  0  0  2  0  0  0  0  0  0
  -29.2050  -12.7280   17.8040 C   0  0  0  0  0  2  0  0  0  0  0  0
  -27.7660  -12.5080   18.3140 C   0  0  0  0  0  2  0  0  0  0  0  0
  -27.4510  -13.3410   19.5840 C   0  0  0  0  0  3  0  0  0  0  0  0
  -28.5760  -13.2260   20.6360 C   0  0  0  0  0  2  0  0  0  0  0  0
  -29.8230  -13.6360   19.9800 N   0  0  0  0  0  0  0  0  0  0  0  0
  -31.6090  -14.9850   19.7060 O   0  0  0  0  0  0  0  0  0  0  0  0
  -29.6410  -15.9800   20.3430 N   0  0  0  0  0  0  0  0  0  0  0  0
  -28.6580  -15.7670   20.3690 H   0  0  0  0  0  0  0  0  0  0  0  0
  -25.1020  -13.8700   20.4650 C   0  0  0  0  0  0  0  0  0  0  0  0
  -24.0710  -13.0670   20.8690 C   0  0  0  0  0  0  0  0  0  0  0  0
  -24.5520  -11.7260   20.7730 C   0  0  0  0  0  0  0  0  0  0  0  0
  -26.1430  -13.0160   20.1420 N   0  0  0  0  0  0  0  0  0  0  0  0
  -25.8230  -11.7190   20.3910 N   0  0  0  0  0  0  0  0  0  0  0  0
  -23.8580  -10.4460   20.9650 C   0  0  0  0  0  0  0  0  0  0  0  0
  -24.3010   -9.5000   21.9150 C   0  0  0  0  0  3  0  0  0  0  0  0
  -23.6020   -8.2850   22.0940 C   0  0  0  0  0  3  0  0  0  0  0  0
  -22.4480   -8.0100   21.3220 C   0  0  0  0  0  0  0  0  0  0  0  0
  -22.0260   -8.9450   20.3610 C   0  0  0  0  0  3  0  0  0  0  0  0
  -22.7240  -10.1510   20.1800 C   0  0  0  0  0  3  0  0  0  0  0  0
  -21.7210   -6.8480   21.4120 O   0  0  0  0  0  0  0  0  0  0  0  0
  -21.6230   -6.1480   22.5870 C   0  0  0  0  0  0  0  0  0  0  0  0
  -21.0770   -6.7270   23.7550 C   0  0  0  0  0  3  0  0  0  0  0  0
  -20.9290   -5.9520   24.9220 C   0  0  0  0  0  3  0  0  0  0  0  0
  -21.3170   -4.5980   24.9220 C   0  0  0  0  0  0  0  0  0  0  0  0
  -21.8560   -4.0190   23.7600 C   0  0  0  0  0  3  0  0  0  0  0  0
  -22.0040   -4.7920   22.5950 C   0  0  0  0  0  0  0  0  0  0  0  0
  -22.5050   -4.2230   21.4710 F   0  0  0  0  0  0  0  0  0  0  0  0
  -21.1680   -3.8490   26.0410 F   0  0  0  0  0  0  0  0  0  0  0  0
  -22.6830  -13.5130   21.2260 C   0  0  0  0  0  0  0  0  0  0  0  0
  -22.0080  -12.7750   22.1020 N   0  0  0  0  0  0  0  0  0  0  0  0
  -22.2050  -14.5500   20.7640 O   0  0  0  0  0  0  0  0  0  0  0  0
  -22.4050  -11.9360   22.4980 H   0  0  0  0  0  0  0  0  0  0  0  0
  -21.0800  -13.0580   22.3840 H   0  0  0  0  0  0  0  0  0  0  0  0
  -25.2330  -15.2490   20.3240 N   0  0  0  0  0  0  0  0  0  0  0  0
  -24.4590  -15.8770   20.5090 H   0  0  0  0  0  0  0  0  0  0  0  0
  -26.0450  -15.7230   19.9520 H   0  0  0  0  0  0  0  0  0  0  0  0
  -28.2370  -25.1480   20.8650 C   0  0  0  0  0  2  0  0  0  0  0  0
  -28.3090  -26.4610   20.1270 O   0  0  0  0  0  0  0  0  0  0  0  0
  -24.5930  -31.9460   23.2080 C   0  0  0  0  0  0  0  0  0  0  0  0
  -27.2120  -27.3520   20.1620 C   0  0  0  0  0  0  0  0  0  0  0  0
  -23.3960  -30.5420   21.5700 C   0  0  0  0  0  3  0  0  0  0  0  0
  -24.8530  -28.9920   20.1440 C   0  0  0  0  0  0  0  0  0  0  0  0
  -25.9380  -30.8580   21.3890 C   0  0  0  0  0  2  0  0  0  0  0  0
  -26.0230  -29.4730   20.7460 C   0  0  0  0  0  0  0  0  0  0  0  0
  -27.2080  -28.6650   20.7440 C   0  0  0  0  0  3  0  0  0  0  0  0
  -26.0250  -26.9460   19.5230 C   0  0  0  0  0  3  0  0  0  0  0  0
  -24.8590  -27.7340   19.5210 C   0  0  0  0  0  3  0  0  0  0  0  0
  -23.6150  -29.8670   20.1900 C   0  0  0  0  0  2  0  0  0  0  0  0
  -24.6620  -31.1330   22.1120 N   0  0  0  0  0  0  0  0  0  0  0  0
  -23.5090  -32.2210   23.7420 O   0  0  0  0  0  0  0  0  0  0  0  0
  -22.7370  -29.5220   22.5300 C   0  0  0  0  0  0  0  0  0  0  0  0
  -21.4100  -29.3410   22.4060 N   0  0  0  0  0  0  0  0  0  0  0  0
  -23.4190  -28.8980   23.3470 O   0  0  0  0  0  0  0  0  0  0  0  0
  -20.9170  -29.8970   21.7210 H   0  0  0  0  0  0  0  0  0  0  0  0
  -18.0390  -28.1390   22.9280 C   0  0  0  0  0  0  0  0  0  0  0  0
  -20.5990  -28.3980   23.1780 C   0  0  0  0  0  3  0  0  0  0  0  0
  -20.6960  -26.9700   22.5930 C   0  0  0  0  0  2  0  0  0  0  0  0
  -19.5860  -26.6520   21.5850 C   0  0  0  0  0  2  0  0  0  0  0  0
  -18.2090  -26.7940   22.2430 C   0  0  0  0  0  2  0  0  0  0  0  0
  -19.1610  -28.8990   23.3540 C   0  0  0  0  0  0  0  0  0  0  0  0
  -18.9470  -30.1570   23.9560 C   0  0  0  0  0  3  0  0  0  0  0  0
  -17.6430  -30.6560   24.1380 C   0  0  0  0  0  3  0  0  0  0  0  0
  -16.5360  -29.8950   23.7260 C   0  0  0  0  0  3  0  0  0  0  0  0
  -16.7350  -28.6370   23.1290 C   0  0  0  0  0  3  0  0  0  0  0  0
  -25.8720  -32.5850   23.8300 C   0  0  0  0  0  3  0  0  0  0  0  0
  -25.5540  -33.9810   24.1650 N   0  0  0  0  0  0  0  0  0  0  0  0
  -25.8860  -35.0400   23.4140 C   0  0  0  0  0  0  0  0  0  0  0  0
  -26.5600  -34.9450   22.3850 O   0  0  0  0  0  0  0  0  0  0  0  0
  -24.9560  -34.1300   24.9640 H   0  0  0  0  0  0  0  0  0  0  0  0
  -24.1600  -36.8360   23.0540 C   0  0  0  0  0  1  0  0  0  0  0  0
  -25.3910  -36.4240   23.8770 C   0  0  0  0  0  3  0  0  0  0  0  0
  -27.5100  -37.3080   24.7500 C   0  0  0  0  0  1  0  0  0  0  0  0
  -26.4240  -37.4800   23.7880 N   0  0  0  0  0  0  0  0  0  0  0  0
  -26.0140  -38.3990   23.9340 H   0  0  0  0  0  0  0  0  0  0  0  0
  -26.3960  -31.8140   25.1040 C   0  0  1  0  0  0  0  0  0  0  0  0
  -25.3030  -31.5620   26.1690 C   0  0  0  0  0  1  0  0  0  0  0  0
  -26.9930  -30.4440   24.7090 C   0  0  0  0  0  1  0  0  0  0  0  0
  -27.5370  -32.6200   25.7690 C   0  0  0  0  0  1  0  0  0  0  0  0
  2  1  2  0
  2 53  1  0
  3  6  1  0
  3  5  1  0
  4  3  2  0
  5  2  1  0
  6  7  1  0
  7 11  1  0
  7  1  1  0
  8  9  1  0
 10 11  1  0
 10 12  2  0
 11  8  2  0
 12 13  1  0
 13  9  2  0
 13 14  1  0
 15 23  1  0
 16 21  1  0
 17 18  1  0
 17 16  1  0
 19 18  1  0
 19 28  1  0
 19 20  1  0
 21 15  1  0
 21 20  1  0
 22 15  2  0
 23 24  1  0
 23 12  1  0
 25 26  2  0
 26 45  1  0
 27 26  1  0
 27 30  1  0
 28 29  1  0
 28 25  1  0
 29 27  2  0
 30 31  1  0
 31 32  2  0
 33 36  1  0
 33 32  1  0
 34 33  2  0
 35 34  1  0
 35 30  2  0
 36 37  1  0
 37 42  2  0
 37 38  1  0
 38 39  2  0
 39 40  1  0
 40 44  1  0
 41 40  2  0
 42 41  1  0
 43 42  1  0
 45 46  1  0
 46 49  1  0
 46 48  1  0
 47 45  2  0
 50 25  1  0
 50 51  1  0
 52 50  1  0
 54 56  1  0
 54 53  1  0
 55 66  2  0
 56 61  1  0
 57 65  1  0
 57 67  1  0
 58 64  1  0
 58 60  1  0
 59 65  1  0
 60 59  1  0
 61 60  2  0
 62 56  2  0
 63 62  1  0
 63 58  2  0
 64 57  1  0
 65 55  1  0
 67 69  2  0
 68 67  1  0
 70 68  1  0
 71 80  2  0
 71 76  1  0
 72 68  1  0
 72 76  1  0
 73 72  1  0
 74 75  1  0
 74 73  1  0
 75 71  1  0
 76 77  2  0
 77 78  1  0
 79 78  2  0
 80 79  1  0
 81 55  1  0
 81 82  1  0
 81 91  1  0
 82 85  1  0
 83 87  1  0
 83 82  1  0
 84 83  2  0
 87 86  1  0
 89 87  1  0
 89 90  1  0
 89 88  1  0
 91 94  1  1
 91 92  1  0
 93 91  1  0
M  ISO  4  15 100  23 100  53 101  54 101
M  END
>  <TORSDO>  (2) 
F 18

>  <SCORE>  (2) 
-14.892

>  <name>  (2) 
1

>  <ligand_id>  (2) 
1

>  <original_smiles>  (2) 
[H]C([H])=C1C([H])([H])C(C([H])([H])Oc2c([H])c([H])c3c(c2[H])C([H])([H])N(C(=O)C([H])(N([H])C(=O)C([H])(N([H])C([H])([H])[H])C([H])([H])[H])C(C([H])([H])[H])(C([H])([H])[H])C([H])([H])[H])C([H])(C(=O)N([H])C2([H])c4c([H])c([H])c([H])c([H])c4C([H])([H])C([H])([H])C2([H])[H])C3([H])[H])=C([H])N(c2c([H])c([H])c(F)c(N([H])C(=O)N3C([H])([H])C([H])([H])C([H])([H])C([H])(n4nc(-c5c([H])c([H])c(Oc6c([H])c([H])c(F)c([H])c6F)c([H])c5[H])c(C(=O)N([H])[H])c4N([H])[H])C3([H])[H])c2[H])C1([H])[H]

>  <smiles>  (2) 
[H]C([H])=C1C([H])([H])C(C([H])([H])Oc2c([H])c([H])c3c(c2[H])C([H])([H])N(C(=O)C([H])(N([H])C(=O)C([H])(N([H])C([H])([H])[H])C([H])([H])[H])C(C([H])([H])[H])(C([H])([H])[H])C([H])([H])[H])C([H])(C(=O)N([H])C2([H])c4c([H])c([H])c([H])c([H])c4C([H])([H])C([H])([H])C2([H])[H])C3([H])[H])=C([H])N(c2c([H])c([H])c(F)c(N([H])C(=O)N3C([H])([H])C([H])([H])C([H])([H])C([H])(n4nc(-c5c([H])c([H])c(Oc6c([H])c([H])c(F)c([H])c6F)c([H])c5[H])c(C(=O)N([H])[H])c4N([H])[H])C3([H])[H])c2[H])C1([H])[H]

$$$$
2:0:0
     RDKit          3D

 96105  0  0  1  0  0  0  0  0999 V2000
  -29.2530  -22.7700   20.0830 C   0  0  0  0  0  3  0  0  0  0  0  0
  -29.2710  -24.1090   19.7530 C   0  0  0  0  0  0  0  0  0  0  0  0
  -31.7830  -23.9490   19.7890 C   0  0  0  0  0  0  0  0  0  0  0  0
  -32.8830  -24.5200   20.3080 C   0  0  0  0  0  2  0  0  0  0  0  0
  -30.5800  -24.7760   19.3580 C   0  0  0  0  0  2  0  0  0  0  0  0
  -31.6620  -22.4390   19.6200 C   0  0  0  0  0  2  0  0  0  0  0  0
  -30.3740  -21.8870   20.0610 N   0  0  0  0  0  0  0  0  0  0  0  0
  -29.2760  -19.7070   20.7050 C   0  0  0  0  0  3  0  0  0  0  0  0
  -31.6160  -19.6880   20.2100 C   0  0  0  0  0  3  0  0  0  0  0  0
  -29.3230  -18.2950   20.9180 C   0  0  0  0  0  3  0  0  0  0  0  0
  -31.6620  -18.2720   20.3910 C   0  0  0  0  0  3  0  0  0  0  0  0
  -30.4150  -20.4580   20.3130 C   0  0  0  0  0  0  0  0  0  0  0  0
  -30.5030  -17.5170   20.7090 C   0  0  0  0  0  0  0  0  0  0  0  0
  -31.0410  -15.0300   21.2240 C   0  0  0  0  0  0  0  0  0  0  0  0
  -31.0400  -12.5600   20.7940 C   0  0  0  0  0  2  0  0  0  0  0  0
  -30.3900  -12.2000   19.4380 C   0  0  0  0  0  2  0  0  0  0  0  0
  -28.8540  -12.1200   19.5440 C   0  0  0  0  0  2  0  0  0  0  0  0
  -28.2190  -13.2570   20.3840 C   0  0  0  0  0  3  0  0  0  0  0  0
  -29.0150  -13.5540   21.6730 C   0  0  0  0  0  2  0  0  0  0  0  0
  -30.4100  -13.8020   21.2780 N   0  0  0  0  0  0  0  0  0  0  0  0
  -32.2550  -15.0900   21.4220 O   0  0  0  0  0  0  0  0  0  0  0  0
  -30.0870  -15.8450   19.1850 C   0  0  0  0  0  0  0  0  0  0  0  0
  -30.4320  -16.0570   20.4850 N   0  0  0  0  0  0  0  0  0  0  0  0
  -28.9660  -16.1480   18.7540 O   0  0  0  0  0  0  0  0  0  0  0  0
  -25.7690  -13.9790   20.5800 C   0  0  0  0  0  0  0  0  0  0  0  0
  -24.6200  -13.2560   20.7560 C   0  0  0  0  0  0  0  0  0  0  0  0
  -25.0300  -11.8940   20.8940 C   0  0  0  0  0  0  0  0  0  0  0  0
  -26.8000  -13.0520   20.6180 N   0  0  0  0  0  0  0  0  0  0  0  0
  -26.3510  -11.8010   20.8740 N   0  0  0  0  0  0  0  0  0  0  0  0
  -24.2430  -10.6620   20.9880 C   0  0  0  0  0  0  0  0  0  0  0  0
  -24.6020   -9.6270   21.8790 C   0  0  0  0  0  3  0  0  0  0  0  0
  -23.8180   -8.4570   21.9680 C   0  0  0  0  0  3  0  0  0  0  0  0
  -22.6650   -8.3140   21.1620 C   0  0  0  0  0  0  0  0  0  0  0  0
  -22.3260   -9.3370   20.2590 C   0  0  0  0  0  3  0  0  0  0  0  0
  -23.1090  -10.4990   20.1680 C   0  0  0  0  0  3  0  0  0  0  0  0
  -21.8570   -7.2040   21.1630 O   0  0  0  0  0  0  0  0  0  0  0  0
  -21.8520   -6.3200   22.2110 C   0  0  0  0  0  0  0  0  0  0  0  0
  -21.5490   -6.7270   23.5290 C   0  0  0  0  0  3  0  0  0  0  0  0
  -21.4910   -5.7730   24.5640 C   0  0  0  0  0  3  0  0  0  0  0  0
  -21.7230   -4.4130   24.2840 C   0  0  0  0  0  0  0  0  0  0  0  0
  -22.0180   -4.0050   22.9710 C   0  0  0  0  0  3  0  0  0  0  0  0
  -22.0800   -4.9560   21.9370 C   0  0  0  0  0  0  0  0  0  0  0  0
  -22.3440   -4.5550   20.6700 F   0  0  0  0  0  0  0  0  0  0  0  0
  -21.6580   -3.4950   25.2760 F   0  0  0  0  0  0  0  0  0  0  0  0
  -23.2140  -13.7780   20.6980 C   0  0  0  0  0  0  0  0  0  0  0  0
  -22.3110  -13.1880   21.4720 N   0  0  0  0  0  0  0  0  0  0  0  0
  -22.9190  -14.7480   20.0000 O   0  0  0  0  0  0  0  0  0  0  0  0
  -22.5560  -12.4020   22.0570 H   0  0  0  0  0  0  0  0  0  0  0  0
  -21.3600  -13.5290   21.4820 H   0  0  0  0  0  0  0  0  0  0  0  0
  -26.0200  -15.3330   20.3620 N   0  0  0  0  0  0  0  0  0  0  0  0
  -25.2720  -16.0090   20.2480 H   0  0  0  0  0  0  0  0  0  0  0  0
  -26.9330  -15.7120   20.1300 H   0  0  0  0  0  0  0  0  0  0  0  0
  -30.9370  -15.0950   17.0250 C   0  0  0  0  0  2  0  0  0  0  0  0
  -31.1640  -15.3620   18.3250 C   0  0  0  0  0  3  0  0  0  0  0  0
  -28.0120  -25.0430   19.7030 C   0  0  0  0  0  2  0  0  0  0  0  0
  -28.1880  -26.4850   19.3970 O   0  0  0  0  0  0  0  0  0  0  0  0
  -24.6110  -31.6270   22.9710 C   0  0  0  0  0  0  0  0  0  0  0  0
  -27.0540  -27.3130   19.4640 C   0  0  0  0  0  0  0  0  0  0  0  0
  -23.3070  -30.3140   21.3360 C   0  0  0  0  0  3  0  0  0  0  0  0
  -24.6700  -28.8820   19.7150 C   0  0  0  0  0  0  0  0  0  0  0  0
  -25.8240  -30.6850   20.9950 C   0  0  0  0  0  2  0  0  0  0  0  0
  -25.8730  -29.3540   20.2550 C   0  0  0  0  0  0  0  0  0  0  0  0
  -27.0660  -28.5840   20.1170 C   0  0  0  0  0  3  0  0  0  0  0  0
  -25.8230  -26.8960   18.9030 C   0  0  0  0  0  3  0  0  0  0  0  0
  -24.6470  -27.6590   19.0280 C   0  0  0  0  0  3  0  0  0  0  0  0
  -23.4300  -29.7310   19.9040 C   0  0  0  0  0  2  0  0  0  0  0  0
  -24.6030  -30.8900   21.8230 N   0  0  0  0  0  0  0  0  0  0  0  0
  -23.5650  -31.8530   23.5980 O   0  0  0  0  0  0  0  0  0  0  0  0
  -22.7260  -29.2290   22.2740 C   0  0  0  0  0  0  0  0  0  0  0  0
  -21.4020  -29.0110   22.2000 N   0  0  0  0  0  0  0  0  0  0  0  0
  -23.4640  -28.5910   23.0300 O   0  0  0  0  0  0  0  0  0  0  0  0
  -20.8650  -29.5790   21.5600 H   0  0  0  0  0  0  0  0  0  0  0  0
  -18.1190  -27.5720   22.6870 C   0  0  0  0  0  0  0  0  0  0  0  0
  -20.6530  -28.0100   22.9620 C   0  0  0  0  0  3  0  0  0  0  0  0
  -20.8560  -26.5940   22.3760 C   0  0  0  0  0  2  0  0  0  0  0  0
  -19.7800  -26.2030   21.3580 C   0  0  0  0  0  2  0  0  0  0  0  0
  -18.3920  -26.2440   22.0000 C   0  0  0  0  0  2  0  0  0  0  0  0
  -19.1800  -28.4080   23.1250 C   0  0  0  0  0  0  0  0  0  0  0  0
  -18.8710  -29.6470   23.7270 C   0  0  0  0  0  3  0  0  0  0  0  0
  -17.5330  -30.0520   23.8950 C   0  0  0  0  0  3  0  0  0  0  0  0
  -16.4870  -29.2140   23.4730 C   0  0  0  0  0  3  0  0  0  0  0  0
  -16.7800  -27.9760   22.8750 C   0  0  0  0  0  3  0  0  0  0  0  0
  -25.9280  -32.2380   23.5390 C   0  0  0  0  0  3  0  0  0  0  0  0
  -26.6010  -31.3400   24.6490 C   0  0  1  0  0  0  0  0  0  0  0  0
  -25.6370  -30.9310   25.7870 C   0  0  0  0  0  1  0  0  0  0  0  0
  -27.1780  -30.0450   24.0320 C   0  0  0  0  0  1  0  0  0  0  0  0
  -27.7930  -32.0970   25.2800 C   0  0  0  0  0  1  0  0  0  0  0  0
  -25.6060  -33.5680   24.0750 N   0  0  0  0  0  0  0  0  0  0  0  0
  -25.9710  -34.7270   23.5090 C   0  0  0  0  0  0  0  0  0  0  0  0
  -26.6850  -34.7830   22.5040 O   0  0  0  0  0  0  0  0  0  0  0  0
  -24.9770  -33.5970   24.8640 H   0  0  0  0  0  0  0  0  0  0  0  0
  -24.2780  -36.5800   23.3570 C   0  0  0  0  0  1  0  0  0  0  0  0
  -25.4650  -36.0280   24.1620 C   0  0  0  0  0  3  0  0  0  0  0  0
  -27.5530  -36.7290   25.2470 C   0  0  0  0  0  1  0  0  0  0  0  0
  -26.5100  -37.0690   24.2830 N   0  0  0  0  0  0  0  0  0  0  0  0
  -26.1010  -37.9580   24.5590 H   0  0  0  0  0  0  0  0  0  0  0  0
  2  1  2  0
  3  4  2  0
  5  2  1  0
  5  3  1  0
  6  3  1  0
  6  7  1  0
  7  1  1  0
  7 12  1  0
  8 10  1  0
  9 12  1  0
  9 11  2  0
 11 13  1  0
 12  8  2  0
 13 10  2  0
 14 20  1  0
 14 21  2  0
 15 20  1  0
 16 17  1  0
 16 15  1  0
 18 17  1  0
 18 28  1  0
 18 19  1  0
 20 19  1  0
 22 23  1  0
 23 13  1  0
 23 14  1  0
 24 22  2  0
 25 28  1  0
 25 26  2  0
 26 27  1  0
 27 30  1  0
 28 29  1  0
 29 27  2  0
 30 31  1  0
 31 32  2  0
 33 36  1  0
 33 32  1  0
 34 33  2  0
 35 34  1  0
 35 30  2  0
 36 37  1  0
 37 38  1  0
 38 39  2  0
 40 39  1  0
 40 44  1  0
 41 40  2  0
 42 37  2  0
 42 41  1  0
 43 42  1  0
 45 26  1  0
 45 46  1  0
 46 49  1  0
 46 48  1  0
 47 45  2  0
 50 25  1  0
 51 50  1  0
 52 50  1  0
 53 54  2  0
 54 22  1  0
 55  2  1  0
 56 58  1  0
 56 55  1  0
 57 68  2  0
 58 63  1  0
 59 67  1  0
 59 69  1  0
 60 66  1  0
 60 62  1  0
 61 67  1  0
 62 61  1  0
 63 62  2  0
 64 65  1  0
 64 58  2  0
 65 60  2  0
 66 59  1  0
 67 57  1  0
 69 71  2  0
 70 69  1  0
 72 70  1  0
 73 82  2  0
 73 78  1  0
 74 70  1  0
 74 78  1  0
 75 74  1  0
 76 77  1  0
 76 75  1  0
 77 73  1  0
 78 79  2  0
 79 80  1  0
 81 80  2  0
 82 81  1  0
 83 57  1  0
 83 88  1  0
 83 84  1  0
 84 87  1  1
 84 85  1  0
 86 84  1  0
 88 91  1  0
 89 88  1  0
 89 93  1  0
 90 89  2  0
 93 92  1  0
 93 95  1  0
 95 96  1  0
 95 94  1  0
M  ISO  4  14 100  23 100  55 101  56 101
M  END
>  <TORSDO>  (3) 
F 19

>  <SCORE>  (3) 
-10.678

>  <name>  (3) 
2

>  <ligand_id>  (3) 
2

>  <original_smiles>  (3) 
[H]C([H])=C([H])C(=O)N(C(=O)N1C([H])([H])C([H])([H])C([H])([H])C([H])(n2nc(-c3c([H])c([H])c(Oc4c([H])c([H])c(F)c([H])c4F)c([H])c3[H])c(C(=O)N([H])[H])c2N([H])[H])C1([H])[H])c1c([H])c([H])c(N2C([H])=C(C([H])([H])Oc3c([H])c([H])c4c(c3[H])C([H])([H])N(C(=O)C([H])(N([H])C(=O)C([H])(N([H])C([H])([H])[H])C([H])([H])[H])C(C([H])([H])[H])(C([H])([H])[H])C([H])([H])[H])C([H])(C(=O)N([H])C3([H])c5c([H])c([H])c([H])c([H])c5C([H])([H])C([H])([H])C3([H])[H])C4([H])[H])C([H])([H])C(=C([H])[H])C2([H])[H])c([H])c1[H]

>  <smiles>  (3) 
[H]C([H])=C([H])C(=O)N(C(=O)N1C([H])([H])C([H])([H])C([H])([H])C([H])(n2nc(-c3c([H])c([H])c(Oc4c([H])c([H])c(F)c([H])c4F)c([H])c3[H])c(C(=O)N([H])[H])c2N([H])[H])C1([H])[H])c1c([H])c([H])c(N2C([H])=C(C([H])([H])Oc3c([H])c([H])c4c(c3[H])C([H])([H])N(C(=O)C([H])(N([H])C(=O)C([H])(N([H])C([H])([H])[H])C([H])([H])[H])C(C([H])([H])[H])(C([H])([H])[H])C([H])([H])[H])C([H])(C(=O)N([H])C3([H])c5c([H])c([H])c([H])c([H])c5C([H])([H])C([H])([H])C3([H])[H])C4([H])[H])C([H])([H])C(=C([H])[H])C2([H])[H])c([H])c1[H]

$$$$
3:0:0
     RDKit          3D

 93102  0  0  1  0  0  0  0  0999 V2000
  -28.7480  -22.4300   19.7280 C   0  0  0  0  0  3  0  0  0  0  0  0
  -28.7380  -23.6920   20.2640 C   0  0  0  0  0  0  0  0  0  0  0  0
  -29.2550  -23.4600   21.5980 C   0  0  0  0  0  0  0  0  0  0  0  0
  -29.4500  -24.4170   22.5180 C   0  0  0  0  0  1  0  0  0  0  0  0
  -29.5670  -21.9600   21.8060 C   0  0  0  0  0  3  0  0  0  0  0  0
  -29.1820  -21.3320   20.5370 N   0  0  0  0  0  0  0  0  0  0  0  0
  -30.6950  -18.7740   18.2600 C   0  0  0  0  0  3  0  0  0  0  0  0
  -30.2440  -19.9730   18.8300 C   0  0  0  0  0  3  0  0  0  0  0  0
  -29.6920  -18.7450   20.8490 C   0  0  0  0  0  3  0  0  0  0  0  0
  -30.6290  -17.5410   18.9410 C   0  0  0  0  0  0  0  0  0  0  0  0
  -29.6910  -20.0240   20.1240 C   0  0  0  0  0  0  0  0  0  0  0  0
  -30.1650  -17.4680   20.2900 C   0  0  0  0  0  0  0  0  0  0  0  0
  -30.9800  -16.3160   18.1130 C   0  0  0  0  0  1  0  0  0  0  0  0
  -30.8280  -14.9700   20.8980 C   0  0  0  0  0  0  0  0  0  0  0  0
  -30.7420  -12.6310   20.0120 C   0  0  0  0  0  2  0  0  0  0  0  0
  -29.9160  -12.5910   18.7060 C   0  0  0  0  0  2  0  0  0  0  0  0
  -28.4120  -12.4510   19.0100 C   0  0  0  0  0  2  0  0  0  0  0  0
  -27.9240  -13.3940   20.1420 C   0  0  0  0  0  3  0  0  0  0  0  0
  -28.8800  -13.3850   21.3540 C   0  0  0  0  0  2  0  0  0  0  0  0
  -30.2180  -13.7320   20.8580 N   0  0  0  0  0  0  0  0  0  0  0  0
  -32.0470  -15.0420   20.7130 O   0  0  0  0  0  0  0  0  0  0  0  0
  -30.0410  -16.1250   20.9620 N   0  0  0  0  0  0  0  0  0  0  0  0
  -29.1310  -15.9560   21.3640 H   0  0  0  0  0  0  0  0  0  0  0  0
  -25.4790  -13.9790   20.6500 C   0  0  0  0  0  0  0  0  0  0  0  0
  -24.3890  -13.2050   20.9430 C   0  0  0  0  0  0  0  0  0  0  0  0
  -24.8610  -11.8580   20.9870 C   0  0  0  0  0  0  0  0  0  0  0  0
  -26.5450  -13.1040   20.5260 N   0  0  0  0  0  0  0  0  0  0  0  0
  -26.1760  -11.8250   20.7960 N   0  0  0  0  0  0  0  0  0  0  0  0
  -24.1290  -10.5940   21.1410 C   0  0  0  0  0  0  0  0  0  0  0  0
  -24.4910   -9.6450   22.1230 C   0  0  0  0  0  3  0  0  0  0  0  0
  -23.7580   -8.4460   22.2650 C   0  0  0  0  0  3  0  0  0  0  0  0
  -22.6490   -8.1880   21.4240 C   0  0  0  0  0  0  0  0  0  0  0  0
  -22.3080   -9.1270   20.4340 C   0  0  0  0  0  3  0  0  0  0  0  0
  -23.0420  -10.3170   20.2900 C   0  0  0  0  0  3  0  0  0  0  0  0
  -21.8950   -7.0410   21.4720 O   0  0  0  0  0  0  0  0  0  0  0  0
  -21.7600   -6.3170   22.6290 C   0  0  0  0  0  0  0  0  0  0  0  0
  -21.2190   -6.8840   23.8040 C   0  0  0  0  0  3  0  0  0  0  0  0
  -21.0320   -6.0860   24.9490 C   0  0  0  0  0  3  0  0  0  0  0  0
  -21.3760   -4.7210   24.9210 C   0  0  0  0  0  0  0  0  0  0  0  0
  -21.9100   -4.1540   23.7510 C   0  0  0  0  0  3  0  0  0  0  0  0
  -22.0990   -4.9500   22.6080 C   0  0  0  0  0  0  0  0  0  0  0  0
  -22.5940   -4.3930   21.4760 F   0  0  0  0  0  0  0  0  0  0  0  0
  -21.1910   -3.9510   26.0200 F   0  0  0  0  0  0  0  0  0  0  0  0
  -22.9710  -13.6770   21.0760 C   0  0  0  0  0  0  0  0  0  0  0  0
  -22.1750  -13.0020   21.8960 N   0  0  0  0  0  0  0  0  0  0  0  0
  -22.5730  -14.6820   20.4880 O   0  0  0  0  0  0  0  0  0  0  0  0
  -22.5090  -12.1900   22.3950 H   0  0  0  0  0  0  0  0  0  0  0  0
  -21.2190  -13.3010   22.0300 H   0  0  0  0  0  0  0  0  0  0  0  0
  -25.6520  -15.3450   20.4540 N   0  0  0  0  0  0  0  0  0  0  0  0
  -24.8760  -15.9970   20.4770 H   0  0  0  0  0  0  0  0  0  0  0  0
  -26.5220  -15.7790   20.1750 H   0  0  0  0  0  0  0  0  0  0  0  0
  -28.3140  -25.0450   19.5000 C   0  0  0  0  0  2  0  0  0  0  0  0
  -28.2880  -26.4330   20.1080 O   0  0  0  0  0  0  0  0  0  0  0  0
  -24.5350  -31.9020   23.1090 C   0  0  0  0  0  0  0  0  0  0  0  0
  -27.1750  -27.3180   20.0180 C   0  0  0  0  0  0  0  0  0  0  0  0
  -23.3420  -30.5000   21.4680 C   0  0  0  0  0  3  0  0  0  0  0  0
  -24.8030  -28.9690   20.0250 C   0  0  0  0  0  0  0  0  0  0  0  0
  -25.8850  -30.8230   21.2850 C   0  0  0  0  0  2  0  0  0  0  0  0
  -25.9730  -29.4430   20.6280 C   0  0  0  0  0  0  0  0  0  0  0  0
  -27.1560  -28.6290   20.6170 C   0  0  0  0  0  3  0  0  0  0  0  0
  -25.9690  -26.9230   19.3880 C   0  0  0  0  0  3  0  0  0  0  0  0
  -24.8090  -27.7180   19.3950 C   0  0  0  0  0  3  0  0  0  0  0  0
  -23.5610  -29.8370   20.0840 C   0  0  0  0  0  2  0  0  0  0  0  0
  -24.6070  -31.0940   22.0090 N   0  0  0  0  0  0  0  0  0  0  0  0
  -23.4500  -32.1670   23.6450 O   0  0  0  0  0  0  0  0  0  0  0  0
  -22.6900  -29.4720   22.4260 C   0  0  0  0  0  0  0  0  0  0  0  0
  -21.3590  -29.3050   22.3240 N   0  0  0  0  0  0  0  0  0  0  0  0
  -23.3780  -28.8310   23.2240 O   0  0  0  0  0  0  0  0  0  0  0  0
  -20.8610  -29.8730   21.6530 H   0  0  0  0  0  0  0  0  0  0  0  0
  -17.9820  -28.1330   22.8940 C   0  0  0  0  0  0  0  0  0  0  0  0
  -20.5500  -28.3610   23.0980 C   0  0  0  0  0  3  0  0  0  0  0  0
  -20.6190  -26.9400   22.4900 C   0  0  0  0  0  2  0  0  0  0  0  0
  -19.4870  -26.6510   21.5010 C   0  0  0  0  0  2  0  0  0  0  0  0
  -18.1250  -26.7970   22.1850 C   0  0  0  0  0  2  0  0  0  0  0  0
  -19.1200  -28.8740   23.3080 C   0  0  0  0  0  0  0  0  0  0  0  0
  -18.9310  -30.1260   23.9330 C   0  0  0  0  0  3  0  0  0  0  0  0
  -17.6360  -30.6350   24.1490 C   0  0  0  0  0  3  0  0  0  0  0  0
  -16.5130  -29.8910   23.7490 C   0  0  0  0  0  3  0  0  0  0  0  0
  -16.6870  -28.6420   23.1270 C   0  0  0  0  0  3  0  0  0  0  0  0
  -25.8110  -32.5480   23.7290 C   0  0  0  0  0  3  0  0  0  0  0  0
  -25.4750  -33.9300   24.1010 N   0  0  0  0  0  0  0  0  0  0  0  0
  -25.8230  -35.0160   23.3960 C   0  0  0  0  0  0  0  0  0  0  0  0
  -26.5290  -34.9580   22.3850 O   0  0  0  0  0  0  0  0  0  0  0  0
  -24.8510  -34.0480   24.8850 H   0  0  0  0  0  0  0  0  0  0  0  0
  -24.1190  -36.8310   23.0250 C   0  0  0  0  0  1  0  0  0  0  0  0
  -25.3080  -36.3820   23.8900 C   0  0  0  0  0  3  0  0  0  0  0  0
  -27.3880  -37.2180   24.8930 C   0  0  0  0  0  1  0  0  0  0  0  0
  -26.3440  -37.4360   23.8940 N   0  0  0  0  0  0  0  0  0  0  0  0
  -25.9300  -38.3490   24.0620 H   0  0  0  0  0  0  0  0  0  0  0  0
  -26.3590  -31.7570   24.9810 C   0  0  1  0  0  0  0  0  0  0  0  0
  -25.2850  -31.4740   26.0570 C   0  0  0  0  0  1  0  0  0  0  0  0
  -26.9620  -30.4000   24.5510 C   0  0  0  0  0  1  0  0  0  0  0  0
  -27.5030  -32.5570   25.6460 C   0  0  0  0  0  1  0  0  0  0  0  0
  1  2  2  0
  1  6  1  0
  2  3  1  0
  3  5  2  0
  3  4  1  0
  6  5  1  0
  7  8  2  0
  7 10  1  0
  8 11  1  0
 10 12  2  0
 11  6  1  0
 11  9  2  0
 12  9  1  0
 12 22  1  0
 13 10  1  0
 14 22  1  0
 15 20  1  0
 16 17  1  0
 16 15  1  0
 18 17  1  0
 18 27  1  0
 18 19  1  0
 20 14  1  0
 20 19  1  0
 21 14  2  0
 22 23  1  0
 24 25  2  0
 25 26  1  0
 25 44  1  0
 26 29  1  0
 27 24  1  0
 27 28  1  0
 28 26  2  0
 29 30  1  0
 30 31  2  0
 32 35  1  0
 32 31  1  0
 33 32  2  0
 34 33  1  0
 34 29  2  0
 35 36  1  0
 36 37  1  0
 37 38  2  0
 39 38  1  0
 39 43  1  0
 40 39  2  0
 41 36  2  0
 41 40  1  0
 42 41  1  0
 44 45  1  0
 45 48  1  0
 45 47  1  0
 46 44  2  0
 49 50  1  0
 49 24  1  0
 51 49  1  0
 52 53  1  0
 52  2  1  0
 54 65  2  0
 55 53  1  0
 55 60  1  0
 56 64  1  0
 56 66  1  0
 57 63  1  0
 57 59  1  0
 58 64  1  0
 59 58  1  0
 60 59  2  0
 61 62  1  0
 61 55  2  0
 62 57  2  0
 63 56  1  0
 64 54  1  0
 66 68  2  0
 67 66  1  0
 69 67  1  0
 70 79  2  0
 70 75  1  0
 71 67  1  0
 71 75  1  0
 72 71  1  0
 73 74  1  0
 73 72  1  0
 74 70  1  0
 75 76  2  0
 76 77  1  0
 78 77  2  0
 79 78  1  0
 80 54  1  0
 80 81  1  0
 80 90  1  0
 81 84  1  0
 82 86  1  0
 82 81  1  0
 83 82  2  0
 86 85  1  0
 86 88  1  0
 88 89  1  0
 88 87  1  0
 90 93  1  1
 90 91  1  0
 92 90  1  0
M  ISO  4  14 100  22 100  52 101  53 101
M  END
>  <TORSDO>  (4) 
F 18

>  <SCORE>  (4) 
-14.459

>  <name>  (4) 
3

>  <ligand_id>  (4) 
3

>  <original_smiles>  (4) 
[H]C([H])=C1C(C([H])([H])Oc2c([H])c([H])c3c(c2[H])C([H])([H])N(C(=O)C([H])(N([H])C(=O)C([H])(N([H])C([H])([H])[H])C([H])([H])[H])C(C([H])([H])[H])(C([H])([H])[H])C([H])([H])[H])C([H])(C(=O)N([H])C2([H])c4c([H])c([H])c([H])c([H])c4C([H])([H])C([H])([H])C2([H])[H])C3([H])[H])=C([H])N(c2c([H])c([H])c(C([H])([H])[H])c(N([H])C(=O)N3C([H])([H])C([H])([H])C([H])([H])C([H])(n4nc(-c5c([H])c([H])c(Oc6c([H])c([H])c(F)c([H])c6F)c([H])c5[H])c(C(=O)N([H])[H])c4N([H])[H])C3([H])[H])c2[H])C1([H])[H]

>  <smiles>  (4) 
[H]C([H])=C1C(C([H])([H])Oc2c([H])c([H])c3c(c2[H])C([H])([H])N(C(=O)C([H])(N([H])C(=O)C([H])(N([H])C([H])([H])[H])C([H])([H])[H])C(C([H])([H])[H])(C([H])([H])[H])C([H])([H])[H])C([H])(C(=O)N([H])C2([H])c4c([H])c([H])c([H])c([H])c4C([H])([H])C([H])([H])C2([H])[H])C3([H])[H])=C([H])N(c2c([H])c([H])c(C([H])([H])[H])c(N([H])C(=O)N3C([H])([H])C([H])([H])C([H])([H])C([H])(n4nc(-c5c([H])c([H])c(Oc6c([H])c([H])c(F)c([H])c6F)c([H])c5[H])c(C(=O)N([H])[H])c4N([H])[H])C3([H])[H])c2[H])C1([H])[H]

$$$$
4:0:0
     RDKit          3D

 97 98  0  0  1  0  0  0  0  0999 V2000
  -28.2880  -18.9320   20.5490 C   0  0  0  0  0  2  0  0  0  0  0  0
  -29.6240  -17.2400   21.0770 C   0  0  0  0  0 15  0  0  0  0  0  0
  -29.9410  -19.2910   17.4840 C   0  0  0  0  0 15  0  0  0  0  0  0
  -31.5820  -17.5320   18.0880 C   0  0  0  0  0 15  0  0  0  0  0  0
  -28.4920  -20.3650   18.9820 C   0  0  0  0  0 15  0  0  0  0  0  0
  -31.2360  -16.5920   19.9230 N   0  0  0  0  0  1  0  0  0  0  0  0
  -27.3250  -19.0920   21.2950 O   0  0  0  0  0  0  0  0  0  0  0  0
  -33.9210  -18.3080   19.9400 C   0  0  0  0  0  3  0  0  0  0  0  0
  -33.5570  -16.9400   20.0930 C   0  0  0  0  0  2  0  0  0  0  0  0
  -32.9070  -19.2690   20.2510 C   0  0  0  0  0  3  0  0  0  0  0  0
  -32.3360  -16.7220   20.7600 C   0  0  0  0  0  3  0  0  0  0  0  0
  -31.6080  -18.7730   20.7540 C   0  0  2  0  0  0  0  0  0  0  0  0
  -32.0190  -17.7520   21.6360 C   0  0  0  0  0  3  0  0  0  0  0  0
  -32.9170  -18.0460   22.6060 F   0  0  0  0  0  0  0  0  0  0  0  0
  -29.0980  -17.0020   18.9380 C   0  0  0  0  0  2  0  0  0  0  0  0
  -29.5030  -14.1120   18.1380 C   0  0  0  0  0  2  0  0  0  0  0  0
  -28.5090  -13.3540   17.1290 C   0  0  0  0  0  2  0  0  0  0  0  0
  -27.3090  -12.7110   17.8320 C   0  0  0  0  0  2  0  0  0  0  0  0
  -26.8710  -13.6750   18.9450 C   0  0  0  0  0  3  0  0  0  0  0  0
  -28.0550  -14.3410   19.8060 C   0  0  0  0  0  2  0  0  0  0  0  0
  -28.9930  -15.3490   19.0760 N   0  0  0  0  0  0  0  0  0  0  0  0
  -29.2230  -16.6710   17.7280 O   0  0  0  0  0  1  0  0  0  0  0  0
  -30.2210  -18.6470   19.8970 N   0  0  0  0  0  2  0  0  0  0  0  0
  -24.7680  -13.8980   20.3360 C   0  0  0  0  0  0  0  0  0  0  0  0
  -23.8580  -13.0270   20.8700 C   0  0  0  0  0  0  0  0  0  0  0  0
  -24.3310  -11.7160   20.5470 C   0  0  0  0  0  0  0  0  0  0  0  0
  -25.7440  -13.1380   19.7310 N   0  0  0  0  0  0  0  0  0  0  0  0
  -25.5060  -11.8020   19.9060 N   0  0  0  0  0  0  0  0  0  0  0  0
  -23.6810  -10.4030   20.7730 C   0  0  0  0  0  0  0  0  0  0  0  0
  -24.2220   -9.4440   21.6600 C   0  0  0  0  0  3  0  0  0  0  0  0
  -23.5620   -8.2180   21.8980 C   0  0  0  0  0  3  0  0  0  0  0  0
  -22.3380   -7.9310   21.2510 C   0  0  0  0  0  0  0  0  0  0  0  0
  -21.8000   -8.8760   20.3590 C   0  0  0  0  0  3  0  0  0  0  0  0
  -22.4650  -10.0940   20.1210 C   0  0  0  0  0  3  0  0  0  0  0  0
  -21.6470   -6.7500   21.3940 O   0  0  0  0  0  0  0  0  0  0  0  0
  -21.5990   -6.0780   22.5890 C   0  0  0  0  0  0  0  0  0  0  0  0
  -21.0760   -6.6750   23.7560 C   0  0  0  0  0  3  0  0  0  0  0  0
  -20.9890   -5.9300   24.9480 C   0  0  0  0  0  3  0  0  0  0  0  0
  -21.4090   -4.5860   24.9700 C   0  0  0  0  0  0  0  0  0  0  0  0
  -21.9220   -3.9890   23.8050 C   0  0  0  0  0  3  0  0  0  0  0  0
  -22.0140   -4.7320   22.6170 C   0  0  0  0  0  0  0  0  0  0  0  0
  -22.4940   -4.1480   21.4910 F   0  0  0  0  0  0  0  0  0  0  0  0
  -21.3130   -3.8630   26.1100 F   0  0  0  0  0  0  0  0  0  0  0  0
  -22.5680  -13.4060   21.5410 C   0  0  0  0  0  0  0  0  0  0  0  0
  -22.1340  -12.6220   22.5200 N   0  0  0  0  0  0  0  0  0  0  0  0
  -21.9660  -14.4330   21.2320 O   0  0  0  0  0  0  0  0  0  0  0  0
  -22.6350  -11.7890   22.7840 H   0  0  0  0  0  0  0  0  0  0  0  0
  -21.2830  -12.8510   23.0130 H   0  0  0  0  0  0  0  0  0  0  0  0
  -24.8440  -15.2830   20.2810 N   0  0  0  0  0  0  0  0  0  0  0  0
  -24.1220  -15.8780   20.6740 H   0  0  0  0  0  0  0  0  0  0  0  0
  -25.5670  -15.7840   19.7860 H   0  0  0  0  0  0  0  0  0  0  0  0
  -31.1230  -21.1000   19.3300 C   0  0  0  0  0  1  0  0  0  0  0  0
  -30.5160  -20.1330   20.0870 C   0  0  0  0  0  3  0  0  0  0  0  0
  -26.8550  -22.5130   20.3840 C   0  0  0  0  0  1  0  0  0  0  0  0
  -26.9090  -22.7740   17.8320 C   0  0  0  0  0  1  0  0  0  0  0  0
  -27.7190  -22.6950   19.1340 C   0  0  0  0  0  2  0  0  0  0  0  0
  -27.6440  -24.8430   19.3890 O   0  0  0  0  0  1  0  0  0  0  0  0
  -24.5030  -31.8520   23.0320 C   0  0  0  0  0  0  0  0  0  0  0  0
  -26.7140  -26.3550   19.5360 C   0  0  0  0  0  0  0  0  0  0  0  0
  -23.1690  -30.5200   21.4630 C   0  0  0  0  0  3  0  0  0  0  0  0
  -24.4760  -28.8000   19.8580 C   0  0  0  0  0  0  0  0  0  0  0  0
  -25.7550  -30.4760   21.1350 C   0  0  0  0  0  2  0  0  0  0  0  0
  -25.7520  -29.0000   20.4000 C   0  0  0  0  0  0  0  0  0  0  0  0
  -26.8040  -27.8410   20.1960 C   0  0  0  0  0  3  0  0  0  0  0  0
  -25.3840  -26.5460   18.9650 C   0  0  0  0  0  3  0  0  0  0  0  0
  -24.3740  -27.6020   19.1070 C   0  0  0  0  0  3  0  0  0  0  0  0
  -23.3030  -29.8220   20.0600 C   0  0  0  0  0  2  0  0  0  0  0  0
  -24.5140  -30.9960   21.9280 N   0  0  0  0  0  0  0  0  0  0  0  0
  -23.4550  -32.1530   23.6370 O   0  0  0  0  0  0  0  0  0  0  0  0
  -22.4840  -29.5640   22.4850 C   0  0  0  0  0  0  0  0  0  0  0  0
  -21.1590  -29.3200   22.3820 N   0  0  0  0  0  0  0  0  0  0  0  0
  -23.1740  -29.0320   23.3550 O   0  0  0  0  0  0  0  0  0  0  0  0
  -20.6330  -29.8050   21.6680 H   0  0  0  0  0  0  0  0  0  0  0  0
  -17.9570  -27.6230   22.8370 C   0  0  0  0  0  0  0  0  0  0  0  0
  -20.4230  -28.3320   23.1930 C   0  0  0  0  0  3  0  0  0  0  0  0
  -20.7810  -26.8900   22.7580 C   0  0  0  0  0  2  0  0  0  0  0  0
  -19.8140  -26.3170   21.7180 C   0  0  0  0  0  2  0  0  0  0  0  0
  -18.3890  -26.2780   22.2770 C   0  0  0  0  0  2  0  0  0  0  0  0
  -18.9090  -28.5940   23.2520 C   0  0  0  0  0  0  0  0  0  0  0  0
  -18.4490  -29.8340   23.7450 C   0  0  0  0  0  3  0  0  0  0  0  0
  -17.0710  -30.1120   23.8230 C   0  0  0  0  0  3  0  0  0  0  0  0
  -16.1340  -29.1440   23.4190 C   0  0  0  0  0  3  0  0  0  0  0  0
  -16.5770  -27.9020   22.9340 C   0  0  0  0  0  3  0  0  0  0  0  0
  -25.8010  -32.5040   23.6020 C   0  0  0  0  0  3  0  0  0  0  0  0
  -26.3990  -31.7050   24.8280 C   0  0  1  0  0  0  0  0  0  0  0  0
  -25.3770  -31.4370   25.9600 C   0  0  0  0  0  1  0  0  0  0  0  0
  -26.9620  -30.3380   24.3850 C   0  0  0  0  0  1  0  0  0  0  0  0
  -27.5890  -32.4830   25.4370 C   0  0  0  0  0  1  0  0  0  0  0  0
  -25.5030  -33.8930   24.0390 N   0  0  0  0  0  0  0  0  0  0  0  0
  -25.8310  -35.0130   23.3790 C   0  0  0  0  0  0  0  0  0  0  0  0
  -26.4490  -34.9890   22.3130 O   0  0  0  0  0  0  0  0  0  0  0  0
  -24.9420  -33.9850   24.8720 H   0  0  0  0  0  0  0  0  0  0  0  0
  -24.1320  -36.8840   23.3000 C   0  0  0  0  0  1  0  0  0  0  0  0
  -25.4100  -36.3750   23.9860 C   0  0  0  0  0  3  0  0  0  0  0  0
  -27.6170  -37.1550   24.7420 C   0  0  0  0  0  1  0  0  0  0  0  0
  -26.4550  -37.4200   23.9000 N   0  0  0  0  0  0  0  0  0  0  0  0
  -26.0760  -38.3260   24.1620 H   0  0  0  0  0  0  0  0  0  0  0  0
  1  7  2  0
  8  9  1  0
  8 10  2  0
  9 11  1  0
 11  6  1  0
 11 13  1  0
 12 10  1  0
 12 13  1  0
 13 14  1  0
 15 21  1  0
 16 21  1  0
 17 18  1  0
 17 16  1  0
 19 18  1  0
 19 27  1  0
 19 20  1  0
 21 20  1  0
 22 15  1  0
 23 53  1  0
 12 23  1  6
 24 25  2  0
 25 44  1  0
 26 29  1  0
 26 25  1  0
 27 28  1  0
 27 24  1  0
 28 26  2  0
 29 30  1  0
 30 31  2  0
 32 35  1  0
 32 31  1  0
 33 32  2  0
 34 33  1  0
 34 29  2  0
 35 36  1  0
 36 41  2  0
 36 37  1  0
 37 38  2  0
 38 39  1  0
 39 43  1  0
 40 39  2  0
 41 40  1  0
 42 41  1  0
 44 45  1  0
 45 47  1  0
 45 48  1  0
 46 44  2  0
 49 24  1  0
 49 50  1  0
 51 49  1  0
 53 52  1  0
 53 12  1  0
 55 56  1  0
 56 54  1  0
 57 59  1  0
 58 69  2  0
 59 64  1  0
 60 68  1  0
 60 70  1  0
 61 67  1  0
 61 63  1  0
 62 68  1  0
 63 62  1  0
 64 63  2  0
 65 66  1  0
 65 59  2  0
 66 61  2  0
 67 60  1  0
 68 58  1  0
 70 72  2  0
 71 70  1  0
 73 71  1  0
 74 83  2  0
 74 79  1  0
 75 71  1  0
 75 79  1  0
 76 75  1  0
 77 78  1  0
 77 76  1  0
 78 74  1  0
 79 80  2  0
 80 81  1  0
 82 81  2  0
 83 82  1  0
 84 58  1  0
 84 89  1  0
 84 85  1  0
 85 88  1  1
 85 86  1  0
 87 85  1  0
 89 92  1  0
 90 94  1  0
 90 89  1  0
 91 90  2  0
 94 93  1  0
 96 94  1  0
 96 97  1  0
 96 95  1  0
M  ISO  4  15 100  23 100  56 101  57 101
M  END
>  <TORSDO>  (5) 
F 19

>  <SCORE>  (5) 
-6.474

>  <name>  (5) 
4

>  <ligand_id>  (5) 
4

>  <original_smiles>  (5) 
[H]C([H])=C([H])N(C(=O)N1C([H])([H])C([H])([H])C([H])([H])C([H])(n2nc(-c3c([H])c([H])c(Oc4c([H])c([H])c(F)c([H])c4F)c([H])c3[H])c(C(=O)N([H])[H])c2N([H])[H])C1([H])[H])c1c([H])c([H])c([H])c(N2C([H])([H])C(=O)C([H])(C(Oc3c([H])c([H])c4c(c3[H])C([H])([H])N(C(=O)C([H])(N([H])C(=O)C([H])(N([H])C([H])([H])[H])C([H])([H])[H])C(C([H])([H])[H])(C([H])([H])[H])C([H])([H])[H])C([H])(C(=O)N([H])C3([H])c5c([H])c([H])c([H])c([H])c5C([H])([H])C([H])([H])C3([H])[H])C4([H])[H])(C([H])([H])[H])C([H])([H])[H])C([H])([H])C2([H])[H])c1F

>  <smiles>  (5) 
[H]C([H])=C([H])N(C(=O)N1C([H])([H])C([H])([H])C([H])([H])C([H])(n2nc(-c3c([H])c([H])c(Oc4c([H])c([H])c(F)c([H])c4F)c([H])c3[H])c(C(=O)N([H])[H])c2N([H])[H])C1([H])[H])c1c([H])c([H])c([H])c(N2C([H])([H])C(=O)C([H])(C(Oc3c([H])c([H])c4c(c3[H])C([H])([H])N(C(=O)C([H])(N([H])C(=O)C([H])(N([H])C([H])([H])[H])C([H])([H])[H])C(C([H])([H])[H])(C([H])([H])[H])C([H])([H])[H])C([H])(C(=O)N([H])C3([H])c5c([H])c([H])c([H])c([H])c5C([H])([H])C([H])([H])C3([H])[H])C4([H])[H])(C([H])([H])[H])C([H])([H])[H])C([H])([H])C2([H])[H])c1F

$$$$
5:0:0
     RDKit          3D

 97107  0  0  1  0  0  0  0  0999 V2000
  -30.6790  -19.3180   19.6030 C   0  0  0  0  0  3  0  0  0  0  0  0
  -30.8090  -17.8840   19.6150 C   0  0  0  0  0  3  0  0  0  0  0  0
  -28.3550  -19.1370   19.9710 C   0  0  0  0  0  3  0  0  0  0  0  0
  -29.4510  -20.0310   19.7940 C   0  0  0  0  0  0  0  0  0  0  0  0
  -29.6910  -17.0240   19.8030 C   0  0  0  0  0  0  0  0  0  0  0  0
  -28.4540  -17.7070   19.9660 C   0  0  0  0  0  0  0  0  0  0  0  0
  -30.4250  -14.5280   19.2690 C   0  0  0  0  0  0  0  0  0  0  0  0
  -30.0600  -12.3330   18.1380 C   0  0  0  0  0  2  0  0  0  0  0  0
  -28.9640  -12.5250   17.0650 C   0  0  0  0  0  2  0  0  0  0  0  0
  -27.5570  -12.3670   17.6740 C   0  0  0  0  0  2  0  0  0  0  0  0
  -27.3840  -13.1740   18.9880 C   0  0  0  0  0  3  0  0  0  0  0  0
  -28.5740  -12.9390   19.9460 C   0  0  0  0  0  2  0  0  0  0  0  0
  -29.8030  -13.3030   19.2230 N   0  0  0  0  0  0  0  0  0  0  0  0
  -31.5240  -14.7050   18.7320 O   0  0  0  0  0  0  0  0  0  0  0  0
  -29.6780  -15.5460   19.8170 N   0  0  0  0  0  0  0  0  0  0  0  0
  -28.8700  -15.1730   20.2890 H   0  0  0  0  0  0  0  0  0  0  0  0
  -25.0860  -13.7880   19.9560 C   0  0  0  0  0  0  0  0  0  0  0  0
  -24.0750  -13.0240   20.4730 C   0  0  0  0  0  0  0  0  0  0  0  0
  -24.5380  -11.6730   20.4290 C   0  0  0  0  0  0  0  0  0  0  0  0
  -26.1000  -12.9030   19.6280 N   0  0  0  0  0  0  0  0  0  0  0  0
  -25.7840  -11.6290   19.9740 N   0  0  0  0  0  0  0  0  0  0  0  0
  -23.8480  -10.4140   20.7390 C   0  0  0  0  0  0  0  0  0  0  0  0
  -24.3490   -9.5160   21.7090 C   0  0  0  0  0  3  0  0  0  0  0  0
  -23.6600   -8.3210   22.0040 C   0  0  0  0  0  3  0  0  0  0  0  0
  -22.4540   -8.0120   21.3300 C   0  0  0  0  0  0  0  0  0  0  0  0
  -21.9710   -8.8970   20.3500 C   0  0  0  0  0  3  0  0  0  0  0  0
  -22.6620  -10.0840   20.0540 C   0  0  0  0  0  3  0  0  0  0  0  0
  -21.7300   -6.8620   21.5340 O   0  0  0  0  0  0  0  0  0  0  0  0
  -21.6940   -6.2400   22.7560 C   0  0  0  0  0  0  0  0  0  0  0  0
  -21.2620   -6.9110   23.9200 C   0  0  0  0  0  3  0  0  0  0  0  0
  -21.1740   -6.2150   25.1430 C   0  0  0  0  0  3  0  0  0  0  0  0
  -21.5070   -4.8490   25.2010 C   0  0  0  0  0  0  0  0  0  0  0  0
  -21.9310   -4.1780   24.0410 C   0  0  0  0  0  3  0  0  0  0  0  0
  -22.0220   -4.8710   22.8220 C   0  0  0  0  0  0  0  0  0  0  0  0
  -22.4100   -4.2140   21.7020 F   0  0  0  0  0  0  0  0  0  0  0  0
  -21.4150   -4.1770   26.3720 F   0  0  0  0  0  0  0  0  0  0  0  0
  -22.7120  -13.5030   20.8810 C   0  0  0  0  0  0  0  0  0  0  0  0
  -22.0920  -12.8360   21.8500 N   0  0  0  0  0  0  0  0  0  0  0  0
  -22.2080  -14.5020   20.3720 O   0  0  0  0  0  0  0  0  0  0  0  0
  -22.5160  -12.0270   22.2800 H   0  0  0  0  0  0  0  0  0  0  0  0
  -21.1810  -13.1380   22.1640 H   0  0  0  0  0  0  0  0  0  0  0  0
  -25.2250  -15.1530   19.7060 N   0  0  0  0  0  4  0  0  0  0  0  0
  -24.3620  -15.6840   19.7570 H   0  0  0  0  0  0  0  0  0  0  0  0
  -25.7530  -15.3970   18.8770 H   0  0  0  0  0  0  0  0  0  0  0  0
  -28.3430  -22.4280   20.3250 C   0  0  0  0  0  0  0  0  0  0  0  0
  -29.8340  -22.4620   18.8950 C   0  0  0  0  0  2  0  0  0  0  0  0
  -29.1900  -23.6420   19.7380 C   0  0  2  0  0  0  0  0  0  0  0  0
  -30.0600  -24.2620   20.8370 C   0  0  0  0  0  1  0  0  0  0  0  0
  -29.3000  -21.5050   19.8750 N   0  0  0  0  0  0  0  0  0  0  0  0
  -27.2760  -22.2710   20.8800 O   0  0  0  0  0  0  0  0  0  0  0  0
  -28.3110  -24.8110   19.0650 C   0  0  0  0  0  2  0  0  0  0  0  0
  -28.4730  -26.2620   19.4130 O   0  0  0  0  0  0  0  0  0  0  0  0
  -24.6360  -31.4020   22.7820 C   0  0  0  0  0  0  0  0  0  0  0  0
  -27.3330  -27.0980   19.4150 C   0  0  0  0  0  0  0  0  0  0  0  0
  -23.4430  -30.0480   21.0990 C   0  0  0  0  0  3  0  0  0  0  0  0
  -24.9130  -28.6360   19.5520 C   0  0  0  0  0  0  0  0  0  0  0  0
  -25.9670  -30.4670   20.8740 C   0  0  0  0  0  2  0  0  0  0  0  0
  -26.0800  -29.1290   20.1490 C   0  0  0  0  0  0  0  0  0  0  0  0
  -27.2900  -28.3710   20.0740 C   0  0  0  0  0  3  0  0  0  0  0  0
  -26.1390  -26.6770   18.7830 C   0  0  0  0  0  3  0  0  0  0  0  0
  -24.9460  -27.4180   18.8600 C   0  0  0  0  0  3  0  0  0  0  0  0
  -23.6470  -29.4590   19.6790 C   0  0  0  0  0  2  0  0  0  0  0  0
  -24.7020  -30.6540   21.6420 N   0  0  0  0  0  0  0  0  0  0  0  0
  -23.5570  -31.6100   23.3550 O   0  0  0  0  0  0  0  0  0  0  0  0
  -22.8420  -28.9590   22.0170 C   0  0  0  0  0  0  0  0  0  0  0  0
  -21.5210  -28.7350   21.9090 N   0  0  0  0  0  0  0  0  0  0  0  0
  -23.5620  -28.3170   22.7880 O   0  0  0  0  0  0  0  0  0  0  0  0
  -20.9940  -29.3090   21.2650 H   0  0  0  0  0  0  0  0  0  0  0  0
  -18.2020  -27.3910   22.4300 C   0  0  0  0  0  0  0  0  0  0  0  0
  -20.7560  -27.7280   22.6480 C   0  0  0  0  0  3  0  0  0  0  0  0
  -20.8910  -26.3340   21.9900 C   0  0  0  0  0  2  0  0  0  0  0  0
  -19.7730  -26.0290   20.9880 C   0  0  0  0  0  2  0  0  0  0  0  0
  -18.4060  -26.0890   21.6750 C   0  0  0  0  0  2  0  0  0  0  0  0
  -19.3050  -28.1690   22.8730 C   0  0  0  0  0  0  0  0  0  0  0  0
  -19.0590  -29.3880   23.5410 C   0  0  0  0  0  3  0  0  0  0  0  0
  -17.7430  -29.8310   23.7680 C   0  0  0  0  0  3  0  0  0  0  0  0
  -16.6550  -29.0510   23.3400 C   0  0  0  0  0  3  0  0  0  0  0  0
  -16.8860  -27.8320   22.6770 C   0  0  0  0  0  3  0  0  0  0  0  0
  -25.9100  -32.0500   23.4090 C   0  0  0  0  0  3  0  0  0  0  0  0
  -26.5030  -31.2160   24.6100 C   0  0  1  0  0  0  0  0  0  0  0  0
  -25.4590  -30.8560   25.6930 C   0  0  0  0  0  1  0  0  0  0  0  0
  -27.1290  -29.8960   24.1040 C   0  0  0  0  0  1  0  0  0  0  0  0
  -27.6410  -32.0130   25.2900 C   0  0  0  0  0  1  0  0  0  0  0  0
  -25.5490  -33.4050   23.8480 N   0  0  0  0  0  0  0  0  0  0  0  0
  -25.7960  -34.5220   23.1520 C   0  0  0  0  0  0  0  0  0  0  0  0
  -26.4200  -34.5230   22.0880 O   0  0  0  0  0  0  0  0  0  0  0  0
  -24.9860  -33.4740   24.6830 H   0  0  0  0  0  0  0  0  0  0  0  0
  -23.9630  -36.2410   23.0110 C   0  0  0  0  0  1  0  0  0  0  0  0
  -25.2670  -35.8510   23.7280 C   0  0  0  0  0  3  0  0  0  0  0  0
  -27.3960  -36.7930   24.5080 C   0  0  0  0  0  1  0  0  0  0  0  0
  -26.2380  -36.9620   23.6330 N   0  0  0  0  0  0  0  0  0  0  0  0
  -25.7950  -37.8480   23.8630 H   0  0  0  0  0  0  0  0  0  0  0  0
  -26.8390  -16.3630   21.2180 C   0  0  0  0  0  0  0  0  0  0  0  0
  -25.5840  -15.5100   21.1020 C   0  0  0  0  0  2  0  0  0  0  0  0
  -27.2680  -16.9380   20.0890 N   0  0  0  0  0  0  0  0  0  0  0  0
  -27.4060  -16.4870   22.3060 O   0  0  0  0  0  0  0  0  0  0  0  0
  -26.7300  -16.7570   19.2490 H   0  0  0  0  0  0  0  0  0  0  0  0
  1  2  2  0
  1  4  1  0
  2  5  1  0
  4 49  1  0
  4  3  2  0
  5 15  1  0
  5  6  2  0
  6  3  1  0
  6 95  1  0
  7 15  1  0
  8 13  1  0
  9 10  1  0
  9  8  1  0
 11 10  1  0
 11 20  1  0
 11 12  1  0
 13  7  1  0
 13 12  1  0
 14  7  2  0
 15 16  1  0
 17 18  2  0
 18 37  1  0
 19 18  1  0
 19 22  1  0
 20 17  1  0
 20 21  1  0
 21 19  2  0
 22 23  1  0
 23 24  2  0
 25 28  1  0
 25 24  1  0
 26 25  2  0
 27 26  1  0
 27 22  2  0
 28 29  1  0
 29 34  2  0
 29 30  1  0
 30 31  2  0
 31 32  1  0
 32 36  1  0
 33 32  2  0
 34 33  1  0
 35 34  1  0
 37 38  1  0
 38 41  1  0
 38 40  1  0
 39 37  2  0
 42 43  1  0
 42 17  1  0
 42 94  1  0
 44 42  1  0
 45 50  2  0
 46 47  1  0
 46 49  1  0
 47 45  1  0
 47 48  1  1
 49 45  1  0
 51 52  1  0
 51 47  1  0
 52 54  1  0
 53 64  2  0
 54 59  1  0
 55 63  1  0
 55 65  1  0
 56 62  1  0
 56 58  1  0
 57 63  1  0
 58 57  1  0
 59 58  2  0
 60 61  1  0
 60 54  2  0
 61 56  2  0
 62 55  1  0
 63 53  1  0
 65 67  2  0
 66 65  1  0
 68 66  1  0
 69 78  2  0
 69 74  1  0
 70 66  1  0
 70 74  1  0
 71 70  1  0
 72 73  1  0
 72 71  1  0
 73 69  1  0
 74 75  2  0
 75 76  1  0
 77 76  2  0
 78 77  1  0
 79 53  1  0
 79 84  1  0
 79 80  1  0
 80 83  1  1
 80 81  1  0
 82 80  1  0
 84 87  1  0
 85 89  1  0
 85 84  1  0
 86 85  2  0
 89 88  1  0
 91 89  1  0
 91 92  1  0
 91 90  1  0
 93 96  2  0
 94 93  1  0
 95 93  1  0
 97 95  1  0
M  ISO  4   7 100  15 100  51 101  52 101
M  END
>  <TORSDO>  (6) 
F 19

>  <SCORE>  (6) 
-5.777

>  <name>  (6) 
5

>  <ligand_id>  (6) 
5

>  <original_smiles>  (6) 
[H]c1c([H])c([H])c2c(c1[H])C([H])([H])C([H])([H])C([H])([H])C2([H])N([H])C(=O)C1([H])N(C(=O)C([H])(N([H])C(=O)C([H])(N([H])C([H])([H])[H])C([H])([H])[H])C(C([H])([H])[H])(C([H])([H])[H])C([H])([H])[H])C([H])([H])c2c([H])c(OC([H])([H])C3(C([H])([H])[H])C(=O)N(c4c([H])c([H])c(N([H])C(=O)N5C([H])([H])C([H])([H])C([H])([H])C([H])(n6nc(-c7c([H])c([H])c(Oc8c([H])c([H])c(F)c([H])c8F)c([H])c7[H])c(C(=O)N([H])[H])c6N([H])[H])C5([H])[H])c(N([H])C(=O)C([H])([H])[H])c4[H])C3([H])[H])c([H])c([H])c2C1([H])[H]

>  <smiles>  (6) 
[H]c1c([H])c([H])c2c(c1[H])C([H])([H])C([H])([H])C([H])([H])C2([H])N([H])C(=O)C1([H])N(C(=O)C([H])(N([H])C(=O)C([H])(N([H])C([H])([H])[H])C([H])([H])[H])C(C([H])([H])[H])(C([H])([H])[H])C([H])([H])[H])C([H])([H])c2c([H])c(OC([H])([H])C3(C([H])([H])[H])C(=O)N(c4c([H])c([H])c(N([H])C(=O)N5C([H])([H])C([H])([H])C([H])([H])C([H])(n6nc(-c7c([H])c([H])c(Oc8c([H])c([H])c(F)c([H])c8F)c([H])c7[H])c(C(=O)N([H])[H])c6N([H])[H])C5([H])[H])c(N([H])C(=O)C([H])([H])[H])c4[H])C3([H])[H])c([H])c([H])c2C1([H])[H]

$$$$
6:0:0
     RDKit          3D

 95104  0  0  1  0  0  0  0  0999 V2000
  -28.9890  -22.6720   20.0330 C   0  0  0  0  0  3  0  0  0  0  0  0
  -28.5970  -23.9330   19.6140 C   0  0  0  0  0  0  0  0  0  0  0  0
  -28.3590  -24.0600   18.1780 C   0  0  0  0  0  0  0  0  0  0  0  0
  -28.4110  -25.2290   17.5120 C   0  0  0  0  0  2  0  0  0  0  0  0
  -27.9970  -22.7950   17.4280 C   0  0  0  0  0  2  0  0  0  0  0  0
  -28.9530  -21.6390   17.7730 C   0  0  0  0  0  2  0  0  0  0  0  0
  -29.2310  -21.5150   19.2140 N   0  0  0  0  0  0  0  0  0  0  0  0
  -29.7290  -18.3600   21.3320 C   0  0  0  0  0  3  0  0  0  0  0  0
  -29.4610  -19.7060   20.9400 C   0  0  0  0  0  3  0  0  0  0  0  0
  -30.3450  -17.7920   19.1040 C   0  0  0  0  0  3  0  0  0  0  0  0
  -30.1630  -17.3330   20.4350 C   0  0  0  0  0  0  0  0  0  0  0  0
  -29.6020  -20.1590   19.6050 C   0  0  0  0  0  0  0  0  0  0  0  0
  -30.0920  -19.1430   18.7040 C   0  0  0  0  0  0  0  0  0  0  0  0
  -30.3530  -19.4340   17.4050 F   0  0  0  0  0  0  0  0  0  0  0  0
  -30.3620  -15.8750   20.9400 C   0  0  0  0  0  0  0  0  0  0  0  0
  -30.0960  -15.6290   22.1570 N   0  0  0  0  0  0  0  0  0  0  0  0
  -29.7470  -16.4530   22.6300 H   0  0  0  0  0  0  0  0  0  0  0  0
  -30.9460  -14.7160   20.0360 C   0  0  0  0  0  0  0  0  0  0  0  0
  -30.6050  -12.5400   18.8690 C   0  0  0  0  0  2  0  0  0  0  0  0
  -29.5870  -12.7290   17.7200 C   0  0  0  0  0  2  0  0  0  0  0  0
  -28.1380  -12.5740   18.2240 C   0  0  0  0  0  2  0  0  0  0  0  0
  -27.8790  -13.3770   19.5260 C   0  0  0  0  0  3  0  0  0  0  0  0
  -28.9960  -13.1190   20.5560 C   0  0  0  0  0  2  0  0  0  0  0  0
  -30.2800  -13.5100   19.9410 N   0  0  0  0  0  0  0  0  0  0  0  0
  -32.0070  -14.8980   19.4280 O   0  0  0  0  0  0  0  0  0  0  0  0
  -25.5410  -13.9930   20.3980 C   0  0  0  0  0  0  0  0  0  0  0  0
  -24.4880  -13.2240   20.8130 C   0  0  0  0  0  0  0  0  0  0  0  0
  -24.9280  -11.8680   20.7230 C   0  0  0  0  0  0  0  0  0  0  0  0
  -26.5560  -13.1040   20.0810 N   0  0  0  0  0  0  0  0  0  0  0  0
  -26.1960  -11.8200   20.3340 N   0  0  0  0  0  0  0  0  0  0  0  0
  -24.1970  -10.6110   20.9290 C   0  0  0  0  0  0  0  0  0  0  0  0
  -24.6410   -9.6420   21.8530 C   0  0  0  0  0  3  0  0  0  0  0  0
  -23.9130   -8.4480   22.0450 C   0  0  0  0  0  3  0  0  0  0  0  0
  -22.7240   -8.2170   21.3120 C   0  0  0  0  0  0  0  0  0  0  0  0
  -22.2990   -9.1770   20.3760 C   0  0  0  0  0  3  0  0  0  0  0  0
  -23.0280  -10.3610   20.1840 C   0  0  0  0  0  3  0  0  0  0  0  0
  -21.9610   -7.0780   21.4150 O   0  0  0  0  0  0  0  0  0  0  0  0
  -21.8810   -6.3690   22.5860 C   0  0  0  0  0  0  0  0  0  0  0  0
  -21.4440   -6.9640   23.7900 C   0  0  0  0  0  3  0  0  0  0  0  0
  -21.3110   -6.1810   24.9550 C   0  0  0  0  0  3  0  0  0  0  0  0
  -21.6060   -4.8050   24.9170 C   0  0  0  0  0  0  0  0  0  0  0  0
  -22.0360   -4.2100   23.7170 C   0  0  0  0  0  3  0  0  0  0  0  0
  -22.1710   -4.9900   22.5550 C   0  0  0  0  0  0  0  0  0  0  0  0
  -22.5660   -4.4080   21.3980 F   0  0  0  0  0  0  0  0  0  0  0  0
  -21.4700   -4.0510   26.0330 F   0  0  0  0  0  0  0  0  0  0  0  0
  -23.1160  -13.7110   21.1830 C   0  0  0  0  0  0  0  0  0  0  0  0
  -22.4400  -13.0110   22.0870 N   0  0  0  0  0  0  0  0  0  0  0  0
  -22.6560  -14.7450   20.7050 O   0  0  0  0  0  0  0  0  0  0  0  0
  -22.8240  -12.1700   22.4910 H   0  0  0  0  0  0  0  0  0  0  0  0
  -21.5230  -13.3190   22.3780 H   0  0  0  0  0  0  0  0  0  0  0  0
  -25.7150  -15.3650   20.2440 N   0  0  0  0  0  0  0  0  0  0  0  0
  -24.9740  -16.0330   20.4290 H   0  0  0  0  0  0  0  0  0  0  0  0
  -26.5590  -15.8010   19.8950 H   0  0  0  0  0  0  0  0  0  0  0  0
  -28.2720  -25.1000   20.6280 C   0  0  0  0  0  2  0  0  0  0  0  0
  -28.3800  -26.5200   20.2210 O   0  0  0  0  0  0  0  0  0  0  0  0
  -24.5780  -31.8730   23.2070 C   0  0  0  0  0  0  0  0  0  0  0  0
  -27.2310  -27.3180   20.2130 C   0  0  0  0  0  0  0  0  0  0  0  0
  -23.3790  -30.4430   21.5870 C   0  0  0  0  0  3  0  0  0  0  0  0
  -24.8410  -28.8810   20.1830 C   0  0  0  0  0  0  0  0  0  0  0  0
  -25.9100  -30.7910   21.3860 C   0  0  0  0  0  2  0  0  0  0  0  0
  -26.0050  -29.4030   20.7630 C   0  0  0  0  0  0  0  0  0  0  0  0
  -27.2040  -28.6340   20.7590 C   0  0  0  0  0  3  0  0  0  0  0  0
  -26.0470  -26.8340   19.6200 C   0  0  0  0  0  3  0  0  0  0  0  0
  -24.8650  -27.6020   19.6000 C   0  0  0  0  0  3  0  0  0  0  0  0
  -23.5920  -29.7400   20.2200 C   0  0  0  0  0  2  0  0  0  0  0  0
  -24.6410  -31.0530   22.1170 N   0  0  0  0  0  0  0  0  0  0  0  0
  -23.4960  -32.1500   23.7420 O   0  0  0  0  0  0  0  0  0  0  0  0
  -22.7240  -29.4390   22.5650 C   0  0  0  0  0  0  0  0  0  0  0  0
  -21.3970  -29.2580   22.4440 N   0  0  0  0  0  0  0  0  0  0  0  0
  -23.4070  -28.8270   23.3890 O   0  0  0  0  0  0  0  0  0  0  0  0
  -20.9050  -29.8070   21.7520 H   0  0  0  0  0  0  0  0  0  0  0  0
  -18.0250  -28.0600   22.9710 C   0  0  0  0  0  0  0  0  0  0  0  0
  -20.5830  -28.3260   23.2260 C   0  0  0  0  0  3  0  0  0  0  0  0
  -20.6870  -26.8910   22.6640 C   0  0  0  0  0  2  0  0  0  0  0  0
  -19.5790  -26.5540   21.6590 C   0  0  0  0  0  2  0  0  0  0  0  0
  -18.1990  -26.7040   22.3080 C   0  0  0  0  0  2  0  0  0  0  0  0
  -19.1440  -28.8290   23.3860 C   0  0  0  0  0  0  0  0  0  0  0  0
  -18.9290  -30.1000   23.9650 C   0  0  0  0  0  3  0  0  0  0  0  0
  -17.6240  -30.5990   24.1350 C   0  0  0  0  0  3  0  0  0  0  0  0
  -16.5180  -29.8280   23.7370 C   0  0  0  0  0  3  0  0  0  0  0  0
  -16.7190  -28.5610   23.1620 C   0  0  0  0  0  3  0  0  0  0  0  0
  -25.8590  -32.5210   23.8180 C   0  0  0  0  0  3  0  0  0  0  0  0
  -26.3890  -31.7660   25.0990 C   0  0  1  0  0  0  0  0  0  0  0  0
  -25.3030  -31.5200   26.1720 C   0  0  0  0  0  1  0  0  0  0  0  0
  -26.9950  -30.3960   24.7150 C   0  0  0  0  0  1  0  0  0  0  0  0
  -27.5320  -32.5810   25.7510 C   0  0  0  0  0  1  0  0  0  0  0  0
  -25.5420  -33.9180   24.1380 N   0  0  0  0  0  0  0  0  0  0  0  0
  -25.8670  -34.9680   23.3710 C   0  0  0  0  0  0  0  0  0  0  0  0
  -26.5360  -34.8610   22.3400 O   0  0  0  0  0  0  0  0  0  0  0  0
  -24.9570  -34.0760   24.9450 H   0  0  0  0  0  0  0  0  0  0  0  0
  -24.1320  -36.7510   23.0000 C   0  0  0  0  0  1  0  0  0  0  0  0
  -25.3710  -36.3540   23.8190 C   0  0  0  0  0  3  0  0  0  0  0  0
  -27.4950  -37.2540   24.6580 C   0  0  0  0  0  1  0  0  0  0  0  0
  -26.3990  -37.4120   23.7070 N   0  0  0  0  0  0  0  0  0  0  0  0
  -25.9870  -38.3310   23.8510 H   0  0  0  0  0  0  0  0  0  0  0  0
  2  1  2  0
  2 54  1  0
  3  2  1  0
  4  3  2  0
  5  6  1  0
  5  3  1  0
  6  7  1  0
  7 12  1  0
  7  1  1  0
  9  8  1  0
 10 11  1  0
 11 15  1  0
 11  8  2  0
 12  9  2  0
 13 10  2  0
 13 12  1  0
 14 13  1  0
 15 16  2  0
 16 17  1  0
 18 15  1  0
 19 24  1  0
 20 21  1  0
 20 19  1  0
 22 21  1  0
 22 29  1  0
 22 23  1  0
 24 18  1  0
 24 23  1  0
 25 18  2  0
 26 27  2  0
 27 46  1  0
 28 27  1  0
 28 31  1  0
 29 30  1  0
 29 26  1  0
 30 28  2  0
 31 32  1  0
 32 33  2  0
 34 37  1  0
 34 33  1  0
 35 34  2  0
 36 35  1  0
 36 31  2  0
 37 38  1  0
 38 39  1  0
 39 40  2  0
 41 40  1  0
 41 45  1  0
 42 41  2  0
 43 38  2  0
 43 42  1  0
 44 43  1  0
 46 47  1  0
 47 50  1  0
 47 49  1  0
 48 46  2  0
 51 26  1  0
 51 52  1  0
 53 51  1  0
 55 54  1  0
 56 67  2  0
 57 55  1  0
 57 62  1  0
 58 66  1  0
 58 68  1  0
 59 65  1  0
 59 61  1  0
 60 66  1  0
 61 60  1  0
 62 61  2  0
 63 57  2  0
 64 63  1  0
 64 59  2  0
 65 58  1  0
 66 56  1  0
 68 70  2  0
 69 68  1  0
 71 69  1  0
 72 81  2  0
 72 77  1  0
 73 69  1  0
 73 77  1  0
 74 73  1  0
 75 76  1  0
 75 74  1  0
 76 72  1  0
 77 78  2  0
 78 79  1  0
 80 79  2  0
 81 80  1  0
 82 56  1  0
 82 87  1  0
 82 83  1  0
 83 86  1  1
 83 84  1  0
 85 83  1  0
 87 90  1  0
 88 92  1  0
 88 87  1  0
 89 88  2  0
 92 91  1  0
 94 92  1  0
 94 95  1  0
 94 93  1  0
M  ISO  4  15 100  18 100  54 101  55 101
M  END
>  <TORSDO>  (7) 
F 19

>  <SCORE>  (7) 
-13.583

>  <name>  (7) 
6

>  <ligand_id>  (7) 
6

>  <original_smiles>  (7) 
[H]N=C(C(=O)N1C([H])([H])C([H])([H])C([H])([H])C([H])(n2nc(-c3c([H])c([H])c(Oc4c([H])c([H])c(F)c([H])c4F)c([H])c3[H])c(C(=O)N([H])[H])c2N([H])[H])C1([H])[H])c1c([H])c([H])c(N2C([H])=C(C([H])([H])Oc3c([H])c([H])c4c(c3[H])C([H])([H])N(C(=O)C([H])(N([H])C(=O)C([H])(N([H])C([H])([H])[H])C([H])([H])[H])C(C([H])([H])[H])(C([H])([H])[H])C([H])([H])[H])C([H])(C(=O)N([H])C3([H])c5c([H])c([H])c([H])c([H])c5C([H])([H])C([H])([H])C3([H])[H])C4([H])[H])C(=C([H])[H])C([H])([H])C2([H])[H])c(F)c1[H]

>  <smiles>  (7) 
[H]N=C(C(=O)N1C([H])([H])C([H])([H])C([H])([H])C([H])(n2nc(-c3c([H])c([H])c(Oc4c([H])c([H])c(F)c([H])c4F)c([H])c3[H])c(C(=O)N([H])[H])c2N([H])[H])C1([H])[H])c1c([H])c([H])c(N2C([H])=C(C([H])([H])Oc3c([H])c([H])c4c(c3[H])C([H])([H])N(C(=O)C([H])(N([H])C(=O)C([H])(N([H])C([H])([H])[H])C([H])([H])[H])C(C([H])([H])[H])(C([H])([H])[H])C([H])([H])[H])C([H])(C(=O)N([H])C3([H])c5c([H])c([H])c([H])c([H])c5C([H])([H])C([H])([H])C3([H])[H])C4([H])[H])C(=C([H])[H])C([H])([H])C2([H])[H])c(F)c1[H]

$$$$
7:0:0
     RDKit          3D

 95104  0  0  1  0  0  0  0  0999 V2000
  -29.0690  -24.1120   19.5440 C   0  0  0  0  0  0  0  0  0  0  0  0
  -30.3100  -23.5700   19.6850 C   0  0  0  0  0  0  0  0  0  0  0  0
  -27.9090  -23.1910   19.6510 C   0  0  0  0  0  0  0  0  0  0  0  0
  -30.6040  -22.0720   19.9190 C   0  0  0  0  0  2  0  0  0  0  0  0
  -28.1360  -21.6630   19.5620 C   0  0  0  0  0  2  0  0  0  0  0  0
  -31.5870  -24.3840   19.5340 C   0  0  0  0  0  1  0  0  0  0  0  0
  -29.4450  -21.1750   20.0290 N   0  0  0  0  0  0  0  0  0  0  0  0
  -26.7530  -23.5950   19.7840 O   0  0  0  0  0  0  0  0  0  0  0  0
  -30.8150  -19.0960   19.6970 C   0  0  0  0  0  3  0  0  0  0  0  0
  -30.9520  -17.6830   19.7630 C   0  0  0  0  0  3  0  0  0  0  0  0
  -28.6050  -18.9310   20.6370 C   0  0  0  0  0  3  0  0  0  0  0  0
  -28.7400  -17.5200   20.7290 C   0  0  0  0  0  0  0  0  0  0  0  0
  -29.6290  -19.7580   20.1140 C   0  0  0  0  0  0  0  0  0  0  0  0
  -29.9130  -16.8630   20.2710 C   0  0  0  0  0  0  0  0  0  0  0  0
  -27.5990  -16.7270   21.3500 C   0  0  0  0  0  1  0  0  0  0  0  0
  -30.5740  -14.4870   19.5660 C   0  0  0  0  0  0  0  0  0  0  0  0
  -30.1260  -12.3870   18.3280 C   0  0  0  0  0  2  0  0  0  0  0  0
  -29.0200  -12.6640   17.2860 C   0  0  0  0  0  2  0  0  0  0  0  0
  -27.6180  -12.5050   17.9100 C   0  0  0  0  0  2  0  0  0  0  0  0
  -27.4780  -13.2530   19.2630 C   0  0  0  0  0  3  0  0  0  0  0  0
  -28.6750  -12.9390   20.1870 C   0  0  0  0  0  2  0  0  0  0  0  0
  -29.9120  -13.2960   19.4680 N   0  0  0  0  0  0  0  0  0  0  0  0
  -31.6140  -14.7130   18.9380 O   0  0  0  0  0  0  0  0  0  0  0  0
  -29.9570  -15.4170   20.3350 N   0  0  0  0  0  0  0  0  0  0  0  0
  -29.2220  -15.0150   20.8950 H   0  0  0  0  0  0  0  0  0  0  0  0
  -25.1980  -13.8350   20.3100 C   0  0  0  0  0  0  0  0  0  0  0  0
  -24.1870  -13.0510   20.7960 C   0  0  0  0  0  0  0  0  0  0  0  0
  -24.6300  -11.7000   20.6490 C   0  0  0  0  0  0  0  0  0  0  0  0
  -26.1990  -12.9610   19.9090 N   0  0  0  0  0  0  0  0  0  0  0  0
  -25.8660  -11.6700   20.1660 N   0  0  0  0  0  0  0  0  0  0  0  0
  -23.9270  -10.4340   20.8850 C   0  0  0  0  0  0  0  0  0  0  0  0
  -24.4110   -9.4790   21.8070 C   0  0  0  0  0  3  0  0  0  0  0  0
  -23.7070   -8.2770   22.0300 C   0  0  0  0  0  3  0  0  0  0  0  0
  -22.5030   -8.0200   21.3330 C   0  0  0  0  0  0  0  0  0  0  0  0
  -22.0360   -8.9630   20.3990 C   0  0  0  0  0  3  0  0  0  0  0  0
  -22.7420  -10.1560   20.1740 C   0  0  0  0  0  3  0  0  0  0  0  0
  -21.7660   -6.8690   21.4660 O   0  0  0  0  0  0  0  0  0  0  0  0
  -21.6990   -6.1900   22.6570 C   0  0  0  0  0  0  0  0  0  0  0  0
  -21.2290   -6.8040   23.8380 C   0  0  0  0  0  3  0  0  0  0  0  0
  -21.1100   -6.0520   25.0230 C   0  0  0  0  0  3  0  0  0  0  0  0
  -21.4520   -4.6860   25.0280 C   0  0  0  0  0  0  0  0  0  0  0  0
  -21.9160   -4.0720   23.8520 C   0  0  0  0  0  3  0  0  0  0  0  0
  -22.0360   -4.8220   22.6680 C   0  0  0  0  0  0  0  0  0  0  0  0
  -22.4630   -4.2210   21.5320 F   0  0  0  0  0  0  0  0  0  0  0  0
  -21.3320   -3.9610   26.1650 F   0  0  0  0  0  0  0  0  0  0  0  0
  -22.8440  -13.5200   21.2770 C   0  0  0  0  0  0  0  0  0  0  0  0
  -22.2520  -12.8110   22.2320 N   0  0  0  0  0  0  0  0  0  0  0  0
  -22.3340  -14.5520   20.8440 O   0  0  0  0  0  0  0  0  0  0  0  0
  -22.6800  -11.9760   22.6040 H   0  0  0  0  0  0  0  0  0  0  0  0
  -21.3580  -13.1070   22.5950 H   0  0  0  0  0  0  0  0  0  0  0  0
  -25.3400  -15.2090   20.1550 N   0  0  0  0  0  0  0  0  0  0  0  0
  -24.5870  -15.8530   20.3730 H   0  0  0  0  0  0  0  0  0  0  0  0
  -26.1180  -15.6570   19.6880 H   0  0  0  0  0  0  0  0  0  0  0  0
  -28.7740  -25.5550   19.0380 C   0  0  0  0  0  2  0  0  0  0  0  0
  -28.4880  -26.5780   20.0350 O   0  0  0  0  0  0  0  0  0  0  0  0
  -24.5450  -31.7090   23.1050 C   0  0  0  0  0  0  0  0  0  0  0  0
  -27.3020  -27.3090   19.9910 C   0  0  0  0  0  0  0  0  0  0  0  0
  -23.3850  -30.3080   21.4330 C   0  0  0  0  0  3  0  0  0  0  0  0
  -24.8820  -28.8140   20.0040 C   0  0  0  0  0  0  0  0  0  0  0  0
  -25.9130  -30.6990   21.2740 C   0  0  0  0  0  2  0  0  0  0  0  0
  -26.0290  -29.3350   20.6140 C   0  0  0  0  0  0  0  0  0  0  0  0
  -27.2370  -28.5900   20.6070 C   0  0  0  0  0  3  0  0  0  0  0  0
  -26.1200  -26.8100   19.3960 C   0  0  0  0  0  3  0  0  0  0  0  0
  -24.9250  -27.5510   19.3950 C   0  0  0  0  0  3  0  0  0  0  0  0
  -23.6240  -29.6550   20.0470 C   0  0  0  0  0  2  0  0  0  0  0  0
  -24.6320  -30.9210   21.9950 N   0  0  0  0  0  0  0  0  0  0  0  0
  -23.4510  -31.9560   23.6330 O   0  0  0  0  0  0  0  0  0  0  0  0
  -22.7390  -29.2630   22.3720 C   0  0  0  0  0  0  0  0  0  0  0  0
  -21.4170  -29.0660   22.2330 N   0  0  0  0  0  0  0  0  0  0  0  0
  -23.4240  -28.6320   23.1810 O   0  0  0  0  0  0  0  0  0  0  0  0
  -20.9230  -29.6280   21.5530 H   0  0  0  0  0  0  0  0  0  0  0  0
  -18.0540  -27.8240   22.6930 C   0  0  0  0  0  0  0  0  0  0  0  0
  -20.6070  -28.1060   22.9820 C   0  0  0  0  0  3  0  0  0  0  0  0
  -20.7290  -26.6860   22.3820 C   0  0  0  0  0  2  0  0  0  0  0  0
  -19.6370  -26.3690   21.3560 C   0  0  0  0  0  2  0  0  0  0  0  0
  -18.2490  -26.4870   21.9950 C   0  0  0  0  0  2  0  0  0  0  0  0
  -19.1610  -28.5900   23.1420 C   0  0  0  0  0  0  0  0  0  0  0  0
  -18.9240  -29.8410   23.7530 C   0  0  0  0  0  3  0  0  0  0  0  0
  -17.6130  -30.3240   23.9200 C   0  0  0  0  0  3  0  0  0  0  0  0
  -16.5210  -29.5540   23.4880 C   0  0  0  0  0  3  0  0  0  0  0  0
  -16.7420  -28.3050   22.8800 C   0  0  0  0  0  3  0  0  0  0  0  0
  -25.8100  -32.3570   23.7480 C   0  0  0  0  0  3  0  0  0  0  0  0
  -25.4510  -33.7220   24.1540 N   0  0  0  0  0  0  0  0  0  0  0  0
  -25.7240  -34.8240   23.4430 C   0  0  0  0  0  0  0  0  0  0  0  0
  -26.3760  -34.8000   22.3950 O   0  0  0  0  0  0  0  0  0  0  0  0
  -24.8660  -33.8120   24.9730 H   0  0  0  0  0  0  0  0  0  0  0  0
  -23.9230  -36.5640   23.2020 C   0  0  0  0  0  1  0  0  0  0  0  0
  -25.1890  -36.1670   23.9780 C   0  0  0  0  0  3  0  0  0  0  0  0
  -27.2950  -37.0920   24.8350 C   0  0  0  0  0  1  0  0  0  0  0  0
  -26.1780  -37.2640   23.9100 N   0  0  0  0  0  0  0  0  0  0  0  0
  -25.7370  -38.1580   24.1090 H   0  0  0  0  0  0  0  0  0  0  0  0
  -26.3700  -31.5390   24.9770 C   0  0  1  0  0  0  0  0  0  0  0  0
  -25.2970  -31.1980   26.0370 C   0  0  0  0  0  1  0  0  0  0  0  0
  -27.0070  -30.2120   24.5050 C   0  0  0  0  0  1  0  0  0  0  0  0
  -27.4920  -32.3450   25.6730 C   0  0  0  0  0  1  0  0  0  0  0  0
  1  3  1  0
  1  2  2  0
  2  4  1  0
  3  8  2  0
  4  7  1  0
  5  3  1  0
  5  7  1  0
  6  2  1  0
  7 13  1  0
  9 10  2  0
  9 13  1  0
 10 14  1  0
 11 12  1  0
 12 15  1  0
 13 11  2  0
 14 24  1  0
 14 12  2  0
 16 24  1  0
 17 22  1  0
 18 19  1  0
 18 17  1  0
 20 19  1  0
 20 29  1  0
 20 21  1  0
 22 16  1  0
 22 21  1  0
 23 16  2  0
 24 25  1  0
 26 27  2  0
 27 46  1  0
 28 27  1  0
 28 31  1  0
 29 30  1  0
 29 26  1  0
 30 28  2  0
 31 32  1  0
 32 33  2  0
 34 37  1  0
 34 33  1  0
 35 34  2  0
 36 35  1  0
 36 31  2  0
 37 38  1  0
 38 43  2  0
 38 39  1  0
 39 40  2  0
 40 41  1  0
 41 45  1  0
 42 41  2  0
 43 42  1  0
 44 43  1  0
 46 47  1  0
 47 50  1  0
 47 49  1  0
 48 46  2  0
 51 26  1  0
 51 52  1  0
 53 51  1  0
 54  1  1  0
 54 55  1  0
 56 67  2  0
 57 55  1  0
 57 62  1  0
 58 66  1  0
 58 68  1  0
 59 65  1  0
 59 61  1  0
 60 66  1  0
 61 60  1  0
 62 61  2  0
 63 57  2  0
 64 63  1  0
 64 59  2  0
 65 58  1  0
 66 56  1  0
 68 70  2  0
 69 68  1  0
 71 69  1  0
 72 81  2  0
 72 77  1  0
 73 69  1  0
 73 77  1  0
 74 73  1  0
 75 76  1  0
 75 74  1  0
 76 72  1  0
 77 78  2  0
 78 79  1  0
 80 79  2  0
 81 80  1  0
 82 56  1  0
 82 83  1  0
 82 92  1  0
 83 86  1  0
 84 88  1  0
 84 83  1  0
 85 84  2  0
 88 87  1  0
 90 88  1  0
 90 91  1  0
 90 89  1  0
 92 95  1  1
 92 93  1  0
 94 92  1  0
M  ISO  4  16 100  24 100  54 101  55 101
M  END
>  <TORSDO>  (8) 
F 18

>  <SCORE>  (8) 
-11.981

>  <name>  (8) 
7

>  <ligand_id>  (8) 
7

>  <original_smiles>  (8) 
[H]c1c([H])c([H])c2c(c1[H])C([H])([H])C([H])([H])C([H])([H])C2([H])N([H])C(=O)C1([H])N(C(=O)C([H])(N([H])C(=O)C([H])(N([H])C([H])([H])[H])C([H])([H])[H])C(C([H])([H])[H])(C([H])([H])[H])C([H])([H])[H])C([H])([H])c2c([H])c(OC([H])([H])C3=C(C([H])([H])[H])C([H])([H])N(c4c([H])c([H])c(N([H])C(=O)N5C([H])([H])C([H])([H])C([H])([H])C([H])(n6nc(-c7c([H])c([H])c(Oc8c([H])c([H])c(F)c([H])c8F)c([H])c7[H])c(C(=O)N([H])[H])c6N([H])[H])C5([H])[H])c(C([H])([H])[H])c4[H])C([H])([H])C3=O)c([H])c([H])c2C1([H])[H]

>  <smiles>  (8) 
[H]c1c([H])c([H])c2c(c1[H])C([H])([H])C([H])([H])C([H])([H])C2([H])N([H])C(=O)C1([H])N(C(=O)C([H])(N([H])C(=O)C([H])(N([H])C([H])([H])[H])C([H])([H])[H])C(C([H])([H])[H])(C([H])([H])[H])C([H])([H])[H])C([H])([H])c2c([H])c(OC([H])([H])C3=C(C([H])([H])[H])C([H])([H])N(c4c([H])c([H])c(N([H])C(=O)N5C([H])([H])C([H])([H])C([H])([H])C([H])(n6nc(-c7c([H])c([H])c(Oc8c([H])c([H])c(F)c([H])c8F)c([H])c7[H])c(C(=O)N([H])[H])c6N([H])[H])C5([H])[H])c(C([H])([H])[H])c4[H])C([H])([H])C3=O)c([H])c([H])c2C1([H])[H]

$$$$
8:0:0
     RDKit          3D

104113  0  0  1  0  0  0  0  0999 V2000
  -31.4580  -23.9750   19.3360 C   0  0  0  0  0  0  0  0  0  0  0  0
  -32.5250  -24.3800   18.6480 N   0  0  0  0  0  4  0  0  0  0  0  0
  -30.5140  -24.8720   19.6640 N   0  0  0  0  0  0  0  0  0  0  0  0
  -33.2650  -23.7230   18.4510 H   0  0  0  0  0  0  0  0  0  0  0  0
  -32.6030  -25.3110   18.2800 H   0  0  0  0  0  0  0  0  0  0  0  0
  -29.7310  -24.5430   20.2110 H   0  0  0  0  0  0  0  0  0  0  0  0
  -31.5670  -21.5320   18.7910 C   0  0  0  0  0  3  0  0  0  0  0  0
  -31.0590  -22.2080   21.0690 C   0  0  0  0  0  3  0  0  0  0  0  0
  -31.5360  -20.1780   19.1850 C   0  0  0  0  0  3  0  0  0  0  0  0
  -31.0180  -20.8510   21.4570 C   0  0  0  0  0  3  0  0  0  0  0  0
  -31.3450  -22.5620   19.7330 C   0  0  0  0  0  0  0  0  0  0  0  0
  -31.2750  -19.8150   20.5270 C   0  0  0  0  0  0  0  0  0  0  0  0
  -31.0540  -16.5240   22.2360 C   0  0  0  0  0  0  0  0  0  0  0  0
  -30.9710  -18.0380   22.2920 C   0  0  0  0  0  2  0  0  0  0  0  0
  -31.4640  -17.3320   20.0220 C   0  0  0  0  0  2  0  0  0  0  0  0
  -31.6320  -16.0610   20.9020 C   0  0  1  0  0  0  0  0  0  0  0  0
  -33.1140  -15.6730   21.1000 C   0  0  0  0  0  1  0  0  0  0  0  0
  -31.2860  -18.4640   20.9330 N   0  0  0  0  0  0  0  0  0  0  0  0
  -30.6760  -15.7640   23.1320 O   0  0  0  0  0  0  0  0  0  0  0  0
  -31.0300  -14.1860   19.3300 C   0  0  0  0  0  0  0  0  0  0  0  0
  -30.2680  -12.2290   18.0350 C   0  0  0  0  0  2  0  0  0  0  0  0
  -29.1640  -12.6090   17.0310 C   0  0  0  0  0  2  0  0  0  0  0  0
  -27.7780  -12.5630   17.6990 C   0  0  0  0  0  2  0  0  0  0  0  0
  -27.7400  -13.3370   19.0430 C   0  0  0  0  0  3  0  0  0  0  0  0
  -28.9290  -12.9310   19.9430 C   0  0  0  0  0  2  0  0  0  0  0  0
  -30.1790  -13.1370   19.1880 N   0  0  0  0  0  0  0  0  0  0  0  0
  -31.9330  -14.4420   18.5280 O   0  0  0  0  0  0  0  0  0  0  0  0
  -30.8500  -14.9130   20.4380 N   0  0  0  0  0  0  0  0  0  0  0  0
  -30.1050  -14.6240   21.0550 H   0  0  0  0  0  0  0  0  0  0  0  0
  -25.5520  -14.1080   20.1630 C   0  0  0  0  0  0  0  0  0  0  0  0
  -24.4890  -13.4110   20.6730 C   0  0  0  0  0  0  0  0  0  0  0  0
  -24.8110  -12.0280   20.5070 C   0  0  0  0  0  0  0  0  0  0  0  0
  -26.4600  -13.1560   19.7260 N   0  0  0  0  0  0  0  0  0  0  0  0
  -26.0240  -11.8970   19.9850 N   0  0  0  0  0  0  0  0  0  0  0  0
  -24.0110  -10.8230   20.7630 C   0  0  0  0  0  0  0  0  0  0  0  0
  -24.4650   -9.8080   21.6330 C   0  0  0  0  0  3  0  0  0  0  0  0
  -23.6690   -8.6660   21.8760 C   0  0  0  0  0  3  0  0  0  0  0  0
  -22.4070   -8.5350   21.2510 C   0  0  0  0  0  0  0  0  0  0  0  0
  -21.9710   -9.5390   20.3690 C   0  0  0  0  0  3  0  0  0  0  0  0
  -22.7650  -10.6720   20.1240 C   0  0  0  0  0  3  0  0  0  0  0  0
  -21.5780   -7.4510   21.4080 O   0  0  0  0  0  0  0  0  0  0  0  0
  -21.5650   -6.7170   22.5670 C   0  0  0  0  0  0  0  0  0  0  0  0
  -21.2910   -7.3060   23.8210 C   0  0  0  0  0  3  0  0  0  0  0  0
  -21.2200   -6.5030   24.9760 C   0  0  0  0  0  3  0  0  0  0  0  0
  -21.4120   -5.1110   24.8810 C   0  0  0  0  0  0  0  0  0  0  0  0
  -21.6790   -4.5210   23.6330 C   0  0  0  0  0  3  0  0  0  0  0  0
  -21.7520   -5.3220   22.4790 C   0  0  0  0  0  0  0  0  0  0  0  0
  -21.9890   -4.7450   21.2760 F   0  0  0  0  0  0  0  0  0  0  0  0
  -21.3350   -4.3390   25.9890 F   0  0  0  0  0  0  0  0  0  0  0  0
  -23.2070  -13.9880   21.1980 C   0  0  0  0  0  0  0  0  0  0  0  0
  -22.5860  -13.3240   22.1660 N   0  0  0  0  0  0  0  0  0  0  0  0
  -22.7730  -15.0630   20.7840 O   0  0  0  0  0  0  0  0  0  0  0  0
  -22.9510  -12.4520   22.5180 H   0  0  0  0  0  0  0  0  0  0  0  0
  -21.7300  -13.6910   22.5570 H   0  0  0  0  0  0  0  0  0  0  0  0
  -25.8140  -15.4680   20.0180 N   0  0  0  0  0  0  0  0  0  0  0  0
  -25.1440  -16.1820   20.2820 H   0  0  0  0  0  0  0  0  0  0  0  0
  -26.6400  -15.8470   19.5710 H   0  0  0  0  0  0  0  0  0  0  0  0
  -30.5810  -26.3450   19.5210 C   0  0  0  0  0  3  0  0  0  0  0  0
  -31.0280  -26.9880   20.8490 C   0  0  0  0  0  0  0  0  0  0  0  0
  -31.4660  -28.4440   20.8090 C   0  0  0  0  0  1  0  0  0  0  0  0
  -31.0510  -26.3740   21.9200 O   0  0  0  0  0  0  0  0  0  0  0  0
  -28.8300  -26.3410   17.6740 C   0  0  0  0  0  1  0  0  0  0  0  0
  -29.2180  -26.9030   19.0530 C   0  0  0  0  0  3  0  0  0  0  0  0
  -28.2410  -26.5340   20.0250 O   0  0  0  0  0  0  0  0  0  0  0  0
  -24.5800  -31.7540   23.2040 C   0  0  0  0  0  0  0  0  0  0  0  0
  -27.1080  -27.3070   20.0560 C   0  0  0  0  0  0  0  0  0  0  0  0
  -23.3270  -30.3870   21.5660 C   0  0  0  0  0  3  0  0  0  0  0  0
  -24.7360  -28.8280   20.1190 C   0  0  0  0  0  0  0  0  0  0  0  0
  -25.8550  -30.7020   21.3410 C   0  0  0  0  0  2  0  0  0  0  0  0
  -25.9090  -29.3350   20.6950 C   0  0  0  0  0  0  0  0  0  0  0  0
  -27.1010  -28.5790   20.6670 C   0  0  0  0  0  3  0  0  0  0  0  0
  -25.9190  -26.7950   19.5010 C   0  0  0  0  0  3  0  0  0  0  0  0
  -24.7330  -27.5550   19.5220 C   0  0  0  0  0  3  0  0  0  0  0  0
  -23.5060  -29.7050   20.1820 C   0  0  0  0  0  2  0  0  0  0  0  0
  -24.6070  -30.9610   22.0950 N   0  0  0  0  0  0  0  0  0  0  0  0
  -23.5120  -32.0460   23.7570 O   0  0  0  0  0  0  0  0  0  0  0  0
  -22.6670  -29.3750   22.5290 C   0  0  0  0  0  0  0  0  0  0  0  0
  -21.3400  -29.2120   22.4040 N   0  0  0  0  0  0  0  0  0  0  0  0
  -23.3450  -28.7380   23.3390 O   0  0  0  0  0  0  0  0  0  0  0  0
  -20.8560  -29.7760   21.7200 H   0  0  0  0  0  0  0  0  0  0  0  0
  -17.9540  -28.0420   22.8760 C   0  0  0  0  0  0  0  0  0  0  0  0
  -20.5100  -28.2860   23.1740 C   0  0  0  0  0  3  0  0  0  0  0  0
  -20.6110  -26.8490   22.6130 C   0  0  0  0  0  2  0  0  0  0  0  0
  -19.5180  -26.5220   21.5900 C   0  0  0  0  0  2  0  0  0  0  0  0
  -18.1310  -26.6830   22.2170 C   0  0  0  0  0  2  0  0  0  0  0  0
  -19.0740  -28.8000   23.3110 C   0  0  0  0  0  0  0  0  0  0  0  0
  -18.8550  -30.0720   23.8840 C   0  0  0  0  0  3  0  0  0  0  0  0
  -17.5530  -30.5830   24.0290 C   0  0  0  0  0  3  0  0  0  0  0  0
  -16.4480  -29.8210   23.6110 C   0  0  0  0  0  3  0  0  0  0  0  0
  -16.6500  -28.5520   23.0400 C   0  0  0  0  0  3  0  0  0  0  0  0
  -25.8870  -32.3520   23.8120 C   0  0  0  0  0  3  0  0  0  0  0  0
  -25.6120  -33.7540   24.1540 N   0  0  0  0  0  0  0  0  0  0  0  0
  -25.9770  -34.8040   23.4060 C   0  0  0  0  0  0  0  0  0  0  0  0
  -26.6500  -34.6940   22.3770 O   0  0  0  0  0  0  0  0  0  0  0  0
  -25.0080  -33.9140   24.9470 H   0  0  0  0  0  0  0  0  0  0  0  0
  -24.2930  -36.6410   23.0620 C   0  0  0  0  0  1  0  0  0  0  0  0
  -25.5210  -36.1990   23.8740 C   0  0  0  0  0  3  0  0  0  0  0  0
  -27.6770  -37.0190   24.7150 C   0  0  0  0  0  1  0  0  0  0  0  0
  -26.5800  -37.2270   23.7740 N   0  0  0  0  0  0  0  0  0  0  0  0
  -26.1970  -38.1560   23.9340 H   0  0  0  0  0  0  0  0  0  0  0  0
  -26.4080  -31.5590   25.0750 C   0  0  1  0  0  0  0  0  0  0  0  0
  -25.3220  -31.3270   26.1520 C   0  0  0  0  0  1  0  0  0  0  0  0
  -26.9660  -30.1780   24.6610 C   0  0  0  0  0  1  0  0  0  0  0  0
  -27.5770  -32.3310   25.7320 C   0  0  0  0  0  1  0  0  0  0  0  0
  1  3  1  0
  1 11  1  0
  2  1  2  0
  3  6  1  0
  4  2  1  0
  5  2  1  0
  7  9  2  0
  7 11  1  0
  8 10  1  0
  9 12  1  0
 11  8  2  0
 12 18  1  0
 12 10  2  0
 13 14  1  0
 13 19  2  0
 15 16  1  0
 15 18  1  0
 16 17  1  1
 16 13  1  0
 18 14  1  0
 20 28  1  0
 21 26  1  0
 22 23  1  0
 22 21  1  0
 24 23  1  0
 24 33  1  0
 24 25  1  0
 26 20  1  0
 26 25  1  0
 27 20  2  0
 28 16  1  0
 28 29  1  0
 30 31  2  0
 31 50  1  0
 32 31  1  0
 32 35  1  0
 33 34  1  0
 33 30  1  0
 34 32  2  0
 35 36  1  0
 36 37  2  0
 38 41  1  0
 38 37  1  0
 39 38  2  0
 40 39  1  0
 40 35  2  0
 41 42  1  0
 42 43  1  0
 43 44  2  0
 45 44  1  0
 45 49  1  0
 46 45  2  0
 47 42  2  0
 47 46  1  0
 48 47  1  0
 50 51  1  0
 51 53  1  0
 51 54  1  0
 52 50  2  0
 55 30  1  0
 55 56  1  0
 57 55  1  0
 58  3  1  0
 58 59  1  0
 59 61  2  0
 60 59  1  0
 63 62  1  0
 63 58  1  0
 63 64  1  0
 64 66  1  0
 65 76  2  0
 66 71  1  0
 67 75  1  0
 67 77  1  0
 68 74  1  0
 68 70  1  0
 69 75  1  0
 70 69  1  0
 71 70  2  0
 72 73  1  0
 72 66  2  0
 73 68  2  0
 74 67  1  0
 75 65  1  0
 77 79  2  0
 78 77  1  0
 80 78  1  0
 81 90  2  0
 81 86  1  0
 82 78  1  0
 82 86  1  0
 83 82  1  0
 84 85  1  0
 84 83  1  0
 85 81  1  0
 86 87  2  0
 87 88  1  0
 89 88  2  0
 90 89  1  0
 91 65  1  0
 91 92  1  0
 91101  1  0
 92 95  1  0
 93 97  1  0
 93 92  1  0
 94 93  2  0
 97 96  1  0
 99 97  1  0
 99100  1  0
 99 98  1  0
101104  1  1
101102  1  0
103101  1  0
M  ISO  4  20 100  28 100  63 101  64 101
M  END
>  <TORSDO>  (9) 
F 21

>  <SCORE>  (9) 
-9.293

>  <name>  (9) 
8

>  <ligand_id>  (9) 
8

>  <original_smiles>  (9) 
[H]c1c([H])c([H])c2c(c1[H])C([H])([H])C([H])([H])C([H])([H])C2([H])N([H])C(=O)C1([H])N(C(=O)C([H])(N([H])C(=O)C([H])(N([H])C([H])([H])[H])C([H])([H])[H])C(C([H])([H])[H])(C([H])([H])[H])C([H])([H])[H])C([H])([H])c2c([H])c(OC([H])(C([H])([H])[H])C([H])(C(=O)C([H])([H])[H])[N+]([H])=C(c3c([H])c([H])c(N4C([H])([H])C(=O)C(N([H])C(=O)N5C([H])([H])C([H])([H])C([H])([H])C([H])(n6nc(-c7c([H])c([H])c(Oc8c([H])c([H])c(F)c([H])c8F)c([H])c7[H])c(C(=O)N([H])[H])c6N([H])[H])C5([H])[H])(C([H])([H])[H])C4([H])[H])c([H])c3[H])N([H])[H])c([H])c([H])c2C1([H])[H]

>  <smiles>  (9) 
[H]c1c([H])c([H])c2c(c1[H])C([H])([H])C([H])([H])C([H])([H])C2([H])N([H])C(=O)C1([H])N(C(=O)C([H])(N([H])C(=O)C([H])(N([H])C([H])([H])[H])C([H])([H])[H])C(C([H])([H])[H])(C([H])([H])[H])C([H])([H])[H])C([H])([H])c2c([H])c(OC([H])(C([H])([H])[H])C([H])(C(=O)C([H])([H])[H])[N+]([H])=C(c3c([H])c([H])c(N4C([H])([H])C(=O)C(N([H])C(=O)N5C([H])([H])C([H])([H])C([H])([H])C([H])(n6nc(-c7c([H])c([H])c(Oc8c([H])c([H])c(F)c([H])c8F)c([H])c7[H])c(C(=O)N([H])[H])c6N([H])[H])C5([H])[H])(C([H])([H])[H])C4([H])[H])c([H])c3[H])N([H])[H])c([H])c([H])c2C1([H])[H]

$$$$
9:0:0
     RDKit          3D

 94103  0  0  1  0  0  0  0  0999 V2000
  -29.9750  -23.5610   19.7150 C   0  0  0  0  0  0  0  0  0  0  0  0
  -28.6530  -23.6980   20.3200 C   0  0  0  0  0  0  0  0  0  0  0  0
  -30.3640  -22.0360   19.6310 C   0  0  0  0  0  0  0  0  0  0  0  0
  -27.9430  -24.8720   20.6280 C   0  0  0  0  0  0  0  0  0  0  0  0
  -28.2630  -22.1850   20.5580 C   0  0  0  0  0  2  0  0  0  0  0  0
  -26.6630  -24.6970   21.4500 C   0  0  0  0  0  1  0  0  0  0  0  0
  -29.3720  -21.2490   20.1300 N   0  0  0  0  0  0  0  0  0  0  0  0
  -30.7080  -24.4820   19.3280 O   0  0  0  0  0  0  0  0  0  0  0  0
  -31.4440  -21.6320   19.1770 O   0  0  0  0  0  0  0  0  0  0  0  0
  -28.5140  -18.2430   17.9760 C   0  0  0  0  0  3  0  0  0  0  0  0
  -28.5940  -19.5420   18.5200 C   0  0  0  0  0  3  0  0  0  0  0  0
  -29.0490  -17.1190   18.6410 C   0  0  0  0  0  3  0  0  0  0  0  0
  -29.7640  -18.6100   20.4340 C   0  0  0  0  0  3  0  0  0  0  0  0
  -29.2400  -19.7990   19.7500 C   0  0  0  0  0  0  0  0  0  0  0  0
  -29.6760  -17.2370   19.9010 C   0  0  0  0  0  0  0  0  0  0  0  0
  -30.6950  -14.8330   20.0060 C   0  0  0  0  0  0  0  0  0  0  0  0
  -30.3940  -12.5770   18.9370 C   0  0  0  0  0  2  0  0  0  0  0  0
  -29.3790  -12.6540   17.7770 C   0  0  0  0  0  2  0  0  0  0  0  0
  -27.9450  -12.4620   18.3060 C   0  0  0  0  0  2  0  0  0  0  0  0
  -27.6510  -13.3280   19.5600 C   0  0  0  0  0  3  0  0  0  0  0  0
  -28.7820  -13.2380   20.6050 C   0  0  0  0  0  2  0  0  0  0  0  0
  -30.0300  -13.6200   19.9320 N   0  0  0  0  0  0  0  0  0  0  0  0
  -31.8160  -14.9240   19.4950 O   0  0  0  0  0  0  0  0  0  0  0  0
  -30.3310  -16.0830   22.0270 C   0  0  0  0  0  1  0  0  0  0  0  0
  -30.1000  -15.9680   20.5860 N   0  0  0  0  0  0  0  0  0  0  0  0
  -25.3250  -13.8930   20.4770 C   0  0  0  0  0  0  0  0  0  0  0  0
  -24.2830  -13.1090   20.8900 C   0  0  0  0  0  0  0  0  0  0  0  0
  -24.7360  -11.7590   20.7780 C   0  0  0  0  0  0  0  0  0  0  0  0
  -26.3450  -13.0200   20.1360 N   0  0  0  0  0  0  0  0  0  0  0  0
  -26.0030  -11.7290   20.3810 N   0  0  0  0  0  0  0  0  0  0  0  0
  -24.0180  -10.4920   20.9720 C   0  0  0  0  0  0  0  0  0  0  0  0
  -24.4710   -9.5160   21.8870 C   0  0  0  0  0  3  0  0  0  0  0  0
  -23.7520   -8.3160   22.0690 C   0  0  0  0  0  3  0  0  0  0  0  0
  -22.5630   -8.0830   21.3390 C   0  0  0  0  0  0  0  0  0  0  0  0
  -22.1280   -9.0460   20.4110 C   0  0  0  0  0  3  0  0  0  0  0  0
  -22.8480  -10.2380   20.2260 C   0  0  0  0  0  3  0  0  0  0  0  0
  -21.8120   -6.9370   21.4320 O   0  0  0  0  0  0  0  0  0  0  0  0
  -21.7390   -6.2160   22.5970 C   0  0  0  0  0  0  0  0  0  0  0  0
  -21.2660   -6.7880   23.7980 C   0  0  0  0  0  3  0  0  0  0  0  0
  -21.1410   -5.9940   24.9540 C   0  0  0  0  0  3  0  0  0  0  0  0
  -21.4820   -4.6290   24.9130 C   0  0  0  0  0  0  0  0  0  0  0  0
  -21.9500   -4.0560   23.7170 C   0  0  0  0  0  3  0  0  0  0  0  0
  -22.0750   -4.8480   22.5610 C   0  0  0  0  0  0  0  0  0  0  0  0
  -22.5060   -4.2860   21.4060 F   0  0  0  0  0  0  0  0  0  0  0  0
  -21.3560   -3.8630   26.0220 F   0  0  0  0  0  0  0  0  0  0  0  0
  -22.9110  -13.5800   21.2770 C   0  0  0  0  0  0  0  0  0  0  0  0
  -22.2410  -12.8550   22.1650 N   0  0  0  0  0  0  0  0  0  0  0  0
  -22.4440  -14.6250   20.8260 O   0  0  0  0  0  0  0  0  0  0  0  0
  -22.6340  -12.0090   22.5520 H   0  0  0  0  0  0  0  0  0  0  0  0
  -21.3230  -13.1510   22.4660 H   0  0  0  0  0  0  0  0  0  0  0  0
  -25.4900  -15.2690   20.3450 N   0  0  0  0  0  0  0  0  0  0  0  0
  -24.7530  -15.9330   20.5620 H   0  0  0  0  0  0  0  0  0  0  0  0
  -26.3440  -15.7140   20.0320 H   0  0  0  0  0  0  0  0  0  0  0  0
  -28.2640  -26.2670   20.3530 O   0  0  0  0  0  0  0  0  0  0  0  0
  -24.6270  -31.9090   23.2430 C   0  0  0  0  0  0  0  0  0  0  0  0
  -27.2370  -27.2550   20.2410 C   0  0  0  0  0  0  0  0  0  0  0  0
  -23.4380  -30.5010   21.6020 C   0  0  0  0  0  3  0  0  0  0  0  0
  -24.9010  -28.9450   20.1800 C   0  0  0  0  0  0  0  0  0  0  0  0
  -25.9840  -30.7940   21.4470 C   0  0  0  0  0  2  0  0  0  0  0  0
  -26.0680  -29.4060   20.8060 C   0  0  0  0  0  0  0  0  0  0  0  0
  -27.2390  -28.5700   20.8350 C   0  0  0  0  0  3  0  0  0  0  0  0
  -26.0690  -26.9070   19.5280 C   0  0  0  0  0  3  0  0  0  0  0  0
  -24.9100  -27.7060   19.5270 C   0  0  0  0  0  3  0  0  0  0  0  0
  -23.6640  -29.8250   20.2240 C   0  0  0  0  0  2  0  0  0  0  0  0
  -24.7010  -31.0870   22.1540 N   0  0  0  0  0  0  0  0  0  0  0  0
  -23.5390  -32.1910   23.7670 O   0  0  0  0  0  0  0  0  0  0  0  0
  -22.7650  -29.4890   22.5630 C   0  0  0  0  0  0  0  0  0  0  0  0
  -21.4390  -29.3140   22.4350 N   0  0  0  0  0  0  0  0  0  0  0  0
  -23.4380  -28.8670   23.3900 O   0  0  0  0  0  0  0  0  0  0  0  0
  -20.9530  -29.8680   21.7440 H   0  0  0  0  0  0  0  0  0  0  0  0
  -18.0560  -28.1340   22.9510 C   0  0  0  0  0  0  0  0  0  0  0  0
  -20.6170  -28.3810   23.2090 C   0  0  0  0  0  3  0  0  0  0  0  0
  -20.7090  -26.9490   22.6340 C   0  0  0  0  0  2  0  0  0  0  0  0
  -19.6010  -26.6330   21.6230 C   0  0  0  0  0  2  0  0  0  0  0  0
  -18.2230  -26.7850   22.2720 C   0  0  0  0  0  2  0  0  0  0  0  0
  -19.1790  -28.8910   23.3760 C   0  0  0  0  0  0  0  0  0  0  0  0
  -18.9680  -30.1540   23.9710 C   0  0  0  0  0  3  0  0  0  0  0  0
  -17.6660  -30.6590   24.1450 C   0  0  0  0  0  3  0  0  0  0  0  0
  -16.5570  -29.8980   23.7330 C   0  0  0  0  0  3  0  0  0  0  0  0
  -16.7520  -28.6380   23.1410 C   0  0  0  0  0  3  0  0  0  0  0  0
  -25.9040  -32.5510   23.8680 C   0  0  0  0  0  3  0  0  0  0  0  0
  -25.5880  -33.9500   24.1920 N   0  0  0  0  0  0  0  0  0  0  0  0
  -25.9140  -35.0020   23.4280 C   0  0  0  0  0  0  0  0  0  0  0  0
  -26.5850  -34.8950   22.3960 O   0  0  0  0  0  0  0  0  0  0  0  0
  -24.9970  -34.1060   24.9950 H   0  0  0  0  0  0  0  0  0  0  0  0
  -24.1830  -36.7880   23.0640 C   0  0  0  0  0  1  0  0  0  0  0  0
  -25.4240  -36.3890   23.8790 C   0  0  0  0  0  3  0  0  0  0  0  0
  -27.5520  -37.2860   24.7150 C   0  0  0  0  0  1  0  0  0  0  0  0
  -26.4540  -37.4450   23.7650 N   0  0  0  0  0  0  0  0  0  0  0  0
  -26.0440  -38.3640   23.9060 H   0  0  0  0  0  0  0  0  0  0  0  0
  -26.4120  -31.7900   25.1550 C   0  0  1  0  0  0  0  0  0  0  0  0
  -25.3130  -31.5590   26.2160 C   0  0  0  0  0  1  0  0  0  0  0  0
  -27.0020  -30.4110   24.7810 C   0  0  0  0  0  1  0  0  0  0  0  0
  -27.5560  -32.5930   25.8200 C   0  0  0  0  0  1  0  0  0  0  0  0
  1  2  1  0
  2  5  1  0
  2  4  2  0
  3  1  1  0
  3  7  1  0
  4  6  1  0
  7  5  1  0
  8  1  2  0
  9  3  2  0
 10 11  2  0
 10 12  1  0
 11 14  1  0
 12 15  2  0
 14  7  1  0
 14 13  2  0
 15 13  1  0
 15 25  1  0
 16 25  1  0
 17 22  1  0
 18 19  1  0
 18 17  1  0
 20 19  1  0
 20 29  1  0
 20 21  1  0
 22 16  1  0
 22 21  1  0
 23 16  2  0
 25 24  1  0
 26 27  2  0
 27 46  1  0
 28 27  1  0
 28 31  1  0
 29 30  1  0
 29 26  1  0
 30 28  2  0
 31 32  1  0
 32 33  2  0
 34 37  1  0
 34 33  1  0
 35 34  2  0
 36 35  1  0
 36 31  2  0
 37 38  1  0
 38 39  1  0
 39 40  2  0
 41 40  1  0
 41 45  1  0
 42 41  2  0
 43 38  2  0
 43 42  1  0
 44 43  1  0
 46 47  1  0
 47 50  1  0
 47 49  1  0
 48 46  2  0
 51 26  1  0
 51 52  1  0
 53 51  1  0
 54  4  1  0
 55 66  2  0
 56 54  1  0
 56 61  1  0
 57 65  1  0
 57 67  1  0
 58 64  1  0
 58 60  1  0
 59 65  1  0
 60 61  2  0
 60 59  1  0
 62 56  2  0
 63 62  1  0
 63 58  2  0
 64 57  1  0
 65 55  1  0
 67 69  2  0
 68 67  1  0
 70 68  1  0
 71 80  2  0
 71 76  1  0
 72 68  1  0
 72 76  1  0
 73 72  1  0
 74 75  1  0
 74 73  1  0
 75 71  1  0
 76 77  2  0
 77 78  1  0
 79 78  2  0
 80 79  1  0
 81 55  1  0
 81 82  1  0
 81 91  1  0
 82 85  1  0
 83 87  1  0
 83 82  1  0
 84 83  2  0
 87 86  1  0
 89 87  1  0
 89 90  1  0
 89 88  1  0
 91 94  1  1
 91 92  1  0
 93 91  1  0
M  ISO  4   4 101  16 100  25 100  54 101
M  END
>  <TORSDO>  (10) 
F 17

>  <SCORE>  (10) 
-15.229

>  <name>  (10) 
9

>  <ligand_id>  (10) 
9

>  <original_smiles>  (10) 
[H]c1c([H])c(N(C(=O)N2C([H])([H])C([H])([H])C([H])([H])C([H])(n3nc(-c4c([H])c([H])c(Oc5c([H])c([H])c(F)c([H])c5F)c([H])c4[H])c(C(=O)N([H])[H])c3N([H])[H])C2([H])[H])C([H])([H])[H])c([H])c(N2C(=O)C(=O)C(=C(Oc3c([H])c([H])c4c(c3[H])C([H])([H])N(C(=O)C([H])(N([H])C(=O)C([H])(N([H])C([H])([H])[H])C([H])([H])[H])C(C([H])([H])[H])(C([H])([H])[H])C([H])([H])[H])C([H])(C(=O)N([H])C3([H])c5c([H])c([H])c([H])c([H])c5C([H])([H])C([H])([H])C3([H])[H])C4([H])[H])C([H])([H])[H])C2([H])[H])c1[H]

>  <smiles>  (10) 
[H]c1c([H])c(N(C(=O)N2C([H])([H])C([H])([H])C([H])([H])C([H])(n3nc(-c4c([H])c([H])c(Oc5c([H])c([H])c(F)c([H])c5F)c([H])c4[H])c(C(=O)N([H])[H])c3N([H])[H])C2([H])[H])C([H])([H])[H])c([H])c(N2C(=O)C(=O)C(=C(Oc3c([H])c([H])c4c(c3[H])C([H])([H])N(C(=O)C([H])(N([H])C(=O)C([H])(N([H])C([H])([H])[H])C([H])([H])[H])C(C([H])([H])[H])(C([H])([H])[H])C([H])([H])[H])C([H])(C(=O)N([H])C3([H])c5c([H])c([H])c([H])c([H])c5C([H])([H])C([H])([H])C3([H])[H])C4([H])[H])C([H])([H])[H])C2([H])[H])c1[H]

$$$$
10:0:0
     RDKit          3D

102112  0  0  1  0  0  0  0  0999 V2000
  -29.6640  -20.3680   20.9260 C   0  0  0  0  0  3  0  0  0  0  0  0
  -27.9620  -23.2100   19.1780 C   0  0  0  0  0  2  0  0  0  0  0  0
  -28.5080  -21.7560   19.1090 C   0  0  0  0  0  2  0  0  0  0  0  0
  -29.3110  -22.8920   21.0460 C   0  0  0  0  0  2  0  0  0  0  0  0
  -28.9810  -24.0390   20.0130 C   0  0  1  0  0  0  0  0  0  0  0  0
  -29.2280  -21.5600   20.3730 N   0  0  0  0  0  0  0  0  0  0  0  0
  -30.3630  -20.4380   22.0780 N   0  0  0  0  0  0  0  0  0  0  0  0
  -30.7010  -19.5990   22.5250 H   0  0  0  0  0  0  0  0  0  0  0  0
  -30.5800  -21.3150   22.5280 H   0  0  0  0  0  0  0  0  0  0  0  0
  -30.8330  -14.7220   19.9930 C   0  0  0  0  0  0  0  0  0  0  0  0
  -30.4830  -12.5040   18.9320 C   0  0  0  0  0  2  0  0  0  0  0  0
  -29.4660  -12.6310   17.7790 C   0  0  0  0  0  2  0  0  0  0  0  0
  -28.0250  -12.4680   18.3040 C   0  0  0  0  0  2  0  0  0  0  0  0
  -27.7480  -13.3140   19.5760 C   0  0  0  0  0  3  0  0  0  0  0  0
  -28.8860  -13.1680   20.6090 C   0  0  0  0  0  2  0  0  0  0  0  0
  -30.1360  -13.5380   19.9320 N   0  0  0  0  0  0  0  0  0  0  0  0
  -32.0030  -14.7520   19.6010 O   0  0  0  0  0  0  0  0  0  0  0  0
  -30.6360  -18.4300   19.5330 C   0  0  0  0  0  2  0  0  0  0  0  0
  -29.2380  -17.8690   21.4540 C   0  0  0  0  0  2  0  0  0  0  0  0
  -30.4260  -16.9790   18.9840 C   0  0  0  0  0  2  0  0  0  0  0  0
  -29.1310  -16.3730   20.9940 C   0  0  0  0  0  2  0  0  0  0  0  0
  -29.4300  -18.9440   20.3390 C   0  0  0  0  0  3  0  0  0  0  0  0
  -30.1290  -15.9200   19.9950 N   0  0  0  0  0  0  0  0  0  0  0  0
  -25.4240  -13.8890   20.5040 C   0  0  0  0  0  0  0  0  0  0  0  0
  -24.3850  -13.1050   20.9230 C   0  0  0  0  0  0  0  0  0  0  0  0
  -24.8340  -11.7540   20.7980 C   0  0  0  0  0  0  0  0  0  0  0  0
  -26.4410  -13.0160   20.1540 N   0  0  0  0  0  0  0  0  0  0  0  0
  -26.0970  -11.7240   20.3900 N   0  0  0  0  0  0  0  0  0  0  0  0
  -24.1140  -10.4880   20.9830 C   0  0  0  0  0  0  0  0  0  0  0  0
  -24.5610   -9.5140   21.9030 C   0  0  0  0  0  3  0  0  0  0  0  0
  -23.8420   -8.3130   22.0780 C   0  0  0  0  0  3  0  0  0  0  0  0
  -22.6610   -8.0760   21.3350 C   0  0  0  0  0  0  0  0  0  0  0  0
  -22.2340   -9.0390   20.4030 C   0  0  0  0  0  3  0  0  0  0  0  0
  -22.9540  -10.2330   20.2260 C   0  0  0  0  0  3  0  0  0  0  0  0
  -21.9100   -6.9300   21.4210 O   0  0  0  0  0  0  0  0  0  0  0  0
  -21.8070   -6.2240   22.5940 C   0  0  0  0  0  0  0  0  0  0  0  0
  -21.2820   -6.8030   23.7690 C   0  0  0  0  0  3  0  0  0  0  0  0
  -21.1300   -6.0200   24.9310 C   0  0  0  0  0  3  0  0  0  0  0  0
  -21.4930   -4.6600   24.9180 C   0  0  0  0  0  0  0  0  0  0  0  0
  -22.0130   -4.0820   23.7470 C   0  0  0  0  0  3  0  0  0  0  0  0
  -22.1660   -4.8610   22.5870 C   0  0  0  0  0  0  0  0  0  0  0  0
  -22.6460   -4.2930   21.4550 F   0  0  0  0  0  0  0  0  0  0  0  0
  -21.3410   -3.9070   26.0330 F   0  0  0  0  0  0  0  0  0  0  0  0
  -23.0150  -13.5750   21.3190 C   0  0  0  0  0  0  0  0  0  0  0  0
  -22.3490  -12.8460   22.2060 N   0  0  0  0  0  0  0  0  0  0  0  0
  -22.5470  -14.6220   20.8750 O   0  0  0  0  0  0  0  0  0  0  0  0
  -22.7390  -11.9980   22.5910 H   0  0  0  0  0  0  0  0  0  0  0  0
  -21.4300  -13.1420   22.5080 H   0  0  0  0  0  0  0  0  0  0  0  0
  -25.5750  -15.2640   20.3630 N   0  0  0  0  0  0  0  0  0  0  0  0
  -24.8150  -15.9110   20.5460 H   0  0  0  0  0  0  0  0  0  0  0  0
  -26.3800  -15.7080   19.9440 H   0  0  0  0  0  0  0  0  0  0  0  0
  -31.4150  -24.8350   19.9460 C   0  0  0  0  0  3  0  0  0  0  0  0
  -30.2660  -24.5840   17.8180 C   0  0  0  0  0  3  0  0  0  0  0  0
  -32.5820  -25.3310   17.8680 C   0  0  0  0  0  3  0  0  0  0  0  0
  -30.2480  -24.4680   19.2330 C   0  0  0  0  0  0  0  0  0  0  0  0
  -32.5780  -25.2550   19.2720 C   0  0  0  0  0  0  0  0  0  0  0  0
  -31.4280  -25.0150   17.1290 C   0  0  0  0  0  0  0  0  0  0  0  0
  -33.8200  -25.6470   20.0470 C   0  0  0  0  0  1  0  0  0  0  0  0
  -30.3210  -25.0890   14.9980 C   0  0  0  0  0  1  0  0  0  0  0  0
  -31.5180  -25.1590   15.7610 O   0  0  0  0  0  0  0  0  0  0  0  0
  -28.3530  -25.3220   20.7200 C   0  0  0  0  0  2  0  0  0  0  0  0
  -28.4490  -26.6430   20.0880 O   0  0  0  0  0  0  0  0  0  0  0  0
  -24.6180  -31.8730   23.2310 C   0  0  0  0  0  0  0  0  0  0  0  0
  -27.3040  -27.4340   20.1160 C   0  0  0  0  0  0  0  0  0  0  0  0
  -23.4310  -30.4780   21.5710 C   0  0  0  0  0  3  0  0  0  0  0  0
  -24.9050  -28.9650   20.1310 C   0  0  0  0  0  0  0  0  0  0  0  0
  -25.9600  -30.8500   21.3860 C   0  0  0  0  0  2  0  0  0  0  0  0
  -26.0630  -29.4800   20.7300 C   0  0  0  0  0  0  0  0  0  0  0  0
  -27.2680  -28.7250   20.7130 C   0  0  0  0  0  3  0  0  0  0  0  0
  -26.1280  -26.9510   19.5070 C   0  0  0  0  0  3  0  0  0  0  0  0
  -24.9360  -27.7030   19.5140 C   0  0  0  0  0  3  0  0  0  0  0  0
  -23.6530  -29.8140   20.1860 C   0  0  0  0  0  2  0  0  0  0  0  0
  -24.6890  -31.0830   22.1210 N   0  0  0  0  0  0  0  0  0  0  0  0
  -23.5320  -32.1290   23.7710 O   0  0  0  0  0  0  0  0  0  0  0  0
  -22.7850  -29.4430   22.5200 C   0  0  0  0  0  0  0  0  0  0  0  0
  -21.4620  -29.2480   22.3870 N   0  0  0  0  0  0  0  0  0  0  0  0
  -23.4720  -28.8160   23.3320 O   0  0  0  0  0  0  0  0  0  0  0  0
  -20.9680  -29.8070   21.7060 H   0  0  0  0  0  0  0  0  0  0  0  0
  -18.1040  -27.9880   22.8450 C   0  0  0  0  0  0  0  0  0  0  0  0
  -20.6540  -28.2900   23.1430 C   0  0  0  0  0  3  0  0  0  0  0  0
  -20.7880  -26.8650   22.5580 C   0  0  0  0  0  2  0  0  0  0  0  0
  -19.7010  -26.5300   21.5310 C   0  0  0  0  0  2  0  0  0  0  0  0
  -18.3110  -26.6470   22.1630 C   0  0  0  0  0  2  0  0  0  0  0  0
  -19.2050  -28.7670   23.2910 C   0  0  0  0  0  0  0  0  0  0  0  0
  -18.9570  -30.0230   23.8880 C   0  0  0  0  0  3  0  0  0  0  0  0
  -17.6430  -30.5000   24.0440 C   0  0  0  0  0  3  0  0  0  0  0  0
  -16.5570  -29.7180   23.6150 C   0  0  0  0  0  3  0  0  0  0  0  0
  -16.7880  -28.4640   23.0220 C   0  0  0  0  0  3  0  0  0  0  0  0
  -25.8950  -32.5130   23.8610 C   0  0  0  0  0  3  0  0  0  0  0  0
  -26.4030  -31.7480   25.1470 C   0  0  1  0  0  0  0  0  0  0  0  0
  -25.2980  -31.5050   26.2020 C   0  0  0  0  0  1  0  0  0  0  0  0
  -26.9990  -30.3740   24.7650 C   0  0  0  0  0  1  0  0  0  0  0  0
  -27.5390  -32.5520   25.8200 C   0  0  0  0  0  1  0  0  0  0  0  0
  -25.5780  -33.9110   24.1830 N   0  0  0  0  0  0  0  0  0  0  0  0
  -25.9200  -34.9620   23.4250 C   0  0  0  0  0  0  0  0  0  0  0  0
  -26.6040  -34.8560   22.4040 O   0  0  0  0  0  0  0  0  0  0  0  0
  -24.9720  -34.0670   24.9750 H   0  0  0  0  0  0  0  0  0  0  0  0
  -24.2010  -36.7560   23.0310 C   0  0  0  0  0  1  0  0  0  0  0  0
  -25.4230  -36.3510   23.8700 C   0  0  0  0  0  3  0  0  0  0  0  0
  -27.5360  -37.2390   24.7510 C   0  0  0  0  0  1  0  0  0  0  0  0
  -26.4580  -37.4030   23.7790 N   0  0  0  0  0  0  0  0  0  0  0  0
  -26.0490  -38.3240   23.9120 H   0  0  0  0  0  0  0  0  0  0  0  0
  1  7  1  0
  2  5  1  0
  3  2  1  0
  3  6  1  0
  5 61  1  1
  5  4  1  0
  6  1  1  0
  6  4  1  0
  7  8  1  0
  7  9  1  0
 10 23  1  0
 11 16  1  0
 12 13  1  0
 12 11  1  0
 14 13  1  0
 14 27  1  0
 14 15  1  0
 16 10  1  0
 16 15  1  0
 17 10  2  0
 18 22  1  0
 20 18  1  0
 20 23  1  0
 21 19  1  0
 22  1  1  0
 22 19  1  0
 23 21  1  0
 24 25  2  0
 25 44  1  0
 26 25  1  0
 26 29  1  0
 27 28  1  0
 27 24  1  0
 28 26  2  0
 29 30  1  0
 30 31  2  0
 32 35  1  0
 32 31  1  0
 33 32  2  0
 34 33  1  0
 34 29  2  0
 35 36  1  0
 36 37  1  0
 37 38  2  0
 39 38  1  0
 39 43  1  0
 40 39  2  0
 41 36  2  0
 41 40  1  0
 42 41  1  0
 44 45  1  0
 45 48  1  0
 45 47  1  0
 46 44  2  0
 49 24  1  0
 49 50  1  0
 51 49  1  0
 53 55  1  0
 54 56  2  0
 55 52  2  0
 55  5  1  0
 56 52  1  0
 56 58  1  0
 57 53  2  0
 57 54  1  0
 59 60  1  0
 60 57  1  0
 62 64  1  0
 62 61  1  0
 63 74  2  0
 64 69  1  0
 65 73  1  0
 65 75  1  0
 66 72  1  0
 66 68  1  0
 67 73  1  0
 68 67  1  0
 69 68  2  0
 70 71  1  0
 70 64  2  0
 71 66  2  0
 72 65  1  0
 73 63  1  0
 75 77  2  0
 76 75  1  0
 78 76  1  0
 79 88  2  0
 79 84  1  0
 80 76  1  0
 80 84  1  0
 81 80  1  0
 82 83  1  0
 82 81  1  0
 83 79  1  0
 84 85  2  0
 85 86  1  0
 87 86  2  0
 88 87  1  0
 89 63  1  0
 89 94  1  0
 89 90  1  0
 90 93  1  1
 90 91  1  0
 92 90  1  0
 94 97  1  0
 95 99  1  0
 95 94  1  0
 96 95  2  0
 99 98  1  0
101 99  1  0
101102  1  0
101100  1  0
M  ISO  4  10 100  23 100  61 101  62 101
M  END
>  <TORSDO>  (11) 
F 19

>  <SCORE>  (11) 
-14.126

>  <name>  (11) 
10

>  <ligand_id>  (11) 
10

>  <original_smiles>  (11) 
[H]c1c([H])c([H])c2c(c1[H])C([H])([H])C([H])([H])C([H])([H])C2([H])N([H])C(=O)C1([H])N(C(=O)C([H])(N([H])C(=O)C([H])(N([H])C([H])([H])[H])C([H])([H])[H])C(C([H])([H])[H])(C([H])([H])[H])C([H])([H])[H])C([H])([H])c2c([H])c(OC([H])([H])C3(c4c([H])c(OC([H])([H])[H])c([H])c(C([H])([H])[H])c4[H])C([H])([H])N(C(=[N+]([H])[H])C4([H])C([H])([H])C([H])([H])N(C(=O)N5C([H])([H])C([H])([H])C([H])([H])C([H])(n6nc(-c7c([H])c([H])c(Oc8c([H])c([H])c(F)c([H])c8F)c([H])c7[H])c(C(=O)N([H])[H])c6N([H])[H])C5([H])[H])C([H])([H])C4([H])[H])C([H])([H])C3([H])[H])c([H])c([H])c2C1([H])[H]

>  <smiles>  (11) 
[H]c1c([H])c([H])c2c(c1[H])C([H])([H])C([H])([H])C([H])([H])C2([H])N([H])C(=O)C1([H])N(C(=O)C([H])(N([H])C(=O)C([H])(N([H])C([H])([H])[H])C([H])([H])[H])C(C([H])([H])[H])(C([H])([H])[H])C([H])([H])[H])C([H])([H])c2c([H])c(OC([H])([H])C3(c4c([H])c(OC([H])([H])[H])c([H])c(C([H])([H])[H])c4[H])C([H])([H])N(C(=[N+]([H])[H])C4([H])C([H])([H])C([H])([H])N(C(=O)N5C([H])([H])C([H])([H])C([H])([H])C([H])(n6nc(-c7c([H])c([H])c(Oc8c([H])c([H])c(F)c([H])c8F)c([H])c7[H])c(C(=O)N([H])[H])c6N([H])[H])C5([H])[H])C([H])([H])C4([H])[H])C([H])([H])C3([H])[H])c([H])c([H])c2C1([H])[H]

$$$$
11:0:0
     RDKit          3D

 95104  0  0  1  0  0  0  0  0999 V2000
  -29.2520  -22.7870   19.8860 C   0  0  0  0  0  3  0  0  0  0  0  0
  -28.5510  -23.8670   19.3460 C   0  0  0  0  0  0  0  0  0  0  0  0
  -27.4080  -23.4260   18.5350 C   0  0  0  0  0  0  0  0  0  0  0  0
  -26.7250  -22.1810   18.8940 C   0  0  0  0  0  0  0  0  0  0  0  0
  -27.1050  -24.0180   17.3620 C   0  0  0  0  0  2  0  0  0  0  0  0
  -25.4240  -21.9810   18.6090 C   0  0  0  0  0  2  0  0  0  0  0  0
  -27.5450  -21.0210   19.4470 C   0  0  0  0  0  2  0  0  0  0  0  0
  -28.9320  -21.3650   19.7770 N   0  0  0  0  0  0  0  0  0  0  0  0
  -32.0890  -19.3800   19.2190 C   0  0  0  0  0  3  0  0  0  0  0  0
  -31.1450  -20.4170   19.3120 C   0  0  0  0  0  3  0  0  0  0  0  0
  -31.7830  -18.0540   19.5820 C   0  0  0  0  0  3  0  0  0  0  0  0
  -29.8300  -20.1940   19.7770 C   0  0  0  0  0  0  0  0  0  0  0  0
  -30.5040  -17.6880   20.0650 C   0  0  0  0  0  0  0  0  0  0  0  0
  -29.5390  -18.7900   20.1530 C   0  0  0  0  0  0  0  0  0  0  0  0
  -28.3090  -18.4630   20.6200 F   0  0  0  0  0  0  0  0  0  0  0  0
  -30.9540  -15.0790   20.2400 C   0  0  0  0  0  0  0  0  0  0  0  0
  -30.7320  -12.7660   19.3130 C   0  0  0  0  0  2  0  0  0  0  0  0
  -29.8100  -12.8150   18.0730 C   0  0  0  0  0  2  0  0  0  0  0  0
  -28.3380  -12.6570   18.4980 C   0  0  0  0  0  2  0  0  0  0  0  0
  -27.9600  -13.5790   19.6860 C   0  0  0  0  0  3  0  0  0  0  0  0
  -29.0100  -13.5320   20.8180 C   0  0  0  0  0  2  0  0  0  0  0  0
  -30.3080  -13.8600   20.2200 N   0  0  0  0  0  0  0  0  0  0  0  0
  -32.1520  -15.1080   19.9530 O   0  0  0  0  0  0  0  0  0  0  0  0
  -30.2050  -16.2500   20.3980 N   0  0  0  0  0  0  0  0  0  0  0  0
  -29.2580  -16.0880   20.7070 H   0  0  0  0  0  0  0  0  0  0  0  0
  -25.5840  -14.2010   20.4210 C   0  0  0  0  0  0  0  0  0  0  0  0
  -24.5040  -13.4430   20.7780 C   0  0  0  0  0  0  0  0  0  0  0  0
  -24.9430  -12.0840   20.7300 C   0  0  0  0  0  0  0  0  0  0  0  0
  -26.6120  -13.3060   20.1760 N   0  0  0  0  0  0  0  0  0  0  0  0
  -26.2330  -12.0270   20.4260 N   0  0  0  0  0  0  0  0  0  0  0  0
  -24.1940  -10.8310   20.8990 C   0  0  0  0  0  0  0  0  0  0  0  0
  -24.5910   -9.8500   21.8340 C   0  0  0  0  0  3  0  0  0  0  0  0
  -23.8390   -8.6650   21.9900 C   0  0  0  0  0  3  0  0  0  0  0  0
  -22.6770   -8.4520   21.2120 C   0  0  0  0  0  0  0  0  0  0  0  0
  -22.3000   -9.4220   20.2650 C   0  0  0  0  0  3  0  0  0  0  0  0
  -23.0530  -10.5980   20.1060 C   0  0  0  0  0  3  0  0  0  0  0  0
  -21.9020   -7.3210   21.2790 O   0  0  0  0  0  0  0  0  0  0  0  0
  -21.8150   -6.5740   22.4270 C   0  0  0  0  0  0  0  0  0  0  0  0
  -21.3630   -7.1290   23.6440 C   0  0  0  0  0  3  0  0  0  0  0  0
  -21.2230   -6.3090   24.7830 C   0  0  0  0  0  3  0  0  0  0  0  0
  -21.5220   -4.9370   24.7040 C   0  0  0  0  0  0  0  0  0  0  0  0
  -21.9670   -4.3820   23.4910 C   0  0  0  0  0  3  0  0  0  0  0  0
  -22.1070   -5.1980   22.3550 C   0  0  0  0  0  0  0  0  0  0  0  0
  -22.5160   -4.6520   21.1830 F   0  0  0  0  0  0  0  0  0  0  0  0
  -21.3800   -4.1470   25.7930 F   0  0  0  0  0  0  0  0  0  0  0  0
  -23.1150  -13.9420   21.0530 C   0  0  0  0  0  0  0  0  0  0  0  0
  -22.3760  -13.2530   21.9150 N   0  0  0  0  0  0  0  0  0  0  0  0
  -22.6960  -14.9800   20.5420 O   0  0  0  0  0  0  0  0  0  0  0  0
  -22.7260  -12.4100   22.3450 H   0  0  0  0  0  0  0  0  0  0  0  0
  -21.4460  -13.5710   22.1490 H   0  0  0  0  0  0  0  0  0  0  0  0
  -25.7770  -15.5700   20.2590 N   0  0  0  0  0  0  0  0  0  0  0  0
  -25.0220  -16.2380   20.3670 H   0  0  0  0  0  0  0  0  0  0  0  0
  -26.6380  -15.9950   19.9430 H   0  0  0  0  0  0  0  0  0  0  0  0
  -29.0360  -25.4180   19.3350 C   0  0  0  0  0  2  0  0  0  0  0  0
  -28.6400  -26.5130   20.3070 O   0  0  0  0  0  0  0  0  0  0  0  0
  -24.6410  -31.8340   23.2340 C   0  0  0  0  0  0  0  0  0  0  0  0
  -27.5350  -27.3950   20.1690 C   0  0  0  0  0  0  0  0  0  0  0  0
  -23.5630  -30.4410   21.5040 C   0  0  0  0  0  3  0  0  0  0  0  0
  -25.1320  -28.9840   20.0940 C   0  0  0  0  0  0  0  0  0  0  0  0
  -26.1000  -30.8330   21.4520 C   0  0  0  0  0  2  0  0  0  0  0  0
  -26.2550  -29.4720   20.7700 C   0  0  0  0  0  0  0  0  0  0  0  0
  -27.4530  -28.6830   20.8080 C   0  0  0  0  0  3  0  0  0  0  0  0
  -26.3920  -26.9970   19.4520 C   0  0  0  0  0  3  0  0  0  0  0  0
  -25.2070  -27.7550   19.4220 C   0  0  0  0  0  3  0  0  0  0  0  0
  -23.8640  -29.8170   20.1150 C   0  0  0  0  0  2  0  0  0  0  0  0
  -24.7840  -31.0550   22.1210 N   0  0  0  0  0  0  0  0  0  0  0  0
  -23.5240  -32.0600   23.7240 O   0  0  0  0  0  0  0  0  0  0  0  0
  -22.8920  -29.3780   22.4060 C   0  0  0  0  0  0  0  0  0  0  0  0
  -21.5660  -29.2090   22.2660 N   0  0  0  0  0  0  0  0  0  0  0  0
  -23.5660  -28.7110   23.1970 O   0  0  0  0  0  0  0  0  0  0  0  0
  -21.0800  -29.8040   21.6080 H   0  0  0  0  0  0  0  0  0  0  0  0
  -18.1740  -28.0480   22.7600 C   0  0  0  0  0  0  0  0  0  0  0  0
  -20.7430  -28.2310   22.9810 C   0  0  0  0  0  3  0  0  0  0  0  0
  -20.7970  -26.8470   22.2920 C   0  0  0  0  0  2  0  0  0  0  0  0
  -19.6630  -26.6310   21.2840 C   0  0  0  0  0  2  0  0  0  0  0  0
  -18.3020  -26.7530   21.9750 C   0  0  0  0  0  2  0  0  0  0  0  0
  -19.3200  -28.7490   23.2200 C   0  0  0  0  0  0  0  0  0  0  0  0
  -19.1470  -29.9640   23.9160 C   0  0  0  0  0  3  0  0  0  0  0  0
  -17.8590  -30.4790   24.1570 C   0  0  0  0  0  3  0  0  0  0  0  0
  -16.7270  -29.7740   23.7130 C   0  0  0  0  0  3  0  0  0  0  0  0
  -16.8850  -28.5590   23.0220 C   0  0  0  0  0  3  0  0  0  0  0  0
  -25.8700  -32.4960   23.9300 C   0  0  0  0  0  3  0  0  0  0  0  0
  -25.5150  -33.8920   24.2280 N   0  0  0  0  0  0  0  0  0  0  0  0
  -25.8620  -34.9450   23.4740 C   0  0  0  0  0  0  0  0  0  0  0  0
  -26.5810  -34.8430   22.4760 O   0  0  0  0  0  0  0  0  0  0  0  0
  -24.8800  -34.0410   24.9980 H   0  0  0  0  0  0  0  0  0  0  0  0
  -24.1060  -36.6910   23.0330 C   0  0  0  0  0  1  0  0  0  0  0  0
  -25.3270  -36.3290   23.8920 C   0  0  0  0  0  3  0  0  0  0  0  0
  -27.4100  -37.2800   24.7810 C   0  0  0  0  0  1  0  0  0  0  0  0
  -26.3390  -37.4050   23.7950 N   0  0  0  0  0  0  0  0  0  0  0  0
  -25.9070  -38.3170   23.9100 H   0  0  0  0  0  0  0  0  0  0  0  0
  -26.3130  -31.7470   25.2450 C   0  0  1  0  0  0  0  0  0  0  0  0
  -25.1550  -31.4900   26.2370 C   0  0  0  0  0  1  0  0  0  0  0  0
  -26.9530  -30.3800   24.9060 C   0  0  0  0  0  1  0  0  0  0  0  0
  -27.4000  -32.5690   25.9770 C   0  0  0  0  0  1  0  0  0  0  0  0
  2  1  2  0
  3  4  1  0
  3  2  1  0
  4  7  1  0
  5  3  2  0
  6  4  2  0
  7  8  1  0
  8 12  1  0
  8  1  1  0
  9 10  2  0
  9 11  1  0
 10 12  1  0
 11 13  2  0
 12 14  2  0
 13 14  1  0
 13 24  1  0
 14 15  1  0
 16 24  1  0
 17 22  1  0
 18 19  1  0
 18 17  1  0
 20 19  1  0
 20 29  1  0
 20 21  1  0
 22 16  1  0
 22 21  1  0
 23 16  2  0
 24 25  1  0
 26 27  2  0
 27 46  1  0
 28 27  1  0
 28 31  1  0
 29 26  1  0
 29 30  1  0
 30 28  2  0
 31 32  1  0
 32 33  2  0
 34 37  1  0
 34 33  1  0
 35 34  2  0
 36 35  1  0
 36 31  2  0
 37 38  1  0
 38 39  1  0
 39 40  2  0
 41 40  1  0
 41 45  1  0
 42 41  2  0
 43 38  2  0
 43 42  1  0
 44 43  1  0
 46 47  1  0
 47 50  1  0
 47 49  1  0
 48 46  2  0
 51 52  1  0
 51 26  1  0
 53 51  1  0
 54  2  1  0
 54 55  1  0
 56 67  2  0
 57 55  1  0
 57 62  1  0
 58 66  1  0
 58 68  1  0
 59 65  1  0
 59 61  1  0
 60 66  1  0
 61 62  2  0
 61 60  1  0
 63 57  2  0
 64 63  1  0
 64 59  2  0
 65 58  1  0
 66 56  1  0
 68 70  2  0
 69 68  1  0
 71 69  1  0
 72 81  2  0
 72 77  1  0
 73 69  1  0
 73 77  1  0
 74 73  1  0
 75 76  1  0
 75 74  1  0
 76 72  1  0
 77 78  2  0
 78 79  1  0
 80 79  2  0
 81 80  1  0
 82 56  1  0
 82 83  1  0
 82 92  1  0
 83 86  1  0
 84 88  1  0
 84 83  1  0
 85 84  2  0
 88 87  1  0
 90 88  1  0
 90 91  1  0
 90 89  1  0
 92 95  1  1
 92 93  1  0
 94 92  1  0
M  ISO  4  16 100  24 100  54 101  55 101
M  END
>  <TORSDO>  (12) 
F 18

>  <SCORE>  (12) 
-14.575

>  <name>  (12) 
11

>  <ligand_id>  (12) 
11

>  <original_smiles>  (12) 
[H]C([H])=C1C(C([H])([H])Oc2c([H])c([H])c3c(c2[H])C([H])([H])N(C(=O)C([H])(N([H])C(=O)C([H])(N([H])C([H])([H])[H])C([H])([H])[H])C(C([H])([H])[H])(C([H])([H])[H])C([H])([H])[H])C([H])(C(=O)N([H])C2([H])c4c([H])c([H])c([H])c([H])c4C([H])([H])C([H])([H])C2([H])[H])C3([H])[H])=C([H])N(c2c([H])c([H])c([H])c(N([H])C(=O)N3C([H])([H])C([H])([H])C([H])([H])C([H])(n4nc(-c5c([H])c([H])c(Oc6c([H])c([H])c(F)c([H])c6F)c([H])c5[H])c(C(=O)N([H])[H])c4N([H])[H])C3([H])[H])c2F)C([H])([H])C1=C([H])[H]

>  <smiles>  (12) 
[H]C([H])=C1C(C([H])([H])Oc2c([H])c([H])c3c(c2[H])C([H])([H])N(C(=O)C([H])(N([H])C(=O)C([H])(N([H])C([H])([H])[H])C([H])([H])[H])C(C([H])([H])[H])(C([H])([H])[H])C([H])([H])[H])C([H])(C(=O)N([H])C2([H])c4c([H])c([H])c([H])c([H])c4C([H])([H])C([H])([H])C2([H])[H])C3([H])[H])=C([H])N(c2c([H])c([H])c([H])c(N([H])C(=O)N3C([H])([H])C([H])([H])C([H])([H])C([H])(n4nc(-c5c([H])c([H])c(Oc6c([H])c([H])c(F)c([H])c6F)c([H])c5[H])c(C(=O)N([H])[H])c4N([H])[H])C3([H])[H])c2F)C([H])([H])C1=C([H])[H]

$$$$
12:0:0
     RDKit          3D

 95105  0  0  1  0  0  0  0  0999 V2000
  -29.6520  -22.0600   20.7120 C   0  0  0  0  0  0  0  0  0  0  0  0
  -30.1460  -21.0010   21.3890 N   0  0  0  0  0  0  0  0  0  0  0  0
  -28.9340  -21.9760   19.7130 O   0  0  0  0  0  0  0  0  0  0  0  0
  -30.6350  -21.2530   22.2370 H   0  0  0  0  0  0  0  0  0  0  0  0
  -30.7300  -14.5820   20.0160 C   0  0  0  0  0  0  0  0  0  0  0  0
  -30.3890  -12.4110   18.9180 C   0  0  0  0  0  2  0  0  0  0  0  0
  -29.3850  -12.6490   17.7720 C   0  0  0  0  0  2  0  0  0  0  0  0
  -27.9380  -12.4890   18.2830 C   0  0  0  0  0  2  0  0  0  0  0  0
  -27.6670  -13.3000   19.5790 C   0  0  0  0  0  3  0  0  0  0  0  0
  -28.7940  -13.0940   20.6200 C   0  0  0  0  0  2  0  0  0  0  0  0
  -30.0770  -13.3910   19.9670 N   0  0  0  0  0  0  0  0  0  0  0  0
  -31.8860  -14.7340   19.6120 O   0  0  0  0  0  0  0  0  0  0  0  0
  -29.7940  -19.0760   19.8160 C   0  0  0  0  0  3  0  0  0  0  0  0
  -30.3840  -18.7100   22.2150 C   0  0  0  0  0  3  0  0  0  0  0  0
  -29.8050  -17.6790   19.7390 C   0  0  0  0  0  0  0  0  0  0  0  0
  -30.0740  -16.8050   20.8350 C   0  0  0  0  0  0  0  0  0  0  0  0
  -30.0830  -19.5970   21.1180 C   0  0  0  0  0  0  0  0  0  0  0  0
  -30.3840  -17.2870   22.1040 C   0  0  0  0  0  0  0  0  0  0  0  0
  -29.6390  -16.5000   18.8240 C   0  0  0  0  0  2  0  0  0  0  0  0
  -29.8900  -15.6390   20.0470 N   0  0  0  0  0  0  0  0  0  0  0  0
  -30.6630  -16.4670   23.1440 F   0  0  0  0  0  0  0  0  0  0  0  0
  -25.3190  -13.8740   20.4540 C   0  0  0  0  0  0  0  0  0  0  0  0
  -24.2780  -13.0870   20.8660 C   0  0  0  0  0  0  0  0  0  0  0  0
  -24.7410  -11.7400   20.7660 C   0  0  0  0  0  0  0  0  0  0  0  0
  -26.3510  -13.0050   20.1340 N   0  0  0  0  0  0  0  0  0  0  0  0
  -26.0110  -11.7140   20.3810 N   0  0  0  0  0  0  0  0  0  0  0  0
  -24.0320  -10.4680   20.9620 C   0  0  0  0  0  0  0  0  0  0  0  0
  -24.4890   -9.5050   21.8880 C   0  0  0  0  0  3  0  0  0  0  0  0
  -23.7830   -8.2970   22.0730 C   0  0  0  0  0  3  0  0  0  0  0  0
  -22.6040   -8.0450   21.3330 C   0  0  0  0  0  0  0  0  0  0  0  0
  -22.1660   -8.9960   20.3950 C   0  0  0  0  0  3  0  0  0  0  0  0
  -22.8730  -10.1970   20.2080 C   0  0  0  0  0  3  0  0  0  0  0  0
  -21.8650   -6.8910   21.4290 O   0  0  0  0  0  0  0  0  0  0  0  0
  -21.7850   -6.1840   22.6020 C   0  0  0  0  0  0  0  0  0  0  0  0
  -21.3060   -6.7700   23.7960 C   0  0  0  0  0  3  0  0  0  0  0  0
  -21.1750   -5.9860   24.9600 C   0  0  0  0  0  3  0  0  0  0  0  0
  -21.5110   -4.6180   24.9300 C   0  0  0  0  0  0  0  0  0  0  0  0
  -21.9810   -4.0340   23.7410 C   0  0  0  0  0  3  0  0  0  0  0  0
  -22.1150   -4.8150   22.5800 C   0  0  0  0  0  0  0  0  0  0  0  0
  -22.5480   -4.2420   21.4320 F   0  0  0  0  0  0  0  0  0  0  0  0
  -21.3780   -3.8630   26.0450 F   0  0  0  0  0  0  0  0  0  0  0  0
  -22.8990  -13.5480   21.2370 C   0  0  0  0  0  0  0  0  0  0  0  0
  -22.2340  -12.8330   22.1380 N   0  0  0  0  0  0  0  0  0  0  0  0
  -22.4210  -14.5770   20.7640 O   0  0  0  0  0  0  0  0  0  0  0  0
  -22.6340  -12.0010   22.5440 H   0  0  0  0  0  0  0  0  0  0  0  0
  -21.3090  -13.1200   22.4240 H   0  0  0  0  0  0  0  0  0  0  0  0
  -25.4690  -15.2500   20.3070 N   0  0  0  0  0  0  0  0  0  0  0  0
  -24.7090  -15.8950   20.4940 H   0  0  0  0  0  0  0  0  0  0  0  0
  -26.3110  -15.7090   19.9840 H   0  0  0  0  0  0  0  0  0  0  0  0
  -31.4840  -23.8270   21.1080 C   0  0  0  0  0  2  0  0  0  0  0  0
  -31.0030  -25.2780   21.0110 C   0  0  0  0  0  2  0  0  0  0  0  0
  -30.0100  -23.4370   21.3050 C   0  0  0  0  0  3  0  0  0  0  0  0
  -29.6640  -24.7230   20.4960 C   0  0  0  0  0  3  0  0  0  0  0  0
  -28.3780  -25.5120   20.7540 C   0  0  0  0  0  2  0  0  0  0  0  0
  -28.4540  -26.7910   20.1100 O   0  0  0  0  0  0  0  0  0  0  0  0
  -24.5520  -31.8880   23.1830 C   0  0  0  0  0  0  0  0  0  0  0  0
  -27.2780  -27.5050   20.1050 C   0  0  0  0  0  0  0  0  0  0  0  0
  -23.3740  -30.4720   21.5300 C   0  0  0  0  0  3  0  0  0  0  0  0
  -24.8580  -28.9650   20.1040 C   0  0  0  0  0  0  0  0  0  0  0  0
  -25.8940  -30.8750   21.3440 C   0  0  0  0  0  2  0  0  0  0  0  0
  -26.0050  -29.5080   20.7010 C   0  0  0  0  0  0  0  0  0  0  0  0
  -27.2190  -28.7870   20.6930 C   0  0  0  0  0  3  0  0  0  0  0  0
  -26.1200  -26.9770   19.4940 C   0  0  0  0  0  3  0  0  0  0  0  0
  -24.9120  -27.7000   19.4930 C   0  0  0  0  0  3  0  0  0  0  0  0
  -23.5990  -29.8010   20.1490 C   0  0  0  0  0  2  0  0  0  0  0  0
  -24.6240  -31.0930   22.0770 N   0  0  0  0  0  0  0  0  0  0  0  0
  -23.4640  -32.1390   23.7210 O   0  0  0  0  0  0  0  0  0  0  0  0
  -22.7370  -29.4370   22.4840 C   0  0  0  0  0  0  0  0  0  0  0  0
  -21.4170  -29.2300   22.3440 N   0  0  0  0  0  0  0  0  0  0  0  0
  -23.4260  -28.8240   23.3030 O   0  0  0  0  0  0  0  0  0  0  0  0
  -20.9220  -29.7770   21.6530 H   0  0  0  0  0  0  0  0  0  0  0  0
  -18.0660  -27.9580   22.7940 C   0  0  0  0  0  0  0  0  0  0  0  0
  -20.6120  -28.2760   23.1070 C   0  0  0  0  0  3  0  0  0  0  0  0
  -20.7570  -26.8460   22.5370 C   0  0  0  0  0  2  0  0  0  0  0  0
  -19.6790  -26.4940   21.5060 C   0  0  0  0  0  2  0  0  0  0  0  0
  -18.2840  -26.6100   22.1270 C   0  0  0  0  0  2  0  0  0  0  0  0
  -19.1590  -28.7480   23.2400 C   0  0  0  0  0  0  0  0  0  0  0  0
  -18.9020  -30.0080   23.8210 C   0  0  0  0  0  3  0  0  0  0  0  0
  -17.5830  -30.4810   23.9590 C   0  0  0  0  0  3  0  0  0  0  0  0
  -16.5040  -29.6900   23.5300 C   0  0  0  0  0  3  0  0  0  0  0  0
  -16.7460  -28.4290   22.9560 C   0  0  0  0  0  3  0  0  0  0  0  0
  -25.8260  -32.5350   23.8100 C   0  0  0  0  0  3  0  0  0  0  0  0
  -25.4920  -33.9230   24.1530 N   0  0  0  0  0  0  0  0  0  0  0  0
  -25.8140  -34.9890   23.4070 C   0  0  0  0  0  0  0  0  0  0  0  0
  -26.4930  -34.9070   22.3790 O   0  0  0  0  0  0  0  0  0  0  0  0
  -24.8850  -34.0600   24.9480 H   0  0  0  0  0  0  0  0  0  0  0  0
  -24.0580  -36.7550   23.0580 C   0  0  0  0  0  1  0  0  0  0  0  0
  -25.3010  -36.3630   23.8750 C   0  0  0  0  0  3  0  0  0  0  0  0
  -27.4160  -37.2690   24.7290 C   0  0  0  0  0  1  0  0  0  0  0  0
  -26.3170  -37.4340   23.7830 N   0  0  0  0  0  0  0  0  0  0  0  0
  -25.8950  -38.3450   23.9440 H   0  0  0  0  0  0  0  0  0  0  0  0
  -26.3590  -31.7590   25.0770 C   0  0  1  0  0  0  0  0  0  0  0  0
  -25.2700  -31.4890   26.1420 C   0  0  0  0  0  1  0  0  0  0  0  0
  -26.9670  -30.3990   24.6670 C   0  0  0  0  0  1  0  0  0  0  0  0
  -27.4940  -32.5680   25.7460 C   0  0  0  0  0  1  0  0  0  0  0  0
  1  2  1  0
  2  4  1  0
  3  1  2  0
  5 20  1  0
  6 11  1  0
  7  8  1  0
  7  6  1  0
  9  8  1  0
  9 25  1  0
  9 10  1  0
 11  5  1  0
 11 10  1  0
 12  5  2  0
 13 17  1  0
 15 13  2  0
 15 16  1  0
 16 18  2  0
 17  2  1  0
 17 14  2  0
 18 14  1  0
 18 21  1  0
 19 15  1  0
 19 20  1  0
 20 16  1  0
 22 23  2  0
 23 42  1  0
 24 23  1  0
 24 27  1  0
 25 26  1  0
 25 22  1  0
 26 24  2  0
 27 28  1  0
 28 29  2  0
 30 33  1  0
 30 29  1  0
 31 30  2  0
 32 31  1  0
 32 27  2  0
 33 34  1  0
 34 35  1  0
 35 36  2  0
 37 36  1  0
 37 41  1  0
 38 37  2  0
 39 34  2  0
 39 38  1  0
 40 39  1  0
 42 43  1  0
 43 46  1  0
 43 45  1  0
 44 42  2  0
 47 22  1  0
 47 48  1  0
 49 47  1  0
 50 52  1  0
 51 50  1  0
 52  1  1  0
 53 54  1  0
 53 51  1  0
 53 52  1  0
 55 54  1  0
 56 67  2  0
 57 55  1  0
 57 62  1  0
 58 66  1  0
 58 68  1  0
 59 65  1  0
 59 61  1  0
 60 66  1  0
 61 60  1  0
 62 61  2  0
 63 57  2  0
 64 63  1  0
 64 59  2  0
 65 58  1  0
 66 56  1  0
 68 70  2  0
 69 68  1  0
 71 69  1  0
 72 81  2  0
 72 77  1  0
 73 69  1  0
 73 77  1  0
 74 73  1  0
 75 76  1  0
 75 74  1  0
 76 72  1  0
 77 78  2  0
 78 79  1  0
 80 79  2  0
 81 80  1  0
 82 56  1  0
 82 83  1  0
 82 92  1  0
 83 86  1  0
 84 88  1  0
 84 83  1  0
 85 84  2  0
 88 87  1  0
 90 88  1  0
 90 91  1  0
 90 89  1  0
 92 95  1  1
 92 93  1  0
 94 92  1  0
M  ISO  4   5 100  20 100  54 101  55 101
M  END
>  <TORSDO>  (13) 
F 18

>  <SCORE>  (13) 
-14.132

>  <name>  (13) 
12

>  <ligand_id>  (13) 
12

>  <original_smiles>  (13) 
[H]c1c([H])c([H])c2c(c1[H])C([H])([H])C([H])([H])C([H])([H])C2([H])N([H])C(=O)C1([H])N(C(=O)C([H])(N([H])C(=O)C([H])(N([H])C([H])([H])[H])C([H])([H])[H])C(C([H])([H])[H])(C([H])([H])[H])C([H])([H])[H])C([H])([H])c2c([H])c(OC([H])([H])C3([H])C([H])([H])C([H])([H])C3([H])C(=O)N([H])c3c([H])c(F)c4c(c3[H])C([H])([H])N4C(=O)N3C([H])([H])C([H])([H])C([H])([H])C([H])(n4nc(-c5c([H])c([H])c(Oc6c([H])c([H])c(F)c([H])c6F)c([H])c5[H])c(C(=O)N([H])[H])c4N([H])[H])C3([H])[H])c([H])c([H])c2C1([H])[H]

>  <smiles>  (13) 
[H]c1c([H])c([H])c2c(c1[H])C([H])([H])C([H])([H])C([H])([H])C2([H])N([H])C(=O)C1([H])N(C(=O)C([H])(N([H])C(=O)C([H])(N([H])C([H])([H])[H])C([H])([H])[H])C(C([H])([H])[H])(C([H])([H])[H])C([H])([H])[H])C([H])([H])c2c([H])c(OC([H])([H])C3([H])C([H])([H])C([H])([H])C3([H])C(=O)N([H])c3c([H])c(F)c4c(c3[H])C([H])([H])N4C(=O)N3C([H])([H])C([H])([H])C([H])([H])C([H])(n4nc(-c5c([H])c([H])c(Oc6c([H])c([H])c(F)c([H])c6F)c([H])c5[H])c(C(=O)N([H])[H])c4N([H])[H])C3([H])[H])c([H])c([H])c2C1([H])[H]

$$$$
13:0:0
     RDKit          3D

 93102  0  0  1  0  0  0  0  0999 V2000
  -30.2930  -23.7850   20.5760 C   0  0  0  0  0  3  0  0  0  0  0  0
  -29.0590  -23.8060   20.0630 C   0  0  0  0  0  0  0  0  0  0  0  0
  -30.7420  -22.4040   20.6940 C   0  0  0  0  0  0  0  0  0  0  0  0
  -28.6990  -22.3870   19.8550 C   0  0  0  0  0  0  0  0  0  0  0  0
  -29.7520  -21.6030   20.2360 N   0  0  0  0  0  0  0  0  0  0  0  0
  -31.8310  -22.0190   21.1380 O   0  0  0  0  0  0  0  0  0  0  0  0
  -27.6290  -21.9570   19.4070 O   0  0  0  0  0  0  0  0  0  0  0  0
  -29.2220  -19.3170   21.2080 C   0  0  0  0  0  3  0  0  0  0  0  0
  -30.5920  -19.3950   19.2450 C   0  0  0  0  0  3  0  0  0  0  0  0
  -29.4000  -17.8990   21.2580 C   0  0  0  0  0  3  0  0  0  0  0  0
  -30.7610  -17.9700   19.2940 C   0  0  0  0  0  3  0  0  0  0  0  0
  -29.8350  -20.1220   20.2130 C   0  0  0  0  0  0  0  0  0  0  0  0
  -30.2020  -17.1650   20.3300 C   0  0  0  0  0  0  0  0  0  0  0  0
  -30.8500  -14.7470   19.6160 C   0  0  0  0  0  0  0  0  0  0  0  0
  -30.4070  -12.5740   18.4450 C   0  0  0  0  0  2  0  0  0  0  0  0
  -29.2930  -12.7230   17.3840 C   0  0  0  0  0  2  0  0  0  0  0  0
  -27.9030  -12.5330   18.0190 C   0  0  0  0  0  2  0  0  0  0  0  0
  -27.7330  -13.3530   19.3230 C   0  0  0  0  0  3  0  0  0  0  0  0
  -28.9400  -13.1730   20.2650 C   0  0  0  0  0  2  0  0  0  0  0  0
  -30.1580  -13.5540   19.5280 N   0  0  0  0  0  0  0  0  0  0  0  0
  -31.8400  -14.9400   18.9010 O   0  0  0  0  0  0  0  0  0  0  0  0
  -30.7190  -15.3190   21.9290 C   0  0  0  0  0  1  0  0  0  0  0  0
  -30.4440  -15.7050   20.5340 N   0  0  0  0  0  0  0  0  0  0  0  0
  -25.5120  -13.9210   20.4790 C   0  0  0  0  0  0  0  0  0  0  0  0
  -24.4900  -13.1370   20.9420 C   0  0  0  0  0  0  0  0  0  0  0  0
  -24.8920  -11.7860   20.7070 C   0  0  0  0  0  0  0  0  0  0  0  0
  -26.4710  -13.0480   19.9920 N   0  0  0  0  0  0  0  0  0  0  0  0
  -26.1140  -11.7530   20.1890 N   0  0  0  0  0  0  0  0  0  0  0  0
  -24.1590  -10.5270   20.8930 C   0  0  0  0  0  0  0  0  0  0  0  0
  -24.6290   -9.5200   21.7650 C   0  0  0  0  0  3  0  0  0  0  0  0
  -23.8950   -8.3270   21.9410 C   0  0  0  0  0  3  0  0  0  0  0  0
  -22.6780   -8.1320   21.2450 C   0  0  0  0  0  0  0  0  0  0  0  0
  -22.2270   -9.1280   20.3600 C   0  0  0  0  0  3  0  0  0  0  0  0
  -22.9610  -10.3130   20.1820 C   0  0  0  0  0  3  0  0  0  0  0  0
  -21.9120   -6.9950   21.3330 O   0  0  0  0  0  0  0  0  0  0  0  0
  -21.8150   -6.2830   22.5010 C   0  0  0  0  0  0  0  0  0  0  0  0
  -21.3470   -6.8710   23.6970 C   0  0  0  0  0  3  0  0  0  0  0  0
  -21.1950   -6.0840   24.8550 C   0  0  0  0  0  3  0  0  0  0  0  0
  -21.5020   -4.7110   24.8200 C   0  0  0  0  0  0  0  0  0  0  0  0
  -21.9630   -4.1220   23.6290 C   0  0  0  0  0  3  0  0  0  0  0  0
  -22.1150   -4.9060   22.4720 C   0  0  0  0  0  0  0  0  0  0  0  0
  -22.5390   -4.3300   21.3220 F   0  0  0  0  0  0  0  0  0  0  0  0
  -21.3500   -3.9520   25.9310 F   0  0  0  0  0  0  0  0  0  0  0  0
  -23.1740  -13.6150   21.4830 C   0  0  0  0  0  0  0  0  0  0  0  0
  -22.5900  -12.8730   22.4170 N   0  0  0  0  0  0  0  0  0  0  0  0
  -22.6780  -14.6780   21.1110 O   0  0  0  0  0  0  0  0  0  0  0  0
  -23.0080  -12.0090   22.7330 H   0  0  0  0  0  0  0  0  0  0  0  0
  -21.7130  -13.1710   22.8210 H   0  0  0  0  0  0  0  0  0  0  0  0
  -25.6960  -15.2980   20.4100 N   0  0  0  0  0  0  0  0  0  0  0  0
  -24.9880  -15.9540   20.7220 H   0  0  0  0  0  0  0  0  0  0  0  0
  -26.5070  -15.7520   20.0100 H   0  0  0  0  0  0  0  0  0  0  0  0
  -28.1240  -25.0120   19.6760 C   0  0  0  0  0  2  0  0  0  0  0  0
  -28.3900  -26.4370   20.0480 O   0  0  0  0  0  0  0  0  0  0  0  0
  -24.5670  -31.7470   23.1620 C   0  0  0  0  0  0  0  0  0  0  0  0
  -27.2760  -27.3100   19.9920 C   0  0  0  0  0  0  0  0  0  0  0  0
  -23.3920  -30.3600   21.4960 C   0  0  0  0  0  3  0  0  0  0  0  0
  -24.8750  -28.8860   20.0240 C   0  0  0  0  0  0  0  0  0  0  0  0
  -25.9230  -30.7420   21.3100 C   0  0  0  0  0  2  0  0  0  0  0  0
  -26.0350  -29.3780   20.6350 C   0  0  0  0  0  0  0  0  0  0  0  0
  -27.2370  -28.6010   20.6160 C   0  0  0  0  0  3  0  0  0  0  0  0
  -26.0890  -26.8990   19.3350 C   0  0  0  0  0  3  0  0  0  0  0  0
  -24.9050  -27.6520   19.3620 C   0  0  0  0  0  3  0  0  0  0  0  0
  -23.6170  -29.7260   20.0980 C   0  0  0  0  0  2  0  0  0  0  0  0
  -24.6460  -30.9650   22.0460 N   0  0  0  0  0  0  0  0  0  0  0  0
  -23.4800  -31.9850   23.7090 O   0  0  0  0  0  0  0  0  0  0  0  0
  -22.7580  -29.3030   22.4330 C   0  0  0  0  0  0  0  0  0  0  0  0
  -21.4360  -29.1010   22.3120 N   0  0  0  0  0  0  0  0  0  0  0  0
  -23.4570  -28.6720   23.2320 O   0  0  0  0  0  0  0  0  0  0  0  0
  -20.9300  -29.6680   21.6460 H   0  0  0  0  0  0  0  0  0  0  0  0
  -18.0840  -27.8370   22.8270 C   0  0  0  0  0  0  0  0  0  0  0  0
  -20.6430  -28.1250   23.0650 C   0  0  0  0  0  3  0  0  0  0  0  0
  -20.7550  -26.7150   22.4440 C   0  0  0  0  0  2  0  0  0  0  0  0
  -19.6430  -26.4070   21.4380 C   0  0  0  0  0  2  0  0  0  0  0  0
  -18.2690  -26.5110   22.1070 C   0  0  0  0  0  2  0  0  0  0  0  0
  -19.1990  -28.6020   23.2630 C   0  0  0  0  0  0  0  0  0  0  0  0
  -18.9710  -29.8420   23.8960 C   0  0  0  0  0  3  0  0  0  0  0  0
  -17.6610  -30.3180   24.0990 C   0  0  0  0  0  3  0  0  0  0  0  0
  -16.5620  -29.5500   23.6780 C   0  0  0  0  0  3  0  0  0  0  0  0
  -16.7750  -28.3110   23.0490 C   0  0  0  0  0  3  0  0  0  0  0  0
  -25.8360  -32.3990   23.7930 C   0  0  0  0  0  3  0  0  0  0  0  0
  -25.5050  -33.7920   24.1240 N   0  0  0  0  0  0  0  0  0  0  0  0
  -25.8030  -34.8490   23.3560 C   0  0  0  0  0  0  0  0  0  0  0  0
  -26.4560  -34.7540   22.3130 O   0  0  0  0  0  0  0  0  0  0  0  0
  -24.9280  -33.9380   24.9380 H   0  0  0  0  0  0  0  0  0  0  0  0
  -24.0280  -36.6010   23.0340 C   0  0  0  0  0  1  0  0  0  0  0  0
  -25.2970  -36.2290   23.8180 C   0  0  0  0  0  3  0  0  0  0  0  0
  -27.4290  -37.1680   24.5930 C   0  0  0  0  0  1  0  0  0  0  0  0
  -26.3010  -37.3040   23.6730 N   0  0  0  0  0  0  0  0  0  0  0  0
  -25.8780  -38.2160   23.8240 H   0  0  0  0  0  0  0  0  0  0  0  0
  -26.3540  -31.6330   25.0720 C   0  0  1  0  0  0  0  0  0  0  0  0
  -25.2590  -31.3800   26.1320 C   0  0  0  0  0  1  0  0  0  0  0  0
  -26.9610  -30.2650   24.6800 C   0  0  0  0  0  1  0  0  0  0  0  0
  -27.4890  -32.4430   25.7440 C   0  0  0  0  0  1  0  0  0  0  0  0
  1  3  1  0
  2  1  2  0
  3  6  2  0
  4  2  1  0
  4  5  1  0
  5  3  1  0
  7  4  2  0
  8 10  1  0
  9 11  2  0
  9 12  1  0
 11 13  1  0
 12  5  1  0
 12  8  2  0
 13 23  1  0
 13 10  2  0
 14 23  1  0
 15 20  1  0
 16 17  1  0
 16 15  1  0
 18 17  1  0
 18 27  1  0
 18 19  1  0
 20 14  1  0
 20 19  1  0
 21 14  2  0
 23 22  1  0
 24 25  2  0
 25 44  1  0
 26 29  1  0
 26 25  1  0
 27 28  1  0
 27 24  1  0
 28 26  2  0
 29 30  1  0
 30 31  2  0
 32 35  1  0
 32 31  1  0
 33 32  2  0
 34 33  1  0
 34 29  2  0
 35 36  1  0
 36 37  1  0
 37 38  2  0
 39 38  1  0
 39 43  1  0
 40 39  2  0
 41 36  2  0
 41 40  1  0
 42 41  1  0
 44 45  1  0
 45 47  1  0
 45 48  1  0
 46 44  2  0
 49 24  1  0
 49 50  1  0
 51 49  1  0
 52 53  1  0
 52  2  1  0
 54 65  2  0
 55 53  1  0
 55 60  1  0
 56 64  1  0
 56 66  1  0
 57 63  1  0
 57 59  1  0
 58 64  1  0
 59 58  1  0
 60 59  2  0
 61 62  1  0
 61 55  2  0
 62 57  2  0
 63 56  1  0
 64 54  1  0
 66 68  2  0
 67 66  1  0
 69 67  1  0
 70 79  2  0
 70 75  1  0
 71 67  1  0
 71 75  1  0
 72 71  1  0
 73 74  1  0
 73 72  1  0
 74 70  1  0
 75 76  2  0
 76 77  1  0
 78 77  2  0
 79 78  1  0
 80 54  1  0
 80 81  1  0
 80 90  1  0
 81 84  1  0
 82 86  1  0
 82 81  1  0
 83 82  2  0
 86 85  1  0
 88 86  1  0
 88 89  1  0
 88 87  1  0
 90 93  1  1
 90 91  1  0
 92 90  1  0
M  ISO  4  14 100  23 100  52 101  53 101
M  END
>  <TORSDO>  (14) 
F 18

>  <SCORE>  (14) 
-12.883

>  <name>  (14) 
13

>  <ligand_id>  (14) 
13

>  <original_smiles>  (14) 
[H]C1=C(C([H])([H])Oc2c([H])c([H])c3c(c2[H])C([H])([H])N(C(=O)C([H])(N([H])C(=O)C([H])(N([H])C([H])([H])[H])C([H])([H])[H])C(C([H])([H])[H])(C([H])([H])[H])C([H])([H])[H])C([H])(C(=O)N([H])C2([H])c4c([H])c([H])c([H])c([H])c4C([H])([H])C([H])([H])C2([H])[H])C3([H])[H])C(=O)N(c2c([H])c([H])c(N(C(=O)N3C([H])([H])C([H])([H])C([H])([H])C([H])(n4nc(-c5c([H])c([H])c(Oc6c([H])c([H])c(F)c([H])c6F)c([H])c5[H])c(C(=O)N([H])[H])c4N([H])[H])C3([H])[H])C([H])([H])[H])c([H])c2[H])C1=O

>  <smiles>  (14) 
[H]C1=C(C([H])([H])Oc2c([H])c([H])c3c(c2[H])C([H])([H])N(C(=O)C([H])(N([H])C(=O)C([H])(N([H])C([H])([H])[H])C([H])([H])[H])C(C([H])([H])[H])(C([H])([H])[H])C([H])([H])[H])C([H])(C(=O)N([H])C2([H])c4c([H])c([H])c([H])c([H])c4C([H])([H])C([H])([H])C2([H])[H])C3([H])[H])C(=O)N(c2c([H])c([H])c(N(C(=O)N3C([H])([H])C([H])([H])C([H])([H])C([H])(n4nc(-c5c([H])c([H])c(Oc6c([H])c([H])c(F)c([H])c6F)c([H])c5[H])c(C(=O)N([H])[H])c4N([H])[H])C3([H])[H])C([H])([H])[H])c([H])c2[H])C1=O

$$$$
14:0:0
     RDKit          3D

 93101  0  0  1  0  0  0  0  0999 V2000
  -29.8860  -21.6550   19.8420 C   0  0  0  0  0  0  0  0  0  0  0  0
  -30.8080  -22.0030   18.9930 N   0  0  0  0  0  4  0  0  0  0  0  0
  -31.4160  -21.3180   18.5470 H   0  0  0  0  0  0  0  0  0  0  0  0
  -30.9700  -22.9550   18.6830 H   0  0  0  0  0  0  0  0  0  0  0  0
  -31.0730  -19.3570   20.0860 C   0  0  0  0  0  3  0  0  0  0  0  0
  -31.0960  -17.9340   20.2220 C   0  0  0  0  0  3  0  0  0  0  0  0
  -28.6870  -19.3830   20.3350 C   0  0  0  0  0  3  0  0  0  0  0  0
  -29.8710  -20.1290   20.1140 C   0  0  0  0  0  0  0  0  0  0  0  0
  -29.9030  -17.1910   20.4050 C   0  0  0  0  0  0  0  0  0  0  0  0
  -28.7050  -17.9590   20.4720 C   0  0  0  0  0  0  0  0  0  0  0  0
  -27.5350  -17.2990   20.6530 F   0  0  0  0  0  0  0  0  0  0  0  0
  -30.5960  -14.6860   20.1360 C   0  0  0  0  0  0  0  0  0  0  0  0
  -30.3430  -12.4770   19.0190 C   0  0  0  0  0  2  0  0  0  0  0  0
  -29.3500  -12.6410   17.8460 C   0  0  0  0  0  2  0  0  0  0  0  0
  -27.8950  -12.4720   18.3290 C   0  0  0  0  0  2  0  0  0  0  0  0
  -27.5900  -13.2970   19.6070 C   0  0  0  0  0  3  0  0  0  0  0  0
  -28.6920  -13.1060   20.6730 C   0  0  0  0  0  2  0  0  0  0  0  0
  -29.9780  -13.4640   20.0540 N   0  0  0  0  0  0  0  0  0  0  0  0
  -31.7450  -14.8480   19.7130 O   0  0  0  0  0  0  0  0  0  0  0  0
  -29.8060  -15.7320   20.5430 N   0  0  0  0  0  0  0  0  0  0  0  0
  -28.9000  -15.4270   20.8650 H   0  0  0  0  0  0  0  0  0  0  0  0
  -25.2190  -13.8800   20.4080 C   0  0  0  0  0  0  0  0  0  0  0  0
  -24.1670  -13.0980   20.8050 C   0  0  0  0  0  0  0  0  0  0  0  0
  -24.6350  -11.7500   20.7520 C   0  0  0  0  0  0  0  0  0  0  0  0
  -26.2600  -13.0060   20.1360 N   0  0  0  0  0  0  0  0  0  0  0  0
  -25.9160  -11.7200   20.4020 N   0  0  0  0  0  0  0  0  0  0  0  0
  -23.9220  -10.4830   20.9600 C   0  0  0  0  0  0  0  0  0  0  0  0
  -24.3760   -9.5230   21.8910 C   0  0  0  0  0  3  0  0  0  0  0  0
  -23.6610   -8.3210   22.0850 C   0  0  0  0  0  3  0  0  0  0  0  0
  -22.4790   -8.0710   21.3470 C   0  0  0  0  0  0  0  0  0  0  0  0
  -22.0450   -9.0200   20.4050 C   0  0  0  0  0  3  0  0  0  0  0  0
  -22.7600  -10.2140   20.2090 C   0  0  0  0  0  3  0  0  0  0  0  0
  -21.7350   -6.9210   21.4510 O   0  0  0  0  0  0  0  0  0  0  0  0
  -21.6920   -6.1930   22.6130 C   0  0  0  0  0  0  0  0  0  0  0  0
  -21.2460   -6.7560   23.8290 C   0  0  0  0  0  3  0  0  0  0  0  0
  -21.1530   -5.9530   24.9830 C   0  0  0  0  0  3  0  0  0  0  0  0
  -21.4960   -4.5880   24.9230 C   0  0  0  0  0  0  0  0  0  0  0  0
  -21.9350   -4.0250   23.7110 C   0  0  0  0  0  3  0  0  0  0  0  0
  -22.0300   -4.8250   22.5590 C   0  0  0  0  0  0  0  0  0  0  0  0
  -22.4340   -4.2740   21.3900 F   0  0  0  0  0  0  0  0  0  0  0  0
  -21.3990   -3.8150   26.0300 F   0  0  0  0  0  0  0  0  0  0  0  0
  -22.7780  -13.5680   21.1280 C   0  0  0  0  0  0  0  0  0  0  0  0
  -22.0820  -12.8610   22.0110 N   0  0  0  0  0  0  0  0  0  0  0  0
  -22.3200  -14.5960   20.6320 O   0  0  0  0  0  0  0  0  0  0  0  0
  -22.4660  -12.0290   22.4340 H   0  0  0  0  0  0  0  0  0  0  0  0
  -21.1510  -13.1570   22.2700 H   0  0  0  0  0  0  0  0  0  0  0  0
  -25.3670  -15.2530   20.2400 N   0  0  0  0  0  0  0  0  0  0  0  0
  -24.6050  -15.8970   20.4160 H   0  0  0  0  0  0  0  0  0  0  0  0
  -26.2250  -15.7270   19.9870 H   0  0  0  0  0  0  0  0  0  0  0  0
  -29.0880  -23.9500   20.0830 C   0  0  0  0  0  3  0  0  0  0  0  0
  -29.0400  -22.6560   20.3490 N   0  0  0  0  0  0  0  0  0  0  0  0
  -28.1380  -25.0790   20.6400 C   0  0  0  0  0  2  0  0  0  0  0  0
  -28.3650  -26.4870   20.2090 O   0  0  0  0  0  0  0  0  0  0  0  0
  -24.6080  -31.8790   23.2280 C   0  0  0  0  0  0  0  0  0  0  0  0
  -27.2490  -27.3370   20.1820 C   0  0  0  0  0  0  0  0  0  0  0  0
  -23.4160  -30.4790   21.5800 C   0  0  0  0  0  3  0  0  0  0  0  0
  -24.8790  -28.9360   20.1580 C   0  0  0  0  0  0  0  0  0  0  0  0
  -25.9540  -30.8090   21.4070 C   0  0  0  0  0  2  0  0  0  0  0  0
  -26.0430  -29.4320   20.7610 C   0  0  0  0  0  0  0  0  0  0  0  0
  -27.2320  -28.6440   20.7620 C   0  0  0  0  0  3  0  0  0  0  0  0
  -26.0670  -26.9010   19.5440 C   0  0  0  0  0  3  0  0  0  0  0  0
  -24.8930  -27.6770   19.5400 C   0  0  0  0  0  3  0  0  0  0  0  0
  -23.6380  -29.8060   20.1990 C   0  0  0  0  0  2  0  0  0  0  0  0
  -24.6780  -31.0730   22.1280 N   0  0  0  0  0  0  0  0  0  0  0  0
  -23.5220  -32.1520   23.7590 O   0  0  0  0  0  0  0  0  0  0  0  0
  -22.7520  -29.4590   22.5360 C   0  0  0  0  0  0  0  0  0  0  0  0
  -21.4250  -29.2880   22.4110 N   0  0  0  0  0  0  0  0  0  0  0  0
  -23.4300  -28.8250   23.3480 O   0  0  0  0  0  0  0  0  0  0  0  0
  -20.9380  -29.8520   21.7280 H   0  0  0  0  0  0  0  0  0  0  0  0
  -18.0410  -28.1220   22.9270 C   0  0  0  0  0  0  0  0  0  0  0  0
  -20.6040  -28.3510   23.1770 C   0  0  0  0  0  3  0  0  0  0  0  0
  -20.6840  -26.9250   22.5840 C   0  0  0  0  0  2  0  0  0  0  0  0
  -19.5700  -26.6270   21.5760 C   0  0  0  0  0  2  0  0  0  0  0  0
  -18.1960  -26.7790   22.2340 C   0  0  0  0  0  2  0  0  0  0  0  0
  -19.1710  -28.8670   23.3560 C   0  0  0  0  0  0  0  0  0  0  0  0
  -18.9700  -30.1250   23.9640 C   0  0  0  0  0  3  0  0  0  0  0  0
  -17.6720  -30.6380   24.1480 C   0  0  0  0  0  3  0  0  0  0  0  0
  -16.5560  -29.8900   23.7360 C   0  0  0  0  0  3  0  0  0  0  0  0
  -16.7410  -28.6340   23.1310 C   0  0  0  0  0  3  0  0  0  0  0  0
  -25.8870  -32.5140   23.8560 C   0  0  0  0  0  3  0  0  0  0  0  0
  -26.3930  -31.7480   25.1400 C   0  0  1  0  0  0  0  0  0  0  0  0
  -25.2920  -31.5120   26.2000 C   0  0  0  0  0  1  0  0  0  0  0  0
  -26.9810  -30.3690   24.7580 C   0  0  0  0  0  1  0  0  0  0  0  0
  -27.5370  -32.5450   25.8080 C   0  0  0  0  0  1  0  0  0  0  0  0
  -25.5750  -33.9140   24.1800 N   0  0  0  0  0  0  0  0  0  0  0  0
  -25.9120  -34.9640   23.4200 C   0  0  0  0  0  0  0  0  0  0  0  0
  -26.5890  -34.8570   22.3940 O   0  0  0  0  0  0  0  0  0  0  0  0
  -24.9750  -34.0700   24.9760 H   0  0  0  0  0  0  0  0  0  0  0  0
  -24.1910  -36.7590   23.0450 C   0  0  0  0  0  1  0  0  0  0  0  0
  -25.4230  -36.3540   23.8710 C   0  0  0  0  0  3  0  0  0  0  0  0
  -27.5480  -37.2380   24.7260 C   0  0  0  0  0  1  0  0  0  0  0  0
  -26.4580  -37.4050   23.7670 N   0  0  0  0  0  0  0  0  0  0  0  0
  -26.0510  -38.3260   23.9060 H   0  0  0  0  0  0  0  0  0  0  0  0
  1  8  1  0
  1 51  1  0
  2  1  2  0
  3  2  1  0
  4  2  1  0
  5  8  2  0
  5  6  1  0
  6  9  2  0
  7 10  2  0
  8  7  1  0
  9 10  1  0
  9 20  1  0
 10 11  1  0
 12 20  1  0
 13 18  1  0
 14 15  1  0
 14 13  1  0
 16 15  1  0
 16 25  1  0
 16 17  1  0
 18 12  1  0
 18 17  1  0
 19 12  2  0
 20 21  1  0
 22 23  2  0
 23 42  1  0
 24 23  1  0
 24 27  1  0
 25 26  1  0
 25 22  1  0
 26 24  2  0
 27 28  1  0
 28 29  2  0
 30 33  1  0
 30 29  1  0
 31 30  2  0
 32 31  1  0
 32 27  2  0
 33 34  1  0
 34 35  1  0
 35 36  2  0
 37 36  1  0
 37 41  1  0
 38 37  2  0
 39 34  2  0
 39 38  1  0
 40 39  1  0
 42 43  1  0
 43 46  1  0
 43 45  1  0
 44 42  2  0
 47 22  1  0
 47 48  1  0
 49 47  1  0
 50 51  2  0
 50 52  1  0
 53 52  1  0
 54 65  2  0
 55 53  1  0
 55 60  1  0
 56 64  1  0
 56 66  1  0
 57 63  1  0
 57 59  1  0
 58 64  1  0
 59 60  2  0
 59 58  1  0
 61 55  2  0
 62 61  1  0
 62 57  2  0
 63 56  1  0
 64 54  1  0
 66 68  2  0
 67 66  1  0
 69 67  1  0
 70 79  2  0
 70 75  1  0
 71 67  1  0
 71 75  1  0
 72 71  1  0
 73 74  1  0
 73 72  1  0
 74 70  1  0
 75 76  2  0
 76 77  1  0
 78 77  2  0
 79 78  1  0
 80 54  1  0
 80 85  1  0
 80 81  1  0
 81 84  1  1
 81 82  1  0
 83 81  1  0
 85 88  1  0
 86 90  1  0
 86 85  1  0
 87 86  2  0
 90 89  1  0
 92 90  1  0
 92 93  1  0
 92 91  1  0
M  ISO  4  12 100  20 100  52 101  53 101
M  END
>  <TORSDO>  (15) 
F 19

>  <SCORE>  (15) 
-14.393

>  <name>  (15) 
14

>  <ligand_id>  (15) 
14

>  <original_smiles>  (15) 
[H]C(=NC(c1c([H])c([H])c(N([H])C(=O)N2C([H])([H])C([H])([H])C([H])([H])C([H])(n3nc(-c4c([H])c([H])c(Oc5c([H])c([H])c(F)c([H])c5F)c([H])c4[H])c(C(=O)N([H])[H])c3N([H])[H])C2([H])[H])c(F)c1[H])=[N+]([H])[H])C([H])([H])Oc1c([H])c([H])c2c(c1[H])C([H])([H])N(C(=O)C([H])(N([H])C(=O)C([H])(N([H])C([H])([H])[H])C([H])([H])[H])C(C([H])([H])[H])(C([H])([H])[H])C([H])([H])[H])C([H])(C(=O)N([H])C1([H])c3c([H])c([H])c([H])c([H])c3C([H])([H])C([H])([H])C1([H])[H])C2([H])[H]

>  <smiles>  (15) 
[H]C(=NC(c1c([H])c([H])c(N([H])C(=O)N2C([H])([H])C([H])([H])C([H])([H])C([H])(n3nc(-c4c([H])c([H])c(Oc5c([H])c([H])c(F)c([H])c5F)c([H])c4[H])c(C(=O)N([H])[H])c3N([H])[H])C2([H])[H])c(F)c1[H])=[N+]([H])[H])C([H])([H])Oc1c([H])c([H])c2c(c1[H])C([H])([H])N(C(=O)C([H])(N([H])C(=O)C([H])(N([H])C([H])([H])[H])C([H])([H])[H])C(C([H])([H])[H])(C([H])([H])[H])C([H])([H])[H])C([H])(C(=O)N([H])C1([H])c3c([H])c([H])c([H])c([H])c3C([H])([H])C([H])([H])C1([H])[H])C2([H])[H]

$$$$
15:0:0
     RDKit          3D

 98107  0  0  1  0  0  0  0  0999 V2000
  -30.6210  -19.1050   18.5580 C   0  0  0  0  0  3  0  0  0  0  0  0
  -30.9640  -20.2120   19.3560 C   0  0  0  0  0  3  0  0  0  0  0  0
  -30.8450  -18.7990   21.3440 C   0  0  0  0  0  3  0  0  0  0  0  0
  -30.4780  -17.6710   20.5530 C   0  0  0  0  0  0  0  0  0  0  0  0
  -30.2240  -17.9090   19.1790 C   0  0  0  0  0  0  0  0  0  0  0  0
  -30.9250  -20.0970   20.7620 C   0  0  0  0  0  0  0  0  0  0  0  0
  -29.8670  -16.4760   21.2250 C   0  0  0  0  0  3  0  0  0  0  0  0
  -27.9930  -17.0440   18.9710 C   0  0  0  0  0  0  0  0  0  0  0  0
  -28.4050  -16.7890   21.5360 C   0  0  0  0  0  2  0  0  0  0  0  0
  -27.6770  -17.5770   20.4000 C   0  0  0  0  0  2  0  0  0  0  0  0
  -30.2200  -15.2480   21.3770 N   0  0  0  0  0  2  0  0  0  0  0  0
  -29.2500  -17.1400   18.5020 N   0  0  0  0  0  0  0  0  0  0  0  0
  -27.0910  -16.5690   18.2830 O   0  0  0  0  0  0  0  0  0  0  0  0
  -29.4200  -16.8730   17.5420 H   0  0  0  0  0  0  0  0  0  0  0  0
  -30.8510  -14.4900   20.3880 C   0  0  0  0  0  0  0  0  0  0  0  0
  -30.5140  -12.4510   18.9910 C   0  0  0  0  0  2  0  0  0  0  0  0
  -29.4990  -12.6840   17.8520 C   0  0  0  0  0  2  0  0  0  0  0  0
  -28.0430  -12.5150   18.3350 C   0  0  0  0  0  2  0  0  0  0  0  0
  -27.7650  -13.2670   19.6620 C   0  0  0  0  0  3  0  0  0  0  0  0
  -28.8610  -12.9520   20.7010 C   0  0  0  0  0  2  0  0  0  0  0  0
  -30.1670  -13.3370   20.1130 N   0  0  0  0  0  0  0  0  0  0  0  0
  -31.8670  -14.8010   19.7610 O   0  0  0  0  0  0  0  0  0  0  0  0
  -25.3760  -13.8840   20.4220 C   0  0  0  0  0  0  0  0  0  0  0  0
  -24.3210  -13.1250   20.8290 C   0  0  0  0  0  0  0  0  0  0  0  0
  -24.7750  -11.7750   20.7680 C   0  0  0  0  0  0  0  0  0  0  0  0
  -26.4180  -13.0050   20.1650 N   0  0  0  0  0  0  0  0  0  0  0  0
  -26.0540  -11.7260   20.4250 N   0  0  0  0  0  0  0  0  0  0  0  0
  -24.0440  -10.5230   20.9700 C   0  0  0  0  0  0  0  0  0  0  0  0
  -24.4850   -9.5610   21.9020 C   0  0  0  0  0  3  0  0  0  0  0  0
  -23.7550   -8.3700   22.0950 C   0  0  0  0  0  3  0  0  0  0  0  0
  -22.5720   -8.1360   21.3520 C   0  0  0  0  0  0  0  0  0  0  0  0
  -22.1510   -9.0900   20.4090 C   0  0  0  0  0  3  0  0  0  0  0  0
  -22.8810  -10.2720   20.2150 C   0  0  0  0  0  3  0  0  0  0  0  0
  -21.8080   -6.9990   21.4550 O   0  0  0  0  0  0  0  0  0  0  0  0
  -21.7430   -6.2820   22.6210 C   0  0  0  0  0  0  0  0  0  0  0  0
  -21.2950   -6.8590   23.8300 C   0  0  0  0  0  3  0  0  0  0  0  0
  -21.1780   -6.0630   24.9870 C   0  0  0  0  0  3  0  0  0  0  0  0
  -21.4990   -4.6940   24.9340 C   0  0  0  0  0  0  0  0  0  0  0  0
  -21.9380   -4.1170   23.7300 C   0  0  0  0  0  3  0  0  0  0  0  0
  -22.0590   -4.9090   22.5760 C   0  0  0  0  0  0  0  0  0  0  0  0
  -22.4640   -4.3450   21.4130 F   0  0  0  0  0  0  0  0  0  0  0  0
  -21.3780   -3.9280   26.0440 F   0  0  0  0  0  0  0  0  0  0  0  0
  -22.9380  -13.6140   21.1510 C   0  0  0  0  0  0  0  0  0  0  0  0
  -22.2400  -12.9230   22.0420 N   0  0  0  0  0  0  0  0  0  0  0  0
  -22.4890  -14.6410   20.6420 O   0  0  0  0  0  0  0  0  0  0  0  0
  -22.6180  -12.0880   22.4640 H   0  0  0  0  0  0  0  0  0  0  0  0
  -21.3070  -13.2240   22.2950 H   0  0  0  0  0  0  0  0  0  0  0  0
  -25.5000  -15.2450   20.2280 N   0  0  0  0  0  0  0  0  0  0  0  0
  -24.6410  -15.7840   20.2370 H   0  0  0  0  0  0  0  0  0  0  0  0
  -26.1660  -15.5930   19.5430 H   0  0  0  0  0  0  0  0  0  0  0  0
  -29.9400  -22.2790   21.3980 C   0  0  0  0  0  0  0  0  0  0  0  0
  -30.8520  -21.2860   21.5600 N   0  0  0  0  0  0  0  0  0  0  0  0
  -29.0160  -22.2070   20.5870 O   0  0  0  0  0  0  0  0  0  0  0  0
  -31.4700  -21.3650   22.3580 H   0  0  0  0  0  0  0  0  0  0  0  0
  -30.0490  -23.5280   22.2870 C   0  0  0  0  0  2  0  0  0  0  0  0
  -30.0000  -24.8910   21.5280 C   0  0  0  0  0  2  0  0  0  0  0  0
  -28.6250  -25.3560   20.9810 C   0  0  0  0  0  2  0  0  0  0  0  0
  -28.7250  -26.6570   20.3700 O   0  0  0  0  0  0  0  0  0  0  0  0
  -24.5610  -31.6870   23.1540 C   0  0  0  0  0  0  0  0  0  0  0  0
  -27.5290  -27.3380   20.2600 C   0  0  0  0  0  0  0  0  0  0  0  0
  -23.4840  -30.2130   21.4780 C   0  0  0  0  0  3  0  0  0  0  0  0
  -25.0680  -28.7210   20.1300 C   0  0  0  0  0  0  0  0  0  0  0  0
  -25.9920  -30.6820   21.3770 C   0  0  0  0  0  2  0  0  0  0  0  0
  -26.1660  -29.3080   20.7660 C   0  0  0  0  0  0  0  0  0  0  0  0
  -27.4010  -28.6210   20.8340 C   0  0  0  0  0  3  0  0  0  0  0  0
  -26.4220  -26.7740   19.5880 C   0  0  0  0  0  3  0  0  0  0  0  0
  -25.1900  -27.4560   19.5240 C   0  0  0  0  0  3  0  0  0  0  0  0
  -23.7770  -29.5130   20.1220 C   0  0  0  0  0  2  0  0  0  0  0  0
  -24.6940  -30.8750   22.0640 N   0  0  0  0  0  0  0  0  0  0  0  0
  -23.4480  -31.9210   23.6440 O   0  0  0  0  0  0  0  0  0  0  0  0
  -22.8350  -29.1840   22.4270 C   0  0  0  0  0  0  0  0  0  0  0  0
  -21.5260  -28.9560   22.2520 N   0  0  0  0  0  0  0  0  0  0  0  0
  -23.5110  -28.5950   23.2760 O   0  0  0  0  0  0  0  0  0  0  0  0
  -21.0440  -29.4920   21.5420 H   0  0  0  0  0  0  0  0  0  0  0  0
  -18.1780  -27.6580   22.6460 C   0  0  0  0  0  0  0  0  0  0  0  0
  -20.7140  -27.9910   22.9930 C   0  0  0  0  0  3  0  0  0  0  0  0
  -20.8760  -26.5650   22.4180 C   0  0  0  0  0  2  0  0  0  0  0  0
  -19.8180  -26.2110   21.3690 C   0  0  0  0  0  2  0  0  0  0  0  0
  -18.4140  -26.3140   21.9730 C   0  0  0  0  0  2  0  0  0  0  0  0
  -19.2580  -28.4530   23.1100 C   0  0  0  0  0  0  0  0  0  0  0  0
  -18.9840  -29.7070   23.6980 C   0  0  0  0  0  3  0  0  0  0  0  0
  -17.6610  -30.1720   23.8160 C   0  0  0  0  0  3  0  0  0  0  0  0
  -16.5930  -29.3750   23.3670 C   0  0  0  0  0  3  0  0  0  0  0  0
  -16.8530  -28.1150   22.7970 C   0  0  0  0  0  3  0  0  0  0  0  0
  -25.7930  -32.3720   23.8260 C   0  0  0  0  0  3  0  0  0  0  0  0
  -26.3000  -31.6250   25.1210 C   0  0  1  0  0  0  0  0  0  0  0  0
  -25.1800  -31.3340   26.1480 C   0  0  0  0  0  1  0  0  0  0  0  0
  -26.9560  -30.2770   24.7410 C   0  0  0  0  0  1  0  0  0  0  0  0
  -27.3910  -32.4690   25.8220 C   0  0  0  0  0  1  0  0  0  0  0  0
  -25.4110  -33.7560   24.1430 N   0  0  0  0  0  0  0  0  0  0  0  0
  -25.7260  -34.8220   23.3910 C   0  0  0  0  0  0  0  0  0  0  0  0
  -26.4350  -34.7450   22.3850 O   0  0  0  0  0  0  0  0  0  0  0  0
  -24.7740  -33.8840   24.9180 H   0  0  0  0  0  0  0  0  0  0  0  0
  -23.9230  -36.5240   22.9820 C   0  0  0  0  0  1  0  0  0  0  0  0
  -25.1620  -36.1900   23.8270 C   0  0  0  0  0  3  0  0  0  0  0  0
  -27.2310  -37.1740   24.7020 C   0  0  0  0  0  1  0  0  0  0  0  0
  -26.1480  -37.2860   23.7300 N   0  0  0  0  0  0  0  0  0  0  0  0
  -25.6990  -38.1890   23.8570 H   0  0  0  0  0  0  0  0  0  0  0  0
  1  5  2  0
  1  2  1  0
  2  6  2  0
  4  7  1  0
  4  3  2  0
  5  4  1  0
  6  3  1  0
  6 52  1  0
  7 11  1  0
  7  9  1  0
  8 10  1  0
 10  9  1  0
 12  8  1  0
 12  5  1  0
 13  8  2  0
 14 12  1  0
 15 11  1  0
 16 21  1  0
 17 18  1  0
 17 16  1  0
 19 18  1  0
 19 26  1  0
 19 20  1  0
 21 15  1  0
 21 20  1  0
 22 15  2  0
 23 24  2  0
 24 43  1  0
 25 24  1  0
 25 28  1  0
 26 23  1  0
 26 27  1  0
 27 25  2  0
 28 29  1  0
 29 30  2  0
 31 34  1  0
 31 30  1  0
 32 31  2  0
 33 32  1  0
 33 28  2  0
 34 35  1  0
 35 36  1  0
 36 37  2  0
 38 37  1  0
 38 42  1  0
 39 38  2  0
 40 35  2  0
 40 39  1  0
 41 40  1  0
 43 44  1  0
 44 47  1  0
 44 46  1  0
 45 43  2  0
 48 49  1  0
 48 23  1  0
 50 48  1  0
 51 52  1  0
 51 55  1  0
 52 54  1  0
 53 51  2  0
 56 55  1  0
 57 56  1  0
 58 57  1  0
 59 70  2  0
 60 58  1  0
 60 65  1  0
 61 69  1  0
 61 71  1  0
 62 64  1  0
 63 69  1  0
 64 65  2  0
 64 63  1  0
 66 60  2  0
 67 66  1  0
 67 62  2  0
 68 62  1  0
 68 61  1  0
 69 59  1  0
 71 73  2  0
 72 71  1  0
 74 72  1  0
 75 84  2  0
 75 80  1  0
 76 72  1  0
 76 80  1  0
 77 76  1  0
 78 79  1  0
 78 77  1  0
 79 75  1  0
 80 81  2  0
 81 82  1  0
 83 82  2  0
 84 83  1  0
 85 59  1  0
 85 90  1  0
 85 86  1  0
 86 89  1  1
 86 87  1  0
 88 86  1  0
 90 93  1  0
 91 95  1  0
 91 90  1  0
 92 91  2  0
 95 94  1  0
 97 95  1  0
 97 98  1  0
 97 96  1  0
M  ISO  4  11 100  15 100  57 101  58 101
M  END
>  <TORSDO>  (16) 
F 20

>  <SCORE>  (16) 
-12.759

>  <name>  (16) 
15

>  <ligand_id>  (16) 
15

>  <original_smiles>  (16) 
[H]c1c([H])c([H])c2c(c1[H])C([H])([H])C([H])([H])C([H])([H])C2([H])N([H])C(=O)C1([H])N(C(=O)C([H])(N([H])C(=O)C([H])(N([H])C([H])([H])[H])C([H])([H])[H])C(C([H])([H])[H])(C([H])([H])[H])C([H])([H])[H])C([H])([H])c2c([H])c(OC([H])([H])C([H])([H])C([H])([H])C(=O)N([H])c3c([H])c([H])c4c(c3[H])C(=NC(=O)N3C([H])([H])C([H])([H])C([H])([H])C([H])(n5nc(-c6c([H])c([H])c(Oc7c([H])c([H])c(F)c([H])c7F)c([H])c6[H])c(C(=O)N([H])[H])c5N([H])[H])C3([H])[H])C([H])([H])C([H])([H])C(=O)N4[H])c([H])c([H])c2C1([H])[H]

>  <smiles>  (16) 
[H]c1c([H])c([H])c2c(c1[H])C([H])([H])C([H])([H])C([H])([H])C2([H])N([H])C(=O)C1([H])N(C(=O)C([H])(N([H])C(=O)C([H])(N([H])C([H])([H])[H])C([H])([H])[H])C(C([H])([H])[H])(C([H])([H])[H])C([H])([H])[H])C([H])([H])c2c([H])c(OC([H])([H])C([H])([H])C([H])([H])C(=O)N([H])c3c([H])c([H])c4c(c3[H])C(=NC(=O)N3C([H])([H])C([H])([H])C([H])([H])C([H])(n5nc(-c6c([H])c([H])c(Oc7c([H])c([H])c(F)c([H])c7F)c([H])c6[H])c(C(=O)N([H])[H])c5N([H])[H])C3([H])[H])C([H])([H])C([H])([H])C(=O)N4[H])c([H])c([H])c2C1([H])[H]

$$$$
16:0:0
     RDKit          3D

 96105  0  0  1  0  0  0  0  0999 V2000
  -30.2370  -23.9270   19.9040 C   0  0  0  0  0  0  0  0  0  0  0  0
  -28.8420  -23.9630   20.3180 C   0  0  0  0  0  0  0  0  0  0  0  0
  -30.7230  -22.4470   19.9150 C   0  0  0  0  0  0  0  0  0  0  0  0
  -28.0380  -25.0750   20.4640 C   0  0  0  0  0  3  0  0  0  0  0  0
  -28.4860  -22.4710   20.5510 C   0  0  0  0  0  2  0  0  0  0  0  0
  -29.7060  -21.6370   20.3120 N   0  0  0  0  0  0  0  0  0  0  0  0
  -30.9450  -24.8940   19.5890 O   0  0  0  0  0  0  0  0  0  0  0  0
  -31.8700  -22.1050   19.5910 O   0  0  0  0  0  0  0  0  0  0  0  0
  -30.9450  -19.4210   20.7210 C   0  0  0  0  0  3  0  0  0  0  0  0
  -30.9890  -17.9900   20.7850 C   0  0  0  0  0  3  0  0  0  0  0  0
  -28.6230  -19.3470   20.1190 C   0  0  0  0  0  3  0  0  0  0  0  0
  -29.7610  -20.1540   20.3900 C   0  0  0  0  0  0  0  0  0  0  0  0
  -29.8450  -17.1990   20.5040 C   0  0  0  0  0  0  0  0  0  0  0  0
  -28.6740  -17.9200   20.1470 C   0  0  0  0  0  0  0  0  0  0  0  0
  -30.5740  -14.6880   20.4010 C   0  0  0  0  0  0  0  0  0  0  0  0
  -30.3780  -12.4350   19.3600 C   0  0  0  0  0  2  0  0  0  0  0  0
  -29.4240  -12.5480   18.1480 C   0  0  0  0  0  2  0  0  0  0  0  0
  -27.9540  -12.3840   18.5860 C   0  0  0  0  0  2  0  0  0  0  0  0
  -27.5950  -13.2510   19.8230 C   0  0  0  0  0  3  0  0  0  0  0  0
  -28.6640  -13.1110   20.9310 C   0  0  0  0  0  2  0  0  0  0  0  0
  -29.9670  -13.4590   20.3400 N   0  0  0  0  0  0  0  0  0  0  0  0
  -31.7500  -14.8410   20.0590 O   0  0  0  0  0  0  0  0  0  0  0  0
  -29.7360  -15.7440   20.6440 N   0  0  0  0  0  0  0  0  0  0  0  0
  -28.7810  -15.4570   20.7950 H   0  0  0  0  0  0  0  0  0  0  0  0
  -25.2020  -13.8440   20.5550 C   0  0  0  0  0  0  0  0  0  0  0  0
  -24.1360  -13.0670   20.9190 C   0  0  0  0  0  0  0  0  0  0  0  0
  -24.6020  -11.7180   20.8850 C   0  0  0  0  0  0  0  0  0  0  0  0
  -26.2490  -12.9670   20.3150 N   0  0  0  0  0  0  0  0  0  0  0  0
  -25.8930  -11.6820   20.5750 N   0  0  0  0  0  0  0  0  0  0  0  0
  -23.8780  -10.4560   21.0750 C   0  0  0  0  0  0  0  0  0  0  0  0
  -24.3220   -9.4800   21.9960 C   0  0  0  0  0  3  0  0  0  0  0  0
  -23.5970   -8.2830   22.1740 C   0  0  0  0  0  3  0  0  0  0  0  0
  -22.4130   -8.0520   21.4340 C   0  0  0  0  0  0  0  0  0  0  0  0
  -21.9880   -9.0160   20.5030 C   0  0  0  0  0  3  0  0  0  0  0  0
  -22.7140  -10.2050   20.3210 C   0  0  0  0  0  3  0  0  0  0  0  0
  -21.6580   -6.9080   21.5220 O   0  0  0  0  0  0  0  0  0  0  0  0
  -21.6340   -6.1490   22.6650 C   0  0  0  0  0  0  0  0  0  0  0  0
  -21.2380   -6.6890   23.9080 C   0  0  0  0  0  3  0  0  0  0  0  0
  -21.1600   -5.8570   25.0440 C   0  0  0  0  0  3  0  0  0  0  0  0
  -21.4660   -4.4870   24.9360 C   0  0  0  0  0  0  0  0  0  0  0  0
  -21.8550   -3.9470   23.6970 C   0  0  0  0  0  3  0  0  0  0  0  0
  -21.9350   -4.7760   22.5640 C   0  0  0  0  0  0  0  0  0  0  0  0
  -22.2900   -4.2470   21.3690 F   0  0  0  0  0  0  0  0  0  0  0  0
  -21.3840   -3.6870   26.0240 F   0  0  0  0  0  0  0  0  0  0  0  0
  -22.7400  -13.5430   21.1950 C   0  0  0  0  0  0  0  0  0  0  0  0
  -22.0170  -12.8490   22.0670 N   0  0  0  0  0  0  0  0  0  0  0  0
  -22.2980  -14.5660   20.6750 O   0  0  0  0  0  0  0  0  0  0  0  0
  -22.3870  -12.0210   22.5100 H   0  0  0  0  0  0  0  0  0  0  0  0
  -21.0800  -13.1500   22.2950 H   0  0  0  0  0  0  0  0  0  0  0  0
  -25.3480  -15.2170   20.3970 N   0  0  0  0  0  0  0  0  0  0  0  0
  -24.5660  -15.8430   20.5550 H   0  0  0  0  0  0  0  0  0  0  0  0
  -26.2110  -15.7280   20.2150 H   0  0  0  0  0  0  0  0  0  0  0  0
  -27.5450  -17.1950   19.7700 N   0  0  0  0  0  0  0  0  0  0  0  0
  -26.7880  -17.7710   19.4150 H   0  0  0  0  0  0  0  0  0  0  0  0
  -27.7630  -16.4830   19.0820 H   0  0  0  0  0  0  0  0  0  0  0  0
  -28.3050  -26.4480   20.2290 O   0  0  0  0  0  0  0  0  0  0  0  0
  -24.6320  -31.9120   23.2390 C   0  0  0  0  0  0  0  0  0  0  0  0
  -27.2120  -27.3330   20.1870 C   0  0  0  0  0  0  0  0  0  0  0  0
  -23.4170  -30.5180   21.6040 C   0  0  0  0  0  3  0  0  0  0  0  0
  -24.8580  -28.9600   20.1740 C   0  0  0  0  0  0  0  0  0  0  0  0
  -25.9580  -30.8200   21.4180 C   0  0  0  0  0  2  0  0  0  0  0  0
  -26.0300  -29.4400   20.7740 C   0  0  0  0  0  0  0  0  0  0  0  0
  -27.2100  -28.6350   20.7770 C   0  0  0  0  0  3  0  0  0  0  0  0
  -26.0240  -26.9180   19.5430 C   0  0  0  0  0  3  0  0  0  0  0  0
  -24.8560  -27.7030   19.5510 C   0  0  0  0  0  3  0  0  0  0  0  0
  -23.6250  -29.8400   20.2240 C   0  0  0  0  0  2  0  0  0  0  0  0
  -24.6880  -31.1010   22.1430 N   0  0  0  0  0  0  0  0  0  0  0  0
  -23.5520  -32.1980   23.7750 O   0  0  0  0  0  0  0  0  0  0  0  0
  -22.7500  -29.5070   22.5670 C   0  0  0  0  0  0  0  0  0  0  0  0
  -21.4210  -29.3390   22.4440 N   0  0  0  0  0  0  0  0  0  0  0  0
  -23.4260  -28.8760   23.3840 O   0  0  0  0  0  0  0  0  0  0  0  0
  -20.9360  -29.8990   21.7580 H   0  0  0  0  0  0  0  0  0  0  0  0
  -18.0370  -28.1690   22.9540 C   0  0  0  0  0  0  0  0  0  0  0  0
  -20.5980  -28.4100   23.2190 C   0  0  0  0  0  3  0  0  0  0  0  0
  -20.6880  -26.9760   22.6490 C   0  0  0  0  0  2  0  0  0  0  0  0
  -19.5830  -26.6580   21.6370 C   0  0  0  0  0  2  0  0  0  0  0  0
  -18.2030  -26.8160   22.2830 C   0  0  0  0  0  2  0  0  0  0  0  0
  -19.1620  -28.9250   23.3800 C   0  0  0  0  0  0  0  0  0  0  0  0
  -18.9520  -30.1910   23.9680 C   0  0  0  0  0  3  0  0  0  0  0  0
  -17.6510  -30.7020   24.1330 C   0  0  0  0  0  3  0  0  0  0  0  0
  -16.5410  -29.9430   23.7240 C   0  0  0  0  0  3  0  0  0  0  0  0
  -16.7340  -28.6780   23.1390 C   0  0  0  0  0  3  0  0  0  0  0  0
  -25.9200  -32.5380   23.8560 C   0  0  0  0  0  3  0  0  0  0  0  0
  -25.6140  -33.9330   24.2030 N   0  0  0  0  0  0  0  0  0  0  0  0
  -25.9240  -34.9920   23.4430 C   0  0  0  0  0  0  0  0  0  0  0  0
  -26.5670  -34.8980   22.3940 O   0  0  0  0  0  0  0  0  0  0  0  0
  -25.0400  -34.0800   25.0200 H   0  0  0  0  0  0  0  0  0  0  0  0
  -24.1720  -36.7750   23.1580 C   0  0  0  0  0  1  0  0  0  0  0  0
  -25.4440  -36.3760   23.9220 C   0  0  0  0  0  3  0  0  0  0  0  0
  -27.6030  -37.2730   24.6770 C   0  0  0  0  0  1  0  0  0  0  0  0
  -26.4660  -37.4360   23.7740 N   0  0  0  0  0  0  0  0  0  0  0  0
  -26.0600  -38.3530   23.9400 H   0  0  0  0  0  0  0  0  0  0  0  0
  -26.4470  -31.7540   25.1210 C   0  0  1  0  0  0  0  0  0  0  0  0
  -25.3620  -31.5090   26.1960 C   0  0  0  0  0  1  0  0  0  0  0  0
  -27.0240  -30.3790   24.7140 C   0  0  0  0  0  1  0  0  0  0  0  0
  -27.6040  -32.5410   25.7800 C   0  0  0  0  0  1  0  0  0  0  0  0
  1  3  1  0
  1  2  1  0
  2  4  2  0
  2  5  1  0
  3  6  1  0
  6 12  1  0
  6  5  1  0
  7  1  2  0
  8  3  2  0
  9 10  1  0
 11 14  2  0
 11 12  1  0
 12  9  2  0
 13 23  1  0
 13 10  2  0
 14 13  1  0
 15 23  1  0
 16 21  1  0
 17 18  1  0
 17 16  1  0
 19 18  1  0
 19 28  1  0
 19 20  1  0
 21 15  1  0
 21 20  1  0
 22 15  2  0
 23 24  1  0
 25 26  2  0
 26 45  1  0
 27 26  1  0
 27 30  1  0
 28 25  1  0
 28 29  1  0
 29 27  2  0
 30 31  1  0
 31 32  2  0
 33 36  1  0
 33 32  1  0
 34 33  2  0
 35 34  1  0
 35 30  2  0
 36 37  1  0
 37 38  1  0
 38 39  2  0
 40 39  1  0
 40 44  1  0
 41 40  2  0
 42 37  2  0
 42 41  1  0
 43 42  1  0
 45 46  1  0
 46 49  1  0
 46 48  1  0
 47 45  2  0
 50 51  1  0
 50 25  1  0
 52 50  1  0
 53 14  1  0
 54 53  1  0
 55 53  1  0
 56  4  1  0
 57 68  2  0
 58 56  1  0
 58 63  1  0
 59 67  1  0
 59 69  1  0
 60 66  1  0
 60 62  1  0
 61 67  1  0
 62 63  2  0
 62 61  1  0
 64 65  1  0
 64 58  2  0
 65 60  2  0
 66 59  1  0
 67 57  1  0
 69 71  2  0
 70 69  1  0
 72 70  1  0
 73 82  2  0
 73 78  1  0
 74 70  1  0
 74 78  1  0
 75 74  1  0
 76 77  1  0
 76 75  1  0
 77 73  1  0
 78 79  2  0
 79 80  1  0
 81 80  2  0
 82 81  1  0
 83 57  1  0
 83 84  1  0
 83 93  1  0
 84 87  1  0
 85 89  1  0
 85 84  1  0
 86 85  2  0
 89 88  1  0
 91 89  1  0
 91 92  1  0
 91 90  1  0
 93 96  1  1
 93 94  1  0
 95 93  1  0
M  ISO  4   4 101  15 100  23 100  56 101
M  END
>  <TORSDO>  (17) 
F 18

>  <SCORE>  (17) 
-15.340

>  <name>  (17) 
16

>  <ligand_id>  (17) 
16

>  <original_smiles>  (17) 
[H]C(Oc1c([H])c([H])c2c(c1[H])C([H])([H])N(C(=O)C([H])(N([H])C(=O)C([H])(N([H])C([H])([H])[H])C([H])([H])[H])C(C([H])([H])[H])(C([H])([H])[H])C([H])([H])[H])C([H])(C(=O)N([H])C1([H])c3c([H])c([H])c([H])c([H])c3C([H])([H])C([H])([H])C1([H])[H])C2([H])[H])=C1C(=O)C(=O)N(c2c([H])c([H])c(N([H])C(=O)N3C([H])([H])C([H])([H])C([H])([H])C([H])(n4nc(-c5c([H])c([H])c(Oc6c([H])c([H])c(F)c([H])c6F)c([H])c5[H])c(C(=O)N([H])[H])c4N([H])[H])C3([H])[H])c(N([H])[H])c2[H])C1([H])[H]

>  <smiles>  (17) 
[H]C(Oc1c([H])c([H])c2c(c1[H])C([H])([H])N(C(=O)C([H])(N([H])C(=O)C([H])(N([H])C([H])([H])[H])C([H])([H])[H])C(C([H])([H])[H])(C([H])([H])[H])C([H])([H])[H])C([H])(C(=O)N([H])C1([H])c3c([H])c([H])c([H])c([H])c3C([H])([H])C([H])([H])C1([H])[H])C2([H])[H])=C1C(=O)C(=O)N(c2c([H])c([H])c(N([H])C(=O)N3C([H])([H])C([H])([H])C([H])([H])C([H])(n4nc(-c5c([H])c([H])c(Oc6c([H])c([H])c(F)c([H])c6F)c([H])c5[H])c(C(=O)N([H])[H])c4N([H])[H])C3([H])[H])c(N([H])[H])c2[H])C1([H])[H]

$$$$
17:0:0
     RDKit          3D

 95104  0  0  1  0  0  0  0  0999 V2000
  -27.8450  -22.9280   19.7660 C   0  0  0  0  0  3  0  0  0  0  0  0
  -28.7310  -23.9250   20.0350 C   0  0  0  0  0  0  0  0  0  0  0  0
  -29.9670  -23.4990   20.6920 C   0  0  0  0  0  0  0  0  0  0  0  0
  -28.0320  -21.4740   20.0130 C   0  0  0  0  0  0  0  0  0  0  0  0
  -30.8710  -24.4100   21.0960 C   0  0  0  0  0  2  0  0  0  0  0  0
  -30.2610  -22.0030   20.9230 C   0  0  0  0  0  2  0  0  0  0  0  0
  -29.2720  -21.0340   20.3930 N   0  0  0  0  0  0  0  0  0  0  0  0
  -27.1090  -20.6730   19.8370 O   0  0  0  0  0  0  0  0  0  0  0  0
  -30.4590  -19.7080   18.7450 C   0  0  0  0  0  3  0  0  0  0  0  0
  -30.9430  -18.5150   18.1860 C   0  0  0  0  0  3  0  0  0  0  0  0
  -29.6310  -18.4450   20.6620 C   0  0  0  0  0  3  0  0  0  0  0  0
  -29.7670  -19.7130   19.9730 C   0  0  0  0  0  0  0  0  0  0  0  0
  -30.1650  -17.2050   20.1210 C   0  0  0  0  0  0  0  0  0  0  0  0
  -30.7810  -17.2840   18.8430 C   0  0  0  0  0  0  0  0  0  0  0  0
  -31.1850  -16.1710   18.1860 F   0  0  0  0  0  0  0  0  0  0  0  0
  -30.7970  -14.7630   20.5840 C   0  0  0  0  0  0  0  0  0  0  0  0
  -30.6160  -12.5000   19.5880 C   0  0  0  0  0  2  0  0  0  0  0  0
  -29.7310  -12.6050   18.3270 C   0  0  0  0  0  2  0  0  0  0  0  0
  -28.2430  -12.4490   18.6940 C   0  0  0  0  0  2  0  0  0  0  0  0
  -27.8270  -13.3310   19.9050 C   0  0  0  0  0  3  0  0  0  0  0  0
  -28.8400  -13.2220   21.0650 C   0  0  0  0  0  2  0  0  0  0  0  0
  -30.1680  -13.5460   20.5300 N   0  0  0  0  0  0  0  0  0  0  0  0
  -31.9990  -14.8570   20.3240 O   0  0  0  0  0  0  0  0  0  0  0  0
  -30.0170  -15.8860   20.7630 N   0  0  0  0  0  0  0  0  0  0  0  0
  -29.1230  -15.7170   21.1960 H   0  0  0  0  0  0  0  0  0  0  0  0
  -25.4060  -13.9160   20.5220 C   0  0  0  0  0  0  0  0  0  0  0  0
  -24.3320  -13.1390   20.8640 C   0  0  0  0  0  0  0  0  0  0  0  0
  -24.8070  -11.7910   20.8750 C   0  0  0  0  0  0  0  0  0  0  0  0
  -26.4650  -13.0420   20.3430 N   0  0  0  0  0  0  0  0  0  0  0  0
  -26.1090  -11.7600   20.6180 N   0  0  0  0  0  0  0  0  0  0  0  0
  -24.0850  -10.5260   21.0570 C   0  0  0  0  0  0  0  0  0  0  0  0
  -24.4940   -9.5720   22.0150 C   0  0  0  0  0  3  0  0  0  0  0  0
  -23.7710   -8.3720   22.1840 C   0  0  0  0  0  3  0  0  0  0  0  0
  -22.6260   -8.1160   21.3940 C   0  0  0  0  0  0  0  0  0  0  0  0
  -22.2360   -9.0570   20.4250 C   0  0  0  0  0  3  0  0  0  0  0  0
  -22.9600  -10.2500   20.2540 C   0  0  0  0  0  3  0  0  0  0  0  0
  -21.8790   -6.9650   21.4700 O   0  0  0  0  0  0  0  0  0  0  0  0
  -21.7970   -6.2340   22.6280 C   0  0  0  0  0  0  0  0  0  0  0  0
  -21.3160   -6.7940   23.8310 C   0  0  0  0  0  3  0  0  0  0  0  0
  -21.1840   -5.9890   24.9800 C   0  0  0  0  0  3  0  0  0  0  0  0
  -21.5260   -4.6240   24.9270 C   0  0  0  0  0  0  0  0  0  0  0  0
  -22.0010   -4.0630   23.7280 C   0  0  0  0  0  3  0  0  0  0  0  0
  -22.1330   -4.8660   22.5820 C   0  0  0  0  0  0  0  0  0  0  0  0
  -22.5720   -4.3160   21.4240 F   0  0  0  0  0  0  0  0  0  0  0  0
  -21.3910   -3.8470   26.0270 F   0  0  0  0  0  0  0  0  0  0  0  0
  -22.9220  -13.6090   21.0700 C   0  0  0  0  0  0  0  0  0  0  0  0
  -22.1650  -12.9220   21.9190 N   0  0  0  0  0  0  0  0  0  0  0  0
  -22.4970  -14.6210   20.5130 O   0  0  0  0  0  0  0  0  0  0  0  0
  -22.5210  -12.1040   22.3900 H   0  0  0  0  0  0  0  0  0  0  0  0
  -21.2170  -13.2190   22.0990 H   0  0  0  0  0  0  0  0  0  0  0  0
  -25.5690  -15.2850   20.3280 N   0  0  0  0  0  0  0  0  0  0  0  0
  -24.7920  -15.9350   20.3830 H   0  0  0  0  0  0  0  0  0  0  0  0
  -26.4220  -15.7170   19.9990 H   0  0  0  0  0  0  0  0  0  0  0  0
  -28.5430  -25.3550   19.3860 C   0  0  0  0  0  2  0  0  0  0  0  0
  -28.3700  -26.5620   20.2190 O   0  0  0  0  0  0  0  0  0  0  0  0
  -24.5740  -31.8980   23.2250 C   0  0  0  0  0  0  0  0  0  0  0  0
  -27.2260  -27.3720   20.1460 C   0  0  0  0  0  0  0  0  0  0  0  0
  -23.3830  -30.4970   21.5780 C   0  0  0  0  0  3  0  0  0  0  0  0
  -24.8440  -28.9630   20.1460 C   0  0  0  0  0  0  0  0  0  0  0  0
  -25.9190  -30.8350   21.3980 C   0  0  0  0  0  2  0  0  0  0  0  0
  -26.0070  -29.4600   20.7450 C   0  0  0  0  0  0  0  0  0  0  0  0
  -27.1970  -28.6730   20.7400 C   0  0  0  0  0  3  0  0  0  0  0  0
  -26.0280  -26.9180   19.5470 C   0  0  0  0  0  3  0  0  0  0  0  0
  -24.8560  -27.6970   19.5430 C   0  0  0  0  0  3  0  0  0  0  0  0
  -23.6020  -29.8300   20.1960 C   0  0  0  0  0  2  0  0  0  0  0  0
  -24.6440  -31.0930   22.1240 N   0  0  0  0  0  0  0  0  0  0  0  0
  -23.4890  -32.1660   23.7590 O   0  0  0  0  0  0  0  0  0  0  0  0
  -22.7260  -29.4720   22.5320 C   0  0  0  0  0  0  0  0  0  0  0  0
  -21.4000  -29.2930   22.4080 N   0  0  0  0  0  0  0  0  0  0  0  0
  -23.4080  -28.8410   23.3440 O   0  0  0  0  0  0  0  0  0  0  0  0
  -20.9090  -29.8570   21.7260 H   0  0  0  0  0  0  0  0  0  0  0  0
  -18.0230  -28.1030   22.9150 C   0  0  0  0  0  0  0  0  0  0  0  0
  -20.5840  -28.3500   23.1730 C   0  0  0  0  0  3  0  0  0  0  0  0
  -20.6760  -26.9240   22.5800 C   0  0  0  0  0  2  0  0  0  0  0  0
  -19.5670  -26.6180   21.5700 C   0  0  0  0  0  2  0  0  0  0  0  0
  -18.1900  -26.7610   22.2230 C   0  0  0  0  0  2  0  0  0  0  0  0
  -19.1470  -28.8570   23.3470 C   0  0  0  0  0  0  0  0  0  0  0  0
  -18.9360  -30.1140   23.9540 C   0  0  0  0  0  3  0  0  0  0  0  0
  -17.6340  -30.6180   24.1340 C   0  0  0  0  0  3  0  0  0  0  0  0
  -16.5240  -29.8600   23.7190 C   0  0  0  0  0  3  0  0  0  0  0  0
  -16.7190  -28.6060   23.1150 C   0  0  0  0  0  3  0  0  0  0  0  0
  -25.8520  -32.5340   23.8540 C   0  0  0  0  0  3  0  0  0  0  0  0
  -25.5370  -33.9340   24.1780 N   0  0  0  0  0  0  0  0  0  0  0  0
  -25.8840  -34.9870   23.4260 C   0  0  0  0  0  0  0  0  0  0  0  0
  -26.5730  -34.8830   22.4080 O   0  0  0  0  0  0  0  0  0  0  0  0
  -24.9270  -34.0880   24.9680 H   0  0  0  0  0  0  0  0  0  0  0  0
  -24.1760  -36.7910   23.0260 C   0  0  0  0  0  1  0  0  0  0  0  0
  -25.3880  -36.3750   23.8740 C   0  0  0  0  0  3  0  0  0  0  0  0
  -27.5000  -37.2470   24.7770 C   0  0  0  0  0  1  0  0  0  0  0  0
  -26.4290  -37.4240   23.8000 N   0  0  0  0  0  0  0  0  0  0  0  0
  -26.0210  -38.3450   23.9410 H   0  0  0  0  0  0  0  0  0  0  0  0
  -26.3610  -31.7690   25.1360 C   0  0  1  0  0  0  0  0  0  0  0  0
  -25.2620  -31.5320   26.1980 C   0  0  0  0  0  1  0  0  0  0  0  0
  -26.9500  -30.3910   24.7510 C   0  0  0  0  0  1  0  0  0  0  0  0
  -27.5050  -32.5680   25.8020 C   0  0  0  0  0  1  0  0  0  0  0  0
  1  4  1  0
  1  2  2  0
  2  3  1  0
  3  6  1  0
  3  5  2  0
  4  7  1  0
  7  6  1  0
  8  4  2  0
  9 12  1  0
 10  9  2  0
 10 14  1  0
 12  7  1  0
 12 11  2  0
 13 11  1  0
 13 24  1  0
 14 13  2  0
 15 14  1  0
 16 24  1  0
 17 22  1  0
 18 19  1  0
 18 17  1  0
 20 19  1  0
 20 29  1  0
 20 21  1  0
 22 16  1  0
 22 21  1  0
 23 16  2  0
 24 25  1  0
 26 27  2  0
 27 28  1  0
 27 46  1  0
 28 31  1  0
 29 26  1  0
 29 30  1  0
 30 28  2  0
 31 32  1  0
 32 33  2  0
 34 37  1  0
 34 33  1  0
 35 34  2  0
 36 35  1  0
 36 31  2  0
 37 38  1  0
 38 39  1  0
 39 40  2  0
 41 40  1  0
 41 45  1  0
 42 41  2  0
 43 38  2  0
 43 42  1  0
 44 43  1  0
 46 47  1  0
 47 50  1  0
 47 49  1  0
 48 46  2  0
 51 52  1  0
 51 26  1  0
 53 51  1  0
 54  2  1  0
 54 55  1  0
 56 67  2  0
 57 55  1  0
 57 62  1  0
 58 66  1  0
 58 68  1  0
 59 65  1  0
 59 61  1  0
 60 66  1  0
 61 60  1  0
 62 61  2  0
 63 57  2  0
 64 63  1  0
 64 59  2  0
 65 58  1  0
 66 56  1  0
 68 70  2  0
 69 68  1  0
 71 69  1  0
 72 81  2  0
 72 77  1  0
 73 69  1  0
 73 77  1  0
 74 73  1  0
 75 76  1  0
 75 74  1  0
 76 72  1  0
 77 78  2  0
 78 79  1  0
 80 79  2  0
 81 80  1  0
 82 56  1  0
 82 83  1  0
 82 92  1  0
 83 86  1  0
 84 88  1  0
 84 83  1  0
 85 84  2  0
 88 87  1  0
 90 88  1  0
 90 91  1  0
 90 89  1  0
 92 95  1  1
 92 93  1  0
 94 92  1  0
M  ISO  4  16 100  24 100  54 101  55 101
M  END
>  <TORSDO>  (18) 
F 18

>  <SCORE>  (18) 
-14.670

>  <name>  (18) 
17

>  <ligand_id>  (18) 
17

>  <original_smiles>  (18) 
[H]C([H])=C1C(C([H])([H])Oc2c([H])c([H])c3c(c2[H])C([H])([H])N(C(=O)C([H])(N([H])C(=O)C([H])(N([H])C([H])([H])[H])C([H])([H])[H])C(C([H])([H])[H])(C([H])([H])[H])C([H])([H])[H])C([H])(C(=O)N([H])C2([H])c4c([H])c([H])c([H])c([H])c4C([H])([H])C([H])([H])C2([H])[H])C3([H])[H])=C([H])C(=O)N(c2c([H])c([H])c(F)c(N([H])C(=O)N3C([H])([H])C([H])([H])C([H])([H])C([H])(n4nc(-c5c([H])c([H])c(Oc6c([H])c([H])c(F)c([H])c6F)c([H])c5[H])c(C(=O)N([H])[H])c4N([H])[H])C3([H])[H])c2[H])C1([H])[H]

>  <smiles>  (18) 
[H]C([H])=C1C(C([H])([H])Oc2c([H])c([H])c3c(c2[H])C([H])([H])N(C(=O)C([H])(N([H])C(=O)C([H])(N([H])C([H])([H])[H])C([H])([H])[H])C(C([H])([H])[H])(C([H])([H])[H])C([H])([H])[H])C([H])(C(=O)N([H])C2([H])c4c([H])c([H])c([H])c([H])c4C([H])([H])C([H])([H])C2([H])[H])C3([H])[H])=C([H])C(=O)N(c2c([H])c([H])c(F)c(N([H])C(=O)N3C([H])([H])C([H])([H])C([H])([H])C([H])(n4nc(-c5c([H])c([H])c(Oc6c([H])c([H])c(F)c([H])c6F)c([H])c5[H])c(C(=O)N([H])[H])c4N([H])[H])C3([H])[H])c2[H])C1([H])[H]

$$$$
18:0:0
     RDKit          3D

 95103  0  0  1  0  0  0  0  0999 V2000
  -29.1730  -21.1390   20.8870 C   0  0  0  0  0  0  0  0  0  0  0  0
  -28.8040  -22.3420   20.2990 N   0  0  0  0  0  0  0  0  0  0  0  0
  -29.5750  -21.1270   22.0510 O   0  0  0  0  0  0  0  0  0  0  0  0
  -28.5420  -22.2230   19.3240 H   0  0  0  0  0  0  0  0  0  0  0  0
  -29.1850  -17.2270   18.7330 C   0  0  0  0  0  3  0  0  0  0  0  0
  -28.7420  -18.4090   18.1010 C   0  0  0  0  0  3  0  0  0  0  0  0
  -29.5130  -18.5110   20.7630 C   0  0  0  0  0  3  0  0  0  0  0  0
  -29.1120  -19.7660   20.1280 C   0  0  0  0  0  0  0  0  0  0  0  0
  -29.5530  -17.2180   20.0960 C   0  0  0  0  0  0  0  0  0  0  0  0
  -28.6670  -19.6500   18.7750 C   0  0  0  0  0  0  0  0  0  0  0  0
  -30.5360  -14.8070   20.3470 C   0  0  0  0  0  0  0  0  0  0  0  0
  -30.3670  -12.5100   19.3800 C   0  0  0  0  0  2  0  0  0  0  0  0
  -29.4540  -12.6270   18.1380 C   0  0  0  0  0  2  0  0  0  0  0  0
  -27.9760  -12.4440   18.5450 C   0  0  0  0  0  2  0  0  0  0  0  0
  -27.5950  -13.3090   19.7790 C   0  0  0  0  0  3  0  0  0  0  0  0
  -28.6430  -13.2050   20.9110 C   0  0  0  0  0  2  0  0  0  0  0  0
  -29.9470  -13.5590   20.3400 N   0  0  0  0  0  0  0  0  0  0  0  0
  -31.6840  -14.9390   19.9130 O   0  0  0  0  0  0  0  0  0  0  0  0
  -29.7900  -15.9080   20.7570 N   0  0  0  0  0  0  0  0  0  0  0  0
  -29.0670  -15.6550   21.4170 H   0  0  0  0  0  0  0  0  0  0  0  0
  -25.1980  -13.8930   20.4850 C   0  0  0  0  0  0  0  0  0  0  0  0
  -24.1360  -13.1170   20.8570 C   0  0  0  0  0  0  0  0  0  0  0  0
  -24.6050  -11.7670   20.8390 C   0  0  0  0  0  0  0  0  0  0  0  0
  -26.2470  -13.0160   20.2580 N   0  0  0  0  0  0  0  0  0  0  0  0
  -25.8970  -11.7330   20.5350 N   0  0  0  0  0  0  0  0  0  0  0  0
  -23.8840  -10.5020   21.0340 C   0  0  0  0  0  0  0  0  0  0  0  0
  -24.3220   -9.5380   21.9680 C   0  0  0  0  0  3  0  0  0  0  0  0
  -23.5980   -8.3390   22.1570 C   0  0  0  0  0  3  0  0  0  0  0  0
  -22.4230   -8.0960   21.4050 C   0  0  0  0  0  0  0  0  0  0  0  0
  -22.0040   -9.0480   20.4590 C   0  0  0  0  0  3  0  0  0  0  0  0
  -22.7290  -10.2360   20.2710 C   0  0  0  0  0  3  0  0  0  0  0  0
  -21.6700   -6.9500   21.4990 O   0  0  0  0  0  0  0  0  0  0  0  0
  -21.6330   -6.2070   22.6510 C   0  0  0  0  0  0  0  0  0  0  0  0
  -21.2170   -6.7600   23.8820 C   0  0  0  0  0  3  0  0  0  0  0  0
  -21.1270   -5.9430   25.0260 C   0  0  0  0  0  3  0  0  0  0  0  0
  -21.4420   -4.5750   24.9410 C   0  0  0  0  0  0  0  0  0  0  0  0
  -21.8510   -4.0200   23.7150 C   0  0  0  0  0  3  0  0  0  0  0  0
  -21.9440   -4.8350   22.5730 C   0  0  0  0  0  0  0  0  0  0  0  0
  -22.3200   -4.2920   21.3890 F   0  0  0  0  0  0  0  0  0  0  0  0
  -21.3460   -3.7860   26.0370 F   0  0  0  0  0  0  0  0  0  0  0  0
  -22.7340  -13.5890   21.1190 C   0  0  0  0  0  0  0  0  0  0  0  0
  -22.0080  -12.8940   21.9870 N   0  0  0  0  0  0  0  0  0  0  0  0
  -22.2940  -14.6100   20.5910 O   0  0  0  0  0  0  0  0  0  0  0  0
  -22.3750  -12.0670   22.4310 H   0  0  0  0  0  0  0  0  0  0  0  0
  -21.0690  -13.1970   22.2090 H   0  0  0  0  0  0  0  0  0  0  0  0
  -25.3520  -15.2620   20.2950 N   0  0  0  0  0  0  0  0  0  0  0  0
  -24.5670  -15.9000   20.3880 H   0  0  0  0  0  0  0  0  0  0  0  0
  -26.1810  -15.7060   19.9230 H   0  0  0  0  0  0  0  0  0  0  0  0
  -28.1220  -20.7190   18.0500 N   0  0  0  0  0  0  0  0  0  0  0  0
  -28.0350  -20.5650   17.0490 H   0  0  0  0  0  0  0  0  0  0  0  0
  -27.2050  -21.0070   18.3860 H   0  0  0  0  0  0  0  0  0  0  0  0
  -27.9660  -23.8440   22.1470 C   0  0  0  0  0  1  0  0  0  0  0  0
  -28.7870  -23.7820   20.8430 C   0  0  0  0  0  3  0  0  0  0  0  0
  -28.2130  -24.9530   19.8870 C   0  0  0  0  0  2  0  0  0  0  0  0
  -28.3280  -26.4190   20.2510 O   0  0  0  0  0  0  0  0  0  0  0  0
  -24.6310  -31.9130   23.2420 C   0  0  0  0  0  0  0  0  0  0  0  0
  -27.2290  -27.3120   20.1690 C   0  0  0  0  0  0  0  0  0  0  0  0
  -23.4310  -30.5230   21.5970 C   0  0  0  0  0  3  0  0  0  0  0  0
  -24.8780  -28.9750   20.1580 C   0  0  0  0  0  0  0  0  0  0  0  0
  -25.9730  -30.8240   21.4160 C   0  0  0  0  0  2  0  0  0  0  0  0
  -26.0510  -29.4410   20.7680 C   0  0  0  0  0  0  0  0  0  0  0  0
  -27.2250  -28.6190   20.7680 C   0  0  0  0  0  3  0  0  0  0  0  0
  -26.0380  -26.9340   19.5070 C   0  0  0  0  0  3  0  0  0  0  0  0
  -24.8780  -27.7290   19.5190 C   0  0  0  0  0  3  0  0  0  0  0  0
  -23.6450  -29.8560   20.2130 C   0  0  0  0  0  2  0  0  0  0  0  0
  -24.6990  -31.1060   22.1430 N   0  0  0  0  0  0  0  0  0  0  0  0
  -23.5450  -32.1930   23.7700 O   0  0  0  0  0  0  0  0  0  0  0  0
  -22.7650  -29.5010   22.5510 C   0  0  0  0  0  0  0  0  0  0  0  0
  -21.4370  -29.3360   22.4330 N   0  0  0  0  0  0  0  0  0  0  0  0
  -23.4430  -28.8600   23.3590 O   0  0  0  0  0  0  0  0  0  0  0  0
  -20.9450  -29.9270   21.7780 H   0  0  0  0  0  0  0  0  0  0  0  0
  -18.0620  -28.1070   22.9000 C   0  0  0  0  0  0  0  0  0  0  0  0
  -20.6170  -28.3830   23.1850 C   0  0  0  0  0  3  0  0  0  0  0  0
  -20.7390  -26.9620   22.5900 C   0  0  0  0  0  2  0  0  0  0  0  0
  -19.6330  -26.6210   21.5860 C   0  0  0  0  0  2  0  0  0  0  0  0
  -18.2480  -26.7610   22.2230 C   0  0  0  0  0  2  0  0  0  0  0  0
  -19.1730  -28.8750   23.3400 C   0  0  0  0  0  0  0  0  0  0  0  0
  -18.9420  -30.1370   23.9310 C   0  0  0  0  0  3  0  0  0  0  0  0
  -17.6340  -30.6330   24.0830 C   0  0  0  0  0  3  0  0  0  0  0  0
  -16.5370  -29.8620   23.6580 C   0  0  0  0  0  3  0  0  0  0  0  0
  -16.7530  -28.6010   23.0780 C   0  0  0  0  0  3  0  0  0  0  0  0
  -25.9100  -32.5430   23.8690 C   0  0  0  0  0  3  0  0  0  0  0  0
  -26.4170  -31.7710   25.1470 C   0  0  1  0  0  0  0  0  0  0  0  0
  -25.3170  -31.5370   26.2100 C   0  0  0  0  0  1  0  0  0  0  0  0
  -26.9940  -30.3910   24.7560 C   0  0  0  0  0  1  0  0  0  0  0  0
  -27.5710  -32.5590   25.8110 C   0  0  0  0  0  1  0  0  0  0  0  0
  -25.6020  -33.9440   24.1970 N   0  0  0  0  0  0  0  0  0  0  0  0
  -25.9350  -34.9950   23.4370 C   0  0  0  0  0  0  0  0  0  0  0  0
  -26.6020  -34.8890   22.4040 O   0  0  0  0  0  0  0  0  0  0  0  0
  -25.0110  -34.0990   25.0020 H   0  0  0  0  0  0  0  0  0  0  0  0
  -24.2070  -36.7880   23.0840 C   0  0  0  0  0  1  0  0  0  0  0  0
  -25.4510  -36.3870   23.8930 C   0  0  0  0  0  3  0  0  0  0  0  0
  -27.5900  -37.2690   24.7150 C   0  0  0  0  0  1  0  0  0  0  0  0
  -26.4860  -37.4370   23.7730 N   0  0  0  0  0  0  0  0  0  0  0  0
  -26.0830  -38.3580   23.9200 H   0  0  0  0  0  0  0  0  0  0  0  0
  1  3  2  0
  2 53  1  0
  2  1  1  0
  4  2  1  0
  5  9  1  0
  6  5  2  0
  6 10  1  0
  8  7  1  0
  8  1  1  0
  9 19  1  0
  9  7  2  0
 10  8  2  0
 11 19  1  0
 12 17  1  0
 13 14  1  0
 13 12  1  0
 15 14  1  0
 15 24  1  0
 15 16  1  0
 17 11  1  0
 17 16  1  0
 18 11  2  0
 19 20  1  0
 21 22  2  0
 22 41  1  0
 23 22  1  0
 23 26  1  0
 24 21  1  0
 24 25  1  0
 25 23  2  0
 26 27  1  0
 27 28  2  0
 29 32  1  0
 29 28  1  0
 30 29  2  0
 31 30  1  0
 31 26  2  0
 32 33  1  0
 33 34  1  0
 34 35  2  0
 36 35  1  0
 36 40  1  0
 37 36  2  0
 38 33  2  0
 38 37  1  0
 39 38  1  0
 41 42  1  0
 42 45  1  0
 42 44  1  0
 43 41  2  0
 46 47  1  0
 46 21  1  0
 48 46  1  0
 49 51  1  0
 49 10  1  0
 50 49  1  0
 53 52  1  0
 54 55  1  0
 54 53  1  0
 56 67  2  0
 57 55  1  0
 57 62  1  0
 58 66  1  0
 58 68  1  0
 59 65  1  0
 59 61  1  0
 60 66  1  0
 61 62  2  0
 61 60  1  0
 63 64  1  0
 63 57  2  0
 64 59  2  0
 65 58  1  0
 66 56  1  0
 68 70  2  0
 69 68  1  0
 71 69  1  0
 72 81  2  0
 72 77  1  0
 73 69  1  0
 73 77  1  0
 74 73  1  0
 75 76  1  0
 75 74  1  0
 76 72  1  0
 77 78  2  0
 78 79  1  0
 80 79  2  0
 81 80  1  0
 82 56  1  0
 82 87  1  0
 82 83  1  0
 83 86  1  1
 83 84  1  0
 85 83  1  0
 87 90  1  0
 88 92  1  0
 88 87  1  0
 89 88  2  0
 92 91  1  0
 94 92  1  0
 94 95  1  0
 94 93  1  0
M  ISO  4  11 100  19 100  54 101  55 101
M  END
>  <TORSDO>  (19) 
F 20

>  <SCORE>  (19) 
-14.192

>  <name>  (19) 
18

>  <ligand_id>  (19) 
18

>  <original_smiles>  (19) 
[H]c1c([H])c([H])c2c(c1[H])C([H])([H])C([H])([H])C([H])([H])C2([H])N([H])C(=O)C1([H])N(C(=O)C([H])(N([H])C(=O)C([H])(N([H])C([H])([H])[H])C([H])([H])[H])C(C([H])([H])[H])(C([H])([H])[H])C([H])([H])[H])C([H])([H])c2c([H])c(OC([H])([H])C([H])(N([H])C(=O)c3c([H])c(N([H])C(=O)N4C([H])([H])C([H])([H])C([H])([H])C([H])(n5nc(-c6c([H])c([H])c(Oc7c([H])c([H])c(F)c([H])c7F)c([H])c6[H])c(C(=O)N([H])[H])c5N([H])[H])C4([H])[H])c([H])c([H])c3N([H])[H])C([H])([H])[H])c([H])c([H])c2C1([H])[H]

>  <smiles>  (19) 
[H]c1c([H])c([H])c2c(c1[H])C([H])([H])C([H])([H])C([H])([H])C2([H])N([H])C(=O)C1([H])N(C(=O)C([H])(N([H])C(=O)C([H])(N([H])C([H])([H])[H])C([H])([H])[H])C(C([H])([H])[H])(C([H])([H])[H])C([H])([H])[H])C([H])([H])c2c([H])c(OC([H])([H])C([H])(N([H])C(=O)c3c([H])c(N([H])C(=O)N4C([H])([H])C([H])([H])C([H])([H])C([H])(n5nc(-c6c([H])c([H])c(Oc7c([H])c([H])c(F)c([H])c7F)c([H])c6[H])c(C(=O)N([H])[H])c5N([H])[H])C4([H])[H])c([H])c([H])c3N([H])[H])C([H])([H])[H])c([H])c([H])c2C1([H])[H]

$$$$
19:0:0
     RDKit          3D

 94103  0  0  1  0  0  0  0  0999 V2000
  -28.6850  -24.4820   21.0560 C   0  0  0  0  0  0  0  0  0  0  0  0
  -28.3790  -23.5350   20.0090 C   0  0  0  0  0  0  0  0  0  0  0  0
  -28.6730  -25.8400   21.1400 C   0  0  0  0  0  0  0  0  0  0  0  0
  -29.0870  -23.3550   21.9950 C   0  0  0  0  0  2  0  0  0  0  0  0
  -29.1010  -26.5920   22.3900 C   0  0  0  0  0  1  0  0  0  0  0  0
  -28.6300  -22.4820   20.9040 N   0  0  0  0  0  0  0  0  0  0  0  0
  -28.1330  -23.6710   18.8290 O   0  0  0  0  0  0  0  0  0  0  0  0
  -30.3380  -19.1020   21.4720 C   0  0  0  0  0  3  0  0  0  0  0  0
  -28.7690  -18.8930   19.6600 C   0  0  0  0  0  3  0  0  0  0  0  0
  -29.9220  -20.4440   21.6660 C   0  0  0  0  0  3  0  0  0  0  0  0
  -28.3840  -20.2430   19.8490 C   0  0  0  0  0  3  0  0  0  0  0  0
  -29.8070  -18.3160   20.4250 C   0  0  0  0  0  0  0  0  0  0  0  0
  -28.9760  -21.0870   20.8210 C   0  0  0  0  0  0  0  0  0  0  0  0
  -30.6700  -16.9700   18.4550 C   0  0  0  0  0  1  0  0  0  0  0  0
  -30.5090  -17.0050   19.9950 C   0  0  0  0  0  3  0  0  0  0  0  0
  -30.6930  -14.5540   20.3920 C   0  0  0  0  0  0  0  0  0  0  0  0
  -30.3580  -12.3720   19.3160 C   0  0  0  0  0  2  0  0  0  0  0  0
  -29.4320  -12.5690   18.0980 C   0  0  0  0  0  2  0  0  0  0  0  0
  -27.9560  -12.4450   18.5220 C   0  0  0  0  0  2  0  0  0  0  0  0
  -27.6140  -13.2980   19.7740 C   0  0  0  0  0  3  0  0  0  0  0  0
  -28.6680  -13.1270   20.8920 C   0  0  0  0  0  2  0  0  0  0  0  0
  -29.9870  -13.3940   20.3090 N   0  0  0  0  0  0  0  0  0  0  0  0
  -31.8890  -14.6040   20.0970 O   0  0  0  0  0  0  0  0  0  0  0  0
  -29.9790  -15.7050   20.4890 N   0  0  0  0  0  0  0  0  0  0  0  0
  -28.9940  -15.6410   20.6970 H   0  0  0  0  0  0  0  0  0  0  0  0
  -25.2180  -13.9070   20.4770 C   0  0  0  0  0  0  0  0  0  0  0  0
  -24.1480  -13.1380   20.8460 C   0  0  0  0  0  0  0  0  0  0  0  0
  -24.6080  -11.7850   20.8280 C   0  0  0  0  0  0  0  0  0  0  0  0
  -26.2630  -13.0230   20.2560 N   0  0  0  0  0  0  0  0  0  0  0  0
  -25.9000  -11.7420   20.5270 N   0  0  0  0  0  0  0  0  0  0  0  0
  -23.8790  -10.5250   21.0210 C   0  0  0  0  0  0  0  0  0  0  0  0
  -24.3060   -9.5600   21.9600 C   0  0  0  0  0  3  0  0  0  0  0  0
  -23.5760   -8.3660   22.1410 C   0  0  0  0  0  3  0  0  0  0  0  0
  -22.4060   -8.1270   21.3830 C   0  0  0  0  0  0  0  0  0  0  0  0
  -21.9970   -9.0810   20.4330 C   0  0  0  0  0  3  0  0  0  0  0  0
  -22.7280  -10.2670   20.2510 C   0  0  0  0  0  3  0  0  0  0  0  0
  -21.6470   -6.9840   21.4730 O   0  0  0  0  0  0  0  0  0  0  0  0
  -21.5940   -6.2460   22.6280 C   0  0  0  0  0  0  0  0  0  0  0  0
  -21.1690   -6.8060   23.8520 C   0  0  0  0  0  3  0  0  0  0  0  0
  -21.0640   -5.9930   24.9980 C   0  0  0  0  0  3  0  0  0  0  0  0
  -21.3720   -4.6220   24.9220 C   0  0  0  0  0  0  0  0  0  0  0  0
  -21.7890   -4.0610   23.7030 C   0  0  0  0  0  3  0  0  0  0  0  0
  -21.8970   -4.8700   22.5580 C   0  0  0  0  0  0  0  0  0  0  0  0
  -22.2790   -4.3200   21.3800 F   0  0  0  0  0  0  0  0  0  0  0  0
  -21.2620   -3.8400   26.0210 F   0  0  0  0  0  0  0  0  0  0  0  0
  -22.7500  -13.6180   21.1050 C   0  0  0  0  0  0  0  0  0  0  0  0
  -22.0160  -12.9320   21.9740 N   0  0  0  0  0  0  0  0  0  0  0  0
  -22.3170  -14.6400   20.5740 O   0  0  0  0  0  0  0  0  0  0  0  0
  -22.3790  -12.1060   22.4260 H   0  0  0  0  0  0  0  0  0  0  0  0
  -21.0780  -13.2370   22.1910 H   0  0  0  0  0  0  0  0  0  0  0  0
  -25.3830  -15.2750   20.2900 N   0  0  0  0  0  0  0  0  0  0  0  0
  -24.6140  -15.9280   20.3920 H   0  0  0  0  0  0  0  0  0  0  0  0
  -26.2290  -15.7140   19.9480 H   0  0  0  0  0  0  0  0  0  0  0  0
  -28.3820  -26.6750   20.0770 O   0  0  0  0  0  0  0  0  0  0  0  0
  -24.6210  -31.9080   23.2110 C   0  0  0  0  0  0  0  0  0  0  0  0
  -27.2390  -27.4470   20.1360 C   0  0  0  0  0  0  0  0  0  0  0  0
  -23.4010  -30.4990   21.5830 C   0  0  0  0  0  3  0  0  0  0  0  0
  -24.8460  -28.9560   20.1520 C   0  0  0  0  0  0  0  0  0  0  0  0
  -25.9250  -30.8610   21.3610 C   0  0  0  0  0  2  0  0  0  0  0  0
  -26.0080  -29.4840   20.7290 C   0  0  0  0  0  0  0  0  0  0  0  0
  -27.2110  -28.7390   20.7160 C   0  0  0  0  0  3  0  0  0  0  0  0
  -26.0650  -26.9370   19.5490 C   0  0  0  0  0  3  0  0  0  0  0  0
  -24.8700  -27.6830   19.5570 C   0  0  0  0  0  3  0  0  0  0  0  0
  -23.6000  -29.8150   20.2050 C   0  0  0  0  0  2  0  0  0  0  0  0
  -24.6690  -31.1050   22.1100 N   0  0  0  0  0  0  0  0  0  0  0  0
  -23.5450  -32.1790   23.7610 O   0  0  0  0  0  0  0  0  0  0  0  0
  -22.7620  -29.4810   22.5540 C   0  0  0  0  0  0  0  0  0  0  0  0
  -21.4370  -29.2950   22.4390 N   0  0  0  0  0  0  0  0  0  0  0  0
  -23.4540  -28.8590   23.3650 O   0  0  0  0  0  0  0  0  0  0  0  0
  -20.9400  -29.8480   21.7560 H   0  0  0  0  0  0  0  0  0  0  0  0
  -18.0710  -28.0870   22.9630 C   0  0  0  0  0  0  0  0  0  0  0  0
  -20.6290  -28.3570   23.2180 C   0  0  0  0  0  3  0  0  0  0  0  0
  -20.7350  -26.9240   22.6470 C   0  0  0  0  0  2  0  0  0  0  0  0
  -19.6280  -26.5920   21.6400 C   0  0  0  0  0  2  0  0  0  0  0  0
  -18.2500  -26.7350   22.2930 C   0  0  0  0  0  2  0  0  0  0  0  0
  -19.1890  -28.8550   23.3830 C   0  0  0  0  0  0  0  0  0  0  0  0
  -18.9690  -30.1210   23.9680 C   0  0  0  0  0  3  0  0  0  0  0  0
  -17.6630  -30.6170   24.1390 C   0  0  0  0  0  3  0  0  0  0  0  0
  -16.5610  -29.8470   23.7350 C   0  0  0  0  0  3  0  0  0  0  0  0
  -16.7650  -28.5830   23.1530 C   0  0  0  0  0  3  0  0  0  0  0  0
  -25.9120  -32.5420   23.8170 C   0  0  0  0  0  3  0  0  0  0  0  0
  -25.6010  -33.9360   24.1600 N   0  0  0  0  0  0  0  0  0  0  0  0
  -25.9260  -34.9950   23.4070 C   0  0  0  0  0  0  0  0  0  0  0  0
  -26.5900  -34.9020   22.3710 O   0  0  0  0  0  0  0  0  0  0  0  0
  -25.0080  -34.0820   24.9640 H   0  0  0  0  0  0  0  0  0  0  0  0
  -24.1940  -36.7870   23.0670 C   0  0  0  0  0  1  0  0  0  0  0  0
  -25.4360  -36.3780   23.8760 C   0  0  0  0  0  3  0  0  0  0  0  0
  -27.5690  -37.2580   24.7150 C   0  0  0  0  0  1  0  0  0  0  0  0
  -26.4680  -37.4330   23.7720 N   0  0  0  0  0  0  0  0  0  0  0  0
  -26.0600  -38.3520   23.9270 H   0  0  0  0  0  0  0  0  0  0  0  0
  -26.4550  -31.7630   25.0780 C   0  0  1  0  0  0  0  0  0  0  0  0
  -25.3810  -31.5110   26.1620 C   0  0  0  0  0  1  0  0  0  0  0  0
  -27.0390  -30.3930   24.6630 C   0  0  0  0  0  1  0  0  0  0  0  0
  -27.6120  -32.5580   25.7260 C   0  0  0  0  0  1  0  0  0  0  0  0
  1  3  2  0
  1  4  1  0
  2  6  1  0
  2  1  1  0
  3  5  1  0
  6  4  1  0
  7  2  2  0
  8 10  1  0
  9 11  2  0
  9 12  1  0
 11 13  1  0
 12  8  2  0
 13  6  1  0
 13 10  2  0
 15 14  1  0
 15 12  1  0
 15 24  1  0
 16 24  1  0
 17 22  1  0
 18 19  1  0
 18 17  1  0
 20 19  1  0
 20 29  1  0
 20 21  1  0
 22 16  1  0
 22 21  1  0
 23 16  2  0
 24 25  1  0
 26 27  2  0
 27 46  1  0
 28 27  1  0
 28 31  1  0
 29 26  1  0
 29 30  1  0
 30 28  2  0
 31 32  1  0
 32 33  2  0
 34 37  1  0
 34 33  1  0
 35 34  2  0
 36 35  1  0
 36 31  2  0
 37 38  1  0
 38 39  1  0
 39 40  2  0
 41 40  1  0
 41 45  1  0
 42 41  2  0
 43 38  2  0
 43 42  1  0
 44 43  1  0
 46 47  1  0
 47 50  1  0
 47 49  1  0
 48 46  2  0
 51 52  1  0
 51 26  1  0
 53 51  1  0
 54 56  1  0
 54  3  1  0
 55 66  2  0
 56 61  1  0
 57 65  1  0
 57 67  1  0
 58 64  1  0
 58 60  1  0
 59 65  1  0
 60 59  1  0
 61 60  2  0
 62 63  1  0
 62 56  2  0
 63 58  2  0
 64 57  1  0
 65 55  1  0
 67 69  2  0
 68 67  1  0
 70 68  1  0
 71 80  2  0
 71 76  1  0
 72 68  1  0
 72 76  1  0
 73 72  1  0
 74 75  1  0
 74 73  1  0
 75 71  1  0
 76 77  2  0
 77 78  1  0
 79 78  2  0
 80 79  1  0
 81 55  1  0
 81 82  1  0
 81 91  1  0
 82 85  1  0
 83 87  1  0
 83 82  1  0
 84 83  2  0
 87 86  1  0
 89 87  1  0
 89 90  1  0
 89 88  1  0
 91 94  1  1
 91 92  1  0
 93 91  1  0
M  ISO  4   3 101  16 100  24 100  54 101
M  END
>  <TORSDO>  (20) 
F 18

>  <SCORE>  (20) 
-14.791

>  <name>  (20) 
19

>  <ligand_id>  (20) 
19

>  <original_smiles>  (20) 
[H]c1c([H])c([H])c2c(c1[H])C([H])([H])C([H])([H])C([H])([H])C2([H])N([H])C(=O)C1([H])N(C(=O)C([H])(N([H])C(=O)C([H])(N([H])C([H])([H])[H])C([H])([H])[H])C(C([H])([H])[H])(C([H])([H])[H])C([H])([H])[H])C([H])([H])c2c([H])c(OC(=C3C(=O)N(c4c([H])c([H])c(C([H])(N([H])C(=O)N5C([H])([H])C([H])([H])C([H])([H])C([H])(n6nc(-c7c([H])c([H])c(Oc8c([H])c([H])c(F)c([H])c8F)c([H])c7[H])c(C(=O)N([H])[H])c6N([H])[H])C5([H])[H])C([H])([H])[H])c([H])c4[H])C3([H])[H])C([H])([H])[H])c([H])c([H])c2C1([H])[H]

>  <smiles>  (20) 
[H]c1c([H])c([H])c2c(c1[H])C([H])([H])C([H])([H])C([H])([H])C2([H])N([H])C(=O)C1([H])N(C(=O)C([H])(N([H])C(=O)C([H])(N([H])C([H])([H])[H])C([H])([H])[H])C(C([H])([H])[H])(C([H])([H])[H])C([H])([H])[H])C([H])([H])c2c([H])c(OC(=C3C(=O)N(c4c([H])c([H])c(C([H])(N([H])C(=O)N5C([H])([H])C([H])([H])C([H])([H])C([H])(n6nc(-c7c([H])c([H])c(Oc8c([H])c([H])c(F)c([H])c8F)c([H])c7[H])c(C(=O)N([H])[H])c6N([H])[H])C5([H])[H])C([H])([H])[H])c([H])c4[H])C3([H])[H])C([H])([H])[H])c([H])c([H])c2C1([H])[H]

$$$$
20:0:0
     RDKit          3D

 97106  0  0  1  0  0  0  0  0999 V2000
  -30.6150  -23.3340   20.8920 C   0  0  0  0  0  0  0  0  0  0  0  0
  -32.0100  -22.9580   20.9240 C   0  0  0  0  0  0  0  0  0  0  0  0
  -29.8740  -22.1010   21.2520 C   0  0  0  0  0  0  0  0  0  0  0  0
  -33.0420  -23.6560   20.4150 C   0  0  0  0  0  2  0  0  0  0  0  0
  -30.1550  -24.5860   20.5420 C   0  0  0  0  0  3  0  0  0  0  0  0
  -32.1540  -21.5630   21.4420 C   0  0  0  0  0  2  0  0  0  0  0  0
  -30.7800  -21.0760   21.4260 N   0  0  0  0  0  0  0  0  0  0  0  0
  -28.6500  -21.9950   21.3810 O   0  0  0  0  0  0  0  0  0  0  0  0
  -30.5940  -17.8850   23.3980 C   0  0  0  0  0  3  0  0  0  0  0  0
  -30.4930  -19.2530   23.0670 C   0  0  0  0  0  3  0  0  0  0  0  0
  -30.8440  -16.9000   22.4090 C   0  0  0  0  0  3  0  0  0  0  0  0
  -30.8130  -18.6430   20.7300 C   0  0  0  0  0  3  0  0  0  0  0  0
  -30.6000  -19.6600   21.7200 C   0  0  0  0  0  0  0  0  0  0  0  0
  -30.9890  -17.2360   21.0400 C   0  0  0  0  0  0  0  0  0  0  0  0
  -31.8550  -14.9570   20.2210 C   0  0  0  0  0  0  0  0  0  0  0  0
  -31.4250  -12.7980   19.0610 C   0  0  0  0  0  2  0  0  0  0  0  0
  -30.5150  -12.9810   17.8270 C   0  0  0  0  0  2  0  0  0  0  0  0
  -29.0230  -12.9590   18.2280 C   0  0  0  0  0  2  0  0  0  0  0  0
  -28.7200  -13.8080   19.4920 C   0  0  0  0  0  3  0  0  0  0  0  0
  -29.7480  -13.5890   20.6140 C   0  0  0  0  0  2  0  0  0  0  0  0
  -31.0710  -13.8450   20.0410 N   0  0  0  0  0  0  0  0  0  0  0  0
  -33.0730  -14.8790   20.0380 O   0  0  0  0  0  0  0  0  0  0  0  0
  -31.2570  -16.1960   20.0090 N   0  0  0  0  0  0  0  0  0  0  0  0
  -26.3860  -14.5810   20.2130 C   0  0  0  0  0  0  0  0  0  0  0  0
  -25.2600  -13.8860   20.5680 C   0  0  0  0  0  0  0  0  0  0  0  0
  -25.6260  -12.5020   20.5460 C   0  0  0  0  0  0  0  0  0  0  0  0
  -27.3550  -13.6220   19.9700 N   0  0  0  0  0  0  0  0  0  0  0  0
  -26.9080  -12.3690   20.2390 N   0  0  0  0  0  0  0  0  0  0  0  0
  -24.8190  -11.2940   20.7380 C   0  0  0  0  0  0  0  0  0  0  0  0
  -25.1600  -10.3280   21.7110 C   0  0  0  0  0  3  0  0  0  0  0  0
  -24.3520   -9.1850   21.8950 C   0  0  0  0  0  3  0  0  0  0  0  0
  -23.1970   -8.9990   21.1000 C   0  0  0  0  0  0  0  0  0  0  0  0
  -22.8720   -9.9550   20.1210 C   0  0  0  0  0  3  0  0  0  0  0  0
  -23.6780  -11.0890   19.9370 C   0  0  0  0  0  3  0  0  0  0  0  0
  -22.3680   -7.9050   21.1830 O   0  0  0  0  0  0  0  0  0  0  0  0
  -22.1740   -7.2410   22.3660 C   0  0  0  0  0  0  0  0  0  0  0  0
  -21.7000   -7.8930   23.5260 C   0  0  0  0  0  3  0  0  0  0  0  0
  -21.4410   -7.1530   24.6950 C   0  0  0  0  0  3  0  0  0  0  0  0
  -21.6560   -5.7620   24.7130 C   0  0  0  0  0  0  0  0  0  0  0  0
  -22.1240   -5.1090   23.5580 C   0  0  0  0  0  3  0  0  0  0  0  0
  -22.3800   -5.8450   22.3890 C   0  0  0  0  0  0  0  0  0  0  0  0
  -22.8100   -5.2040   21.2740 F   0  0  0  0  0  0  0  0  0  0  0  0
  -21.4030   -5.0500   25.8360 F   0  0  0  0  0  0  0  0  0  0  0  0
  -23.8950  -14.4570   20.8090 C   0  0  0  0  0  0  0  0  0  0  0  0
  -23.1100  -13.8450   21.6900 N   0  0  0  0  0  0  0  0  0  0  0  0
  -23.5240  -15.4870   20.2430 O   0  0  0  0  0  0  0  0  0  0  0  0
  -23.4180  -13.0150   22.1750 H   0  0  0  0  0  0  0  0  0  0  0  0
  -22.1950  -14.2220   21.8900 H   0  0  0  0  0  0  0  0  0  0  0  0
  -26.6700  -15.9360   20.0560 N   0  0  0  0  0  0  0  0  0  0  0  0
  -26.0300  -16.6720   20.3410 H   0  0  0  0  0  0  0  0  0  0  0  0
  -27.5470  -16.2950   19.6890 H   0  0  0  0  0  0  0  0  0  0  0  0
  -31.5580  -16.6940   18.6380 C   0  0  0  0  0  2  0  0  0  0  0  0
  -30.4000  -17.4930   18.0220 C   0  0  0  0  0  0  0  0  0  0  0  0
  -30.5930  -18.0900   16.6310 C   0  0  0  0  0  1  0  0  0  0  0  0
  -29.3330  -17.6580   18.6190 O   0  0  0  0  0  0  0  0  0  0  0  0
  -28.7410  -25.1880   20.3600 C   0  0  0  0  0  2  0  0  0  0  0  0
  -28.7370  -26.5980   19.9350 O   0  0  0  0  0  0  0  0  0  0  0  0
  -24.5040  -31.5270   22.9200 C   0  0  0  0  0  0  0  0  0  0  0  0
  -27.5120  -27.2690   19.8800 C   0  0  0  0  0  0  0  0  0  0  0  0
  -23.4060  -29.9820   21.3370 C   0  0  0  0  0  3  0  0  0  0  0  0
  -24.9760  -28.5740   19.8890 C   0  0  0  0  0  0  0  0  0  0  0  0
  -25.8840  -30.5870   21.0670 C   0  0  0  0  0  2  0  0  0  0  0  0
  -26.0960  -29.2230   20.4330 C   0  0  0  0  0  0  0  0  0  0  0  0
  -27.3640  -28.5830   20.4090 C   0  0  0  0  0  3  0  0  0  0  0  0
  -26.3710  -26.6590   19.3100 C   0  0  0  0  0  3  0  0  0  0  0  0
  -25.1130  -27.2950   19.3240 C   0  0  0  0  0  3  0  0  0  0  0  0
  -23.6470  -29.3050   19.9610 C   0  0  0  0  0  2  0  0  0  0  0  0
  -24.6150  -30.7160   21.8300 N   0  0  0  0  0  0  0  0  0  0  0  0
  -23.4150  -31.6940   23.4850 O   0  0  0  0  0  0  0  0  0  0  0  0
  -22.8890  -28.9180   22.3340 C   0  0  0  0  0  0  0  0  0  0  0  0
  -21.6180  -28.5110   22.1730 N   0  0  0  0  0  0  0  0  0  0  0  0
  -23.6320  -28.4570   23.2080 O   0  0  0  0  0  0  0  0  0  0  0  0
  -21.0690  -28.9350   21.4350 H   0  0  0  0  0  0  0  0  0  0  0  0
  -18.5300  -26.6680   22.5250 C   0  0  0  0  0  0  0  0  0  0  0  0
  -20.9390  -27.4910   22.9730 C   0  0  0  0  0  3  0  0  0  0  0  0
  -21.3920  -26.0710   22.5600 C   0  0  0  0  0  2  0  0  0  0  0  0
  -20.4870  -25.4340   21.5000 C   0  0  0  0  0  2  0  0  0  0  0  0
  -19.0460  -25.3350   22.0080 C   0  0  0  0  0  2  0  0  0  0  0  0
  -19.4180  -27.6850   22.9610 C   0  0  0  0  0  0  0  0  0  0  0  0
  -18.8840  -28.9210   23.3920 C   0  0  0  0  0  3  0  0  0  0  0  0
  -17.4940  -29.1400   23.3970 C   0  0  0  0  0  3  0  0  0  0  0  0
  -16.6200  -28.1250   22.9730 C   0  0  0  0  0  3  0  0  0  0  0  0
  -17.1380  -26.8910   22.5430 C   0  0  0  0  0  3  0  0  0  0  0  0
  -25.7350  -32.2990   23.4890 C   0  0  0  0  0  3  0  0  0  0  0  0
  -26.3940  -31.5900   24.7370 C   0  0  1  0  0  0  0  0  0  0  0  0
  -25.3830  -31.2250   25.8510 C   0  0  0  0  0  1  0  0  0  0  0  0
  -27.1200  -30.2900   24.3170 C   0  0  0  0  0  1  0  0  0  0  0  0
  -27.4710  -32.5160   25.3540 C   0  0  0  0  0  1  0  0  0  0  0  0
  -25.2780  -33.6480   23.8480 N   0  0  0  0  0  0  0  0  0  0  0  0
  -25.6380  -34.7690   23.2060 C   0  0  0  0  0  0  0  0  0  0  0  0
  -26.4500  -34.7780   22.2770 O   0  0  0  0  0  0  0  0  0  0  0  0
  -24.5530  -33.7130   24.5480 H   0  0  0  0  0  0  0  0  0  0  0  0
  -23.8720  -36.4890   22.6870 C   0  0  0  0  0  1  0  0  0  0  0  0
  -24.9890  -36.0890   23.6660 C   0  0  0  0  0  3  0  0  0  0  0  0
  -26.9090  -37.0070   24.8900 C   0  0  0  0  0  1  0  0  0  0  0  0
  -25.9540  -37.2020   23.8020 N   0  0  0  0  0  0  0  0  0  0  0  0
  -25.4690  -38.0830   23.9500 H   0  0  0  0  0  0  0  0  0  0  0  0
  1  2  1  0
  1  3  1  0
  2  6  1  0
  3  8  2  0
  3  7  1  0
  4  2  2  0
  5  1  2  0
  7  6  1  0
  7 13  1  0
 10  9  1  0
 11  9  2  0
 12 14  2  0
 12 13  1  0
 13 10  2  0
 14 11  1  0
 16 21  1  0
 17 18  1  0
 17 16  1  0
 19 18  1  0
 19 27  1  0
 19 20  1  0
 21 15  1  0
 21 20  1  0
 22 15  2  0
 23 15  1  0
 23 14  1  0
 24 25  2  0
 25 44  1  0
 26 25  1  0
 26 29  1  0
 27 24  1  0
 27 28  1  0
 28 26  2  0
 29 30  1  0
 30 31  2  0
 32 35  1  0
 32 31  1  0
 33 32  2  0
 34 33  1  0
 34 29  2  0
 35 36  1  0
 36 41  2  0
 36 37  1  0
 37 38  2  0
 38 39  1  0
 39 43  1  0
 40 39  2  0
 41 40  1  0
 42 41  1  0
 44 45  1  0
 45 48  1  0
 45 47  1  0
 46 44  2  0
 49 24  1  0
 49 50  1  0
 51 49  1  0
 52 23  1  0
 53 55  2  0
 53 52  1  0
 54 53  1  0
 56  5  1  0
 57 56  1  0
 58 69  2  0
 59 57  1  0
 59 64  1  0
 60 68  1  0
 60 70  1  0
 61 67  1  0
 61 63  1  0
 62 68  1  0
 63 62  1  0
 64 63  2  0
 65 66  1  0
 65 59  2  0
 66 61  2  0
 67 60  1  0
 68 58  1  0
 70 72  2  0
 71 70  1  0
 73 71  1  0
 74 83  2  0
 74 79  1  0
 75 71  1  0
 76 75  1  0
 77 78  1  0
 77 76  1  0
 78 74  1  0
 79 75  1  0
 79 80  2  0
 80 81  1  0
 82 81  2  0
 83 82  1  0
 84 58  1  0
 84 89  1  0
 84 85  1  0
 85 88  1  1
 85 86  1  0
 87 85  1  0
 89 92  1  0
 90 94  1  0
 90 89  1  0
 91 90  2  0
 94 93  1  0
 94 96  1  0
 96 97  1  0
 96 95  1  0
M  ISO  4  15 100  23 100  56 101  57 101
M  END
>  <TORSDO>  (21) 
F 20

>  <SCORE>  (21) 
-9.920

>  <name>  (21) 
20

>  <ligand_id>  (21) 
20

>  <original_smiles>  (21) 
[H]C([H])=C1C(=C([H])C([H])([H])Oc2c([H])c([H])c3c(c2[H])C([H])([H])N(C(=O)C([H])(N([H])C(=O)C([H])(N([H])C([H])([H])[H])C([H])([H])[H])C(C([H])([H])[H])(C([H])([H])[H])C([H])([H])[H])C([H])(C(=O)N([H])C2([H])c4c([H])c([H])c([H])c([H])c4C([H])([H])C([H])([H])C2([H])[H])C3([H])[H])C(=O)N(c2c([H])c([H])c([H])c(N(C(=O)N3C([H])([H])C([H])([H])C([H])([H])C([H])(n4nc(-c5c([H])c([H])c(Oc6c([H])c([H])c(F)c([H])c6F)c([H])c5[H])c(C(=O)N([H])[H])c4N([H])[H])C3([H])[H])C([H])([H])C(=O)C([H])([H])[H])c2[H])C1([H])[H]

>  <smiles>  (21) 
[H]C([H])=C1C(=C([H])C([H])([H])Oc2c([H])c([H])c3c(c2[H])C([H])([H])N(C(=O)C([H])(N([H])C(=O)C([H])(N([H])C([H])([H])[H])C([H])([H])[H])C(C([H])([H])[H])(C([H])([H])[H])C([H])([H])[H])C([H])(C(=O)N([H])C2([H])c4c([H])c([H])c([H])c([H])c4C([H])([H])C([H])([H])C2([H])[H])C3([H])[H])C(=O)N(c2c([H])c([H])c([H])c(N(C(=O)N3C([H])([H])C([H])([H])C([H])([H])C([H])(n4nc(-c5c([H])c([H])c(Oc6c([H])c([H])c(F)c([H])c6F)c([H])c5[H])c(C(=O)N([H])[H])c4N([H])[H])C3([H])[H])C([H])([H])C(=O)C([H])([H])[H])c2[H])C1([H])[H]

$$$$
21:0:0
     RDKit          3D

 98107  0  0  1  0  0  0  0  0999 V2000
  -29.0350  -24.3280   21.2710 C   0  0  0  0  0  0  0  0  0  0  0  0
  -29.2580  -24.0940   22.7030 C   0  0  0  0  0  0  0  0  0  0  0  0
  -29.2730  -23.0930   20.3830 C   0  0  0  0  0  0  0  0  0  0  0  0
  -29.8070  -25.0120   23.5260 C   0  0  0  0  0  2  0  0  0  0  0  0
  -28.6150  -25.6390   20.9850 C   0  0  0  0  0  3  0  0  0  0  0  0
  -28.9600  -22.7330   23.2440 C   0  0  0  0  0  2  0  0  0  0  0  0
  -29.8540  -21.7920   22.4630 C   0  0  0  0  0  2  0  0  0  0  0  0
  -29.6370  -21.8680   21.0060 N   0  0  0  0  0  0  0  0  0  0  0  0
  -29.1350  -23.1370   19.1560 O   0  0  0  0  0  0  0  0  0  0  0  0
  -28.7300  -19.6540   20.1790 C   0  0  0  0  0  3  0  0  0  0  0  0
  -31.2000  -18.3580   20.4450 C   0  0  0  0  0  3  0  0  0  0  0  0
  -29.8410  -20.4990   20.4430 C   0  0  0  0  0  0  0  0  0  0  0  0
  -28.8390  -18.2250   20.1210 C   0  0  0  0  0  0  0  0  0  0  0  0
  -30.0650  -17.5090   20.2650 C   0  0  0  0  0  0  0  0  0  0  0  0
  -31.0850  -19.7950   20.5540 C   0  0  0  0  0  0  0  0  0  0  0  0
  -32.1980  -20.5050   20.8530 F   0  0  0  0  0  0  0  0  0  0  0  0
  -30.8300  -14.9420   20.0000 C   0  0  0  0  0  0  0  0  0  0  0  0
  -30.6130  -12.6650   18.9650 C   0  0  0  0  0  2  0  0  0  0  0  0
  -29.6060  -12.7390   17.7950 C   0  0  0  0  0  2  0  0  0  0  0  0
  -28.1580  -12.5660   18.2970 C   0  0  0  0  0  2  0  0  0  0  0  0
  -27.8450  -13.4400   19.5410 C   0  0  0  0  0  3  0  0  0  0  0  0
  -28.9640  -13.3230   20.6020 C   0  0  0  0  0  2  0  0  0  0  0  0
  -30.2290  -13.7000   19.9520 N   0  0  0  0  0  0  0  0  0  0  0  0
  -31.9980  -15.0790   19.6250 O   0  0  0  0  0  0  0  0  0  0  0  0
  -29.9960  -16.0170   20.2750 N   0  0  0  0  0  0  0  0  0  0  0  0
  -29.0450  -15.7130   20.4230 H   0  0  0  0  0  0  0  0  0  0  0  0
  -25.5000  -14.0270   20.4090 C   0  0  0  0  0  0  0  0  0  0  0  0
  -24.4490  -13.2570   20.8190 C   0  0  0  0  0  0  0  0  0  0  0  0
  -24.8970  -11.9040   20.7260 C   0  0  0  0  0  0  0  0  0  0  0  0
  -26.5260  -13.1500   20.0960 N   0  0  0  0  0  0  0  0  0  0  0  0
  -26.1690  -11.8620   20.3470 N   0  0  0  0  0  0  0  0  0  0  0  0
  -24.1640  -10.6480   20.9180 C   0  0  0  0  0  0  0  0  0  0  0  0
  -24.5970   -9.6750   21.8460 C   0  0  0  0  0  3  0  0  0  0  0  0
  -23.8620   -8.4840   22.0270 C   0  0  0  0  0  3  0  0  0  0  0  0
  -22.6810   -8.2580   21.2810 C   0  0  0  0  0  0  0  0  0  0  0  0
  -22.2660   -9.2210   20.3440 C   0  0  0  0  0  3  0  0  0  0  0  0
  -23.0020  -10.4030   20.1600 C   0  0  0  0  0  3  0  0  0  0  0  0
  -21.9190   -7.1180   21.3720 O   0  0  0  0  0  0  0  0  0  0  0  0
  -21.8370   -6.4000   22.5370 C   0  0  0  0  0  0  0  0  0  0  0  0
  -21.3480   -6.9710   23.7320 C   0  0  0  0  0  3  0  0  0  0  0  0
  -21.2140   -6.1780   24.8890 C   0  0  0  0  0  3  0  0  0  0  0  0
  -21.5580   -4.8130   24.8510 C   0  0  0  0  0  0  0  0  0  0  0  0
  -22.0390   -4.2420   23.6610 C   0  0  0  0  0  3  0  0  0  0  0  0
  -22.1750   -5.0320   22.5060 C   0  0  0  0  0  0  0  0  0  0  0  0
  -22.6190   -4.4700   21.3560 F   0  0  0  0  0  0  0  0  0  0  0  0
  -21.4220   -4.0490   25.9600 F   0  0  0  0  0  0  0  0  0  0  0  0
  -23.0760  -13.7460   21.1810 C   0  0  0  0  0  0  0  0  0  0  0  0
  -22.3860  -13.0360   22.0660 N   0  0  0  0  0  0  0  0  0  0  0  0
  -22.6260  -14.7930   20.7160 O   0  0  0  0  0  0  0  0  0  0  0  0
  -22.7630  -12.1920   22.4700 H   0  0  0  0  0  0  0  0  0  0  0  0
  -21.4670  -13.3460   22.3500 H   0  0  0  0  0  0  0  0  0  0  0  0
  -25.6420  -15.3970   20.2550 N   0  0  0  0  0  0  0  0  0  0  0  0
  -24.8610  -16.0230   20.4190 H   0  0  0  0  0  0  0  0  0  0  0  0
  -26.4690  -15.8940   19.9240 H   0  0  0  0  0  0  0  0  0  0  0  0
  -27.6640  -17.4940   19.9920 N   0  0  0  0  0  0  0  0  0  0  0  0
  -27.4660  -16.9280   20.8100 H   0  0  0  0  0  0  0  0  0  0  0  0
  -26.8510  -18.0760   19.8270 H   0  0  0  0  0  0  0  0  0  0  0  0
  -28.3620  -26.4370   19.8540 O   0  0  0  0  0  0  0  0  0  0  0  0
  -24.6360  -31.7960   23.1470 C   0  0  0  0  0  0  0  0  0  0  0  0
  -27.2890  -27.3540   19.9140 C   0  0  0  0  0  0  0  0  0  0  0  0
  -23.4410  -30.4340   21.4720 C   0  0  0  0  0  3  0  0  0  0  0  0
  -24.9050  -28.9520   19.9810 C   0  0  0  0  0  0  0  0  0  0  0  0
  -25.9770  -30.7890   21.2820 C   0  0  0  0  0  2  0  0  0  0  0  0
  -26.0750  -29.4290   20.5910 C   0  0  0  0  0  0  0  0  0  0  0  0
  -27.2720  -28.6390   20.5560 C   0  0  0  0  0  3  0  0  0  0  0  0
  -26.1000  -26.9430   19.2840 C   0  0  0  0  0  3  0  0  0  0  0  0
  -24.9210  -27.7140   19.3190 C   0  0  0  0  0  3  0  0  0  0  0  0
  -23.6560  -29.8070   20.0690 C   0  0  0  0  0  2  0  0  0  0  0  0
  -24.7040  -31.0230   22.0240 N   0  0  0  0  0  0  0  0  0  0  0  0
  -23.5540  -32.0380   23.7000 O   0  0  0  0  0  0  0  0  0  0  0  0
  -22.8010  -29.3760   22.4050 C   0  0  0  0  0  0  0  0  0  0  0  0
  -21.4800  -29.1670   22.2720 N   0  0  0  0  0  0  0  0  0  0  0  0
  -23.4940  -28.7490   23.2100 O   0  0  0  0  0  0  0  0  0  0  0  0
  -20.9790  -29.7280   21.5970 H   0  0  0  0  0  0  0  0  0  0  0  0
  -18.1400  -27.8420   22.7130 C   0  0  0  0  0  0  0  0  0  0  0  0
  -20.6850  -28.1880   23.0170 C   0  0  0  0  0  3  0  0  0  0  0  0
  -20.8440  -26.7710   22.4180 C   0  0  0  0  0  2  0  0  0  0  0  0
  -19.7650  -26.4280   21.3860 C   0  0  0  0  0  2  0  0  0  0  0  0
  -18.3720  -26.5120   22.0170 C   0  0  0  0  0  2  0  0  0  0  0  0
  -19.2260  -28.6360   23.1700 C   0  0  0  0  0  0  0  0  0  0  0  0
  -18.9550  -29.8780   23.7810 C   0  0  0  0  0  3  0  0  0  0  0  0
  -17.6320  -30.3300   23.9410 C   0  0  0  0  0  3  0  0  0  0  0  0
  -16.5600  -29.5330   23.5010 C   0  0  0  0  0  3  0  0  0  0  0  0
  -16.8150  -28.2910   22.8930 C   0  0  0  0  0  3  0  0  0  0  0  0
  -25.9140  -32.4290   23.7790 C   0  0  0  0  0  3  0  0  0  0  0  0
  -25.5950  -33.8220   24.1260 N   0  0  0  0  0  0  0  0  0  0  0  0
  -25.9260  -34.8880   23.3830 C   0  0  0  0  0  0  0  0  0  0  0  0
  -26.5980  -34.8020   22.3530 O   0  0  0  0  0  0  0  0  0  0  0  0
  -24.9950  -33.9630   24.9260 H   0  0  0  0  0  0  0  0  0  0  0  0
  -24.1950  -36.6820   23.0440 C   0  0  0  0  0  1  0  0  0  0  0  0
  -25.4300  -36.2680   23.8590 C   0  0  0  0  0  3  0  0  0  0  0  0
  -27.5550  -37.1440   24.7230 C   0  0  0  0  0  1  0  0  0  0  0  0
  -26.4600  -37.3260   23.7740 N   0  0  0  0  0  0  0  0  0  0  0  0
  -26.0480  -38.2410   23.9400 H   0  0  0  0  0  0  0  0  0  0  0  0
  -26.4320  -31.6480   25.0500 C   0  0  1  0  0  0  0  0  0  0  0  0
  -25.3370  -31.3940   26.1130 C   0  0  0  0  0  1  0  0  0  0  0  0
  -27.0230  -30.2770   24.6470 C   0  0  0  0  0  1  0  0  0  0  0  0
  -27.5780  -32.4410   25.7200 C   0  0  0  0  0  1  0  0  0  0  0  0
  1  2  1  0
  2  6  1  0
  2  4  2  0
  3  8  1  0
  3  1  1  0
  5  1  2  0
  7  6  1  0
  8  7  1  0
  9  3  2  0
 10 12  1  0
 11 15  1  0
 12 15  2  0
 12  8  1  0
 13 10  2  0
 13 14  1  0
 14 25  1  0
 14 11  2  0
 15 16  1  0
 17 25  1  0
 18 23  1  0
 19 20  1  0
 19 18  1  0
 21 20  1  0
 21 30  1  0
 21 22  1  0
 23 17  1  0
 23 22  1  0
 24 17  2  0
 25 26  1  0
 27 28  2  0
 28 47  1  0
 29 28  1  0
 29 32  1  0
 30 31  1  0
 30 27  1  0
 31 29  2  0
 32 33  1  0
 33 34  2  0
 35 38  1  0
 35 34  1  0
 36 35  2  0
 37 36  1  0
 37 32  2  0
 38 39  1  0
 39 40  1  0
 40 41  2  0
 42 41  1  0
 42 46  1  0
 43 42  2  0
 44 39  2  0
 44 43  1  0
 45 44  1  0
 47 48  1  0
 48 51  1  0
 48 50  1  0
 49 47  2  0
 52 27  1  0
 52 53  1  0
 54 52  1  0
 55 13  1  0
 55 56  1  0
 57 55  1  0
 58 60  1  0
 58  5  1  0
 59 70  2  0
 60 65  1  0
 61 69  1  0
 61 71  1  0
 62 68  1  0
 62 64  1  0
 63 69  1  0
 64 63  1  0
 65 64  2  0
 66 67  1  0
 66 60  2  0
 67 62  2  0
 68 61  1  0
 69 59  1  0
 71 73  2  0
 72 71  1  0
 74 72  1  0
 75 84  2  0
 75 80  1  0
 76 72  1  0
 76 80  1  0
 77 76  1  0
 78 79  1  0
 78 77  1  0
 79 75  1  0
 80 81  2  0
 81 82  1  0
 83 82  2  0
 84 83  1  0
 85 59  1  0
 85 86  1  0
 85 95  1  0
 86 89  1  0
 87 91  1  0
 87 86  1  0
 88 87  2  0
 91 90  1  0
 93 91  1  0
 93 94  1  0
 93 92  1  0
 95 98  1  1
 95 96  1  0
 97 95  1  0
M  ISO  4   5 101  17 100  25 100  58 101
M  END
>  <TORSDO>  (22) 
F 18

>  <SCORE>  (22) 
-14.390

>  <name>  (22) 
21

>  <ligand_id>  (22) 
21

>  <original_smiles>  (22) 
[H]C([H])=C1C(=C([H])Oc2c([H])c([H])c3c(c2[H])C([H])([H])N(C(=O)C([H])(N([H])C(=O)C([H])(N([H])C([H])([H])[H])C([H])([H])[H])C(C([H])([H])[H])(C([H])([H])[H])C([H])([H])[H])C([H])(C(=O)N([H])C2([H])c4c([H])c([H])c([H])c([H])c4C([H])([H])C([H])([H])C2([H])[H])C3([H])[H])C(=O)N(c2c([H])c(N([H])[H])c(N([H])C(=O)N3C([H])([H])C([H])([H])C([H])([H])C([H])(n4nc(-c5c([H])c([H])c(Oc6c([H])c([H])c(F)c([H])c6F)c([H])c5[H])c(C(=O)N([H])[H])c4N([H])[H])C3([H])[H])c([H])c2F)C([H])([H])C1([H])[H]

>  <smiles>  (22) 
[H]C([H])=C1C(=C([H])Oc2c([H])c([H])c3c(c2[H])C([H])([H])N(C(=O)C([H])(N([H])C(=O)C([H])(N([H])C([H])([H])[H])C([H])([H])[H])C(C([H])([H])[H])(C([H])([H])[H])C([H])([H])[H])C([H])(C(=O)N([H])C2([H])c4c([H])c([H])c([H])c([H])c4C([H])([H])C([H])([H])C2([H])[H])C3([H])[H])C(=O)N(c2c([H])c(N([H])[H])c(N([H])C(=O)N3C([H])([H])C([H])([H])C([H])([H])C([H])(n4nc(-c5c([H])c([H])c(Oc6c([H])c([H])c(F)c([H])c6F)c([H])c5[H])c(C(=O)N([H])[H])c4N([H])[H])C3([H])[H])c([H])c2F)C([H])([H])C1([H])[H]

$$$$
22:0:0
     RDKit          3D

 93102  0  0  1  0  0  0  0  0999 V2000
  -28.3770  -22.3790   19.3280 C   0  0  0  0  0  0  0  0  0  0  0  0
  -29.3520  -22.3590   21.1000 C   0  0  0  0  0  0  0  0  0  0  0  0
  -29.0280  -23.5820   20.1180 C   0  0  1  0  0  0  0  0  0  0  0  0
  -30.2860  -24.1100   19.4160 C   0  0  0  0  0  1  0  0  0  0  0  0
  -28.9660  -21.3610   20.1490 N   0  0  0  0  0  0  0  0  0  0  0  0
  -27.6460  -22.2990   18.3580 O   0  0  0  0  0  0  0  0  0  0  0  0
  -29.7740  -22.2440   22.2360 O   0  0  0  0  0  0  0  0  0  0  0  0
  -27.3310  -17.9980   19.3690 C   0  0  0  0  0  3  0  0  0  0  0  0
  -27.6430  -19.3570   19.5430 C   0  0  0  0  0  3  0  0  0  0  0  0
  -28.2100  -16.9860   19.7850 C   0  0  0  0  0  3  0  0  0  0  0  0
  -29.7100  -18.7190   20.5630 C   0  0  0  0  0  3  0  0  0  0  0  0
  -28.8450  -19.8410   20.1250 C   0  0  0  0  0  0  0  0  0  0  0  0
  -29.4360  -17.2710   20.3970 C   0  0  0  0  0  0  0  0  0  0  0  0
  -30.6270  -14.8690   20.2950 C   0  0  0  0  0  0  0  0  0  0  0  0
  -30.3140  -12.5580   19.3210 C   0  0  0  0  0  2  0  0  0  0  0  0
  -29.3850  -12.5200   18.0890 C   0  0  0  0  0  2  0  0  0  0  0  0
  -27.9410  -12.2740   18.5510 C   0  0  0  0  0  2  0  0  0  0  0  0
  -27.5310  -13.2410   19.6870 C   0  0  0  0  0  3  0  0  0  0  0  0
  -28.5950  -13.3470   20.8160 C   0  0  0  0  0  2  0  0  0  0  0  0
  -29.8900  -13.6880   20.2070 N   0  0  0  0  0  0  0  0  0  0  0  0
  -31.7730  -14.8410   19.8330 O   0  0  0  0  0  0  0  0  0  0  0  0
  -31.1720  -16.4710   21.9740 C   0  0  0  0  0  1  0  0  0  0  0  0
  -30.2160  -16.0800   20.9270 N   0  0  0  0  0  0  0  0  0  0  0  0
  -25.1640  -13.8500   20.4530 C   0  0  0  0  0  0  0  0  0  0  0  0
  -24.1060  -13.0780   20.8420 C   0  0  0  0  0  0  0  0  0  0  0  0
  -24.5720  -11.7300   20.8200 C   0  0  0  0  0  0  0  0  0  0  0  0
  -26.2030  -12.9640   20.2090 N   0  0  0  0  0  0  0  0  0  0  0  0
  -25.8550  -11.6880   20.4980 N   0  0  0  0  0  0  0  0  0  0  0  0
  -23.8480  -10.4690   21.0120 C   0  0  0  0  0  0  0  0  0  0  0  0
  -24.2830   -9.5050   21.9460 C   0  0  0  0  0  3  0  0  0  0  0  0
  -23.5580   -8.3070   22.1290 C   0  0  0  0  0  3  0  0  0  0  0  0
  -22.3820   -8.0690   21.3780 C   0  0  0  0  0  0  0  0  0  0  0  0
  -21.9680   -9.0230   20.4290 C   0  0  0  0  0  3  0  0  0  0  0  0
  -22.6960  -10.2110   20.2460 C   0  0  0  0  0  3  0  0  0  0  0  0
  -21.6290   -6.9250   21.4700 O   0  0  0  0  0  0  0  0  0  0  0  0
  -21.5820   -6.1870   22.6250 C   0  0  0  0  0  0  0  0  0  0  0  0
  -21.1550   -6.7440   23.8520 C   0  0  0  0  0  3  0  0  0  0  0  0
  -21.0560   -5.9300   24.9980 C   0  0  0  0  0  3  0  0  0  0  0  0
  -21.3730   -4.5620   24.9200 C   0  0  0  0  0  0  0  0  0  0  0  0
  -21.7950   -4.0040   23.7030 C   0  0  0  0  0  3  0  0  0  0  0  0
  -21.8960   -4.8140   22.5580 C   0  0  0  0  0  0  0  0  0  0  0  0
  -22.2810   -4.2670   21.3790 F   0  0  0  0  0  0  0  0  0  0  0  0
  -21.2730   -3.7780   26.0200 F   0  0  0  0  0  0  0  0  0  0  0  0
  -22.7130  -13.5600   21.1210 C   0  0  0  0  0  0  0  0  0  0  0  0
  -21.9900  -12.8650   21.9940 N   0  0  0  0  0  0  0  0  0  0  0  0
  -22.2750  -14.5880   20.6060 O   0  0  0  0  0  0  0  0  0  0  0  0
  -22.3610  -12.0330   22.4270 H   0  0  0  0  0  0  0  0  0  0  0  0
  -21.0630  -13.1760   22.2300 H   0  0  0  0  0  0  0  0  0  0  0  0
  -25.3050  -15.2200   20.2550 N   0  0  0  0  0  0  0  0  0  0  0  0
  -24.5230  -15.8580   20.3780 H   0  0  0  0  0  0  0  0  0  0  0  0
  -26.1110  -15.6820   19.8540 H   0  0  0  0  0  0  0  0  0  0  0  0
  -28.0450  -24.8240   20.5710 C   0  0  0  0  0  2  0  0  0  0  0  0
  -28.2830  -26.3010   20.2410 O   0  0  0  0  0  0  0  0  0  0  0  0
  -24.6100  -31.8650   23.2380 C   0  0  0  0  0  0  0  0  0  0  0  0
  -27.1930  -27.2190   20.2100 C   0  0  0  0  0  0  0  0  0  0  0  0
  -23.4030  -30.4770   21.5960 C   0  0  0  0  0  3  0  0  0  0  0  0
  -24.8510  -28.9080   20.1740 C   0  0  0  0  0  0  0  0  0  0  0  0
  -25.9490  -30.7570   21.4260 C   0  0  0  0  0  2  0  0  0  0  0  0
  -26.0230  -29.3690   20.7820 C   0  0  0  0  0  0  0  0  0  0  0  0
  -27.1960  -28.5390   20.7890 C   0  0  0  0  0  3  0  0  0  0  0  0
  -25.9970  -26.8410   19.5610 C   0  0  0  0  0  3  0  0  0  0  0  0
  -24.8460  -27.6540   19.5460 C   0  0  0  0  0  3  0  0  0  0  0  0
  -23.6210  -29.7960   20.2160 C   0  0  0  0  0  2  0  0  0  0  0  0
  -24.6730  -31.0540   22.1410 N   0  0  0  0  0  0  0  0  0  0  0  0
  -23.5260  -32.1480   23.7740 O   0  0  0  0  0  0  0  0  0  0  0  0
  -22.7290  -29.4640   22.5570 C   0  0  0  0  0  0  0  0  0  0  0  0
  -21.4020  -29.2960   22.4320 N   0  0  0  0  0  0  0  0  0  0  0  0
  -23.4050  -28.8320   23.3750 O   0  0  0  0  0  0  0  0  0  0  0  0
  -20.9220  -29.8500   21.7380 H   0  0  0  0  0  0  0  0  0  0  0  0
  -18.0190  -28.1190   22.9350 C   0  0  0  0  0  0  0  0  0  0  0  0
  -20.5790  -28.3630   23.1990 C   0  0  0  0  0  3  0  0  0  0  0  0
  -20.6740  -26.9330   22.6200 C   0  0  0  0  0  2  0  0  0  0  0  0
  -19.5660  -26.6200   21.6080 C   0  0  0  0  0  2  0  0  0  0  0  0
  -18.1860  -26.7710   22.2550 C   0  0  0  0  0  2  0  0  0  0  0  0
  -19.1430  -28.8740   23.3660 C   0  0  0  0  0  0  0  0  0  0  0  0
  -18.9330  -30.1350   23.9640 C   0  0  0  0  0  3  0  0  0  0  0  0
  -17.6330  -30.6420   24.1360 C   0  0  0  0  0  3  0  0  0  0  0  0
  -16.5230  -29.8840   23.7210 C   0  0  0  0  0  3  0  0  0  0  0  0
  -16.7170  -28.6260   23.1250 C   0  0  0  0  0  3  0  0  0  0  0  0
  -25.8940  -32.4930   23.8640 C   0  0  0  0  0  3  0  0  0  0  0  0
  -25.5880  -33.8940   24.1920 N   0  0  0  0  0  0  0  0  0  0  0  0
  -25.9180  -34.9470   23.4310 C   0  0  0  0  0  0  0  0  0  0  0  0
  -26.5790  -34.8390   22.3950 O   0  0  0  0  0  0  0  0  0  0  0  0
  -24.9970  -34.0430   24.9960 H   0  0  0  0  0  0  0  0  0  0  0  0
  -24.1950  -36.7500   23.0820 C   0  0  0  0  0  1  0  0  0  0  0  0
  -25.4360  -36.3360   23.8880 C   0  0  0  0  0  3  0  0  0  0  0  0
  -27.5800  -37.2200   24.7040 C   0  0  0  0  0  1  0  0  0  0  0  0
  -26.4710  -37.3880   23.7680 N   0  0  0  0  0  0  0  0  0  0  0  0
  -26.0690  -38.3100   23.9160 H   0  0  0  0  0  0  0  0  0  0  0  0
  -26.3980  -31.7240   25.1480 C   0  0  1  0  0  0  0  0  0  0  0  0
  -25.3010  -31.5040   26.2150 C   0  0  0  0  0  1  0  0  0  0  0  0
  -26.9710  -30.3380   24.7710 C   0  0  0  0  0  1  0  0  0  0  0  0
  -27.5470  -32.5150   25.8150 C   0  0  0  0  0  1  0  0  0  0  0  0
  1  3  1  0
  1  5  1  0
  2  7  2  0
  3  4  1  6
  3 52  1  0
  3  2  1  0
  5  2  1  0
  6  1  2  0
  8  9  2  0
  8 10  1  0
  9 12  1  0
 10 13  2  0
 12  5  1  0
 12 11  2  0
 13 11  1  0
 13 23  1  0
 14 23  1  0
 15 20  1  0
 16 17  1  0
 16 15  1  0
 18 17  1  0
 18 27  1  0
 18 19  1  0
 20 14  1  0
 20 19  1  0
 21 14  2  0
 23 22  1  0
 24 25  2  0
 25 44  1  0
 26 25  1  0
 26 29  1  0
 27 24  1  0
 27 28  1  0
 28 26  2  0
 29 30  1  0
 30 31  2  0
 32 35  1  0
 32 31  1  0
 33 32  2  0
 34 33  1  0
 34 29  2  0
 35 36  1  0
 36 37  1  0
 37 38  2  0
 39 38  1  0
 39 43  1  0
 40 39  2  0
 41 36  2  0
 41 40  1  0
 42 41  1  0
 44 45  1  0
 45 48  1  0
 45 47  1  0
 46 44  2  0
 49 50  1  0
 49 24  1  0
 51 49  1  0
 53 52  1  0
 54 65  2  0
 55 53  1  0
 55 60  1  0
 56 64  1  0
 56 66  1  0
 57 63  1  0
 57 59  1  0
 58 64  1  0
 59 60  2  0
 59 58  1  0
 61 55  2  0
 62 61  1  0
 62 57  2  0
 63 56  1  0
 64 54  1  0
 66 68  2  0
 67 66  1  0
 69 67  1  0
 70 79  2  0
 70 75  1  0
 71 67  1  0
 71 75  1  0
 72 71  1  0
 73 74  1  0
 73 72  1  0
 74 70  1  0
 75 76  2  0
 76 77  1  0
 78 77  2  0
 79 78  1  0
 80 54  1  0
 80 81  1  0
 80 90  1  0
 81 84  1  0
 82 86  1  0
 82 81  1  0
 83 82  2  0
 86 85  1  0
 88 86  1  0
 88 89  1  0
 88 87  1  0
 90 93  1  1
 90 91  1  0
 92 90  1  0
M  ISO  4  14 100  23 100  52 101  53 101
M  END
>  <TORSDO>  (23) 
F 18

>  <SCORE>  (23) 
-15.077

>  <name>  (23) 
22

>  <ligand_id>  (23) 
22

>  <original_smiles>  (23) 
[H]c1c([H])c(N2C(=O)C(C([H])([H])[H])(C([H])([H])Oc3c([H])c([H])c4c(c3[H])C([H])([H])N(C(=O)C([H])(N([H])C(=O)C([H])(N([H])C([H])([H])[H])C([H])([H])[H])C(C([H])([H])[H])(C([H])([H])[H])C([H])([H])[H])C([H])(C(=O)N([H])C3([H])c5c([H])c([H])c([H])c([H])c5C([H])([H])C([H])([H])C3([H])[H])C4([H])[H])C2=O)c([H])c(N(C(=O)N2C([H])([H])C([H])([H])C([H])([H])C([H])(n3nc(-c4c([H])c([H])c(Oc5c([H])c([H])c(F)c([H])c5F)c([H])c4[H])c(C(=O)N([H])[H])c3N([H])[H])C2([H])[H])C([H])([H])[H])c1[H]

>  <smiles>  (23) 
[H]c1c([H])c(N2C(=O)C(C([H])([H])[H])(C([H])([H])Oc3c([H])c([H])c4c(c3[H])C([H])([H])N(C(=O)C([H])(N([H])C(=O)C([H])(N([H])C([H])([H])[H])C([H])([H])[H])C(C([H])([H])[H])(C([H])([H])[H])C([H])([H])[H])C([H])(C(=O)N([H])C3([H])c5c([H])c([H])c([H])c([H])c5C([H])([H])C([H])([H])C3([H])[H])C4([H])[H])C2=O)c([H])c(N(C(=O)N2C([H])([H])C([H])([H])C([H])([H])C([H])(n3nc(-c4c([H])c([H])c(Oc5c([H])c([H])c(F)c([H])c5F)c([H])c4[H])c(C(=O)N([H])[H])c3N([H])[H])C2([H])[H])C([H])([H])[H])c1[H]

$$$$
23:0:0
     RDKit          3D

 94103  0  0  1  0  0  0  0  0999 V2000
  -28.7250  -22.5450   20.1660 C   0  0  0  0  0  3  0  0  0  0  0  0
  -29.0450  -23.8720   20.1390 C   0  0  0  0  0  0  0  0  0  0  0  0
  -30.4770  -23.8980   20.3210 C   0  0  0  0  0  0  0  0  0  0  0  0
  -31.2380  -25.0030   20.3620 C   0  0  0  0  0  1  0  0  0  0  0  0
  -31.0050  -22.4700   20.4410 C   0  0  0  0  0  3  0  0  0  0  0  0
  -29.7980  -21.6400   20.3400 N   0  0  0  0  0  0  0  0  0  0  0  0
  -28.6680  -19.3990   20.3320 C   0  0  0  0  0  3  0  0  0  0  0  0
  -31.0740  -17.9920   20.5830 C   0  0  0  0  0  3  0  0  0  0  0  0
  -29.8490  -20.1870   20.3930 C   0  0  0  0  0  0  0  0  0  0  0  0
  -29.8810  -17.2260   20.5370 C   0  0  0  0  0  0  0  0  0  0  0  0
  -28.6840  -17.9750   20.4070 C   0  0  0  0  0  0  0  0  0  0  0  0
  -31.0610  -19.4230   20.5170 C   0  0  0  0  0  0  0  0  0  0  0  0
  -27.5090  -17.3020   20.3520 F   0  0  0  0  0  0  0  0  0  0  0  0
  -32.2590  -20.0540   20.5830 F   0  0  0  0  0  0  0  0  0  0  0  0
  -30.5760  -14.7110   20.3390 C   0  0  0  0  0  0  0  0  0  0  0  0
  -30.3420  -12.4810   19.2610 C   0  0  0  0  0  2  0  0  0  0  0  0
  -29.3710  -12.6230   18.0670 C   0  0  0  0  0  2  0  0  0  0  0  0
  -27.9070  -12.4590   18.5250 C   0  0  0  0  0  2  0  0  0  0  0  0
  -27.5750  -13.3090   19.7800 C   0  0  0  0  0  3  0  0  0  0  0  0
  -28.6580  -13.1440   20.8710 C   0  0  0  0  0  2  0  0  0  0  0  0
  -29.9560  -13.4890   20.2670 N   0  0  0  0  0  0  0  0  0  0  0  0
  -31.7410  -14.8640   19.9590 O   0  0  0  0  0  0  0  0  0  0  0  0
  -29.7630  -15.7670   20.6580 N   0  0  0  0  0  0  0  0  0  0  0  0
  -28.8280  -15.4690   20.8880 H   0  0  0  0  0  0  0  0  0  0  0  0
  -25.1980  -13.9050   20.5530 C   0  0  0  0  0  0  0  0  0  0  0  0
  -24.1350  -13.1300   20.9280 C   0  0  0  0  0  0  0  0  0  0  0  0
  -24.5910  -11.7770   20.8670 C   0  0  0  0  0  0  0  0  0  0  0  0
  -26.2350  -13.0250   20.2880 N   0  0  0  0  0  0  0  0  0  0  0  0
  -25.8750  -11.7390   20.5370 N   0  0  0  0  0  0  0  0  0  0  0  0
  -23.8610  -10.5160   21.0490 C   0  0  0  0  0  0  0  0  0  0  0  0
  -24.2920   -9.5410   21.9760 C   0  0  0  0  0  3  0  0  0  0  0  0
  -23.5640   -8.3440   22.1470 C   0  0  0  0  0  3  0  0  0  0  0  0
  -22.3900   -8.1140   21.3910 C   0  0  0  0  0  0  0  0  0  0  0  0
  -21.9770   -9.0780   20.4530 C   0  0  0  0  0  3  0  0  0  0  0  0
  -22.7070  -10.2660   20.2810 C   0  0  0  0  0  3  0  0  0  0  0  0
  -21.6330   -6.9710   21.4720 O   0  0  0  0  0  0  0  0  0  0  0  0
  -21.5630   -6.2330   22.6260 C   0  0  0  0  0  0  0  0  0  0  0  0
  -21.0780   -6.7820   23.8330 C   0  0  0  0  0  3  0  0  0  0  0  0
  -20.9580   -5.9690   24.9780 C   0  0  0  0  0  3  0  0  0  0  0  0
  -21.3140   -4.6090   24.9160 C   0  0  0  0  0  0  0  0  0  0  0  0
  -21.7910   -4.0590   23.7140 C   0  0  0  0  0  3  0  0  0  0  0  0
  -21.9120   -4.8690   22.5710 C   0  0  0  0  0  0  0  0  0  0  0  0
  -22.3530   -4.3290   21.4100 F   0  0  0  0  0  0  0  0  0  0  0  0
  -21.1910   -3.8260   26.0150 F   0  0  0  0  0  0  0  0  0  0  0  0
  -22.7450  -13.6090   21.2340 C   0  0  0  0  0  0  0  0  0  0  0  0
  -22.0290  -12.9010   22.1010 N   0  0  0  0  0  0  0  0  0  0  0  0
  -22.3020  -14.6460   20.7410 O   0  0  0  0  0  0  0  0  0  0  0  0
  -22.4010  -12.0620   22.5210 H   0  0  0  0  0  0  0  0  0  0  0  0
  -21.0970  -13.2020   22.3480 H   0  0  0  0  0  0  0  0  0  0  0  0
  -25.3590  -15.2790   20.4020 N   0  0  0  0  0  0  0  0  0  0  0  0
  -24.5940  -15.9230   20.5650 H   0  0  0  0  0  0  0  0  0  0  0  0
  -26.2170  -15.7550   20.1490 H   0  0  0  0  0  0  0  0  0  0  0  0
  -28.0460  -25.0530   19.8420 C   0  0  0  0  0  2  0  0  0  0  0  0
  -28.3100  -26.4720   20.2100 O   0  0  0  0  0  0  0  0  0  0  0  0
  -24.5870  -31.9040   23.2470 C   0  0  0  0  0  0  0  0  0  0  0  0
  -27.2010  -27.3480   20.1630 C   0  0  0  0  0  0  0  0  0  0  0  0
  -23.3840  -30.5080   21.6090 C   0  0  0  0  0  3  0  0  0  0  0  0
  -24.8330  -28.9710   20.1750 C   0  0  0  0  0  0  0  0  0  0  0  0
  -25.9260  -30.8260   21.4230 C   0  0  0  0  0  2  0  0  0  0  0  0
  -26.0060  -29.4500   20.7710 C   0  0  0  0  0  0  0  0  0  0  0  0
  -27.1920  -28.6500   20.7580 C   0  0  0  0  0  3  0  0  0  0  0  0
  -25.9980  -26.9380   19.5340 C   0  0  0  0  0  3  0  0  0  0  0  0
  -24.8310  -27.7180   19.5500 C   0  0  0  0  0  3  0  0  0  0  0  0
  -23.5960  -29.8420   20.2270 C   0  0  0  0  0  2  0  0  0  0  0  0
  -24.6520  -31.0970   22.1500 N   0  0  0  0  0  0  0  0  0  0  0  0
  -23.5030  -32.1810   23.7820 O   0  0  0  0  0  0  0  0  0  0  0  0
  -22.7240  -29.4860   22.5660 C   0  0  0  0  0  0  0  0  0  0  0  0
  -21.3980  -29.3050   22.4360 N   0  0  0  0  0  0  0  0  0  0  0  0
  -23.4030  -28.8600   23.3840 O   0  0  0  0  0  0  0  0  0  0  0  0
  -20.9080  -29.8610   21.7500 H   0  0  0  0  0  0  0  0  0  0  0  0
  -18.0200  -28.1110   22.9460 C   0  0  0  0  0  0  0  0  0  0  0  0
  -20.5800  -28.3650   23.2070 C   0  0  0  0  0  3  0  0  0  0  0  0
  -20.6770  -26.9360   22.6240 C   0  0  0  0  0  2  0  0  0  0  0  0
  -19.5700  -26.6190   21.6140 C   0  0  0  0  0  2  0  0  0  0  0  0
  -18.1910  -26.7640   22.2650 C   0  0  0  0  0  2  0  0  0  0  0  0
  -19.1420  -28.8700   23.3740 C   0  0  0  0  0  0  0  0  0  0  0  0
  -18.9270  -30.1310   23.9720 C   0  0  0  0  0  3  0  0  0  0  0  0
  -17.6240  -30.6340   24.1450 C   0  0  0  0  0  3  0  0  0  0  0  0
  -16.5160  -29.8720   23.7330 C   0  0  0  0  0  3  0  0  0  0  0  0
  -16.7160  -28.6130   23.1400 C   0  0  0  0  0  3  0  0  0  0  0  0
  -25.8690  -32.5380   23.8680 C   0  0  0  0  0  3  0  0  0  0  0  0
  -25.5590  -33.9370   24.1940 N   0  0  0  0  0  0  0  0  0  0  0  0
  -25.8770  -34.9860   23.4230 C   0  0  0  0  0  0  0  0  0  0  0  0
  -26.5340  -34.8780   22.3830 O   0  0  0  0  0  0  0  0  0  0  0  0
  -24.9750  -34.0970   25.0010 H   0  0  0  0  0  0  0  0  0  0  0  0
  -24.1400  -36.7730   23.0820 C   0  0  0  0  0  1  0  0  0  0  0  0
  -25.3940  -36.3770   23.8780 C   0  0  0  0  0  3  0  0  0  0  0  0
  -27.5320  -37.2770   24.6810 C   0  0  0  0  0  1  0  0  0  0  0  0
  -26.4220  -37.4310   23.7450 N   0  0  0  0  0  0  0  0  0  0  0  0
  -26.0140  -38.3520   23.8840 H   0  0  0  0  0  0  0  0  0  0  0  0
  -26.3810  -31.7710   25.1480 C   0  0  1  0  0  0  0  0  0  0  0  0
  -25.2850  -31.5320   26.2120 C   0  0  0  0  0  1  0  0  0  0  0  0
  -26.9700  -30.3930   24.7640 C   0  0  0  0  0  1  0  0  0  0  0  0
  -27.5280  -32.5690   25.8120 C   0  0  0  0  0  1  0  0  0  0  0  0
  1  6  1  0
  2  1  2  0
  2  3  1  0
  3  4  1  0
  3  5  2  0
  6  9  1  0
  6  5  1  0
  7  9  2  0
  7 11  1  0
  9 12  1  0
 10  8  1  0
 10 23  1  0
 11 10  2  0
 12 14  1  0
 12  8  2  0
 13 11  1  0
 15 23  1  0
 16 21  1  0
 17 18  1  0
 17 16  1  0
 19 18  1  0
 19 28  1  0
 19 20  1  0
 21 15  1  0
 21 20  1  0
 22 15  2  0
 23 24  1  0
 25 26  2  0
 26 45  1  0
 27 26  1  0
 27 30  1  0
 28 29  1  0
 28 25  1  0
 29 27  2  0
 30 31  1  0
 31 32  2  0
 33 36  1  0
 33 32  1  0
 34 33  2  0
 35 34  1  0
 35 30  2  0
 36 37  1  0
 37 38  1  0
 38 39  2  0
 40 39  1  0
 40 44  1  0
 41 40  2  0
 42 37  2  0
 42 41  1  0
 43 42  1  0
 45 46  1  0
 46 49  1  0
 46 48  1  0
 47 45  2  0
 50 25  1  0
 50 51  1  0
 52 50  1  0
 53  2  1  0
 53 54  1  0
 55 66  2  0
 56 54  1  0
 56 61  1  0
 57 65  1  0
 57 67  1  0
 58 64  1  0
 58 60  1  0
 59 65  1  0
 60 59  1  0
 61 60  2  0
 62 63  1  0
 62 56  2  0
 63 58  2  0
 64 57  1  0
 65 55  1  0
 67 69  2  0
 68 67  1  0
 70 68  1  0
 71 80  2  0
 71 76  1  0
 72 68  1  0
 72 76  1  0
 73 72  1  0
 74 75  1  0
 74 73  1  0
 75 71  1  0
 76 77  2  0
 77 78  1  0
 79 78  2  0
 80 79  1  0
 81 55  1  0
 81 82  1  0
 81 91  1  0
 82 85  1  0
 83 87  1  0
 83 82  1  0
 84 83  2  0
 87 86  1  0
 89 87  1  0
 89 90  1  0
 89 88  1  0
 91 94  1  1
 91 92  1  0
 93 91  1  0
M  ISO  4  15 100  23 100  53 101  54 101
M  END
>  <TORSDO>  (24) 
F 18

>  <SCORE>  (24) 
-15.189

>  <name>  (24) 
23

>  <ligand_id>  (24) 
23

>  <original_smiles>  (24) 
[H]C([H])=C1C(C([H])([H])Oc2c([H])c([H])c3c(c2[H])C([H])([H])N(C(=O)C([H])(N([H])C(=O)C([H])(N([H])C([H])([H])[H])C([H])([H])[H])C(C([H])([H])[H])(C([H])([H])[H])C([H])([H])[H])C([H])(C(=O)N([H])C2([H])c4c([H])c([H])c([H])c([H])c4C([H])([H])C([H])([H])C2([H])[H])C3([H])[H])=C([H])N(c2c([H])c(F)c(N([H])C(=O)N3C([H])([H])C([H])([H])C([H])([H])C([H])(n4nc(-c5c([H])c([H])c(Oc6c([H])c([H])c(F)c([H])c6F)c([H])c5[H])c(C(=O)N([H])[H])c4N([H])[H])C3([H])[H])c([H])c2F)C1([H])[H]

>  <smiles>  (24) 
[H]C([H])=C1C(C([H])([H])Oc2c([H])c([H])c3c(c2[H])C([H])([H])N(C(=O)C([H])(N([H])C(=O)C([H])(N([H])C([H])([H])[H])C([H])([H])[H])C(C([H])([H])[H])(C([H])([H])[H])C([H])([H])[H])C([H])(C(=O)N([H])C2([H])c4c([H])c([H])c([H])c([H])c4C([H])([H])C([H])([H])C2([H])[H])C3([H])[H])=C([H])N(c2c([H])c(F)c(N([H])C(=O)N3C([H])([H])C([H])([H])C([H])([H])C([H])(n4nc(-c5c([H])c([H])c(Oc6c([H])c([H])c(F)c([H])c6F)c([H])c5[H])c(C(=O)N([H])[H])c4N([H])[H])C3([H])[H])c([H])c2F)C1([H])[H]

$$$$
24:0:0
     RDKit          3D

 93102  0  0  1  0  0  0  0  0999 V2000
  -28.2810  -22.3930   18.0150 C   0  0  0  0  0  0  0  0  0  0  0  0
  -28.5940  -23.3850   20.0930 C   0  0  0  0  0  3  0  0  0  0  0  0
  -28.1980  -22.1670   16.6960 C   0  0  0  0  0  2  0  0  0  0  0  0
  -28.0990  -24.5910   20.7230 C   0  0  0  0  0  3  0  0  0  0  0  0
  -29.0600  -23.5120   18.6610 C   0  0  0  0  0  2  0  0  0  0  0  0
  -27.6290  -21.5640   19.1000 C   0  0  0  0  0  2  0  0  0  0  0  0
  -27.3810  -24.4910   22.0520 C   0  0  0  0  0  1  0  0  0  0  0  0
  -28.3910  -21.8800   20.3070 N   0  0  0  0  0  0  0  0  0  0  0  0
  -31.6090  -19.7770   20.5010 C   0  0  0  0  0  3  0  0  0  0  0  0
  -30.6780  -20.8500   20.4670 C   0  0  0  0  0  3  0  0  0  0  0  0
  -31.2470  -18.4060   20.5110 C   0  0  0  0  0  3  0  0  0  0  0  0
  -28.9560  -19.1520   20.4700 C   0  0  0  0  0  3  0  0  0  0  0  0
  -29.2840  -20.6430   20.4390 C   0  0  0  0  0  0  0  0  0  0  0  0
  -29.9050  -17.9630   20.4970 C   0  0  0  0  0  0  0  0  0  0  0  0
  -30.4270  -15.1740   20.3480 C   0  0  0  0  0  0  0  0  0  0  0  0
  -30.3580  -12.7940   19.3750 C   0  0  0  0  0  2  0  0  0  0  0  0
  -29.4170  -12.6970   18.1490 C   0  0  0  0  0  2  0  0  0  0  0  0
  -27.9710  -12.4270   18.5990 C   0  0  0  0  0  2  0  0  0  0  0  0
  -27.5500  -13.3340   19.7840 C   0  0  0  0  0  3  0  0  0  0  0  0
  -28.6160  -13.3980   20.8980 C   0  0  0  0  0  2  0  0  0  0  0  0
  -29.8510  -13.8870   20.2720 N   0  0  0  0  0  0  0  0  0  0  0  0
  -31.6340  -15.2030   20.0800 O   0  0  0  0  0  0  0  0  0  0  0  0
  -29.6420  -16.3980   20.5160 N   0  0  0  0  0  0  0  0  0  0  0  0
  -28.6690  -16.1710   20.6580 H   0  0  0  0  0  0  0  0  0  0  0  0
  -25.1730  -13.8570   20.5530 C   0  0  0  0  0  0  0  0  0  0  0  0
  -24.1260  -13.0620   20.9300 C   0  0  0  0  0  0  0  0  0  0  0  0
  -24.6140  -11.7190   20.8880 C   0  0  0  0  0  0  0  0  0  0  0  0
  -26.2270  -12.9990   20.2970 N   0  0  0  0  0  0  0  0  0  0  0  0
  -25.9040  -11.7080   20.5660 N   0  0  0  0  0  0  0  0  0  0  0  0
  -23.9090  -10.4450   21.0740 C   0  0  0  0  0  0  0  0  0  0  0  0
  -24.3630   -9.4770   21.9970 C   0  0  0  0  0  3  0  0  0  0  0  0
  -23.6560   -8.2680   22.1750 C   0  0  0  0  0  3  0  0  0  0  0  0
  -22.4790   -8.0180   21.4280 C   0  0  0  0  0  0  0  0  0  0  0  0
  -22.0440   -8.9750   20.4950 C   0  0  0  0  0  3  0  0  0  0  0  0
  -22.7520  -10.1750   20.3160 C   0  0  0  0  0  3  0  0  0  0  0  0
  -21.7410   -6.8630   21.5150 O   0  0  0  0  0  0  0  0  0  0  0  0
  -21.7170   -6.1100   22.6620 C   0  0  0  0  0  0  0  0  0  0  0  0
  -21.2460   -6.6330   23.8870 C   0  0  0  0  0  3  0  0  0  0  0  0
  -21.1720   -5.8020   25.0240 C   0  0  0  0  0  3  0  0  0  0  0  0
  -21.5590   -4.4520   24.9370 C   0  0  0  0  0  0  0  0  0  0  0  0
  -22.0220   -3.9280   23.7170 C   0  0  0  0  0  3  0  0  0  0  0  0
  -22.0980   -4.7550   22.5830 C   0  0  0  0  0  0  0  0  0  0  0  0
  -22.5250   -4.2400   21.4050 F   0  0  0  0  0  0  0  0  0  0  0  0
  -21.4800   -3.6520   26.0270 F   0  0  0  0  0  0  0  0  0  0  0  0
  -22.7230  -13.5150   21.2090 C   0  0  0  0  0  0  0  0  0  0  0  0
  -22.0140  -12.8120   22.0840 N   0  0  0  0  0  0  0  0  0  0  0  0
  -22.2650  -14.5320   20.6890 O   0  0  0  0  0  0  0  0  0  0  0  0
  -22.4000  -11.9900   22.5270 H   0  0  0  0  0  0  0  0  0  0  0  0
  -21.0740  -13.0970   22.3150 H   0  0  0  0  0  0  0  0  0  0  0  0
  -25.3090  -15.2310   20.3770 N   0  0  0  0  0  0  0  0  0  0  0  0
  -24.5170  -15.8590   20.4670 H   0  0  0  0  0  0  0  0  0  0  0  0
  -26.1240  -15.6780   19.9750 H   0  0  0  0  0  0  0  0  0  0  0  0
  -28.2270  -26.0390   20.3300 O   0  0  0  0  0  0  0  0  0  0  0  0
  -24.6170  -31.9190   23.2760 C   0  0  0  0  0  0  0  0  0  0  0  0
  -27.1830  -27.0710   20.3470 C   0  0  0  0  0  0  0  0  0  0  0  0
  -23.4290  -30.5150   21.6370 C   0  0  0  0  0  3  0  0  0  0  0  0
  -24.8800  -28.8930   20.2550 C   0  0  0  0  0  0  0  0  0  0  0  0
  -25.9910  -30.7360   21.5040 C   0  0  0  0  0  2  0  0  0  0  0  0
  -26.0610  -29.3240   20.8760 C   0  0  0  0  0  0  0  0  0  0  0  0
  -27.2130  -28.4310   20.8980 C   0  0  0  0  0  3  0  0  0  0  0  0
  -25.9740  -26.7660   19.6880 C   0  0  0  0  0  3  0  0  0  0  0  0
  -24.8540  -27.6300   19.6430 C   0  0  0  0  0  3  0  0  0  0  0  0
  -23.6660  -29.8140   20.2720 C   0  0  0  0  0  2  0  0  0  0  0  0
  -24.6990  -31.0830   22.1940 N   0  0  0  0  0  0  0  0  0  0  0  0
  -23.5260  -32.2170   23.7890 O   0  0  0  0  0  0  0  0  0  0  0  0
  -22.7220  -29.5300   22.6040 C   0  0  0  0  0  0  0  0  0  0  0  0
  -21.3940  -29.3680   22.4620 N   0  0  0  0  0  0  0  0  0  0  0  0
  -23.3770  -28.9120   23.4490 O   0  0  0  0  0  0  0  0  0  0  0  0
  -20.9210  -29.9170   21.7570 H   0  0  0  0  0  0  0  0  0  0  0  0
  -17.9940  -28.2090   22.9570 C   0  0  0  0  0  0  0  0  0  0  0  0
  -20.5560  -28.4430   23.2330 C   0  0  0  0  0  3  0  0  0  0  0  0
  -20.6420  -27.0090   22.6630 C   0  0  0  0  0  2  0  0  0  0  0  0
  -19.5400  -26.6950   21.6450 C   0  0  0  0  0  2  0  0  0  0  0  0
  -18.1570  -26.8580   22.2830 C   0  0  0  0  0  2  0  0  0  0  0  0
  -19.1200  -28.9600   23.3890 C   0  0  0  0  0  0  0  0  0  0  0  0
  -18.9110  -30.2250   23.9810 C   0  0  0  0  0  3  0  0  0  0  0  0
  -17.6110  -30.7380   24.1460 C   0  0  0  0  0  3  0  0  0  0  0  0
  -16.5000  -29.9840   23.7300 C   0  0  0  0  0  3  0  0  0  0  0  0
  -16.6920  -28.7220   23.1420 C   0  0  0  0  0  3  0  0  0  0  0  0
  -25.8900  -32.5570   23.9140 C   0  0  0  0  0  3  0  0  0  0  0  0
  -25.5860  -33.9650   24.2190 N   0  0  0  0  0  0  0  0  0  0  0  0
  -25.9190  -35.0060   23.4440 C   0  0  0  0  0  0  0  0  0  0  0  0
  -26.5800  -34.8820   22.4110 O   0  0  0  0  0  0  0  0  0  0  0  0
  -25.0050  -34.1350   25.0260 H   0  0  0  0  0  0  0  0  0  0  0  0
  -24.2000  -36.8090   23.0820 C   0  0  0  0  0  1  0  0  0  0  0  0
  -25.4480  -36.4070   23.8850 C   0  0  0  0  0  3  0  0  0  0  0  0
  -27.5930  -37.2980   24.6830 C   0  0  0  0  0  1  0  0  0  0  0  0
  -26.4860  -37.4520   23.7430 N   0  0  0  0  0  0  0  0  0  0  0  0
  -26.0860  -38.3770   23.8750 H   0  0  0  0  0  0  0  0  0  0  0  0
  -26.3680  -31.8070   25.2180 C   0  0  1  0  0  0  0  0  0  0  0  0
  -25.2500  -31.6000   26.2670 C   0  0  0  0  0  1  0  0  0  0  0  0
  -26.9470  -30.4160   24.8750 C   0  0  0  0  0  1  0  0  0  0  0  0
  -27.5110  -32.6040   25.8920 C   0  0  0  0  0  1  0  0  0  0  0  0
  1  5  1  0
  1  6  1  0
  2  8  1  0
  2  4  1  0
  3  1  2  0
  4  7  1  0
  5  2  1  0
  6  8  1  0
  8 13  1  0
  9 11  1  0
 10  9  2  0
 12 14  1  0
 13 10  1  0
 13 12  2  0
 14 11  2  0
 14 23  1  0
 15 23  1  0
 16 21  1  0
 17 18  1  0
 17 16  1  0
 19 18  1  0
 19 28  1  0
 19 20  1  0
 21 15  1  0
 21 20  1  0
 22 15  2  0
 23 24  1  0
 25 26  2  0
 26 45  1  0
 27 26  1  0
 27 30  1  0
 28 25  1  0
 28 29  1  0
 29 27  2  0
 30 31  1  0
 31 32  2  0
 33 36  1  0
 33 32  1  0
 34 33  2  0
 35 34  1  0
 35 30  2  0
 36 37  1  0
 37 38  1  0
 38 39  2  0
 40 39  1  0
 40 44  1  0
 41 40  2  0
 42 37  2  0
 42 41  1  0
 43 42  1  0
 45 46  1  0
 46 49  1  0
 46 48  1  0
 47 45  2  0
 50 51  1  0
 50 25  1  0
 52 50  1  0
 53 55  1  0
 53  4  1  0
 54 65  2  0
 55 60  1  0
 56 64  1  0
 56 66  1  0
 57 63  1  0
 57 59  1  0
 58 64  1  0
 59 60  2  0
 59 58  1  0
 61 55  2  0
 62 61  1  0
 62 57  2  0
 63 56  1  0
 64 54  1  0
 66 68  2  0
 67 66  1  0
 69 67  1  0
 70 79  2  0
 70 75  1  0
 71 67  1  0
 71 75  1  0
 72 71  1  0
 73 74  1  0
 73 72  1  0
 74 70  1  0
 75 76  2  0
 76 77  1  0
 78 77  2  0
 79 78  1  0
 80 54  1  0
 80 81  1  0
 80 90  1  0
 81 84  1  0
 82 86  1  0
 82 81  1  0
 83 82  2  0
 86 85  1  0
 88 89  1  0
 88 86  1  0
 88 87  1  0
 90 93  1  1
 90 91  1  0
 92 90  1  0
M  ISO  4   4 101  15 100  23 100  53 101
M  END
>  <TORSDO>  (25) 
F 17

>  <SCORE>  (25) 
-14.564

>  <name>  (25) 
24

>  <ligand_id>  (25) 
24

>  <original_smiles>  (25) 
[H]C([H])=C1C([H])([H])C(=C(Oc2c([H])c([H])c3c(c2[H])C([H])([H])N(C(=O)C([H])(N([H])C(=O)C([H])(N([H])C([H])([H])[H])C([H])([H])[H])C(C([H])([H])[H])(C([H])([H])[H])C([H])([H])[H])C([H])(C(=O)N([H])C2([H])c4c([H])c([H])c([H])c([H])c4C([H])([H])C([H])([H])C2([H])[H])C3([H])[H])C([H])([H])[H])N(c2c([H])c([H])c([H])c(N([H])C(=O)N3C([H])([H])C([H])([H])C([H])([H])C([H])(n4nc(-c5c([H])c([H])c(Oc6c([H])c([H])c(F)c([H])c6F)c([H])c5[H])c(C(=O)N([H])[H])c4N([H])[H])C3([H])[H])c2[H])C1([H])[H]

>  <smiles>  (25) 
[H]C([H])=C1C([H])([H])C(=C(Oc2c([H])c([H])c3c(c2[H])C([H])([H])N(C(=O)C([H])(N([H])C(=O)C([H])(N([H])C([H])([H])[H])C([H])([H])[H])C(C([H])([H])[H])(C([H])([H])[H])C([H])([H])[H])C([H])(C(=O)N([H])C2([H])c4c([H])c([H])c([H])c([H])c4C([H])([H])C([H])([H])C2([H])[H])C3([H])[H])C([H])([H])[H])N(c2c([H])c([H])c([H])c(N([H])C(=O)N3C([H])([H])C([H])([H])C([H])([H])C([H])(n4nc(-c5c([H])c([H])c(Oc6c([H])c([H])c(F)c([H])c6F)c([H])c5[H])c(C(=O)N([H])[H])c4N([H])[H])C3([H])[H])c2[H])C1([H])[H]

$$$$
25:0:0
     RDKit          3D

 93102  0  0  1  0  0  0  0  0999 V2000
  -28.5270  -23.7970   20.3590 C   0  0  0  0  0  0  0  0  0  0  0  0
  -28.8320  -23.3950   18.9850 C   0  0  0  0  0  0  0  0  0  0  0  0
  -28.2400  -25.0800   20.8530 C   0  0  0  0  0  0  0  0  0  0  0  0
  -28.5890  -22.4120   21.1150 C   0  0  0  0  0  2  0  0  0  0  0  0
  -28.9440  -21.8460   18.8670 C   0  0  0  0  0  2  0  0  0  0  0  0
  -27.9660  -25.2450   22.3430 C   0  0  0  0  0  1  0  0  0  0  0  0
  -28.7920  -21.2240   20.2000 N   0  0  0  0  0  0  0  0  0  0  0  0
  -28.9920  -24.1460   18.0190 O   0  0  0  0  0  0  0  0  0  0  0  0
  -29.2070  -18.6140   20.3180 C   0  0  0  0  0  3  0  0  0  0  0  0
  -30.8990  -20.1640   21.0150 C   0  0  0  0  0  3  0  0  0  0  0  0
  -31.3700  -17.8690   21.0710 C   0  0  0  0  0  3  0  0  0  0  0  0
  -29.5870  -20.0210   20.5070 C   0  0  0  0  0  0  0  0  0  0  0  0
  -30.0960  -17.4800   20.6030 C   0  0  0  0  0  0  0  0  0  0  0  0
  -31.7520  -19.1480   21.2790 N   0  0  0  0  0  0  0  0  0  0  0  0
  -30.5610  -14.8700   20.3820 C   0  0  0  0  0  0  0  0  0  0  0  0
  -30.4150  -12.5730   19.3810 C   0  0  0  0  0  2  0  0  0  0  0  0
  -29.4850  -12.6020   18.1470 C   0  0  0  0  0  2  0  0  0  0  0  0
  -28.0140  -12.4020   18.5630 C   0  0  0  0  0  2  0  0  0  0  0  0
  -27.6140  -13.3000   19.7650 C   0  0  0  0  0  3  0  0  0  0  0  0
  -28.6630  -13.2480   20.8950 C   0  0  0  0  0  2  0  0  0  0  0  0
  -29.9510  -13.6340   20.3070 N   0  0  0  0  0  0  0  0  0  0  0  0
  -31.7600  -14.9640   20.0990 O   0  0  0  0  0  0  0  0  0  0  0  0
  -29.7610  -16.0130   20.5110 N   0  0  0  0  0  0  0  0  0  0  0  0
  -28.7760  -15.7980   20.5660 H   0  0  0  0  0  0  0  0  0  0  0  0
  -25.2190  -13.8740   20.4760 C   0  0  0  0  0  0  0  0  0  0  0  0
  -24.1570  -13.0950   20.8420 C   0  0  0  0  0  0  0  0  0  0  0  0
  -24.6310  -11.7470   20.8210 C   0  0  0  0  0  0  0  0  0  0  0  0
  -26.2700  -13.0030   20.2510 N   0  0  0  0  0  0  0  0  0  0  0  0
  -25.9250  -11.7190   20.5230 N   0  0  0  0  0  0  0  0  0  0  0  0
  -23.9110  -10.4800   21.0110 C   0  0  0  0  0  0  0  0  0  0  0  0
  -24.3340   -9.5250   21.9620 C   0  0  0  0  0  3  0  0  0  0  0  0
  -23.6130   -8.3240   22.1370 C   0  0  0  0  0  3  0  0  0  0  0  0
  -22.4580   -8.0690   21.3610 C   0  0  0  0  0  0  0  0  0  0  0  0
  -22.0580   -9.0100   20.3970 C   0  0  0  0  0  3  0  0  0  0  0  0
  -22.7780  -10.2030   20.2190 C   0  0  0  0  0  3  0  0  0  0  0  0
  -21.7100   -6.9180   21.4480 O   0  0  0  0  0  0  0  0  0  0  0  0
  -21.6320   -6.1960   22.6120 C   0  0  0  0  0  0  0  0  0  0  0  0
  -21.1380   -6.7600   23.8080 C   0  0  0  0  0  3  0  0  0  0  0  0
  -21.0120   -5.9610   24.9620 C   0  0  0  0  0  3  0  0  0  0  0  0
  -21.3680   -4.5990   24.9200 C   0  0  0  0  0  0  0  0  0  0  0  0
  -21.8530   -4.0350   23.7270 C   0  0  0  0  0  3  0  0  0  0  0  0
  -21.9820   -4.8310   22.5760 C   0  0  0  0  0  0  0  0  0  0  0  0
  -22.4310   -4.2780   21.4230 F   0  0  0  0  0  0  0  0  0  0  0  0
  -21.2370   -3.8290   26.0250 F   0  0  0  0  0  0  0  0  0  0  0  0
  -22.7530  -13.5610   21.0980 C   0  0  0  0  0  0  0  0  0  0  0  0
  -22.0240  -12.8620   21.9600 N   0  0  0  0  0  0  0  0  0  0  0  0
  -22.3150  -14.5820   20.5680 O   0  0  0  0  0  0  0  0  0  0  0  0
  -22.3940  -12.0400   22.4130 H   0  0  0  0  0  0  0  0  0  0  0  0
  -21.0770  -13.1480   22.1660 H   0  0  0  0  0  0  0  0  0  0  0  0
  -25.3710  -15.2450   20.2900 N   0  0  0  0  0  0  0  0  0  0  0  0
  -24.5910  -15.8860   20.3630 H   0  0  0  0  0  0  0  0  0  0  0  0
  -26.2070  -15.6860   19.9320 H   0  0  0  0  0  0  0  0  0  0  0  0
  -28.2970  -26.3600   20.1920 O   0  0  0  0  0  0  0  0  0  0  0  0
  -24.6140  -31.9000   23.2520 C   0  0  0  0  0  0  0  0  0  0  0  0
  -27.2110  -27.2770   20.2160 C   0  0  0  0  0  0  0  0  0  0  0  0
  -23.4090  -30.5050   21.6100 C   0  0  0  0  0  3  0  0  0  0  0  0
  -24.8580  -28.9370   20.1930 C   0  0  0  0  0  0  0  0  0  0  0  0
  -25.9540  -30.8040   21.4290 C   0  0  0  0  0  2  0  0  0  0  0  0
  -26.0320  -29.4150   20.7900 C   0  0  0  0  0  0  0  0  0  0  0  0
  -27.2120  -28.5990   20.7870 C   0  0  0  0  0  3  0  0  0  0  0  0
  -26.0160  -26.8730   19.5890 C   0  0  0  0  0  3  0  0  0  0  0  0
  -24.8550  -27.6730   19.5840 C   0  0  0  0  0  3  0  0  0  0  0  0
  -23.6290  -29.8270   20.2330 C   0  0  0  0  0  2  0  0  0  0  0  0
  -24.6800  -31.0890   22.1550 N   0  0  0  0  0  0  0  0  0  0  0  0
  -23.5300  -32.1770   23.7880 O   0  0  0  0  0  0  0  0  0  0  0  0
  -22.7380  -29.4940   22.5710 C   0  0  0  0  0  0  0  0  0  0  0  0
  -21.4110  -29.3140   22.4430 N   0  0  0  0  0  0  0  0  0  0  0  0
  -23.4140  -28.8730   23.3960 O   0  0  0  0  0  0  0  0  0  0  0  0
  -20.9200  -29.8700   21.7560 H   0  0  0  0  0  0  0  0  0  0  0  0
  -18.0410  -28.0940   22.9400 C   0  0  0  0  0  0  0  0  0  0  0  0
  -20.5990  -28.3720   23.2170 C   0  0  0  0  0  3  0  0  0  0  0  0
  -20.7100  -26.9380   22.6480 C   0  0  0  0  0  2  0  0  0  0  0  0
  -19.6130  -26.6040   21.6310 C   0  0  0  0  0  2  0  0  0  0  0  0
  -18.2290  -26.7450   22.2680 C   0  0  0  0  0  2  0  0  0  0  0  0
  -19.1540  -28.8640   23.3730 C   0  0  0  0  0  0  0  0  0  0  0  0
  -18.9250  -30.1250   23.9640 C   0  0  0  0  0  3  0  0  0  0  0  0
  -17.6150  -30.6180   24.1260 C   0  0  0  0  0  3  0  0  0  0  0  0
  -16.5180  -29.8470   23.7070 C   0  0  0  0  0  3  0  0  0  0  0  0
  -16.7310  -28.5870   23.1200 C   0  0  0  0  0  3  0  0  0  0  0  0
  -25.8930  -32.5350   23.8750 C   0  0  0  0  0  3  0  0  0  0  0  0
  -25.5850  -33.9350   24.2020 N   0  0  0  0  0  0  0  0  0  0  0  0
  -25.9110  -34.9860   23.4380 C   0  0  0  0  0  0  0  0  0  0  0  0
  -26.5730  -34.8790   22.4020 O   0  0  0  0  0  0  0  0  0  0  0  0
  -24.9990  -34.0940   25.0070 H   0  0  0  0  0  0  0  0  0  0  0  0
  -24.1850  -36.7820   23.0880 C   0  0  0  0  0  1  0  0  0  0  0  0
  -25.4300  -36.3770   23.8950 C   0  0  0  0  0  3  0  0  0  0  0  0
  -27.5690  -37.2640   24.7110 C   0  0  0  0  0  1  0  0  0  0  0  0
  -26.4630  -37.4280   23.7710 N   0  0  0  0  0  0  0  0  0  0  0  0
  -26.0590  -38.3490   23.9160 H   0  0  0  0  0  0  0  0  0  0  0  0
  -26.4030  -31.7680   25.1560 C   0  0  1  0  0  0  0  0  0  0  0  0
  -25.3060  -31.5400   26.2220 C   0  0  0  0  0  1  0  0  0  0  0  0
  -26.9830  -30.3880   24.7730 C   0  0  0  0  0  1  0  0  0  0  0  0
  -27.5560  -32.5610   25.8170 C   0  0  0  0  0  1  0  0  0  0  0  0
  1  3  2  0
  1  4  1  0
  2  1  1  0
  3  6  1  0
  5  2  1  0
  5  7  1  0
  7 12  1  0
  7  4  1  0
  8  2  2  0
  9 12  2  0
  9 13  1  0
 10 14  2  0
 11 14  1  0
 12 10  1  0
 13 11  2  0
 15 23  1  0
 16 21  1  0
 17 18  1  0
 17 16  1  0
 19 18  1  0
 19 28  1  0
 19 20  1  0
 21 15  1  0
 21 20  1  0
 22 15  2  0
 23 24  1  0
 23 13  1  0
 25 26  2  0
 26 45  1  0
 27 26  1  0
 27 30  1  0
 28 25  1  0
 28 29  1  0
 29 27  2  0
 30 31  1  0
 31 32  2  0
 33 36  1  0
 33 32  1  0
 34 33  2  0
 35 34  1  0
 35 30  2  0
 36 37  1  0
 37 38  1  0
 38 39  2  0
 40 39  1  0
 40 44  1  0
 41 40  2  0
 42 37  2  0
 42 41  1  0
 43 42  1  0
 45 46  1  0
 46 49  1  0
 46 48  1  0
 47 45  2  0
 50 51  1  0
 50 25  1  0
 52 50  1  0
 53 55  1  0
 53  3  1  0
 54 65  2  0
 55 60  1  0
 56 64  1  0
 56 66  1  0
 57 63  1  0
 57 59  1  0
 58 64  1  0
 59 58  1  0
 60 59  2  0
 61 55  2  0
 62 61  1  0
 62 57  2  0
 63 56  1  0
 64 54  1  0
 66 68  2  0
 67 66  1  0
 69 67  1  0
 70 79  2  0
 70 75  1  0
 71 67  1  0
 71 75  1  0
 72 71  1  0
 73 74  1  0
 73 72  1  0
 74 70  1  0
 75 76  2  0
 76 77  1  0
 78 77  2  0
 79 78  1  0
 80 54  1  0
 80 81  1  0
 80 90  1  0
 81 84  1  0
 82 86  1  0
 82 81  1  0
 83 82  2  0
 86 85  1  0
 88 86  1  0
 88 89  1  0
 88 87  1  0
 90 93  1  1
 90 91  1  0
 92 90  1  0
M  ISO  4   3 101  15 100  23 100  53 101
M  END
>  <TORSDO>  (26) 
F 17

>  <SCORE>  (26) 
-15.386

>  <name>  (26) 
25

>  <ligand_id>  (26) 
25

>  <original_smiles>  (26) 
[H]c1nc([H])c(N2C([H])([H])C(=O)C(=C(Oc3c([H])c([H])c4c(c3[H])C([H])([H])N(C(=O)C([H])(N([H])C(=O)C([H])(N([H])C([H])([H])[H])C([H])([H])[H])C(C([H])([H])[H])(C([H])([H])[H])C([H])([H])[H])C([H])(C(=O)N([H])C3([H])c5c([H])c([H])c([H])c([H])c5C([H])([H])C([H])([H])C3([H])[H])C4([H])[H])C([H])([H])[H])C2([H])[H])c([H])c1N([H])C(=O)N1C([H])([H])C([H])([H])C([H])([H])C([H])(n2nc(-c3c([H])c([H])c(Oc4c([H])c([H])c(F)c([H])c4F)c([H])c3[H])c(C(=O)N([H])[H])c2N([H])[H])C1([H])[H]

>  <smiles>  (26) 
[H]c1nc([H])c(N2C([H])([H])C(=O)C(=C(Oc3c([H])c([H])c4c(c3[H])C([H])([H])N(C(=O)C([H])(N([H])C(=O)C([H])(N([H])C([H])([H])[H])C([H])([H])[H])C(C([H])([H])[H])(C([H])([H])[H])C([H])([H])[H])C([H])(C(=O)N([H])C3([H])c5c([H])c([H])c([H])c([H])c5C([H])([H])C([H])([H])C3([H])[H])C4([H])[H])C([H])([H])[H])C2([H])[H])c([H])c1N([H])C(=O)N1C([H])([H])C([H])([H])C([H])([H])C([H])(n2nc(-c3c([H])c([H])c(Oc4c([H])c([H])c(F)c([H])c4F)c([H])c3[H])c(C(=O)N([H])[H])c2N([H])[H])C1([H])[H]

$$$$
26:0:0
     RDKit          3D

 89 97  0  0  1  0  0  0  0  0999 V2000
  -28.2810  -22.1860   20.4720 C   0  0  0  0  0  0  0  0  0  0  0  0
  -27.1240  -22.1990   20.9090 O   0  0  0  0  0  0  0  0  0  0  0  0
  -30.1380  -20.1260   19.8430 C   0  0  0  0  0  3  0  0  0  0  0  0
  -28.0880  -19.5890   20.8450 C   0  0  0  0  0  3  0  0  0  0  0  0
  -30.4790  -18.6910   19.8050 C   0  0  0  0  0  3  0  0  0  0  0  0
  -28.4150  -18.1870   20.8090 C   0  0  0  0  0  3  0  0  0  0  0  0
  -28.9010  -20.6720   20.3610 C   0  0  0  0  0  0  0  0  0  0  0  0
  -29.6190  -17.6300   20.2850 C   0  0  0  0  0  0  0  0  0  0  0  0
  -30.5990  -15.0390   19.9110 C   0  0  0  0  0  0  0  0  0  0  0  0
  -30.4680  -12.7230   18.8840 C   0  0  0  0  0  2  0  0  0  0  0  0
  -29.4420  -12.7380   17.7250 C   0  0  0  0  0  2  0  0  0  0  0  0
  -28.0100  -12.5060   18.2490 C   0  0  0  0  0  2  0  0  0  0  0  0
  -27.6910  -13.3720   19.4950 C   0  0  0  0  0  3  0  0  0  0  0  0
  -28.8260  -13.3080   20.5410 C   0  0  0  0  0  2  0  0  0  0  0  0
  -30.0580  -13.7560   19.8750 N   0  0  0  0  0  0  0  0  0  0  0  0
  -31.7500  -15.1980   19.4880 O   0  0  0  0  0  0  0  0  0  0  0  0
  -29.7450  -16.1000   20.2920 N   0  0  0  0  0  0  0  0  0  0  0  0
  -28.9060  -15.6790   20.6590 H   0  0  0  0  0  0  0  0  0  0  0  0
  -25.3630  -13.9160   20.4160 C   0  0  0  0  0  0  0  0  0  0  0  0
  -24.3290  -13.1240   20.8310 C   0  0  0  0  0  0  0  0  0  0  0  0
  -24.7910  -11.7770   20.7130 C   0  0  0  0  0  0  0  0  0  0  0  0
  -26.3890  -13.0520   20.0700 N   0  0  0  0  0  0  0  0  0  0  0  0
  -26.0560  -11.7580   20.3120 N   0  0  0  0  0  0  0  0  0  0  0  0
  -24.0800  -10.5060   20.9040 C   0  0  0  0  0  0  0  0  0  0  0  0
  -24.5110   -9.5540   21.8530 C   0  0  0  0  0  3  0  0  0  0  0  0
  -23.8000   -8.3480   22.0320 C   0  0  0  0  0  3  0  0  0  0  0  0
  -22.6420   -8.0850   21.2610 C   0  0  0  0  0  0  0  0  0  0  0  0
  -22.2300   -9.0280   20.3020 C   0  0  0  0  0  3  0  0  0  0  0  0
  -22.9420  -10.2250   20.1220 C   0  0  0  0  0  3  0  0  0  0  0  0
  -21.9020   -6.9310   21.3490 O   0  0  0  0  0  0  0  0  0  0  0  0
  -21.7540   -6.2600   22.5360 C   0  0  0  0  0  0  0  0  0  0  0  0
  -21.1910   -6.8760   23.6750 C   0  0  0  0  0  3  0  0  0  0  0  0
  -20.9920   -6.1280   24.8530 C   0  0  0  0  0  3  0  0  0  0  0  0
  -21.3460   -4.7660   24.8930 C   0  0  0  0  0  0  0  0  0  0  0  0
  -21.9010   -4.1500   23.7570 C   0  0  0  0  0  3  0  0  0  0  0  0
  -22.1010   -4.8940   22.5820 C   0  0  0  0  0  0  0  0  0  0  0  0
  -22.6170   -4.2900   21.4850 F   0  0  0  0  0  0  0  0  0  0  0  0
  -21.1470   -4.0470   26.0210 F   0  0  0  0  0  0  0  0  0  0  0  0
  -22.9530  -13.5860   21.2190 C   0  0  0  0  0  0  0  0  0  0  0  0
  -22.2890  -12.8560   22.1060 N   0  0  0  0  0  0  0  0  0  0  0  0
  -22.4790  -14.6290   20.7690 O   0  0  0  0  0  0  0  0  0  0  0  0
  -22.6850  -12.0120   22.4920 H   0  0  0  0  0  0  0  0  0  0  0  0
  -21.3690  -13.1480   22.4070 H   0  0  0  0  0  0  0  0  0  0  0  0
  -25.5100  -15.2940   20.2780 N   0  0  0  0  0  0  0  0  0  0  0  0
  -24.7350  -15.9270   20.4420 H   0  0  0  0  0  0  0  0  0  0  0  0
  -26.2990  -15.7440   19.8340 H   0  0  0  0  0  0  0  0  0  0  0  0
  -28.8160  -23.6510   20.1570 C   0  0  0  0  0  3  0  0  0  0  0  0
  -28.0460  -24.8380   20.3180 C   0  0  0  0  0  3  0  0  0  0  0  0
  -28.3180  -26.2660   20.1230 O   0  0  0  0  0  0  0  0  0  0  0  0
  -24.6750  -31.9040   23.1960 C   0  0  0  0  0  0  0  0  0  0  0  0
  -27.2570  -27.2410   20.1090 C   0  0  0  0  0  0  0  0  0  0  0  0
  -23.4670  -30.5110   21.5590 C   0  0  0  0  0  3  0  0  0  0  0  0
  -24.9120  -28.9570   20.1090 C   0  0  0  0  0  0  0  0  0  0  0  0
  -26.0160  -30.7980   21.3700 C   0  0  0  0  0  2  0  0  0  0  0  0
  -26.0930  -29.4100   20.7130 C   0  0  0  0  0  0  0  0  0  0  0  0
  -27.2650  -28.5670   20.7010 C   0  0  0  0  0  3  0  0  0  0  0  0
  -26.0520  -26.8910   19.4610 C   0  0  0  0  0  3  0  0  0  0  0  0
  -24.9030  -27.7100   19.4680 C   0  0  0  0  0  3  0  0  0  0  0  0
  -23.6790  -29.8440   20.1730 C   0  0  0  0  0  2  0  0  0  0  0  0
  -24.7390  -31.0920   22.0970 N   0  0  0  0  0  0  0  0  0  0  0  0
  -23.5930  -32.1790   23.7370 O   0  0  0  0  0  0  0  0  0  0  0  0
  -22.8050  -29.4940   22.5210 C   0  0  0  0  0  0  0  0  0  0  0  0
  -21.4770  -29.3130   22.4030 N   0  0  0  0  0  0  0  0  0  0  0  0
  -23.4880  -28.8700   23.3380 O   0  0  0  0  0  0  0  0  0  0  0  0
  -20.9830  -29.8670   21.7190 H   0  0  0  0  0  0  0  0  0  0  0  0
  -18.1080  -28.0930   22.9350 C   0  0  0  0  0  0  0  0  0  0  0  0
  -20.6690  -28.3660   23.1770 C   0  0  0  0  0  3  0  0  0  0  0  0
  -20.7710  -26.9380   22.5940 C   0  0  0  0  0  2  0  0  0  0  0  0
  -19.6600  -26.6160   21.5880 C   0  0  0  0  0  2  0  0  0  0  0  0
  -18.2850  -26.7500   22.2480 C   0  0  0  0  0  2  0  0  0  0  0  0
  -19.2270  -28.8590   23.3590 C   0  0  0  0  0  0  0  0  0  0  0  0
  -19.0060  -30.1150   23.9640 C   0  0  0  0  0  3  0  0  0  0  0  0
  -17.7000  -30.6050   24.1500 C   0  0  0  0  0  3  0  0  0  0  0  0
  -16.5950  -29.8370   23.7430 C   0  0  0  0  0  3  0  0  0  0  0  0
  -16.8010  -28.5830   23.1410 C   0  0  0  0  0  3  0  0  0  0  0  0
  -25.9560  -32.5430   23.8120 C   0  0  0  0  0  3  0  0  0  0  0  0
  -25.6380  -33.9360   24.1650 N   0  0  0  0  0  0  0  0  0  0  0  0
  -25.9340  -35.0030   23.4110 C   0  0  0  0  0  0  0  0  0  0  0  0
  -26.5750  -34.9200   22.3600 O   0  0  0  0  0  0  0  0  0  0  0  0
  -25.0670  -34.0740   24.9870 H   0  0  0  0  0  0  0  0  0  0  0  0
  -24.1720  -36.7790   23.1390 C   0  0  0  0  0  1  0  0  0  0  0  0
  -25.4480  -36.3820   23.9000 C   0  0  0  0  0  3  0  0  0  0  0  0
  -27.5960  -37.2930   24.6650 C   0  0  0  0  0  1  0  0  0  0  0  0
  -26.4620  -37.4490   23.7580 N   0  0  0  0  0  0  0  0  0  0  0  0
  -26.0490  -38.3640   23.9210 H   0  0  0  0  0  0  0  0  0  0  0  0
  -26.4900  -31.7650   25.0780 C   0  0  1  0  0  0  0  0  0  0  0  0
  -25.4070  -31.5090   26.1540 C   0  0  0  0  0  1  0  0  0  0  0  0
  -27.0800  -30.3950   24.6740 C   0  0  0  0  0  1  0  0  0  0  0  0
  -27.6400  -32.5620   25.7370 C   0  0  0  0  0  1  0  0  0  0  0  0
  1  2  2  0
  3  7  1  0
  5  3  2  0
  5  8  1  0
  6  4  1  0
  7  1  1  0
  7  4  2  0
  8 17  1  0
  8  6  2  0
  9 17  1  0
 10 15  1  0
 11 12  1  0
 11 10  1  0
 13 12  1  0
 13 22  1  0
 13 14  1  0
 15  9  1  0
 15 14  1  0
 16  9  2  0
 17 18  1  0
 19 20  2  0
 20 39  1  0
 21 20  1  0
 21 24  1  0
 22 23  1  0
 22 19  1  0
 23 21  2  0
 24 25  1  0
 25 26  2  0
 27 30  1  0
 27 26  1  0
 28 27  2  0
 29 28  1  0
 29 24  2  0
 30 31  1  0
 31 36  2  0
 31 32  1  0
 32 33  2  0
 33 34  1  0
 34 38  1  0
 35 34  2  0
 36 35  1  0
 37 36  1  0
 39 40  1  0
 40 43  1  0
 40 42  1  0
 41 39  2  0
 44 19  1  0
 44 45  1  0
 46 44  1  0
 47 48  2  0
 47  1  1  0
 49 48  1  0
 50 61  2  0
 51 49  1  0
 51 56  1  0
 52 60  1  0
 52 62  1  0
 53 59  1  0
 53 55  1  0
 54 60  1  0
 55 54  1  0
 56 55  2  0
 57 58  1  0
 57 51  2  0
 58 53  2  0
 59 52  1  0
 60 50  1  0
 62 64  2  0
 63 62  1  0
 65 63  1  0
 66 75  2  0
 66 71  1  0
 67 63  1  0
 67 71  1  0
 68 67  1  0
 69 70  1  0
 69 68  1  0
 70 66  1  0
 71 72  2  0
 72 73  1  0
 74 73  2  0
 75 74  1  0
 76 50  1  0
 76 77  1  0
 76 86  1  0
 77 80  1  0
 78 82  1  0
 78 77  1  0
 79 78  2  0
 82 81  1  0
 84 82  1  0
 84 85  1  0
 84 83  1  0
 86 89  1  1
 86 87  1  0
 88 86  1  0
M  ISO  4   9 100  17 100  48 101  49 101
M  END
>  <TORSDO>  (27) 
F 18

>  <SCORE>  (27) 
-13.721

>  <name>  (27) 
26

>  <ligand_id>  (27) 
26

>  <original_smiles>  (27) 
[H]C(Oc1c([H])c([H])c2c(c1[H])C([H])([H])N(C(=O)C([H])(N([H])C(=O)C([H])(N([H])C([H])([H])[H])C([H])([H])[H])C(C([H])([H])[H])(C([H])([H])[H])C([H])([H])[H])C([H])(C(=O)N([H])C1([H])c3c([H])c([H])c([H])c([H])c3C([H])([H])C([H])([H])C1([H])[H])C2([H])[H])=C([H])C(=O)c1c([H])c([H])c(N([H])C(=O)N2C([H])([H])C([H])([H])C([H])([H])C([H])(n3nc(-c4c([H])c([H])c(Oc5c([H])c([H])c(F)c([H])c5F)c([H])c4[H])c(C(=O)N([H])[H])c3N([H])[H])C2([H])[H])c([H])c1[H]

>  <smiles>  (27) 
[H]C(Oc1c([H])c([H])c2c(c1[H])C([H])([H])N(C(=O)C([H])(N([H])C(=O)C([H])(N([H])C([H])([H])[H])C([H])([H])[H])C(C([H])([H])[H])(C([H])([H])[H])C([H])([H])[H])C([H])(C(=O)N([H])C1([H])c3c([H])c([H])c([H])c([H])c3C([H])([H])C([H])([H])C1([H])[H])C2([H])[H])=C([H])C(=O)c1c([H])c([H])c(N([H])C(=O)N2C([H])([H])C([H])([H])C([H])([H])C([H])(n3nc(-c4c([H])c([H])c(Oc5c([H])c([H])c(F)c([H])c5F)c([H])c4[H])c(C(=O)N([H])[H])c3N([H])[H])C2([H])[H])c([H])c1[H]

$$$$
27:0:0
     RDKit          3D

 99107  0  0  1  0  0  0  0  0999 V2000
  -30.5910  -19.3180   22.3890 C   0  0  0  0  0  3  0  0  0  0  0  0
  -30.6710  -18.0500   21.7720 C   0  0  0  0  0  3  0  0  0  0  0  0
  -29.6990  -19.0910   19.8160 C   0  0  0  0  0  3  0  0  0  0  0  0
  -30.0730  -20.4900   21.7700 C   0  0  0  0  0  0  0  0  0  0  0  0
  -30.1800  -17.8230   20.4740 C   0  0  0  0  0  0  0  0  0  0  0  0
  -29.6710  -20.4900   20.3880 C   0  0  0  0  0  0  0  0  0  0  0  0
  -30.8470  -15.1350   20.1950 C   0  0  0  0  0  0  0  0  0  0  0  0
  -30.7560  -12.7340   19.3320 C   0  0  0  0  0  2  0  0  0  0  0  0
  -29.8280  -12.5890   18.1040 C   0  0  0  0  0  2  0  0  0  0  0  0
  -28.3630  -12.3900   18.5400 C   0  0  0  0  0  2  0  0  0  0  0  0
  -27.9390  -13.3750   19.6610 C   0  0  0  0  0  3  0  0  0  0  0  0
  -28.9890  -13.4660   20.7860 C   0  0  0  0  0  2  0  0  0  0  0  0
  -30.2470  -13.8740   20.1470 N   0  0  0  0  0  0  0  0  0  0  0  0
  -32.0750  -15.1610   20.0500 O   0  0  0  0  0  0  0  0  0  0  0  0
  -30.0610  -16.3320   20.0520 N   0  0  0  0  0  0  0  0  0  0  0  0
  -29.1410  -16.1050   19.7100 H   0  0  0  0  0  0  0  0  0  0  0  0
  -25.5740  -13.9960   20.4040 C   0  0  0  0  0  0  0  0  0  0  0  0
  -24.4960  -13.2410   20.7780 C   0  0  0  0  0  0  0  0  0  0  0  0
  -24.9410  -11.8830   20.7620 C   0  0  0  0  0  0  0  0  0  0  0  0
  -26.6010  -13.0990   20.1700 N   0  0  0  0  0  0  0  0  0  0  0  0
  -26.2310  -11.8230   20.4530 N   0  0  0  0  0  0  0  0  0  0  0  0
  -24.1940  -10.6350   20.9620 C   0  0  0  0  0  0  0  0  0  0  0  0
  -24.5940   -9.6800   21.9230 C   0  0  0  0  0  3  0  0  0  0  0  0
  -23.8460   -8.4970   22.1100 C   0  0  0  0  0  3  0  0  0  0  0  0
  -22.6840   -8.2640   21.3390 C   0  0  0  0  0  0  0  0  0  0  0  0
  -22.3030   -9.2060   20.3670 C   0  0  0  0  0  3  0  0  0  0  0  0
  -23.0520  -10.3800   20.1780 C   0  0  0  0  0  3  0  0  0  0  0  0
  -21.9100   -7.1330   21.4340 O   0  0  0  0  0  0  0  0  0  0  0  0
  -21.8200   -6.4190   22.6010 C   0  0  0  0  0  0  0  0  0  0  0  0
  -21.3290   -6.9960   23.7930 C   0  0  0  0  0  3  0  0  0  0  0  0
  -21.1880   -6.2070   24.9520 C   0  0  0  0  0  3  0  0  0  0  0  0
  -21.5280   -4.8420   24.9210 C   0  0  0  0  0  0  0  0  0  0  0  0
  -22.0140   -4.2630   23.7350 C   0  0  0  0  0  3  0  0  0  0  0  0
  -22.1560   -5.0490   22.5780 C   0  0  0  0  0  0  0  0  0  0  0  0
  -22.6040   -4.4830   21.4330 F   0  0  0  0  0  0  0  0  0  0  0  0
  -21.3880   -4.0820   26.0320 F   0  0  0  0  0  0  0  0  0  0  0  0
  -23.1070  -13.7440   21.0400 C   0  0  0  0  0  0  0  0  0  0  0  0
  -22.3660  -13.0730   21.9130 N   0  0  0  0  0  0  0  0  0  0  0  0
  -22.6890  -14.7690   20.5040 O   0  0  0  0  0  0  0  0  0  0  0  0
  -22.7180  -12.2430   22.3670 H   0  0  0  0  0  0  0  0  0  0  0  0
  -21.4330  -13.3940   22.1330 H   0  0  0  0  0  0  0  0  0  0  0  0
  -25.7590  -15.3630   20.2200 N   0  0  0  0  0  0  0  0  0  0  0  0
  -25.0050  -16.0310   20.3450 H   0  0  0  0  0  0  0  0  0  0  0  0
  -26.6150  -15.7950   19.9010 H   0  0  0  0  0  0  0  0  0  0  0  0
  -29.8650  -21.6180   22.7020 C   0  0  0  0  0  0  0  0  0  0  0  0
  -28.7630  -22.3620   22.6340 N   0  0  0  0  0  4  0  0  0  0  0  0
  -30.7460  -21.8920   23.6660 N   0  0  0  0  0  0  0  0  0  0  0  0
  -28.1380  -22.1990   21.8550 H   0  0  0  0  0  0  0  0  0  0  0  0
  -28.5230  -23.0780   23.3020 H   0  0  0  0  0  0  0  0  0  0  0  0
  -31.6090  -21.3710   23.7240 H   0  0  0  0  0  0  0  0  0  0  0  0
  -30.6160  -22.6580   24.3080 H   0  0  0  0  0  0  0  0  0  0  0  0
  -29.1610  -21.7500   19.7140 N   0  0  0  0  0  4  0  0  0  0  0  0
  -28.7590  -21.5320   18.8060 H   0  0  0  0  0  0  0  0  0  0  0  0
  -29.4940  -23.3160   19.7540 C   0  0  0  0  0  0  0  0  0  0  0  0
  -30.8260  -23.6440   20.4600 C   0  0  0  0  0  0  0  0  0  0  0  0
  -32.0990  -23.0590   19.8580 C   0  0  0  0  0  1  0  0  0  0  0  0
  -30.9050  -24.3200   21.4860 O   0  0  0  0  0  0  0  0  0  0  0  0
  -28.3570  -24.5910   19.9980 C   0  0  0  0  0  2  0  0  0  0  0  0
  -28.5320  -26.1680   19.8920 O   0  0  0  0  0  0  0  0  0  0  0  0
  -24.6330  -31.6490   23.0660 C   0  0  0  0  0  0  0  0  0  0  0  0
  -27.4330  -27.1230   19.8910 C   0  0  0  0  0  0  0  0  0  0  0  0
  -23.5090  -30.2710   21.3620 C   0  0  0  0  0  3  0  0  0  0  0  0
  -25.0360  -28.8040   19.8990 C   0  0  0  0  0  0  0  0  0  0  0  0
  -26.0570  -30.6310   21.2420 C   0  0  0  0  0  2  0  0  0  0  0  0
  -26.1930  -29.2650   20.5370 C   0  0  0  0  0  0  0  0  0  0  0  0
  -27.3920  -28.4460   20.5110 C   0  0  0  0  0  3  0  0  0  0  0  0
  -26.2410  -26.7760   19.2180 C   0  0  0  0  0  3  0  0  0  0  0  0
  -25.0750  -27.5750   19.2220 C   0  0  0  0  0  3  0  0  0  0  0  0
  -23.7730  -29.6530   19.9630 C   0  0  0  0  0  2  0  0  0  0  0  0
  -24.7520  -30.8730   21.9440 N   0  0  0  0  0  0  0  0  0  0  0  0
  -23.5310  -31.8670   23.5930 O   0  0  0  0  0  0  0  0  0  0  0  0
  -22.8620  -29.2030   22.2790 C   0  0  0  0  0  0  0  0  0  0  0  0
  -21.5380  -28.9990   22.1510 N   0  0  0  0  0  0  0  0  0  0  0  0
  -23.5560  -28.5570   23.0690 O   0  0  0  0  0  0  0  0  0  0  0  0
  -21.0350  -29.5690   21.4860 H   0  0  0  0  0  0  0  0  0  0  0  0
  -18.1860  -27.7110   22.6500 C   0  0  0  0  0  0  0  0  0  0  0  0
  -20.7470  -28.0030   22.8800 C   0  0  0  0  0  3  0  0  0  0  0  0
  -20.8610  -26.6100   22.2180 C   0  0  0  0  0  2  0  0  0  0  0  0
  -19.7410  -26.3300   21.2100 C   0  0  0  0  0  2  0  0  0  0  0  0
  -18.3710  -26.4100   21.8880 C   0  0  0  0  0  2  0  0  0  0  0  0
  -19.3010  -28.4670   23.1020 C   0  0  0  0  0  0  0  0  0  0  0  0
  -19.0710  -29.6860   23.7760 C   0  0  0  0  0  3  0  0  0  0  0  0
  -17.7620  -30.1500   24.0010 C   0  0  0  0  0  3  0  0  0  0  0  0
  -16.6630  -29.3910   23.5620 C   0  0  0  0  0  3  0  0  0  0  0  0
  -16.8770  -28.1730   22.8940 C   0  0  0  0  0  3  0  0  0  0  0  0
  -25.8760  -32.3150   23.7310 C   0  0  0  0  0  3  0  0  0  0  0  0
  -25.5070  -33.6920   24.0990 N   0  0  0  0  0  0  0  0  0  0  0  0
  -25.7910  -34.7800   23.3700 C   0  0  0  0  0  0  0  0  0  0  0  0
  -26.4530  -34.7310   22.3300 O   0  0  0  0  0  0  0  0  0  0  0  0
  -24.9170  -33.7980   24.9110 H   0  0  0  0  0  0  0  0  0  0  0  0
  -23.9790  -36.5020   23.0970 C   0  0  0  0  0  1  0  0  0  0  0  0
  -25.2550  -36.1370   23.8710 C   0  0  0  0  0  3  0  0  0  0  0  0
  -27.3600  -37.1010   24.6850 C   0  0  0  0  0  1  0  0  0  0  0  0
  -26.2390  -37.2360   23.7590 N   0  0  0  0  0  0  0  0  0  0  0  0
  -25.7960  -38.1360   23.9260 H   0  0  0  0  0  0  0  0  0  0  0  0
  -26.3910  -31.5300   24.9990 C   0  0  1  0  0  0  0  0  0  0  0  0
  -25.2820  -31.2340   26.0380 C   0  0  0  0  0  1  0  0  0  0  0  0
  -27.0290  -30.1820   24.5920 C   0  0  0  0  0  1  0  0  0  0  0  0
  -27.5030  -32.3440   25.7000 C   0  0  0  0  0  1  0  0  0  0  0  0
  2  1  1  0
  3  6  2  0
  3  5  1  0
  4  1  2  0
  4 45  1  0
  5  2  2  0
  6  4  1  0
  8 13  1  0
  9 10  1  0
  9  8  1  0
 11 10  1  0
 11 20  1  0
 11 12  1  0
 13  7  1  0
 13 12  1  0
 14  7  2  0
 15  7  1  0
 15  5  1  0
 16 15  1  0
 17 18  2  0
 18 37  1  0
 19 18  1  0
 19 22  1  0
 20 17  1  0
 20 21  1  0
 21 19  2  0
 22 23  1  0
 23 24  2  0
 25 28  1  0
 25 24  1  0
 26 25  2  0
 27 26  1  0
 27 22  2  0
 28 29  1  0
 29 30  1  0
 30 31  2  0
 32 31  1  0
 32 36  1  0
 33 32  2  0
 34 29  2  0
 34 33  1  0
 35 34  1  0
 37 38  1  0
 38 41  1  0
 38 40  1  0
 39 37  2  0
 42 43  1  0
 42 17  1  0
 44 42  1  0
 45 47  1  0
 46 45  2  0
 46 49  1  0
 47 50  1  0
 47 51  1  0
 48 46  1  0
 52 54  2  0
 52  6  1  0
 53 52  1  0
 54 58  1  0
 54 55  1  0
 55 57  2  0
 56 55  1  0
 59 58  1  0
 60 71  2  0
 61 59  1  0
 61 66  1  0
 62 70  1  0
 62 72  1  0
 63 69  1  0
 63 65  1  0
 64 70  1  0
 65 64  1  0
 66 65  2  0
 67 68  1  0
 67 61  2  0
 68 63  2  0
 69 62  1  0
 70 60  1  0
 72 74  2  0
 73 72  1  0
 75 73  1  0
 76 85  2  0
 76 81  1  0
 77 73  1  0
 77 81  1  0
 78 77  1  0
 79 80  1  0
 79 78  1  0
 80 76  1  0
 81 82  2  0
 82 83  1  0
 84 83  2  0
 85 84  1  0
 86 60  1  0
 86 87  1  0
 86 96  1  0
 87 90  1  0
 88 92  1  0
 88 87  1  0
 89 88  2  0
 92 91  1  0
 94 92  1  0
 94 95  1  0
 94 93  1  0
 96 99  1  1
 96 97  1  0
 98 96  1  0
M  ISO  4   7 100  15 100  58 101  59 101
M  END
>  <TORSDO>  (28) 
F 21

>  <SCORE>  (28) 
-13.851

>  <name>  (28) 
27

>  <ligand_id>  (28) 
27

>  <original_smiles>  (28) 
[H]c1c([H])c([H])c2c(c1[H])C([H])([H])C([H])([H])C([H])([H])C2([H])N([H])C(=O)C1([H])N(C(=O)C([H])(N([H])C(=O)C([H])(N([H])C([H])([H])[H])C([H])([H])[H])C(C([H])([H])[H])(C([H])([H])[H])C([H])([H])[H])C([H])([H])c2c([H])c(OC([H])([H])C([H])(C(=O)C([H])([H])[H])N([H])c3c([H])c(N([H])C(=O)N4C([H])([H])C([H])([H])C([H])([H])C([H])(n5nc(-c6c([H])c([H])c(Oc7c([H])c([H])c(F)c([H])c7F)c([H])c6[H])c(C(=O)N([H])[H])c5N([H])[H])C4([H])[H])c([H])c([H])c3C(N([H])[H])=[N+]([H])[H])c([H])c([H])c2C1([H])[H]

>  <smiles>  (28) 
[H]c1c([H])c([H])c2c(c1[H])C([H])([H])C([H])([H])C([H])([H])C2([H])N([H])C(=O)C1([H])N(C(=O)C([H])(N([H])C(=O)C([H])(N([H])C([H])([H])[H])C([H])([H])[H])C(C([H])([H])[H])(C([H])([H])[H])C([H])([H])[H])C([H])([H])c2c([H])c(OC([H])([H])C([H])(C(=O)C([H])([H])[H])N([H])c3c([H])c(N([H])C(=O)N4C([H])([H])C([H])([H])C([H])([H])C([H])(n5nc(-c6c([H])c([H])c(Oc7c([H])c([H])c(F)c([H])c7F)c([H])c6[H])c(C(=O)N([H])[H])c5N([H])[H])C4([H])[H])c([H])c([H])c3C(N([H])[H])=[N+]([H])[H])c([H])c([H])c2C1([H])[H]

$$$$
28:0:0
     RDKit          3D

 97106  0  0  1  0  0  0  0  0999 V2000
  -29.1160  -24.1140   20.1460 C   0  0  0  0  0  0  0  0  0  0  0  0
  -30.5070  -24.5470   20.5920 C   0  0  0  0  0  0  0  0  0  0  0  0
  -28.9180  -22.5140   20.1500 C   0  0  0  0  0  2  0  0  0  0  0  0
  -31.3500  -23.4950   21.3030 C   0  0  0  0  0  2  0  0  0  0  0  0
  -31.4170  -22.1880   20.5100 C   0  0  0  0  0  2  0  0  0  0  0  0
  -28.1430  -24.9230   19.7930 N   0  0  0  0  0  0  0  0  0  0  0  0
  -30.0950  -21.5750   20.3380 N   0  0  0  0  0  0  0  0  0  0  0  0
  -30.9690  -25.6860   20.4440 O   0  0  0  0  0  0  0  0  0  0  0  0
  -31.1360  -19.3340   20.8710 C   0  0  0  0  0  3  0  0  0  0  0  0
  -31.1060  -17.9100   20.9700 C   0  0  0  0  0  3  0  0  0  0  0  0
  -28.9700  -19.3460   19.8710 C   0  0  0  0  0  3  0  0  0  0  0  0
  -30.0650  -20.1200   20.3420 C   0  0  0  0  0  0  0  0  0  0  0  0
  -29.9930  -17.1470   20.5360 C   0  0  0  0  0  0  0  0  0  0  0  0
  -28.9180  -17.9110   19.9740 C   0  0  0  0  0  0  0  0  0  0  0  0
  -30.6750  -14.6300   20.1920 C   0  0  0  0  0  0  0  0  0  0  0  0
  -30.3990  -12.4110   19.0900 C   0  0  0  0  0  2  0  0  0  0  0  0
  -29.4030  -12.5720   17.9180 C   0  0  0  0  0  2  0  0  0  0  0  0
  -27.9470  -12.4290   18.4070 C   0  0  0  0  0  2  0  0  0  0  0  0
  -27.6590  -13.2730   19.6760 C   0  0  0  0  0  3  0  0  0  0  0  0
  -28.7590  -13.0700   20.7430 C   0  0  0  0  0  2  0  0  0  0  0  0
  -30.0480  -13.4110   20.1200 N   0  0  0  0  0  0  0  0  0  0  0  0
  -31.8190  -14.7790   19.7530 O   0  0  0  0  0  0  0  0  0  0  0  0
  -29.8940  -15.6770   20.6270 N   0  0  0  0  0  0  0  0  0  0  0  0
  -29.0260  -15.3490   21.0140 H   0  0  0  0  0  0  0  0  0  0  0  0
  -25.3190  -13.9140   20.5160 C   0  0  0  0  0  0  0  0  0  0  0  0
  -24.2510  -13.1590   20.9230 C   0  0  0  0  0  0  0  0  0  0  0  0
  -24.6750  -11.7960   20.8350 C   0  0  0  0  0  0  0  0  0  0  0  0
  -26.3260  -13.0120   20.2110 N   0  0  0  0  0  0  0  0  0  0  0  0
  -25.9470  -11.7330   20.4630 N   0  0  0  0  0  0  0  0  0  0  0  0
  -23.9260  -10.5480   21.0250 C   0  0  0  0  0  0  0  0  0  0  0  0
  -24.3520   -9.5630   21.9420 C   0  0  0  0  0  3  0  0  0  0  0  0
  -23.6060   -8.3780   22.1210 C   0  0  0  0  0  3  0  0  0  0  0  0
  -22.4180   -8.1700   21.3810 C   0  0  0  0  0  0  0  0  0  0  0  0
  -22.0100   -9.1430   20.4500 C   0  0  0  0  0  3  0  0  0  0  0  0
  -22.7580  -10.3200   20.2700 C   0  0  0  0  0  3  0  0  0  0  0  0
  -21.6430   -7.0400   21.4690 O   0  0  0  0  0  0  0  0  0  0  0  0
  -21.5730   -6.3030   22.6250 C   0  0  0  0  0  0  0  0  0  0  0  0
  -21.1710   -6.8780   23.8510 C   0  0  0  0  0  3  0  0  0  0  0  0
  -21.0460   -6.0710   24.9990 C   0  0  0  0  0  3  0  0  0  0  0  0
  -21.3120   -4.6900   24.9240 C   0  0  0  0  0  0  0  0  0  0  0  0
  -21.7080   -4.1170   23.7030 C   0  0  0  0  0  3  0  0  0  0  0  0
  -21.8340   -4.9200   22.5560 C   0  0  0  0  0  0  0  0  0  0  0  0
  -22.1950   -4.3580   21.3770 F   0  0  0  0  0  0  0  0  0  0  0  0
  -21.1860   -3.9130   26.0240 F   0  0  0  0  0  0  0  0  0  0  0  0
  -22.8800  -13.6640   21.2650 C   0  0  0  0  0  0  0  0  0  0  0  0
  -22.1780  -12.9760   22.1580 N   0  0  0  0  0  0  0  0  0  0  0  0
  -22.4410  -14.7020   20.7710 O   0  0  0  0  0  0  0  0  0  0  0  0
  -22.5460  -12.1350   22.5790 H   0  0  0  0  0  0  0  0  0  0  0  0
  -21.2590  -13.2970   22.4290 H   0  0  0  0  0  0  0  0  0  0  0  0
  -25.5120  -15.2820   20.3470 N   0  0  0  0  0  0  0  0  0  0  0  0
  -24.6540  -15.8230   20.3680 H   0  0  0  0  0  0  0  0  0  0  0  0
  -26.0720  -15.5370   19.5430 H   0  0  0  0  0  0  0  0  0  0  0  0
  -26.5500  -17.6770   19.2800 C   0  0  0  0  0  3  0  0  0  0  0  0
  -27.7920  -17.2050   19.4630 N   0  0  0  0  0  0  0  0  0  0  0  0
  -26.1760  -18.8130   19.5820 O   0  0  0  0  0  0  0  0  0  0  0  0
  -27.9170  -16.2320   19.2170 H   0  0  0  0  0  0  0  0  0  0  0  0
  -28.3980  -26.3740   19.7720 O   0  0  0  0  0  0  0  0  0  0  0  0
  -24.5680  -31.5990   22.9870 C   0  0  0  0  0  0  0  0  0  0  0  0
  -27.2480  -27.1810   19.7860 C   0  0  0  0  0  0  0  0  0  0  0  0
  -23.3740  -30.2120   21.3290 C   0  0  0  0  0  3  0  0  0  0  0  0
  -24.8410  -28.7300   19.8440 C   0  0  0  0  0  0  0  0  0  0  0  0
  -25.9010  -30.5950   21.1190 C   0  0  0  0  0  2  0  0  0  0  0  0
  -26.0030  -29.2330   20.4440 C   0  0  0  0  0  0  0  0  0  0  0  0
  -27.2060  -28.4650   20.4110 C   0  0  0  0  0  3  0  0  0  0  0  0
  -26.0650  -26.7360   19.1530 C   0  0  0  0  0  3  0  0  0  0  0  0
  -24.8730  -27.4870   19.1920 C   0  0  0  0  0  3  0  0  0  0  0  0
  -23.5820  -29.5720   19.9300 C   0  0  0  0  0  2  0  0  0  0  0  0
  -24.6340  -30.8200   21.8680 N   0  0  0  0  0  0  0  0  0  0  0  0
  -23.4860  -31.8390   23.5440 O   0  0  0  0  0  0  0  0  0  0  0  0
  -22.7500  -29.1570   22.2740 C   0  0  0  0  0  0  0  0  0  0  0  0
  -21.4260  -28.9590   22.1700 N   0  0  0  0  0  0  0  0  0  0  0  0
  -23.4570  -28.5210   23.0600 O   0  0  0  0  0  0  0  0  0  0  0  0
  -20.9140  -29.5260   21.5100 H   0  0  0  0  0  0  0  0  0  0  0  0
  -18.0800  -27.6940   22.7090 C   0  0  0  0  0  0  0  0  0  0  0  0
  -20.6390  -27.9860   22.9300 C   0  0  0  0  0  3  0  0  0  0  0  0
  -20.7490  -26.5740   22.3080 C   0  0  0  0  0  2  0  0  0  0  0  0
  -19.6300  -26.2650   21.3090 C   0  0  0  0  0  2  0  0  0  0  0  0
  -18.2610  -26.3680   21.9890 C   0  0  0  0  0  2  0  0  0  0  0  0
  -19.1970  -28.4610   23.1370 C   0  0  0  0  0  0  0  0  0  0  0  0
  -18.9710  -29.7010   23.7720 C   0  0  0  0  0  3  0  0  0  0  0  0
  -17.6630  -30.1760   23.9820 C   0  0  0  0  0  3  0  0  0  0  0  0
  -16.5620  -29.4060   23.5700 C   0  0  0  0  0  3  0  0  0  0  0  0
  -16.7710  -28.1660   22.9400 C   0  0  0  0  0  3  0  0  0  0  0  0
  -25.8440  -32.2480   23.6070 C   0  0  0  0  0  3  0  0  0  0  0  0
  -26.4260  -31.4310   24.8260 C   0  0  1  0  0  0  0  0  0  0  0  0
  -25.3750  -31.0960   25.9100 C   0  0  0  0  0  1  0  0  0  0  0  0
  -27.0470  -30.0980   24.3450 C   0  0  0  0  0  1  0  0  0  0  0  0
  -27.5660  -32.2330   25.4960 C   0  0  0  0  0  1  0  0  0  0  0  0
  -25.4940  -33.6130   24.0200 N   0  0  0  0  0  0  0  0  0  0  0  0
  -25.7780  -34.7190   23.3180 C   0  0  0  0  0  0  0  0  0  0  0  0
  -26.4330  -34.6970   22.2730 O   0  0  0  0  0  0  0  0  0  0  0  0
  -24.9070  -33.7020   24.8360 H   0  0  0  0  0  0  0  0  0  0  0  0
  -23.9850  -36.4690   23.0950 C   0  0  0  0  0  1  0  0  0  0  0  0
  -25.2530  -36.0620   23.8610 C   0  0  0  0  0  3  0  0  0  0  0  0
  -27.3720  -36.9720   24.7060 C   0  0  0  0  0  1  0  0  0  0  0  0
  -26.2480  -37.1540   23.7910 N   0  0  0  0  0  0  0  0  0  0  0  0
  -25.8150  -38.0510   23.9960 H   0  0  0  0  0  0  0  0  0  0  0  0
  1  3  1  0
  1  2  1  0
  2  4  1  0
  3  7  1  0
  5  4  1  0
  6  1  2  0
  7 12  1  0
  7  5  1  0
  8  2  2  0
  9 10  1  0
 11 14  2  0
 11 12  1  0
 12  9  2  0
 13 23  1  0
 13 10  2  0
 14 13  1  0
 15 23  1  0
 16 21  1  0
 17 18  1  0
 17 16  1  0
 19 18  1  0
 19 28  1  0
 19 20  1  0
 21 15  1  0
 21 20  1  0
 22 15  2  0
 23 24  1  0
 25 26  2  0
 26 45  1  0
 27 26  1  0
 27 30  1  0
 28 29  1  0
 28 25  1  0
 29 27  2  0
 30 31  1  0
 31 32  2  0
 33 36  1  0
 33 32  1  0
 34 33  2  0
 35 34  1  0
 35 30  2  0
 36 37  1  0
 37 38  1  0
 38 39  2  0
 40 39  1  0
 40 44  1  0
 41 40  2  0
 42 37  2  0
 42 41  1  0
 43 42  1  0
 45 46  1  0
 46 49  1  0
 46 48  1  0
 47 45  2  0
 50 51  1  0
 50 25  1  0
 52 50  1  0
 53 54  1  0
 53 55  2  0
 54 14  1  0
 56 54  1  0
 57 59  1  0
 57  6  1  0
 58 69  2  0
 59 64  1  0
 60 68  1  0
 60 70  1  0
 61 67  1  0
 61 63  1  0
 62 68  1  0
 63 62  1  0
 64 63  2  0
 65 66  1  0
 65 59  2  0
 66 61  2  0
 67 60  1  0
 68 58  1  0
 70 72  2  0
 71 70  1  0
 73 71  1  0
 74 83  2  0
 74 79  1  0
 75 71  1  0
 75 79  1  0
 76 75  1  0
 77 78  1  0
 77 76  1  0
 78 74  1  0
 79 80  2  0
 80 81  1  0
 82 81  2  0
 83 82  1  0
 84 58  1  0
 84 89  1  0
 84 85  1  0
 85 88  1  1
 85 86  1  0
 87 85  1  0
 89 92  1  0
 90 94  1  0
 90 89  1  0
 91 90  2  0
 94 93  1  0
 96 94  1  0
 96 97  1  0
 96 95  1  0
M  ISO  4   6 101  15 100  23 100  57 101
M  END
>  <TORSDO>  (29) 
F 18

>  <SCORE>  (29) 
-13.941

>  <name>  (29) 
28

>  <ligand_id>  (29) 
28

>  <original_smiles>  (29) 
[H]C(=O)N([H])c1c([H])c(N2C([H])([H])C(=NOc3c([H])c([H])c4c(c3[H])C([H])([H])N(C(=O)C([H])(N([H])C(=O)C([H])(N([H])C([H])([H])[H])C([H])([H])[H])C(C([H])([H])[H])(C([H])([H])[H])C([H])([H])[H])C([H])(C(=O)N([H])C3([H])c5c([H])c([H])c([H])c([H])c5C([H])([H])C([H])([H])C3([H])[H])C4([H])[H])C(=O)C([H])([H])C2([H])[H])c([H])c([H])c1N([H])C(=O)N1C([H])([H])C([H])([H])C([H])([H])C([H])(n2nc(-c3c([H])c([H])c(Oc4c([H])c([H])c(F)c([H])c4F)c([H])c3[H])c(C(=O)N([H])[H])c2N([H])[H])C1([H])[H]

>  <smiles>  (29) 
[H]C(=O)N([H])c1c([H])c(N2C([H])([H])C(=NOc3c([H])c([H])c4c(c3[H])C([H])([H])N(C(=O)C([H])(N([H])C(=O)C([H])(N([H])C([H])([H])[H])C([H])([H])[H])C(C([H])([H])[H])(C([H])([H])[H])C([H])([H])[H])C([H])(C(=O)N([H])C3([H])c5c([H])c([H])c([H])c([H])c5C([H])([H])C([H])([H])C3([H])[H])C4([H])[H])C(=O)C([H])([H])C2([H])[H])c([H])c([H])c1N([H])C(=O)N1C([H])([H])C([H])([H])C([H])([H])C([H])(n2nc(-c3c([H])c([H])c(Oc4c([H])c([H])c(F)c([H])c4F)c([H])c3[H])c(C(=O)N([H])[H])c2N([H])[H])C1([H])[H]

$$$$
29:0:0
     RDKit          3D

100108  0  0  1  0  0  0  0  0999 V2000
  -28.2390  -21.6840   20.5280 C   0  0  0  0  0  0  0  0  0  0  0  0
  -28.0570  -24.2050   20.2630 C   0  0  0  0  0  0  0  0  0  0  0  0
  -26.7130  -24.3000   20.1840 N   0  0  0  0  0  4  0  0  0  0  0  0
  -26.9460  -21.5830   20.8880 N   0  0  0  0  0  4  0  0  0  0  0  0
  -28.7430  -22.9730   20.3370 N   0  0  0  0  0  0  0  0  0  0  0  0
  -26.3010  -25.2210   20.2450 H   0  0  0  0  0  0  0  0  0  0  0  0
  -26.1190  -23.5290   19.9190 H   0  0  0  0  0  0  0  0  0  0  0  0
  -26.5510  -20.6600   20.9640 H   0  0  0  0  0  0  0  0  0  0  0  0
  -26.5190  -22.3160   21.4310 H   0  0  0  0  0  0  0  0  0  0  0  0
  -29.7430  -23.0420   20.2700 H   0  0  0  0  0  0  0  0  0  0  0  0
  -28.2310  -19.2580   19.6960 C   0  0  0  0  0  3  0  0  0  0  0  0
  -28.6220  -17.8820   19.7300 C   0  0  0  0  0  3  0  0  0  0  0  0
  -30.0490  -19.8260   21.1390 C   0  0  0  0  0  3  0  0  0  0  0  0
  -28.9010  -20.2910   20.4210 C   0  0  0  0  0  0  0  0  0  0  0  0
  -29.7270  -17.4110   20.4870 C   0  0  0  0  0  0  0  0  0  0  0  0
  -30.4420  -18.4370   21.1820 C   0  0  0  0  0  0  0  0  0  0  0  0
  -31.4800  -18.0830   21.9770 F   0  0  0  0  0  0  0  0  0  0  0  0
  -30.7070  -14.9730   20.2270 C   0  0  0  0  0  0  0  0  0  0  0  0
  -30.6000  -12.6940   19.1840 C   0  0  0  0  0  2  0  0  0  0  0  0
  -29.6310  -12.7540   17.9820 C   0  0  0  0  0  2  0  0  0  0  0  0
  -28.1680  -12.5600   18.4340 C   0  0  0  0  0  2  0  0  0  0  0  0
  -27.8010  -13.4320   19.6630 C   0  0  0  0  0  3  0  0  0  0  0  0
  -28.8760  -13.3050   20.7660 C   0  0  0  0  0  2  0  0  0  0  0  0
  -30.1640  -13.7070   20.1740 N   0  0  0  0  0  0  0  0  0  0  0  0
  -31.8320  -15.1940   19.7620 O   0  0  0  0  0  0  0  0  0  0  0  0
  -29.8830  -15.9590   20.7320 N   0  0  0  0  0  0  0  0  0  0  0  0
  -29.0580  -15.5430   21.1360 H   0  0  0  0  0  0  0  0  0  0  0  0
  -25.4210  -14.0070   20.4450 C   0  0  0  0  0  0  0  0  0  0  0  0
  -24.3690  -13.2220   20.8270 C   0  0  0  0  0  0  0  0  0  0  0  0
  -24.8350  -11.8730   20.7610 C   0  0  0  0  0  0  0  0  0  0  0  0
  -26.4650  -13.1360   20.1740 N   0  0  0  0  0  0  0  0  0  0  0  0
  -26.1180  -11.8460   20.4210 N   0  0  0  0  0  0  0  0  0  0  0  0
  -24.1180  -10.6050   20.9460 C   0  0  0  0  0  0  0  0  0  0  0  0
  -24.5560   -9.6410   21.8790 C   0  0  0  0  0  3  0  0  0  0  0  0
  -23.8400   -8.4370   22.0540 C   0  0  0  0  0  3  0  0  0  0  0  0
  -22.6720   -8.1900   21.2940 C   0  0  0  0  0  0  0  0  0  0  0  0
  -22.2540   -9.1440   20.3490 C   0  0  0  0  0  3  0  0  0  0  0  0
  -22.9710  -10.3390   20.1720 C   0  0  0  0  0  3  0  0  0  0  0  0
  -21.9270   -7.0390   21.3770 O   0  0  0  0  0  0  0  0  0  0  0  0
  -21.8380   -6.3220   22.5430 C   0  0  0  0  0  0  0  0  0  0  0  0
  -21.3240   -6.8900   23.7290 C   0  0  0  0  0  3  0  0  0  0  0  0
  -21.1860   -6.0970   24.8870 C   0  0  0  0  0  3  0  0  0  0  0  0
  -21.5500   -4.7380   24.8570 C   0  0  0  0  0  0  0  0  0  0  0  0
  -22.0560   -4.1700   23.6750 C   0  0  0  0  0  3  0  0  0  0  0  0
  -22.1960   -4.9590   22.5200 C   0  0  0  0  0  0  0  0  0  0  0  0
  -22.6630   -4.4020   21.3770 F   0  0  0  0  0  0  0  0  0  0  0  0
  -21.4120   -3.9730   25.9660 F   0  0  0  0  0  0  0  0  0  0  0  0
  -22.9770  -13.6890   21.1400 C   0  0  0  0  0  0  0  0  0  0  0  0
  -22.2750  -12.9810   22.0170 N   0  0  0  0  0  0  0  0  0  0  0  0
  -22.5180  -14.7160   20.6400 O   0  0  0  0  0  0  0  0  0  0  0  0
  -22.6560  -12.1510   22.4490 H   0  0  0  0  0  0  0  0  0  0  0  0
  -21.3380  -13.2750   22.2630 H   0  0  0  0  0  0  0  0  0  0  0  0
  -25.5690  -15.3810   20.2840 N   0  0  0  0  0  0  0  0  0  0  0  0
  -24.7850  -16.0140   20.4120 H   0  0  0  0  0  0  0  0  0  0  0  0
  -26.3830  -15.8360   19.8980 H   0  0  0  0  0  0  0  0  0  0  0  0
  -28.7980  -25.5890   20.3100 C   0  0  0  0  0  0  0  0  0  0  0  0
  -29.9050  -25.6910   20.9360 N   0  0  0  0  0  0  0  0  0  0  0  0
  -32.1570  -26.6390   20.9690 C   0  0  0  0  0  1  0  0  0  0  0  0
  -30.6540  -26.9390   20.8700 C   0  0  0  0  0  2  0  0  0  0  0  0
  -28.2880  -26.6580   19.5150 O   0  0  0  0  0  0  0  0  0  0  0  0
  -24.5370  -31.7820   23.1180 C   0  0  0  0  0  0  0  0  0  0  0  0
  -27.1300  -27.4330   19.7360 C   0  0  0  0  0  0  0  0  0  0  0  0
  -23.3010  -30.4460   21.4530 C   0  0  0  0  0  3  0  0  0  0  0  0
  -24.7290  -29.0000   19.8990 C   0  0  0  0  0  0  0  0  0  0  0  0
  -25.8260  -30.8240   21.1950 C   0  0  0  0  0  2  0  0  0  0  0  0
  -25.9090  -29.4730   20.4910 C   0  0  0  0  0  0  0  0  0  0  0  0
  -27.1090  -28.6990   20.4090 C   0  0  0  0  0  3  0  0  0  0  0  0
  -25.9400  -27.0510   19.0800 C   0  0  0  0  0  3  0  0  0  0  0  0
  -24.7470  -27.7930   19.1840 C   0  0  0  0  0  3  0  0  0  0  0  0
  -23.4780  -29.8470   20.0330 C   0  0  0  0  0  2  0  0  0  0  0  0
  -24.5760  -31.0340   21.9780 N   0  0  0  0  0  0  0  0  0  0  0  0
  -23.4690  -32.0050   23.7080 O   0  0  0  0  0  0  0  0  0  0  0  0
  -22.7010  -29.3630   22.3800 C   0  0  0  0  0  0  0  0  0  0  0  0
  -21.3840  -29.1270   22.2590 N   0  0  0  0  0  0  0  0  0  0  0  0
  -23.4180  -28.7380   23.1660 O   0  0  0  0  0  0  0  0  0  0  0  0
  -20.8630  -29.6830   21.5940 H   0  0  0  0  0  0  0  0  0  0  0  0
  -18.0850  -27.7070   22.6980 C   0  0  0  0  0  0  0  0  0  0  0  0
  -20.6180  -28.1230   23.0000 C   0  0  0  0  0  3  0  0  0  0  0  0
  -20.8180  -26.7140   22.3950 C   0  0  0  0  0  2  0  0  0  0  0  0
  -19.7490  -26.3440   21.3630 C   0  0  0  0  0  2  0  0  0  0  0  0
  -18.3540  -26.3870   21.9940 C   0  0  0  0  0  2  0  0  0  0  0  0
  -19.1490  -28.5310   23.1550 C   0  0  0  0  0  0  0  0  0  0  0  0
  -18.8430  -29.7630   23.7720 C   0  0  0  0  0  3  0  0  0  0  0  0
  -17.5080  -30.1750   23.9360 C   0  0  0  0  0  3  0  0  0  0  0  0
  -16.4600  -29.3490   23.4930 C   0  0  0  0  0  3  0  0  0  0  0  0
  -16.7490  -28.1180   22.8790 C   0  0  0  0  0  3  0  0  0  0  0  0
  -25.8280  -32.4090   23.7270 C   0  0  0  0  0  3  0  0  0  0  0  0
  -26.3870  -31.6040   24.9640 C   0  0  1  0  0  0  0  0  0  0  0  0
  -25.3230  -31.3250   26.0540 C   0  0  0  0  0  1  0  0  0  0  0  0
  -26.9720  -30.2450   24.5150 C   0  0  0  0  0  1  0  0  0  0  0  0
  -27.5490  -32.3880   25.6160 C   0  0  0  0  0  1  0  0  0  0  0  0
  -25.5100  -33.7920   24.1120 N   0  0  0  0  0  0  0  0  0  0  0  0
  -25.8080  -34.8740   23.3800 C   0  0  0  0  0  0  0  0  0  0  0  0
  -26.4480  -34.8130   22.3260 O   0  0  0  0  0  0  0  0  0  0  0  0
  -24.9310  -33.9120   24.9300 H   0  0  0  0  0  0  0  0  0  0  0  0
  -24.0430  -36.6510   23.1450 C   0  0  0  0  0  1  0  0  0  0  0  0
  -25.3180  -36.2400   23.8990 C   0  0  0  0  0  3  0  0  0  0  0  0
  -27.4670  -37.1330   24.6830 C   0  0  0  0  0  1  0  0  0  0  0  0
  -26.3320  -37.3120   23.7820 N   0  0  0  0  0  0  0  0  0  0  0  0
  -25.9180  -38.2210   23.9680 H   0  0  0  0  0  0  0  0  0  0  0  0
  1  4  2  0
  2 56  1  0
  2  5  1  0
  3  6  1  0
  3  2  2  0
  4  8  1  0
  4  9  1  0
  5  1  1  0
  7  3  1  0
 10  5  1  0
 11 12  2  0
 11 14  1  0
 12 15  1  0
 13 16  1  0
 14  1  1  0
 14 13  2  0
 15 26  1  0
 15 16  2  0
 16 17  1  0
 18 26  1  0
 19 24  1  0
 20 21  1  0
 20 19  1  0
 22 21  1  0
 22 31  1  0
 22 23  1  0
 24 18  1  0
 24 23  1  0
 25 18  2  0
 26 27  1  0
 28 29  2  0
 29 48  1  0
 30 29  1  0
 30 33  1  0
 31 32  1  0
 31 28  1  0
 32 30  2  0
 33 34  1  0
 34 35  2  0
 36 39  1  0
 36 35  1  0
 37 36  2  0
 38 37  1  0
 38 33  2  0
 39 40  1  0
 40 41  1  0
 41 42  2  0
 43 42  1  0
 43 47  1  0
 44 43  2  0
 45 40  2  0
 45 44  1  0
 46 45  1  0
 48 49  1  0
 49 52  1  0
 49 51  1  0
 50 48  2  0
 53 54  1  0
 53 28  1  0
 55 53  1  0
 56 57  2  0
 59 57  1  0
 59 58  1  0
 60 62  1  0
 60 56  1  0
 61 72  2  0
 62 67  1  0
 63 71  1  0
 63 73  1  0
 64 70  1  0
 64 66  1  0
 65 71  1  0
 66 65  1  0
 67 66  2  0
 68 69  1  0
 68 62  2  0
 69 64  2  0
 70 63  1  0
 71 61  1  0
 73 75  2  0
 74 73  1  0
 76 74  1  0
 77 86  2  0
 77 82  1  0
 78 74  1  0
 78 82  1  0
 79 78  1  0
 80 81  1  0
 80 79  1  0
 81 77  1  0
 82 83  2  0
 83 84  1  0
 85 84  2  0
 86 85  1  0
 87 61  1  0
 87 92  1  0
 87 88  1  0
 88 91  1  1
 88 89  1  0
 90 88  1  0
 92 95  1  0
 93 97  1  0
 93 92  1  0
 94 93  2  0
 97 96  1  0
 99 97  1  0
 99100  1  0
 99 98  1  0
M  ISO  4  18 100  26 100  56 101  60 101
M  END
>  <TORSDO>  (30) 
F 19

>  <SCORE>  (30) 
-14.154

>  <name>  (30) 
29

>  <ligand_id>  (30) 
29

>  <original_smiles>  (30) 
[H]c1c([H])c([H])c2c(c1[H])C([H])([H])C([H])([H])C([H])([H])C2([H])N([H])C(=O)C1([H])N(C(=O)C([H])(N([H])C(=O)C([H])(N([H])C([H])([H])[H])C([H])([H])[H])C(C([H])([H])[H])(C([H])([H])[H])C([H])([H])[H])C([H])([H])c2c([H])c(OC(=NC([H])([H])C([H])([H])[H])C(N([H])C(c3c([H])c([H])c(N([H])C(=O)N4C([H])([H])C([H])([H])C([H])([H])C([H])(n5nc(-c6c([H])c([H])c(Oc7c([H])c([H])c(F)c([H])c7F)c([H])c6[H])c(C(=O)N([H])[H])c5N([H])[H])C4([H])[H])c(F)c3[H])=[N+]([H])[H])=[N+]([H])[H])c([H])c([H])c2C1([H])[H]

>  <smiles>  (30) 
[H]c1c([H])c([H])c2c(c1[H])C([H])([H])C([H])([H])C([H])([H])C2([H])N([H])C(=O)C1([H])N(C(=O)C([H])(N([H])C(=O)C([H])(N([H])C([H])([H])[H])C([H])([H])[H])C(C([H])([H])[H])(C([H])([H])[H])C([H])([H])[H])C([H])([H])c2c([H])c(OC(=NC([H])([H])C([H])([H])[H])C(N([H])C(c3c([H])c([H])c(N([H])C(=O)N4C([H])([H])C([H])([H])C([H])([H])C([H])(n5nc(-c6c([H])c([H])c(Oc7c([H])c([H])c(F)c([H])c7F)c([H])c6[H])c(C(=O)N([H])[H])c5N([H])[H])C4([H])[H])c(F)c3[H])=[N+]([H])[H])=[N+]([H])[H])c([H])c([H])c2C1([H])[H]

$$$$
30:0:0
     RDKit          3D

 99107  0  0  1  0  0  0  0  0999 V2000
  -29.3260  -21.3580   20.6630 C   0  0  0  0  0  0  0  0  0  0  0  0
  -29.5500  -22.3220   19.7360 N   0  0  0  0  0  0  0  0  0  0  0  0
  -28.8890  -21.7500   21.8590 N   0  0  0  0  0  4  0  0  0  0  0  0
  -29.8500  -21.9810   18.8330 H   0  0  0  0  0  0  0  0  0  0  0  0
  -28.8090  -21.0630   22.5930 H   0  0  0  0  0  0  0  0  0  0  0  0
  -28.6600  -22.7040   22.0710 H   0  0  0  0  0  0  0  0  0  0  0  0
  -30.7900  -19.3010   20.1110 C   0  0  0  0  0  3  0  0  0  0  0  0
  -28.4820  -18.9930   20.7510 C   0  0  0  0  0  3  0  0  0  0  0  0
  -30.9710  -17.8810   20.0820 C   0  0  0  0  0  3  0  0  0  0  0  0
  -28.6610  -17.5890   20.7250 C   0  0  0  0  0  3  0  0  0  0  0  0
  -29.5440  -19.8840   20.4690 C   0  0  0  0  0  0  0  0  0  0  0  0
  -29.9060  -16.9960   20.4070 C   0  0  0  0  0  0  0  0  0  0  0  0
  -30.6830  -14.6030   19.8100 C   0  0  0  0  0  0  0  0  0  0  0  0
  -30.3660  -12.4120   18.6840 C   0  0  0  0  0  2  0  0  0  0  0  0
  -29.2890  -12.5840   17.5880 C   0  0  0  0  0  2  0  0  0  0  0  0
  -27.8690  -12.4190   18.1680 C   0  0  0  0  0  2  0  0  0  0  0  0
  -27.6540  -13.2460   19.4640 C   0  0  0  0  0  3  0  0  0  0  0  0
  -28.8220  -13.0180   20.4500 C   0  0  0  0  0  2  0  0  0  0  0  0
  -30.0740  -13.3790   19.7570 N   0  0  0  0  0  0  0  0  0  0  0  0
  -31.7500  -14.8360   19.2330 O   0  0  0  0  0  0  0  0  0  0  0  0
  -29.9560  -15.5500   20.4560 N   0  0  0  0  0  0  0  0  0  0  0  0
  -29.1760  -15.1360   20.9420 H   0  0  0  0  0  0  0  0  0  0  0  0
  -25.3730  -13.8480   20.4930 C   0  0  0  0  0  0  0  0  0  0  0  0
  -24.3340  -13.0730   20.9320 C   0  0  0  0  0  0  0  0  0  0  0  0
  -24.7490  -11.7180   20.7500 C   0  0  0  0  0  0  0  0  0  0  0  0
  -26.3570  -12.9640   20.0770 N   0  0  0  0  0  0  0  0  0  0  0  0
  -25.9920  -11.6740   20.2870 N   0  0  0  0  0  0  0  0  0  0  0  0
  -24.0140  -10.4590   20.9340 C   0  0  0  0  0  0  0  0  0  0  0  0
  -24.4510   -9.4760   21.8500 C   0  0  0  0  0  3  0  0  0  0  0  0
  -23.7190   -8.2830   22.0230 C   0  0  0  0  0  3  0  0  0  0  0  0
  -22.5340   -8.0640   21.2800 C   0  0  0  0  0  0  0  0  0  0  0  0
  -22.1160   -9.0350   20.3540 C   0  0  0  0  0  3  0  0  0  0  0  0
  -22.8500  -10.2200   20.1790 C   0  0  0  0  0  3  0  0  0  0  0  0
  -21.7710   -6.9240   21.3640 O   0  0  0  0  0  0  0  0  0  0  0  0
  -21.6170   -6.2470   22.5460 C   0  0  0  0  0  0  0  0  0  0  0  0
  -21.0240   -6.8480   23.6770 C   0  0  0  0  0  3  0  0  0  0  0  0
  -20.8210   -6.0940   24.8510 C   0  0  0  0  0  3  0  0  0  0  0  0
  -21.2020   -4.7400   24.8930 C   0  0  0  0  0  0  0  0  0  0  0  0
  -21.7870   -4.1370   23.7660 C   0  0  0  0  0  3  0  0  0  0  0  0
  -21.9920   -4.8890   22.5940 C   0  0  0  0  0  0  0  0  0  0  0  0
  -22.5370   -4.2980   21.5050 F   0  0  0  0  0  0  0  0  0  0  0  0
  -21.0000   -4.0130   26.0170 F   0  0  0  0  0  0  0  0  0  0  0  0
  -22.9920  -13.5560   21.4010 C   0  0  0  0  0  0  0  0  0  0  0  0
  -22.3510  -12.8120   22.2950 N   0  0  0  0  0  0  0  0  0  0  0  0
  -22.5250  -14.6250   21.0100 O   0  0  0  0  0  0  0  0  0  0  0  0
  -22.7430  -11.9450   22.6300 H   0  0  0  0  0  0  0  0  0  0  0  0
  -21.4550  -13.1150   22.6510 H   0  0  0  0  0  0  0  0  0  0  0  0
  -25.5560  -15.2250   20.3930 N   0  0  0  0  0  0  0  0  0  0  0  0
  -24.8160  -15.8810   20.6170 H   0  0  0  0  0  0  0  0  0  0  0  0
  -26.3470  -15.6630   19.9390 H   0  0  0  0  0  0  0  0  0  0  0  0
  -29.4730  -23.8370   19.8460 C   0  0  0  0  0  3  0  0  0  0  0  0
  -31.6370  -23.7390   21.2210 C   0  0  0  0  0  1  0  0  0  0  0  0
  -30.9240  -25.9310   20.3490 C   0  0  0  0  0  1  0  0  0  0  0  0
  -31.7970  -24.2030   18.7670 C   0  0  0  0  0  1  0  0  0  0  0  0
  -30.9290  -24.4210   20.0280 C   0  0  2  0  0  0  0  0  0  0  0  0
  -28.6670  -24.4700   18.6490 C   0  0  0  0  0  0  0  0  0  0  0  0
  -28.6290  -23.5970   17.4030 C   0  0  0  0  0  1  0  0  0  0  0  0
  -28.0310  -25.5970   18.5670 N   0  0  0  0  0  0  0  0  0  0  0  0
  -28.0030  -26.4780   19.6890 O   0  0  0  0  0  0  0  0  0  0  0  0
  -24.4370  -31.7010   23.0880 C   0  0  0  0  0  0  0  0  0  0  0  0
  -26.8790  -27.3050   19.7130 C   0  0  0  0  0  0  0  0  0  0  0  0
  -23.1420  -30.3730   21.4570 C   0  0  0  0  0  3  0  0  0  0  0  0
  -24.5100  -28.8780   19.9040 C   0  0  0  0  0  0  0  0  0  0  0  0
  -25.6660  -30.7020   21.1530 C   0  0  0  0  0  2  0  0  0  0  0  0
  -25.7080  -29.3540   20.4520 C   0  0  0  0  0  0  0  0  0  0  0  0
  -26.8950  -28.5760   20.3510 C   0  0  0  0  0  3  0  0  0  0  0  0
  -25.6470  -26.8540   19.1800 C   0  0  0  0  0  3  0  0  0  0  0  0
  -24.4780  -27.6290   19.2640 C   0  0  0  0  0  3  0  0  0  0  0  0
  -23.2800  -29.7470   20.0450 C   0  0  0  0  0  2  0  0  0  0  0  0
  -24.4380  -30.9370   21.9570 N   0  0  0  0  0  0  0  0  0  0  0  0
  -23.3850  -31.9630   23.6860 O   0  0  0  0  0  0  0  0  0  0  0  0
  -22.5230  -29.3220   22.4090 C   0  0  0  0  0  0  0  0  0  0  0  0
  -21.2000  -29.1160   22.2990 N   0  0  0  0  0  0  0  0  0  0  0  0
  -23.2300  -28.6970   23.2030 O   0  0  0  0  0  0  0  0  0  0  0  0
  -20.6870  -29.6740   21.6310 H   0  0  0  0  0  0  0  0  0  0  0  0
  -17.8690  -27.8010   22.7910 C   0  0  0  0  0  0  0  0  0  0  0  0
  -20.4150  -28.1480   23.0670 C   0  0  0  0  0  3  0  0  0  0  0  0
  -20.5680  -26.7230   22.4860 C   0  0  0  0  0  2  0  0  0  0  0  0
  -19.4800  -26.3650   21.4690 C   0  0  0  0  0  2  0  0  0  0  0  0
  -18.0930  -26.4600   22.1110 C   0  0  0  0  0  2  0  0  0  0  0  0
  -18.9590  -28.6000   23.2240 C   0  0  0  0  0  0  0  0  0  0  0  0
  -18.6960  -29.8530   23.8180 C   0  0  0  0  0  3  0  0  0  0  0  0
  -17.3750  -30.3090   23.9830 C   0  0  0  0  0  3  0  0  0  0  0  0
  -16.2980  -29.5070   23.5650 C   0  0  0  0  0  3  0  0  0  0  0  0
  -16.5460  -28.2550   22.9760 C   0  0  0  0  0  3  0  0  0  0  0  0
  -25.7560  -32.2990   23.6680 C   0  0  0  0  0  3  0  0  0  0  0  0
  -26.3230  -31.4810   24.8940 C   0  0  1  0  0  0  0  0  0  0  0  0
  -25.2760  -31.2150   26.0000 C   0  0  0  0  0  1  0  0  0  0  0  0
  -26.8780  -30.1150   24.4290 C   0  0  0  0  0  1  0  0  0  0  0  0
  -27.5070  -32.2460   25.5300 C   0  0  0  0  0  1  0  0  0  0  0  0
  -25.4790  -33.6890   24.0560 N   0  0  0  0  0  0  0  0  0  0  0  0
  -25.8140  -34.7630   23.3280 C   0  0  0  0  0  0  0  0  0  0  0  0
  -26.4610  -34.6870   22.2800 O   0  0  0  0  0  0  0  0  0  0  0  0
  -24.9030  -33.8240   24.8740 H   0  0  0  0  0  0  0  0  0  0  0  0
  -24.1250  -36.6070   23.0590 C   0  0  0  0  0  1  0  0  0  0  0  0
  -25.3600  -36.1410   23.8470 C   0  0  0  0  0  3  0  0  0  0  0  0
  -27.5090  -36.9500   24.7160 C   0  0  0  0  0  1  0  0  0  0  0  0
  -26.4150  -37.1750   23.7750 N   0  0  0  0  0  0  0  0  0  0  0  0
  -26.0280  -38.0970   23.9570 H   0  0  0  0  0  0  0  0  0  0  0  0
  1  3  2  0
  2 51  1  0
  2  1  1  0
  3  6  1  0
  3  5  1  0
  4  2  1  0
  7 11  1  0
  9  7  2  0
  9 12  1  0
 10  8  1  0
 11  1  1  0
 11  8  2  0
 12 21  1  0
 12 10  2  0
 13 21  1  0
 14 19  1  0
 15 16  1  0
 15 14  1  0
 17 16  1  0
 17 26  1  0
 17 18  1  0
 19 13  1  0
 19 18  1  0
 20 13  2  0
 21 22  1  0
 23 24  2  0
 24 43  1  0
 25 24  1  0
 25 28  1  0
 26 27  1  0
 26 23  1  0
 27 25  2  0
 28 29  1  0
 29 30  2  0
 31 34  1  0
 31 30  1  0
 32 31  2  0
 33 32  1  0
 33 28  2  0
 34 35  1  0
 35 40  2  0
 35 36  1  0
 36 37  2  0
 37 38  1  0
 38 42  1  0
 39 38  2  0
 40 39  1  0
 41 40  1  0
 43 44  1  0
 44 46  1  0
 44 47  1  0
 45 43  2  0
 48 23  1  0
 48 49  1  0
 50 48  1  0
 51 56  1  0
 51 55  1  0
 55 54  1  6
 55 53  1  0
 55 52  1  0
 57 56  1  0
 58 56  2  0
 58 59  1  0
 59 61  1  0
 60 71  2  0
 61 66  1  0
 62 70  1  0
 62 72  1  0
 63 69  1  0
 63 65  1  0
 64 70  1  0
 65 64  1  0
 66 65  2  0
 67 68  1  0
 67 61  2  0
 68 63  2  0
 69 62  1  0
 70 60  1  0
 72 74  2  0
 73 72  1  0
 75 73  1  0
 76 85  2  0
 76 81  1  0
 77 73  1  0
 77 81  1  0
 78 77  1  0
 79 80  1  0
 79 78  1  0
 80 76  1  0
 81 82  2  0
 82 83  1  0
 84 83  2  0
 85 84  1  0
 86 60  1  0
 86 91  1  0
 86 87  1  0
 87 90  1  1
 87 88  1  0
 89 87  1  0
 91 94  1  0
 92 96  1  0
 92 91  1  0
 93 92  2  0
 96 95  1  0
 98 96  1  0
 98 99  1  0
 98 97  1  0
M  ISO  4  13 100  21 100  58 101  59 101
M  END
>  <TORSDO>  (31) 
F 20

>  <SCORE>  (31) 
-12.659

>  <name>  (31) 
30

>  <ligand_id>  (31) 
30

>  <original_smiles>  (31) 
[H]c1c([H])c([H])c2c(c1[H])C([H])([H])C([H])([H])C([H])([H])C2([H])N([H])C(=O)C1([H])N(C(=O)C([H])(N([H])C(=O)C([H])(N([H])C([H])([H])[H])C([H])([H])[H])C(C([H])([H])[H])(C([H])([H])[H])C([H])([H])[H])C([H])([H])c2c([H])c(ON=C(C([H])([H])[H])C([H])(N([H])C(c3c([H])c([H])c(N([H])C(=O)N4C([H])([H])C([H])([H])C([H])([H])C([H])(n5nc(-c6c([H])c([H])c(Oc7c([H])c([H])c(F)c([H])c7F)c([H])c6[H])c(C(=O)N([H])[H])c5N([H])[H])C4([H])[H])c([H])c3[H])=[N+]([H])[H])C(C([H])([H])[H])(C([H])([H])[H])C([H])([H])[H])c([H])c([H])c2C1([H])[H]

>  <smiles>  (31) 
[H]c1c([H])c([H])c2c(c1[H])C([H])([H])C([H])([H])C([H])([H])C2([H])N([H])C(=O)C1([H])N(C(=O)C([H])(N([H])C(=O)C([H])(N([H])C([H])([H])[H])C([H])([H])[H])C(C([H])([H])[H])(C([H])([H])[H])C([H])([H])[H])C([H])([H])c2c([H])c(ON=C(C([H])([H])[H])C([H])(N([H])C(c3c([H])c([H])c(N([H])C(=O)N4C([H])([H])C([H])([H])C([H])([H])C([H])(n5nc(-c6c([H])c([H])c(Oc7c([H])c([H])c(F)c([H])c7F)c([H])c6[H])c(C(=O)N([H])[H])c5N([H])[H])C4([H])[H])c([H])c3[H])=[N+]([H])[H])C(C([H])([H])[H])(C([H])([H])[H])C([H])([H])[H])c([H])c([H])c2C1([H])[H]

$$$$
31:0:0
     RDKit          3D

 95104  0  0  1  0  0  0  0  0999 V2000
  -29.7810  -22.8640   20.9290 C   0  0  0  0  0  0  0  0  0  0  0  0
  -28.1720  -22.4140   19.7040 C   0  0  0  0  0  2  0  0  0  0  0  0
  -28.9070  -23.7890   19.9660 C   0  0  2  0  0  0  0  0  0  0  0  0
  -29.7840  -24.3380   18.8350 C   0  0  0  0  0  1  0  0  0  0  0  0
  -29.3280  -21.7100   20.2700 N   0  0  0  0  0  0  0  0  0  0  0  0
  -30.5160  -23.0070   21.8850 O   0  0  0  0  0  0  0  0  0  0  0  0
  -30.5740  -19.5500   20.9400 C   0  0  0  0  0  3  0  0  0  0  0  0
  -30.7260  -18.1220   21.0070 C   0  0  0  0  0  3  0  0  0  0  0  0
  -28.5080  -19.3100   19.8210 C   0  0  0  0  0  3  0  0  0  0  0  0
  -29.4600  -20.2330   20.3510 C   0  0  0  0  0  0  0  0  0  0  0  0
  -29.7480  -17.2390   20.4800 C   0  0  0  0  0  0  0  0  0  0  0  0
  -28.6360  -17.8840   19.8780 C   0  0  0  0  0  0  0  0  0  0  0  0
  -30.5620  -14.7320   20.3950 C   0  0  0  0  0  0  0  0  0  0  0  0
  -30.4000  -12.4680   19.3540 C   0  0  0  0  0  2  0  0  0  0  0  0
  -29.4480  -12.5660   18.1400 C   0  0  0  0  0  2  0  0  0  0  0  0
  -27.9790  -12.3890   18.5750 C   0  0  0  0  0  2  0  0  0  0  0  0
  -27.6120  -13.2580   19.8070 C   0  0  0  0  0  3  0  0  0  0  0  0
  -28.6760  -13.1270   20.9190 C   0  0  0  0  0  2  0  0  0  0  0  0
  -29.9750  -13.4900   20.3320 N   0  0  0  0  0  0  0  0  0  0  0  0
  -31.7390  -14.8980   20.0590 O   0  0  0  0  0  0  0  0  0  0  0  0
  -29.7010  -15.7750   20.6470 N   0  0  0  0  0  0  0  0  0  0  0  0
  -28.7540  -15.4510   20.7710 H   0  0  0  0  0  0  0  0  0  0  0  0
  -25.2220  -13.8550   20.5380 C   0  0  0  0  0  0  0  0  0  0  0  0
  -24.1550  -13.0790   20.9030 C   0  0  0  0  0  0  0  0  0  0  0  0
  -24.6190  -11.7280   20.8660 C   0  0  0  0  0  0  0  0  0  0  0  0
  -26.2660  -12.9760   20.2960 N   0  0  0  0  0  0  0  0  0  0  0  0
  -25.9090  -11.6920   20.5560 N   0  0  0  0  0  0  0  0  0  0  0  0
  -23.8930  -10.4650   21.0550 C   0  0  0  0  0  0  0  0  0  0  0  0
  -24.3270   -9.4970   21.9860 C   0  0  0  0  0  3  0  0  0  0  0  0
  -23.6020   -8.2980   22.1620 C   0  0  0  0  0  3  0  0  0  0  0  0
  -22.4290   -8.0600   21.4080 C   0  0  0  0  0  0  0  0  0  0  0  0
  -22.0140   -9.0190   20.4660 C   0  0  0  0  0  3  0  0  0  0  0  0
  -22.7400  -10.2090   20.2880 C   0  0  0  0  0  3  0  0  0  0  0  0
  -21.6760   -6.9150   21.4920 O   0  0  0  0  0  0  0  0  0  0  0  0
  -21.6260   -6.1690   22.6430 C   0  0  0  0  0  0  0  0  0  0  0  0
  -21.1880   -6.7190   23.8680 C   0  0  0  0  0  3  0  0  0  0  0  0
  -21.0860   -5.9000   25.0100 C   0  0  0  0  0  3  0  0  0  0  0  0
  -21.4130   -4.5330   24.9290 C   0  0  0  0  0  0  0  0  0  0  0  0
  -21.8450   -3.9840   23.7090 C   0  0  0  0  0  3  0  0  0  0  0  0
  -21.9490   -4.7990   22.5690 C   0  0  0  0  0  0  0  0  0  0  0  0
  -22.3460   -4.2610   21.3910 F   0  0  0  0  0  0  0  0  0  0  0  0
  -21.3080   -3.7450   26.0240 F   0  0  0  0  0  0  0  0  0  0  0  0
  -22.7570  -13.5540   21.1780 C   0  0  0  0  0  0  0  0  0  0  0  0
  -22.0290  -12.8530   22.0390 N   0  0  0  0  0  0  0  0  0  0  0  0
  -22.3210  -14.5840   20.6650 O   0  0  0  0  0  0  0  0  0  0  0  0
  -22.3930  -12.0210   22.4770 H   0  0  0  0  0  0  0  0  0  0  0  0
  -21.0920  -13.1560   22.2640 H   0  0  0  0  0  0  0  0  0  0  0  0
  -25.3750  -15.2290   20.3740 N   0  0  0  0  0  0  0  0  0  0  0  0
  -24.5960  -15.8630   20.5070 H   0  0  0  0  0  0  0  0  0  0  0  0
  -26.2180  -15.7200   20.0760 H   0  0  0  0  0  0  0  0  0  0  0  0
  -27.6400  -17.0870   19.3110 N   0  0  0  0  0  0  0  0  0  0  0  0
  -26.9530  -17.5930   18.7600 H   0  0  0  0  0  0  0  0  0  0  0  0
  -28.0070  -16.3150   18.7680 H   0  0  0  0  0  0  0  0  0  0  0  0
  -28.1230  -25.0230   20.6450 C   0  0  0  0  0  2  0  0  0  0  0  0
  -28.3270  -26.4470   20.2190 O   0  0  0  0  0  0  0  0  0  0  0  0
  -24.5900  -31.8800   23.2340 C   0  0  0  0  0  0  0  0  0  0  0  0
  -27.2110  -27.3080   20.1950 C   0  0  0  0  0  0  0  0  0  0  0  0
  -23.3880  -30.4740   21.5980 C   0  0  0  0  0  3  0  0  0  0  0  0
  -24.8420  -28.9210   20.1750 C   0  0  0  0  0  0  0  0  0  0  0  0
  -25.9270  -30.7960   21.4130 C   0  0  0  0  0  2  0  0  0  0  0  0
  -26.0110  -29.4140   20.7710 C   0  0  0  0  0  0  0  0  0  0  0  0
  -27.1990  -28.6190   20.7680 C   0  0  0  0  0  3  0  0  0  0  0  0
  -26.0230  -26.8760   19.5670 C   0  0  0  0  0  3  0  0  0  0  0  0
  -24.8510  -27.6580   19.5630 C   0  0  0  0  0  3  0  0  0  0  0  0
  -23.6030  -29.7940   20.2200 C   0  0  0  0  0  2  0  0  0  0  0  0
  -24.6530  -31.0680   22.1380 N   0  0  0  0  0  0  0  0  0  0  0  0
  -23.5060  -32.1570   23.7690 O   0  0  0  0  0  0  0  0  0  0  0  0
  -22.7280  -29.4590   22.5630 C   0  0  0  0  0  0  0  0  0  0  0  0
  -21.4010  -29.2820   22.4390 N   0  0  0  0  0  0  0  0  0  0  0  0
  -23.4090  -28.8350   23.3800 O   0  0  0  0  0  0  0  0  0  0  0  0
  -20.9110  -29.8380   21.7520 H   0  0  0  0  0  0  0  0  0  0  0  0
  -18.0240  -28.0900   22.9550 C   0  0  0  0  0  0  0  0  0  0  0  0
  -20.5840  -28.3460   23.2130 C   0  0  0  0  0  3  0  0  0  0  0  0
  -20.6810  -26.9140   22.6370 C   0  0  0  0  0  2  0  0  0  0  0  0
  -19.5730  -26.5940   21.6270 C   0  0  0  0  0  2  0  0  0  0  0  0
  -18.1960  -26.7410   22.2780 C   0  0  0  0  0  2  0  0  0  0  0  0
  -19.1460  -28.8500   23.3800 C   0  0  0  0  0  0  0  0  0  0  0  0
  -18.9330  -30.1140   23.9730 C   0  0  0  0  0  3  0  0  0  0  0  0
  -17.6290  -30.6160   24.1470 C   0  0  0  0  0  3  0  0  0  0  0  0
  -16.5220  -29.8530   23.7390 C   0  0  0  0  0  3  0  0  0  0  0  0
  -16.7200  -28.5920   23.1480 C   0  0  0  0  0  3  0  0  0  0  0  0
  -25.8710  -32.5170   23.8540 C   0  0  0  0  0  3  0  0  0  0  0  0
  -26.3890  -31.7520   25.1340 C   0  0  1  0  0  0  0  0  0  0  0  0
  -25.2960  -31.5190   26.2030 C   0  0  0  0  0  1  0  0  0  0  0  0
  -26.9720  -30.3740   24.7490 C   0  0  0  0  0  1  0  0  0  0  0  0
  -27.5380  -32.5510   25.7920 C   0  0  0  0  0  1  0  0  0  0  0  0
  -25.5580  -33.9170   24.1790 N   0  0  0  0  0  0  0  0  0  0  0  0
  -25.8880  -34.9690   23.4180 C   0  0  0  0  0  0  0  0  0  0  0  0
  -26.5570  -34.8640   22.3860 O   0  0  0  0  0  0  0  0  0  0  0  0
  -24.9660  -34.0710   24.9810 H   0  0  0  0  0  0  0  0  0  0  0  0
  -24.1620  -36.7630   23.0570 C   0  0  0  0  0  1  0  0  0  0  0  0
  -25.4000  -36.3580   23.8730 C   0  0  0  0  0  3  0  0  0  0  0  0
  -27.5320  -37.2440   24.7110 C   0  0  0  0  0  1  0  0  0  0  0  0
  -26.4330  -37.4110   23.7630 N   0  0  0  0  0  0  0  0  0  0  0  0
  -26.0270  -38.3310   23.9080 H   0  0  0  0  0  0  0  0  0  0  0  0
  1  6  2  0
  2  3  1  0
  2  5  1  0
  3  4  1  6
  3 54  1  0
  3  1  1  0
  5 10  1  0
  5  1  1  0
  7  8  1  0
  9 12  2  0
  9 10  1  0
 10  7  2  0
 11 21  1  0
 11  8  2  0
 12 11  1  0
 13 21  1  0
 14 19  1  0
 15 16  1  0
 15 14  1  0
 17 16  1  0
 17 26  1  0
 17 18  1  0
 19 13  1  0
 19 18  1  0
 20 13  2  0
 21 22  1  0
 23 24  2  0
 24 43  1  0
 25 24  1  0
 25 28  1  0
 26 23  1  0
 26 27  1  0
 27 25  2  0
 28 29  1  0
 29 30  2  0
 31 34  1  0
 31 30  1  0
 32 31  2  0
 33 32  1  0
 33 28  2  0
 34 35  1  0
 35 36  1  0
 36 37  2  0
 38 37  1  0
 38 42  1  0
 39 38  2  0
 40 35  2  0
 40 39  1  0
 41 40  1  0
 43 44  1  0
 44 47  1  0
 44 46  1  0
 45 43  2  0
 48 49  1  0
 48 23  1  0
 50 48  1  0
 51 12  1  0
 52 51  1  0
 53 51  1  0
 55 54  1  0
 56 67  2  0
 57 55  1  0
 57 62  1  0
 58 66  1  0
 58 68  1  0
 59 65  1  0
 59 61  1  0
 60 66  1  0
 61 60  1  0
 62 61  2  0
 63 57  2  0
 64 63  1  0
 64 59  2  0
 65 58  1  0
 66 56  1  0
 68 70  2  0
 69 68  1  0
 71 69  1  0
 72 81  2  0
 72 77  1  0
 73 69  1  0
 73 77  1  0
 74 73  1  0
 75 76  1  0
 75 74  1  0
 76 72  1  0
 77 78  2  0
 78 79  1  0
 80 79  2  0
 81 80  1  0
 82 56  1  0
 82 87  1  0
 82 83  1  0
 83 86  1  1
 83 84  1  0
 85 83  1  0
 87 90  1  0
 88 92  1  0
 88 87  1  0
 89 88  2  0
 92 91  1  0
 94 92  1  0
 94 95  1  0
 94 93  1  0
M  ISO  4  13 100  21 100  54 101  55 101
M  END
>  <TORSDO>  (32) 
F 19

>  <SCORE>  (32) 
-14.933

>  <name>  (32) 
31

>  <ligand_id>  (32) 
31

>  <original_smiles>  (32) 
[H]c1c([H])c([H])c2c(c1[H])C([H])([H])C([H])([H])C([H])([H])C2([H])N([H])C(=O)C1([H])N(C(=O)C([H])(N([H])C(=O)C([H])(N([H])C([H])([H])[H])C([H])([H])[H])C(C([H])([H])[H])(C([H])([H])[H])C([H])([H])[H])C([H])([H])c2c([H])c(OC([H])([H])C3(C([H])([H])[H])C(=O)N(c4c([H])c([H])c(N([H])C(=O)N5C([H])([H])C([H])([H])C([H])([H])C([H])(n6nc(-c7c([H])c([H])c(Oc8c([H])c([H])c(F)c([H])c8F)c([H])c7[H])c(C(=O)N([H])[H])c6N([H])[H])C5([H])[H])c(N([H])[H])c4[H])C3([H])[H])c([H])c([H])c2C1([H])[H]

>  <smiles>  (32) 
[H]c1c([H])c([H])c2c(c1[H])C([H])([H])C([H])([H])C([H])([H])C2([H])N([H])C(=O)C1([H])N(C(=O)C([H])(N([H])C(=O)C([H])(N([H])C([H])([H])[H])C([H])([H])[H])C(C([H])([H])[H])(C([H])([H])[H])C([H])([H])[H])C([H])([H])c2c([H])c(OC([H])([H])C3(C([H])([H])[H])C(=O)N(c4c([H])c([H])c(N([H])C(=O)N5C([H])([H])C([H])([H])C([H])([H])C([H])(n6nc(-c7c([H])c([H])c(Oc8c([H])c([H])c(F)c([H])c8F)c([H])c7[H])c(C(=O)N([H])[H])c6N([H])[H])C5([H])[H])c(N([H])[H])c4[H])C3([H])[H])c([H])c([H])c2C1([H])[H]

$$$$
32:0:0
     RDKit          3D

 95104  0  0  1  0  0  0  0  0999 V2000
  -29.5740  -22.4310   21.7810 C   0  0  0  0  0  3  0  0  0  0  0  0
  -29.8650  -23.7470   21.7830 C   0  0  0  0  0  0  0  0  0  0  0  0
  -29.0660  -23.8020   19.3770 C   0  0  0  0  0  2  0  0  0  0  0  0
  -28.2140  -22.5680   19.7620 C   0  0  0  0  0  2  0  0  0  0  0  0
  -29.5390  -24.6680   20.5870 C   0  0  2  0  0  0  0  0  0  0  0  0
  -30.6310  -24.3450   22.9520 C   0  0  0  0  0  1  0  0  0  0  0  0
  -30.8270  -25.4150   20.1690 C   0  0  0  0  0  1  0  0  0  0  0  0
  -28.9050  -21.7610   20.7680 N   0  0  0  0  0  0  0  0  0  0  0  0
  -28.6930  -18.1680   19.8230 C   0  0  0  0  0  3  0  0  0  0  0  0
  -28.2030  -19.5130   19.8790 C   0  0  0  0  0  3  0  0  0  0  0  0
  -29.9150  -18.0070   20.4280 C   0  0  0  0  0  0  0  0  0  0  0  0
  -29.0360  -20.3770   20.5510 C   0  0  0  0  0  0  0  0  0  0  0  0
  -30.4390  -19.5170   21.1470 S   0  0  0  0  0  0  0  0  0  0  0  0
  -31.0560  -14.5430   19.9440 C   0  0  0  0  0  0  0  0  0  0  0  0
  -30.7160  -12.2790   19.0220 C   0  0  0  0  0  2  0  0  0  0  0  0
  -29.7300  -12.3310   17.8380 C   0  0  0  0  0  2  0  0  0  0  0  0
  -28.2770  -12.2260   18.3410 C   0  0  0  0  0  2  0  0  0  0  0  0
  -27.9700  -13.1950   19.5140 C   0  0  0  0  0  3  0  0  0  0  0  0
  -29.0700  -13.1260   20.5970 C   0  0  0  0  0  2  0  0  0  0  0  0
  -30.3620  -13.3730   19.9390 N   0  0  0  0  0  0  0  0  0  0  0  0
  -32.1730  -14.6300   19.4250 O   0  0  0  0  0  0  0  0  0  0  0  0
  -30.8690  -16.8700   20.5300 C   0  0  0  0  0  0  0  0  0  0  0  0
  -30.3710  -15.6250   20.3750 N   0  0  0  0  0  0  0  0  0  0  0  0
  -32.0670  -17.1060   20.7290 O   0  0  0  0  0  0  0  0  0  0  0  0
  -29.3820  -15.5060   20.4990 H   0  0  0  0  0  0  0  0  0  0  0  0
  -25.6510  -13.8630   20.4070 C   0  0  0  0  0  0  0  0  0  0  0  0
  -24.5820  -13.1160   20.8230 C   0  0  0  0  0  0  0  0  0  0  0  0
  -24.9860  -11.7510   20.7100 C   0  0  0  0  0  0  0  0  0  0  0  0
  -26.6430  -12.9530   20.0730 N   0  0  0  0  0  0  0  0  0  0  0  0
  -26.2500  -11.6770   20.3140 N   0  0  0  0  0  0  0  0  0  0  0  0
  -24.2240  -10.5100   20.9000 C   0  0  0  0  0  0  0  0  0  0  0  0
  -24.6190   -9.5390   21.8460 C   0  0  0  0  0  3  0  0  0  0  0  0
  -23.8590   -8.3620   22.0250 C   0  0  0  0  0  3  0  0  0  0  0  0
  -22.6910   -8.1490   21.2560 C   0  0  0  0  0  0  0  0  0  0  0  0
  -22.3150   -9.1070   20.2970 C   0  0  0  0  0  3  0  0  0  0  0  0
  -23.0750  -10.2750   20.1180 C   0  0  0  0  0  3  0  0  0  0  0  0
  -21.9070   -7.0240   21.3420 O   0  0  0  0  0  0  0  0  0  0  0  0
  -21.7360   -6.3560   22.5270 C   0  0  0  0  0  0  0  0  0  0  0  0
  -21.1870   -6.9870   23.6650 C   0  0  0  0  0  3  0  0  0  0  0  0
  -20.9620   -6.2440   24.8410 C   0  0  0  0  0  3  0  0  0  0  0  0
  -21.2770   -4.8720   24.8800 C   0  0  0  0  0  0  0  0  0  0  0  0
  -21.8190   -4.2410   23.7460 C   0  0  0  0  0  3  0  0  0  0  0  0
  -22.0440   -4.9820   22.5720 C   0  0  0  0  0  0  0  0  0  0  0  0
  -22.5450   -4.3640   21.4750 F   0  0  0  0  0  0  0  0  0  0  0  0
  -21.0550   -4.1570   26.0060 F   0  0  0  0  0  0  0  0  0  0  0  0
  -23.2250  -13.6340   21.2030 C   0  0  0  0  0  0  0  0  0  0  0  0
  -22.5300  -12.9370   22.0950 N   0  0  0  0  0  0  0  0  0  0  0  0
  -22.7920  -14.6900   20.7430 O   0  0  0  0  0  0  0  0  0  0  0  0
  -22.8950  -12.0820   22.4900 H   0  0  0  0  0  0  0  0  0  0  0  0
  -21.6200  -13.2650   22.3900 H   0  0  0  0  0  0  0  0  0  0  0  0
  -25.8540  -15.2320   20.2600 N   0  0  0  0  0  0  0  0  0  0  0  0
  -25.0930  -15.8870   20.3920 H   0  0  0  0  0  0  0  0  0  0  0  0
  -26.6290  -15.6260   19.7420 H   0  0  0  0  0  0  0  0  0  0  0  0
  -28.4390  -25.7070   20.9750 C   0  0  0  0  0  2  0  0  0  0  0  0
  -28.3910  -26.8250   20.0740 O   0  0  0  0  0  0  0  0  0  0  0  0
  -24.5360  -31.9330   23.2280 C   0  0  0  0  0  0  0  0  0  0  0  0
  -27.2270  -27.5520   20.1200 C   0  0  0  0  0  0  0  0  0  0  0  0
  -23.3470  -30.5350   21.5690 C   0  0  0  0  0  3  0  0  0  0  0  0
  -24.8190  -29.0260   20.1350 C   0  0  0  0  0  0  0  0  0  0  0  0
  -25.8680  -30.9260   21.3790 C   0  0  0  0  0  2  0  0  0  0  0  0
  -25.9710  -29.5610   20.7290 C   0  0  0  0  0  0  0  0  0  0  0  0
  -27.1820  -28.8310   20.7170 C   0  0  0  0  0  3  0  0  0  0  0  0
  -26.0630  -27.0260   19.5250 C   0  0  0  0  0  3  0  0  0  0  0  0
  -24.8580  -27.7550   19.5340 C   0  0  0  0  0  3  0  0  0  0  0  0
  -23.5660  -29.8720   20.1830 C   0  0  0  0  0  2  0  0  0  0  0  0
  -24.6020  -31.1450   22.1180 N   0  0  0  0  0  0  0  0  0  0  0  0
  -23.4520  -32.1900   23.7690 O   0  0  0  0  0  0  0  0  0  0  0  0
  -22.7050  -29.4980   22.5180 C   0  0  0  0  0  0  0  0  0  0  0  0
  -21.3820  -29.3080   22.3890 N   0  0  0  0  0  0  0  0  0  0  0  0
  -23.3940  -28.8690   23.3260 O   0  0  0  0  0  0  0  0  0  0  0  0
  -20.8880  -29.8680   21.7070 H   0  0  0  0  0  0  0  0  0  0  0  0
  -18.0100  -28.1190   22.9050 C   0  0  0  0  0  0  0  0  0  0  0  0
  -20.5730  -28.3570   23.1480 C   0  0  0  0  0  3  0  0  0  0  0  0
  -20.6610  -26.9400   22.5350 C   0  0  0  0  0  2  0  0  0  0  0  0
  -19.5420  -26.6480   21.5300 C   0  0  0  0  0  2  0  0  0  0  0  0
  -18.1710  -26.7850   22.1970 C   0  0  0  0  0  2  0  0  0  0  0  0
  -19.1390  -28.8650   23.3390 C   0  0  0  0  0  0  0  0  0  0  0  0
  -18.9350  -30.1140   23.9630 C   0  0  0  0  0  3  0  0  0  0  0  0
  -17.6360  -30.6180   24.1580 C   0  0  0  0  0  3  0  0  0  0  0  0
  -16.5210  -29.8700   23.7400 C   0  0  0  0  0  3  0  0  0  0  0  0
  -16.7100  -28.6220   23.1200 C   0  0  0  0  0  3  0  0  0  0  0  0
  -25.8160  -32.5680   23.8570 C   0  0  0  0  0  3  0  0  0  0  0  0
  -25.5050  -33.9690   24.1710 N   0  0  0  0  0  0  0  0  0  0  0  0
  -25.8650  -35.0160   23.4160 C   0  0  0  0  0  0  0  0  0  0  0  0
  -26.5650  -34.9050   22.4060 O   0  0  0  0  0  0  0  0  0  0  0  0
  -24.8850  -34.1300   24.9510 H   0  0  0  0  0  0  0  0  0  0  0  0
  -24.1690  -36.8210   22.9830 C   0  0  0  0  0  1  0  0  0  0  0  0
  -25.3680  -36.4080   23.8510 C   0  0  0  0  0  3  0  0  0  0  0  0
  -27.4710  -37.2740   24.7760 C   0  0  0  0  0  1  0  0  0  0  0  0
  -26.4110  -37.4530   23.7850 N   0  0  0  0  0  0  0  0  0  0  0  0
  -26.0050  -38.3750   23.9220 H   0  0  0  0  0  0  0  0  0  0  0  0
  -26.3230  -31.8060   25.1410 C   0  0  1  0  0  0  0  0  0  0  0  0
  -25.2180  -31.5670   26.1960 C   0  0  0  0  0  1  0  0  0  0  0  0
  -26.9190  -30.4300   24.7610 C   0  0  0  0  0  1  0  0  0  0  0  0
  -27.4590  -32.6100   25.8140 C   0  0  0  0  0  1  0  0  0  0  0  0
  1  2  2  0
  2  6  1  0
  3  4  1  0
  3  5  1  0
  4  8  1  0
  5  7  1  6
  5 54  1  0
  5  2  1  0
  8  1  1  0
  9 10  1  0
  9 11  2  0
 10 12  2  0
 11 22  1  0
 11 13  1  0
 12  8  1  0
 12 13  1  0
 14 23  1  0
 15 20  1  0
 16 17  1  0
 16 15  1  0
 18 17  1  0
 18 29  1  0
 18 19  1  0
 20 14  1  0
 20 19  1  0
 21 14  2  0
 22 24  2  0
 23 25  1  0
 23 22  1  0
 26 27  2  0
 27 46  1  0
 28 27  1  0
 28 31  1  0
 29 30  1  0
 29 26  1  0
 30 28  2  0
 31 32  1  0
 32 33  2  0
 34 37  1  0
 34 33  1  0
 35 34  2  0
 36 35  1  0
 36 31  2  0
 37 38  1  0
 38 43  2  0
 38 39  1  0
 39 40  2  0
 40 41  1  0
 41 45  1  0
 42 41  2  0
 43 42  1  0
 44 43  1  0
 46 47  1  0
 47 50  1  0
 47 49  1  0
 48 46  2  0
 51 52  1  0
 51 26  1  0
 53 51  1  0
 55 57  1  0
 55 54  1  0
 56 67  2  0
 57 62  1  0
 58 66  1  0
 58 68  1  0
 59 65  1  0
 59 61  1  0
 60 66  1  0
 61 60  1  0
 62 61  2  0
 63 64  1  0
 63 57  2  0
 64 59  2  0
 65 58  1  0
 66 56  1  0
 68 70  2  0
 69 68  1  0
 71 69  1  0
 72 81  2  0
 72 77  1  0
 73 69  1  0
 73 77  1  0
 74 73  1  0
 75 76  1  0
 75 74  1  0
 76 72  1  0
 77 78  2  0
 78 79  1  0
 80 79  2  0
 81 80  1  0
 82 56  1  0
 82 83  1  0
 82 92  1  0
 83 86  1  0
 84 88  1  0
 84 83  1  0
 85 84  2  0
 88 87  1  0
 90 88  1  0
 90 91  1  0
 90 89  1  0
 92 95  1  1
 92 93  1  0
 94 92  1  0
M  ISO  4  14 100  23 100  54 101  55 101
M  END
>  <TORSDO>  (33) 
F 18

>  <SCORE>  (33) 
-13.839

>  <name>  (33) 
32

>  <ligand_id>  (33) 
32

>  <original_smiles>  (33) 
[H]C1=C(C([H])([H])[H])C(C([H])([H])[H])(C([H])([H])Oc2c([H])c([H])c3c(c2[H])C([H])([H])N(C(=O)C([H])(N([H])C(=O)C([H])(N([H])C([H])([H])[H])C([H])([H])[H])C(C([H])([H])[H])(C([H])([H])[H])C([H])([H])[H])C([H])(C(=O)N([H])C2([H])c4c([H])c([H])c([H])c([H])c4C([H])([H])C([H])([H])C2([H])[H])C3([H])[H])C([H])([H])C([H])([H])N1c1sc(C(=O)N([H])C(=O)N2C([H])([H])C([H])([H])C([H])([H])C([H])(n3nc(-c4c([H])c([H])c(Oc5c([H])c([H])c(F)c([H])c5F)c([H])c4[H])c(C(=O)N([H])[H])c3N([H])[H])C2([H])[H])c([H])c1[H]

>  <smiles>  (33) 
[H]C1=C(C([H])([H])[H])C(C([H])([H])[H])(C([H])([H])Oc2c([H])c([H])c3c(c2[H])C([H])([H])N(C(=O)C([H])(N([H])C(=O)C([H])(N([H])C([H])([H])[H])C([H])([H])[H])C(C([H])([H])[H])(C([H])([H])[H])C([H])([H])[H])C([H])(C(=O)N([H])C2([H])c4c([H])c([H])c([H])c([H])c4C([H])([H])C([H])([H])C2([H])[H])C3([H])[H])C([H])([H])C([H])([H])N1c1sc(C(=O)N([H])C(=O)N2C([H])([H])C([H])([H])C([H])([H])C([H])(n3nc(-c4c([H])c([H])c(Oc5c([H])c([H])c(F)c([H])c5F)c([H])c4[H])c(C(=O)N([H])[H])c3N([H])[H])C2([H])[H])c([H])c1[H]

$$$$
33:0:0
     RDKit          3D

 93102  0  0  1  0  0  0  0  0999 V2000
  -28.6400  -22.8840   20.2510 C   0  0  0  0  0  0  0  0  0  0  0  0
  -29.8140  -22.2550   19.7070 C   0  0  0  0  0  0  0  0  0  0  0  0
  -28.2660  -21.6040   20.8140 C   0  0  0  0  0  0  0  0  0  0  0  0
  -28.0820  -24.1410   20.2450 C   0  0  0  0  0  3  0  0  0  0  0  0
  -29.4220  -21.0000   20.2560 N   0  0  0  0  0  0  0  0  0  0  0  0
  -30.7600  -22.7130   19.0950 O   0  0  0  0  0  0  0  0  0  0  0  0
  -27.3420  -21.2810   21.5340 O   0  0  0  0  0  0  0  0  0  0  0  0
  -32.3430  -18.7830   21.1560 C   0  0  0  0  0  3  0  0  0  0  0  0
  -31.5190  -19.8850   20.8730 C   0  0  0  0  0  3  0  0  0  0  0  0
  -31.8470  -17.4760   21.0560 C   0  0  0  0  0  3  0  0  0  0  0  0
  -29.6790  -18.3940   20.4340 C   0  0  0  0  0  3  0  0  0  0  0  0
  -30.1540  -19.7600   20.5130 C   0  0  0  0  0  0  0  0  0  0  0  0
  -30.5140  -17.2350   20.6580 C   0  0  0  0  0  0  0  0  0  0  0  0
  -30.7590  -14.7420   20.1570 C   0  0  0  0  0  0  0  0  0  0  0  0
  -30.4570  -12.5310   19.0690 C   0  0  0  0  0  2  0  0  0  0  0  0
  -29.4810  -12.6760   17.8840 C   0  0  0  0  0  2  0  0  0  0  0  0
  -28.0260  -12.5120   18.3620 C   0  0  0  0  0  2  0  0  0  0  0  0
  -27.7080  -13.3690   19.6190 C   0  0  0  0  0  3  0  0  0  0  0  0
  -28.8030  -13.2240   20.6990 C   0  0  0  0  0  2  0  0  0  0  0  0
  -30.0890  -13.5520   20.0710 N   0  0  0  0  0  0  0  0  0  0  0  0
  -31.9080  -14.8410   19.7190 O   0  0  0  0  0  0  0  0  0  0  0  0
  -30.0450  -15.8540   20.5330 N   0  0  0  0  0  0  0  0  0  0  0  0
  -29.0630  -15.6960   20.6980 H   0  0  0  0  0  0  0  0  0  0  0  0
  -25.3430  -13.9510   20.4330 C   0  0  0  0  0  0  0  0  0  0  0  0
  -24.2910  -13.1690   20.8270 C   0  0  0  0  0  0  0  0  0  0  0  0
  -24.7530  -11.8190   20.7560 C   0  0  0  0  0  0  0  0  0  0  0  0
  -26.3790  -13.0770   20.1470 N   0  0  0  0  0  0  0  0  0  0  0  0
  -26.0320  -11.7880   20.4020 N   0  0  0  0  0  0  0  0  0  0  0  0
  -24.0350  -10.5520   20.9490 C   0  0  0  0  0  0  0  0  0  0  0  0
  -24.4560   -9.6030   21.9060 C   0  0  0  0  0  3  0  0  0  0  0  0
  -23.7380   -8.4000   22.0860 C   0  0  0  0  0  3  0  0  0  0  0  0
  -22.5840   -8.1400   21.3080 C   0  0  0  0  0  0  0  0  0  0  0  0
  -22.1830   -9.0790   20.3420 C   0  0  0  0  0  3  0  0  0  0  0  0
  -22.9020  -10.2720   20.1590 C   0  0  0  0  0  3  0  0  0  0  0  0
  -21.8390   -6.9890   21.3960 O   0  0  0  0  0  0  0  0  0  0  0  0
  -21.7250   -6.2930   22.5730 C   0  0  0  0  0  0  0  0  0  0  0  0
  -21.1720   -6.8780   23.7330 C   0  0  0  0  0  3  0  0  0  0  0  0
  -21.0100   -6.1060   24.9010 C   0  0  0  0  0  3  0  0  0  0  0  0
  -21.3900   -4.7500   24.9080 C   0  0  0  0  0  0  0  0  0  0  0  0
  -21.9360   -4.1650   23.7530 C   0  0  0  0  0  3  0  0  0  0  0  0
  -22.1000   -4.9350   22.5870 C   0  0  0  0  0  0  0  0  0  0  0  0
  -22.6070   -4.3610   21.4690 F   0  0  0  0  0  0  0  0  0  0  0  0
  -21.2270   -4.0070   26.0280 F   0  0  0  0  0  0  0  0  0  0  0  0
  -22.9030  -13.6390   21.1550 C   0  0  0  0  0  0  0  0  0  0  0  0
  -22.2000  -12.9180   22.0200 N   0  0  0  0  0  0  0  0  0  0  0  0
  -22.4530  -14.6810   20.6800 O   0  0  0  0  0  0  0  0  0  0  0  0
  -22.5780  -12.0740   22.4260 H   0  0  0  0  0  0  0  0  0  0  0  0
  -21.2700  -13.2130   22.2820 H   0  0  0  0  0  0  0  0  0  0  0  0
  -25.5000  -15.3240   20.2720 N   0  0  0  0  0  0  0  0  0  0  0  0
  -24.7330  -15.9730   20.4150 H   0  0  0  0  0  0  0  0  0  0  0  0
  -26.3260  -15.7680   19.8930 H   0  0  0  0  0  0  0  0  0  0  0  0
  -28.5530  -25.4160   19.4890 C   0  0  0  0  0  2  0  0  0  0  0  0
  -28.4090  -26.7110   20.1610 O   0  0  0  0  0  0  0  0  0  0  0  0
  -24.5910  -31.9530   23.2090 C   0  0  0  0  0  0  0  0  0  0  0  0
  -27.2400  -27.4730   20.1020 C   0  0  0  0  0  0  0  0  0  0  0  0
  -23.3890  -30.5540   21.5640 C   0  0  0  0  0  3  0  0  0  0  0  0
  -24.8460  -29.0270   20.1180 C   0  0  0  0  0  0  0  0  0  0  0  0
  -25.9190  -30.9080   21.3650 C   0  0  0  0  0  2  0  0  0  0  0  0
  -26.0070  -29.5360   20.7130 C   0  0  0  0  0  0  0  0  0  0  0  0
  -27.2020  -28.7670   20.6980 C   0  0  0  0  0  3  0  0  0  0  0  0
  -26.0540  -26.9980   19.4970 C   0  0  0  0  0  3  0  0  0  0  0  0
  -24.8690  -27.7620   19.5060 C   0  0  0  0  0  3  0  0  0  0  0  0
  -23.6000  -29.8860   20.1780 C   0  0  0  0  0  2  0  0  0  0  0  0
  -24.6520  -31.1550   22.1040 N   0  0  0  0  0  0  0  0  0  0  0  0
  -23.5090  -32.2160   23.7540 O   0  0  0  0  0  0  0  0  0  0  0  0
  -22.7430  -29.5260   22.5210 C   0  0  0  0  0  0  0  0  0  0  0  0
  -21.4180  -29.3430   22.4030 N   0  0  0  0  0  0  0  0  0  0  0  0
  -23.4330  -28.8950   23.3270 O   0  0  0  0  0  0  0  0  0  0  0  0
  -20.9210  -29.9040   21.7250 H   0  0  0  0  0  0  0  0  0  0  0  0
  -18.0470  -28.1460   22.9310 C   0  0  0  0  0  0  0  0  0  0  0  0
  -20.6090  -28.3960   23.1710 C   0  0  0  0  0  3  0  0  0  0  0  0
  -20.7000  -26.9740   22.5720 C   0  0  0  0  0  2  0  0  0  0  0  0
  -19.5840  -26.6680   21.5670 C   0  0  0  0  0  2  0  0  0  0  0  0
  -18.2120  -26.8070   22.2320 C   0  0  0  0  0  2  0  0  0  0  0  0
  -19.1730  -28.9000   23.3570 C   0  0  0  0  0  0  0  0  0  0  0  0
  -18.9640  -30.1540   23.9700 C   0  0  0  0  0  3  0  0  0  0  0  0
  -17.6640  -30.6560   24.1610 C   0  0  0  0  0  3  0  0  0  0  0  0
  -16.5530  -29.8990   23.7520 C   0  0  0  0  0  3  0  0  0  0  0  0
  -16.7450  -28.6470   23.1420 C   0  0  0  0  0  3  0  0  0  0  0  0
  -25.8740  -32.5890   23.8310 C   0  0  0  0  0  3  0  0  0  0  0  0
  -25.5620  -33.9880   24.1560 N   0  0  0  0  0  0  0  0  0  0  0  0
  -25.9040  -35.0400   23.4000 C   0  0  0  0  0  0  0  0  0  0  0  0
  -26.5840  -34.9350   22.3760 O   0  0  0  0  0  0  0  0  0  0  0  0
  -24.9590  -34.1450   24.9500 H   0  0  0  0  0  0  0  0  0  0  0  0
  -24.1960  -36.8450   23.0090 C   0  0  0  0  0  1  0  0  0  0  0  0
  -25.4120  -36.4290   23.8500 C   0  0  0  0  0  3  0  0  0  0  0  0
  -27.5260  -37.3020   24.7450 C   0  0  0  0  0  1  0  0  0  0  0  0
  -26.4550  -37.4760   23.7700 N   0  0  0  0  0  0  0  0  0  0  0  0
  -26.0490  -38.3990   23.9050 H   0  0  0  0  0  0  0  0  0  0  0  0
  -26.3910  -31.8240   25.1100 C   0  0  1  0  0  0  0  0  0  0  0  0
  -25.2960  -31.5810   26.1750 C   0  0  0  0  0  1  0  0  0  0  0  0
  -26.9840  -30.4490   24.7230 C   0  0  0  0  0  1  0  0  0  0  0  0
  -27.5340  -32.6270   25.7750 C   0  0  0  0  0  1  0  0  0  0  0  0
  1  3  1  0
  2  1  1  0
  2  5  1  0
  3  7  2  0
  4  1  2  0
  5 12  1  0
  5  3  1  0
  6  2  2  0
  9  8  2  0
 10  8  1  0
 11 12  2  0
 11 13  1  0
 12  9  1  0
 13 10  2  0
 14 22  1  0
 15 20  1  0
 16 17  1  0
 16 15  1  0
 18 17  1  0
 18 27  1  0
 18 19  1  0
 20 14  1  0
 20 19  1  0
 21 14  2  0
 22 13  1  0
 22 23  1  0
 24 25  2  0
 25 44  1  0
 26 25  1  0
 26 29  1  0
 27 28  1  0
 27 24  1  0
 28 26  2  0
 29 30  1  0
 30 31  2  0
 32 35  1  0
 32 31  1  0
 33 32  2  0
 34 33  1  0
 34 29  2  0
 35 36  1  0
 36 41  2  0
 36 37  1  0
 37 38  2  0
 38 39  1  0
 39 43  1  0
 40 39  2  0
 41 40  1  0
 42 41  1  0
 44 45  1  0
 45 48  1  0
 45 47  1  0
 46 44  2  0
 49 50  1  0
 49 24  1  0
 51 49  1  0
 52 53  1  0
 52  4  1  0
 54 65  2  0
 55 53  1  0
 55 60  1  0
 56 64  1  0
 56 66  1  0
 57 63  1  0
 57 59  1  0
 58 64  1  0
 59 58  1  0
 60 59  2  0
 61 62  1  0
 61 55  2  0
 62 57  2  0
 63 56  1  0
 64 54  1  0
 66 68  2  0
 67 66  1  0
 69 67  1  0
 70 79  2  0
 70 75  1  0
 71 67  1  0
 71 75  1  0
 72 71  1  0
 73 74  1  0
 73 72  1  0
 74 70  1  0
 75 76  2  0
 76 77  1  0
 78 77  2  0
 79 78  1  0
 80 54  1  0
 80 81  1  0
 80 90  1  0
 81 84  1  0
 82 86  1  0
 82 81  1  0
 83 82  2  0
 86 85  1  0
 88 86  1  0
 88 89  1  0
 88 87  1  0
 90 93  1  1
 90 91  1  0
 92 90  1  0
M  ISO  4  14 100  22 100  52 101  53 101
M  END
>  <TORSDO>  (34) 
F 18

>  <SCORE>  (34) 
-14.317

>  <name>  (34) 
33

>  <ligand_id>  (34) 
33

>  <original_smiles>  (34) 
[H]C(=C1C(=O)N(c2c([H])c([H])c([H])c(N([H])C(=O)N3C([H])([H])C([H])([H])C([H])([H])C([H])(n4nc(-c5c([H])c([H])c(Oc6c([H])c([H])c(F)c([H])c6F)c([H])c5[H])c(C(=O)N([H])[H])c4N([H])[H])C3([H])[H])c2[H])C1=O)C([H])([H])Oc1c([H])c([H])c2c(c1[H])C([H])([H])N(C(=O)C([H])(N([H])C(=O)C([H])(N([H])C([H])([H])[H])C([H])([H])[H])C(C([H])([H])[H])(C([H])([H])[H])C([H])([H])[H])C([H])(C(=O)N([H])C1([H])c3c([H])c([H])c([H])c([H])c3C([H])([H])C([H])([H])C1([H])[H])C2([H])[H]

>  <smiles>  (34) 
[H]C(=C1C(=O)N(c2c([H])c([H])c([H])c(N([H])C(=O)N3C([H])([H])C([H])([H])C([H])([H])C([H])(n4nc(-c5c([H])c([H])c(Oc6c([H])c([H])c(F)c([H])c6F)c([H])c5[H])c(C(=O)N([H])[H])c4N([H])[H])C3([H])[H])c2[H])C1=O)C([H])([H])Oc1c([H])c([H])c2c(c1[H])C([H])([H])N(C(=O)C([H])(N([H])C(=O)C([H])(N([H])C([H])([H])[H])C([H])([H])[H])C(C([H])([H])[H])(C([H])([H])[H])C([H])([H])[H])C([H])(C(=O)N([H])C1([H])c3c([H])c([H])c([H])c([H])c3C([H])([H])C([H])([H])C1([H])[H])C2([H])[H]

$$$$
34:0:0
     RDKit          3D

 97105  0  0  1  0  0  0  0  0999 V2000
  -30.7330  -21.1800   21.6160 C   0  0  0  0  0  0  0  0  0  0  0  0
  -30.1100  -22.1600   20.9200 N   0  0  0  0  0  0  0  0  0  0  0  0
  -31.5410  -21.5410   22.6150 N   0  0  0  0  0  4  0  0  0  0  0  0
  -29.4970  -21.8770   20.1630 H   0  0  0  0  0  0  0  0  0  0  0  0
  -31.9810  -20.8290   23.1780 H   0  0  0  0  0  0  0  0  0  0  0  0
  -31.6820  -22.5060   22.8540 H   0  0  0  0  0  0  0  0  0  0  0  0
  -31.6580  -18.8410   21.5270 C   0  0  0  0  0  3  0  0  0  0  0  0
  -31.4990  -17.4460   21.3500 C   0  0  0  0  0  3  0  0  0  0  0  0
  -29.3250  -19.1960   20.9480 C   0  0  0  0  0  3  0  0  0  0  0  0
  -30.5710  -19.7340   21.3390 C   0  0  0  0  0  0  0  0  0  0  0  0
  -30.2450  -16.9100   20.9730 C   0  0  0  0  0  0  0  0  0  0  0  0
  -29.1660  -17.8020   20.7710 C   0  0  0  0  0  0  0  0  0  0  0  0
  -27.9570  -17.3060   20.4080 F   0  0  0  0  0  0  0  0  0  0  0  0
  -30.6670  -14.5620   20.2010 C   0  0  0  0  0  0  0  0  0  0  0  0
  -30.3240  -12.4620   18.9390 C   0  0  0  0  0  2  0  0  0  0  0  0
  -29.3220  -12.7180   17.7920 C   0  0  0  0  0  2  0  0  0  0  0  0
  -27.8710  -12.5460   18.2870 C   0  0  0  0  0  2  0  0  0  0  0  0
  -27.5940  -13.3260   19.6010 C   0  0  0  0  0  3  0  0  0  0  0  0
  -28.6990  -13.0440   20.6450 C   0  0  0  0  0  2  0  0  0  0  0  0
  -29.9960  -13.3880   20.0350 N   0  0  0  0  0  0  0  0  0  0  0  0
  -31.7640  -14.7830   19.6770 O   0  0  0  0  0  0  0  0  0  0  0  0
  -29.9800  -15.5100   20.8650 N   0  0  0  0  0  0  0  0  0  0  0  0
  -29.0500  -15.2370   21.1390 H   0  0  0  0  0  0  0  0  0  0  0  0
  -25.2190  -13.9040   20.4090 C   0  0  0  0  0  0  0  0  0  0  0  0
  -24.1740  -13.1170   20.8130 C   0  0  0  0  0  0  0  0  0  0  0  0
  -24.6480  -11.7720   20.7530 C   0  0  0  0  0  0  0  0  0  0  0  0
  -26.2630  -13.0360   20.1290 N   0  0  0  0  0  0  0  0  0  0  0  0
  -25.9250  -11.7470   20.3920 N   0  0  0  0  0  0  0  0  0  0  0  0
  -23.9450  -10.5000   20.9610 C   0  0  0  0  0  0  0  0  0  0  0  0
  -24.4040   -9.5480   21.8990 C   0  0  0  0  0  3  0  0  0  0  0  0
  -23.7000   -8.3390   22.0950 C   0  0  0  0  0  3  0  0  0  0  0  0
  -22.5250   -8.0750   21.3530 C   0  0  0  0  0  0  0  0  0  0  0  0
  -22.0860   -9.0160   20.4040 C   0  0  0  0  0  3  0  0  0  0  0  0
  -22.7890  -10.2160   20.2080 C   0  0  0  0  0  3  0  0  0  0  0  0
  -21.7890   -6.9190   21.4580 O   0  0  0  0  0  0  0  0  0  0  0  0
  -21.7370   -6.2040   22.6270 C   0  0  0  0  0  0  0  0  0  0  0  0
  -21.2660   -6.7740   23.8300 C   0  0  0  0  0  3  0  0  0  0  0  0
  -21.1630   -5.9840   24.9910 C   0  0  0  0  0  3  0  0  0  0  0  0
  -21.5200   -4.6220   24.9510 C   0  0  0  0  0  0  0  0  0  0  0  0
  -21.9840   -4.0520   23.7530 C   0  0  0  0  0  3  0  0  0  0  0  0
  -22.0890   -4.8400   22.5940 C   0  0  0  0  0  0  0  0  0  0  0  0
  -22.5170   -4.2790   21.4360 F   0  0  0  0  0  0  0  0  0  0  0  0
  -21.4140   -3.8610   26.0640 F   0  0  0  0  0  0  0  0  0  0  0  0
  -22.7840  -13.5760   21.1450 C   0  0  0  0  0  0  0  0  0  0  0  0
  -22.0970  -12.8590   22.0270 N   0  0  0  0  0  0  0  0  0  0  0  0
  -22.3170  -14.6050   20.6590 O   0  0  0  0  0  0  0  0  0  0  0  0
  -22.4890  -12.0270   22.4410 H   0  0  0  0  0  0  0  0  0  0  0  0
  -21.1660  -13.1470   22.2930 H   0  0  0  0  0  0  0  0  0  0  0  0
  -25.3630  -15.2790   20.2450 N   0  0  0  0  0  0  0  0  0  0  0  0
  -24.5990  -15.9220   20.4230 H   0  0  0  0  0  0  0  0  0  0  0  0
  -26.2140  -15.7490   19.9600 H   0  0  0  0  0  0  0  0  0  0  0  0
  -31.5310  -24.1480   20.4070 C   0  0  0  0  0  1  0  0  0  0  0  0
  -30.2500  -23.6380   21.1030 C   0  0  0  0  0  3  0  0  0  0  0  0
  -29.0270  -24.4080   20.5300 C   0  0  0  0  0  0  0  0  0  0  0  0
  -28.3180  -23.9220   19.6420 O   0  0  0  0  0  0  0  0  0  0  0  0
  -28.7160  -25.8140   21.1060 C   0  0  0  0  0  2  0  0  0  0  0  0
  -28.4880  -26.7840   20.0670 O   0  0  0  0  0  0  0  0  0  0  0  0
  -24.6210  -31.9110   23.2400 C   0  0  0  0  0  0  0  0  0  0  0  0
  -27.3140  -27.4990   20.1530 C   0  0  0  0  0  0  0  0  0  0  0  0
  -23.4290  -30.5020   21.5910 C   0  0  0  0  0  3  0  0  0  0  0  0
  -24.9000  -28.9750   20.1710 C   0  0  0  0  0  0  0  0  0  0  0  0
  -25.9520  -30.8840   21.3990 C   0  0  0  0  0  2  0  0  0  0  0  0
  -26.0520  -29.5110   20.7620 C   0  0  0  0  0  0  0  0  0  0  0  0
  -27.2640  -28.7800   20.7500 C   0  0  0  0  0  3  0  0  0  0  0  0
  -26.1470  -26.9730   19.5640 C   0  0  0  0  0  3  0  0  0  0  0  0
  -24.9400  -27.7010   19.5740 C   0  0  0  0  0  3  0  0  0  0  0  0
  -23.6480  -29.8240   20.2130 C   0  0  0  0  0  2  0  0  0  0  0  0
  -24.6860  -31.1140   22.1350 N   0  0  0  0  0  0  0  0  0  0  0  0
  -23.5350  -32.1740   23.7780 O   0  0  0  0  0  0  0  0  0  0  0  0
  -22.7830  -29.4760   22.5480 C   0  0  0  0  0  0  0  0  0  0  0  0
  -21.4590  -29.2910   22.4220 N   0  0  0  0  0  0  0  0  0  0  0  0
  -23.4700  -28.8490   23.3580 O   0  0  0  0  0  0  0  0  0  0  0  0
  -20.9680  -29.8510   21.7390 H   0  0  0  0  0  0  0  0  0  0  0  0
  -18.0880  -28.0920   22.9290 C   0  0  0  0  0  0  0  0  0  0  0  0
  -20.6470  -28.3450   23.1860 C   0  0  0  0  0  3  0  0  0  0  0  0
  -20.7430  -26.9200   22.5930 C   0  0  0  0  0  2  0  0  0  0  0  0
  -19.6330  -26.6110   21.5820 C   0  0  0  0  0  2  0  0  0  0  0  0
  -18.2570  -26.7520   22.2350 C   0  0  0  0  0  2  0  0  0  0  0  0
  -19.2100  -28.8480   23.3600 C   0  0  0  0  0  0  0  0  0  0  0  0
  -18.9970  -30.1070   23.9640 C   0  0  0  0  0  3  0  0  0  0  0  0
  -17.6940  -30.6080   24.1450 C   0  0  0  0  0  3  0  0  0  0  0  0
  -16.5870  -29.8470   23.7310 C   0  0  0  0  0  3  0  0  0  0  0  0
  -16.7850  -28.5920   23.1280 C   0  0  0  0  0  3  0  0  0  0  0  0
  -25.9020  -32.5480   23.8670 C   0  0  0  0  0  3  0  0  0  0  0  0
  -26.4210  -31.7750   25.1410 C   0  0  1  0  0  0  0  0  0  0  0  0
  -25.3250  -31.5270   26.2040 C   0  0  0  0  0  1  0  0  0  0  0  0
  -27.0150  -30.4010   24.7460 C   0  0  0  0  0  1  0  0  0  0  0  0
  -27.5650  -32.5740   25.8090 C   0  0  0  0  0  1  0  0  0  0  0  0
  -25.5870  -33.9430   24.1950 N   0  0  0  0  0  0  0  0  0  0  0  0
  -25.9180  -34.9970   23.4360 C   0  0  0  0  0  0  0  0  0  0  0  0
  -26.5920  -34.8950   22.4070 O   0  0  0  0  0  0  0  0  0  0  0  0
  -24.9920  -34.0980   24.9950 H   0  0  0  0  0  0  0  0  0  0  0  0
  -24.1840  -36.7800   23.0660 C   0  0  0  0  0  1  0  0  0  0  0  0
  -25.4210  -36.3820   23.8900 C   0  0  0  0  0  3  0  0  0  0  0  0
  -27.5430  -37.2750   24.7420 C   0  0  0  0  0  1  0  0  0  0  0  0
  -26.4510  -37.4400   23.7860 N   0  0  0  0  0  0  0  0  0  0  0  0
  -26.0390  -38.3590   23.9290 H   0  0  0  0  0  0  0  0  0  0  0  0
  1  3  2  0
  2 53  1  0
  2  1  1  0
  3  6  1  0
  3  5  1  0
  4  2  1  0
  8  7  1  0
  9 10  1  0
 10  7  2  0
 10  1  1  0
 11  8  2  0
 12  9  2  0
 12 11  1  0
 13 12  1  0
 14 22  1  0
 15 20  1  0
 16 17  1  0
 16 15  1  0
 18 17  1  0
 18 27  1  0
 18 19  1  0
 20 14  1  0
 20 19  1  0
 21 14  2  0
 22 11  1  0
 22 23  1  0
 24 25  2  0
 25 44  1  0
 26 25  1  0
 26 29  1  0
 27 28  1  0
 27 24  1  0
 28 26  2  0
 29 30  1  0
 30 31  2  0
 32 35  1  0
 32 31  1  0
 33 32  2  0
 34 33  1  0
 34 29  2  0
 35 36  1  0
 36 37  1  0
 37 38  2  0
 39 38  1  0
 39 43  1  0
 40 39  2  0
 41 36  2  0
 41 40  1  0
 42 41  1  0
 44 45  1  0
 45 48  1  0
 45 47  1  0
 46 44  2  0
 49 24  1  0
 49 50  1  0
 51 49  1  0
 53 52  1  0
 54 53  1  0
 54 56  1  0
 55 54  2  0
 57 59  1  0
 57 56  1  0
 58 69  2  0
 59 64  1  0
 60 68  1  0
 60 70  1  0
 61 67  1  0
 61 63  1  0
 62 68  1  0
 63 62  1  0
 64 63  2  0
 65 66  1  0
 65 59  2  0
 66 61  2  0
 67 60  1  0
 68 58  1  0
 70 72  2  0
 71 70  1  0
 73 71  1  0
 74 83  2  0
 74 79  1  0
 75 71  1  0
 75 79  1  0
 76 75  1  0
 77 78  1  0
 77 76  1  0
 78 74  1  0
 79 80  2  0
 80 81  1  0
 82 81  2  0
 83 82  1  0
 84 58  1  0
 84 89  1  0
 84 85  1  0
 85 88  1  1
 85 86  1  0
 87 85  1  0
 89 92  1  0
 90 94  1  0
 90 89  1  0
 91 90  2  0
 94 93  1  0
 96 94  1  0
 96 97  1  0
 96 95  1  0
M  ISO  4  14 100  22 100  56 101  57 101
M  END
>  <TORSDO>  (35) 
F 20

>  <SCORE>  (35) 
-14.270

>  <name>  (35) 
34

>  <ligand_id>  (35) 
34

>  <original_smiles>  (35) 
[H]c1c([H])c([H])c2c(c1[H])C([H])([H])C([H])([H])C([H])([H])C2([H])N([H])C(=O)C1([H])N(C(=O)C([H])(N([H])C(=O)C([H])(N([H])C([H])([H])[H])C([H])([H])[H])C(C([H])([H])[H])(C([H])([H])[H])C([H])([H])[H])C([H])([H])c2c([H])c(OC([H])([H])C(=O)C([H])(N([H])C(c3c([H])c([H])c(N([H])C(=O)N4C([H])([H])C([H])([H])C([H])([H])C([H])(n5nc(-c6c([H])c([H])c(Oc7c([H])c([H])c(F)c([H])c7F)c([H])c6[H])c(C(=O)N([H])[H])c5N([H])[H])C4([H])[H])c(F)c3[H])=[N+]([H])[H])C([H])([H])[H])c([H])c([H])c2C1([H])[H]

>  <smiles>  (35) 
[H]c1c([H])c([H])c2c(c1[H])C([H])([H])C([H])([H])C([H])([H])C2([H])N([H])C(=O)C1([H])N(C(=O)C([H])(N([H])C(=O)C([H])(N([H])C([H])([H])[H])C([H])([H])[H])C(C([H])([H])[H])(C([H])([H])[H])C([H])([H])[H])C([H])([H])c2c([H])c(OC([H])([H])C(=O)C([H])(N([H])C(c3c([H])c([H])c(N([H])C(=O)N4C([H])([H])C([H])([H])C([H])([H])C([H])(n5nc(-c6c([H])c([H])c(Oc7c([H])c([H])c(F)c([H])c7F)c([H])c6[H])c(C(=O)N([H])[H])c5N([H])[H])C4([H])[H])c(F)c3[H])=[N+]([H])[H])C([H])([H])[H])c([H])c([H])c2C1([H])[H]

$$$$
35:0:0
     RDKit          3D

 95104  0  0  1  0  0  0  0  0999 V2000
  -29.2260  -24.0490   21.7170 C   0  0  0  0  0  0  0  0  0  0  0  0
  -29.0950  -24.3430   20.2860 C   0  0  0  0  0  0  0  0  0  0  0  0
  -29.0960  -22.5120   21.8950 C   0  0  0  0  0  0  0  0  0  0  0  0
  -28.9830  -25.5580   19.6740 C   0  0  0  0  0  3  0  0  0  0  0  0
  -29.0360  -22.9750   19.5970 C   0  0  0  0  0  2  0  0  0  0  0  0
  -29.0780  -21.9520   20.6580 N   0  0  0  0  0  0  0  0  0  0  0  0
  -29.4260  -24.8480   22.6400 O   0  0  0  0  0  0  0  0  0  0  0  0
  -29.0110  -21.9320   22.9900 O   0  0  0  0  0  0  0  0  0  0  0  0
  -27.4000  -18.6690   19.9050 C   0  0  0  0  0  3  0  0  0  0  0  0
  -28.4640  -17.7490   19.9840 C   0  0  0  0  0  3  0  0  0  0  0  0
  -27.6200  -20.0470   20.0990 C   0  0  0  0  0  3  0  0  0  0  0  0
  -29.9970  -19.6010   20.4180 C   0  0  0  0  0  3  0  0  0  0  0  0
  -29.7890  -18.1920   20.2210 C   0  0  0  0  0  0  0  0  0  0  0  0
  -28.9140  -20.5370   20.3900 C   0  0  0  0  0  0  0  0  0  0  0  0
  -31.4290  -14.8000   20.7170 C   0  0  0  0  0  0  0  0  0  0  0  0
  -31.3580  -12.3480   20.3570 C   0  0  0  0  0  2  0  0  0  0  0  0
  -30.6030  -12.0580   19.0440 C   0  0  0  0  0  2  0  0  0  0  0  0
  -29.0980  -11.9170   19.3210 C   0  0  0  0  0  2  0  0  0  0  0  0
  -28.5410  -13.0890   20.1710 C   0  0  0  0  0  3  0  0  0  0  0  0
  -29.4350  -13.3900   21.3970 C   0  0  0  0  0  2  0  0  0  0  0  0
  -30.8090  -13.5970   20.9190 N   0  0  0  0  0  0  0  0  0  0  0  0
  -32.6320  -14.8440   20.4390 O   0  0  0  0  0  0  0  0  0  0  0  0
  -30.9310  -17.1760   20.2860 C   0  0  0  0  0  0  0  0  0  0  0  0
  -30.6230  -15.8970   20.6560 N   0  0  0  0  0  0  0  0  0  0  0  0
  -32.0700  -17.5560   19.9840 O   0  0  0  0  0  0  0  0  0  0  0  0
  -29.6540  -15.7350   20.8610 H   0  0  0  0  0  0  0  0  0  0  0  0
  -26.1340  -13.7940   20.7110 C   0  0  0  0  0  0  0  0  0  0  0  0
  -25.0100  -13.0750   21.0020 C   0  0  0  0  0  0  0  0  0  0  0  0
  -25.4090  -11.7020   21.0070 C   0  0  0  0  0  0  0  0  0  0  0  0
  -27.1500  -12.8680   20.5550 N   0  0  0  0  0  0  0  0  0  0  0  0
  -26.7150  -11.6030   20.7950 N   0  0  0  0  0  0  0  0  0  0  0  0
  -24.6160  -10.4730   21.1360 C   0  0  0  0  0  0  0  0  0  0  0  0
  -24.9230   -9.5000   22.1120 C   0  0  0  0  0  3  0  0  0  0  0  0
  -24.1330   -8.3370   22.2370 C   0  0  0  0  0  3  0  0  0  0  0  0
  -23.0220   -8.1400   21.3840 C   0  0  0  0  0  0  0  0  0  0  0  0
  -22.7350   -9.1010   20.4000 C   0  0  0  0  0  3  0  0  0  0  0  0
  -23.5240  -10.2560   20.2730 C   0  0  0  0  0  3  0  0  0  0  0  0
  -22.2150   -7.0270   21.4150 O   0  0  0  0  0  0  0  0  0  0  0  0
  -21.9840   -6.3360   22.5750 C   0  0  0  0  0  0  0  0  0  0  0  0
  -21.4510   -6.9610   23.7240 C   0  0  0  0  0  3  0  0  0  0  0  0
  -21.1640   -6.1990   24.8700 C   0  0  0  0  0  3  0  0  0  0  0  0
  -21.3990   -4.8110   24.8730 C   0  0  0  0  0  0  0  0  0  0  0  0
  -21.9260   -4.1870   23.7290 C   0  0  0  0  0  3  0  0  0  0  0  0
  -22.2130   -4.9450   22.5820 C   0  0  0  0  0  0  0  0  0  0  0  0
  -22.7010   -4.3330   21.4760 F   0  0  0  0  0  0  0  0  0  0  0  0
  -21.1150   -4.0760   25.9730 F   0  0  0  0  0  0  0  0  0  0  0  0
  -23.6200  -13.6140   21.1710 C   0  0  0  0  0  0  0  0  0  0  0  0
  -22.8050  -12.9600   21.9900 N   0  0  0  0  0  0  0  0  0  0  0  0
  -23.2650  -14.6470   20.6050 O   0  0  0  0  0  0  0  0  0  0  0  0
  -23.1110  -12.1210   22.4550 H   0  0  0  0  0  0  0  0  0  0  0  0
  -21.8700  -13.3070   22.1530 H   0  0  0  0  0  0  0  0  0  0  0  0
  -26.3790  -15.1550   20.5330 N   0  0  0  0  0  0  0  0  0  0  0  0
  -25.6300  -15.8360   20.5100 H   0  0  0  0  0  0  0  0  0  0  0  0
  -27.2390  -15.5080   20.1380 H   0  0  0  0  0  0  0  0  0  0  0  0
  -28.9790  -26.8390   20.2260 O   0  0  0  0  0  0  0  0  0  0  0  0
  -24.9880  -31.8170   23.4240 C   0  0  0  0  0  0  0  0  0  0  0  0
  -27.8210  -27.6150   20.1470 C   0  0  0  0  0  0  0  0  0  0  0  0
  -23.8650  -30.4930   21.6640 C   0  0  0  0  0  3  0  0  0  0  0  0
  -25.3940  -29.0980   20.1760 C   0  0  0  0  0  0  0  0  0  0  0  0
  -26.3890  -30.9310   21.5530 C   0  0  0  0  0  2  0  0  0  0  0  0
  -26.5290  -29.6040   20.8240 C   0  0  0  0  0  0  0  0  0  0  0  0
  -27.7460  -28.8730   20.7990 C   0  0  0  0  0  3  0  0  0  0  0  0
  -26.6670  -27.1560   19.4710 C   0  0  0  0  0  3  0  0  0  0  0  0
  -25.4610  -27.8790   19.4870 C   0  0  0  0  0  3  0  0  0  0  0  0
  -24.1230  -29.9090   20.2480 C   0  0  0  0  0  2  0  0  0  0  0  0
  -25.0980  -31.0950   22.2720 N   0  0  0  0  0  0  0  0  0  0  0  0
  -23.8870  -32.0120   23.9580 O   0  0  0  0  0  0  0  0  0  0  0  0
  -23.2250  -29.3900   22.5430 C   0  0  0  0  0  0  0  0  0  0  0  0
  -21.9210  -29.1300   22.3390 N   0  0  0  0  0  0  0  0  0  0  0  0
  -23.9040  -28.7690   23.3670 O   0  0  0  0  0  0  0  0  0  0  0  0
  -21.4340  -29.6810   21.6450 H   0  0  0  0  0  0  0  0  0  0  0  0
  -18.6170  -27.6980   22.6150 C   0  0  0  0  0  0  0  0  0  0  0  0
  -21.1320  -28.1130   23.0340 C   0  0  0  0  0  3  0  0  0  0  0  0
  -21.3590  -26.7170   22.4170 C   0  0  0  0  0  2  0  0  0  0  0  0
  -20.3420  -26.3740   21.3250 C   0  0  0  0  0  2  0  0  0  0  0  0
  -18.9230  -26.3950   21.8950 C   0  0  0  0  0  2  0  0  0  0  0  0
  -19.6540  -28.5110   23.1390 C   0  0  0  0  0  0  0  0  0  0  0  0
  -19.3150  -29.7270   23.7740 C   0  0  0  0  0  3  0  0  0  0  0  0
  -17.9730  -30.1370   23.8820 C   0  0  0  0  0  3  0  0  0  0  0  0
  -16.9490  -29.3190   23.3710 C   0  0  0  0  0  3  0  0  0  0  0  0
  -17.2710  -28.1000   22.7480 C   0  0  0  0  0  3  0  0  0  0  0  0
  -26.2360  -32.4550   24.1110 C   0  0  0  0  0  3  0  0  0  0  0  0
  -25.9070  -33.8540   24.4090 N   0  0  0  0  0  0  0  0  0  0  0  0
  -26.2550  -34.9020   23.6480 C   0  0  0  0  0  0  0  0  0  0  0  0
  -26.9580  -34.7860   22.6400 O   0  0  0  0  0  0  0  0  0  0  0  0
  -25.2840  -34.0170   25.1870 H   0  0  0  0  0  0  0  0  0  0  0  0
  -24.5250  -36.6800   23.2250 C   0  0  0  0  0  1  0  0  0  0  0  0
  -25.7480  -36.2950   24.0720 C   0  0  0  0  0  3  0  0  0  0  0  0
  -27.8580  -37.2040   24.9370 C   0  0  0  0  0  1  0  0  0  0  0  0
  -26.7770  -37.3530   23.9670 N   0  0  0  0  0  0  0  0  0  0  0  0
  -26.3620  -38.2730   24.0920 H   0  0  0  0  0  0  0  0  0  0  0  0
  -26.6790  -31.6970   25.4220 C   0  0  1  0  0  0  0  0  0  0  0  0
  -25.5260  -31.4640   26.4250 C   0  0  0  0  0  1  0  0  0  0  0  0
  -27.2880  -30.3180   25.0810 C   0  0  0  0  0  1  0  0  0  0  0  0
  -27.7810  -32.5040   26.1490 C   0  0  0  0  0  1  0  0  0  0  0  0
  1  3  1  0
  1  7  2  0
  2  1  1  0
  3  8  2  0
  4 55  1  0
  4  2  2  0
  5  2  1  0
  5  6  1  0
  6  3  1  0
  9 10  2  0
  9 11  1  0
 10 13  1  0
 11 14  2  0
 13 23  1  0
 13 12  2  0
 14 12  1  0
 14  6  1  0
 15 21  1  0
 16 21  1  0
 17 18  1  0
 17 16  1  0
 19 18  1  0
 19 30  1  0
 19 20  1  0
 21 20  1  0
 22 15  2  0
 23 24  1  0
 24 15  1  0
 24 26  1  0
 25 23  2  0
 27 28  2  0
 28 29  1  0
 28 47  1  0
 29 32  1  0
 30 27  1  0
 30 31  1  0
 31 29  2  0
 32 33  1  0
 33 34  2  0
 35 38  1  0
 35 34  1  0
 36 35  2  0
 37 36  1  0
 37 32  2  0
 38 39  1  0
 39 44  2  0
 39 40  1  0
 40 41  2  0
 41 42  1  0
 42 46  1  0
 43 42  2  0
 44 43  1  0
 45 44  1  0
 47 48  1  0
 48 51  1  0
 48 50  1  0
 49 47  2  0
 52 27  1  0
 53 52  1  0
 54 52  1  0
 56 67  2  0
 57 55  1  0
 57 62  1  0
 58 66  1  0
 58 68  1  0
 59 65  1  0
 59 61  1  0
 60 66  1  0
 61 60  1  0
 62 61  2  0
 63 64  1  0
 63 57  2  0
 64 59  2  0
 65 58  1  0
 66 56  1  0
 68 70  2  0
 69 68  1  0
 71 69  1  0
 72 81  2  0
 72 77  1  0
 73 69  1  0
 73 77  1  0
 74 73  1  0
 75 76  1  0
 75 74  1  0
 76 72  1  0
 77 78  2  0
 78 79  1  0
 80 79  2  0
 81 80  1  0
 82 56  1  0
 82 83  1  0
 82 92  1  0
 83 86  1  0
 84 88  1  0
 84 83  1  0
 85 84  2  0
 88 87  1  0
 90 88  1  0
 90 91  1  0
 90 89  1  0
 92 95  1  1
 92 93  1  0
 94 92  1  0
M  ISO  4   4 101  15 100  24 100  55 101
M  END
>  <TORSDO>  (36) 
F 17

>  <SCORE>  (36) 
-13.573

>  <name>  (36) 
35

>  <ligand_id>  (36) 
35

>  <original_smiles>  (36) 
[H]C(Oc1c([H])c([H])c2c(c1[H])C([H])([H])N(C(=O)C([H])(N([H])C(=O)C([H])(N([H])C([H])([H])[H])C([H])([H])[H])C(C([H])([H])[H])(C([H])([H])[H])C([H])([H])[H])C([H])(C(=O)N([H])C1([H])c3c([H])c([H])c([H])c([H])c3C([H])([H])C([H])([H])C1([H])[H])C2([H])[H])=C1C(=O)C(=O)N(c2c([H])c([H])c([H])c(C(=O)N([H])C(=O)N3C([H])([H])C([H])([H])C([H])([H])C([H])(n4nc(-c5c([H])c([H])c(Oc6c([H])c([H])c(F)c([H])c6F)c([H])c5[H])c(C(=O)N([H])[H])c4N([H])[H])C3([H])[H])c2[H])C1([H])[H]

>  <smiles>  (36) 
[H]C(Oc1c([H])c([H])c2c(c1[H])C([H])([H])N(C(=O)C([H])(N([H])C(=O)C([H])(N([H])C([H])([H])[H])C([H])([H])[H])C(C([H])([H])[H])(C([H])([H])[H])C([H])([H])[H])C([H])(C(=O)N([H])C1([H])c3c([H])c([H])c([H])c([H])c3C([H])([H])C([H])([H])C1([H])[H])C2([H])[H])=C1C(=O)C(=O)N(c2c([H])c([H])c([H])c(C(=O)N([H])C(=O)N3C([H])([H])C([H])([H])C([H])([H])C([H])(n4nc(-c5c([H])c([H])c(Oc6c([H])c([H])c(F)c([H])c6F)c([H])c5[H])c(C(=O)N([H])[H])c4N([H])[H])C3([H])[H])c2[H])C1([H])[H]

$$$$
36:0:0
     RDKit          3D

 94103  0  0  1  0  0  0  0  0999 V2000
  -30.7650  -22.4810   20.4670 C   0  0  0  0  0  0  0  0  0  0  0  0
  -28.5000  -22.4210   20.0180 C   0  0  0  0  0  2  0  0  0  0  0  0
  -28.9930  -23.9000   19.7660 C   0  0  2  0  0  0  0  0  0  0  0  0
  -29.1230  -24.1820   18.2580 C   0  0  0  0  0  1  0  0  0  0  0  0
  -29.7170  -21.6020   20.1950 N   0  0  0  0  0  0  0  0  0  0  0  0
  -31.9160  -22.2180   20.8190 O   0  0  0  0  0  0  0  0  0  0  0  0
  -30.3050  -23.7580   20.3090 O   0  0  0  0  0  0  0  0  0  0  0  0
  -31.0160  -19.3920   20.1130 C   0  0  0  0  0  3  0  0  0  0  0  0
  -31.0850  -17.9650   20.1770 C   0  0  0  0  0  3  0  0  0  0  0  0
  -28.6360  -19.3180   20.4120 C   0  0  0  0  0  3  0  0  0  0  0  0
  -29.7920  -20.1240   20.2410 C   0  0  0  0  0  0  0  0  0  0  0  0
  -29.9220  -17.1730   20.3720 C   0  0  0  0  0  0  0  0  0  0  0  0
  -28.7030  -17.8930   20.4800 C   0  0  0  0  0  0  0  0  0  0  0  0
  -27.5570  -17.1910   20.6530 F   0  0  0  0  0  0  0  0  0  0  0  0
  -30.6600  -14.6850   20.0480 C   0  0  0  0  0  0  0  0  0  0  0  0
  -30.3970  -12.4760   18.9330 C   0  0  0  0  0  2  0  0  0  0  0  0
  -29.3830  -12.6460   17.7800 C   0  0  0  0  0  2  0  0  0  0  0  0
  -27.9360  -12.4790   18.2870 C   0  0  0  0  0  2  0  0  0  0  0  0
  -27.6540  -13.2930   19.5780 C   0  0  0  0  0  3  0  0  0  0  0  0
  -28.7780  -13.0950   20.6210 C   0  0  0  0  0  2  0  0  0  0  0  0
  -30.0510  -13.4590   19.9780 N   0  0  0  0  0  0  0  0  0  0  0  0
  -31.7980  -14.8630   19.5980 O   0  0  0  0  0  0  0  0  0  0  0  0
  -29.8660  -15.7140   20.4840 N   0  0  0  0  0  0  0  0  0  0  0  0
  -28.9780  -15.3880   20.8370 H   0  0  0  0  0  0  0  0  0  0  0  0
  -25.3040  -13.8700   20.4420 C   0  0  0  0  0  0  0  0  0  0  0  0
  -24.2580  -13.0870   20.8500 C   0  0  0  0  0  0  0  0  0  0  0  0
  -24.7180  -11.7370   20.7590 C   0  0  0  0  0  0  0  0  0  0  0  0
  -26.3340  -12.9980   20.1300 N   0  0  0  0  0  0  0  0  0  0  0  0
  -25.9900  -11.7090   20.3790 N   0  0  0  0  0  0  0  0  0  0  0  0
  -24.0010  -10.4710   20.9590 C   0  0  0  0  0  0  0  0  0  0  0  0
  -24.4520   -9.5080   21.8880 C   0  0  0  0  0  3  0  0  0  0  0  0
  -23.7350   -8.3060   22.0760 C   0  0  0  0  0  3  0  0  0  0  0  0
  -22.5570   -8.0590   21.3340 C   0  0  0  0  0  0  0  0  0  0  0  0
  -22.1250   -9.0120   20.3950 C   0  0  0  0  0  3  0  0  0  0  0  0
  -22.8400  -10.2060   20.2050 C   0  0  0  0  0  3  0  0  0  0  0  0
  -21.8120   -6.9070   21.4290 O   0  0  0  0  0  0  0  0  0  0  0  0
  -21.7380   -6.1930   22.5980 C   0  0  0  0  0  0  0  0  0  0  0  0
  -21.2560   -6.7690   23.7940 C   0  0  0  0  0  3  0  0  0  0  0  0
  -21.1310   -5.9790   24.9540 C   0  0  0  0  0  3  0  0  0  0  0  0
  -21.4780   -4.6150   24.9210 C   0  0  0  0  0  0  0  0  0  0  0  0
  -21.9530   -4.0390   23.7290 C   0  0  0  0  0  3  0  0  0  0  0  0
  -22.0800   -4.8260   22.5710 C   0  0  0  0  0  0  0  0  0  0  0  0
  -22.5180   -4.2600   21.4200 F   0  0  0  0  0  0  0  0  0  0  0  0
  -21.3520   -3.8550   26.0340 F   0  0  0  0  0  0  0  0  0  0  0  0
  -22.8800  -13.5560   21.2160 C   0  0  0  0  0  0  0  0  0  0  0  0
  -22.2000  -12.8370   22.1020 N   0  0  0  0  0  0  0  0  0  0  0  0
  -22.4140  -14.5980   20.7530 O   0  0  0  0  0  0  0  0  0  0  0  0
  -22.5920  -11.9960   22.5000 H   0  0  0  0  0  0  0  0  0  0  0  0
  -21.2780  -13.1340   22.3890 H   0  0  0  0  0  0  0  0  0  0  0  0
  -25.4520  -15.2460   20.2980 N   0  0  0  0  0  0  0  0  0  0  0  0
  -24.6930  -15.8860   20.4970 H   0  0  0  0  0  0  0  0  0  0  0  0
  -26.3150  -15.7250   20.0710 H   0  0  0  0  0  0  0  0  0  0  0  0
  -28.1600  -25.0730   20.4640 C   0  0  0  0  0  2  0  0  0  0  0  0
  -28.3620  -26.4920   20.0690 O   0  0  0  0  0  0  0  0  0  0  0  0
  -24.6120  -31.8450   23.1580 C   0  0  0  0  0  0  0  0  0  0  0  0
  -27.2400  -27.3340   20.0570 C   0  0  0  0  0  0  0  0  0  0  0  0
  -23.4120  -30.4590   21.5020 C   0  0  0  0  0  3  0  0  0  0  0  0
  -24.8690  -28.9290   20.0610 C   0  0  0  0  0  0  0  0  0  0  0  0
  -25.9500  -30.7900   21.3230 C   0  0  0  0  0  2  0  0  0  0  0  0
  -26.0350  -29.4190   20.6640 C   0  0  0  0  0  0  0  0  0  0  0  0
  -27.2250  -28.6320   20.6530 C   0  0  0  0  0  3  0  0  0  0  0  0
  -26.0570  -26.9000   19.4210 C   0  0  0  0  0  3  0  0  0  0  0  0
  -24.8810  -27.6740   19.4310 C   0  0  0  0  0  3  0  0  0  0  0  0
  -23.6300  -29.8000   20.1150 C   0  0  0  0  0  2  0  0  0  0  0  0
  -24.6770  -31.0480   22.0510 N   0  0  0  0  0  0  0  0  0  0  0  0
  -23.5280  -32.1140   23.6960 O   0  0  0  0  0  0  0  0  0  0  0  0
  -22.7530  -29.4300   22.4510 C   0  0  0  0  0  0  0  0  0  0  0  0
  -21.4240  -29.2670   22.3370 N   0  0  0  0  0  0  0  0  0  0  0  0
  -23.4370  -28.7840   23.2500 O   0  0  0  0  0  0  0  0  0  0  0  0
  -20.9330  -29.8400   21.6660 H   0  0  0  0  0  0  0  0  0  0  0  0
  -18.0400  -28.1120   22.8770 C   0  0  0  0  0  0  0  0  0  0  0  0
  -20.6060  -28.3250   23.1020 C   0  0  0  0  0  3  0  0  0  0  0  0
  -20.6740  -26.9050   22.4930 C   0  0  0  0  0  2  0  0  0  0  0  0
  -19.5480  -26.6250   21.4920 C   0  0  0  0  0  2  0  0  0  0  0  0
  -18.1810  -26.7770   22.1660 C   0  0  0  0  0  2  0  0  0  0  0  0
  -19.1790  -28.8460   23.3030 C   0  0  0  0  0  0  0  0  0  0  0  0
  -18.9920  -30.0960   23.9310 C   0  0  0  0  0  3  0  0  0  0  0  0
  -17.6990  -30.6130   24.1360 C   0  0  0  0  0  3  0  0  0  0  0  0
  -16.5740  -29.8770   23.7230 C   0  0  0  0  0  3  0  0  0  0  0  0
  -16.7470  -28.6280   23.0990 C   0  0  0  0  0  3  0  0  0  0  0  0
  -25.8940  -32.4720   23.7880 C   0  0  0  0  0  3  0  0  0  0  0  0
  -25.5800  -33.8660   24.1350 N   0  0  0  0  0  0  0  0  0  0  0  0
  -25.9130  -34.9290   23.3910 C   0  0  0  0  0  0  0  0  0  0  0  0
  -26.5850  -34.8400   22.3600 O   0  0  0  0  0  0  0  0  0  0  0  0
  -24.9820  -34.0080   24.9350 H   0  0  0  0  0  0  0  0  0  0  0  0
  -24.1900  -36.7300   23.0470 C   0  0  0  0  0  1  0  0  0  0  0  0
  -25.4220  -36.3110   23.8660 C   0  0  0  0  0  3  0  0  0  0  0  0
  -27.5470  -37.1840   24.7350 C   0  0  0  0  0  1  0  0  0  0  0  0
  -26.4560  -37.3650   23.7780 N   0  0  0  0  0  0  0  0  0  0  0  0
  -26.0500  -38.2830   23.9300 H   0  0  0  0  0  0  0  0  0  0  0  0
  -26.4130  -31.6880   25.0540 C   0  0  1  0  0  0  0  0  0  0  0  0
  -25.3220  -31.4390   26.1210 C   0  0  0  0  0  1  0  0  0  0  0  0
  -26.9970  -30.3140   24.6480 C   0  0  0  0  0  1  0  0  0  0  0  0
  -27.5640  -32.4770   25.7220 C   0  0  0  0  0  1  0  0  0  0  0  0
  1  6  2  0
  2  5  1  0
  3  4  1  6
  3  2  1  0
  3  7  1  0
  3 53  1  0
  5 11  1  0
  5  1  1  0
  7  1  1  0
  8  9  2  0
  8 11  1  0
  9 12  1  0
 10 13  1  0
 11 10  2  0
 12 13  2  0
 12 23  1  0
 13 14  1  0
 15 23  1  0
 16 21  1  0
 17 18  1  0
 17 16  1  0
 19 18  1  0
 19 28  1  0
 19 20  1  0
 21 15  1  0
 21 20  1  0
 22 15  2  0
 23 24  1  0
 25 26  2  0
 26 45  1  0
 27 26  1  0
 27 30  1  0
 28 29  1  0
 28 25  1  0
 29 27  2  0
 30 31  1  0
 31 32  2  0
 33 36  1  0
 33 32  1  0
 34 33  2  0
 35 34  1  0
 35 30  2  0
 36 37  1  0
 37 38  1  0
 38 39  2  0
 40 39  1  0
 40 44  1  0
 41 40  2  0
 42 37  2  0
 42 41  1  0
 43 42  1  0
 45 46  1  0
 46 49  1  0
 46 48  1  0
 47 45  2  0
 50 25  1  0
 50 51  1  0
 52 50  1  0
 54 53  1  0
 55 66  2  0
 56 54  1  0
 56 61  1  0
 57 65  1  0
 57 67  1  0
 58 64  1  0
 58 60  1  0
 59 65  1  0
 60 59  1  0
 61 60  2  0
 62 63  1  0
 62 56  2  0
 63 58  2  0
 64 57  1  0
 65 55  1  0
 67 69  2  0
 68 67  1  0
 70 68  1  0
 71 80  2  0
 71 76  1  0
 72 68  1  0
 72 76  1  0
 73 72  1  0
 74 75  1  0
 74 73  1  0
 75 71  1  0
 76 77  2  0
 77 78  1  0
 79 78  2  0
 80 79  1  0
 81 55  1  0
 81 82  1  0
 81 91  1  0
 82 85  1  0
 83 87  1  0
 83 82  1  0
 84 83  2  0
 87 86  1  0
 89 87  1  0
 89 90  1  0
 89 88  1  0
 91 94  1  1
 91 92  1  0
 93 91  1  0
M  ISO  4  15 100  23 100  53 101  54 101
M  END
>  <TORSDO>  (37) 
F 18

>  <SCORE>  (37) 
-14.892

>  <name>  (37) 
36

>  <ligand_id>  (37) 
36

>  <original_smiles>  (37) 
[H]c1c([H])c([H])c2c(c1[H])C([H])([H])C([H])([H])C([H])([H])C2([H])N([H])C(=O)C1([H])N(C(=O)C([H])(N([H])C(=O)C([H])(N([H])C([H])([H])[H])C([H])([H])[H])C(C([H])([H])[H])(C([H])([H])[H])C([H])([H])[H])C([H])([H])c2c([H])c(OC([H])([H])C3(C([H])([H])[H])OC(=O)N(c4c([H])c([H])c(N([H])C(=O)N5C([H])([H])C([H])([H])C([H])([H])C([H])(n6nc(-c7c([H])c([H])c(Oc8c([H])c([H])c(F)c([H])c8F)c([H])c7[H])c(C(=O)N([H])[H])c6N([H])[H])C5([H])[H])c(F)c4[H])C3([H])[H])c([H])c([H])c2C1([H])[H]

>  <smiles>  (37) 
[H]c1c([H])c([H])c2c(c1[H])C([H])([H])C([H])([H])C([H])([H])C2([H])N([H])C(=O)C1([H])N(C(=O)C([H])(N([H])C(=O)C([H])(N([H])C([H])([H])[H])C([H])([H])[H])C(C([H])([H])[H])(C([H])([H])[H])C([H])([H])[H])C([H])([H])c2c([H])c(OC([H])([H])C3(C([H])([H])[H])OC(=O)N(c4c([H])c([H])c(N([H])C(=O)N5C([H])([H])C([H])([H])C([H])([H])C([H])(n6nc(-c7c([H])c([H])c(Oc8c([H])c([H])c(F)c([H])c8F)c([H])c7[H])c(C(=O)N([H])[H])c6N([H])[H])C5([H])[H])c(F)c4[H])C3([H])[H])c([H])c([H])c2C1([H])[H]

$$$$
37:0:0
     RDKit          3D

 98107  0  0  1  0  0  0  0  0999 V2000
  -28.7230  -23.9880   20.4830 C   0  0  0  0  0  0  0  0  0  0  0  0
  -28.8560  -24.1390   21.9290 C   0  0  0  0  0  0  0  0  0  0  0  0
  -30.2840  -22.1630   21.9290 C   0  0  0  0  0  0  0  0  0  0  0  0
  -28.4720  -25.1070   19.7010 C   0  0  0  0  0  0  0  0  0  0  0  0
  -28.9300  -22.5160   19.9650 C   0  0  0  0  0  2  0  0  0  0  0  0
  -28.5060  -25.0130   18.1800 C   0  0  0  0  0  1  0  0  0  0  0  0
  -30.2160  -23.5800   23.8840 C   0  0  0  0  0  1  0  0  0  0  0  0
  -29.5700  -21.5550   20.9350 N   0  0  0  0  0  0  0  0  0  0  0  0
  -29.7380  -23.2740   22.5170 N   0  0  0  0  0  0  0  0  0  0  0  0
  -28.2650  -25.0120   22.5790 O   0  0  0  0  0  0  0  0  0  0  0  0
  -31.3480  -21.6900   22.3450 O   0  0  0  0  0  0  0  0  0  0  0  0
  -28.8340  -19.3990   19.7430 C   0  0  0  0  0  3  0  0  0  0  0  0
  -30.3290  -19.1660   21.5890 C   0  0  0  0  0  3  0  0  0  0  0  0
  -28.8200  -17.9700   19.5870 C   0  0  0  0  0  0  0  0  0  0  0  0
  -29.5840  -20.0650   20.7520 C   0  0  0  0  0  0  0  0  0  0  0  0
  -29.5940  -17.1040   20.4210 C   0  0  0  0  0  0  0  0  0  0  0  0
  -30.3520  -17.7490   21.4270 C   0  0  0  0  0  0  0  0  0  0  0  0
  -27.9280  -17.3780   18.5080 C   0  0  0  0  0  1  0  0  0  0  0  0
  -31.0670  -16.9990   22.3000 F   0  0  0  0  0  0  0  0  0  0  0  0
  -30.2990  -14.6160   20.0600 C   0  0  0  0  0  0  0  0  0  0  0  0
  -30.0480  -12.4230   18.9030 C   0  0  0  0  0  2  0  0  0  0  0  0
  -29.0050  -12.5980   17.7770 C   0  0  0  0  0  2  0  0  0  0  0  0
  -27.5730  -12.3960   18.3140 C   0  0  0  0  0  2  0  0  0  0  0  0
  -27.3070  -13.1870   19.6240 C   0  0  0  0  0  3  0  0  0  0  0  0
  -28.4560  -12.9830   20.6380 C   0  0  0  0  0  2  0  0  0  0  0  0
  -29.7060  -13.3810   19.9710 N   0  0  0  0  0  0  0  0  0  0  0  0
  -31.4480  -14.8060   19.6480 O   0  0  0  0  0  0  0  0  0  0  0  0
  -29.4440  -15.6430   20.3740 N   0  0  0  0  0  0  0  0  0  0  0  0
  -28.5040  -15.3210   20.5340 H   0  0  0  0  0  0  0  0  0  0  0  0
  -24.9690  -13.7250   20.5430 C   0  0  0  0  0  0  0  0  0  0  0  0
  -23.9440  -12.9240   20.9670 C   0  0  0  0  0  0  0  0  0  0  0  0
  -24.4190  -11.5820   20.8510 C   0  0  0  0  0  0  0  0  0  0  0  0
  -26.0030  -12.8690   20.2000 N   0  0  0  0  0  0  0  0  0  0  0  0
  -25.6820  -11.5730   20.4460 N   0  0  0  0  0  0  0  0  0  0  0  0
  -23.7260  -10.3040   21.0490 C   0  0  0  0  0  0  0  0  0  0  0  0
  -24.2040   -9.3370   21.9600 C   0  0  0  0  0  3  0  0  0  0  0  0
  -23.5080   -8.1230   22.1480 C   0  0  0  0  0  3  0  0  0  0  0  0
  -22.3200   -7.8680   21.4250 C   0  0  0  0  0  0  0  0  0  0  0  0
  -21.8590   -8.8250   20.5030 C   0  0  0  0  0  3  0  0  0  0  0  0
  -22.5560  -10.0310   20.3130 C   0  0  0  0  0  3  0  0  0  0  0  0
  -21.5930   -6.7060   21.5230 O   0  0  0  0  0  0  0  0  0  0  0  0
  -21.5810   -5.9590   22.6730 C   0  0  0  0  0  0  0  0  0  0  0  0
  -21.1000   -6.4800   23.8940 C   0  0  0  0  0  3  0  0  0  0  0  0
  -21.0420   -5.6560   25.0370 C   0  0  0  0  0  3  0  0  0  0  0  0
  -21.4530   -4.3120   24.9580 C   0  0  0  0  0  0  0  0  0  0  0  0
  -21.9250   -3.7910   23.7410 C   0  0  0  0  0  3  0  0  0  0  0  0
  -21.9860   -4.6130   22.6010 C   0  0  0  0  0  0  0  0  0  0  0  0
  -22.4220   -4.0990   21.4250 F   0  0  0  0  0  0  0  0  0  0  0  0
  -21.3900   -3.5170   26.0520 F   0  0  0  0  0  0  0  0  0  0  0  0
  -22.5650  -13.3720   21.3570 C   0  0  0  0  0  0  0  0  0  0  0  0
  -21.9170  -12.6450   22.2610 N   0  0  0  0  0  0  0  0  0  0  0  0
  -22.0720  -14.4000   20.8950 O   0  0  0  0  0  0  0  0  0  0  0  0
  -22.3270  -11.8110   22.6550 H   0  0  0  0  0  0  0  0  0  0  0  0
  -20.9960  -12.9300   22.5630 H   0  0  0  0  0  0  0  0  0  0  0  0
  -25.0950  -15.1040   20.4000 N   0  0  0  0  0  0  0  0  0  0  0  0
  -24.3190  -15.7320   20.5780 H   0  0  0  0  0  0  0  0  0  0  0  0
  -25.8870  -15.5670   19.9770 H   0  0  0  0  0  0  0  0  0  0  0  0
  -28.3750  -26.4470   20.1750 O   0  0  0  0  0  0  0  0  0  0  0  0
  -24.4150  -31.7730   23.0680 C   0  0  0  0  0  0  0  0  0  0  0  0
  -27.2050  -27.2350   20.1100 C   0  0  0  0  0  0  0  0  0  0  0  0
  -23.2790  -30.3250   21.4270 C   0  0  0  0  0  3  0  0  0  0  0  0
  -24.7930  -28.7910   20.0520 C   0  0  0  0  0  0  0  0  0  0  0  0
  -25.8160  -30.7010   21.2870 C   0  0  0  0  0  2  0  0  0  0  0  0
  -25.9400  -29.3180   20.6540 C   0  0  0  0  0  0  0  0  0  0  0  0
  -27.1480  -28.5540   20.6670 C   0  0  0  0  0  3  0  0  0  0  0  0
  -26.0120  -26.7480   19.5260 C   0  0  0  0  0  3  0  0  0  0  0  0
  -24.8300  -27.5100   19.4810 C   0  0  0  0  0  3  0  0  0  0  0  0
  -23.5350  -29.6330   20.0620 C   0  0  0  0  0  2  0  0  0  0  0  0
  -24.5220  -30.9520   21.9840 N   0  0  0  0  0  0  0  0  0  0  0  0
  -23.3130  -32.0320   23.5750 O   0  0  0  0  0  0  0  0  0  0  0  0
  -22.6200  -29.3060   22.3880 C   0  0  0  0  0  0  0  0  0  0  0  0
  -21.2960  -29.1180   22.2550 N   0  0  0  0  0  0  0  0  0  0  0  0
  -23.2990  -28.6870   23.2110 O   0  0  0  0  0  0  0  0  0  0  0  0
  -20.8070  -29.6650   21.5590 H   0  0  0  0  0  0  0  0  0  0  0  0
  -17.9210  -27.9200   22.7700 C   0  0  0  0  0  0  0  0  0  0  0  0
  -20.4810  -28.1770   23.0250 C   0  0  0  0  0  3  0  0  0  0  0  0
  -20.5780  -26.7480   22.4390 C   0  0  0  0  0  2  0  0  0  0  0  0
  -19.4700  -26.4320   21.4310 C   0  0  0  0  0  2  0  0  0  0  0  0
  -18.0920  -26.5750   22.0830 C   0  0  0  0  0  2  0  0  0  0  0  0
  -19.0420  -28.6790   23.1970 C   0  0  0  0  0  0  0  0  0  0  0  0
  -18.8260  -29.9380   23.7980 C   0  0  0  0  0  3  0  0  0  0  0  0
  -17.5230  -30.4390   23.9740 C   0  0  0  0  0  3  0  0  0  0  0  0
  -16.4160  -29.6760   23.5640 C   0  0  0  0  0  3  0  0  0  0  0  0
  -16.6160  -28.4190   22.9680 C   0  0  0  0  0  3  0  0  0  0  0  0
  -25.6670  -32.4480   23.7070 C   0  0  0  0  0  3  0  0  0  0  0  0
  -25.2970  -33.8240   24.0710 N   0  0  0  0  0  0  0  0  0  0  0  0
  -25.6040  -34.9110   23.3510 C   0  0  0  0  0  0  0  0  0  0  0  0
  -26.2970  -34.8610   22.3310 O   0  0  0  0  0  0  0  0  0  0  0  0
  -24.6800  -33.9320   24.8620 H   0  0  0  0  0  0  0  0  0  0  0  0
  -23.8230  -36.6530   23.0050 C   0  0  0  0  0  1  0  0  0  0  0  0
  -25.0550  -36.2660   23.8380 C   0  0  0  0  0  3  0  0  0  0  0  0
  -27.1320  -37.1980   24.7600 C   0  0  0  0  0  1  0  0  0  0  0  0
  -26.0530  -37.3570   23.7870 N   0  0  0  0  0  0  0  0  0  0  0  0
  -25.6130  -38.2590   23.9470 H   0  0  0  0  0  0  0  0  0  0  0  0
  -26.2120  -31.6710   24.9690 C   0  0  1  0  0  0  0  0  0  0  0  0
  -25.1250  -31.3540   26.0230 C   0  0  0  0  0  1  0  0  0  0  0  0
  -26.8640  -30.3330   24.5510 C   0  0  0  0  0  1  0  0  0  0  0  0
  -27.3210  -32.5050   25.6570 C   0  0  0  0  0  1  0  0  0  0  0  0
  1  2  1  0
  2  9  1  0
  2 10  2  0
  3 11  2  0
  3  9  1  0
  4 58  1  0
  4  1  2  0
  5  1  1  0
  5  8  1  0
  6  4  1  0
  8  3  1  0
  9  7  1  0
 12 15  1  0
 14 12  2  0
 14 16  1  0
 15  8  1  0
 15 13  2  0
 16 17  2  0
 17 13  1  0
 17 19  1  0
 18 14  1  0
 20 28  1  0
 21 26  1  0
 22 23  1  0
 22 21  1  0
 24 23  1  0
 24 33  1  0
 24 25  1  0
 26 20  1  0
 26 25  1  0
 27 20  2  0
 28 16  1  0
 28 29  1  0
 30 31  2  0
 31 50  1  0
 32 31  1  0
 32 35  1  0
 33 34  1  0
 33 30  1  0
 34 32  2  0
 35 36  1  0
 36 37  2  0
 38 41  1  0
 38 37  1  0
 39 38  2  0
 40 39  1  0
 40 35  2  0
 41 42  1  0
 42 43  1  0
 43 44  2  0
 45 44  1  0
 45 49  1  0
 46 45  2  0
 47 42  2  0
 47 46  1  0
 48 47  1  0
 50 51  1  0
 51 54  1  0
 51 53  1  0
 52 50  2  0
 55 30  1  0
 55 56  1  0
 57 55  1  0
 59 70  2  0
 60 58  1  0
 60 65  1  0
 61 69  1  0
 61 71  1  0
 62 68  1  0
 62 64  1  0
 63 69  1  0
 64 65  2  0
 64 63  1  0
 66 60  2  0
 67 66  1  0
 67 62  2  0
 68 61  1  0
 69 59  1  0
 71 73  2  0
 72 71  1  0
 74 72  1  0
 75 84  2  0
 75 80  1  0
 76 72  1  0
 76 80  1  0
 77 76  1  0
 78 79  1  0
 78 77  1  0
 79 75  1  0
 80 81  2  0
 81 82  1  0
 83 82  2  0
 84 83  1  0
 85 59  1  0
 85 86  1  0
 85 95  1  0
 86 89  1  0
 87 91  1  0
 87 86  1  0
 88 87  2  0
 91 90  1  0
 93 91  1  0
 93 94  1  0
 93 92  1  0
 95 98  1  1
 95 96  1  0
 97 95  1  0
M  ISO  4   4 101  20 100  28 100  58 101
M  END
>  <TORSDO>  (38) 
F 17

>  <SCORE>  (38) 
-14.845

>  <name>  (38) 
37

>  <ligand_id>  (38) 
37

>  <original_smiles>  (38) 
[H]c1c([H])c([H])c2c(c1[H])C([H])([H])C([H])([H])C([H])([H])C2([H])N([H])C(=O)C1([H])N(C(=O)C([H])(N([H])C(=O)C([H])(N([H])C([H])([H])[H])C([H])([H])[H])C(C([H])([H])[H])(C([H])([H])[H])C([H])([H])[H])C([H])([H])c2c([H])c(OC(=C3C(=O)N(C([H])([H])[H])C(=O)N(c4c([H])c(F)c(N([H])C(=O)N5C([H])([H])C([H])([H])C([H])([H])C([H])(n6nc(-c7c([H])c([H])c(Oc8c([H])c([H])c(F)c([H])c8F)c([H])c7[H])c(C(=O)N([H])[H])c6N([H])[H])C5([H])[H])c(C([H])([H])[H])c4[H])C3([H])[H])C([H])([H])[H])c([H])c([H])c2C1([H])[H]

>  <smiles>  (38) 
[H]c1c([H])c([H])c2c(c1[H])C([H])([H])C([H])([H])C([H])([H])C2([H])N([H])C(=O)C1([H])N(C(=O)C([H])(N([H])C(=O)C([H])(N([H])C([H])([H])[H])C([H])([H])[H])C(C([H])([H])[H])(C([H])([H])[H])C([H])([H])[H])C([H])([H])c2c([H])c(OC(=C3C(=O)N(C([H])([H])[H])C(=O)N(c4c([H])c(F)c(N([H])C(=O)N5C([H])([H])C([H])([H])C([H])([H])C([H])(n6nc(-c7c([H])c([H])c(Oc8c([H])c([H])c(F)c([H])c8F)c([H])c7[H])c(C(=O)N([H])[H])c6N([H])[H])C5([H])[H])c(C([H])([H])[H])c4[H])C3([H])[H])C([H])([H])[H])c([H])c([H])c2C1([H])[H]

$$$$
38:0:0
     RDKit          3D

 93101  0  0  1  0  0  0  0  0999 V2000
  -27.3970  -21.1810   19.2440 C   0  0  0  0  0  1  0  0  0  0  0  0
  -28.8660  -21.5320   19.5550 C   0  0  0  0  0  3  0  0  0  0  0  0
  -28.7420  -24.0940   19.7790 C   0  0  0  0  0  0  0  0  0  0  0  0
  -28.9290  -22.8390   20.2700 N   0  0  0  0  0  0  0  0  0  0  0  0
  -28.5700  -24.3050   18.5750 O   0  0  0  0  0  0  0  0  0  0  0  0
  -29.0800  -22.7850   21.2690 H   0  0  0  0  0  0  0  0  0  0  0  0
  -28.7200  -25.2830   20.7890 C   0  0  0  0  0  2  0  0  0  0  0  0
  -28.7950  -26.6030   20.1770 O   0  0  0  0  0  0  0  0  0  0  0  0
  -24.7780  -31.6830   23.2450 C   0  0  0  0  0  0  0  0  0  0  0  0
  -27.6260  -27.3460   20.1680 C   0  0  0  0  0  0  0  0  0  0  0  0
  -23.6660  -30.2960   21.5300 C   0  0  0  0  0  3  0  0  0  0  0  0
  -25.2050  -28.8210   20.1220 C   0  0  0  0  0  0  0  0  0  0  0  0
  -26.1880  -30.7090   21.4290 C   0  0  0  0  0  2  0  0  0  0  0  0
  -26.3320  -29.3540   20.7600 C   0  0  0  0  0  0  0  0  0  0  0  0
  -27.5490  -28.6270   20.7730 C   0  0  0  0  0  3  0  0  0  0  0  0
  -26.4800  -26.8350   19.5240 C   0  0  0  0  0  3  0  0  0  0  0  0
  -25.2760  -27.5650   19.4970 C   0  0  0  0  0  3  0  0  0  0  0  0
  -23.9390  -29.6520   20.1440 C   0  0  0  0  0  2  0  0  0  0  0  0
  -24.8940  -30.9080   22.1280 N   0  0  0  0  0  0  0  0  0  0  0  0
  -23.6710  -31.9160   23.7530 O   0  0  0  0  0  0  0  0  0  0  0  0
  -23.0010  -29.2410   22.4440 C   0  0  0  0  0  0  0  0  0  0  0  0
  -21.6830  -29.0450   22.2820 N   0  0  0  0  0  0  0  0  0  0  0  0
  -23.6730  -28.5990   23.2570 O   0  0  0  0  0  0  0  0  0  0  0  0
  -21.2000  -29.6210   21.6050 H   0  0  0  0  0  0  0  0  0  0  0  0
  -18.3170  -27.7790   22.6470 C   0  0  0  0  0  0  0  0  0  0  0  0
  -20.8640  -28.0660   22.9950 C   0  0  0  0  0  3  0  0  0  0  0  0
  -21.0040  -26.6570   22.3690 C   0  0  0  0  0  2  0  0  0  0  0  0
  -19.9310  -26.3420   21.3240 C   0  0  0  0  0  2  0  0  0  0  0  0
  -18.5320  -26.4520   21.9390 C   0  0  0  0  0  2  0  0  0  0  0  0
  -19.4130  -28.5430   23.1290 C   0  0  0  0  0  0  0  0  0  0  0  0
  -19.1590  -29.7850   23.7530 C   0  0  0  0  0  3  0  0  0  0  0  0
  -17.8440  -30.2610   23.9020 C   0  0  0  0  0  3  0  0  0  0  0  0
  -16.7620  -29.4930   23.4390 C   0  0  0  0  0  3  0  0  0  0  0  0
  -16.9990  -28.2540   22.8180 C   0  0  0  0  0  3  0  0  0  0  0  0
  -26.0250  -32.3280   23.9270 C   0  0  0  0  0  3  0  0  0  0  0  0
  -26.5230  -31.5330   25.1970 C   0  0  1  0  0  0  0  0  0  0  0  0
  -25.4070  -31.2450   26.2280 C   0  0  0  0  0  1  0  0  0  0  0  0
  -27.1430  -30.1790   24.7820 C   0  0  0  0  0  1  0  0  0  0  0  0
  -27.6410  -32.3300   25.9100 C   0  0  0  0  0  1  0  0  0  0  0  0
  -25.6700  -33.7070   24.2850 N   0  0  0  0  0  0  0  0  0  0  0  0
  -25.9910  -34.7880   23.5610 C   0  0  0  0  0  0  0  0  0  0  0  0
  -26.6870  -34.7300   22.5430 O   0  0  0  0  0  0  0  0  0  0  0  0
  -25.0560  -33.8280   25.0760 H   0  0  0  0  0  0  0  0  0  0  0  0
  -24.2230  -36.5420   23.2120 C   0  0  0  0  0  1  0  0  0  0  0  0
  -25.4570  -36.1500   24.0410 C   0  0  0  0  0  3  0  0  0  0  0  0
  -27.5460  -37.0740   24.9430 C   0  0  0  0  0  1  0  0  0  0  0  0
  -26.4620  -37.2340   23.9770 N   0  0  0  0  0  0  0  0  0  0  0  0
  -26.0270  -38.1390   24.1370 H   0  0  0  0  0  0  0  0  0  0  0  0
  -29.7190  -20.3930   20.2600 C   0  0  0  0  0  2  0  0  0  0  0  0
  -27.5160  -17.2270   20.3650 C   0  0  0  0  0  3  0  0  0  0  0  0
  -27.9330  -18.5650   20.2710 C   0  0  0  0  0  3  0  0  0  0  0  0
  -28.4540  -16.1820   20.4180 C   0  0  0  0  0  3  0  0  0  0  0  0
  -30.2500  -17.8140   20.2350 C   0  0  0  0  0  3  0  0  0  0  0  0
  -29.3030  -18.8910   20.1920 C   0  0  0  0  0  0  0  0  0  0  0  0
  -29.8380  -16.4440   20.3530 C   0  0  0  0  0  0  0  0  0  0  0  0
  -31.1570  -14.3060   19.9700 C   0  0  0  0  0  0  0  0  0  0  0  0
  -30.8520  -11.9480   19.2480 C   0  0  0  0  0  2  0  0  0  0  0  0
  -29.9100  -11.8600   18.0310 C   0  0  0  0  0  2  0  0  0  0  0  0
  -28.4420  -11.7860   18.4860 C   0  0  0  0  0  2  0  0  0  0  0  0
  -28.0920  -12.8650   19.5460 C   0  0  0  0  0  3  0  0  0  0  0  0
  -29.1540  -12.9000   20.6680 C   0  0  0  0  0  2  0  0  0  0  0  0
  -30.4610  -13.1290   20.0450 N   0  0  0  0  0  0  0  0  0  0  0  0
  -32.2210  -14.3830   19.3500 O   0  0  0  0  0  0  0  0  0  0  0  0
  -30.7600  -15.3860   20.6920 N   0  0  0  0  0  0  0  0  0  0  0  0
  -31.6280  -15.8160   20.9780 H   0  0  0  0  0  0  0  0  0  0  0  0
  -25.7580  -13.6250   20.3090 C   0  0  0  0  0  0  0  0  0  0  0  0
  -24.6560  -12.9250   20.7230 C   0  0  0  0  0  0  0  0  0  0  0  0
  -25.0330  -11.5470   20.7000 C   0  0  0  0  0  0  0  0  0  0  0  0
  -26.7410  -12.6790   20.0700 N   0  0  0  0  0  0  0  0  0  0  0  0
  -26.3100  -11.4240   20.3590 N   0  0  0  0  0  0  0  0  0  0  0  0
  -24.2350  -10.3340   20.9300 C   0  0  0  0  0  0  0  0  0  0  0  0
  -24.6150   -9.3720   21.8920 C   0  0  0  0  0  3  0  0  0  0  0  0
  -23.8200   -8.2260   22.1100 C   0  0  0  0  0  3  0  0  0  0  0  0
  -22.6310   -8.0350   21.3670 C   0  0  0  0  0  0  0  0  0  0  0  0
  -22.2710   -8.9830   20.3930 C   0  0  0  0  0  3  0  0  0  0  0  0
  -23.0660  -10.1210   20.1760 C   0  0  0  0  0  3  0  0  0  0  0  0
  -21.8100   -6.9410   21.4920 O   0  0  0  0  0  0  0  0  0  0  0  0
  -21.6950   -6.2610   22.6780 C   0  0  0  0  0  0  0  0  0  0  0  0
  -21.2610   -6.8960   23.8610 C   0  0  0  0  0  3  0  0  0  0  0  0
  -21.0920   -6.1450   25.0410 C   0  0  0  0  0  3  0  0  0  0  0  0
  -21.3440   -4.7590   25.0370 C   0  0  0  0  0  0  0  0  0  0  0  0
  -21.7690   -4.1240   23.8570 C   0  0  0  0  0  3  0  0  0  0  0  0
  -21.9410   -4.8730   22.6800 C   0  0  0  0  0  0  0  0  0  0  0  0
  -22.3310   -4.2530   21.5400 F   0  0  0  0  0  0  0  0  0  0  0  0
  -21.1750   -4.0350   26.1680 F   0  0  0  0  0  0  0  0  0  0  0  0
  -23.3010  -13.4910   21.0310 C   0  0  0  0  0  0  0  0  0  0  0  0
  -22.5660  -12.8580   21.9390 N   0  0  0  0  0  0  0  0  0  0  0  0
  -22.9050  -14.5290   20.5010 O   0  0  0  0  0  0  0  0  0  0  0  0
  -22.9010  -12.0180   22.3870 H   0  0  0  0  0  0  0  0  0  0  0  0
  -21.6590  -13.2220   22.1960 H   0  0  0  0  0  0  0  0  0  0  0  0
  -26.0000  -14.9780   20.1030 N   0  0  0  0  0  0  0  0  0  0  0  0
  -25.3040  -15.6910   20.2880 H   0  0  0  0  0  0  0  0  0  0  0  0
  -26.8950  -15.3650   19.8280 H   0  0  0  0  0  0  0  0  0  0  0  0
  2  1  1  0
  2 49  1  0
  2  4  1  0
  3  4  1  0
  3  7  1  0
  4  6  1  0
  5  3  2  0
  8  7  1  0
  9 20  2  0
 10  8  1  0
 10 15  1  0
 11 19  1  0
 11 21  1  0
 12 18  1  0
 12 14  1  0
 13 19  1  0
 14 15  2  0
 14 13  1  0
 16 10  2  0
 17 16  1  0
 17 12  2  0
 18 11  1  0
 19  9  1  0
 21 23  2  0
 22 21  1  0
 24 22  1  0
 25 34  2  0
 25 30  1  0
 26 22  1  0
 26 30  1  0
 27 26  1  0
 28 29  1  0
 28 27  1  0
 29 25  1  0
 30 31  2  0
 31 32  1  0
 33 32  2  0
 34 33  1  0
 35  9  1  0
 35 40  1  0
 35 36  1  0
 36 39  1  1
 36 37  1  0
 38 36  1  0
 40 43  1  0
 41 45  1  0
 41 40  1  0
 42 41  2  0
 45 44  1  0
 47 45  1  0
 47 48  1  0
 47 46  1  0
 50 52  1  0
 51 50  2  0
 53 55  1  0
 54 53  2  0
 54 49  1  0
 54 51  1  0
 55 52  2  0
 55 64  1  0
 56 62  1  0
 56 64  1  0
 57 62  1  0
 58 59  1  0
 58 57  1  0
 60 59  1  0
 60 69  1  0
 60 61  1  0
 62 61  1  0
 63 56  2  0
 64 65  1  0
 66 67  2  0
 67 86  1  0
 68 67  1  0
 68 71  1  0
 69 66  1  0
 69 70  1  0
 70 68  2  0
 71 72  1  0
 72 73  2  0
 74 77  1  0
 74 73  1  0
 75 74  2  0
 76 75  1  0
 76 71  2  0
 77 78  1  0
 78 83  2  0
 78 79  1  0
 79 80  2  0
 81 80  1  0
 81 85  1  0
 82 81  2  0
 83 82  1  0
 84 83  1  0
 86 87  1  0
 87 90  1  0
 87 89  1  0
 88 86  2  0
 91 92  1  0
 91 66  1  0
 93 91  1  0
M  ISO  4   7 101   8 101  56 100  64 100
M  END
>  <TORSDO>  (39) 
F 20

>  <SCORE>  (39) 
-13.304

>  <name>  (39) 
38

>  <ligand_id>  (39) 
38

>  <original_smiles>  (39) 
[H]c1c([H])c([H])c2c(c1[H])C([H])([H])C([H])([H])C([H])([H])C2([H])N([H])C(=O)C1([H])N(C(=O)C([H])(N([H])C(=O)C([H])(N([H])C([H])([H])[H])C([H])([H])[H])C(C([H])([H])[H])(C([H])([H])[H])C([H])([H])[H])C([H])([H])c2c([H])c(OC([H])([H])C(=O)N([H])C([H])(C([H])([H])[H])C([H])([H])c3c([H])c([H])c([H])c(N([H])C(=O)N4C([H])([H])C([H])([H])C([H])([H])C([H])(n5nc(-c6c([H])c([H])c(Oc7c([H])c([H])c(F)c([H])c7F)c([H])c6[H])c(C(=O)N([H])[H])c5N([H])[H])C4([H])[H])c3[H])c([H])c([H])c2C1([H])[H]

>  <smiles>  (39) 
[H]c1c([H])c([H])c2c(c1[H])C([H])([H])C([H])([H])C([H])([H])C2([H])N([H])C(=O)C1([H])N(C(=O)C([H])(N([H])C(=O)C([H])(N([H])C([H])([H])[H])C([H])([H])[H])C(C([H])([H])[H])(C([H])([H])[H])C([H])([H])[H])C([H])([H])c2c([H])c(OC([H])([H])C(=O)N([H])C([H])(C([H])([H])[H])C([H])([H])c3c([H])c([H])c([H])c(N([H])C(=O)N4C([H])([H])C([H])([H])C([H])([H])C([H])(n5nc(-c6c([H])c([H])c(Oc7c([H])c([H])c(F)c([H])c7F)c([H])c6[H])c(C(=O)N([H])[H])c5N([H])[H])C4([H])[H])c3[H])c([H])c([H])c2C1([H])[H]

$$$$
39:0:0
     RDKit          3D

 96105  0  0  1  0  0  0  0  0999 V2000
  -28.7600  -23.9630   20.3000 C   0  0  0  0  0  0  0  0  0  0  0  0
  -28.9100  -22.5940   19.6880 C   0  0  0  0  0  0  0  0  0  0  0  0
  -28.4270  -25.1560   19.6550 C   0  0  0  0  0  0  0  0  0  0  0  0
  -29.0870  -23.8160   21.7620 C   0  0  0  0  0  3  0  0  0  0  0  0
  -29.6420  -22.3750   21.8810 C   0  0  0  0  0  3  0  0  0  0  0  0
  -28.3140  -25.2480   18.1400 C   0  0  0  0  0  1  0  0  0  0  0  0
  -29.3800  -21.6820   20.6140 N   0  0  0  0  0  0  0  0  0  0  0  0
  -28.6510  -22.2830   18.5210 O   0  0  0  0  0  0  0  0  0  0  0  0
  -30.7600  -19.6140   21.1770 C   0  0  0  0  0  3  0  0  0  0  0  0
  -30.9890  -18.2010   21.2160 C   0  0  0  0  0  3  0  0  0  0  0  0
  -28.8210  -19.2720   19.8200 C   0  0  0  0  0  3  0  0  0  0  0  0
  -29.6590  -20.2130   20.4950 C   0  0  0  0  0  0  0  0  0  0  0  0
  -30.1210  -17.2520   20.6000 C   0  0  0  0  0  0  0  0  0  0  0  0
  -29.0280  -17.8450   19.8970 C   0  0  0  0  0  0  0  0  0  0  0  0
  -30.7160  -14.7930   20.0480 C   0  0  0  0  0  0  0  0  0  0  0  0
  -30.3840  -12.5930   18.8790 C   0  0  0  0  0  2  0  0  0  0  0  0
  -29.3540  -12.7170   17.7360 C   0  0  0  0  0  2  0  0  0  0  0  0
  -27.9270  -12.4940   18.2660 C   0  0  0  0  0  2  0  0  0  0  0  0
  -27.6460  -13.3380   19.5340 C   0  0  0  0  0  3  0  0  0  0  0  0
  -28.7790  -13.2010   20.5720 C   0  0  0  0  0  2  0  0  0  0  0  0
  -30.0450  -13.5880   19.9290 N   0  0  0  0  0  0  0  0  0  0  0  0
  -31.7680  -14.9640   19.4270 O   0  0  0  0  0  0  0  0  0  0  0  0
  -30.3270  -15.4820   22.3190 C   0  0  0  0  0  1  0  0  0  0  0  0
  -30.2220  -15.7910   20.8840 N   0  0  0  0  0  0  0  0  0  0  0  0
  -25.3170  -13.9030   20.4540 C   0  0  0  0  0  0  0  0  0  0  0  0
  -24.2830  -13.1190   20.8860 C   0  0  0  0  0  0  0  0  0  0  0  0
  -24.7400  -11.7710   20.7690 C   0  0  0  0  0  0  0  0  0  0  0  0
  -26.3410  -13.0350   20.1110 N   0  0  0  0  0  0  0  0  0  0  0  0
  -26.0020  -11.7440   20.3610 N   0  0  0  0  0  0  0  0  0  0  0  0
  -24.0250  -10.5040   20.9670 C   0  0  0  0  0  0  0  0  0  0  0  0
  -24.4920   -9.5260   21.8730 C   0  0  0  0  0  3  0  0  0  0  0  0
  -23.7790   -8.3230   22.0590 C   0  0  0  0  0  3  0  0  0  0  0  0
  -22.5820   -8.0890   21.3390 C   0  0  0  0  0  0  0  0  0  0  0  0
  -22.1360   -9.0540   20.4180 C   0  0  0  0  0  3  0  0  0  0  0  0
  -22.8510  -10.2500   20.2310 C   0  0  0  0  0  3  0  0  0  0  0  0
  -21.8360   -6.9390   21.4340 O   0  0  0  0  0  0  0  0  0  0  0  0
  -21.7780   -6.2150   22.5990 C   0  0  0  0  0  0  0  0  0  0  0  0
  -21.3460   -6.7910   23.8140 C   0  0  0  0  0  3  0  0  0  0  0  0
  -21.2400   -5.9950   24.9720 C   0  0  0  0  0  3  0  0  0  0  0  0
  -21.5510   -4.6220   24.9130 C   0  0  0  0  0  0  0  0  0  0  0  0
  -21.9770   -4.0470   23.7030 C   0  0  0  0  0  3  0  0  0  0  0  0
  -22.0890   -4.8420   22.5480 C   0  0  0  0  0  0  0  0  0  0  0  0
  -22.4790   -4.2800   21.3790 F   0  0  0  0  0  0  0  0  0  0  0  0
  -21.4410   -3.8530   26.0210 F   0  0  0  0  0  0  0  0  0  0  0  0
  -22.9110  -13.5870   21.2750 C   0  0  0  0  0  0  0  0  0  0  0  0
  -22.2530  -12.8730   22.1830 N   0  0  0  0  0  0  0  0  0  0  0  0
  -22.4330  -14.6210   20.8090 O   0  0  0  0  0  0  0  0  0  0  0  0
  -22.6510  -12.0330   22.5740 H   0  0  0  0  0  0  0  0  0  0  0  0
  -21.3370  -13.1720   22.4890 H   0  0  0  0  0  0  0  0  0  0  0  0
  -25.4550  -15.2770   20.2920 N   0  0  0  0  0  0  0  0  0  0  0  0
  -24.6390  -15.8730   20.3750 H   0  0  0  0  0  0  0  0  0  0  0  0
  -26.1560  -15.6550   19.6660 H   0  0  0  0  0  0  0  0  0  0  0  0
  -28.0560  -17.0010   19.3720 N   0  0  0  0  0  0  0  0  0  0  0  0
  -27.1760  -17.4560   19.1560 H   0  0  0  0  0  0  0  0  0  0  0  0
  -27.9040  -16.2020   19.9790 H   0  0  0  0  0  0  0  0  0  0  0  0
  -28.3410  -26.4520   20.2580 O   0  0  0  0  0  0  0  0  0  0  0  0
  -24.5860  -31.8950   23.2410 C   0  0  0  0  0  0  0  0  0  0  0  0
  -27.2140  -27.3140   20.1740 C   0  0  0  0  0  0  0  0  0  0  0  0
  -23.3840  -30.4990   21.5970 C   0  0  0  0  0  3  0  0  0  0  0  0
  -24.8380  -28.9460   20.1670 C   0  0  0  0  0  0  0  0  0  0  0  0
  -25.9250  -30.8130   21.4140 C   0  0  0  0  0  2  0  0  0  0  0  0
  -26.0070  -29.4320   20.7650 C   0  0  0  0  0  0  0  0  0  0  0  0
  -27.1900  -28.6280   20.7600 C   0  0  0  0  0  3  0  0  0  0  0  0
  -26.0090  -26.8890   19.5680 C   0  0  0  0  0  3  0  0  0  0  0  0
  -24.8450  -27.6830   19.5550 C   0  0  0  0  0  3  0  0  0  0  0  0
  -23.5980  -29.8180   20.2170 C   0  0  0  0  0  2  0  0  0  0  0  0
  -24.6510  -31.0890   22.1410 N   0  0  0  0  0  0  0  0  0  0  0  0
  -23.5030  -32.1710   23.7770 O   0  0  0  0  0  0  0  0  0  0  0  0
  -22.7210  -29.4850   22.5590 C   0  0  0  0  0  0  0  0  0  0  0  0
  -21.3960  -29.3000   22.4280 N   0  0  0  0  0  0  0  0  0  0  0  0
  -23.3990  -28.8660   23.3840 O   0  0  0  0  0  0  0  0  0  0  0  0
  -20.9070  -29.8530   21.7380 H   0  0  0  0  0  0  0  0  0  0  0  0
  -18.0300  -28.0590   22.8950 C   0  0  0  0  0  0  0  0  0  0  0  0
  -20.5800  -28.3570   23.1950 C   0  0  0  0  0  3  0  0  0  0  0  0
  -20.7080  -26.9220   22.6340 C   0  0  0  0  0  2  0  0  0  0  0  0
  -19.6270  -26.5750   21.6060 C   0  0  0  0  0  2  0  0  0  0  0  0
  -18.2340  -26.7070   22.2310 C   0  0  0  0  0  2  0  0  0  0  0  0
  -19.1310  -28.8410   23.3320 C   0  0  0  0  0  0  0  0  0  0  0  0
  -18.8860  -30.1030   23.9140 C   0  0  0  0  0  3  0  0  0  0  0  0
  -17.5720  -30.5860   24.0590 C   0  0  0  0  0  3  0  0  0  0  0  0
  -16.4850  -29.8030   23.6370 C   0  0  0  0  0  3  0  0  0  0  0  0
  -16.7140  -28.5410   23.0620 C   0  0  0  0  0  3  0  0  0  0  0  0
  -25.8690  -32.5280   23.8650 C   0  0  0  0  0  3  0  0  0  0  0  0
  -25.5600  -33.9270   24.1910 N   0  0  0  0  0  0  0  0  0  0  0  0
  -25.8870  -34.9810   23.4300 C   0  0  0  0  0  0  0  0  0  0  0  0
  -26.5500  -34.8750   22.3940 O   0  0  0  0  0  0  0  0  0  0  0  0
  -24.9660  -34.0800   24.9930 H   0  0  0  0  0  0  0  0  0  0  0  0
  -24.1520  -36.7740   23.0980 C   0  0  0  0  0  1  0  0  0  0  0  0
  -25.4060  -36.3710   23.8900 C   0  0  0  0  0  3  0  0  0  0  0  0
  -27.5510  -37.2640   24.6850 C   0  0  0  0  0  1  0  0  0  0  0  0
  -26.4360  -37.4250   23.7550 N   0  0  0  0  0  0  0  0  0  0  0  0
  -26.0310  -38.3450   23.9030 H   0  0  0  0  0  0  0  0  0  0  0  0
  -26.3810  -31.7590   25.1440 C   0  0  1  0  0  0  0  0  0  0  0  0
  -25.2860  -31.5270   26.2110 C   0  0  0  0  0  1  0  0  0  0  0  0
  -26.9600  -30.3780   24.7580 C   0  0  0  0  0  1  0  0  0  0  0  0
  -27.5330  -32.5510   25.8060 C   0  0  0  0  0  1  0  0  0  0  0  0
  1  4  1  0
  2  1  1  0
  2  7  1  0
  3 56  1  0
  3  1  2  0
  4  5  2  0
  6  3  1  0
  7  5  1  0
  8  2  2  0
  9 10  1  0
 11 14  2  0
 11 12  1  0
 12  7  1  0
 12  9  2  0
 13 24  1  0
 13 10  2  0
 14 13  1  0
 15 24  1  0
 16 21  1  0
 17 18  1  0
 17 16  1  0
 19 18  1  0
 19 28  1  0
 19 20  1  0
 21 15  1  0
 21 20  1  0
 22 15  2  0
 24 23  1  0
 25 26  2  0
 26 45  1  0
 27 26  1  0
 27 30  1  0
 28 29  1  0
 28 25  1  0
 29 27  2  0
 30 31  1  0
 31 32  2  0
 33 36  1  0
 33 32  1  0
 34 33  2  0
 35 34  1  0
 35 30  2  0
 36 37  1  0
 37 38  1  0
 38 39  2  0
 40 39  1  0
 40 44  1  0
 41 40  2  0
 42 37  2  0
 42 41  1  0
 43 42  1  0
 45 46  1  0
 46 49  1  0
 46 48  1  0
 47 45  2  0
 50 51  1  0
 50 25  1  0
 52 50  1  0
 53 14  1  0
 53 55  1  0
 54 53  1  0
 57 68  2  0
 58 56  1  0
 58 63  1  0
 59 67  1  0
 59 69  1  0
 60 66  1  0
 60 62  1  0
 61 67  1  0
 62 61  1  0
 63 62  2  0
 64 58  2  0
 65 64  1  0
 65 60  2  0
 66 59  1  0
 67 57  1  0
 69 71  2  0
 70 69  1  0
 72 70  1  0
 73 82  2  0
 73 78  1  0
 74 70  1  0
 74 78  1  0
 75 74  1  0
 76 77  1  0
 76 75  1  0
 77 73  1  0
 78 79  2  0
 79 80  1  0
 81 80  2  0
 82 81  1  0
 83 57  1  0
 83 84  1  0
 83 93  1  0
 84 87  1  0
 85 89  1  0
 85 84  1  0
 86 85  2  0
 89 88  1  0
 91 89  1  0
 91 92  1  0
 91 90  1  0
 93 96  1  1
 93 94  1  0
 95 93  1  0
M  ISO  4   3 101  15 100  24 100  56 101
M  END
>  <TORSDO>  (40) 
F 18

>  <SCORE>  (40) 
-14.480

>  <name>  (40) 
39

>  <ligand_id>  (40) 
39

>  <original_smiles>  (40) 
[H]c1c([H])c([H])c2c(c1[H])C([H])([H])C([H])([H])C([H])([H])C2([H])N([H])C(=O)C1([H])N(C(=O)C([H])(N([H])C(=O)C([H])(N([H])C([H])([H])[H])C([H])([H])[H])C(C([H])([H])[H])(C([H])([H])[H])C([H])([H])[H])C([H])([H])c2c([H])c(OC(=C3C(=O)N(c4c([H])c([H])c(N(C(=O)N5C([H])([H])C([H])([H])C([H])([H])C([H])(n6nc(-c7c([H])c([H])c(Oc8c([H])c([H])c(F)c([H])c8F)c([H])c7[H])c(C(=O)N([H])[H])c6N([H])[H])C5([H])[H])C([H])([H])[H])c(N([H])[H])c4[H])C([H])([H])C3([H])[H])C([H])([H])[H])c([H])c([H])c2C1([H])[H]

>  <smiles>  (40) 
[H]c1c([H])c([H])c2c(c1[H])C([H])([H])C([H])([H])C([H])([H])C2([H])N([H])C(=O)C1([H])N(C(=O)C([H])(N([H])C(=O)C([H])(N([H])C([H])([H])[H])C([H])([H])[H])C(C([H])([H])[H])(C([H])([H])[H])C([H])([H])[H])C([H])([H])c2c([H])c(OC(=C3C(=O)N(c4c([H])c([H])c(N(C(=O)N5C([H])([H])C([H])([H])C([H])([H])C([H])(n6nc(-c7c([H])c([H])c(Oc8c([H])c([H])c(F)c([H])c8F)c([H])c7[H])c(C(=O)N([H])[H])c6N([H])[H])C5([H])[H])C([H])([H])[H])c(N([H])[H])c4[H])C([H])([H])C3([H])[H])C([H])([H])[H])c([H])c([H])c2C1([H])[H]

$$$$
40:0:0
     RDKit          3D

 93102  0  0  1  0  0  0  0  0999 V2000
  -28.6780  -22.5120   20.4720 C   0  0  0  0  0  3  0  0  0  0  0  0
  -28.9850  -23.8380   20.3650 C   0  0  0  0  0  0  0  0  0  0  0  0
  -30.4110  -23.8590   20.1360 C   0  0  0  0  0  0  0  0  0  0  0  0
  -31.1640  -24.9590   19.9790 C   0  0  0  0  0  1  0  0  0  0  0  0
  -30.9420  -22.4280   20.0960 C   0  0  0  0  0  3  0  0  0  0  0  0
  -29.7520  -21.6020   20.3330 N   0  0  0  0  0  0  0  0  0  0  0  0
  -28.6640  -19.3700   20.6830 C   0  0  0  0  0  3  0  0  0  0  0  0
  -28.6970  -17.9450   20.7530 C   0  0  0  0  0  3  0  0  0  0  0  0
  -31.0320  -17.9540   20.2230 C   0  0  0  0  0  3  0  0  0  0  0  0
  -29.8130  -20.1520   20.3870 C   0  0  0  0  0  0  0  0  0  0  0  0
  -29.8760  -17.1860   20.5210 C   0  0  0  0  0  0  0  0  0  0  0  0
  -31.0060  -19.3850   20.1610 C   0  0  0  0  0  0  0  0  0  0  0  0
  -32.1740  -20.0100   19.8710 F   0  0  0  0  0  0  0  0  0  0  0  0
  -30.5960  -14.6920   20.1750 C   0  0  0  0  0  0  0  0  0  0  0  0
  -30.3510  -12.4780   19.0590 C   0  0  0  0  0  2  0  0  0  0  0  0
  -29.3540  -12.6350   17.8890 C   0  0  0  0  0  2  0  0  0  0  0  0
  -27.9000  -12.4610   18.3740 C   0  0  0  0  0  2  0  0  0  0  0  0
  -27.5950  -13.2900   19.6500 C   0  0  0  0  0  3  0  0  0  0  0  0
  -28.7000  -13.1030   20.7150 C   0  0  0  0  0  2  0  0  0  0  0  0
  -29.9850  -13.4660   20.0940 N   0  0  0  0  0  0  0  0  0  0  0  0
  -31.7350  -14.8680   19.7310 O   0  0  0  0  0  0  0  0  0  0  0  0
  -29.8040  -15.7210   20.6180 N   0  0  0  0  0  0  0  0  0  0  0  0
  -28.9220  -15.3770   20.9690 H   0  0  0  0  0  0  0  0  0  0  0  0
  -25.2330  -13.8740   20.4780 C   0  0  0  0  0  0  0  0  0  0  0  0
  -24.1820  -13.0930   20.8750 C   0  0  0  0  0  0  0  0  0  0  0  0
  -24.6390  -11.7430   20.7920 C   0  0  0  0  0  0  0  0  0  0  0  0
  -26.2660  -12.9980   20.1810 N   0  0  0  0  0  0  0  0  0  0  0  0
  -25.9160  -11.7100   20.4280 N   0  0  0  0  0  0  0  0  0  0  0  0
  -23.9180  -10.4770   20.9800 C   0  0  0  0  0  0  0  0  0  0  0  0
  -24.3570   -9.5090   21.9100 C   0  0  0  0  0  3  0  0  0  0  0  0
  -23.6370   -8.3080   22.0870 C   0  0  0  0  0  3  0  0  0  0  0  0
  -22.4640   -8.0660   21.3330 C   0  0  0  0  0  0  0  0  0  0  0  0
  -22.0450   -9.0220   20.3920 C   0  0  0  0  0  3  0  0  0  0  0  0
  -22.7650  -10.2150   20.2130 C   0  0  0  0  0  3  0  0  0  0  0  0
  -21.7160   -6.9170   21.4190 O   0  0  0  0  0  0  0  0  0  0  0  0
  -21.6280   -6.2020   22.5860 C   0  0  0  0  0  0  0  0  0  0  0  0
  -21.1390   -6.7770   23.7790 C   0  0  0  0  0  3  0  0  0  0  0  0
  -21.0000   -5.9870   24.9380 C   0  0  0  0  0  3  0  0  0  0  0  0
  -21.3410   -4.6210   24.9030 C   0  0  0  0  0  0  0  0  0  0  0  0
  -21.8220   -4.0450   23.7150 C   0  0  0  0  0  3  0  0  0  0  0  0
  -21.9630   -4.8330   22.5590 C   0  0  0  0  0  0  0  0  0  0  0  0
  -22.4080   -4.2670   21.4110 F   0  0  0  0  0  0  0  0  0  0  0  0
  -21.1990   -3.8590   26.0130 F   0  0  0  0  0  0  0  0  0  0  0  0
  -22.7970  -13.5650   21.2160 C   0  0  0  0  0  0  0  0  0  0  0  0
  -22.1040  -12.8500   22.0950 N   0  0  0  0  0  0  0  0  0  0  0  0
  -22.3400  -14.6030   20.7370 O   0  0  0  0  0  0  0  0  0  0  0  0
  -22.4880  -12.0100   22.5030 H   0  0  0  0  0  0  0  0  0  0  0  0
  -21.1770  -13.1480   22.3650 H   0  0  0  0  0  0  0  0  0  0  0  0
  -25.3920  -15.2480   20.3240 N   0  0  0  0  0  0  0  0  0  0  0  0
  -24.6230  -15.8930   20.4650 H   0  0  0  0  0  0  0  0  0  0  0  0
  -26.2010  -15.6850   19.9020 H   0  0  0  0  0  0  0  0  0  0  0  0
  -27.9430  -25.0180   20.4200 C   0  0  0  0  0  2  0  0  0  0  0  0
  -28.3050  -26.4500   20.2180 O   0  0  0  0  0  0  0  0  0  0  0  0
  -24.6210  -31.9090   23.2350 C   0  0  0  0  0  0  0  0  0  0  0  0
  -27.2140  -27.3420   20.1630 C   0  0  0  0  0  0  0  0  0  0  0  0
  -23.4140  -30.5210   21.5920 C   0  0  0  0  0  3  0  0  0  0  0  0
  -24.8600  -28.9790   20.1580 C   0  0  0  0  0  0  0  0  0  0  0  0
  -25.9580  -30.8260   21.4140 C   0  0  0  0  0  2  0  0  0  0  0  0
  -26.0330  -29.4520   20.7600 C   0  0  0  0  0  0  0  0  0  0  0  0
  -27.2140  -28.6460   20.7550 C   0  0  0  0  0  3  0  0  0  0  0  0
  -26.0190  -26.9460   19.5130 C   0  0  0  0  0  3  0  0  0  0  0  0
  -24.8570  -27.7320   19.5250 C   0  0  0  0  0  3  0  0  0  0  0  0
  -23.6260  -29.8550   20.2080 C   0  0  0  0  0  2  0  0  0  0  0  0
  -24.6830  -31.1030   22.1360 N   0  0  0  0  0  0  0  0  0  0  0  0
  -23.5380  -32.1890   23.7680 O   0  0  0  0  0  0  0  0  0  0  0  0
  -22.7490  -29.5000   22.5460 C   0  0  0  0  0  0  0  0  0  0  0  0
  -21.4220  -29.3280   22.4190 N   0  0  0  0  0  0  0  0  0  0  0  0
  -23.4260  -28.8680   23.3620 O   0  0  0  0  0  0  0  0  0  0  0  0
  -20.9370  -29.8880   21.7320 H   0  0  0  0  0  0  0  0  0  0  0  0
  -18.0360  -28.1620   22.9320 C   0  0  0  0  0  0  0  0  0  0  0  0
  -20.5980  -28.3930   23.1880 C   0  0  0  0  0  3  0  0  0  0  0  0
  -20.6820  -26.9640   22.6010 C   0  0  0  0  0  2  0  0  0  0  0  0
  -19.5710  -26.6610   21.5910 C   0  0  0  0  0  2  0  0  0  0  0  0
  -18.1950  -26.8160   22.2450 C   0  0  0  0  0  2  0  0  0  0  0  0
  -19.1640  -28.9090   23.3600 C   0  0  0  0  0  0  0  0  0  0  0  0
  -18.9620  -30.1700   23.9630 C   0  0  0  0  0  3  0  0  0  0  0  0
  -17.6630  -30.6830   24.1420 C   0  0  0  0  0  3  0  0  0  0  0  0
  -16.5480  -29.9310   23.7300 C   0  0  0  0  0  3  0  0  0  0  0  0
  -16.7360  -28.6730   23.1310 C   0  0  0  0  0  3  0  0  0  0  0  0
  -25.9060  -32.5360   23.8570 C   0  0  0  0  0  3  0  0  0  0  0  0
  -25.5980  -33.9320   24.2000 N   0  0  0  0  0  0  0  0  0  0  0  0
  -25.9080  -34.9890   23.4390 C   0  0  0  0  0  0  0  0  0  0  0  0
  -26.5550  -34.8930   22.3930 O   0  0  0  0  0  0  0  0  0  0  0  0
  -25.0210  -34.0800   25.0150 H   0  0  0  0  0  0  0  0  0  0  0  0
  -24.1590  -36.7710   23.1370 C   0  0  0  0  0  1  0  0  0  0  0  0
  -25.4250  -36.3730   23.9130 C   0  0  0  0  0  3  0  0  0  0  0  0
  -27.5730  -37.2720   24.6900 C   0  0  0  0  0  1  0  0  0  0  0  0
  -26.4470  -37.4340   23.7740 N   0  0  0  0  0  0  0  0  0  0  0  0
  -26.0390  -38.3510   23.9320 H   0  0  0  0  0  0  0  0  0  0  0  0
  -26.4250  -31.7540   25.1270 C   0  0  1  0  0  0  0  0  0  0  0  0
  -25.3330  -31.5060   26.1930 C   0  0  0  0  0  1  0  0  0  0  0  0
  -27.0080  -30.3790   24.7240 C   0  0  0  0  0  1  0  0  0  0  0  0
  -27.5770  -32.5430   25.7920 C   0  0  0  0  0  1  0  0  0  0  0  0
  2 52  1  0
  2  1  2  0
  3  2  1  0
  4  3  1  0
  5  3  2  0
  5  6  1  0
  6 10  1  0
  6  1  1  0
  7  8  1  0
  9 11  1  0
 10  7  2  0
 11 22  1  0
 11  8  2  0
 12  9  2  0
 12 10  1  0
 13 12  1  0
 14 22  1  0
 15 20  1  0
 16 17  1  0
 16 15  1  0
 18 17  1  0
 18 27  1  0
 18 19  1  0
 20 14  1  0
 20 19  1  0
 21 14  2  0
 22 23  1  0
 24 25  2  0
 25 44  1  0
 26 25  1  0
 26 29  1  0
 27 28  1  0
 27 24  1  0
 28 26  2  0
 29 30  1  0
 30 31  2  0
 32 35  1  0
 32 31  1  0
 33 32  2  0
 34 33  1  0
 34 29  2  0
 35 36  1  0
 36 37  1  0
 37 38  2  0
 39 38  1  0
 39 43  1  0
 40 39  2  0
 41 36  2  0
 41 40  1  0
 42 41  1  0
 44 45  1  0
 45 48  1  0
 45 47  1  0
 46 44  2  0
 49 50  1  0
 49 24  1  0
 51 49  1  0
 53 52  1  0
 54 65  2  0
 55 53  1  0
 55 60  1  0
 56 64  1  0
 56 66  1  0
 57 63  1  0
 57 59  1  0
 58 64  1  0
 59 58  1  0
 60 59  2  0
 61 62  1  0
 61 55  2  0
 62 57  2  0
 63 56  1  0
 64 54  1  0
 66 68  2  0
 67 66  1  0
 69 67  1  0
 70 79  2  0
 70 75  1  0
 71 67  1  0
 71 75  1  0
 72 71  1  0
 73 74  1  0
 73 72  1  0
 74 70  1  0
 75 76  2  0
 76 77  1  0
 78 77  2  0
 79 78  1  0
 80 54  1  0
 80 81  1  0
 80 90  1  0
 81 84  1  0
 82 86  1  0
 82 81  1  0
 83 82  2  0
 86 85  1  0
 88 86  1  0
 88 89  1  0
 88 87  1  0
 90 93  1  1
 90 91  1  0
 92 90  1  0
M  ISO  4  14 100  22 100  52 101  53 101
M  END
>  <TORSDO>  (41) 
F 18

>  <SCORE>  (41) 
-14.695

>  <name>  (41) 
40

>  <ligand_id>  (41) 
40

>  <original_smiles>  (41) 
[H]C([H])=C1C(C([H])([H])Oc2c([H])c([H])c3c(c2[H])C([H])([H])N(C(=O)C([H])(N([H])C(=O)C([H])(N([H])C([H])([H])[H])C([H])([H])[H])C(C([H])([H])[H])(C([H])([H])[H])C([H])([H])[H])C([H])(C(=O)N([H])C2([H])c4c([H])c([H])c([H])c([H])c4C([H])([H])C([H])([H])C2([H])[H])C3([H])[H])=C([H])N(c2c([H])c([H])c(N([H])C(=O)N3C([H])([H])C([H])([H])C([H])([H])C([H])(n4nc(-c5c([H])c([H])c(Oc6c([H])c([H])c(F)c([H])c6F)c([H])c5[H])c(C(=O)N([H])[H])c4N([H])[H])C3([H])[H])c([H])c2F)C1([H])[H]

>  <smiles>  (41) 
[H]C([H])=C1C(C([H])([H])Oc2c([H])c([H])c3c(c2[H])C([H])([H])N(C(=O)C([H])(N([H])C(=O)C([H])(N([H])C([H])([H])[H])C([H])([H])[H])C(C([H])([H])[H])(C([H])([H])[H])C([H])([H])[H])C([H])(C(=O)N([H])C2([H])c4c([H])c([H])c([H])c([H])c4C([H])([H])C([H])([H])C2([H])[H])C3([H])[H])=C([H])N(c2c([H])c([H])c(N([H])C(=O)N3C([H])([H])C([H])([H])C([H])([H])C([H])(n4nc(-c5c([H])c([H])c(Oc6c([H])c([H])c(F)c([H])c6F)c([H])c5[H])c(C(=O)N([H])[H])c4N([H])[H])C3([H])[H])c([H])c2F)C1([H])[H]

$$$$
41:0:0
     RDKit          3D

 96105  0  0  1  0  0  0  0  0999 V2000
  -28.5280  -23.6860   21.7930 C   0  0  0  0  0  0  0  0  0  0  0  0
  -29.3600  -22.6490   22.5730 C   0  0  0  0  0  2  0  0  0  0  0  0
  -30.3090  -23.7270   20.0860 C   0  0  0  0  0  2  0  0  0  0  0  0
  -30.8710  -22.3350   20.5120 C   0  0  0  0  0  2  0  0  0  0  0  0
  -28.7760  -23.8170   20.2780 C   0  0  1  0  0  0  0  0  0  0  0  0
  -28.1030  -22.5880   19.5810 C   0  0  0  0  0  1  0  0  0  0  0  0
  -30.3610  -21.8610   21.8190 N   0  0  0  0  0  0  0  0  0  0  0  0
  -27.6770  -24.3590   22.3780 O   0  0  0  0  0  0  0  0  0  0  0  0
  -30.5690  -18.8600   24.0850 C   0  0  0  0  0  3  0  0  0  0  0  0
  -30.9340  -17.8350   23.1970 C   0  0  0  0  0  3  0  0  0  0  0  0
  -30.4040  -20.1820   23.6260 C   0  0  0  0  0  3  0  0  0  0  0  0
  -30.9820  -19.4750   21.3870 C   0  0  0  0  0  3  0  0  0  0  0  0
  -31.1470  -18.1320   21.8360 C   0  0  0  0  0  0  0  0  0  0  0  0
  -30.5840  -20.5230   22.2610 C   0  0  0  0  0  0  0  0  0  0  0  0
  -31.5260  -14.7840   20.1640 C   0  0  0  0  0  0  0  0  0  0  0  0
  -30.9660  -12.6950   18.9840 C   0  0  0  0  0  2  0  0  0  0  0  0
  -30.0210  -13.0030   17.8080 C   0  0  0  0  0  2  0  0  0  0  0  0
  -28.5600  -12.9170   18.2800 C   0  0  0  0  0  2  0  0  0  0  0  0
  -28.3030  -13.7330   19.5770 C   0  0  0  0  0  3  0  0  0  0  0  0
  -29.3880  -13.4770   20.6530 C   0  0  0  0  0  2  0  0  0  0  0  0
  -30.7120  -13.6930   20.0440 N   0  0  0  0  0  0  0  0  0  0  0  0
  -32.6080  -14.8090   19.5740 O   0  0  0  0  0  0  0  0  0  0  0  0
  -31.6740  -17.0840   20.8880 C   0  0  0  0  0  0  0  0  0  0  0  0
  -31.0840  -15.8550   20.8720 N   0  0  0  0  0  0  0  0  0  0  0  0
  -32.6010  -17.4320   20.1460 O   0  0  0  0  0  0  0  0  0  0  0  0
  -30.2500  -15.7410   21.4210 H   0  0  0  0  0  0  0  0  0  0  0  0
  -25.9610  -14.4040   20.3960 C   0  0  0  0  0  0  0  0  0  0  0  0
  -24.8690  -13.6650   20.7650 C   0  0  0  0  0  0  0  0  0  0  0  0
  -25.2660  -12.2960   20.6560 C   0  0  0  0  0  0  0  0  0  0  0  0
  -26.9570  -13.4910   20.0910 N   0  0  0  0  0  0  0  0  0  0  0  0
  -26.5420  -12.2140   20.3030 N   0  0  0  0  0  0  0  0  0  0  0  0
  -24.4840  -11.0610   20.8110 C   0  0  0  0  0  0  0  0  0  0  0  0
  -24.8610  -10.0580   21.7310 C   0  0  0  0  0  3  0  0  0  0  0  0
  -24.0830   -8.8900   21.8760 C   0  0  0  0  0  3  0  0  0  0  0  0
  -22.9120   -8.7170   21.1000 C   0  0  0  0  0  0  0  0  0  0  0  0
  -22.5540   -9.7070   20.1690 C   0  0  0  0  0  3  0  0  0  0  0  0
  -23.3340  -10.8670   20.0220 C   0  0  0  0  0  3  0  0  0  0  0  0
  -22.1080   -7.6040   21.1560 O   0  0  0  0  0  0  0  0  0  0  0  0
  -21.9390   -6.8940   22.3180 C   0  0  0  0  0  0  0  0  0  0  0  0
  -21.4700   -7.5030   23.5030 C   0  0  0  0  0  3  0  0  0  0  0  0
  -21.2460   -6.7240   24.6540 C   0  0  0  0  0  3  0  0  0  0  0  0
  -21.4800   -5.3350   24.6230 C   0  0  0  0  0  0  0  0  0  0  0  0
  -21.9420   -4.7260   23.4420 C   0  0  0  0  0  3  0  0  0  0  0  0
  -22.1680   -5.5030   22.2930 C   0  0  0  0  0  0  0  0  0  0  0  0
  -22.5930   -4.9080   21.1530 F   0  0  0  0  0  0  0  0  0  0  0  0
  -21.2580   -4.5840   25.7270 F   0  0  0  0  0  0  0  0  0  0  0  0
  -23.5070  -14.1940   21.1080 C   0  0  0  0  0  0  0  0  0  0  0  0
  -22.7900  -13.5110   21.9940 N   0  0  0  0  0  0  0  0  0  0  0  0
  -23.0900  -15.2480   20.6290 O   0  0  0  0  0  0  0  0  0  0  0  0
  -23.1420  -12.6570   22.4040 H   0  0  0  0  0  0  0  0  0  0  0  0
  -21.8770  -13.8450   22.2680 H   0  0  0  0  0  0  0  0  0  0  0  0
  -26.1840  -15.7720   20.2750 N   0  0  0  0  0  0  0  0  0  0  0  0
  -25.4500  -16.4540   20.4290 H   0  0  0  0  0  0  0  0  0  0  0  0
  -27.0470  -16.1870   19.9470 H   0  0  0  0  0  0  0  0  0  0  0  0
  -28.0390  -25.0470   19.6300 C   0  0  0  0  0  2  0  0  0  0  0  0
  -28.2840  -26.4700   19.8640 O   0  0  0  0  0  0  0  0  0  0  0  0
  -24.6250  -31.7680   23.0140 C   0  0  0  0  0  0  0  0  0  0  0  0
  -27.1570  -27.3020   19.8130 C   0  0  0  0  0  0  0  0  0  0  0  0
  -23.3690  -30.3680   21.4170 C   0  0  0  0  0  3  0  0  0  0  0  0
  -24.7740  -28.8650   19.9210 C   0  0  0  0  0  0  0  0  0  0  0  0
  -25.8950  -30.7220   21.1370 C   0  0  0  0  0  2  0  0  0  0  0  0
  -25.9590  -29.3550   20.4850 C   0  0  0  0  0  0  0  0  0  0  0  0
  -27.1480  -28.5770   20.4450 C   0  0  0  0  0  3  0  0  0  0  0  0
  -25.9570  -26.9060   19.1620 C   0  0  0  0  0  3  0  0  0  0  0  0
  -24.7710  -27.6380   19.2610 C   0  0  0  0  0  3  0  0  0  0  0  0
  -23.5290  -29.7120   20.0240 C   0  0  0  0  0  2  0  0  0  0  0  0
  -24.6510  -30.9670   21.9110 N   0  0  0  0  0  0  0  0  0  0  0  0
  -23.5610  -32.0350   23.5890 O   0  0  0  0  0  0  0  0  0  0  0  0
  -22.7590  -29.3310   22.3910 C   0  0  0  0  0  0  0  0  0  0  0  0
  -21.4370  -29.1150   22.2890 N   0  0  0  0  0  0  0  0  0  0  0  0
  -23.4720  -28.7260   23.1960 O   0  0  0  0  0  0  0  0  0  0  0  0
  -20.9190  -29.6600   21.6150 H   0  0  0  0  0  0  0  0  0  0  0  0
  -18.1120  -27.7940   22.8090 C   0  0  0  0  0  0  0  0  0  0  0  0
  -20.6570  -28.1640   23.0810 C   0  0  0  0  0  3  0  0  0  0  0  0
  -20.8200  -26.7240   22.5420 C   0  0  0  0  0  2  0  0  0  0  0  0
  -19.7340  -26.3290   21.5360 C   0  0  0  0  0  2  0  0  0  0  0  0
  -18.3450  -26.4350   22.1720 C   0  0  0  0  0  2  0  0  0  0  0  0
  -19.1980  -28.6120   23.2210 C   0  0  0  0  0  0  0  0  0  0  0  0
  -18.9270  -29.8830   23.7740 C   0  0  0  0  0  3  0  0  0  0  0  0
  -17.6020  -30.3340   23.9270 C   0  0  0  0  0  3  0  0  0  0  0  0
  -16.5310  -29.5110   23.5340 C   0  0  0  0  0  3  0  0  0  0  0  0
  -16.7870  -28.2460   22.9790 C   0  0  0  0  0  3  0  0  0  0  0  0
  -25.9280  -32.4070   23.5850 C   0  0  0  0  0  3  0  0  0  0  0  0
  -25.6000  -33.7750   24.0080 N   0  0  0  0  0  0  0  0  0  0  0  0
  -25.9130  -34.8800   23.3200 C   0  0  0  0  0  0  0  0  0  0  0  0
  -26.5810  -34.8570   22.2840 O   0  0  0  0  0  0  0  0  0  0  0  0
  -25.0130  -33.8680   24.8250 H   0  0  0  0  0  0  0  0  0  0  0  0
  -24.1750  -36.6810   23.0690 C   0  0  0  0  0  1  0  0  0  0  0  0
  -25.4020  -36.2250   23.8720 C   0  0  0  0  0  3  0  0  0  0  0  0
  -27.5160  -37.0580   24.8020 C   0  0  0  0  0  1  0  0  0  0  0  0
  -26.4260  -37.2910   23.8590 N   0  0  0  0  0  0  0  0  0  0  0  0
  -26.0100  -38.1930   24.0740 H   0  0  0  0  0  0  0  0  0  0  0  0
  -26.5480  -31.5850   24.7810 C   0  0  1  0  0  0  0  0  0  0  0  0
  -25.5330  -31.2570   25.9000 C   0  0  0  0  0  1  0  0  0  0  0  0
  -27.1500  -30.2520   24.2790 C   0  0  0  0  0  1  0  0  0  0  0  0
  -27.7100  -32.3870   25.4140 C   0  0  0  0  0  1  0  0  0  0  0  0
  1  8  2  0
  1  2  1  0
  3  5  1  0
  3  4  1  0
  4  7  1  0
  5  6  1  6
  5  1  1  0
  7 14  1  0
  7  2  1  0
 10  9  2  0
 11  9  1  0
 12 13  2  0
 12 14  1  0
 13 10  1  0
 14 11  2  0
 15 24  1  0
 16 21  1  0
 17 18  1  0
 17 16  1  0
 19 18  1  0
 19 30  1  0
 19 20  1  0
 21 15  1  0
 21 20  1  0
 22 15  2  0
 23 13  1  0
 24 23  1  0
 24 26  1  0
 25 23  2  0
 27 28  2  0
 28 47  1  0
 29 28  1  0
 29 32  1  0
 30 31  1  0
 30 27  1  0
 31 29  2  0
 32 33  1  0
 33 34  2  0
 35 38  1  0
 35 34  1  0
 36 35  2  0
 37 36  1  0
 37 32  2  0
 38 39  1  0
 39 40  1  0
 40 41  2  0
 42 41  1  0
 42 46  1  0
 43 42  2  0
 44 39  2  0
 44 43  1  0
 45 44  1  0
 47 48  1  0
 48 51  1  0
 48 50  1  0
 49 47  2  0
 52 27  1  0
 52 53  1  0
 54 52  1  0
 55 56  1  0
 55  5  1  0
 57 68  2  0
 58 56  1  0
 58 63  1  0
 59 67  1  0
 59 69  1  0
 60 66  1  0
 60 62  1  0
 61 67  1  0
 62 61  1  0
 63 62  2  0
 64 65  1  0
 64 58  2  0
 65 60  2  0
 66 59  1  0
 67 57  1  0
 69 71  2  0
 70 69  1  0
 72 70  1  0
 73 82  2  0
 73 78  1  0
 74 70  1  0
 74 78  1  0
 75 74  1  0
 76 77  1  0
 76 75  1  0
 77 73  1  0
 78 79  2  0
 79 80  1  0
 81 80  2  0
 82 81  1  0
 83 57  1  0
 83 84  1  0
 83 93  1  0
 84 87  1  0
 85 89  1  0
 85 84  1  0
 86 85  2  0
 89 88  1  0
 91 89  1  0
 91 92  1  0
 91 90  1  0
 93 96  1  1
 93 94  1  0
 95 93  1  0
M  ISO  4  15 100  24 100  55 101  56 101
M  END
>  <TORSDO>  (42) 
F 18

>  <SCORE>  (42) 
-12.461

>  <name>  (42) 
41

>  <ligand_id>  (42) 
41

>  <original_smiles>  (42) 
[H]c1c([H])c(C(=O)N([H])C(=O)N2C([H])([H])C([H])([H])C([H])([H])C([H])(n3nc(-c4c([H])c([H])c(Oc5c([H])c([H])c(F)c([H])c5F)c([H])c4[H])c(C(=O)N([H])[H])c3N([H])[H])C2([H])[H])c([H])c(N2C([H])([H])C(=O)C(C([H])([H])[H])(C([H])([H])Oc3c([H])c([H])c4c(c3[H])C([H])([H])N(C(=O)C([H])(N([H])C(=O)C([H])(N([H])C([H])([H])[H])C([H])([H])[H])C(C([H])([H])[H])(C([H])([H])[H])C([H])([H])[H])C([H])(C(=O)N([H])C3([H])c5c([H])c([H])c([H])c([H])c5C([H])([H])C([H])([H])C3([H])[H])C4([H])[H])C([H])([H])C2([H])[H])c1[H]

>  <smiles>  (42) 
[H]c1c([H])c(C(=O)N([H])C(=O)N2C([H])([H])C([H])([H])C([H])([H])C([H])(n3nc(-c4c([H])c([H])c(Oc5c([H])c([H])c(F)c([H])c5F)c([H])c4[H])c(C(=O)N([H])[H])c3N([H])[H])C2([H])[H])c([H])c(N2C([H])([H])C(=O)C(C([H])([H])[H])(C([H])([H])Oc3c([H])c([H])c4c(c3[H])C([H])([H])N(C(=O)C([H])(N([H])C(=O)C([H])(N([H])C([H])([H])[H])C([H])([H])[H])C(C([H])([H])[H])(C([H])([H])[H])C([H])([H])[H])C([H])(C(=O)N([H])C3([H])c5c([H])c([H])c([H])c([H])c5C([H])([H])C([H])([H])C3([H])[H])C4([H])[H])C([H])([H])C2([H])[H])c1[H]

$$$$
42:0:0
     RDKit          3D

 97106  0  0  1  0  0  0  0  0999 V2000
  -29.8240  -22.3450   21.7010 C   0  0  0  0  0  0  0  0  0  0  0  0
  -28.3380  -22.4230   20.0850 C   0  0  0  0  0  0  0  0  0  0  0  0
  -29.3850  -23.8140   21.6900 C   0  0  0  0  0  2  0  0  0  0  0  0
  -28.2180  -23.8810   20.6880 C   0  0  2  0  0  0  0  0  0  0  0  0
  -26.8560  -23.9710   21.4140 C   0  0  0  0  0  1  0  0  0  0  0  0
  -29.1990  -21.6060   20.7670 N   0  0  0  0  0  0  0  0  0  0  0  0
  -30.6670  -21.9310   22.5060 O   0  0  0  0  0  0  0  0  0  0  0  0
  -27.6840  -22.0750   19.0950 O   0  0  0  0  0  0  0  0  0  0  0  0
  -28.4560  -19.1600   20.7950 C   0  0  0  0  0  3  0  0  0  0  0  0
  -28.7340  -17.7670   20.6420 C   0  0  0  0  0  3  0  0  0  0  0  0
  -30.7310  -19.6570   20.2320 C   0  0  0  0  0  3  0  0  0  0  0  0
  -31.0170  -18.2650   20.0490 C   0  0  0  0  0  0  0  0  0  0  0  0
  -29.4460  -20.1570   20.5830 C   0  0  0  0  0  0  0  0  0  0  0  0
  -30.0070  -17.2640   20.2480 C   0  0  0  0  0  0  0  0  0  0  0  0
  -30.8120  -14.7920   20.2880 C   0  0  0  0  0  0  0  0  0  0  0  0
  -30.6240  -12.4850   19.3860 C   0  0  0  0  0  2  0  0  0  0  0  0
  -29.7020  -12.4760   18.1460 C   0  0  0  0  0  2  0  0  0  0  0  0
  -28.2160  -12.3890   18.5550 C   0  0  0  0  0  2  0  0  0  0  0  0
  -27.8260  -13.2970   19.7560 C   0  0  0  0  0  3  0  0  0  0  0  0
  -28.8780  -13.2650   20.8820 C   0  0  0  0  0  2  0  0  0  0  0  0
  -30.1720  -13.5780   20.2680 N   0  0  0  0  0  0  0  0  0  0  0  0
  -32.0420  -14.8320   20.2350 O   0  0  0  0  0  0  0  0  0  0  0  0
  -29.9530  -15.8430   18.3090 C   0  0  0  0  0  1  0  0  0  0  0  0
  -30.0910  -15.8680   19.7750 N   0  0  0  0  0  0  0  0  0  0  0  0
  -25.4270  -13.8810   20.4540 C   0  0  0  0  0  0  0  0  0  0  0  0
  -24.3650  -13.1010   20.8170 C   0  0  0  0  0  0  0  0  0  0  0  0
  -24.8400  -11.7530   20.8050 C   0  0  0  0  0  0  0  0  0  0  0  0
  -26.4820  -13.0070   20.2420 N   0  0  0  0  0  0  0  0  0  0  0  0
  -26.1350  -11.7240   20.5180 N   0  0  0  0  0  0  0  0  0  0  0  0
  -24.1210  -10.4870   20.9920 C   0  0  0  0  0  0  0  0  0  0  0  0
  -24.5360   -9.5390   21.9520 C   0  0  0  0  0  3  0  0  0  0  0  0
  -23.8180   -8.3350   22.1260 C   0  0  0  0  0  3  0  0  0  0  0  0
  -22.6710   -8.0720   21.3390 C   0  0  0  0  0  0  0  0  0  0  0  0
  -22.2750   -9.0110   20.3700 C   0  0  0  0  0  3  0  0  0  0  0  0
  -22.9940  -10.2050   20.1950 C   0  0  0  0  0  3  0  0  0  0  0  0
  -21.9270   -6.9190   21.4230 O   0  0  0  0  0  0  0  0  0  0  0  0
  -21.8350   -6.2070   22.5910 C   0  0  0  0  0  0  0  0  0  0  0  0
  -21.3330   -6.7830   23.7780 C   0  0  0  0  0  3  0  0  0  0  0  0
  -21.1900   -5.9960   24.9380 C   0  0  0  0  0  3  0  0  0  0  0  0
  -21.5370   -4.6310   24.9100 C   0  0  0  0  0  0  0  0  0  0  0  0
  -22.0300   -4.0530   23.7280 C   0  0  0  0  0  3  0  0  0  0  0  0
  -22.1760   -4.8390   22.5710 C   0  0  0  0  0  0  0  0  0  0  0  0
  -22.6330   -4.2720   21.4270 F   0  0  0  0  0  0  0  0  0  0  0  0
  -21.3910   -3.8720   26.0210 F   0  0  0  0  0  0  0  0  0  0  0  0
  -22.9590  -13.5670   21.0580 C   0  0  0  0  0  0  0  0  0  0  0  0
  -22.2180  -12.8750   21.9170 N   0  0  0  0  0  0  0  0  0  0  0  0
  -22.5220  -14.5840   20.5190 O   0  0  0  0  0  0  0  0  0  0  0  0
  -22.5770  -12.0540   22.3810 H   0  0  0  0  0  0  0  0  0  0  0  0
  -21.2730  -13.1740   22.1140 H   0  0  0  0  0  0  0  0  0  0  0  0
  -25.5760  -15.2520   20.2600 N   0  0  0  0  0  0  0  0  0  0  0  0
  -24.7920  -15.8910   20.3290 H   0  0  0  0  0  0  0  0  0  0  0  0
  -26.4090  -15.6870   19.8870 H   0  0  0  0  0  0  0  0  0  0  0  0
  -32.3720  -17.9480   19.5230 C   0  0  0  0  0  0  0  0  0  0  0  0
  -33.5460  -18.3710   20.3930 C   0  0  0  0  0  1  0  0  0  0  0  0
  -32.5850  -17.3960   18.4400 O   0  0  0  0  0  0  0  0  0  0  0  0
  -28.3350  -25.1190   19.6790 C   0  0  0  0  0  2  0  0  0  0  0  0
  -28.2990  -26.5200   20.1850 O   0  0  0  0  0  0  0  0  0  0  0  0
  -24.5820  -31.9060   23.2270 C   0  0  0  0  0  0  0  0  0  0  0  0
  -27.1550  -27.3360   20.1410 C   0  0  0  0  0  0  0  0  0  0  0  0
  -23.3580  -30.5060   21.6020 C   0  0  0  0  0  3  0  0  0  0  0  0
  -24.7900  -28.9520   20.1610 C   0  0  0  0  0  0  0  0  0  0  0  0
  -25.8950  -30.8200   21.3900 C   0  0  0  0  0  2  0  0  0  0  0  0
  -25.9640  -29.4390   20.7470 C   0  0  0  0  0  0  0  0  0  0  0  0
  -27.1460  -28.6410   20.7300 C   0  0  0  0  0  3  0  0  0  0  0  0
  -25.9530  -26.9020   19.5390 C   0  0  0  0  0  3  0  0  0  0  0  0
  -24.7870  -27.6900   19.5490 C   0  0  0  0  0  3  0  0  0  0  0  0
  -23.5540  -29.8270   20.2200 C   0  0  0  0  0  2  0  0  0  0  0  0
  -24.6310  -31.0960   22.1280 N   0  0  0  0  0  0  0  0  0  0  0  0
  -23.5060  -32.1850   23.7750 O   0  0  0  0  0  0  0  0  0  0  0  0
  -22.7070  -29.4920   22.5700 C   0  0  0  0  0  0  0  0  0  0  0  0
  -21.3820  -29.3070   22.4490 N   0  0  0  0  0  0  0  0  0  0  0  0
  -23.3930  -28.8710   23.3880 O   0  0  0  0  0  0  0  0  0  0  0  0
  -20.8870  -29.8610   21.7630 H   0  0  0  0  0  0  0  0  0  0  0  0
  -18.0140  -28.0920   22.9680 C   0  0  0  0  0  0  0  0  0  0  0  0
  -20.5700  -28.3680   23.2270 C   0  0  0  0  0  3  0  0  0  0  0  0
  -20.6810  -26.9340   22.6590 C   0  0  0  0  0  2  0  0  0  0  0  0
  -19.5780  -26.5990   21.6510 C   0  0  0  0  0  2  0  0  0  0  0  0
  -18.1960  -26.7400   22.2980 C   0  0  0  0  0  2  0  0  0  0  0  0
  -19.1300  -28.8620   23.3900 C   0  0  0  0  0  0  0  0  0  0  0  0
  -18.9070  -30.1270   23.9770 C   0  0  0  0  0  3  0  0  0  0  0  0
  -17.6010  -30.6240   24.1420 C   0  0  0  0  0  3  0  0  0  0  0  0
  -16.4990  -29.8520   23.7360 C   0  0  0  0  0  3  0  0  0  0  0  0
  -16.7060  -28.5870   23.1580 C   0  0  0  0  0  3  0  0  0  0  0  0
  -25.8740  -32.5370   23.8330 C   0  0  0  0  0  3  0  0  0  0  0  0
  -26.3990  -31.7690   25.1080 C   0  0  1  0  0  0  0  0  0  0  0  0
  -25.3140  -31.5400   26.1860 C   0  0  0  0  0  1  0  0  0  0  0  0
  -26.9770  -30.3900   24.7160 C   0  0  0  0  0  1  0  0  0  0  0  0
  -27.5550  -32.5630   25.7620 C   0  0  0  0  0  1  0  0  0  0  0  0
  -25.5710  -33.9360   24.1660 N   0  0  0  0  0  0  0  0  0  0  0  0
  -25.9030  -34.9900   23.4080 C   0  0  0  0  0  0  0  0  0  0  0  0
  -26.5700  -34.8840   22.3750 O   0  0  0  0  0  0  0  0  0  0  0  0
  -24.9850  -34.0920   24.9740 H   0  0  0  0  0  0  0  0  0  0  0  0
  -24.1890  -36.7950   23.0480 C   0  0  0  0  0  1  0  0  0  0  0  0
  -25.4210  -36.3800   23.8680 C   0  0  0  0  0  3  0  0  0  0  0  0
  -27.5530  -37.2490   24.7210 C   0  0  0  0  0  1  0  0  0  0  0  0
  -26.4610  -37.4270   23.7680 N   0  0  0  0  0  0  0  0  0  0  0  0
  -26.0590  -38.3490   23.9150 H   0  0  0  0  0  0  0  0  0  0  0  0
  1  7  2  0
  2  4  1  0
  2  6  1  0
  3  1  1  0
  4  5  1  1
  4  3  1  0
  6  1  1  0
  8  2  2  0
 10  9  1  0
 11 13  1  0
 12 11  2  0
 12 14  1  0
 13  6  1  0
 13  9  2  0
 14 10  2  0
 16 21  1  0
 17 18  1  0
 17 16  1  0
 19 18  1  0
 19 28  1  0
 19 20  1  0
 21 15  1  0
 21 20  1  0
 22 15  2  0
 23 24  1  0
 24 14  1  0
 24 15  1  0
 25 26  2  0
 26 45  1  0
 27 26  1  0
 27 30  1  0
 28 25  1  0
 28 29  1  0
 29 27  2  0
 30 31  1  0
 31 32  2  0
 33 36  1  0
 33 32  1  0
 34 33  2  0
 35 34  1  0
 35 30  2  0
 36 37  1  0
 37 38  1  0
 38 39  2  0
 40 39  1  0
 40 44  1  0
 41 40  2  0
 42 37  2  0
 42 41  1  0
 43 42  1  0
 45 46  1  0
 46 49  1  0
 46 48  1  0
 47 45  2  0
 50 51  1  0
 50 25  1  0
 52 50  1  0
 53 12  1  0
 53 54  1  0
 55 53  2  0
 56 57  1  0
 56  4  1  0
 58 69  2  0
 59 57  1  0
 59 64  1  0
 60 68  1  0
 60 70  1  0
 61 67  1  0
 61 63  1  0
 62 68  1  0
 63 62  1  0
 64 63  2  0
 65 66  1  0
 65 59  2  0
 66 61  2  0
 67 60  1  0
 68 58  1  0
 70 72  2  0
 71 70  1  0
 73 71  1  0
 74 83  2  0
 74 79  1  0
 75 71  1  0
 75 79  1  0
 76 75  1  0
 77 78  1  0
 77 76  1  0
 78 74  1  0
 79 80  2  0
 80 81  1  0
 82 81  2  0
 83 82  1  0
 84 58  1  0
 84 89  1  0
 84 85  1  0
 85 88  1  1
 85 86  1  0
 87 85  1  0
 89 92  1  0
 90 94  1  0
 90 89  1  0
 91 90  2  0
 94 93  1  0
 96 94  1  0
 96 97  1  0
 96 95  1  0
M  ISO  4  15 100  24 100  56 101  57 101
M  END
>  <TORSDO>  (43) 
F 19

>  <SCORE>  (43) 
-13.952

>  <name>  (43) 
42

>  <ligand_id>  (43) 
42

>  <original_smiles>  (43) 
[H]c1c([H])c([H])c2c(c1[H])C([H])([H])C([H])([H])C([H])([H])C2([H])N([H])C(=O)C1([H])N(C(=O)C([H])(N([H])C(=O)C([H])(N([H])C([H])([H])[H])C([H])([H])[H])C(C([H])([H])[H])(C([H])([H])[H])C([H])([H])[H])C([H])([H])c2c([H])c(OC([H])([H])C3(C([H])([H])[H])C(=O)N(c4c([H])c([H])c(N(C(=O)N5C([H])([H])C([H])([H])C([H])([H])C([H])(n6nc(-c7c([H])c([H])c(Oc8c([H])c([H])c(F)c([H])c8F)c([H])c7[H])c(C(=O)N([H])[H])c6N([H])[H])C5([H])[H])C([H])([H])[H])c(C(=O)C([H])([H])[H])c4[H])C(=O)C3([H])[H])c([H])c([H])c2C1([H])[H]

>  <smiles>  (43) 
[H]c1c([H])c([H])c2c(c1[H])C([H])([H])C([H])([H])C([H])([H])C2([H])N([H])C(=O)C1([H])N(C(=O)C([H])(N([H])C(=O)C([H])(N([H])C([H])([H])[H])C([H])([H])[H])C(C([H])([H])[H])(C([H])([H])[H])C([H])([H])[H])C([H])([H])c2c([H])c(OC([H])([H])C3(C([H])([H])[H])C(=O)N(c4c([H])c([H])c(N(C(=O)N5C([H])([H])C([H])([H])C([H])([H])C([H])(n6nc(-c7c([H])c([H])c(Oc8c([H])c([H])c(F)c([H])c8F)c([H])c7[H])c(C(=O)N([H])[H])c6N([H])[H])C5([H])[H])C([H])([H])[H])c(C(=O)C([H])([H])[H])c4[H])C(=O)C3([H])[H])c([H])c([H])c2C1([H])[H]

$$$$
43:0:0
     RDKit          3D

 94102  0  0  1  0  0  0  0  0999 V2000
  -28.6410  -21.8750   20.1610 C   0  0  0  0  0  0  0  0  0  0  0  0
  -27.5540  -21.6600   19.6290 O   0  0  0  0  0  0  0  0  0  0  0  0
  -30.6050  -14.9440   20.4990 C   0  0  0  0  0  0  0  0  0  0  0  0
  -30.4190  -12.6110   19.5400 C   0  0  0  0  0  2  0  0  0  0  0  0
  -29.5140  -12.5410   18.2950 C   0  0  0  0  0  2  0  0  0  0  0  0
  -28.0460  -12.3260   18.7100 C   0  0  0  0  0  2  0  0  0  0  0  0
  -27.6090  -13.2730   19.8570 C   0  0  0  0  0  3  0  0  0  0  0  0
  -28.6480  -13.3520   20.9960 C   0  0  0  0  0  2  0  0  0  0  0  0
  -29.9210  -13.7380   20.3760 N   0  0  0  0  0  0  0  0  0  0  0  0
  -31.8310  -14.8950   20.3560 O   0  0  0  0  0  0  0  0  0  0  0  0
  -29.5890  -19.4790   20.4600 C   0  0  0  0  0  0  0  0  0  0  0  0
  -29.1690  -16.8330   19.6650 C   0  0  0  0  0  0  0  0  0  0  0  0
  -30.4600  -17.2300   21.6020 C   0  0  0  0  0  2  0  0  0  0  0  0
  -30.7750  -18.7010   21.0950 C   0  0  0  0  0  3  0  0  0  0  0  0
  -28.6730  -18.4000   19.7080 C   0  0  2  0  0  0  0  0  0  0  0  0
  -31.9900  -18.7160   20.1510 C   0  0  0  0  0  1  0  0  0  0  0  0
  -28.5540  -18.8600   18.2280 C   0  0  0  0  0  1  0  0  0  0  0  0
  -27.2660  -18.3880   20.3400 C   0  0  0  0  0  1  0  0  0  0  0  0
  -29.5700  -20.8300   20.5930 N   0  0  0  0  0  0  0  0  0  0  0  0
  -29.9890  -16.2300   20.6010 N   0  0  0  0  0  0  0  0  0  0  0  0
  -28.7750  -16.1740   18.6970 O   0  0  0  0  0  0  0  0  0  0  0  0
  -25.2210  -13.8670   20.5440 C   0  0  0  0  0  0  0  0  0  0  0  0
  -24.1460  -13.0970   20.8920 C   0  0  0  0  0  0  0  0  0  0  0  0
  -24.6120  -11.7460   20.8850 C   0  0  0  0  0  0  0  0  0  0  0  0
  -26.2670  -12.9840   20.3380 N   0  0  0  0  0  0  0  0  0  0  0  0
  -25.9110  -11.7040   20.6120 N   0  0  0  0  0  0  0  0  0  0  0  0
  -23.8810  -10.4870   21.0640 C   0  0  0  0  0  0  0  0  0  0  0  0
  -24.2940   -9.5220   22.0090 C   0  0  0  0  0  3  0  0  0  0  0  0
  -23.5630   -8.3270   22.1770 C   0  0  0  0  0  3  0  0  0  0  0  0
  -22.4060   -8.0890   21.3990 C   0  0  0  0  0  0  0  0  0  0  0  0
  -22.0130   -9.0410   20.4420 C   0  0  0  0  0  3  0  0  0  0  0  0
  -22.7440  -10.2280   20.2720 C   0  0  0  0  0  3  0  0  0  0  0  0
  -21.6480   -6.9450   21.4760 O   0  0  0  0  0  0  0  0  0  0  0  0
  -21.5750   -6.2070   22.6290 C   0  0  0  0  0  0  0  0  0  0  0  0
  -21.1120   -6.7620   23.8420 C   0  0  0  0  0  3  0  0  0  0  0  0
  -20.9870   -5.9490   24.9860 C   0  0  0  0  0  3  0  0  0  0  0  0
  -21.3180   -4.5820   24.9190 C   0  0  0  0  0  0  0  0  0  0  0  0
  -21.7760   -4.0270   23.7100 C   0  0  0  0  0  3  0  0  0  0  0  0
  -21.9010   -4.8370   22.5690 C   0  0  0  0  0  0  0  0  0  0  0  0
  -22.3220   -4.2920   21.4020 F   0  0  0  0  0  0  0  0  0  0  0  0
  -21.1920   -3.7990   26.0160 F   0  0  0  0  0  0  0  0  0  0  0  0
  -22.7430  -13.5790   21.1150 C   0  0  0  0  0  0  0  0  0  0  0  0
  -21.9890  -12.8930   21.9670 N   0  0  0  0  0  0  0  0  0  0  0  0
  -22.3230  -14.5980   20.5690 O   0  0  0  0  0  0  0  0  0  0  0  0
  -22.3430  -12.0670   22.4290 H   0  0  0  0  0  0  0  0  0  0  0  0
  -21.0460  -13.1970   22.1610 H   0  0  0  0  0  0  0  0  0  0  0  0
  -25.3920  -15.2350   20.3530 N   0  0  0  0  0  0  0  0  0  0  0  0
  -24.6180  -15.8870   20.4160 H   0  0  0  0  0  0  0  0  0  0  0  0
  -26.2330  -15.6450   19.9710 H   0  0  0  0  0  0  0  0  0  0  0  0
  -29.0310  -23.4610   20.4000 C   0  0  2  0  0  0  0  0  0  0  0  0
  -30.1280  -23.6900   19.6770 F   0  0  0  0  0  0  0  0  0  0  0  0
  -29.3680  -23.5810   21.6850 F   0  0  0  0  0  0  0  0  0  0  0  0
  -27.9980  -24.7320   20.0670 C   0  0  0  0  0  2  0  0  0  0  0  0
  -28.2660  -26.2450   20.2650 O   0  0  0  0  0  0  0  0  0  0  0  0
  -24.6150  -31.8690   23.2580 C   0  0  0  0  0  0  0  0  0  0  0  0
  -27.2010  -27.2040   20.1990 C   0  0  0  0  0  0  0  0  0  0  0  0
  -23.4160  -30.4840   21.6070 C   0  0  0  0  0  3  0  0  0  0  0  0
  -24.8660  -28.9240   20.1750 C   0  0  0  0  0  0  0  0  0  0  0  0
  -25.9680  -30.7610   21.4460 C   0  0  0  0  0  2  0  0  0  0  0  0
  -26.0430  -29.3750   20.7870 C   0  0  0  0  0  0  0  0  0  0  0  0
  -27.2120  -28.5300   20.7820 C   0  0  0  0  0  3  0  0  0  0  0  0
  -25.9970  -26.8480   19.5510 C   0  0  0  0  0  3  0  0  0  0  0  0
  -24.8550  -27.6730   19.5420 C   0  0  0  0  0  3  0  0  0  0  0  0
  -23.6380  -29.8170   20.2250 C   0  0  0  0  0  2  0  0  0  0  0  0
  -24.6860  -31.0580   22.1590 N   0  0  0  0  0  0  0  0  0  0  0  0
  -23.5280  -32.1490   23.7870 O   0  0  0  0  0  0  0  0  0  0  0  0
  -22.7390  -29.4690   22.5610 C   0  0  0  0  0  0  0  0  0  0  0  0
  -21.4120  -29.2980   22.4310 N   0  0  0  0  0  0  0  0  0  0  0  0
  -23.4100  -28.8370   23.3820 O   0  0  0  0  0  0  0  0  0  0  0  0
  -20.9270  -29.8600   21.7450 H   0  0  0  0  0  0  0  0  0  0  0  0
  -18.0270  -28.1120   22.9310 C   0  0  0  0  0  0  0  0  0  0  0  0
  -20.5880  -28.3590   23.1960 C   0  0  0  0  0  3  0  0  0  0  0  0
  -20.6810  -26.9310   22.6090 C   0  0  0  0  0  2  0  0  0  0  0  0
  -19.5750  -26.6220   21.5940 C   0  0  0  0  0  2  0  0  0  0  0  0
  -18.1960  -26.7680   22.2420 C   0  0  0  0  0  2  0  0  0  0  0  0
  -19.1490  -28.8660   23.3640 C   0  0  0  0  0  0  0  0  0  0  0  0
  -18.9360  -30.1230   23.9700 C   0  0  0  0  0  3  0  0  0  0  0  0
  -17.6340  -30.6260   24.1450 C   0  0  0  0  0  3  0  0  0  0  0  0
  -16.5260  -29.8700   23.7260 C   0  0  0  0  0  3  0  0  0  0  0  0
  -16.7230  -28.6150   23.1240 C   0  0  0  0  0  3  0  0  0  0  0  0
  -25.8930  -32.4990   23.8900 C   0  0  0  0  0  3  0  0  0  0  0  0
  -25.5820  -33.8980   24.2230 N   0  0  0  0  0  0  0  0  0  0  0  0
  -25.9080  -34.9550   23.4640 C   0  0  0  0  0  0  0  0  0  0  0  0
  -26.5690  -34.8540   22.4280 O   0  0  0  0  0  0  0  0  0  0  0  0
  -24.9960  -34.0510   25.0300 H   0  0  0  0  0  0  0  0  0  0  0  0
  -24.1760  -36.7500   23.1340 C   0  0  0  0  0  1  0  0  0  0  0  0
  -25.4260  -36.3430   23.9300 C   0  0  0  0  0  3  0  0  0  0  0  0
  -27.5670  -37.2320   24.7390 C   0  0  0  0  0  1  0  0  0  0  0  0
  -26.4570  -37.3980   23.8050 N   0  0  0  0  0  0  0  0  0  0  0  0
  -26.0520  -38.3170   23.9540 H   0  0  0  0  0  0  0  0  0  0  0  0
  -26.3950  -31.7270   25.1730 C   0  0  1  0  0  0  0  0  0  0  0  0
  -25.2940  -31.4950   26.2330 C   0  0  0  0  0  1  0  0  0  0  0  0
  -26.9760  -30.3470   24.7900 C   0  0  0  0  0  1  0  0  0  0  0  0
  -27.5420  -32.5200   25.8440 C   0  0  0  0  0  1  0  0  0  0  0  0
  1 50  1  0
  1 19  1  0
  2  1  2  0
  3 20  1  0
  4  9  1  0
  5  6  1  0
  5  4  1  0
  7  6  1  0
  7 25  1  0
  7  8  1  0
  9  3  1  0
  9  8  1  0
 10  3  2  0
 11 19  2  0
 11 14  1  0
 12 15  1  0
 12 20  1  0
 14 16  1  0
 14 13  1  0
 15 18  1  1
 15 11  1  0
 17 15  1  0
 20 13  1  0
 21 12  2  0
 22 23  2  0
 23 42  1  0
 24 23  1  0
 24 27  1  0
 25 22  1  0
 25 26  1  0
 26 24  2  0
 27 28  1  0
 28 29  2  0
 30 33  1  0
 30 29  1  0
 31 30  2  0
 32 31  1  0
 32 27  2  0
 33 34  1  0
 34 35  1  0
 35 36  2  0
 37 36  1  0
 37 41  1  0
 38 37  2  0
 39 34  2  0
 39 38  1  0
 40 39  1  0
 42 43  1  0
 43 46  1  0
 43 45  1  0
 44 42  2  0
 47 48  1  0
 47 22  1  0
 49 47  1  0
 50 52  1  1
 51 50  1  0
 53 54  1  0
 53 50  1  0
 55 66  2  0
 56 54  1  0
 56 61  1  0
 57 65  1  0
 57 67  1  0
 58 64  1  0
 58 60  1  0
 59 65  1  0
 60 59  1  0
 61 60  2  0
 62 56  2  0
 63 62  1  0
 63 58  2  0
 64 57  1  0
 65 55  1  0
 67 69  2  0
 68 67  1  0
 70 68  1  0
 71 80  2  0
 71 76  1  0
 72 68  1  0
 72 76  1  0
 73 72  1  0
 74 75  1  0
 74 73  1  0
 75 71  1  0
 76 77  2  0
 77 78  1  0
 79 78  2  0
 80 79  1  0
 81 55  1  0
 81 82  1  0
 81 91  1  0
 82 85  1  0
 83 87  1  0
 83 82  1  0
 84 83  2  0
 87 86  1  0
 89 87  1  0
 89 90  1  0
 89 88  1  0
 91 94  1  1
 91 92  1  0
 93 91  1  0
M  ISO  4   3 100  20 100  53 101  54 101
M  END
>  <TORSDO>  (44) 
F 18

>  <SCORE>  (44) 
-14.945

>  <name>  (44) 
43

>  <ligand_id>  (44) 
43

>  <original_smiles>  (44) 
[H]c1c([H])c([H])c2c(c1[H])C([H])([H])C([H])([H])C([H])([H])C2([H])N([H])C(=O)C1([H])N(C(=O)C([H])(N([H])C(=O)C([H])(N([H])C([H])([H])[H])C([H])([H])[H])C(C([H])([H])[H])(C([H])([H])[H])C([H])([H])[H])C([H])([H])c2c([H])c(OC([H])([H])C(F)(F)C(=O)N=C3C([H])(C([H])([H])[H])C([H])([H])N(C(=O)N4C([H])([H])C([H])([H])C([H])([H])C([H])(n5nc(-c6c([H])c([H])c(Oc7c([H])c([H])c(F)c([H])c7F)c([H])c6[H])c(C(=O)N([H])[H])c5N([H])[H])C4([H])[H])C(=O)C3(C([H])([H])[H])C([H])([H])[H])c([H])c([H])c2C1([H])[H]

>  <smiles>  (44) 
[H]c1c([H])c([H])c2c(c1[H])C([H])([H])C([H])([H])C([H])([H])C2([H])N([H])C(=O)C1([H])N(C(=O)C([H])(N([H])C(=O)C([H])(N([H])C([H])([H])[H])C([H])([H])[H])C(C([H])([H])[H])(C([H])([H])[H])C([H])([H])[H])C([H])([H])c2c([H])c(OC([H])([H])C(F)(F)C(=O)N=C3C([H])(C([H])([H])[H])C([H])([H])N(C(=O)N4C([H])([H])C([H])([H])C([H])([H])C([H])(n5nc(-c6c([H])c([H])c(Oc7c([H])c([H])c(F)c([H])c7F)c([H])c6[H])c(C(=O)N([H])[H])c5N([H])[H])C4([H])[H])C(=O)C3(C([H])([H])[H])C([H])([H])[H])c([H])c([H])c2C1([H])[H]

$$$$
44:0:0
     RDKit          3D

 96104  0  0  1  0  0  0  0  0999 V2000
  -29.5080  -21.5640   21.0680 C   0  0  0  0  0  0  0  0  0  0  0  0
  -29.5490  -21.8810   22.3640 N   0  0  0  0  0  4  0  0  0  0  0  0
  -29.3300  -22.6100   20.1950 N   0  0  0  0  0  0  0  0  0  0  0  0
  -29.6770  -21.1460   23.0420 H   0  0  0  0  0  0  0  0  0  0  0  0
  -29.4050  -22.8200   22.6920 H   0  0  0  0  0  0  0  0  0  0  0  0
  -29.3470  -22.3430   19.2200 H   0  0  0  0  0  0  0  0  0  0  0  0
  -28.7080  -19.1750   21.3200 C   0  0  0  0  0  3  0  0  0  0  0  0
  -30.7300  -19.4860   20.0570 C   0  0  0  0  0  3  0  0  0  0  0  0
  -28.8530  -17.7650   21.2030 C   0  0  0  0  0  3  0  0  0  0  0  0
  -30.8860  -18.0590   19.9540 C   0  0  0  0  0  3  0  0  0  0  0  0
  -29.6370  -20.0830   20.7550 C   0  0  0  0  0  0  0  0  0  0  0  0
  -29.9460  -17.1580   20.5360 C   0  0  0  0  0  0  0  0  0  0  0  0
  -30.7330  -14.7350   19.8890 C   0  0  0  0  0  0  0  0  0  0  0  0
  -30.4610  -12.5420   18.7310 C   0  0  0  0  0  2  0  0  0  0  0  0
  -29.4170  -12.7200   17.6050 C   0  0  0  0  0  2  0  0  0  0  0  0
  -27.9770  -12.5600   18.1390 C   0  0  0  0  0  2  0  0  0  0  0  0
  -27.7300  -13.3610   19.4430 C   0  0  0  0  0  3  0  0  0  0  0  0
  -28.8700  -13.1240   20.4580 C   0  0  0  0  0  2  0  0  0  0  0  0
  -30.1340  -13.5030   19.8030 N   0  0  0  0  0  0  0  0  0  0  0  0
  -31.8340  -14.9570   19.3710 O   0  0  0  0  0  0  0  0  0  0  0  0
  -29.9600  -15.6950   20.4830 N   0  0  0  0  0  0  0  0  0  0  0  0
  -29.1570  -15.2760   20.9230 H   0  0  0  0  0  0  0  0  0  0  0  0
  -25.4080  -13.9550   20.3710 C   0  0  0  0  0  0  0  0  0  0  0  0
  -24.3650  -13.1780   20.7950 C   0  0  0  0  0  0  0  0  0  0  0  0
  -24.8080  -11.8250   20.6760 C   0  0  0  0  0  0  0  0  0  0  0  0
  -26.4190  -13.0740   20.0190 N   0  0  0  0  0  0  0  0  0  0  0  0
  -26.0680  -11.7860   20.2590 N   0  0  0  0  0  0  0  0  0  0  0  0
  -24.0850  -10.5620   20.8780 C   0  0  0  0  0  0  0  0  0  0  0  0
  -24.5170   -9.6070   21.8230 C   0  0  0  0  0  3  0  0  0  0  0  0
  -23.7960   -8.4090   22.0130 C   0  0  0  0  0  3  0  0  0  0  0  0
  -22.6260   -8.1570   21.2560 C   0  0  0  0  0  0  0  0  0  0  0  0
  -22.2120   -9.1010   20.3000 C   0  0  0  0  0  3  0  0  0  0  0  0
  -22.9350  -10.2920   20.1100 C   0  0  0  0  0  3  0  0  0  0  0  0
  -21.8770   -7.0100   21.3550 O   0  0  0  0  0  0  0  0  0  0  0  0
  -21.7330   -6.3440   22.5460 C   0  0  0  0  0  0  0  0  0  0  0  0
  -21.1640   -6.9620   23.6810 C   0  0  0  0  0  3  0  0  0  0  0  0
  -20.9700   -6.2220   24.8630 C   0  0  0  0  0  3  0  0  0  0  0  0
  -21.3340   -4.8620   24.9100 C   0  0  0  0  0  0  0  0  0  0  0  0
  -21.8930   -4.2420   23.7780 C   0  0  0  0  0  3  0  0  0  0  0  0
  -22.0900   -4.9820   22.5990 C   0  0  0  0  0  0  0  0  0  0  0  0
  -22.6110   -4.3750   21.5060 F   0  0  0  0  0  0  0  0  0  0  0  0
  -21.1370   -4.1470   26.0420 F   0  0  0  0  0  0  0  0  0  0  0  0
  -23.0000  -13.6570   21.1930 C   0  0  0  0  0  0  0  0  0  0  0  0
  -22.3390  -12.9430   22.0980 N   0  0  0  0  0  0  0  0  0  0  0  0
  -22.5290  -14.7000   20.7370 O   0  0  0  0  0  0  0  0  0  0  0  0
  -22.7300  -12.0970   22.4860 H   0  0  0  0  0  0  0  0  0  0  0  0
  -21.4260  -13.2450   22.4060 H   0  0  0  0  0  0  0  0  0  0  0  0
  -25.5720  -15.3300   20.2310 N   0  0  0  0  0  0  0  0  0  0  0  0
  -24.8090  -15.9740   20.4080 H   0  0  0  0  0  0  0  0  0  0  0  0
  -26.3660  -15.7700   19.7850 H   0  0  0  0  0  0  0  0  0  0  0  0
  -29.4690  -24.1110   20.4770 C   0  0  0  0  0  3  0  0  0  0  0  0
  -30.8820  -24.5320   20.0360 C   0  0  0  0  0  0  0  0  0  0  0  0
  -31.4670  -25.8040   20.6330 C   0  0  0  0  0  1  0  0  0  0  0  0
  -31.5510  -23.8800   19.2290 O   0  0  0  0  0  0  0  0  0  0  0  0
  -28.3890  -25.0980   19.8340 C   0  0  0  0  0  2  0  0  0  0  0  0
  -28.4900  -26.5520   20.1300 O   0  0  0  0  0  0  0  0  0  0  0  0
  -24.5630  -31.7340   23.2190 C   0  0  0  0  0  0  0  0  0  0  0  0
  -27.3430  -27.3590   20.0630 C   0  0  0  0  0  0  0  0  0  0  0  0
  -23.4160  -30.3480   21.5320 C   0  0  0  0  0  3  0  0  0  0  0  0
  -24.9270  -28.8910   20.0690 C   0  0  0  0  0  0  0  0  0  0  0  0
  -25.9430  -30.7610   21.3690 C   0  0  0  0  0  2  0  0  0  0  0  0
  -26.0730  -29.4030   20.6880 C   0  0  0  0  0  0  0  0  0  0  0  0
  -27.2840  -28.6500   20.6730 C   0  0  0  0  0  3  0  0  0  0  0  0
  -26.1760  -26.9020   19.4100 C   0  0  0  0  0  3  0  0  0  0  0  0
  -24.9820  -27.6490   19.4170 C   0  0  0  0  0  3  0  0  0  0  0  0
  -23.6590  -29.7210   20.1330 C   0  0  0  0  0  2  0  0  0  0  0  0
  -24.6590  -30.9640   22.0980 N   0  0  0  0  0  0  0  0  0  0  0  0
  -23.4680  -31.9580   23.7550 O   0  0  0  0  0  0  0  0  0  0  0  0
  -22.7830  -29.2800   22.4560 C   0  0  0  0  0  0  0  0  0  0  0  0
  -21.4710  -29.0390   22.2910 N   0  0  0  0  0  0  0  0  0  0  0  0
  -23.4710  -28.6700   23.2790 O   0  0  0  0  0  0  0  0  0  0  0  0
  -20.9710  -29.5810   21.6000 H   0  0  0  0  0  0  0  0  0  0  0  0
  -18.1440  -27.6760   22.6830 C   0  0  0  0  0  0  0  0  0  0  0  0
  -20.6800  -28.0520   23.0260 C   0  0  0  0  0  3  0  0  0  0  0  0
  -20.8640  -26.6370   22.4280 C   0  0  0  0  0  2  0  0  0  0  0  0
  -19.8030  -26.2840   21.3790 C   0  0  0  0  0  2  0  0  0  0  0  0
  -18.4010  -26.3500   21.9880 C   0  0  0  0  0  2  0  0  0  0  0  0
  -19.2140  -28.4830   23.1560 C   0  0  0  0  0  0  0  0  0  0  0  0
  -18.9170  -29.7240   23.7600 C   0  0  0  0  0  3  0  0  0  0  0  0
  -17.5830  -30.1570   23.9000 C   0  0  0  0  0  3  0  0  0  0  0  0
  -16.5290  -29.3470   23.4420 C   0  0  0  0  0  3  0  0  0  0  0  0
  -16.8120  -28.1090   22.8390 C   0  0  0  0  0  3  0  0  0  0  0  0
  -25.8190  -32.3890   23.8720 C   0  0  0  0  0  3  0  0  0  0  0  0
  -26.3050  -31.6390   25.1730 C   0  0  1  0  0  0  0  0  0  0  0  0
  -25.1810  -31.3930   26.2070 C   0  0  0  0  0  1  0  0  0  0  0  0
  -26.9210  -30.2690   24.8100 C   0  0  0  0  0  1  0  0  0  0  0  0
  -27.4230  -32.4560   25.8610 C   0  0  0  0  0  1  0  0  0  0  0  0
  -25.4860  -33.7870   24.1740 N   0  0  0  0  0  0  0  0  0  0  0  0
  -25.8030  -34.8310   23.3970 C   0  0  0  0  0  0  0  0  0  0  0  0
  -26.4790  -34.7180   22.3700 O   0  0  0  0  0  0  0  0  0  0  0  0
  -24.8880  -33.9480   24.9730 H   0  0  0  0  0  0  0  0  0  0  0  0
  -24.0300  -36.5740   23.0180 C   0  0  0  0  0  1  0  0  0  0  0  0
  -25.2890  -36.2200   23.8250 C   0  0  0  0  0  3  0  0  0  0  0  0
  -27.4100  -37.1750   24.6110 C   0  0  0  0  0  1  0  0  0  0  0  0
  -26.2960  -37.2940   23.6750 N   0  0  0  0  0  0  0  0  0  0  0  0
  -25.8690  -38.2080   23.8050 H   0  0  0  0  0  0  0  0  0  0  0  0
  1  2  2  0
  2  5  1  0
  2  4  1  0
  3 51  1  0
  3  1  1  0
  6  3  1  0
  8 11  1  0
  9  7  1  0
 10  8  2  0
 10 12  1  0
 11  1  1  0
 11  7  2  0
 12  9  2  0
 13 21  1  0
 14 19  1  0
 15 16  1  0
 15 14  1  0
 17 16  1  0
 17 26  1  0
 17 18  1  0
 19 13  1  0
 19 18  1  0
 20 13  2  0
 21 12  1  0
 21 22  1  0
 23 24  2  0
 24 43  1  0
 25 24  1  0
 25 28  1  0
 26 27  1  0
 26 23  1  0
 27 25  2  0
 28 29  1  0
 29 30  2  0
 31 34  1  0
 31 30  1  0
 32 31  2  0
 33 32  1  0
 33 28  2  0
 34 35  1  0
 35 40  2  0
 35 36  1  0
 36 37  2  0
 37 38  1  0
 38 42  1  0
 39 38  2  0
 40 39  1  0
 41 40  1  0
 43 44  1  0
 44 47  1  0
 44 46  1  0
 45 43  2  0
 48 23  1  0
 48 49  1  0
 50 48  1  0
 51 55  1  0
 52 51  1  0
 52 53  1  0
 54 52  2  0
 55 56  1  0
 57 68  2  0
 58 56  1  0
 58 63  1  0
 59 67  1  0
 59 69  1  0
 60 66  1  0
 60 62  1  0
 61 67  1  0
 62 61  1  0
 63 62  2  0
 64 65  1  0
 64 58  2  0
 65 60  2  0
 66 59  1  0
 67 57  1  0
 69 71  2  0
 70 69  1  0
 72 70  1  0
 73 82  2  0
 73 78  1  0
 74 70  1  0
 74 78  1  0
 75 74  1  0
 76 77  1  0
 76 75  1  0
 77 73  1  0
 78 79  2  0
 79 80  1  0
 81 80  2  0
 82 81  1  0
 83 57  1  0
 83 88  1  0
 83 84  1  0
 84 87  1  1
 84 85  1  0
 86 84  1  0
 88 91  1  0
 89 93  1  0
 89 88  1  0
 90 89  2  0
 93 92  1  0
 95 96  1  0
 95 93  1  0
 95 94  1  0
M  ISO  4  13 100  21 100  55 101  56 101
M  END
>  <TORSDO>  (45) 
F 20

>  <SCORE>  (45) 
-12.441

>  <name>  (45) 
44

>  <ligand_id>  (45) 
44

>  <original_smiles>  (45) 
[H]c1c([H])c([H])c2c(c1[H])C([H])([H])C([H])([H])C([H])([H])C2([H])N([H])C(=O)C1([H])N(C(=O)C([H])(N([H])C(=O)C([H])(N([H])C([H])([H])[H])C([H])([H])[H])C(C([H])([H])[H])(C([H])([H])[H])C([H])([H])[H])C([H])([H])c2c([H])c(OC([H])([H])C([H])(C(=O)C([H])([H])[H])[N+]([H])=C(c3c([H])c([H])c(N([H])C(=O)N4C([H])([H])C([H])([H])C([H])([H])C([H])(n5nc(-c6c([H])c([H])c(Oc7c([H])c([H])c(F)c([H])c7F)c([H])c6[H])c(C(=O)N([H])[H])c5N([H])[H])C4([H])[H])c([H])c3[H])N([H])[H])c([H])c([H])c2C1([H])[H]

>  <smiles>  (45) 
[H]c1c([H])c([H])c2c(c1[H])C([H])([H])C([H])([H])C([H])([H])C2([H])N([H])C(=O)C1([H])N(C(=O)C([H])(N([H])C(=O)C([H])(N([H])C([H])([H])[H])C([H])([H])[H])C(C([H])([H])[H])(C([H])([H])[H])C([H])([H])[H])C([H])([H])c2c([H])c(OC([H])([H])C([H])(C(=O)C([H])([H])[H])[N+]([H])=C(c3c([H])c([H])c(N([H])C(=O)N4C([H])([H])C([H])([H])C([H])([H])C([H])(n5nc(-c6c([H])c([H])c(Oc7c([H])c([H])c(F)c([H])c7F)c([H])c6[H])c(C(=O)N([H])[H])c5N([H])[H])C4([H])[H])c([H])c3[H])N([H])[H])c([H])c([H])c2C1([H])[H]

$$$$
45:0:0
     RDKit          3D

 93102  0  0  1  0  0  0  0  0999 V2000
  -28.0450  -22.5600   19.5330 C   0  0  0  0  0  0  0  0  0  0  0  0
  -29.9230  -22.8060   20.3230 C   0  0  0  0  0  2  0  0  0  0  0  0
  -28.6920  -23.8110   20.2860 C   0  0  2  0  0  0  0  0  0  0  0  0
  -28.0390  -24.0830   21.6450 C   0  0  0  0  0  1  0  0  0  0  0  0
  -28.9620  -21.6970   20.1340 N   0  0  0  0  0  0  0  0  0  0  0  0
  -27.1820  -22.3620   18.7000 O   0  0  0  0  0  0  0  0  0  0  0  0
  -29.1470  -19.2770   19.1050 C   0  0  0  0  0  3  0  0  0  0  0  0
  -29.4410  -17.8620   19.2120 C   0  0  0  0  0  3  0  0  0  0  0  0
  -30.0180  -18.2130   21.4770 C   0  0  0  0  0  3  0  0  0  0  0  0
  -29.3010  -20.2440   20.1560 C   0  0  0  0  0  0  0  0  0  0  0  0
  -29.9180  -17.2540   20.4150 C   0  0  0  0  0  0  0  0  0  0  0  0
  -29.7430  -19.6120   21.3520 C   0  0  0  0  0  0  0  0  0  0  0  0
  -29.8720  -20.3790   22.4640 F   0  0  0  0  0  0  0  0  0  0  0  0
  -30.6710  -14.8080   19.7480 C   0  0  0  0  0  0  0  0  0  0  0  0
  -30.3230  -12.5650   18.6690 C   0  0  0  0  0  2  0  0  0  0  0  0
  -29.2680  -12.6570   17.5500 C   0  0  0  0  0  2  0  0  0  0  0  0
  -27.8580  -12.4620   18.1370 C   0  0  0  0  0  2  0  0  0  0  0  0
  -27.6140  -13.3370   19.3940 C   0  0  0  0  0  3  0  0  0  0  0  0
  -28.7790  -13.2200   20.3990 C   0  0  0  0  0  2  0  0  0  0  0  0
  -30.0140  -13.5910   19.6960 N   0  0  0  0  0  0  0  0  0  0  0  0
  -31.6960  -14.9680   19.0770 O   0  0  0  0  0  0  0  0  0  0  0  0
  -30.8130  -15.5020   21.9790 C   0  0  0  0  0  1  0  0  0  0  0  0
  -30.2590  -15.7960   20.6440 N   0  0  0  0  0  0  0  0  0  0  0  0
  -25.3480  -13.9180   20.4450 C   0  0  0  0  0  0  0  0  0  0  0  0
  -24.3110  -13.1440   20.8830 C   0  0  0  0  0  0  0  0  0  0  0  0
  -24.7260  -11.7890   20.6990 C   0  0  0  0  0  0  0  0  0  0  0  0
  -26.3280  -13.0390   20.0160 N   0  0  0  0  0  0  0  0  0  0  0  0
  -25.9680  -11.7470   20.2320 N   0  0  0  0  0  0  0  0  0  0  0  0
  -23.9920  -10.5310   20.8850 C   0  0  0  0  0  0  0  0  0  0  0  0
  -24.4650   -9.5170   21.7480 C   0  0  0  0  0  3  0  0  0  0  0  0
  -23.7290   -8.3270   21.9240 C   0  0  0  0  0  3  0  0  0  0  0  0
  -22.5040   -8.1380   21.2370 C   0  0  0  0  0  0  0  0  0  0  0  0
  -22.0500   -9.1420   20.3610 C   0  0  0  0  0  3  0  0  0  0  0  0
  -22.7880  -10.3250   20.1830 C   0  0  0  0  0  3  0  0  0  0  0  0
  -21.7350   -7.0040   21.3280 O   0  0  0  0  0  0  0  0  0  0  0  0
  -21.6890   -6.2550   22.4770 C   0  0  0  0  0  0  0  0  0  0  0  0
  -21.2860   -6.8100   23.7130 C   0  0  0  0  0  3  0  0  0  0  0  0
  -21.1860   -5.9880   24.8530 C   0  0  0  0  0  3  0  0  0  0  0  0
  -21.4790   -4.6150   24.7610 C   0  0  0  0  0  0  0  0  0  0  0  0
  -21.8700   -4.0600   23.5300 C   0  0  0  0  0  3  0  0  0  0  0  0
  -21.9710   -4.8780   22.3910 C   0  0  0  0  0  0  0  0  0  0  0  0
  -22.3320   -4.3340   21.2040 F   0  0  0  0  0  0  0  0  0  0  0  0
  -21.3740   -3.8230   25.8550 F   0  0  0  0  0  0  0  0  0  0  0  0
  -22.9710  -13.6280   21.3590 C   0  0  0  0  0  0  0  0  0  0  0  0
  -22.3430  -12.8960   22.2730 N   0  0  0  0  0  0  0  0  0  0  0  0
  -22.4950  -14.6890   20.9550 O   0  0  0  0  0  0  0  0  0  0  0  0
  -22.7430  -12.0340   22.6140 H   0  0  0  0  0  0  0  0  0  0  0  0
  -21.4490  -13.1960   22.6370 H   0  0  0  0  0  0  0  0  0  0  0  0
  -25.5380  -15.2950   20.3550 N   0  0  0  0  0  0  0  0  0  0  0  0
  -24.8310  -15.9660   20.6330 H   0  0  0  0  0  0  0  0  0  0  0  0
  -26.3750  -15.7320   19.9910 H   0  0  0  0  0  0  0  0  0  0  0  0
  -28.6070  -25.1780   19.4250 C   0  0  0  0  0  2  0  0  0  0  0  0
  -28.4540  -26.5370   20.0370 O   0  0  0  0  0  0  0  0  0  0  0  0
  -24.5520  -31.7980   23.0830 C   0  0  0  0  0  0  0  0  0  0  0  0
  -27.2830  -27.3240   19.9730 C   0  0  0  0  0  0  0  0  0  0  0  0
  -23.3830  -30.3790   21.4380 C   0  0  0  0  0  3  0  0  0  0  0  0
  -24.8660  -28.8760   19.9860 C   0  0  0  0  0  0  0  0  0  0  0  0
  -25.9110  -30.7670   21.2380 C   0  0  0  0  0  2  0  0  0  0  0  0
  -26.0230  -29.3950   20.5790 C   0  0  0  0  0  0  0  0  0  0  0  0
  -27.2320  -28.6320   20.5540 C   0  0  0  0  0  3  0  0  0  0  0  0
  -26.0930  -26.8560   19.3710 C   0  0  0  0  0  3  0  0  0  0  0  0
  -24.9060  -27.6150   19.3670 C   0  0  0  0  0  3  0  0  0  0  0  0
  -23.6010  -29.7070   20.0550 C   0  0  0  0  0  2  0  0  0  0  0  0
  -24.6370  -31.0000   21.9770 N   0  0  0  0  0  0  0  0  0  0  0  0
  -23.4610  -32.0440   23.6210 O   0  0  0  0  0  0  0  0  0  0  0  0
  -22.7470  -29.3440   22.3940 C   0  0  0  0  0  0  0  0  0  0  0  0
  -21.4250  -29.1370   22.2630 N   0  0  0  0  0  0  0  0  0  0  0  0
  -23.4400  -28.7250   23.2050 O   0  0  0  0  0  0  0  0  0  0  0  0
  -20.9310  -29.6710   21.5630 H   0  0  0  0  0  0  0  0  0  0  0  0
  -18.0730  -27.8790   22.7780 C   0  0  0  0  0  0  0  0  0  0  0  0
  -20.6270  -28.1810   23.0310 C   0  0  0  0  0  3  0  0  0  0  0  0
  -20.7550  -26.7570   22.4420 C   0  0  0  0  0  2  0  0  0  0  0  0
  -19.6510  -26.4200   21.4340 C   0  0  0  0  0  2  0  0  0  0  0  0
  -18.2680  -26.5390   22.0860 C   0  0  0  0  0  2  0  0  0  0  0  0
  -19.1810  -28.6560   23.2070 C   0  0  0  0  0  0  0  0  0  0  0  0
  -18.9440  -29.9070   23.8180 C   0  0  0  0  0  3  0  0  0  0  0  0
  -17.6310  -30.3800   24.0010 C   0  0  0  0  0  3  0  0  0  0  0  0
  -16.5360  -29.6000   23.5890 C   0  0  0  0  0  3  0  0  0  0  0  0
  -16.7590  -28.3500   22.9820 C   0  0  0  0  0  3  0  0  0  0  0  0
  -25.8130  -32.4620   23.7120 C   0  0  0  0  0  3  0  0  0  0  0  0
  -25.4580  -33.8410   24.0730 N   0  0  0  0  0  0  0  0  0  0  0  0
  -25.7480  -34.9230   23.3360 C   0  0  0  0  0  0  0  0  0  0  0  0
  -26.4060  -34.8640   22.2950 O   0  0  0  0  0  0  0  0  0  0  0  0
  -24.8620  -33.9560   24.8790 H   0  0  0  0  0  0  0  0  0  0  0  0
  -23.9540  -36.6630   23.0480 C   0  0  0  0  0  1  0  0  0  0  0  0
  -25.2220  -36.2860   23.8310 C   0  0  0  0  0  3  0  0  0  0  0  0
  -27.3390  -37.2210   24.6470 C   0  0  0  0  0  1  0  0  0  0  0  0
  -26.2190  -37.3750   23.7230 N   0  0  0  0  0  0  0  0  0  0  0  0
  -25.7880  -38.2800   23.8930 H   0  0  0  0  0  0  0  0  0  0  0  0
  -26.3590  -31.6820   24.9700 C   0  0  1  0  0  0  0  0  0  0  0  0
  -25.2810  -31.3830   26.0390 C   0  0  0  0  0  1  0  0  0  0  0  0
  -26.9820  -30.3340   24.5390 C   0  0  0  0  0  1  0  0  0  0  0  0
  -27.4880  -32.5000   25.6390 C   0  0  0  0  0  1  0  0  0  0  0  0
  1  5  1  0
  1  3  1  0
  3  2  1  0
  3  4  1  1
  5 10  1  0
  5  2  1  0
  6  1  2  0
  7  8  2  0
  7 10  1  0
  8 11  1  0
 10 12  2  0
 11 23  1  0
 11  9  2  0
 12  9  1  0
 12 13  1  0
 14 23  1  0
 15 20  1  0
 16 17  1  0
 16 15  1  0
 18 17  1  0
 18 27  1  0
 18 19  1  0
 20 14  1  0
 20 19  1  0
 21 14  2  0
 23 22  1  0
 24 25  2  0
 25 44  1  0
 26 25  1  0
 26 29  1  0
 27 28  1  0
 27 24  1  0
 28 26  2  0
 29 30  1  0
 30 31  2  0
 32 35  1  0
 32 31  1  0
 33 32  2  0
 34 33  1  0
 34 29  2  0
 35 36  1  0
 36 37  1  0
 37 38  2  0
 39 38  1  0
 39 43  1  0
 40 39  2  0
 41 36  2  0
 41 40  1  0
 42 41  1  0
 44 45  1  0
 45 47  1  0
 45 48  1  0
 46 44  2  0
 49 24  1  0
 49 50  1  0
 51 49  1  0
 52 53  1  0
 52  3  1  0
 54 65  2  0
 55 53  1  0
 55 60  1  0
 56 64  1  0
 56 66  1  0
 57 63  1  0
 57 59  1  0
 58 64  1  0
 59 58  1  0
 60 59  2  0
 61 55  2  0
 62 61  1  0
 62 57  2  0
 63 56  1  0
 64 54  1  0
 66 68  2  0
 67 66  1  0
 69 67  1  0
 70 79  2  0
 70 75  1  0
 71 67  1  0
 71 75  1  0
 72 71  1  0
 73 74  1  0
 73 72  1  0
 74 70  1  0
 75 76  2  0
 76 77  1  0
 78 77  2  0
 79 78  1  0
 80 54  1  0
 80 81  1  0
 80 90  1  0
 81 84  1  0
 82 86  1  0
 82 81  1  0
 83 82  2  0
 86 85  1  0
 88 86  1  0
 88 89  1  0
 88 87  1  0
 90 93  1  1
 90 91  1  0
 92 90  1  0
M  ISO  4  14 100  23 100  52 101  53 101
M  END
>  <TORSDO>  (46) 
F 18

>  <SCORE>  (46) 
-13.681

>  <name>  (46) 
45

>  <ligand_id>  (46) 
45

>  <original_smiles>  (46) 
[H]c1c([H])c([H])c2c(c1[H])C([H])([H])C([H])([H])C([H])([H])C2([H])N([H])C(=O)C1([H])N(C(=O)C([H])(N([H])C(=O)C([H])(N([H])C([H])([H])[H])C([H])([H])[H])C(C([H])([H])[H])(C([H])([H])[H])C([H])([H])[H])C([H])([H])c2c([H])c(OC([H])([H])C3(C([H])([H])[H])C(=O)N(c4c([H])c([H])c(N(C(=O)N5C([H])([H])C([H])([H])C([H])([H])C([H])(n6nc(-c7c([H])c([H])c(Oc8c([H])c([H])c(F)c([H])c8F)c([H])c7[H])c(C(=O)N([H])[H])c6N([H])[H])C5([H])[H])C([H])([H])[H])c([H])c4F)C3([H])[H])c([H])c([H])c2C1([H])[H]

>  <smiles>  (46) 
[H]c1c([H])c([H])c2c(c1[H])C([H])([H])C([H])([H])C([H])([H])C2([H])N([H])C(=O)C1([H])N(C(=O)C([H])(N([H])C(=O)C([H])(N([H])C([H])([H])[H])C([H])([H])[H])C(C([H])([H])[H])(C([H])([H])[H])C([H])([H])[H])C([H])([H])c2c([H])c(OC([H])([H])C3(C([H])([H])[H])C(=O)N(c4c([H])c([H])c(N(C(=O)N5C([H])([H])C([H])([H])C([H])([H])C([H])(n6nc(-c7c([H])c([H])c(Oc8c([H])c([H])c(F)c([H])c8F)c([H])c7[H])c(C(=O)N([H])[H])c6N([H])[H])C5([H])[H])C([H])([H])[H])c([H])c4F)C3([H])[H])c([H])c([H])c2C1([H])[H]

$$$$
46:0:0
     RDKit          3D

 93101  0  0  1  0  0  0  0  0999 V2000
  -29.0010  -22.6500   19.6650 C   0  0  0  0  0  0  0  0  0  0  0  0
  -29.3690  -21.6340   20.5200 N   0  0  0  0  0  0  0  0  0  0  0  0
  -28.7440  -22.4120   18.4830 O   0  0  0  0  0  0  0  0  0  0  0  0
  -29.4600  -21.9810   21.4650 H   0  0  0  0  0  0  0  0  0  0  0  0
  -29.8850  -19.4530   19.1890 C   0  0  0  0  0  3  0  0  0  0  0  0
  -30.1580  -18.0360   19.1840 C   0  0  0  0  0  3  0  0  0  0  0  0
  -29.5660  -19.3760   21.5600 C   0  0  0  0  0  3  0  0  0  0  0  0
  -29.5800  -20.1740   20.3840 C   0  0  0  0  0  0  0  0  0  0  0  0
  -30.1190  -17.2480   20.3730 C   0  0  0  0  0  0  0  0  0  0  0  0
  -29.8070  -17.9700   21.5550 C   0  0  0  0  0  0  0  0  0  0  0  0
  -29.7220  -17.2930   22.7280 F   0  0  0  0  0  0  0  0  0  0  0  0
  -30.9660  -14.8030   19.8430 C   0  0  0  0  0  0  0  0  0  0  0  0
  -30.7770  -12.5460   18.7880 C   0  0  0  0  0  2  0  0  0  0  0  0
  -29.7050  -12.6140   17.6740 C   0  0  0  0  0  2  0  0  0  0  0  0
  -28.2880  -12.3940   18.2430 C   0  0  0  0  0  2  0  0  0  0  0  0
  -28.0230  -13.2400   19.5170 C   0  0  0  0  0  3  0  0  0  0  0  0
  -29.1930  -13.1210   20.5190 C   0  0  0  0  0  2  0  0  0  0  0  0
  -30.4240  -13.5380   19.8260 N   0  0  0  0  0  0  0  0  0  0  0  0
  -32.0310  -15.0410   19.2620 O   0  0  0  0  0  0  0  0  0  0  0  0
  -30.2250  -15.7780   20.4710 N   0  0  0  0  0  0  0  0  0  0  0  0
  -29.5530  -15.3890   21.1170 H   0  0  0  0  0  0  0  0  0  0  0  0
  -25.7560  -13.7670   20.6040 C   0  0  0  0  0  0  0  0  0  0  0  0
  -24.7280  -12.9630   21.0170 C   0  0  0  0  0  0  0  0  0  0  0  0
  -25.1510  -11.6220   20.7710 C   0  0  0  0  0  0  0  0  0  0  0  0
  -26.7400  -12.9120   20.1330 N   0  0  0  0  0  0  0  0  0  0  0  0
  -26.3890  -11.6100   20.2900 N   0  0  0  0  0  0  0  0  0  0  0  0
  -24.4260  -10.3510   20.9080 C   0  0  0  0  0  0  0  0  0  0  0  0
  -24.8530   -9.3490   21.8070 C   0  0  0  0  0  3  0  0  0  0  0  0
  -24.1290   -8.1440   21.9320 C   0  0  0  0  0  3  0  0  0  0  0  0
  -22.9630   -7.9340   21.1590 C   0  0  0  0  0  0  0  0  0  0  0  0
  -22.5530   -8.9260   20.2510 C   0  0  0  0  0  3  0  0  0  0  0  0
  -23.2800  -10.1220   20.1240 C   0  0  0  0  0  3  0  0  0  0  0  0
  -22.2110   -6.7840   21.1970 O   0  0  0  0  0  0  0  0  0  0  0  0
  -21.9900   -6.1050   22.3680 C   0  0  0  0  0  0  0  0  0  0  0  0
  -21.3760   -6.7200   23.4820 C   0  0  0  0  0  3  0  0  0  0  0  0
  -21.1060   -5.9670   24.6420 C   0  0  0  0  0  3  0  0  0  0  0  0
  -21.4410   -4.6000   24.6890 C   0  0  0  0  0  0  0  0  0  0  0  0
  -22.0490   -3.9860   23.5800 C   0  0  0  0  0  3  0  0  0  0  0  0
  -22.3200   -4.7360   22.4230 C   0  0  0  0  0  0  0  0  0  0  0  0
  -22.8870   -4.1340   21.3500 F   0  0  0  0  0  0  0  0  0  0  0  0
  -21.1750   -3.8760   25.8000 F   0  0  0  0  0  0  0  0  0  0  0  0
  -23.3890  -13.4180   21.5250 C   0  0  0  0  0  0  0  0  0  0  0  0
  -22.7800  -12.6500   22.4220 N   0  0  0  0  0  0  0  0  0  0  0  0
  -22.8970  -14.4850   21.1640 O   0  0  0  0  0  0  0  0  0  0  0  0
  -23.1910  -11.7830   22.7350 H   0  0  0  0  0  0  0  0  0  0  0  0
  -21.8870  -12.9330   22.7990 H   0  0  0  0  0  0  0  0  0  0  0  0
  -25.9250  -15.1470   20.5720 N   0  0  0  0  0  0  0  0  0  0  0  0
  -25.1920  -15.7860   20.8590 H   0  0  0  0  0  0  0  0  0  0  0  0
  -26.7370  -15.6210   20.1940 H   0  0  0  0  0  0  0  0  0  0  0  0
  -28.4320  -25.1330   19.5900 C   0  0  0  0  0  3  0  0  0  0  0  0
  -28.9560  -24.0410   20.2630 C   0  0  0  0  0  0  0  0  0  0  0  0
  -29.5370  -24.2370   21.6590 C   0  0  0  0  0  1  0  0  0  0  0  0
  -28.4660  -26.4910   20.0110 O   0  0  0  0  0  0  0  0  0  0  0  0
  -24.8840  -31.8000   23.3730 C   0  0  0  0  0  0  0  0  0  0  0  0
  -27.3470  -27.3470   20.0160 C   0  0  0  0  0  0  0  0  0  0  0  0
  -23.6150  -30.5030   21.6990 C   0  0  0  0  0  3  0  0  0  0  0  0
  -25.0060  -28.9990   20.1540 C   0  0  0  0  0  0  0  0  0  0  0  0
  -26.1540  -30.7900   21.4590 C   0  0  0  0  0  2  0  0  0  0  0  0
  -26.1950  -29.4400   20.7450 C   0  0  0  0  0  0  0  0  0  0  0  0
  -27.3640  -28.6220   20.6720 C   0  0  0  0  0  3  0  0  0  0  0  0
  -26.1320  -26.9620   19.4100 C   0  0  0  0  0  3  0  0  0  0  0  0
  -24.9750  -27.7670   19.4810 C   0  0  0  0  0  3  0  0  0  0  0  0
  -23.7830  -29.8880   20.2810 C   0  0  0  0  0  2  0  0  0  0  0  0
  -24.9070  -31.0480   22.2340 N   0  0  0  0  0  0  0  0  0  0  0  0
  -23.8200  -32.0670   23.9510 O   0  0  0  0  0  0  0  0  0  0  0  0
  -22.9590  -29.4540   22.6290 C   0  0  0  0  0  0  0  0  0  0  0  0
  -21.6470  -29.2230   22.4530 N   0  0  0  0  0  0  0  0  0  0  0  0
  -23.6340  -28.8480   23.4640 O   0  0  0  0  0  0  0  0  0  0  0  0
  -21.1570  -29.7740   21.7620 H   0  0  0  0  0  0  0  0  0  0  0  0
  -18.3360  -27.7890   22.7290 C   0  0  0  0  0  0  0  0  0  0  0  0
  -20.8420  -28.2430   23.1840 C   0  0  0  0  0  3  0  0  0  0  0  0
  -21.0900  -26.8110   22.6560 C   0  0  0  0  0  2  0  0  0  0  0  0
  -20.0970  -26.3890   21.5680 C   0  0  0  0  0  2  0  0  0  0  0  0
  -18.6620  -26.4440   22.1010 C   0  0  0  0  0  2  0  0  0  0  0  0
  -19.3610  -28.6410   23.2230 C   0  0  0  0  0  0  0  0  0  0  0  0
  -19.0050  -29.8960   23.7630 C   0  0  0  0  0  3  0  0  0  0  0  0
  -17.6590  -30.3030   23.8130 C   0  0  0  0  0  3  0  0  0  0  0  0
  -16.6490  -29.4500   23.3360 C   0  0  0  0  0  3  0  0  0  0  0  0
  -16.9870  -28.1940   22.8020 C   0  0  0  0  0  3  0  0  0  0  0  0
  -26.1930  -32.3830   23.9940 C   0  0  0  0  0  3  0  0  0  0  0  0
  -26.7210  -31.5510   25.2260 C   0  0  1  0  0  0  0  0  0  0  0  0
  -25.6460  -31.2860   26.3070 C   0  0  0  0  0  1  0  0  0  0  0  0
  -27.2730  -30.1820   24.7620 C   0  0  0  0  0  1  0  0  0  0  0  0
  -27.8990  -32.2960   25.8980 C   0  0  0  0  0  1  0  0  0  0  0  0
  -25.9190  -33.7720   24.3910 N   0  0  0  0  0  0  0  0  0  0  0  0
  -26.2110  -34.8490   23.6470 C   0  0  0  0  0  0  0  0  0  0  0  0
  -26.8060  -34.7760   22.5690 O   0  0  0  0  0  0  0  0  0  0  0  0
  -25.3860  -33.9030   25.2370 H   0  0  0  0  0  0  0  0  0  0  0  0
  -24.4720  -36.6620   23.4840 C   0  0  0  0  0  1  0  0  0  0  0  0
  -25.7700  -36.2250   24.1830 C   0  0  0  0  0  3  0  0  0  0  0  0
  -27.9650  -37.0800   24.8770 C   0  0  0  0  0  1  0  0  0  0  0  0
  -26.7970  -37.2770   24.0210 N   0  0  0  0  0  0  0  0  0  0  0  0
  -26.4100  -38.1940   24.2210 H   0  0  0  0  0  0  0  0  0  0  0  0
  1 51  1  0
  1  2  1  0
  2  4  1  0
  3  1  2  0
  5  8  1  0
  6  5  2  0
  6  9  1  0
  8  2  1  0
  8  7  2  0
  9 20  1  0
  9 10  2  0
 10  7  1  0
 10 11  1  0
 12 20  1  0
 13 18  1  0
 14 15  1  0
 14 13  1  0
 16 15  1  0
 16 25  1  0
 16 17  1  0
 18 12  1  0
 18 17  1  0
 19 12  2  0
 20 21  1  0
 22 23  2  0
 23 42  1  0
 24 27  1  0
 24 23  1  0
 25 26  1  0
 25 22  1  0
 26 24  2  0
 27 28  1  0
 28 29  2  0
 30 33  1  0
 30 29  1  0
 31 30  2  0
 32 31  1  0
 32 27  2  0
 33 34  1  0
 34 39  2  0
 34 35  1  0
 35 36  2  0
 36 37  1  0
 37 41  1  0
 38 37  2  0
 39 38  1  0
 40 39  1  0
 42 43  1  0
 43 45  1  0
 43 46  1  0
 44 42  2  0
 47 22  1  0
 47 48  1  0
 49 47  1  0
 50 53  1  0
 50 51  2  0
 51 52  1  0
 53 55  1  0
 54 65  2  0
 55 60  1  0
 56 64  1  0
 56 66  1  0
 57 63  1  0
 57 59  1  0
 58 64  1  0
 59 58  1  0
 60 59  2  0
 61 62  1  0
 61 55  2  0
 62 57  2  0
 63 56  1  0
 64 54  1  0
 66 68  2  0
 67 66  1  0
 69 67  1  0
 70 79  2  0
 70 75  1  0
 71 67  1  0
 71 75  1  0
 72 71  1  0
 73 74  1  0
 73 72  1  0
 74 70  1  0
 75 76  2  0
 76 77  1  0
 78 77  2  0
 79 78  1  0
 80 54  1  0
 80 85  1  0
 80 81  1  0
 81 84  1  1
 81 82  1  0
 83 81  1  0
 85 88  1  0
 86 90  1  0
 86 85  1  0
 87 86  2  0
 90 89  1  0
 92 90  1  0
 92 93  1  0
 92 91  1  0
M  ISO  4  12 100  20 100  50 101  53 101
M  END
>  <TORSDO>  (47) 
F 18

>  <SCORE>  (47) 
-12.100

>  <name>  (47) 
46

>  <ligand_id>  (47) 
46

>  <original_smiles>  (47) 
[H]C(Oc1c([H])c([H])c2c(c1[H])C([H])([H])N(C(=O)C([H])(N([H])C(=O)C([H])(N([H])C([H])([H])[H])C([H])([H])[H])C(C([H])([H])[H])(C([H])([H])[H])C([H])([H])[H])C([H])(C(=O)N([H])C1([H])c3c([H])c([H])c([H])c([H])c3C([H])([H])C([H])([H])C1([H])[H])C2([H])[H])=C(C(=O)N([H])c1c([H])c([H])c(N([H])C(=O)N2C([H])([H])C([H])([H])C([H])([H])C([H])(n3nc(-c4c([H])c([H])c(Oc5c([H])c([H])c(F)c([H])c5F)c([H])c4[H])c(C(=O)N([H])[H])c3N([H])[H])C2([H])[H])c(F)c1[H])C([H])([H])[H]

>  <smiles>  (47) 
[H]C(Oc1c([H])c([H])c2c(c1[H])C([H])([H])N(C(=O)C([H])(N([H])C(=O)C([H])(N([H])C([H])([H])[H])C([H])([H])[H])C(C([H])([H])[H])(C([H])([H])[H])C([H])([H])[H])C([H])(C(=O)N([H])C1([H])c3c([H])c([H])c([H])c([H])c3C([H])([H])C([H])([H])C1([H])[H])C2([H])[H])=C(C(=O)N([H])c1c([H])c([H])c(N([H])C(=O)N2C([H])([H])C([H])([H])C([H])([H])C([H])(n3nc(-c4c([H])c([H])c(Oc5c([H])c([H])c(F)c([H])c5F)c([H])c4[H])c(C(=O)N([H])[H])c3N([H])[H])C2([H])[H])c(F)c1[H])C([H])([H])[H]

$$$$
47:0:0
     RDKit          3D

 87 94  0  0  1  0  0  0  0  0999 V2000
  -28.9520  -22.2790   20.2990 C   0  0  0  0  0  0  0  0  0  0  0  0
  -30.1440  -22.5700   20.4540 O   0  0  0  0  0  0  0  0  0  0  0  0
  -28.6990  -20.4180   20.2450 C   0  0  0  0  0  2  0  0  0  0  0  0
  -30.2690  -15.7160   20.1950 C   0  0  0  0  0  0  0  0  0  0  0  0
  -30.3750  -13.1800   19.3520 C   0  0  0  0  0  2  0  0  0  0  0  0
  -29.4850  -12.7740   18.1420 C   0  0  0  0  0  2  0  0  0  0  0  0
  -28.0630  -12.4120   18.6000 C   0  0  0  0  0  2  0  0  0  0  0  0
  -27.5490  -13.3980   19.6730 C   0  0  0  0  0  3  0  0  0  0  0  0
  -28.5810  -13.7120   20.7810 C   0  0  0  0  0  2  0  0  0  0  0  0
  -29.7430  -14.3500   20.1170 N   0  0  0  0  0  0  0  0  0  0  0  0
  -31.5080  -15.6640   20.0320 O   0  0  0  0  0  0  0  0  0  0  0  0
  -29.7020  -18.8240   20.2400 C   0  0  0  0  0  0  0  0  0  0  0  0
  -29.4510  -17.2670   20.2550 N   0  0  0  0  0  0  0  0  0  0  0  0
  -31.0160  -19.1260   20.2030 N   0  0  0  0  0  4  0  0  0  0  0  0
  -28.4490  -17.1740   20.3060 H   0  0  0  0  0  0  0  0  0  0  0  0
  -31.7350  -18.4140   20.1740 H   0  0  0  0  0  0  0  0  0  0  0  0
  -31.3230  -20.0910   20.2070 H   0  0  0  0  0  0  0  0  0  0  0  0
  -25.1790  -13.8950   20.4380 C   0  0  0  0  0  0  0  0  0  0  0  0
  -24.1340  -13.0990   20.8110 C   0  0  0  0  0  0  0  0  0  0  0  0
  -24.6260  -11.7590   20.7840 C   0  0  0  0  0  0  0  0  0  0  0  0
  -26.2380  -13.0400   20.1960 N   0  0  0  0  0  0  0  0  0  0  0  0
  -25.9210  -11.7480   20.4710 N   0  0  0  0  0  0  0  0  0  0  0  0
  -23.9200  -10.4850   20.9750 C   0  0  0  0  0  0  0  0  0  0  0  0
  -24.3490   -9.5350   21.9280 C   0  0  0  0  0  3  0  0  0  0  0  0
  -23.6350   -8.3300   22.1100 C   0  0  0  0  0  3  0  0  0  0  0  0
  -22.4790   -8.0670   21.3380 C   0  0  0  0  0  0  0  0  0  0  0  0
  -22.0690   -9.0060   20.3750 C   0  0  0  0  0  3  0  0  0  0  0  0
  -22.7830  -10.2010   20.1920 C   0  0  0  0  0  3  0  0  0  0  0  0
  -21.7390   -6.9120   21.4270 O   0  0  0  0  0  0  0  0  0  0  0  0
  -21.6630   -6.1940   22.5950 C   0  0  0  0  0  0  0  0  0  0  0  0
  -21.1630   -6.7620   23.7870 C   0  0  0  0  0  3  0  0  0  0  0  0
  -21.0370   -5.9690   24.9450 C   0  0  0  0  0  3  0  0  0  0  0  0
  -21.4010   -4.6100   24.9120 C   0  0  0  0  0  0  0  0  0  0  0  0
  -21.8930   -4.0410   23.7230 C   0  0  0  0  0  3  0  0  0  0  0  0
  -22.0200   -4.8310   22.5680 C   0  0  0  0  0  0  0  0  0  0  0  0
  -22.4750   -4.2730   21.4200 F   0  0  0  0  0  0  0  0  0  0  0  0
  -21.2730   -3.8460   26.0210 F   0  0  0  0  0  0  0  0  0  0  0  0
  -22.7280  -13.5550   21.0690 C   0  0  0  0  0  0  0  0  0  0  0  0
  -22.0080  -12.8590   21.9410 N   0  0  0  0  0  0  0  0  0  0  0  0
  -22.2770  -14.5660   20.5330 O   0  0  0  0  0  0  0  0  0  0  0  0
  -22.3880  -12.0420   22.3990 H   0  0  0  0  0  0  0  0  0  0  0  0
  -21.0650  -13.1470   22.1580 H   0  0  0  0  0  0  0  0  0  0  0  0
  -25.3110  -15.2680   20.2500 N   0  0  0  0  0  0  0  0  0  0  0  0
  -24.5150  -15.8910   20.3330 H   0  0  0  0  0  0  0  0  0  0  0  0
  -26.1120  -15.7060   19.8180 H   0  0  0  0  0  0  0  0  0  0  0  0
  -27.8870  -23.8140   20.1760 C   0  0  0  0  0  2  0  0  0  0  0  0
  -28.1390  -25.5570   20.3110 O   0  0  0  0  0  0  0  0  0  0  0  0
  -24.6640  -31.8840   23.2190 C   0  0  0  0  0  0  0  0  0  0  0  0
  -27.1760  -26.7790   20.2530 C   0  0  0  0  0  0  0  0  0  0  0  0
  -23.4720  -30.4830   21.5870 C   0  0  0  0  0  3  0  0  0  0  0  0
  -24.9140  -28.8210   20.1860 C   0  0  0  0  0  0  0  0  0  0  0  0
  -26.0530  -30.6130   21.4680 C   0  0  0  0  0  2  0  0  0  0  0  0
  -26.1110  -29.1770   20.8180 C   0  0  0  0  0  0  0  0  0  0  0  0
  -27.2260  -28.1840   20.8180 C   0  0  0  0  0  3  0  0  0  0  0  0
  -25.9440  -26.6360   19.5640 C   0  0  0  0  0  3  0  0  0  0  0  0
  -24.8690  -27.5770   19.5350 C   0  0  0  0  0  3  0  0  0  0  0  0
  -23.7110  -29.7780   20.2210 C   0  0  0  0  0  2  0  0  0  0  0  0
  -24.7540  -31.0270   22.1430 N   0  0  0  0  0  0  0  0  0  0  0  0
  -23.5720  -32.1920   23.7260 O   0  0  0  0  0  0  0  0  0  0  0  0
  -22.7490  -29.5150   22.5630 C   0  0  0  0  0  0  0  0  0  0  0  0
  -21.4160  -29.3690   22.4380 N   0  0  0  0  0  0  0  0  0  0  0  0
  -23.4010  -28.8920   23.4030 O   0  0  0  0  0  0  0  0  0  0  0  0
  -20.9410  -29.9240   21.7390 H   0  0  0  0  0  0  0  0  0  0  0  0
  -18.0210  -28.1810   22.9540 C   0  0  0  0  0  0  0  0  0  0  0  0
  -20.5820  -28.4430   23.2150 C   0  0  0  0  0  3  0  0  0  0  0  0
  -20.6770  -27.0050   22.6500 C   0  0  0  0  0  2  0  0  0  0  0  0
  -19.5760  -26.6810   21.6370 C   0  0  0  0  0  2  0  0  0  0  0  0
  -18.1940  -26.8290   22.2800 C   0  0  0  0  0  2  0  0  0  0  0  0
  -19.1410  -28.9440   23.3780 C   0  0  0  0  0  0  0  0  0  0  0  0
  -18.9210  -30.2050   23.9750 C   0  0  0  0  0  3  0  0  0  0  0  0
  -17.6160  -30.7030   24.1480 C   0  0  0  0  0  3  0  0  0  0  0  0
  -16.5110  -29.9380   23.7360 C   0  0  0  0  0  3  0  0  0  0  0  0
  -16.7140  -28.6770   23.1460 C   0  0  0  0  0  3  0  0  0  0  0  0
  -25.9300  -32.5320   23.8580 C   0  0  0  0  0  3  0  0  0  0  0  0
  -25.6100  -33.9340   24.1960 N   0  0  0  0  0  0  0  0  0  0  0  0
  -25.9190  -34.9990   23.4440 C   0  0  0  0  0  0  0  0  0  0  0  0
  -26.5590  -34.9060   22.3940 O   0  0  0  0  0  0  0  0  0  0  0  0
  -25.0370  -34.0790   25.0140 H   0  0  0  0  0  0  0  0  0  0  0  0
  -24.1640  -36.7900   23.1840 C   0  0  0  0  0  1  0  0  0  0  0  0
  -25.4470  -36.3870   23.9300 C   0  0  0  0  0  3  0  0  0  0  0  0
  -27.6090  -37.2950   24.6620 C   0  0  0  0  0  1  0  0  0  0  0  0
  -26.4640  -37.4490   23.7680 N   0  0  0  0  0  0  0  0  0  0  0  0
  -26.0570  -38.3660   23.9290 H   0  0  0  0  0  0  0  0  0  0  0  0
  -26.4260  -31.7720   25.1520 C   0  0  1  0  0  0  0  0  0  0  0  0
  -25.3200  -31.5580   26.2130 C   0  0  0  0  0  1  0  0  0  0  0  0
  -27.0010  -30.3840   24.7950 C   0  0  0  0  0  1  0  0  0  0  0  0
  -27.5780  -32.5650   25.8160 C   0  0  0  0  0  1  0  0  0  0  0  0
  1  2  2  0
  3  1  1  0
  4 13  1  0
  5 10  1  0
  6  7  1  0
  6  5  1  0
  8  7  1  0
  8 21  1  0
  8  9  1  0
 10  4  1  0
 10  9  1  0
 11  4  2  0
 12  3  1  0
 12 13  1  0
 13 15  1  0
 14 17  1  0
 14 12  2  0
 16 14  1  0
 18 19  2  0
 19 38  1  0
 20 19  1  0
 20 23  1  0
 21 18  1  0
 21 22  1  0
 22 20  2  0
 23 24  1  0
 24 25  2  0
 26 29  1  0
 26 25  1  0
 27 26  2  0
 28 27  1  0
 28 23  2  0
 29 30  1  0
 30 31  1  0
 31 32  2  0
 33 32  1  0
 33 37  1  0
 34 33  2  0
 35 30  2  0
 35 34  1  0
 36 35  1  0
 38 39  1  0
 39 42  1  0
 39 41  1  0
 40 38  2  0
 43 44  1  0
 43 18  1  0
 45 43  1  0
 46  1  1  0
 46 47  1  0
 48 59  2  0
 49 47  1  0
 49 54  1  0
 50 58  1  0
 50 60  1  0
 51 57  1  0
 51 53  1  0
 52 58  1  0
 53 54  2  0
 53 52  1  0
 55 49  2  0
 56 55  1  0
 56 51  2  0
 57 50  1  0
 58 48  1  0
 60 62  2  0
 61 60  1  0
 63 61  1  0
 64 73  2  0
 64 69  1  0
 65 61  1  0
 65 69  1  0
 66 65  1  0
 67 68  1  0
 67 66  1  0
 68 64  1  0
 69 70  2  0
 70 71  1  0
 72 71  2  0
 73 72  1  0
 74 48  1  0
 74 75  1  0
 74 84  1  0
 75 78  1  0
 76 80  1  0
 76 75  1  0
 77 76  2  0
 80 79  1  0
 82 83  1  0
 82 80  1  0
 82 81  1  0
 84 87  1  1
 84 85  1  0
 86 84  1  0
M  ISO  4   4 100  13 100  46 101  47 101
M  END
>  <TORSDO>  (48) 
F 18

>  <SCORE>  (48) 
-16.379

>  <name>  (48) 
47

>  <ligand_id>  (48) 
47

>  <original_smiles>  (48) 
[H]c1c([H])c([H])c2c(c1[H])C([H])([H])C([H])([H])C([H])([H])C2([H])N([H])C(=O)C1([H])N(C(=O)C([H])(N([H])C(=O)C([H])(N([H])C([H])([H])[H])C([H])([H])[H])C(C([H])([H])[H])(C([H])([H])[H])C([H])([H])[H])C([H])([H])c2c([H])c(OC([H])([H])C(=O)C([H])([H])C(N([H])C(=O)N3C([H])([H])C([H])([H])C([H])([H])C([H])(n4nc(-c5c([H])c([H])c(Oc6c([H])c([H])c(F)c([H])c6F)c([H])c5[H])c(C(=O)N([H])[H])c4N([H])[H])C3([H])[H])=[N+]([H])[H])c([H])c([H])c2C1([H])[H]

>  <smiles>  (48) 
[H]c1c([H])c([H])c2c(c1[H])C([H])([H])C([H])([H])C([H])([H])C2([H])N([H])C(=O)C1([H])N(C(=O)C([H])(N([H])C(=O)C([H])(N([H])C([H])([H])[H])C([H])([H])[H])C(C([H])([H])[H])(C([H])([H])[H])C([H])([H])[H])C([H])([H])c2c([H])c(OC([H])([H])C(=O)C([H])([H])C(N([H])C(=O)N3C([H])([H])C([H])([H])C([H])([H])C([H])(n4nc(-c5c([H])c([H])c(Oc6c([H])c([H])c(F)c([H])c6F)c([H])c5[H])c(C(=O)N([H])[H])c4N([H])[H])C3([H])[H])=[N+]([H])[H])c([H])c([H])c2C1([H])[H]

$$$$
48:0:0
     RDKit          3D

 93102  0  0  1  0  0  0  0  0999 V2000
  -29.0460  -22.5380   20.9920 C   0  0  0  0  0  3  0  0  0  0  0  0
  -28.4420  -23.5950   20.3570 C   0  0  0  0  0  0  0  0  0  0  0  0
  -27.9660  -22.9640   19.1430 C   0  0  0  0  0  0  0  0  0  0  0  0
  -28.2850  -21.5250   19.1550 C   0  0  0  0  0  0  0  0  0  0  0  0
  -27.3520  -23.5660   18.1090 C   0  0  0  0  0  2  0  0  0  0  0  0
  -28.9700  -21.2760   20.2990 N   0  0  0  0  0  0  0  0  0  0  0  0
  -27.9990  -20.6890   18.2890 O   0  0  0  0  0  0  0  0  0  0  0  0
  -31.7830  -19.0570   21.5630 C   0  0  0  0  0  3  0  0  0  0  0  0
  -30.9590  -20.1600   21.2620 C   0  0  0  0  0  3  0  0  0  0  0  0
  -31.3890  -17.7330   21.2810 C   0  0  0  0  0  3  0  0  0  0  0  0
  -29.3100  -18.6090   20.3720 C   0  0  0  0  0  3  0  0  0  0  0  0
  -29.7010  -20.0030   20.6420 C   0  0  0  0  0  0  0  0  0  0  0  0
  -30.1430  -17.4370   20.6830 C   0  0  0  0  0  0  0  0  0  0  0  0
  -30.5570  -14.8420   20.3250 C   0  0  0  0  0  0  0  0  0  0  0  0
  -30.3730  -12.5610   19.2960 C   0  0  0  0  0  2  0  0  0  0  0  0
  -29.4160  -12.5920   18.0850 C   0  0  0  0  0  2  0  0  0  0  0  0
  -27.9550  -12.4010   18.5360 C   0  0  0  0  0  2  0  0  0  0  0  0
  -27.5830  -13.2940   19.7510 C   0  0  0  0  0  3  0  0  0  0  0  0
  -28.6560  -13.2320   20.8570 C   0  0  0  0  0  2  0  0  0  0  0  0
  -29.9310  -13.6140   20.2400 N   0  0  0  0  0  0  0  0  0  0  0  0
  -31.7520  -14.9170   20.0230 O   0  0  0  0  0  0  0  0  0  0  0  0
  -29.7760  -15.9940   20.4900 N   0  0  0  0  0  0  0  0  0  0  0  0
  -28.7860  -15.8050   20.5040 H   0  0  0  0  0  0  0  0  0  0  0  0
  -25.2070  -13.8660   20.5190 C   0  0  0  0  0  0  0  0  0  0  0  0
  -24.1490  -13.0840   20.8950 C   0  0  0  0  0  0  0  0  0  0  0  0
  -24.6200  -11.7360   20.8540 C   0  0  0  0  0  0  0  0  0  0  0  0
  -26.2500  -12.9930   20.2610 N   0  0  0  0  0  0  0  0  0  0  0  0
  -25.9060  -11.7070   20.5280 N   0  0  0  0  0  0  0  0  0  0  0  0
  -23.9020  -10.4690   21.0440 C   0  0  0  0  0  0  0  0  0  0  0  0
  -24.3410   -9.5050   21.9780 C   0  0  0  0  0  3  0  0  0  0  0  0
  -23.6220   -8.3040   22.1610 C   0  0  0  0  0  3  0  0  0  0  0  0
  -22.4490   -8.0590   21.4060 C   0  0  0  0  0  0  0  0  0  0  0  0
  -22.0280   -9.0120   20.4630 C   0  0  0  0  0  3  0  0  0  0  0  0
  -22.7480  -10.2040   20.2790 C   0  0  0  0  0  3  0  0  0  0  0  0
  -21.7010   -6.9100   21.4970 O   0  0  0  0  0  0  0  0  0  0  0  0
  -21.6540   -6.1710   22.6510 C   0  0  0  0  0  0  0  0  0  0  0  0
  -21.2100   -6.7230   23.8720 C   0  0  0  0  0  3  0  0  0  0  0  0
  -21.1120   -5.9090   25.0190 C   0  0  0  0  0  3  0  0  0  0  0  0
  -21.4470   -4.5450   24.9460 C   0  0  0  0  0  0  0  0  0  0  0  0
  -21.8830   -3.9920   23.7280 C   0  0  0  0  0  3  0  0  0  0  0  0
  -21.9840   -4.8010   22.5850 C   0  0  0  0  0  0  0  0  0  0  0  0
  -22.3850   -4.2580   21.4090 F   0  0  0  0  0  0  0  0  0  0  0  0
  -21.3450   -3.7610   26.0440 F   0  0  0  0  0  0  0  0  0  0  0  0
  -22.7520  -13.5530   21.1820 C   0  0  0  0  0  0  0  0  0  0  0  0
  -22.0350  -12.8470   22.0470 N   0  0  0  0  0  0  0  0  0  0  0  0
  -22.3070  -14.5810   20.6720 O   0  0  0  0  0  0  0  0  0  0  0  0
  -22.4090  -12.0120   22.4740 H   0  0  0  0  0  0  0  0  0  0  0  0
  -21.1000  -13.1470   22.2860 H   0  0  0  0  0  0  0  0  0  0  0  0
  -25.3660  -15.2380   20.3550 N   0  0  0  0  0  0  0  0  0  0  0  0
  -24.6160  -15.8980   20.5340 H   0  0  0  0  0  0  0  0  0  0  0  0
  -26.2210  -15.6860   20.0560 H   0  0  0  0  0  0  0  0  0  0  0  0
  -28.0720  -25.0500   20.9460 C   0  0  0  0  0  2  0  0  0  0  0  0
  -28.2900  -26.3670   20.2390 O   0  0  0  0  0  0  0  0  0  0  0  0
  -24.6000  -31.9110   23.2320 C   0  0  0  0  0  0  0  0  0  0  0  0
  -27.2130  -27.2880   20.2240 C   0  0  0  0  0  0  0  0  0  0  0  0
  -23.4070  -30.5050   21.5930 C   0  0  0  0  0  3  0  0  0  0  0  0
  -24.8640  -28.9450   20.1830 C   0  0  0  0  0  0  0  0  0  0  0  0
  -25.9540  -30.8100   21.4250 C   0  0  0  0  0  2  0  0  0  0  0  0
  -26.0360  -29.4260   20.7800 C   0  0  0  0  0  0  0  0  0  0  0  0
  -27.2190  -28.6140   20.7830 C   0  0  0  0  0  3  0  0  0  0  0  0
  -26.0140  -26.8750   19.6090 C   0  0  0  0  0  3  0  0  0  0  0  0
  -24.8580  -27.6770   19.5830 C   0  0  0  0  0  3  0  0  0  0  0  0
  -23.6310  -29.8260   20.2190 C   0  0  0  0  0  2  0  0  0  0  0  0
  -24.6720  -31.0940   22.1390 N   0  0  0  0  0  0  0  0  0  0  0  0
  -23.5130  -32.1880   23.7590 O   0  0  0  0  0  0  0  0  0  0  0  0
  -22.7380  -29.4930   22.5560 C   0  0  0  0  0  0  0  0  0  0  0  0
  -21.4110  -29.3190   22.4320 N   0  0  0  0  0  0  0  0  0  0  0  0
  -23.4140  -28.8660   23.3770 O   0  0  0  0  0  0  0  0  0  0  0  0
  -20.9240  -29.8730   21.7410 H   0  0  0  0  0  0  0  0  0  0  0  0
  -18.0300  -28.1340   22.9360 C   0  0  0  0  0  0  0  0  0  0  0  0
  -20.5910  -28.3830   23.2010 C   0  0  0  0  0  3  0  0  0  0  0  0
  -20.6850  -26.9540   22.6160 C   0  0  0  0  0  2  0  0  0  0  0  0
  -19.5790  -26.6450   21.6030 C   0  0  0  0  0  2  0  0  0  0  0  0
  -18.1990  -26.7890   22.2490 C   0  0  0  0  0  2  0  0  0  0  0  0
  -19.1540  -28.8880   23.3680 C   0  0  0  0  0  0  0  0  0  0  0  0
  -18.9390  -30.1500   23.9660 C   0  0  0  0  0  3  0  0  0  0  0  0
  -17.6380  -30.6570   24.1350 C   0  0  0  0  0  3  0  0  0  0  0  0
  -16.5290  -29.8970   23.7220 C   0  0  0  0  0  3  0  0  0  0  0  0
  -16.7270  -28.6380   23.1280 C   0  0  0  0  0  3  0  0  0  0  0  0
  -25.8780  -32.5490   23.8570 C   0  0  0  0  0  3  0  0  0  0  0  0
  -25.5610  -33.9490   24.1780 N   0  0  0  0  0  0  0  0  0  0  0  0
  -25.8990  -35.0010   23.4200 C   0  0  0  0  0  0  0  0  0  0  0  0
  -26.5770  -34.8970   22.3960 O   0  0  0  0  0  0  0  0  0  0  0  0
  -24.9590  -34.1040   24.9720 H   0  0  0  0  0  0  0  0  0  0  0  0
  -24.1790  -36.7990   23.0470 C   0  0  0  0  0  1  0  0  0  0  0  0
  -25.4090  -36.3900   23.8720 C   0  0  0  0  0  3  0  0  0  0  0  0
  -27.5340  -37.2730   24.7310 C   0  0  0  0  0  1  0  0  0  0  0  0
  -26.4450  -37.4410   23.7720 N   0  0  0  0  0  0  0  0  0  0  0  0
  -26.0370  -38.3620   23.9120 H   0  0  0  0  0  0  0  0  0  0  0  0
  -26.3870  -31.7880   25.1430 C   0  0  1  0  0  0  0  0  0  0  0  0
  -25.2890  -31.5570   26.2060 C   0  0  0  0  0  1  0  0  0  0  0  0
  -26.9750  -30.4080   24.7670 C   0  0  0  0  0  1  0  0  0  0  0  0
  -27.5310  -32.5890   25.8080 C   0  0  0  0  0  1  0  0  0  0  0  0
  2 52  1  0
  2  1  2  0
  3  4  1  0
  3  2  1  0
  4  6  1  0
  5  3  2  0
  6 12  1  0
  6  1  1  0
  7  4  2  0
  9  8  2  0
 10  8  1  0
 11 12  2  0
 11 13  1  0
 12  9  1  0
 13 10  2  0
 14 22  1  0
 15 20  1  0
 16 17  1  0
 16 15  1  0
 18 17  1  0
 18 27  1  0
 18 19  1  0
 20 14  1  0
 20 19  1  0
 21 14  2  0
 22 23  1  0
 22 13  1  0
 24 25  2  0
 25 44  1  0
 26 25  1  0
 26 29  1  0
 27 24  1  0
 27 28  1  0
 28 26  2  0
 29 30  1  0
 30 31  2  0
 32 35  1  0
 32 31  1  0
 33 32  2  0
 34 33  1  0
 34 29  2  0
 35 36  1  0
 36 37  1  0
 37 38  2  0
 39 38  1  0
 39 43  1  0
 40 39  2  0
 41 36  2  0
 41 40  1  0
 42 41  1  0
 44 45  1  0
 45 48  1  0
 45 47  1  0
 46 44  2  0
 49 24  1  0
 49 50  1  0
 51 49  1  0
 53 52  1  0
 54 65  2  0
 55 53  1  0
 55 60  1  0
 56 64  1  0
 56 66  1  0
 57 63  1  0
 57 59  1  0
 58 64  1  0
 59 60  2  0
 59 58  1  0
 61 55  2  0
 62 61  1  0
 62 57  2  0
 63 56  1  0
 64 54  1  0
 66 68  2  0
 67 66  1  0
 69 67  1  0
 70 79  2  0
 70 75  1  0
 71 67  1  0
 71 75  1  0
 72 71  1  0
 73 74  1  0
 73 72  1  0
 74 70  1  0
 75 76  2  0
 76 77  1  0
 78 77  2  0
 79 78  1  0
 80 54  1  0
 80 81  1  0
 80 90  1  0
 81 84  1  0
 82 86  1  0
 82 81  1  0
 83 82  2  0
 86 85  1  0
 88 86  1  0
 88 89  1  0
 88 87  1  0
 90 93  1  1
 90 91  1  0
 92 90  1  0
M  ISO  4  14 100  22 100  52 101  53 101
M  END
>  <TORSDO>  (49) 
F 18

>  <SCORE>  (49) 
-15.146

>  <name>  (49) 
48

>  <ligand_id>  (49) 
48

>  <original_smiles>  (49) 
[H]C([H])=C1C(=O)N(c2c([H])c([H])c([H])c(N([H])C(=O)N3C([H])([H])C([H])([H])C([H])([H])C([H])(n4nc(-c5c([H])c([H])c(Oc6c([H])c([H])c(F)c([H])c6F)c([H])c5[H])c(C(=O)N([H])[H])c4N([H])[H])C3([H])[H])c2[H])C([H])=C1C([H])([H])Oc1c([H])c([H])c2c(c1[H])C([H])([H])N(C(=O)C([H])(N([H])C(=O)C([H])(N([H])C([H])([H])[H])C([H])([H])[H])C(C([H])([H])[H])(C([H])([H])[H])C([H])([H])[H])C([H])(C(=O)N([H])C1([H])c3c([H])c([H])c([H])c([H])c3C([H])([H])C([H])([H])C1([H])[H])C2([H])[H]

>  <smiles>  (49) 
[H]C([H])=C1C(=O)N(c2c([H])c([H])c([H])c(N([H])C(=O)N3C([H])([H])C([H])([H])C([H])([H])C([H])(n4nc(-c5c([H])c([H])c(Oc6c([H])c([H])c(F)c([H])c6F)c([H])c5[H])c(C(=O)N([H])[H])c4N([H])[H])C3([H])[H])c2[H])C([H])=C1C([H])([H])Oc1c([H])c([H])c2c(c1[H])C([H])([H])N(C(=O)C([H])(N([H])C(=O)C([H])(N([H])C([H])([H])[H])C([H])([H])[H])C(C([H])([H])[H])(C([H])([H])[H])C([H])([H])[H])C([H])(C(=O)N([H])C1([H])c3c([H])c([H])c([H])c([H])c3C([H])([H])C([H])([H])C1([H])[H])C2([H])[H]

$$$$
49:0:0
     RDKit          3D

 92101  0  0  1  0  0  0  0  0999 V2000
  -28.6210  -22.6370   21.0590 C   0  0  0  0  0  0  0  0  0  0  0  0
  -29.5700  -22.6790   19.2170 C   0  0  0  0  0  2  0  0  0  0  0  0
  -29.2170  -23.8580   20.2230 C   0  0  2  0  0  0  0  0  0  0  0  0
  -30.3850  -24.4850   20.9900 C   0  0  0  0  0  1  0  0  0  0  0  0
  -29.3640  -21.7130   20.3030 N   0  0  0  0  0  0  0  0  0  0  0  0
  -27.8270  -22.4800   21.9630 O   0  0  0  0  0  0  0  0  0  0  0  0
  -29.0290  -19.3540   21.1970 C   0  0  0  0  0  3  0  0  0  0  0  0
  -30.3760  -19.5220   19.2780 C   0  0  0  0  0  3  0  0  0  0  0  0
  -29.2710  -17.9460   21.2480 C   0  0  0  0  0  3  0  0  0  0  0  0
  -30.6300  -18.1010   19.3110 C   0  0  0  0  0  3  0  0  0  0  0  0
  -29.5830  -20.2420   20.2310 C   0  0  0  0  0  0  0  0  0  0  0  0
  -30.1080  -17.2480   20.3280 C   0  0  0  0  0  0  0  0  0  0  0  0
  -30.8410  -14.8320   19.6180 C   0  0  0  0  0  0  0  0  0  0  0  0
  -30.4360  -12.6430   18.4540 C   0  0  0  0  0  2  0  0  0  0  0  0
  -29.3190  -12.7790   17.3960 C   0  0  0  0  0  2  0  0  0  0  0  0
  -27.9340  -12.5690   18.0350 C   0  0  0  0  0  2  0  0  0  0  0  0
  -27.7570  -13.3960   19.3340 C   0  0  0  0  0  3  0  0  0  0  0  0
  -28.9640  -13.2220   20.2750 C   0  0  0  0  0  2  0  0  0  0  0  0
  -30.1760  -13.6220   19.5380 N   0  0  0  0  0  0  0  0  0  0  0  0
  -31.8300  -15.0370   18.9050 O   0  0  0  0  0  0  0  0  0  0  0  0
  -30.6560  -15.4110   21.9300 C   0  0  0  0  0  1  0  0  0  0  0  0
  -30.4050  -15.7930   20.5280 N   0  0  0  0  0  0  0  0  0  0  0  0
  -25.5440  -13.9570   20.5120 C   0  0  0  0  0  0  0  0  0  0  0  0
  -24.5260  -13.1690   20.9750 C   0  0  0  0  0  0  0  0  0  0  0  0
  -24.9270  -11.8200   20.7250 C   0  0  0  0  0  0  0  0  0  0  0  0
  -26.4990  -13.0880   20.0090 N   0  0  0  0  0  0  0  0  0  0  0  0
  -26.1440  -11.7900   20.1970 N   0  0  0  0  0  0  0  0  0  0  0  0
  -24.1950  -10.5590   20.9050 C   0  0  0  0  0  0  0  0  0  0  0  0
  -24.6680   -9.5480   21.7710 C   0  0  0  0  0  3  0  0  0  0  0  0
  -23.9370   -8.3520   21.9420 C   0  0  0  0  0  3  0  0  0  0  0  0
  -22.7200   -8.1590   21.2450 C   0  0  0  0  0  0  0  0  0  0  0  0
  -22.2660   -9.1570   20.3660 C   0  0  0  0  0  3  0  0  0  0  0  0
  -22.9970  -10.3460   20.1950 C   0  0  0  0  0  3  0  0  0  0  0  0
  -21.9560   -7.0200   21.3290 O   0  0  0  0  0  0  0  0  0  0  0  0
  -21.8480   -6.3100   22.4980 C   0  0  0  0  0  0  0  0  0  0  0  0
  -21.3750   -6.9010   23.6890 C   0  0  0  0  0  3  0  0  0  0  0  0
  -21.2150   -6.1180   24.8490 C   0  0  0  0  0  3  0  0  0  0  0  0
  -21.5170   -4.7430   24.8180 C   0  0  0  0  0  0  0  0  0  0  0  0
  -21.9830   -4.1510   23.6310 C   0  0  0  0  0  3  0  0  0  0  0  0
  -22.1450   -4.9320   22.4740 C   0  0  0  0  0  0  0  0  0  0  0  0
  -22.5740   -4.3520   21.3270 F   0  0  0  0  0  0  0  0  0  0  0  0
  -21.3550   -3.9880   25.9300 F   0  0  0  0  0  0  0  0  0  0  0  0
  -23.2130  -13.6410   21.5270 C   0  0  0  0  0  0  0  0  0  0  0  0
  -22.6350  -12.8880   22.4580 N   0  0  0  0  0  0  0  0  0  0  0  0
  -22.7150  -14.7080   21.1710 O   0  0  0  0  0  0  0  0  0  0  0  0
  -23.0550  -12.0240   22.7650 H   0  0  0  0  0  0  0  0  0  0  0  0
  -21.7600  -13.1820   22.8690 H   0  0  0  0  0  0  0  0  0  0  0  0
  -25.7300  -15.3350   20.4550 N   0  0  0  0  0  0  0  0  0  0  0  0
  -25.0280  -15.9910   20.7790 H   0  0  0  0  0  0  0  0  0  0  0  0
  -26.5420  -15.7890   20.0570 H   0  0  0  0  0  0  0  0  0  0  0  0
  -28.1620  -25.0270   19.8480 C   0  0  0  0  0  2  0  0  0  0  0  0
  -28.3560  -26.4820   20.1930 O   0  0  0  0  0  0  0  0  0  0  0  0
  -24.5930  -31.8910   23.2330 C   0  0  0  0  0  0  0  0  0  0  0  0
  -27.2500  -27.3650   20.1240 C   0  0  0  0  0  0  0  0  0  0  0  0
  -23.4100  -30.5130   21.5630 C   0  0  0  0  0  3  0  0  0  0  0  0
  -24.8800  -28.9940   20.1180 C   0  0  0  0  0  0  0  0  0  0  0  0
  -25.9530  -30.8400   21.4050 C   0  0  0  0  0  2  0  0  0  0  0  0
  -26.0450  -29.4690   20.7360 C   0  0  0  0  0  0  0  0  0  0  0  0
  -27.2310  -28.6670   20.7300 C   0  0  0  0  0  3  0  0  0  0  0  0
  -26.0650  -26.9650   19.4660 C   0  0  0  0  0  3  0  0  0  0  0  0
  -24.8960  -27.7510   19.4720 C   0  0  0  0  0  3  0  0  0  0  0  0
  -23.6390  -29.8640   20.1720 C   0  0  0  0  0  2  0  0  0  0  0  0
  -24.6710  -31.1000   22.1230 N   0  0  0  0  0  0  0  0  0  0  0  0
  -23.5040  -32.1540   23.7640 O   0  0  0  0  0  0  0  0  0  0  0  0
  -22.7460  -29.4770   22.5010 C   0  0  0  0  0  0  0  0  0  0  0  0
  -21.4260  -29.2750   22.3450 N   0  0  0  0  0  0  0  0  0  0  0  0
  -23.4180  -28.8590   23.3320 O   0  0  0  0  0  0  0  0  0  0  0  0
  -20.9420  -29.8250   21.6500 H   0  0  0  0  0  0  0  0  0  0  0  0
  -18.0650  -27.9980   22.7560 C   0  0  0  0  0  0  0  0  0  0  0  0
  -20.6090  -28.3180   23.0940 C   0  0  0  0  0  3  0  0  0  0  0  0
  -20.7590  -26.8900   22.5220 C   0  0  0  0  0  2  0  0  0  0  0  0
  -19.6930  -26.5430   21.4780 C   0  0  0  0  0  2  0  0  0  0  0  0
  -18.2920  -26.6540   22.0840 C   0  0  0  0  0  2  0  0  0  0  0  0
  -19.1540  -28.7850   23.2160 C   0  0  0  0  0  0  0  0  0  0  0  0
  -18.8890  -30.0410   23.8040 C   0  0  0  0  0  3  0  0  0  0  0  0
  -17.5680  -30.5110   23.9380 C   0  0  0  0  0  3  0  0  0  0  0  0
  -16.4930  -29.7200   23.4950 C   0  0  0  0  0  3  0  0  0  0  0  0
  -16.7430  -28.4660   22.9080 C   0  0  0  0  0  3  0  0  0  0  0  0
  -25.8670  -32.5230   23.8730 C   0  0  0  0  0  3  0  0  0  0  0  0
  -25.5600  -33.9270   24.1820 N   0  0  0  0  0  0  0  0  0  0  0  0
  -25.8860  -34.9690   23.4030 C   0  0  0  0  0  0  0  0  0  0  0  0
  -26.5490  -34.8480   22.3700 O   0  0  0  0  0  0  0  0  0  0  0  0
  -24.9750  -34.0960   24.9870 H   0  0  0  0  0  0  0  0  0  0  0  0
  -24.1460  -36.7500   23.0460 C   0  0  0  0  0  1  0  0  0  0  0  0
  -25.4030  -36.3640   23.8430 C   0  0  0  0  0  3  0  0  0  0  0  0
  -27.5480  -37.2740   24.6170 C   0  0  0  0  0  1  0  0  0  0  0  0
  -26.4290  -37.4190   23.6890 N   0  0  0  0  0  0  0  0  0  0  0  0
  -26.0220  -38.3400   23.8240 H   0  0  0  0  0  0  0  0  0  0  0  0
  -26.3500  -31.7640   25.1700 C   0  0  1  0  0  0  0  0  0  0  0  0
  -25.2310  -31.5420   26.2150 C   0  0  0  0  0  1  0  0  0  0  0  0
  -26.9370  -30.3800   24.8100 C   0  0  0  0  0  1  0  0  0  0  0  0
  -27.4870  -32.5610   25.8510 C   0  0  0  0  0  1  0  0  0  0  0  0
  1  6  2  0
  2  3  1  0
  2  5  1  0
  3  4  1  1
  3  1  1  0
  5  1  1  0
  7  9  1  0
  8 10  2  0
  8 11  1  0
 10 12  1  0
 11  5  1  0
 11  7  2  0
 12 22  1  0
 12  9  2  0
 13 22  1  0
 14 19  1  0
 15 16  1  0
 15 14  1  0
 17 16  1  0
 17 26  1  0
 17 18  1  0
 19 13  1  0
 19 18  1  0
 20 13  2  0
 22 21  1  0
 23 24  2  0
 24 43  1  0
 25 28  1  0
 25 24  1  0
 26 27  1  0
 26 23  1  0
 27 25  2  0
 28 29  1  0
 29 30  2  0
 31 34  1  0
 31 30  1  0
 32 31  2  0
 33 32  1  0
 33 28  2  0
 34 35  1  0
 35 36  1  0
 36 37  2  0
 38 37  1  0
 38 42  1  0
 39 38  2  0
 40 35  2  0
 40 39  1  0
 41 40  1  0
 43 44  1  0
 44 46  1  0
 44 47  1  0
 45 43  2  0
 48 23  1  0
 48 49  1  0
 50 48  1  0
 51 52  1  0
 51  3  1  0
 53 64  2  0
 54 52  1  0
 54 59  1  0
 55 63  1  0
 55 65  1  0
 56 62  1  0
 56 58  1  0
 57 63  1  0
 58 57  1  0
 59 58  2  0
 60 61  1  0
 60 54  2  0
 61 56  2  0
 62 55  1  0
 63 53  1  0
 65 67  2  0
 66 65  1  0
 68 66  1  0
 69 78  2  0
 69 74  1  0
 70 66  1  0
 70 74  1  0
 71 70  1  0
 72 73  1  0
 72 71  1  0
 73 69  1  0
 74 75  2  0
 75 76  1  0
 77 76  2  0
 78 77  1  0
 79 53  1  0
 79 80  1  0
 79 89  1  0
 80 83  1  0
 81 85  1  0
 81 80  1  0
 82 81  2  0
 85 84  1  0
 87 88  1  0
 87 85  1  0
 87 86  1  0
 89 92  1  1
 89 90  1  0
 91 89  1  0
M  ISO  4  13 100  22 100  51 101  52 101
M  END
>  <TORSDO>  (50) 
F 18

>  <SCORE>  (50) 
-12.765

>  <name>  (50) 
49

>  <ligand_id>  (50) 
49

>  <original_smiles>  (50) 
[H]c1c([H])c([H])c2c(c1[H])C([H])([H])C([H])([H])C([H])([H])C2([H])N([H])C(=O)C1([H])N(C(=O)C([H])(N([H])C(=O)C([H])(N([H])C([H])([H])[H])C([H])([H])[H])C(C([H])([H])[H])(C([H])([H])[H])C([H])([H])[H])C([H])([H])c2c([H])c(OC([H])([H])C3(C([H])([H])[H])C(=O)N(c4c([H])c([H])c(N(C(=O)N5C([H])([H])C([H])([H])C([H])([H])C([H])(n6nc(-c7c([H])c([H])c(Oc8c([H])c([H])c(F)c([H])c8F)c([H])c7[H])c(C(=O)N([H])[H])c6N([H])[H])C5([H])[H])C([H])([H])[H])c([H])c4[H])C3([H])[H])c([H])c([H])c2C1([H])[H]

>  <smiles>  (50) 
[H]c1c([H])c([H])c2c(c1[H])C([H])([H])C([H])([H])C([H])([H])C2([H])N([H])C(=O)C1([H])N(C(=O)C([H])(N([H])C(=O)C([H])(N([H])C([H])([H])[H])C([H])([H])[H])C(C([H])([H])[H])(C([H])([H])[H])C([H])([H])[H])C([H])([H])c2c([H])c(OC([H])([H])C3(C([H])([H])[H])C(=O)N(c4c([H])c([H])c(N(C(=O)N5C([H])([H])C([H])([H])C([H])([H])C([H])(n6nc(-c7c([H])c([H])c(Oc8c([H])c([H])c(F)c([H])c8F)c([H])c7[H])c(C(=O)N([H])[H])c6N([H])[H])C5([H])[H])C([H])([H])[H])c([H])c4[H])C3([H])[H])c([H])c([H])c2C1([H])[H]

$$$$
50:0:0
     RDKit          3D

 96104  0  0  1  0  0  0  0  0999 V2000
  -31.5130  -20.8920   22.0220 C   0  0  0  0  0  0  0  0  0  0  0  0
  -30.5200  -21.7320   21.7000 N   0  0  0  0  0  0  0  0  0  0  0  0
  -32.6370  -21.2760   22.3650 O   0  0  0  0  0  0  0  0  0  0  0  0
  -29.6160  -21.3320   21.4750 H   0  0  0  0  0  0  0  0  0  0  0  0
  -32.2840  -18.5100   21.7270 C   0  0  0  0  0  3  0  0  0  0  0  0
  -32.0430  -17.1390   21.5080 C   0  0  0  0  0  3  0  0  0  0  0  0
  -29.6480  -17.5560   21.5750 C   0  0  0  0  0  3  0  0  0  0  0  0
  -31.2130  -19.4250   21.8450 C   0  0  0  0  0  0  0  0  0  0  0  0
  -30.7200  -16.6570   21.3970 C   0  0  0  0  0  0  0  0  0  0  0  0
  -29.8860  -18.9280   21.7930 C   0  0  0  0  0  0  0  0  0  0  0  0
  -28.8200  -19.7570   21.9260 F   0  0  0  0  0  0  0  0  0  0  0  0
  -30.8490  -14.5280   20.1270 C   0  0  0  0  0  0  0  0  0  0  0  0
  -30.4310  -12.4760   18.8200 C   0  0  0  0  0  2  0  0  0  0  0  0
  -29.4030  -12.7380   17.7020 C   0  0  0  0  0  2  0  0  0  0  0  0
  -27.9660  -12.5660   18.2280 C   0  0  0  0  0  2  0  0  0  0  0  0
  -27.7170  -13.3470   19.5450 C   0  0  0  0  0  3  0  0  0  0  0  0
  -28.8420  -13.0600   20.5650 C   0  0  0  0  0  2  0  0  0  0  0  0
  -30.1380  -13.3860   19.9370 N   0  0  0  0  0  0  0  0  0  0  0  0
  -31.8250  -14.8310   19.4330 O   0  0  0  0  0  0  0  0  0  0  0  0
  -30.4120  -15.2940   21.1390 N   0  0  0  0  0  0  0  0  0  0  0  0
  -29.6040  -14.9210   21.6140 H   0  0  0  0  0  0  0  0  0  0  0  0
  -25.3660  -13.9170   20.4310 C   0  0  0  0  0  0  0  0  0  0  0  0
  -24.3280  -13.1240   20.8440 C   0  0  0  0  0  0  0  0  0  0  0  0
  -24.7910  -11.7770   20.7300 C   0  0  0  0  0  0  0  0  0  0  0  0
  -26.3970  -13.0510   20.0990 N   0  0  0  0  0  0  0  0  0  0  0  0
  -26.0560  -11.7570   20.3330 N   0  0  0  0  0  0  0  0  0  0  0  0
  -24.0860  -10.5030   20.9220 C   0  0  0  0  0  0  0  0  0  0  0  0
  -24.5220   -9.5540   21.8730 C   0  0  0  0  0  3  0  0  0  0  0  0
  -23.8180   -8.3450   22.0520 C   0  0  0  0  0  3  0  0  0  0  0  0
  -22.6630   -8.0750   21.2800 C   0  0  0  0  0  0  0  0  0  0  0  0
  -22.2460   -9.0130   20.3190 C   0  0  0  0  0  3  0  0  0  0  0  0
  -22.9520  -10.2150   20.1380 C   0  0  0  0  0  3  0  0  0  0  0  0
  -21.9300   -6.9170   21.3660 O   0  0  0  0  0  0  0  0  0  0  0  0
  -21.7810   -6.2460   22.5540 C   0  0  0  0  0  0  0  0  0  0  0  0
  -21.2030   -6.8570   23.6870 C   0  0  0  0  0  3  0  0  0  0  0  0
  -21.0060   -6.1100   24.8670 C   0  0  0  0  0  3  0  0  0  0  0  0
  -21.3770   -4.7540   24.9120 C   0  0  0  0  0  0  0  0  0  0  0  0
  -21.9480   -4.1420   23.7820 C   0  0  0  0  0  3  0  0  0  0  0  0
  -22.1470   -4.8850   22.6050 C   0  0  0  0  0  0  0  0  0  0  0  0
  -22.6790   -4.2860   21.5130 F   0  0  0  0  0  0  0  0  0  0  0  0
  -21.1810   -4.0340   26.0410 F   0  0  0  0  0  0  0  0  0  0  0  0
  -22.9510  -13.5810   21.2310 C   0  0  0  0  0  0  0  0  0  0  0  0
  -22.2890  -12.8470   22.1190 N   0  0  0  0  0  0  0  0  0  0  0  0
  -22.4730  -14.6220   20.7820 O   0  0  0  0  0  0  0  0  0  0  0  0
  -22.6900  -12.0040   22.5040 H   0  0  0  0  0  0  0  0  0  0  0  0
  -21.3680  -13.1330   22.4190 H   0  0  0  0  0  0  0  0  0  0  0  0
  -25.5140  -15.2940   20.2950 N   0  0  0  0  0  0  0  0  0  0  0  0
  -24.7550  -15.9410   20.4800 H   0  0  0  0  0  0  0  0  0  0  0  0
  -26.3400  -15.7470   19.9270 H   0  0  0  0  0  0  0  0  0  0  0  0
  -29.5530  -23.7110   21.3010 C   0  0  0  0  0  3  0  0  0  0  0  0
  -30.6310  -23.0820   21.6090 N   0  0  0  0  0  0  0  0  0  0  0  0
  -29.5090  -25.2090   21.1070 C   0  0  0  0  0  3  0  0  0  0  0  0
  -29.7190  -26.0780   23.3300 C   0  0  0  0  0  1  0  0  0  0  0  0
  -28.8680  -25.8470   22.2130 O   0  0  0  0  0  0  0  0  0  0  0  0
  -28.6970  -25.5450   19.8430 C   0  0  0  0  0  2  0  0  0  0  0  0
  -28.6950  -26.9610   19.6460 O   0  0  0  0  0  0  0  0  0  0  0  0
  -24.6700  -31.6990   23.0640 C   0  0  0  0  0  0  0  0  0  0  0  0
  -27.4770  -27.5940   19.7020 C   0  0  0  0  0  0  0  0  0  0  0  0
  -23.5100  -30.3540   21.3420 C   0  0  0  0  0  3  0  0  0  0  0  0
  -25.0140  -28.9700   19.8190 C   0  0  0  0  0  0  0  0  0  0  0  0
  -26.0130  -30.8370   21.1520 C   0  0  0  0  0  2  0  0  0  0  0  0
  -26.1510  -29.5130   20.4310 C   0  0  0  0  0  0  0  0  0  0  0  0
  -27.3840  -28.8320   20.3680 C   0  0  0  0  0  3  0  0  0  0  0  0
  -26.3240  -27.0610   19.0780 C   0  0  0  0  0  3  0  0  0  0  0  0
  -25.0940  -27.7410   19.1420 C   0  0  0  0  0  3  0  0  0  0  0  0
  -23.7360  -29.7690   19.9220 C   0  0  0  0  0  2  0  0  0  0  0  0
  -24.7490  -30.9740   21.9120 N   0  0  0  0  0  0  0  0  0  0  0  0
  -23.5840  -31.8910   23.6270 O   0  0  0  0  0  0  0  0  0  0  0  0
  -22.9090  -29.2480   22.2390 C   0  0  0  0  0  0  0  0  0  0  0  0
  -21.5900  -29.0320   22.1190 N   0  0  0  0  0  0  0  0  0  0  0  0
  -23.6270  -28.5890   22.9970 O   0  0  0  0  0  0  0  0  0  0  0  0
  -21.0710  -29.6200   21.4820 H   0  0  0  0  0  0  0  0  0  0  0  0
  -18.2570  -27.7300   22.6120 C   0  0  0  0  0  0  0  0  0  0  0  0
  -20.8160  -28.0200   22.8360 C   0  0  0  0  0  3  0  0  0  0  0  0
  -20.9300  -26.6410   22.1450 C   0  0  0  0  0  2  0  0  0  0  0  0
  -19.8060  -26.3760   21.1380 C   0  0  0  0  0  2  0  0  0  0  0  0
  -18.4410  -26.4410   21.8280 C   0  0  0  0  0  2  0  0  0  0  0  0
  -19.3730  -28.4790   23.0710 C   0  0  0  0  0  0  0  0  0  0  0  0
  -19.1480  -29.6890   23.7640 C   0  0  0  0  0  3  0  0  0  0  0  0
  -17.8400  -30.1490   24.0030 C   0  0  0  0  0  3  0  0  0  0  0  0
  -16.7390  -29.3960   23.5590 C   0  0  0  0  0  3  0  0  0  0  0  0
  -16.9480  -28.1890   22.8700 C   0  0  0  0  0  3  0  0  0  0  0  0
  -25.9360  -32.3400   23.7150 C   0  0  0  0  0  3  0  0  0  0  0  0
  -25.5830  -33.7100   24.1090 N   0  0  0  0  0  0  0  0  0  0  0  0
  -25.8810  -34.8060   23.3990 C   0  0  0  0  0  0  0  0  0  0  0  0
  -26.5520  -34.7720   22.3640 O   0  0  0  0  0  0  0  0  0  0  0  0
  -24.9830  -33.8080   24.9160 H   0  0  0  0  0  0  0  0  0  0  0  0
  -24.0880  -36.5490   23.1270 C   0  0  0  0  0  1  0  0  0  0  0  0
  -25.3460  -36.1550   23.9170 C   0  0  0  0  0  3  0  0  0  0  0  0
  -27.4470  -37.0810   24.7840 C   0  0  0  0  0  1  0  0  0  0  0  0
  -26.3400  -37.2480   23.8460 N   0  0  0  0  0  0  0  0  0  0  0  0
  -25.9010  -38.1460   24.0290 H   0  0  0  0  0  0  0  0  0  0  0  0
  -26.4810  -31.5250   24.9510 C   0  0  1  0  0  0  0  0  0  0  0  0
  -25.3970  -31.1910   26.0020 C   0  0  0  0  0  1  0  0  0  0  0  0
  -27.1170  -30.1940   24.4870 C   0  0  0  0  0  1  0  0  0  0  0  0
  -27.5990  -32.3270   25.6570 C   0  0  0  0  0  1  0  0  0  0  0  0
  1  3  2  0
  2  1  1  0
  4  2  1  0
  5  8  1  0
  6  5  2  0
  7 10  1  0
  8  1  1  0
  9  6  1  0
  9  7  2  0
 10  8  2  0
 10 11  1  0
 12 20  1  0
 13 18  1  0
 14 15  1  0
 14 13  1  0
 16 15  1  0
 16 25  1  0
 16 17  1  0
 18 12  1  0
 18 17  1  0
 19 12  2  0
 20  9  1  0
 20 21  1  0
 22 23  2  0
 23 42  1  0
 24 23  1  0
 24 27  1  0
 25 26  1  0
 25 22  1  0
 26 24  2  0
 27 28  1  0
 28 29  2  0
 30 33  1  0
 30 29  1  0
 31 30  2  0
 32 31  1  0
 32 27  2  0
 33 34  1  0
 34 39  2  0
 34 35  1  0
 35 36  2  0
 36 37  1  0
 37 41  1  0
 38 37  2  0
 39 38  1  0
 40 39  1  0
 42 43  1  0
 43 46  1  0
 43 45  1  0
 44 42  2  0
 47 22  1  0
 47 48  1  0
 49 47  1  0
 50 51  2  0
 51  2  1  0
 52 55  1  0
 52 50  1  0
 52 54  1  0
 54 53  1  0
 56 58  1  0
 56 55  1  0
 57 68  2  0
 58 63  1  0
 59 67  1  0
 59 69  1  0
 60 66  1  0
 60 62  1  0
 61 67  1  0
 62 61  1  0
 63 62  2  0
 64 65  1  0
 64 58  2  0
 65 60  2  0
 66 59  1  0
 67 57  1  0
 69 71  2  0
 70 69  1  0
 72 70  1  0
 73 82  2  0
 73 78  1  0
 74 70  1  0
 74 78  1  0
 75 74  1  0
 76 77  1  0
 76 75  1  0
 77 73  1  0
 78 79  2  0
 79 80  1  0
 81 80  2  0
 82 81  1  0
 83 57  1  0
 83 84  1  0
 83 93  1  0
 84 87  1  0
 85 89  1  0
 85 84  1  0
 86 85  2  0
 89 88  1  0
 91 89  1  0
 91 92  1  0
 91 90  1  0
 93 96  1  1
 93 94  1  0
 95 93  1  0
M  ISO  4  12 100  20 100  55 101  56 101
M  END
>  <TORSDO>  (51) 
F 21

>  <SCORE>  (51) 
-11.038

>  <name>  (51) 
50

>  <ligand_id>  (51) 
50

>  <original_smiles>  (51) 
[H]C(=NN([H])C(=O)c1c([H])c([H])c(N([H])C(=O)N2C([H])([H])C([H])([H])C([H])([H])C([H])(n3nc(-c4c([H])c([H])c(Oc5c([H])c([H])c(F)c([H])c5F)c([H])c4[H])c(C(=O)N([H])[H])c3N([H])[H])C2([H])[H])c([H])c1F)C([H])(OC([H])([H])[H])C([H])([H])Oc1c([H])c([H])c2c(c1[H])C([H])([H])N(C(=O)C([H])(N([H])C(=O)C([H])(N([H])C([H])([H])[H])C([H])([H])[H])C(C([H])([H])[H])(C([H])([H])[H])C([H])([H])[H])C([H])(C(=O)N([H])C1([H])c3c([H])c([H])c([H])c([H])c3C([H])([H])C([H])([H])C1([H])[H])C2([H])[H]

>  <smiles>  (51) 
[H]C(=NN([H])C(=O)c1c([H])c([H])c(N([H])C(=O)N2C([H])([H])C([H])([H])C([H])([H])C([H])(n3nc(-c4c([H])c([H])c(Oc5c([H])c([H])c(F)c([H])c5F)c([H])c4[H])c(C(=O)N([H])[H])c3N([H])[H])C2([H])[H])c([H])c1F)C([H])(OC([H])([H])[H])C([H])([H])Oc1c([H])c([H])c2c(c1[H])C([H])([H])N(C(=O)C([H])(N([H])C(=O)C([H])(N([H])C([H])([H])[H])C([H])([H])[H])C(C([H])([H])[H])(C([H])([H])[H])C([H])([H])[H])C([H])(C(=O)N([H])C1([H])c3c([H])c([H])c([H])c([H])c3C([H])([H])C([H])([H])C1([H])[H])C2([H])[H]

$$$$
51:0:0
     RDKit          3D

 95104  0  0  1  0  0  0  0  0999 V2000
  -29.2110  -23.9760   21.7880 C   0  0  0  0  0  0  0  0  0  0  0  0
  -28.9370  -24.1680   20.3810 C   0  0  0  0  0  0  0  0  0  0  0  0
  -29.0430  -24.8930   22.7560 C   0  0  0  0  0  1  0  0  0  0  0  0
  -28.6660  -25.3560   19.7130 C   0  0  0  0  0  3  0  0  0  0  0  0
  -29.6850  -22.5490   22.0620 C   0  0  0  0  0  3  0  0  0  0  0  0
  -29.0840  -22.7500   19.7440 C   0  0  0  0  0  3  0  0  0  0  0  0
  -28.5960  -25.3790   18.1920 C   0  0  0  0  0  1  0  0  0  0  0  0
  -29.5770  -21.8090   20.7960 N   0  0  0  0  0  0  0  0  0  0  0  0
  -30.6250  -19.6840   21.6380 C   0  0  0  0  0  3  0  0  0  0  0  0
  -30.7770  -18.2610   21.6530 C   0  0  0  0  0  3  0  0  0  0  0  0
  -29.0520  -19.5170   19.8420 C   0  0  0  0  0  3  0  0  0  0  0  0
  -29.7510  -20.3680   20.7430 C   0  0  0  0  0  0  0  0  0  0  0  0
  -30.0380  -17.4180   20.7840 C   0  0  0  0  0  0  0  0  0  0  0  0
  -29.1610  -18.0780   19.8740 C   0  0  0  0  0  0  0  0  0  0  0  0
  -30.8420  -14.9240   20.6790 C   0  0  0  0  0  0  0  0  0  0  0  0
  -30.7370  -12.6590   19.6330 C   0  0  0  0  0  2  0  0  0  0  0  0
  -29.8350  -12.7470   18.3800 C   0  0  0  0  0  2  0  0  0  0  0  0
  -28.3480  -12.5680   18.7530 C   0  0  0  0  0  2  0  0  0  0  0  0
  -27.9270  -13.4400   19.9650 C   0  0  0  0  0  3  0  0  0  0  0  0
  -28.9430  -13.3100   21.1220 C   0  0  0  0  0  2  0  0  0  0  0  0
  -30.2660  -13.6790   20.5920 N   0  0  0  0  0  0  0  0  0  0  0  0
  -32.0250  -15.1010   20.3750 O   0  0  0  0  0  0  0  0  0  0  0  0
  -29.9700  -15.9560   20.9330 N   0  0  0  0  0  0  0  0  0  0  0  0
  -29.0270  -15.6150   21.0280 H   0  0  0  0  0  0  0  0  0  0  0  0
  -25.5080  -14.0290   20.5930 C   0  0  0  0  0  0  0  0  0  0  0  0
  -24.4310  -13.2500   20.9230 C   0  0  0  0  0  0  0  0  0  0  0  0
  -24.9000  -11.9000   20.9100 C   0  0  0  0  0  0  0  0  0  0  0  0
  -26.5640  -13.1520   20.3990 N   0  0  0  0  0  0  0  0  0  0  0  0
  -26.2020  -11.8680   20.6490 N   0  0  0  0  0  0  0  0  0  0  0  0
  -24.1730  -10.6340   21.0710 C   0  0  0  0  0  0  0  0  0  0  0  0
  -24.5520   -9.6840   22.0430 C   0  0  0  0  0  3  0  0  0  0  0  0
  -23.8260   -8.4820   22.1910 C   0  0  0  0  0  3  0  0  0  0  0  0
  -22.7060   -8.2230   21.3650 C   0  0  0  0  0  0  0  0  0  0  0  0
  -22.3470   -9.1630   20.3840 C   0  0  0  0  0  3  0  0  0  0  0  0
  -23.0740  -10.3560   20.2340 C   0  0  0  0  0  3  0  0  0  0  0  0
  -21.9580   -7.0730   21.4200 O   0  0  0  0  0  0  0  0  0  0  0  0
  -21.7990   -6.3730   22.5890 C   0  0  0  0  0  0  0  0  0  0  0  0
  -21.1870   -6.9460   23.7250 C   0  0  0  0  0  3  0  0  0  0  0  0
  -20.9820   -6.1680   24.8830 C   0  0  0  0  0  3  0  0  0  0  0  0
  -21.3780   -4.8170   24.9040 C   0  0  0  0  0  0  0  0  0  0  0  0
  -21.9830   -4.2440   23.7720 C   0  0  0  0  0  3  0  0  0  0  0  0
  -22.1900   -5.0180   22.6160 C   0  0  0  0  0  0  0  0  0  0  0  0
  -22.7530   -4.4540   21.5210 F   0  0  0  0  0  0  0  0  0  0  0  0
  -21.1740   -4.0680   26.0120 F   0  0  0  0  0  0  0  0  0  0  0  0
  -23.0220  -13.7210   21.1410 C   0  0  0  0  0  0  0  0  0  0  0  0
  -22.2680  -13.0280   21.9870 N   0  0  0  0  0  0  0  0  0  0  0  0
  -22.5960  -14.7370   20.5950 O   0  0  0  0  0  0  0  0  0  0  0  0
  -22.6240  -12.2050   22.4520 H   0  0  0  0  0  0  0  0  0  0  0  0
  -21.3210  -13.3260   22.1760 H   0  0  0  0  0  0  0  0  0  0  0  0
  -25.6730  -15.4000   20.4200 N   0  0  0  0  0  0  0  0  0  0  0  0
  -24.8950  -16.0460   20.5020 H   0  0  0  0  0  0  0  0  0  0  0  0
  -26.5220  -15.8440   20.0950 H   0  0  0  0  0  0  0  0  0  0  0  0
  -27.5380  -17.8270   18.1120 C   0  0  0  0  0  1  0  0  0  0  0  0
  -28.4150  -17.2410   19.0660 O   0  0  0  0  0  0  0  0  0  0  0  0
  -28.5890  -26.6620   20.2750 O   0  0  0  0  0  0  0  0  0  0  0  0
  -24.6650  -31.9700   23.2580 C   0  0  0  0  0  0  0  0  0  0  0  0
  -27.4370  -27.4790   20.2070 C   0  0  0  0  0  0  0  0  0  0  0  0
  -23.5190  -30.5500   21.5960 C   0  0  0  0  0  3  0  0  0  0  0  0
  -25.0260  -29.0410   20.1840 C   0  0  0  0  0  0  0  0  0  0  0  0
  -26.0540  -30.9290   21.4480 C   0  0  0  0  0  2  0  0  0  0  0  0
  -26.1780  -29.5560   20.7930 C   0  0  0  0  0  0  0  0  0  0  0  0
  -27.3830  -28.7860   20.7940 C   0  0  0  0  0  3  0  0  0  0  0  0
  -26.2440  -27.0110   19.6080 C   0  0  0  0  0  3  0  0  0  0  0  0
  -25.0620  -27.7750   19.5850 C   0  0  0  0  0  3  0  0  0  0  0  0
  -23.7690  -29.8860   20.2170 C   0  0  0  0  0  2  0  0  0  0  0  0
  -24.7640  -31.1670   22.1580 N   0  0  0  0  0  0  0  0  0  0  0  0
  -23.5670  -32.2180   23.7770 O   0  0  0  0  0  0  0  0  0  0  0  0
  -22.8680  -29.5140   22.5430 C   0  0  0  0  0  0  0  0  0  0  0  0
  -21.5460  -29.3130   22.4040 N   0  0  0  0  0  0  0  0  0  0  0  0
  -23.5510  -28.8930   23.3610 O   0  0  0  0  0  0  0  0  0  0  0  0
  -21.0530  -29.8680   21.7180 H   0  0  0  0  0  0  0  0  0  0  0  0
  -18.1810  -28.0780   22.8930 C   0  0  0  0  0  0  0  0  0  0  0  0
  -20.7370  -28.3550   23.1610 C   0  0  0  0  0  3  0  0  0  0  0  0
  -20.8510  -26.9350   22.5600 C   0  0  0  0  0  2  0  0  0  0  0  0
  -19.7480  -26.6190   21.5430 C   0  0  0  0  0  2  0  0  0  0  0  0
  -18.3670  -26.7410   22.1940 C   0  0  0  0  0  2  0  0  0  0  0  0
  -19.2940  -28.8420   23.3330 C   0  0  0  0  0  0  0  0  0  0  0  0
  -19.0640  -30.0920   23.9470 C   0  0  0  0  0  3  0  0  0  0  0  0
  -17.7550  -30.5780   24.1260 C   0  0  0  0  0  3  0  0  0  0  0  0
  -16.6570  -29.8100   23.7020 C   0  0  0  0  0  3  0  0  0  0  0  0
  -16.8700  -28.5610   23.0910 C   0  0  0  0  0  3  0  0  0  0  0  0
  -25.9220  -32.6310   23.9020 C   0  0  0  0  0  3  0  0  0  0  0  0
  -25.5810  -34.0280   24.2080 N   0  0  0  0  0  0  0  0  0  0  0  0
  -25.9120  -35.0790   23.4460 C   0  0  0  0  0  0  0  0  0  0  0  0
  -26.6060  -34.9760   22.4300 O   0  0  0  0  0  0  0  0  0  0  0  0
  -24.9660  -34.1810   24.9940 H   0  0  0  0  0  0  0  0  0  0  0  0
  -24.1740  -36.8480   23.0230 C   0  0  0  0  0  1  0  0  0  0  0  0
  -25.3930  -36.4640   23.8780 C   0  0  0  0  0  3  0  0  0  0  0  0
  -27.4800  -37.3890   24.7810 C   0  0  0  0  0  1  0  0  0  0  0  0
  -26.4150  -37.5300   23.7920 N   0  0  0  0  0  0  0  0  0  0  0  0
  -25.9910  -38.4460   23.9090 H   0  0  0  0  0  0  0  0  0  0  0  0
  -26.4200  -31.8850   25.1990 C   0  0  1  0  0  0  0  0  0  0  0  0
  -25.3050  -31.6340   26.2410 C   0  0  0  0  0  1  0  0  0  0  0  0
  -27.0430  -30.5160   24.8380 C   0  0  0  0  0  1  0  0  0  0  0  0
  -27.5350  -32.7110   25.8830 C   0  0  0  0  0  1  0  0  0  0  0  0
  1  5  2  0
  1  3  1  0
  2  1  1  0
  4  7  1  0
  4 55  1  0
  4  2  1  0
  6  2  2  0
  6  8  1  0
  8  5  1  0
  9 10  1  0
 11 14  2  0
 11 12  1  0
 12  8  1  0
 12  9  2  0
 13 23  1  0
 13 10  2  0
 14 13  1  0
 15 23  1  0
 16 21  1  0
 17 18  1  0
 17 16  1  0
 19 18  1  0
 19 28  1  0
 19 20  1  0
 21 15  1  0
 21 20  1  0
 22 15  2  0
 23 24  1  0
 25 26  2  0
 26 45  1  0
 27 26  1  0
 27 30  1  0
 28 25  1  0
 28 29  1  0
 29 27  2  0
 30 31  1  0
 31 32  2  0
 33 36  1  0
 33 32  1  0
 34 33  2  0
 35 34  1  0
 35 30  2  0
 36 37  1  0
 37 42  2  0
 37 38  1  0
 38 39  2  0
 39 40  1  0
 40 44  1  0
 41 40  2  0
 42 41  1  0
 43 42  1  0
 45 46  1  0
 46 49  1  0
 46 48  1  0
 47 45  2  0
 50 51  1  0
 50 25  1  0
 52 50  1  0
 53 54  1  0
 54 14  1  0
 56 67  2  0
 57 55  1  0
 57 62  1  0
 58 66  1  0
 58 68  1  0
 59 65  1  0
 59 61  1  0
 60 66  1  0
 61 62  2  0
 61 60  1  0
 63 57  2  0
 64 63  1  0
 64 59  2  0
 65 58  1  0
 66 56  1  0
 68 70  2  0
 69 68  1  0
 71 69  1  0
 72 81  2  0
 72 77  1  0
 73 69  1  0
 73 77  1  0
 74 73  1  0
 75 76  1  0
 75 74  1  0
 76 72  1  0
 77 78  2  0
 78 79  1  0
 80 79  2  0
 81 80  1  0
 82 56  1  0
 82 83  1  0
 82 92  1  0
 83 86  1  0
 84 88  1  0
 84 83  1  0
 85 84  2  0
 88 87  1  0
 90 88  1  0
 90 91  1  0
 90 89  1  0
 92 95  1  1
 92 93  1  0
 94 92  1  0
M  ISO  4   4 101  15 100  23 100  55 101
M  END
>  <TORSDO>  (52) 
F 18

>  <SCORE>  (52) 
-14.762

>  <name>  (52) 
51

>  <ligand_id>  (52) 
51

>  <original_smiles>  (52) 
[H]C([H])=C1C(=C(Oc2c([H])c([H])c3c(c2[H])C([H])([H])N(C(=O)C([H])(N([H])C(=O)C([H])(N([H])C([H])([H])[H])C([H])([H])[H])C(C([H])([H])[H])(C([H])([H])[H])C([H])([H])[H])C([H])(C(=O)N([H])C2([H])c4c([H])c([H])c([H])c([H])c4C([H])([H])C([H])([H])C2([H])[H])C3([H])[H])C([H])([H])[H])C([H])([H])N(c2c([H])c([H])c(N([H])C(=O)N3C([H])([H])C([H])([H])C([H])([H])C([H])(n4nc(-c5c([H])c([H])c(Oc6c([H])c([H])c(F)c([H])c6F)c([H])c5[H])c(C(=O)N([H])[H])c4N([H])[H])C3([H])[H])c(OC([H])([H])[H])c2[H])C1([H])[H]

>  <smiles>  (52) 
[H]C([H])=C1C(=C(Oc2c([H])c([H])c3c(c2[H])C([H])([H])N(C(=O)C([H])(N([H])C(=O)C([H])(N([H])C([H])([H])[H])C([H])([H])[H])C(C([H])([H])[H])(C([H])([H])[H])C([H])([H])[H])C([H])(C(=O)N([H])C2([H])c4c([H])c([H])c([H])c([H])c4C([H])([H])C([H])([H])C2([H])[H])C3([H])[H])C([H])([H])[H])C([H])([H])N(c2c([H])c([H])c(N([H])C(=O)N3C([H])([H])C([H])([H])C([H])([H])C([H])(n4nc(-c5c([H])c([H])c(Oc6c([H])c([H])c(F)c([H])c6F)c([H])c5[H])c(C(=O)N([H])[H])c4N([H])[H])C3([H])[H])c(OC([H])([H])[H])c2[H])C1([H])[H]

$$$$
52:0:0
     RDKit          3D

103112  0  0  1  0  0  0  0  0999 V2000
  -28.1260  -18.2760   19.8990 C   0  0  0  0  0  3  0  0  0  0  0  0
  -28.5290  -16.0130   20.6760 C   0  0  0  0  0  3  0  0  0  0  0  0
  -30.3250  -17.6610   20.7710 C   0  0  0  0  0  3  0  0  0  0  0  0
  -27.6530  -16.9700   20.1410 C   0  0  0  0  0  0  0  0  0  0  0  0
  -29.4410  -18.6830   20.2330 C   0  0  0  0  0  0  0  0  0  0  0  0
  -29.8700  -16.3070   20.9950 C   0  0  0  0  0  0  0  0  0  0  0  0
  -31.4110  -14.2340   21.2180 C   0  0  0  0  0  0  0  0  0  0  0  0
  -31.6910  -11.8290   20.6220 C   0  0  0  0  0  2  0  0  0  0  0  0
  -31.1630  -11.6010   19.1880 C   0  0  0  0  0  2  0  0  0  0  0  0
  -29.6410  -11.3550   19.1880 C   0  0  0  0  0  2  0  0  0  0  0  0
  -28.8700  -12.3950   20.0440 C   0  0  0  0  0  3  0  0  0  0  0  0
  -29.5320  -12.5520   21.4320 C   0  0  0  0  0  2  0  0  0  0  0  0
  -30.9390  -12.9460   21.2270 N   0  0  0  0  0  0  0  0  0  0  0  0
  -32.5790  -14.4990   20.9160 O   0  0  0  0  0  0  0  0  0  0  0  0
  -30.5380  -15.1850   21.6490 N   0  0  0  0  0  0  0  0  0  0  0  0
  -29.8780  -14.7010   22.2380 H   0  0  0  0  0  0  0  0  0  0  0  0
  -26.3550  -12.7100   19.5990 C   0  0  0  0  0  0  0  0  0  0  0  0
  -25.2620  -11.9620   19.9430 C   0  0  0  0  0  0  0  0  0  0  0  0
  -25.7650  -10.8560   20.6950 C   0  0  0  0  0  0  0  0  0  0  0  0
  -27.4510  -12.0620   20.1490 N   0  0  0  0  0  0  0  0  0  0  0  0
  -27.0770  -10.9660   20.8560 N   0  0  0  0  0  0  0  0  0  0  0  0
  -25.0780   -9.6690   21.2190 C   0  0  0  0  0  0  0  0  0  0  0  0
  -24.8110   -9.5180   22.5970 C   0  0  0  0  0  3  0  0  0  0  0  0
  -24.1300   -8.3760   23.0730 C   0  0  0  0  0  3  0  0  0  0  0  0
  -23.7060   -7.3720   22.1690 C   0  0  0  0  0  0  0  0  0  0  0  0
  -23.9960   -7.5170   20.8010 C   0  0  0  0  0  3  0  0  0  0  0  0
  -24.6780   -8.6510   20.3290 C   0  0  0  0  0  3  0  0  0  0  0  0
  -23.0630   -6.2180   22.5450 O   0  0  0  0  0  0  0  0  0  0  0  0
  -22.0510   -6.2270   23.4710 C   0  0  0  0  0  0  0  0  0  0  0  0
  -20.8570   -6.9510   23.2640 C   0  0  0  0  0  3  0  0  0  0  0  0
  -19.8140   -6.8750   24.2090 C   0  0  0  0  0  3  0  0  0  0  0  0
  -19.9600   -6.0740   25.3560 C   0  0  0  0  0  0  0  0  0  0  0  0
  -21.1470   -5.3480   25.5620 C   0  0  0  0  0  3  0  0  0  0  0  0
  -22.1880   -5.4240   24.6190 C   0  0  0  0  0  0  0  0  0  0  0  0
  -23.3200   -4.7050   24.8130 F   0  0  0  0  0  0  0  0  0  0  0  0
  -18.9570   -5.9950   26.2610 F   0  0  0  0  0  0  0  0  0  0  0  0
  -23.8420  -12.2030   19.5140 C   0  0  0  0  0  0  0  0  0  0  0  0
  -22.8770  -11.8220   20.3440 N   0  0  0  0  0  0  0  0  0  0  0  0
  -23.5810  -12.7750   18.4570 O   0  0  0  0  0  0  0  0  0  0  0  0
  -23.0850  -11.3700   21.2210 H   0  0  0  0  0  0  0  0  0  0  0  0
  -21.9110  -11.9840   20.0950 H   0  0  0  0  0  0  0  0  0  0  0  0
  -26.5090  -13.8700   18.8490 N   0  0  0  0  0  0  0  0  0  0  0  0
  -25.7140  -14.3970   18.5040 H   0  0  0  0  0  0  0  0  0  0  0  0
  -27.3820  -14.3650   18.7230 H   0  0  0  0  0  0  0  0  0  0  0  0
  -29.8180  -22.4130   19.6210 C   0  0  0  0  0  0  0  0  0  0  0  0
  -31.0930  -21.8840   19.1980 C   0  0  0  0  0  0  0  0  0  0  0  0
  -29.0740  -21.2500   20.1390 C   0  0  0  0  0  0  0  0  0  0  0  0
  -32.1060  -22.5850   18.6600 C   0  0  0  0  0  2  0  0  0  0  0  0
  -29.4160  -23.7320   19.5280 C   0  0  0  0  0  3  0  0  0  0  0  0
  -31.1450  -20.3970   19.4320 C   0  0  0  0  0  2  0  0  0  0  0  0
  -29.8240  -20.0870   19.9780 N   0  0  0  0  0  0  0  0  0  0  0  0
  -27.9590  -21.3210   20.6680 O   0  0  0  0  0  0  0  0  0  0  0  0
  -28.0920  -24.4550   19.9010 C   0  0  0  0  0  2  0  0  0  0  0  0
  -28.2490  -25.8660   20.3180 O   0  0  0  0  0  0  0  0  0  0  0  0
  -24.5800  -31.3210   23.2920 C   0  0  0  0  0  0  0  0  0  0  0  0
  -27.1430  -26.7230   20.2740 C   0  0  0  0  0  0  0  0  0  0  0  0
  -23.3990  -30.0130   21.5600 C   0  0  0  0  0  3  0  0  0  0  0  0
  -24.8470  -28.4220   20.1820 C   0  0  0  0  0  0  0  0  0  0  0  0
  -25.9540  -30.2210   21.5120 C   0  0  0  0  0  2  0  0  0  0  0  0
  -26.0040  -28.8530   20.8440 C   0  0  0  0  0  0  0  0  0  0  0  0
  -27.1550  -28.0150   20.8790 C   0  0  0  0  0  3  0  0  0  0  0  0
  -25.9700  -26.3420   19.5850 C   0  0  0  0  0  3  0  0  0  0  0  0
  -24.8320  -27.1710   19.5450 C   0  0  0  0  0  3  0  0  0  0  0  0
  -23.6510  -29.3510   20.1800 C   0  0  0  0  0  2  0  0  0  0  0  0
  -24.6610  -30.5340   22.1800 N   0  0  0  0  0  0  0  0  0  0  0  0
  -23.4850  -31.6390   23.7760 O   0  0  0  0  0  0  0  0  0  0  0  0
  -22.6410  -29.0130   22.4640 C   0  0  0  0  0  0  0  0  0  0  0  0
  -21.3150  -28.9110   22.2690 N   0  0  0  0  0  0  0  0  0  0  0  0
  -23.2440  -28.3320   23.2960 O   0  0  0  0  0  0  0  0  0  0  0  0
  -20.8900  -29.5110   21.5760 H   0  0  0  0  0  0  0  0  0  0  0  0
  -17.8540  -27.9090   22.5950 C   0  0  0  0  0  0  0  0  0  0  0  0
  -20.4100  -28.0030   22.9760 C   0  0  0  0  0  3  0  0  0  0  0  0
  -20.4510  -26.5860   22.3590 C   0  0  0  0  0  2  0  0  0  0  0  0
  -19.3750  -26.3610   21.2920 C   0  0  0  0  0  2  0  0  0  0  0  0
  -17.9780  -26.5720   21.8830 C   0  0  0  0  0  2  0  0  0  0  0  0
  -18.9970  -28.5890   23.0940 C   0  0  0  0  0  0  0  0  0  0  0  0
  -18.8300  -29.8450   23.7160 C   0  0  0  0  0  3  0  0  0  0  0  0
  -17.5510  -30.4190   23.8450 C   0  0  0  0  0  3  0  0  0  0  0  0
  -16.4220  -29.7350   23.3620 C   0  0  0  0  0  3  0  0  0  0  0  0
  -16.5740  -28.4810   22.7440 C   0  0  0  0  0  3  0  0  0  0  0  0
  -25.8580  -31.8750   23.9950 C   0  0  0  0  0  3  0  0  0  0  0  0
  -25.6350  -33.3040   24.2560 N   0  0  0  0  0  0  0  0  0  0  0  0
  -26.1690  -34.3010   23.5380 C   0  0  0  0  0  0  0  0  0  0  0  0
  -26.9670  -34.1100   22.6160 O   0  0  0  0  0  0  0  0  0  0  0  0
  -24.9520  -33.5340   24.9610 H   0  0  0  0  0  0  0  0  0  0  0  0
  -24.7050  -36.2430   22.8950 C   0  0  0  0  0  1  0  0  0  0  0  0
  -25.7530  -35.7410   23.9000 C   0  0  0  0  0  3  0  0  0  0  0  0
  -27.8020  -36.4350   25.0610 C   0  0  0  0  0  1  0  0  0  0  0  0
  -26.8890  -36.6870   23.9500 N   0  0  0  0  0  0  0  0  0  0  0  0
  -26.5560  -37.6440   24.0260 H   0  0  0  0  0  0  0  0  0  0  0  0
  -26.2130  -31.1150   25.3310 C   0  0  1  0  0  0  0  0  0  0  0  0
  -25.0070  -30.9310   26.2820 C   0  0  0  0  0  1  0  0  0  0  0  0
  -26.7890  -29.7130   25.0270 C   0  0  0  0  0  1  0  0  0  0  0  0
  -27.3120  -31.8880   26.0980 C   0  0  0  0  0  1  0  0  0  0  0  0
  -25.6080  -16.0400   20.7170 C   0  0  0  0  0  3  0  0  0  0  0  0
  -26.3520  -16.5610   19.8230 N   0  0  0  0  0  0  0  0  0  0  0  0
  -24.0060  -15.0220   19.0400 C   0  0  0  0  0  1  0  0  0  0  0  0
  -24.1690  -15.6290   20.4470 C   0  0  0  0  0  3  0  0  0  0  0  0
  -23.7030  -14.6600   21.5490 C   0  0  0  0  0  0  0  0  0  0  0  0
  -22.6680  -15.0210   22.3010 N   0  0  0  0  0  0  0  0  0  0  0  0
  -24.2530  -13.5720   21.7210 O   0  0  0  0  0  0  0  0  0  0  0  0
  -22.2120  -15.9110   22.1590 H   0  0  0  0  0  0  0  0  0  0  0  0
  -22.3200  -14.4010   23.0200 H   0  0  0  0  0  0  0  0  0  0  0  0
  1  4  2  0
  1  5  1  0
  2  6  2  0
  3  6  1  0
  4  2  1  0
  5  3  2  0
  6 15  1  0
  7 13  1  0
  7 15  1  0
  8 13  1  0
  9 10  1  0
  9  8  1  0
 11 10  1  0
 11 20  1  0
 11 12  1  0
 13 12  1  0
 14  7  2  0
 15 16  1  0
 17 18  2  0
 17 20  1  0
 18 19  1  0
 19 21  2  0
 19 22  1  0
 20 21  1  0
 22 23  1  0
 23 24  2  0
 25 28  1  0
 25 24  1  0
 26 25  2  0
 27 26  1  0
 27 22  2  0
 28 29  1  0
 29 34  1  0
 30 29  2  0
 30 31  1  0
 31 32  2  0
 32 33  1  0
 32 36  1  0
 34 35  1  0
 34 33  2  0
 37 18  1  0
 37 38  1  0
 38 40  1  0
 39 37  2  0
 41 38  1  0
 42 17  1  0
 43 42  1  0
 44 42  1  0
 45 47  1  0
 46 50  1  0
 46 45  1  0
 47 52  2  0
 48 46  2  0
 49 45  2  0
 49 53  1  0
 50 51  1  0
 51 47  1  0
 51  5  1  0
 53 54  1  0
 55 66  2  0
 56 54  1  0
 56 61  1  0
 57 65  1  0
 57 67  1  0
 58 60  1  0
 59 65  1  0
 60 61  2  0
 60 59  1  0
 62 56  2  0
 63 62  1  0
 63 58  2  0
 64 58  1  0
 64 57  1  0
 65 55  1  0
 67 69  2  0
 68 67  1  0
 70 68  1  0
 71 80  2  0
 71 76  1  0
 72 68  1  0
 72 76  1  0
 73 72  1  0
 74 75  1  0
 74 73  1  0
 75 71  1  0
 76 77  2  0
 77 78  1  0
 79 78  2  0
 80 79  1  0
 81 55  1  0
 81 82  1  0
 81 91  1  0
 82 85  1  0
 83 87  1  0
 83 82  1  0
 84 83  2  0
 87 86  1  0
 87 89  1  0
 89 90  1  0
 89 88  1  0
 91 94  1  1
 91 92  1  0
 93 91  1  0
 96  4  1  0
 96 95  2  0
 98 97  1  0
 98 95  1  0
 98 99  1  0
 99101  2  0
 99100  1  0
100103  1  0
102100  1  0
M  ISO  4   7 100  15 100  53 101  54 101
M  END
>  <TORSDO>  (53) 
F 21

>  <SCORE>  (53) 
-0.227

>  <name>  (53) 
52

>  <ligand_id>  (53) 
52

>  <original_smiles>  (53) 
[H]C(=Nc1c([H])c(N([H])C(=O)N2C([H])([H])C([H])([H])C([H])([H])C([H])(n3nc(-c4c([H])c([H])c(Oc5c([H])c([H])c(F)c([H])c5F)c([H])c4[H])c(C(=O)N([H])[H])c3N([H])[H])C2([H])[H])c([H])c(N2C(=O)C(=C([H])C([H])([H])Oc3c([H])c([H])c4c(c3[H])C([H])([H])N(C(=O)C([H])(N([H])C(=O)C([H])(N([H])C([H])([H])[H])C([H])([H])[H])C(C([H])([H])[H])(C([H])([H])[H])C([H])([H])[H])C([H])(C(=O)N([H])C3([H])c5c([H])c([H])c([H])c([H])c5C([H])([H])C([H])([H])C3([H])[H])C4([H])[H])C(=C([H])[H])C2([H])[H])c1[H])C([H])(C(=O)N([H])[H])C([H])([H])[H]

>  <smiles>  (53) 
[H]C(=Nc1c([H])c(N([H])C(=O)N2C([H])([H])C([H])([H])C([H])([H])C([H])(n3nc(-c4c([H])c([H])c(Oc5c([H])c([H])c(F)c([H])c5F)c([H])c4[H])c(C(=O)N([H])[H])c3N([H])[H])C2([H])[H])c([H])c(N2C(=O)C(=C([H])C([H])([H])Oc3c([H])c([H])c4c(c3[H])C([H])([H])N(C(=O)C([H])(N([H])C(=O)C([H])(N([H])C([H])([H])[H])C([H])([H])[H])C(C([H])([H])[H])(C([H])([H])[H])C([H])([H])[H])C([H])(C(=O)N([H])C3([H])c5c([H])c([H])c([H])c([H])c5C([H])([H])C([H])([H])C3([H])[H])C4([H])[H])C(=C([H])[H])C2([H])[H])c1[H])C([H])(C(=O)N([H])[H])C([H])([H])[H]

$$$$
53:0:0
     RDKit          3D

 95104  0  0  1  0  0  0  0  0999 V2000
  -28.6280  -23.7600   20.0440 C   0  0  0  0  0  0  0  0  0  0  0  0
  -28.8140  -23.3550   21.4190 C   0  0  0  0  0  0  0  0  0  0  0  0
  -28.8230  -22.4570   19.2980 C   0  0  0  0  0  0  0  0  0  0  0  0
  -28.6820  -24.1630   22.4860 C   0  0  0  0  0  2  0  0  0  0  0  0
  -28.3470  -25.0380   19.5020 C   0  0  0  0  0  0  0  0  0  0  0  0
  -29.1370  -21.8600   21.5170 C   0  0  0  0  0  2  0  0  0  0  0  0
  -28.2050  -25.2440   17.9940 C   0  0  0  0  0  1  0  0  0  0  0  0
  -29.1800  -21.3860   20.1290 N   0  0  0  0  0  0  0  0  0  0  0  0
  -28.6650  -22.3140   18.0800 O   0  0  0  0  0  0  0  0  0  0  0  0
  -30.5240  -19.9580   18.5910 C   0  0  0  0  0  3  0  0  0  0  0  0
  -31.0710  -18.7560   18.1100 C   0  0  0  0  0  3  0  0  0  0  0  0
  -29.5060  -18.7060   20.4050 C   0  0  0  0  0  3  0  0  0  0  0  0
  -29.6950  -20.0100   19.7380 C   0  0  0  0  0  0  0  0  0  0  0  0
  -30.0690  -17.4220   19.9270 C   0  0  0  0  0  0  0  0  0  0  0  0
  -30.8320  -17.5190   18.7340 C   0  0  0  0  0  0  0  0  0  0  0  0
  -31.3170  -16.4180   18.1120 F   0  0  0  0  0  0  0  0  0  0  0  0
  -30.5710  -14.8560   20.3940 C   0  0  0  0  0  0  0  0  0  0  0  0
  -30.3950  -12.5320   19.4760 C   0  0  0  0  0  2  0  0  0  0  0  0
  -29.4960  -12.5460   18.2190 C   0  0  0  0  0  2  0  0  0  0  0  0
  -28.0150  -12.3800   18.6120 C   0  0  0  0  0  2  0  0  0  0  0  0
  -27.5990  -13.2990   19.7930 C   0  0  0  0  0  3  0  0  0  0  0  0
  -28.6310  -13.2800   20.9420 C   0  0  0  0  0  2  0  0  0  0  0  0
  -29.9330  -13.6280   20.3640 N   0  0  0  0  0  0  0  0  0  0  0  0
  -31.7850  -14.8820   20.1810 O   0  0  0  0  0  0  0  0  0  0  0  0
  -29.8280  -16.0450   20.5060 N   0  0  0  0  0  0  0  0  0  0  0  0
  -28.9060  -15.9090   20.8920 H   0  0  0  0  0  0  0  0  0  0  0  0
  -25.1940  -13.8840   20.4590 C   0  0  0  0  0  0  0  0  0  0  0  0
  -24.1220  -13.1120   20.8160 C   0  0  0  0  0  0  0  0  0  0  0  0
  -24.5920  -11.7620   20.8210 C   0  0  0  0  0  0  0  0  0  0  0  0
  -26.2470  -13.0070   20.2620 N   0  0  0  0  0  0  0  0  0  0  0  0
  -25.8910  -11.7260   20.5460 N   0  0  0  0  0  0  0  0  0  0  0  0
  -23.8650  -10.4990   21.0130 C   0  0  0  0  0  0  0  0  0  0  0  0
  -24.2780   -9.5450   21.9700 C   0  0  0  0  0  3  0  0  0  0  0  0
  -23.5490   -8.3490   22.1510 C   0  0  0  0  0  3  0  0  0  0  0  0
  -22.3920   -8.0990   21.3750 C   0  0  0  0  0  0  0  0  0  0  0  0
  -21.9970   -9.0420   20.4090 C   0  0  0  0  0  3  0  0  0  0  0  0
  -22.7270  -10.2280   20.2260 C   0  0  0  0  0  3  0  0  0  0  0  0
  -21.6400   -6.9540   21.4620 O   0  0  0  0  0  0  0  0  0  0  0  0
  -21.5720   -6.2210   22.6200 C   0  0  0  0  0  0  0  0  0  0  0  0
  -21.1320   -6.7890   23.8350 C   0  0  0  0  0  3  0  0  0  0  0  0
  -21.0120   -5.9850   24.9860 C   0  0  0  0  0  3  0  0  0  0  0  0
  -21.3230   -4.6130   24.9220 C   0  0  0  0  0  0  0  0  0  0  0  0
  -21.7560   -4.0450   23.7130 C   0  0  0  0  0  3  0  0  0  0  0  0
  -21.8770   -4.8460   22.5630 C   0  0  0  0  0  0  0  0  0  0  0  0
  -22.2740   -4.2880   21.3940 F   0  0  0  0  0  0  0  0  0  0  0  0
  -21.1990   -3.8390   26.0260 F   0  0  0  0  0  0  0  0  0  0  0  0
  -22.7160  -13.5880   21.0390 C   0  0  0  0  0  0  0  0  0  0  0  0
  -21.9670  -12.9050   21.8980 N   0  0  0  0  0  0  0  0  0  0  0  0
  -22.2890  -14.6000   20.4860 O   0  0  0  0  0  0  0  0  0  0  0  0
  -22.3240  -12.0860   22.3680 H   0  0  0  0  0  0  0  0  0  0  0  0
  -21.0220  -13.2070   22.0910 H   0  0  0  0  0  0  0  0  0  0  0  0
  -25.3580  -15.2520   20.2580 N   0  0  0  0  0  0  0  0  0  0  0  0
  -24.5880  -15.9080   20.3280 H   0  0  0  0  0  0  0  0  0  0  0  0
  -26.2050  -15.6750   19.8980 H   0  0  0  0  0  0  0  0  0  0  0  0
  -28.2920  -26.3150   20.1770 O   0  0  0  0  0  0  0  0  0  0  0  0
  -24.6600  -31.8820   23.2150 C   0  0  0  0  0  0  0  0  0  0  0  0
  -27.2060  -27.2420   20.1090 C   0  0  0  0  0  0  0  0  0  0  0  0
  -23.4350  -30.4860   21.5960 C   0  0  0  0  0  3  0  0  0  0  0  0
  -24.8590  -28.9280   20.1440 C   0  0  0  0  0  0  0  0  0  0  0  0
  -25.9800  -30.7780   21.3800 C   0  0  0  0  0  2  0  0  0  0  0  0
  -26.0470  -29.3950   20.7190 C   0  0  0  0  0  0  0  0  0  0  0  0
  -27.2220  -28.5660   20.6880 C   0  0  0  0  0  3  0  0  0  0  0  0
  -25.9780  -26.8440   19.5380 C   0  0  0  0  0  3  0  0  0  0  0  0
  -24.8310  -27.6610   19.5430 C   0  0  0  0  0  3  0  0  0  0  0  0
  -23.6290  -29.8160   20.2110 C   0  0  0  0  0  2  0  0  0  0  0  0
  -24.7130  -31.0660   22.1200 N   0  0  0  0  0  0  0  0  0  0  0  0
  -23.5830  -32.1620   23.7630 O   0  0  0  0  0  0  0  0  0  0  0  0
  -22.7790  -29.4720   22.5650 C   0  0  0  0  0  0  0  0  0  0  0  0
  -21.4520  -29.2890   22.4520 N   0  0  0  0  0  0  0  0  0  0  0  0
  -23.4640  -28.8520   23.3830 O   0  0  0  0  0  0  0  0  0  0  0  0
  -20.9540  -29.8400   21.7670 H   0  0  0  0  0  0  0  0  0  0  0  0
  -18.0890  -28.0540   22.9730 C   0  0  0  0  0  0  0  0  0  0  0  0
  -20.6450  -28.3500   23.2340 C   0  0  0  0  0  3  0  0  0  0  0  0
  -20.7630  -26.9130   22.6740 C   0  0  0  0  0  2  0  0  0  0  0  0
  -19.6630  -26.5650   21.6660 C   0  0  0  0  0  2  0  0  0  0  0  0
  -18.2810  -26.7020   22.3100 C   0  0  0  0  0  2  0  0  0  0  0  0
  -19.1990  -28.8350   23.3930 C   0  0  0  0  0  0  0  0  0  0  0  0
  -18.9650  -30.1000   23.9740 C   0  0  0  0  0  3  0  0  0  0  0  0
  -17.6530  -30.5860   24.1390 C   0  0  0  0  0  3  0  0  0  0  0  0
  -16.5590  -29.8030   23.7340 C   0  0  0  0  0  3  0  0  0  0  0  0
  -16.7770  -28.5390   23.1580 C   0  0  0  0  0  3  0  0  0  0  0  0
  -25.9480  -32.5190   23.8210 C   0  0  0  0  0  3  0  0  0  0  0  0
  -25.6360  -33.9140   24.1670 N   0  0  0  0  0  0  0  0  0  0  0  0
  -25.9490  -34.9760   23.4120 C   0  0  0  0  0  0  0  0  0  0  0  0
  -26.6000  -34.8850   22.3680 O   0  0  0  0  0  0  0  0  0  0  0  0
  -25.0590  -34.0570   24.9820 H   0  0  0  0  0  0  0  0  0  0  0  0
  -24.2080  -36.7680   23.1080 C   0  0  0  0  0  1  0  0  0  0  0  0
  -25.4650  -36.3590   23.8920 C   0  0  0  0  0  3  0  0  0  0  0  0
  -27.6130  -37.2440   24.6890 C   0  0  0  0  0  1  0  0  0  0  0  0
  -26.4920  -37.4180   23.7710 N   0  0  0  0  0  0  0  0  0  0  0  0
  -26.0850  -38.3340   23.9360 H   0  0  0  0  0  0  0  0  0  0  0  0
  -26.4840  -31.7450   25.0880 C   0  0  1  0  0  0  0  0  0  0  0  0
  -25.4070  -31.5060   26.1730 C   0  0  0  0  0  1  0  0  0  0  0  0
  -27.0610  -30.3680   24.6860 C   0  0  0  0  0  1  0  0  0  0  0  0
  -27.6440  -32.5390   25.7350 C   0  0  0  0  0  1  0  0  0  0  0  0
  1  2  1  0
  2  6  1  0
  2  4  2  0
  3  1  1  0
  3  8  1  0
  5  1  2  0
  5 55  1  0
  7  5  1  0
  8  6  1  0
  9  3  2  0
 10 13  1  0
 11 10  2  0
 11 15  1  0
 13  8  1  0
 13 12  2  0
 14 12  1  0
 14 25  1  0
 15 14  2  0
 16 15  1  0
 17 25  1  0
 18 23  1  0
 19 20  1  0
 19 18  1  0
 21 20  1  0
 21 30  1  0
 21 22  1  0
 23 17  1  0
 23 22  1  0
 24 17  2  0
 25 26  1  0
 27 28  2  0
 28 29  1  0
 28 47  1  0
 29 32  1  0
 30 27  1  0
 30 31  1  0
 31 29  2  0
 32 33  1  0
 33 34  2  0
 35 38  1  0
 35 34  1  0
 36 35  2  0
 37 36  1  0
 37 32  2  0
 38 39  1  0
 39 40  1  0
 40 41  2  0
 42 41  1  0
 42 46  1  0
 43 42  2  0
 44 39  2  0
 44 43  1  0
 45 44  1  0
 47 48  1  0
 48 51  1  0
 48 50  1  0
 49 47  2  0
 52 53  1  0
 52 27  1  0
 54 52  1  0
 56 67  2  0
 57 55  1  0
 57 62  1  0
 58 66  1  0
 58 68  1  0
 59 65  1  0
 59 61  1  0
 60 66  1  0
 61 60  1  0
 62 61  2  0
 63 64  1  0
 63 57  2  0
 64 59  2  0
 65 58  1  0
 66 56  1  0
 68 70  2  0
 69 68  1  0
 71 69  1  0
 72 81  2  0
 72 77  1  0
 73 69  1  0
 73 77  1  0
 74 73  1  0
 75 76  1  0
 75 74  1  0
 76 72  1  0
 77 78  2  0
 78 79  1  0
 80 79  2  0
 81 80  1  0
 82 56  1  0
 82 83  1  0
 82 92  1  0
 83 86  1  0
 84 88  1  0
 84 83  1  0
 85 84  2  0
 88 87  1  0
 90 88  1  0
 90 91  1  0
 90 89  1  0
 92 95  1  1
 92 93  1  0
 94 92  1  0
M  ISO  4   5 101  17 100  25 100  55 101
M  END
>  <TORSDO>  (54) 
F 17

>  <SCORE>  (54) 
-15.134

>  <name>  (54) 
53

>  <ligand_id>  (54) 
53

>  <original_smiles>  (54) 
[H]C([H])=C1C(=C(Oc2c([H])c([H])c3c(c2[H])C([H])([H])N(C(=O)C([H])(N([H])C(=O)C([H])(N([H])C([H])([H])[H])C([H])([H])[H])C(C([H])([H])[H])(C([H])([H])[H])C([H])([H])[H])C([H])(C(=O)N([H])C2([H])c4c([H])c([H])c([H])c([H])c4C([H])([H])C([H])([H])C2([H])[H])C3([H])[H])C([H])([H])[H])C(=O)N(c2c([H])c([H])c(F)c(N([H])C(=O)N3C([H])([H])C([H])([H])C([H])([H])C([H])(n4nc(-c5c([H])c([H])c(Oc6c([H])c([H])c(F)c([H])c6F)c([H])c5[H])c(C(=O)N([H])[H])c4N([H])[H])C3([H])[H])c2[H])C1([H])[H]

>  <smiles>  (54) 
[H]C([H])=C1C(=C(Oc2c([H])c([H])c3c(c2[H])C([H])([H])N(C(=O)C([H])(N([H])C(=O)C([H])(N([H])C([H])([H])[H])C([H])([H])[H])C(C([H])([H])[H])(C([H])([H])[H])C([H])([H])[H])C([H])(C(=O)N([H])C2([H])c4c([H])c([H])c([H])c([H])c4C([H])([H])C([H])([H])C2([H])[H])C3([H])[H])C([H])([H])[H])C(=O)N(c2c([H])c([H])c(F)c(N([H])C(=O)N3C([H])([H])C([H])([H])C([H])([H])C([H])(n4nc(-c5c([H])c([H])c(Oc6c([H])c([H])c(F)c([H])c6F)c([H])c5[H])c(C(=O)N([H])[H])c4N([H])[H])C3([H])[H])c2[H])C1([H])[H]

$$$$
54:0:0
     RDKit          3D

 84 89  0  0  1  0  0  0  0  0999 V2000
  -28.8000  -21.7210   20.4340 C   0  0  0  0  0  1  0  0  0  0  0  0
  -28.2350  -23.2290   20.0040 C   0  0  0  0  0  2  0  0  0  0  0  0
  -30.7980  -19.9650   19.7410 C   0  0  0  0  0  1  0  0  0  0  0  0
  -28.6600  -19.7180   18.5050 C   0  0  0  0  0  1  0  0  0  0  0  0
  -29.2840  -19.7660   19.9080 C   0  0  0  0  0  2  0  0  0  0  0  0
  -30.0480  -16.2800   20.1900 C   0  0  0  0  0  0  0  0  0  0  0  0
  -30.2940  -13.5830   19.4420 C   0  0  0  0  0  2  0  0  0  0  0  0
  -29.4760  -12.9180   18.2750 C   0  0  0  0  0  2  0  0  0  0  0  0
  -28.1010  -12.4400   18.7490 C   0  0  0  0  0  2  0  0  0  0  0  0
  -27.5090  -13.4700   19.7270 C   0  0  0  0  0  3  0  0  0  0  0  0
  -28.4930  -14.0150   20.8100 C   0  0  0  0  0  2  0  0  0  0  0  0
  -29.5810  -14.8110   20.1340 N   0  0  0  0  0  0  0  0  0  0  0  0
  -31.2810  -16.1070   19.9910 O   0  0  0  0  0  0  0  0  0  0  0  0
  -29.3290  -17.8190   20.2970 N   0  0  0  0  0  2  0  0  0  0  0  0
  -28.3880  -17.5930   20.5920 H   0  0  0  0  0  0  0  0  0  0  0  0
  -25.1490  -13.9410   20.4860 C   0  0  0  0  0  0  0  0  0  0  0  0
  -24.0970  -13.1520   20.8490 C   0  0  0  0  0  0  0  0  0  0  0  0
  -24.5810  -11.8070   20.8220 C   0  0  0  0  0  0  0  0  0  0  0  0
  -26.2050  -13.0870   20.2530 N   0  0  0  0  0  0  0  0  0  0  0  0
  -25.8790  -11.7900   20.5160 N   0  0  0  0  0  0  0  0  0  0  0  0
  -23.8550  -10.5410   21.0130 C   0  0  0  0  0  0  0  0  0  0  0  0
  -24.2810   -9.5760   21.9520 C   0  0  0  0  0  3  0  0  0  0  0  0
  -23.5480   -8.3820   22.1370 C   0  0  0  0  0  3  0  0  0  0  0  0
  -22.3750   -8.1440   21.3830 C   0  0  0  0  0  0  0  0  0  0  0  0
  -21.9670   -9.0970   20.4330 C   0  0  0  0  0  3  0  0  0  0  0  0
  -22.7000  -10.2820   20.2460 C   0  0  0  0  0  3  0  0  0  0  0  0
  -21.6150   -7.0020   21.4750 O   0  0  0  0  0  0  0  0  0  0  0  0
  -21.5650   -6.2600   22.6290 C   0  0  0  0  0  0  0  0  0  0  0  0
  -21.1380   -6.8180   23.8530 C   0  0  0  0  0  3  0  0  0  0  0  0
  -21.0340   -6.0050   24.9990 C   0  0  0  0  0  3  0  0  0  0  0  0
  -21.3470   -4.6350   24.9220 C   0  0  0  0  0  0  0  0  0  0  0  0
  -21.7680   -4.0770   23.7020 C   0  0  0  0  0  3  0  0  0  0  0  0
  -21.8730   -4.8870   22.5580 C   0  0  0  0  0  0  0  0  0  0  0  0
  -22.2560   -4.3380   21.3800 F   0  0  0  0  0  0  0  0  0  0  0  0
  -21.2410   -3.8510   26.0210 F   0  0  0  0  0  0  0  0  0  0  0  0
  -22.6950  -13.6210   21.1010 C   0  0  0  0  0  0  0  0  0  0  0  0
  -21.9640  -12.9320   21.9680 N   0  0  0  0  0  0  0  0  0  0  0  0
  -22.2590  -14.6400   20.5650 O   0  0  0  0  0  0  0  0  0  0  0  0
  -22.3330  -12.1090   22.4220 H   0  0  0  0  0  0  0  0  0  0  0  0
  -21.0230  -13.2300   22.1800 H   0  0  0  0  0  0  0  0  0  0  0  0
  -25.2930  -15.3140   20.2990 N   0  0  0  0  0  0  0  0  0  0  0  0
  -24.5130  -15.9560   20.3940 H   0  0  0  0  0  0  0  0  0  0  0  0
  -26.1320  -15.7570   19.9510 H   0  0  0  0  0  0  0  0  0  0  0  0
  -28.1220  -24.9510   20.3910 O   0  0  0  0  0  0  0  0  0  0  0  0
  -24.6730  -31.7880   23.1560 C   0  0  0  0  0  0  0  0  0  0  0  0
  -27.2040  -26.3460   20.2560 C   0  0  0  0  0  0  0  0  0  0  0  0
  -23.5070  -30.3580   21.5360 C   0  0  0  0  0  3  0  0  0  0  0  0
  -24.9660  -28.6230   20.1610 C   0  0  0  0  0  0  0  0  0  0  0  0
  -26.1000  -30.3910   21.4680 C   0  0  0  0  0  2  0  0  0  0  0  0
  -26.1620  -28.9110   20.8250 C   0  0  0  0  0  0  0  0  0  0  0  0
  -27.2380  -27.8090   20.8380 C   0  0  0  0  0  3  0  0  0  0  0  0
  -25.9760  -26.3770   19.5130 C   0  0  0  0  0  3  0  0  0  0  0  0
  -24.9360  -27.3880   19.4800 C   0  0  0  0  0  3  0  0  0  0  0  0
  -23.7710  -29.6160   20.1850 C   0  0  0  0  0  2  0  0  0  0  0  0
  -24.7890  -30.8900   22.1040 N   0  0  0  0  0  0  0  0  0  0  0  0
  -23.5720  -32.1070   23.6400 O   0  0  0  0  0  0  0  0  0  0  0  0
  -22.7550  -29.4260   22.5280 C   0  0  0  0  0  0  0  0  0  0  0  0
  -21.4170  -29.2940   22.4080 N   0  0  0  0  0  0  0  0  0  0  0  0
  -23.3940  -28.8140   23.3860 O   0  0  0  0  0  0  0  0  0  0  0  0
  -20.9450  -29.8380   21.6980 H   0  0  0  0  0  0  0  0  0  0  0  0
  -18.0210  -28.0880   22.9460 C   0  0  0  0  0  0  0  0  0  0  0  0
  -20.5840  -28.3700   23.1930 C   0  0  0  0  0  3  0  0  0  0  0  0
  -20.6830  -26.9290   22.6380 C   0  0  0  0  0  2  0  0  0  0  0  0
  -19.5810  -26.5950   21.6280 C   0  0  0  0  0  2  0  0  0  0  0  0
  -18.2000  -26.7370   22.2730 C   0  0  0  0  0  2  0  0  0  0  0  0
  -19.1390  -28.8620   23.3620 C   0  0  0  0  0  0  0  0  0  0  0  0
  -18.9110  -30.1210   23.9600 C   0  0  0  0  0  3  0  0  0  0  0  0
  -17.6020  -30.6080   24.1390 C   0  0  0  0  0  3  0  0  0  0  0  0
  -16.5010  -29.8340   23.7330 C   0  0  0  0  0  3  0  0  0  0  0  0
  -16.7120  -28.5750   23.1430 C   0  0  0  0  0  3  0  0  0  0  0  0
  -25.9170  -32.4690   23.8080 C   0  0  0  0  0  3  0  0  0  0  0  0
  -25.5720  -33.8710   24.1400 N   0  0  0  0  0  0  0  0  0  0  0  0
  -25.9000  -34.9500   23.4130 C   0  0  0  0  0  0  0  0  0  0  0  0
  -26.5710  -34.8700   22.3830 O   0  0  0  0  0  0  0  0  0  0  0  0
  -24.9690  -34.0040   24.9390 H   0  0  0  0  0  0  0  0  0  0  0  0
  -24.1570  -36.7520   23.1200 C   0  0  0  0  0  1  0  0  0  0  0  0
  -25.4120  -36.3340   23.9020 C   0  0  0  0  0  3  0  0  0  0  0  0
  -27.5500  -37.2350   24.7170 C   0  0  0  0  0  1  0  0  0  0  0  0
  -26.4370  -37.3980   23.7870 N   0  0  0  0  0  0  0  0  0  0  0  0
  -26.0240  -38.3130   23.9440 H   0  0  0  0  0  0  0  0  0  0  0  0
  -26.4060  -31.7320   25.1170 C   0  0  1  0  0  0  0  0  0  0  0  0
  -25.2920  -31.5180   26.1700 C   0  0  0  0  0  1  0  0  0  0  0  0
  -27.0020  -30.3460   24.7900 C   0  0  0  0  0  1  0  0  0  0  0  0
  -27.5430  -32.5450   25.7820 C   0  0  0  0  0  1  0  0  0  0  0  0
  2 44  1  0
  2  1  1  0
  3  5  1  0
  4  5  1  0
  6 14  1  0
  7 12  1  0
  8  9  1  0
  8  7  1  0
 10  9  1  0
 10 19  1  0
 10 11  1  0
 12  6  1  0
 12 11  1  0
 13  6  2  0
 14 15  1  0
 16 17  2  0
 17 36  1  0
 18 17  1  0
 18 21  1  0
 19 16  1  0
 19 20  1  0
 20 18  2  0
 21 22  1  0
 22 23  2  0
 24 27  1  0
 24 23  1  0
 25 24  2  0
 26 25  1  0
 26 21  2  0
 27 28  1  0
 28 29  1  0
 29 30  2  0
 31 30  1  0
 31 35  1  0
 32 31  2  0
 33 28  2  0
 33 32  1  0
 34 33  1  0
 36 37  1  0
 37 40  1  0
 37 39  1  0
 38 36  2  0
 41 42  1  0
 41 16  1  0
 43 41  1  0
 45 56  2  0
 46 44  1  0
 46 51  1  0
 47 55  1  0
 47 57  1  0
 48 54  1  0
 48 50  1  0
 49 55  1  0
 50 51  2  0
 50 49  1  0
 52 46  2  0
 53 52  1  0
 53 48  2  0
 54 47  1  0
 55 45  1  0
 57 59  2  0
 58 57  1  0
 60 58  1  0
 61 70  2  0
 61 66  1  0
 62 58  1  0
 62 66  1  0
 63 62  1  0
 64 65  1  0
 64 63  1  0
 65 61  1  0
 66 67  2  0
 67 68  1  0
 69 68  2  0
 70 69  1  0
 71 45  1  0
 71 72  1  0
 71 81  1  0
 72 75  1  0
 73 77  1  0
 73 72  1  0
 74 73  2  0
 77 76  1  0
 79 77  1  0
 79 80  1  0
 79 78  1  0
 81 84  1  1
 81 82  1  0
 83 81  1  0
M  ISO  4   2 101   6 100  14 100  44 101
M  END
>  <TORSDO>  (55) 
F 17

>  <SCORE>  (55) 
-16.398

>  <name>  (55) 
54

>  <ligand_id>  (55) 
54

>  <original_smiles>  (55) 
[H]C(Oc1c([H])c([H])c2c(c1[H])C([H])([H])N(C(=O)C([H])(N([H])C(=O)C([H])(N([H])C([H])([H])[H])C([H])([H])[H])C(C([H])([H])[H])(C([H])([H])[H])C([H])([H])[H])C([H])(C(=O)N([H])C1([H])c3c([H])c([H])c([H])c([H])c3C([H])([H])C([H])([H])C1([H])[H])C2([H])[H])=C([H])C(N([H])C(=O)N1C([H])([H])C([H])([H])C([H])([H])C([H])(n2nc(-c3c([H])c([H])c(Oc4c([H])c([H])c(F)c([H])c4F)c([H])c3[H])c(C(=O)N([H])[H])c2N([H])[H])C1([H])[H])(C([H])([H])[H])C([H])([H])[H]

>  <smiles>  (55) 
[H]C(Oc1c([H])c([H])c2c(c1[H])C([H])([H])N(C(=O)C([H])(N([H])C(=O)C([H])(N([H])C([H])([H])[H])C([H])([H])[H])C(C([H])([H])[H])(C([H])([H])[H])C([H])([H])[H])C([H])(C(=O)N([H])C1([H])c3c([H])c([H])c([H])c([H])c3C([H])([H])C([H])([H])C1([H])[H])C2([H])[H])=C([H])C(N([H])C(=O)N1C([H])([H])C([H])([H])C([H])([H])C([H])(n2nc(-c3c([H])c([H])c(Oc4c([H])c([H])c(F)c([H])c4F)c([H])c3[H])c(C(=O)N([H])[H])c2N([H])[H])C1([H])[H])(C([H])([H])[H])C([H])([H])[H]

$$$$
55:0:0
     RDKit          3D

 95104  0  0  1  0  0  0  0  0999 V2000
  -30.3680  -24.1050   20.9970 C   0  0  0  0  0  0  0  0  0  0  0  0
  -29.0900  -23.7010   20.4800 C   0  0  0  0  0  3  0  0  0  0  0  0
  -30.5710  -25.0360   21.9450 C   0  0  0  0  0  2  0  0  0  0  0  0
  -28.1670  -24.7320   20.1330 C   0  0  0  0  0  2  0  0  0  0  0  0
  -31.4400  -23.3230   20.3050 C   0  0  0  0  0  2  0  0  0  0  0  0
  -30.6050  -22.3990   19.3890 C   0  0  0  0  0  2  0  0  0  0  0  0
  -29.2440  -22.3090   19.9610 N   0  0  0  0  0  0  0  0  0  0  0  0
  -30.1490  -20.2040   21.3450 C   0  0  0  0  0  3  0  0  0  0  0  0
  -28.5700  -19.8760   19.6540 C   0  0  0  0  0  3  0  0  0  0  0  0
  -30.3910  -18.7510   21.4140 C   0  0  0  0  0  3  0  0  0  0  0  0
  -28.7950  -18.4450   19.7330 C   0  0  0  0  0  3  0  0  0  0  0  0
  -29.2480  -20.8760   20.4230 C   0  0  0  0  0  0  0  0  0  0  0  0
  -29.7640  -17.7670   20.5610 C   0  0  0  0  0  0  0  0  0  0  0  0
  -30.6980  -15.1470   20.9990 C   0  0  0  0  0  0  0  0  0  0  0  0
  -30.7020  -12.7280   20.1980 C   0  0  0  0  0  2  0  0  0  0  0  0
  -29.8880  -12.4710   18.9040 C   0  0  0  0  0  2  0  0  0  0  0  0
  -28.3890  -12.3090   19.2040 C   0  0  0  0  0  2  0  0  0  0  0  0
  -27.8510  -13.3240   20.2460 C   0  0  0  0  0  3  0  0  0  0  0  0
  -28.7930  -13.4710   21.4570 C   0  0  0  0  0  2  0  0  0  0  0  0
  -30.0930  -13.8850   20.9120 N   0  0  0  0  0  0  0  0  0  0  0  0
  -31.9280  -15.1330   21.1270 O   0  0  0  0  0  0  0  0  0  0  0  0
  -30.1090  -16.2630   20.2950 N   0  0  0  0  0  0  0  0  0  0  0  0
  -25.4060  -13.9080   20.7280 C   0  0  0  0  0  0  0  0  0  0  0  0
  -24.3120  -13.1350   21.0040 C   0  0  0  0  0  0  0  0  0  0  0  0
  -24.7850  -11.7870   21.0710 C   0  0  0  0  0  0  0  0  0  0  0  0
  -26.4730  -13.0310   20.6290 N   0  0  0  0  0  0  0  0  0  0  0  0
  -26.1030  -11.7540   20.9060 N   0  0  0  0  0  0  0  0  0  0  0  0
  -24.0490  -10.5240   21.2180 C   0  0  0  0  0  0  0  0  0  0  0  0
  -24.4180   -9.5650   22.1880 C   0  0  0  0  0  3  0  0  0  0  0  0
  -23.6820   -8.3680   22.3270 C   0  0  0  0  0  3  0  0  0  0  0  0
  -22.5660   -8.1200   21.4950 C   0  0  0  0  0  0  0  0  0  0  0  0
  -22.2180   -9.0660   20.5150 C   0  0  0  0  0  3  0  0  0  0  0  0
  -22.9520  -10.2550   20.3750 C   0  0  0  0  0  3  0  0  0  0  0  0
  -21.8110   -6.9740   21.5400 O   0  0  0  0  0  0  0  0  0  0  0  0
  -21.7100   -6.2220   22.6830 C   0  0  0  0  0  0  0  0  0  0  0  0
  -21.2210   -6.7660   23.8920 C   0  0  0  0  0  3  0  0  0  0  0  0
  -21.0680   -5.9410   25.0240 C   0  0  0  0  0  3  0  0  0  0  0  0
  -21.3940   -4.5740   24.9480 C   0  0  0  0  0  0  0  0  0  0  0  0
  -21.8750   -4.0290   23.7450 C   0  0  0  0  0  3  0  0  0  0  0  0
  -22.0300   -4.8510   22.6160 C   0  0  0  0  0  0  0  0  0  0  0  0
  -22.4740   -4.3170   21.4520 F   0  0  0  0  0  0  0  0  0  0  0  0
  -21.2420   -3.7790   26.0330 F   0  0  0  0  0  0  0  0  0  0  0  0
  -22.8910  -13.6070   21.1000 C   0  0  0  0  0  0  0  0  0  0  0  0
  -22.0790  -12.9520   21.9230 N   0  0  0  0  0  0  0  0  0  0  0  0
  -22.5040  -14.5950   20.4780 O   0  0  0  0  0  0  0  0  0  0  0  0
  -22.4010  -12.1570   22.4560 H   0  0  0  0  0  0  0  0  0  0  0  0
  -21.1200  -13.2520   22.0210 H   0  0  0  0  0  0  0  0  0  0  0  0
  -25.5840  -15.2720   20.5250 N   0  0  0  0  0  0  0  0  0  0  0  0
  -24.8120  -15.9290   20.5470 H   0  0  0  0  0  0  0  0  0  0  0  0
  -26.4710  -15.7070   20.3040 H   0  0  0  0  0  0  0  0  0  0  0  0
  -30.3660  -16.0730   18.8370 C   0  0  0  0  0  2  0  0  0  0  0  0
  -31.1300  -17.7600   17.1350 C   0  0  0  0  0  2  0  0  0  0  0  0
  -31.3950  -17.0310   18.2310 C   0  0  0  0  0  0  0  0  0  0  0  0
  -32.7480  -17.1040   18.9150 C   0  0  0  0  0  1  0  0  0  0  0  0
  -28.2760  -26.2050   20.2400 O   0  0  0  0  0  0  0  0  0  0  0  0
  -24.5380  -31.8970   23.1040 C   0  0  0  0  0  0  0  0  0  0  0  0
  -27.1920  -27.1620   20.1440 C   0  0  0  0  0  0  0  0  0  0  0  0
  -23.3630  -30.4630   21.4800 C   0  0  0  0  0  3  0  0  0  0  0  0
  -24.8380  -28.8890   20.0800 C   0  0  0  0  0  0  0  0  0  0  0  0
  -25.9120  -30.7540   21.3220 C   0  0  0  0  0  2  0  0  0  0  0  0
  -26.0080  -29.3530   20.6930 C   0  0  0  0  0  0  0  0  0  0  0  0
  -27.1800  -28.5030   20.7140 C   0  0  0  0  0  3  0  0  0  0  0  0
  -25.9970  -26.8110   19.4760 C   0  0  0  0  0  3  0  0  0  0  0  0
  -24.8460  -27.6320   19.4580 C   0  0  0  0  0  3  0  0  0  0  0  0
  -23.5980  -29.7710   20.1100 C   0  0  0  0  0  2  0  0  0  0  0  0
  -24.6230  -31.0620   22.0240 N   0  0  0  0  0  0  0  0  0  0  0  0
  -23.4460  -32.1740   23.6240 O   0  0  0  0  0  0  0  0  0  0  0  0
  -22.6960  -29.4580   22.4540 C   0  0  0  0  0  0  0  0  0  0  0  0
  -21.3650  -29.2870   22.3430 N   0  0  0  0  0  0  0  0  0  0  0  0
  -23.3760  -28.8360   23.2740 O   0  0  0  0  0  0  0  0  0  0  0  0
  -20.8730  -29.8430   21.6580 H   0  0  0  0  0  0  0  0  0  0  0  0
  -17.9890  -28.0890   22.8900 C   0  0  0  0  0  0  0  0  0  0  0  0
  -20.5520  -28.3520   23.1250 C   0  0  0  0  0  3  0  0  0  0  0  0
  -20.6460  -26.9180   22.5530 C   0  0  0  0  0  2  0  0  0  0  0  0
  -19.5310  -26.5920   21.5530 C   0  0  0  0  0  2  0  0  0  0  0  0
  -18.1570  -26.7390   22.2130 C   0  0  0  0  0  2  0  0  0  0  0  0
  -19.1130  -28.8530   23.3020 C   0  0  0  0  0  0  0  0  0  0  0  0
  -18.9010  -30.1160   23.8960 C   0  0  0  0  0  3  0  0  0  0  0  0
  -17.5980  -30.6160   24.0780 C   0  0  0  0  0  3  0  0  0  0  0  0
  -16.4890  -29.8490   23.6790 C   0  0  0  0  0  3  0  0  0  0  0  0
  -16.6840  -28.5870   23.0920 C   0  0  0  0  0  3  0  0  0  0  0  0
  -25.8050  -32.5590   23.7270 C   0  0  0  0  0  3  0  0  0  0  0  0
  -26.3490  -31.7850   24.9900 C   0  0  1  0  0  0  0  0  0  0  0  0
  -25.2690  -31.5130   26.0630 C   0  0  0  0  0  1  0  0  0  0  0  0
  -26.9610  -30.4260   24.5820 C   0  0  0  0  0  1  0  0  0  0  0  0
  -27.4870  -32.5970   25.6500 C   0  0  0  0  0  1  0  0  0  0  0  0
  -25.4590  -33.9440   24.0850 N   0  0  0  0  0  0  0  0  0  0  0  0
  -25.7820  -35.0230   23.3590 C   0  0  0  0  0  0  0  0  0  0  0  0
  -26.4680  -34.9580   22.3360 O   0  0  0  0  0  0  0  0  0  0  0  0
  -24.8490  -34.0700   24.8800 H   0  0  0  0  0  0  0  0  0  0  0  0
  -24.0380  -36.8040   23.0110 C   0  0  0  0  0  1  0  0  0  0  0  0
  -25.2630  -36.3930   23.8430 C   0  0  0  0  0  3  0  0  0  0  0  0
  -27.3630  -37.2800   24.7600 C   0  0  0  0  0  1  0  0  0  0  0  0
  -26.2850  -37.4630   23.7900 N   0  0  0  0  0  0  0  0  0  0  0  0
  -25.8630  -38.3740   23.9510 H   0  0  0  0  0  0  0  0  0  0  0  0
  1  3  2  0
  2  4  1  0
  2  1  1  0
  4 55  1  0
  5  1  1  0
  6  7  1  0
  6  5  1  0
  7 12  1  0
  7  2  1  0
  8 10  1  0
  9 11  2  0
  9 12  1  0
 11 13  1  0
 12  8  2  0
 13 10  2  0
 14 21  2  0
 15 20  1  0
 16 17  1  0
 16 15  1  0
 18 17  1  0
 18 26  1  0
 18 19  1  0
 20 14  1  0
 20 19  1  0
 22 13  1  0
 22 14  1  0
 23 24  2  0
 24 25  1  0
 24 43  1  0
 25 28  1  0
 26 23  1  0
 26 27  1  0
 27 25  2  0
 28 29  1  0
 29 30  2  0
 31 34  1  0
 31 30  1  0
 32 31  2  0
 33 32  1  0
 33 28  2  0
 34 35  1  0
 35 36  1  0
 36 37  2  0
 38 37  1  0
 38 42  1  0
 39 38  2  0
 40 35  2  0
 40 39  1  0
 41 40  1  0
 43 44  1  0
 44 47  1  0
 44 46  1  0
 45 43  2  0
 48 49  1  0
 48 23  1  0
 50 48  1  0
 51 22  1  0
 52 53  2  0
 53 51  1  0
 53 54  1  0
 56 67  2  0
 57 55  1  0
 57 62  1  0
 58 66  1  0
 58 68  1  0
 59 65  1  0
 59 61  1  0
 60 66  1  0
 61 62  2  0
 61 60  1  0
 63 57  2  0
 64 63  1  0
 64 59  2  0
 65 58  1  0
 66 56  1  0
 68 70  2  0
 69 68  1  0
 71 69  1  0
 72 81  2  0
 72 77  1  0
 73 69  1  0
 73 77  1  0
 74 73  1  0
 75 76  1  0
 75 74  1  0
 76 72  1  0
 77 78  2  0
 78 79  1  0
 80 79  2  0
 81 80  1  0
 82 56  1  0
 82 87  1  0
 82 83  1  0
 83 86  1  1
 83 84  1  0
 85 83  1  0
 87 90  1  0
 88 92  1  0
 88 87  1  0
 89 88  2  0
 92 91  1  0
 94 92  1  0
 94 95  1  0
 94 93  1  0
M  ISO  4   4 101  14 100  22 100  55 101
M  END
>  <TORSDO>  (56) 
F 19

>  <SCORE>  (56) 
-14.020

>  <name>  (56) 
55

>  <ligand_id>  (56) 
55

>  <original_smiles>  (56) 
[H]C([H])=C(C([H])([H])[H])C([H])([H])N(C(=O)N1C([H])([H])C([H])([H])C([H])([H])C([H])(n2nc(-c3c([H])c([H])c(Oc4c([H])c([H])c(F)c([H])c4F)c([H])c3[H])c(C(=O)N([H])[H])c2N([H])[H])C1([H])[H])c1c([H])c([H])c(N2C(=C([H])Oc3c([H])c([H])c4c(c3[H])C([H])([H])N(C(=O)C([H])(N([H])C(=O)C([H])(N([H])C([H])([H])[H])C([H])([H])[H])C(C([H])([H])[H])(C([H])([H])[H])C([H])([H])[H])C([H])(C(=O)N([H])C3([H])c5c([H])c([H])c([H])c([H])c5C([H])([H])C([H])([H])C3([H])[H])C4([H])[H])C(=C([H])[H])C([H])([H])C2([H])[H])c([H])c1[H]

>  <smiles>  (56) 
[H]C([H])=C(C([H])([H])[H])C([H])([H])N(C(=O)N1C([H])([H])C([H])([H])C([H])([H])C([H])(n2nc(-c3c([H])c([H])c(Oc4c([H])c([H])c(F)c([H])c4F)c([H])c3[H])c(C(=O)N([H])[H])c2N([H])[H])C1([H])[H])c1c([H])c([H])c(N2C(=C([H])Oc3c([H])c([H])c4c(c3[H])C([H])([H])N(C(=O)C([H])(N([H])C(=O)C([H])(N([H])C([H])([H])[H])C([H])([H])[H])C(C([H])([H])[H])(C([H])([H])[H])C([H])([H])[H])C([H])(C(=O)N([H])C3([H])c5c([H])c([H])c([H])c([H])c5C([H])([H])C([H])([H])C3([H])[H])C4([H])[H])C(=C([H])[H])C([H])([H])C2([H])[H])c([H])c1[H]

$$$$
56:0:0
     RDKit          3D

 96105  0  0  1  0  0  0  0  0999 V2000
  -27.9880  -22.0700   19.8660 C   0  0  0  0  0  0  0  0  0  0  0  0
  -29.9940  -22.3580   20.0990 C   0  0  0  0  0  2  0  0  0  0  0  0
  -28.7900  -23.3420   20.3570 C   0  0  0  0  0  3  0  0  0  0  0  0
  -29.0670  -21.2050   20.2050 N   0  0  0  0  0  0  0  0  0  0  0  0
  -26.9350  -21.8190   19.3130 O   0  0  0  0  0  0  0  0  0  0  0  0
  -29.7900  -19.7630   18.3000 C   0  0  0  0  0  3  0  0  0  0  0  0
  -29.6130  -18.5830   20.3790 C   0  0  0  0  0  3  0  0  0  0  0  0
  -30.2660  -17.3520   18.3900 C   0  0  0  0  0  3  0  0  0  0  0  0
  -29.4880  -19.8660   19.6800 C   0  0  0  0  0  0  0  0  0  0  0  0
  -30.1620  -18.5560   17.6670 C   0  0  0  0  0  0  0  0  0  0  0  0
  -30.0090  -17.3000   19.7790 C   0  0  0  0  0  0  0  0  0  0  0  0
  -30.7750  -14.8200   20.0160 C   0  0  0  0  0  0  0  0  0  0  0  0
  -30.4820  -12.5730   18.9360 C   0  0  0  0  0  2  0  0  0  0  0  0
  -29.4730  -12.6630   17.7700 C   0  0  0  0  0  2  0  0  0  0  0  0
  -28.0320  -12.4750   18.2830 C   0  0  0  0  0  2  0  0  0  0  0  0
  -27.7340  -13.3330   19.5390 C   0  0  0  0  0  3  0  0  0  0  0  0
  -28.8560  -13.2120   20.5900 C   0  0  0  0  0  2  0  0  0  0  0  0
  -30.1130  -13.6060   19.9380 N   0  0  0  0  0  0  0  0  0  0  0  0
  -31.9080  -14.9050   19.5300 O   0  0  0  0  0  0  0  0  0  0  0  0
  -29.9070  -16.0240   21.9400 C   0  0  0  0  0  1  0  0  0  0  0  0
  -30.1280  -15.9770   20.4900 N   0  0  0  0  0  0  0  0  0  0  0  0
  -25.4070  -13.9100   20.4460 C   0  0  0  0  0  0  0  0  0  0  0  0
  -24.3610  -13.1290   20.8550 C   0  0  0  0  0  0  0  0  0  0  0  0
  -24.8090  -11.7770   20.7450 C   0  0  0  0  0  0  0  0  0  0  0  0
  -26.4240  -13.0340   20.1070 N   0  0  0  0  0  0  0  0  0  0  0  0
  -26.0770  -11.7430   20.3500 N   0  0  0  0  0  0  0  0  0  0  0  0
  -24.0860  -10.5140   20.9370 C   0  0  0  0  0  0  0  0  0  0  0  0
  -24.5150   -9.5500   21.8760 C   0  0  0  0  0  3  0  0  0  0  0  0
  -23.7910   -8.3520   22.0550 C   0  0  0  0  0  3  0  0  0  0  0  0
  -22.6230   -8.1080   21.2930 C   0  0  0  0  0  0  0  0  0  0  0  0
  -22.2120   -9.0600   20.3440 C   0  0  0  0  0  3  0  0  0  0  0  0
  -22.9380  -10.2500   20.1630 C   0  0  0  0  0  3  0  0  0  0  0  0
  -21.8700   -6.9610   21.3810 O   0  0  0  0  0  0  0  0  0  0  0  0
  -21.7440   -6.2720   22.5610 C   0  0  0  0  0  0  0  0  0  0  0  0
  -21.1980   -6.8690   23.7180 C   0  0  0  0  0  3  0  0  0  0  0  0
  -21.0210   -6.1040   24.8880 C   0  0  0  0  0  3  0  0  0  0  0  0
  -21.3790   -4.7430   24.9000 C   0  0  0  0  0  0  0  0  0  0  0  0
  -21.9180   -4.1460   23.7470 C   0  0  0  0  0  3  0  0  0  0  0  0
  -22.0960   -4.9070   22.5800 C   0  0  0  0  0  0  0  0  0  0  0  0
  -22.5950   -4.3210   21.4650 F   0  0  0  0  0  0  0  0  0  0  0  0
  -21.2030   -4.0060   26.0230 F   0  0  0  0  0  0  0  0  0  0  0  0
  -22.9880  -13.6050   21.2350 C   0  0  0  0  0  0  0  0  0  0  0  0
  -22.3110  -12.8810   22.1200 N   0  0  0  0  0  0  0  0  0  0  0  0
  -22.5280  -14.6530   20.7830 O   0  0  0  0  0  0  0  0  0  0  0  0
  -22.6980  -12.0330   22.5060 H   0  0  0  0  0  0  0  0  0  0  0  0
  -21.3920  -13.1800   22.4150 H   0  0  0  0  0  0  0  0  0  0  0  0
  -25.5730  -15.2850   20.3120 N   0  0  0  0  0  0  0  0  0  0  0  0
  -24.8280  -15.9440   20.5070 H   0  0  0  0  0  0  0  0  0  0  0  0
  -26.4160  -15.7300   19.9700 H   0  0  0  0  0  0  0  0  0  0  0  0
  -30.4270  -18.5560   16.2970 N   0  0  0  0  0  0  0  0  0  0  0  0
  -30.1100  -19.3340   15.7270 H   0  0  0  0  0  0  0  0  0  0  0  0
  -30.4430  -17.6750   15.7920 H   0  0  0  0  0  0  0  0  0  0  0  0
  -27.7040  -24.8260   18.2030 O   0  0  0  0  0  1  0  0  0  0  0  0
  -30.0990  -25.2520   18.8160 O   0  0  0  0  0  1  0  0  0  0  0  0
  -28.7190  -24.9710   19.2650 S   0  0  2  0  0  0  0  0  0  0  0  0
  -28.2940  -26.3790   20.2710 O   0  0  0  0  0  0  0  0  0  0  0  0
  -24.6390  -31.9200   23.1830 C   0  0  0  0  0  0  0  0  0  0  0  0
  -27.1920  -27.2660   20.1300 C   0  0  0  0  0  0  0  0  0  0  0  0
  -23.4080  -30.5000   21.5850 C   0  0  0  0  0  3  0  0  0  0  0  0
  -24.8310  -28.9300   20.1480 C   0  0  0  0  0  0  0  0  0  0  0  0
  -25.9500  -30.8030   21.3540 C   0  0  0  0  0  2  0  0  0  0  0  0
  -26.0170  -29.4140   20.7130 C   0  0  0  0  0  0  0  0  0  0  0  0
  -27.1950  -28.5960   20.6890 C   0  0  0  0  0  3  0  0  0  0  0  0
  -25.9620  -26.8430   19.5750 C   0  0  0  0  0  3  0  0  0  0  0  0
  -24.8100  -27.6540   19.5680 C   0  0  0  0  0  3  0  0  0  0  0  0
  -23.5980  -29.8110   20.2100 C   0  0  0  0  0  2  0  0  0  0  0  0
  -24.6850  -31.0930   22.0960 N   0  0  0  0  0  0  0  0  0  0  0  0
  -23.5630  -32.2050   23.7310 O   0  0  0  0  0  0  0  0  0  0  0  0
  -22.7590  -29.4980   22.5710 C   0  0  0  0  0  0  0  0  0  0  0  0
  -21.4340  -29.2990   22.4510 N   0  0  0  0  0  0  0  0  0  0  0  0
  -23.4460  -28.9020   23.4040 O   0  0  0  0  0  0  0  0  0  0  0  0
  -20.9380  -29.8310   21.7510 H   0  0  0  0  0  0  0  0  0  0  0  0
  -18.0820  -28.0350   22.9610 C   0  0  0  0  0  0  0  0  0  0  0  0
  -20.6300  -28.3680   23.2460 C   0  0  0  0  0  3  0  0  0  0  0  0
  -20.7730  -26.9210   22.7210 C   0  0  0  0  0  2  0  0  0  0  0  0
  -19.6900  -26.5370   21.7070 C   0  0  0  0  0  2  0  0  0  0  0  0
  -18.2980  -26.6680   22.3340 C   0  0  0  0  0  2  0  0  0  0  0  0
  -19.1760  -28.8390   23.3750 C   0  0  0  0  0  0  0  0  0  0  0  0
  -18.9190  -30.1140   23.9230 C   0  0  0  0  0  3  0  0  0  0  0  0
  -17.5990  -30.5870   24.0600 C   0  0  0  0  0  3  0  0  0  0  0  0
  -16.5200  -29.7810   23.6620 C   0  0  0  0  0  3  0  0  0  0  0  0
  -16.7610  -28.5060   23.1180 C   0  0  0  0  0  3  0  0  0  0  0  0
  -25.9290  -32.5630   23.7770 C   0  0  0  0  0  3  0  0  0  0  0  0
  -26.4900  -31.7840   25.0290 C   0  0  1  0  0  0  0  0  0  0  0  0
  -25.4300  -31.5160   26.1220 C   0  0  0  0  0  1  0  0  0  0  0  0
  -27.0840  -30.4210   24.6060 C   0  0  0  0  0  1  0  0  0  0  0  0
  -27.6460  -32.5880   25.6700 C   0  0  0  0  0  1  0  0  0  0  0  0
  -25.6090  -33.9530   24.1360 N   0  0  0  0  0  0  0  0  0  0  0  0
  -25.8970  -35.0210   23.3800 C   0  0  0  0  0  0  0  0  0  0  0  0
  -26.5300  -34.9420   22.3230 O   0  0  0  0  0  0  0  0  0  0  0  0
  -25.0430  -34.0870   24.9600 H   0  0  0  0  0  0  0  0  0  0  0  0
  -24.1350  -36.7970   23.1140 C   0  0  0  0  0  1  0  0  0  0  0  0
  -25.4090  -36.3970   23.8750 C   0  0  0  0  0  3  0  0  0  0  0  0
  -27.5550  -37.3040   24.6510 C   0  0  0  0  0  1  0  0  0  0  0  0
  -26.4230  -37.4650   23.7420 N   0  0  0  0  0  0  0  0  0  0  0  0
  -26.0090  -38.3790   23.9090 H   0  0  0  0  0  0  0  0  0  0  0  0
  1  4  1  0
  1  3  1  0
  2  4  1  0
  2  3  1  0
  3 55  1  0
  5  1  2  0
  6  9  1  0
  8 11  2  0
  9  4  1  0
  9  7  2  0
 10  6  2  0
 10  8  1  0
 11  7  1  0
 11 21  1  0
 12 21  1  0
 13 18  1  0
 14 15  1  0
 14 13  1  0
 16 15  1  0
 16 25  1  0
 16 17  1  0
 18 12  1  0
 18 17  1  0
 19 12  2  0
 21 20  1  0
 22 23  2  0
 23 42  1  0
 24 23  1  0
 24 27  1  0
 25 26  1  0
 25 22  1  0
 26 24  2  0
 27 28  1  0
 28 29  2  0
 30 33  1  0
 30 29  1  0
 31 30  2  0
 32 31  1  0
 32 27  2  0
 33 34  1  0
 34 39  2  0
 34 35  1  0
 35 36  2  0
 36 37  1  0
 37 41  1  0
 38 37  2  0
 39 38  1  0
 40 39  1  0
 42 43  1  0
 43 46  1  0
 43 45  1  0
 44 42  2  0
 47 22  1  0
 47 48  1  0
 49 47  1  0
 50 10  1  0
 51 50  1  0
 52 50  1  0
 55 53  1  6
 54 55  1  0
 55 56  1  0
 57 68  2  0
 58 56  1  0
 58 63  1  0
 59 67  1  0
 59 69  1  0
 60 66  1  0
 60 62  1  0
 61 67  1  0
 62 61  1  0
 63 62  2  0
 64 58  2  0
 65 64  1  0
 65 60  2  0
 66 59  1  0
 67 57  1  0
 69 71  2  0
 70 69  1  0
 72 70  1  0
 73 82  2  0
 73 78  1  0
 74 70  1  0
 74 78  1  0
 75 74  1  0
 76 77  1  0
 76 75  1  0
 77 73  1  0
 78 79  2  0
 79 80  1  0
 81 80  2  0
 82 81  1  0
 83 57  1  0
 83 88  1  0
 83 84  1  0
 84 87  1  1
 84 85  1  0
 86 84  1  0
 88 91  1  0
 89 93  1  0
 89 88  1  0
 90 89  2  0
 93 92  1  0
 95 93  1  0
 95 96  1  0
 95 94  1  0
M  ISO  4  12 100  21 100  55 101  56 101
M  END
>  <TORSDO>  (57) 
F 19

>  <SCORE>  (57) 
-14.210

>  <name>  (57) 
56

>  <ligand_id>  (57) 
56

>  <original_smiles>  (57) 
[H]c1c([H])c([H])c2c(c1[H])C([H])([H])C([H])([H])C([H])([H])C2([H])N([H])C(=O)C1([H])N(C(=O)C([H])(N([H])C(=O)C([H])(N([H])C([H])([H])[H])C([H])([H])[H])C(C([H])([H])[H])(C([H])([H])[H])C([H])([H])[H])C([H])([H])c2c([H])c(OS(=O)(=O)C3([H])C(=O)N(c4c([H])c(N([H])[H])c([H])c(N(C(=O)N5C([H])([H])C([H])([H])C([H])([H])C([H])(n6nc(-c7c([H])c([H])c(Oc8c([H])c([H])c(F)c([H])c8F)c([H])c7[H])c(C(=O)N([H])[H])c6N([H])[H])C5([H])[H])C([H])([H])[H])c4[H])C3([H])[H])c([H])c([H])c2C1([H])[H]

>  <smiles>  (57) 
[H]c1c([H])c([H])c2c(c1[H])C([H])([H])C([H])([H])C([H])([H])C2([H])N([H])C(=O)C1([H])N(C(=O)C([H])(N([H])C(=O)C([H])(N([H])C([H])([H])[H])C([H])([H])[H])C(C([H])([H])[H])(C([H])([H])[H])C([H])([H])[H])C([H])([H])c2c([H])c(OS(=O)(=O)C3([H])C(=O)N(c4c([H])c(N([H])[H])c([H])c(N(C(=O)N5C([H])([H])C([H])([H])C([H])([H])C([H])(n6nc(-c7c([H])c([H])c(Oc8c([H])c([H])c(F)c([H])c8F)c([H])c7[H])c(C(=O)N([H])[H])c6N([H])[H])C5([H])[H])C([H])([H])[H])c4[H])C3([H])[H])c([H])c([H])c2C1([H])[H]

$$$$
57:0:0
     RDKit          3D

 97106  0  0  1  0  0  0  0  0999 V2000
  -29.6020  -24.5730   21.5310 C   0  0  0  0  0  0  0  0  0  0  0  0
  -28.2320  -23.3890   20.1330 C   0  0  0  0  0  0  0  0  0  0  0  0
  -29.9260  -23.0700   21.6310 C   0  0  0  0  0  2  0  0  0  0  0  0
  -28.2410  -24.8510   20.8900 C   0  0  1  0  0  0  0  0  0  0  0  0
  -27.1710  -24.8470   22.0060 C   0  0  0  0  0  1  0  0  0  0  0  0
  -29.0510  -22.3690   20.6840 N   0  0  0  0  0  0  0  0  0  0  0  0
  -30.3640  -25.4580   21.9420 O   0  0  0  0  0  0  0  0  0  0  0  0
  -27.4870  -23.1960   19.1660 O   0  0  0  0  0  0  0  0  0  0  0  0
  -28.4640  -19.9960   19.6080 C   0  0  0  0  0  3  0  0  0  0  0  0
  -28.6630  -18.5640   19.4650 C   0  0  0  0  0  3  0  0  0  0  0  0
  -30.1070  -20.0010   21.2700 C   0  0  0  0  0  3  0  0  0  0  0  0
  -30.3130  -18.5490   21.1480 C   0  0  0  0  0  0  0  0  0  0  0  0
  -29.1940  -20.8320   20.5060 C   0  0  0  0  0  0  0  0  0  0  0  0
  -29.6180  -17.7310   20.1720 C   0  0  0  0  0  0  0  0  0  0  0  0
  -30.5070  -15.0720   20.2100 C   0  0  0  0  0  0  0  0  0  0  0  0
  -30.3560  -12.7020   19.2910 C   0  0  0  0  0  2  0  0  0  0  0  0
  -29.4010  -12.5880   18.0750 C   0  0  0  0  0  2  0  0  0  0  0  0
  -27.9390  -12.4220   18.5300 C   0  0  0  0  0  2  0  0  0  0  0  0
  -27.5500  -13.3630   19.6980 C   0  0  0  0  0  3  0  0  0  0  0  0
  -28.6270  -13.4190   20.8020 C   0  0  0  0  0  2  0  0  0  0  0  0
  -29.8780  -13.8250   20.1480 N   0  0  0  0  0  0  0  0  0  0  0  0
  -31.7370  -15.0660   20.0940 O   0  0  0  0  0  0  0  0  0  0  0  0
  -29.6490  -16.1110   18.2850 C   0  0  0  0  0  1  0  0  0  0  0  0
  -29.7960  -16.2360   19.7540 N   0  0  0  0  0  0  0  0  0  0  0  0
  -25.1830  -13.9360   20.4780 C   0  0  0  0  0  0  0  0  0  0  0  0
  -24.1230  -13.1560   20.8510 C   0  0  0  0  0  0  0  0  0  0  0  0
  -24.5900  -11.8080   20.8110 C   0  0  0  0  0  0  0  0  0  0  0  0
  -26.2240  -13.0600   20.2230 N   0  0  0  0  0  0  0  0  0  0  0  0
  -25.8790  -11.7750   20.4910 N   0  0  0  0  0  0  0  0  0  0  0  0
  -23.8690  -10.5420   21.0010 C   0  0  0  0  0  0  0  0  0  0  0  0
  -24.3030   -9.5770   21.9350 C   0  0  0  0  0  3  0  0  0  0  0  0
  -23.5820   -8.3760   22.1130 C   0  0  0  0  0  3  0  0  0  0  0  0
  -22.4120   -8.1330   21.3560 C   0  0  0  0  0  0  0  0  0  0  0  0
  -21.9950   -9.0880   20.4110 C   0  0  0  0  0  3  0  0  0  0  0  0
  -22.7170  -10.2800   20.2320 C   0  0  0  0  0  3  0  0  0  0  0  0
  -21.6610   -6.9850   21.4430 O   0  0  0  0  0  0  0  0  0  0  0  0
  -21.6080   -6.2470   22.5980 C   0  0  0  0  0  0  0  0  0  0  0  0
  -21.1710   -6.8040   23.8200 C   0  0  0  0  0  3  0  0  0  0  0  0
  -21.0670   -5.9920   24.9660 C   0  0  0  0  0  3  0  0  0  0  0  0
  -21.3880   -4.6230   24.8920 C   0  0  0  0  0  0  0  0  0  0  0  0
  -21.8180   -4.0660   23.6750 C   0  0  0  0  0  3  0  0  0  0  0  0
  -21.9260   -4.8750   22.5300 C   0  0  0  0  0  0  0  0  0  0  0  0
  -22.3200   -4.3290   21.3550 F   0  0  0  0  0  0  0  0  0  0  0  0
  -21.2800   -3.8400   25.9900 F   0  0  0  0  0  0  0  0  0  0  0  0
  -22.7280  -13.6300   21.1370 C   0  0  0  0  0  0  0  0  0  0  0  0
  -22.0090  -12.9240   22.0030 N   0  0  0  0  0  0  0  0  0  0  0  0
  -22.2840  -14.6570   20.6280 O   0  0  0  0  0  0  0  0  0  0  0  0
  -22.3840  -12.0920   22.4350 H   0  0  0  0  0  0  0  0  0  0  0  0
  -21.0740  -13.2210   22.2410 H   0  0  0  0  0  0  0  0  0  0  0  0
  -25.3460  -15.3070   20.3070 N   0  0  0  0  0  0  0  0  0  0  0  0
  -24.5820  -15.9630   20.4300 H   0  0  0  0  0  0  0  0  0  0  0  0
  -26.2020  -15.7530   19.9990 H   0  0  0  0  0  0  0  0  0  0  0  0
  -31.3370  -17.9040   22.0830 C   0  0  1  0  0  0  0  0  0  0  0  0
  -31.6660  -18.7030   23.1000 F   0  0  0  0  0  0  0  0  0  0  0  0
  -30.8490  -16.7820   22.6130 F   0  0  0  0  0  0  0  0  0  0  0  0
  -32.4490  -17.6270   21.4050 F   0  0  0  0  0  0  0  0  0  0  0  0
  -28.2540  -26.2640   20.1990 O   0  0  0  0  0  0  0  0  0  0  0  0
  -24.5830  -31.9310   23.2270 C   0  0  0  0  0  0  0  0  0  0  0  0
  -27.1720  -27.2220   20.2120 C   0  0  0  0  0  0  0  0  0  0  0  0
  -23.3790  -30.5260   21.5950 C   0  0  0  0  0  3  0  0  0  0  0  0
  -24.8270  -28.9450   20.1740 C   0  0  0  0  0  0  0  0  0  0  0  0
  -25.9270  -30.8070   21.4100 C   0  0  0  0  0  2  0  0  0  0  0  0
  -26.0080  -29.4080   20.7710 C   0  0  0  0  0  0  0  0  0  0  0  0
  -27.1820  -28.5650   20.7680 C   0  0  0  0  0  3  0  0  0  0  0  0
  -25.9680  -26.8580   19.5740 C   0  0  0  0  0  3  0  0  0  0  0  0
  -24.8190  -27.6820   19.5600 C   0  0  0  0  0  3  0  0  0  0  0  0
  -23.5960  -29.8380   20.2200 C   0  0  0  0  0  2  0  0  0  0  0  0
  -24.6500  -31.1100   22.1330 N   0  0  0  0  0  0  0  0  0  0  0  0
  -23.5000  -32.2130   23.7640 O   0  0  0  0  0  0  0  0  0  0  0  0
  -22.7090  -29.5220   22.5670 C   0  0  0  0  0  0  0  0  0  0  0  0
  -21.3810  -29.3430   22.4460 N   0  0  0  0  0  0  0  0  0  0  0  0
  -23.3870  -28.9050   23.3930 O   0  0  0  0  0  0  0  0  0  0  0  0
  -20.8910  -29.8900   21.7510 H   0  0  0  0  0  0  0  0  0  0  0  0
  -18.0150  -28.1040   22.9550 C   0  0  0  0  0  0  0  0  0  0  0  0
  -20.5700  -28.4030   23.2250 C   0  0  0  0  0  3  0  0  0  0  0  0
  -20.6920  -26.9670   22.6670 C   0  0  0  0  0  2  0  0  0  0  0  0
  -19.5980  -26.6190   21.6540 C   0  0  0  0  0  2  0  0  0  0  0  0
  -18.2120  -26.7510   22.2920 C   0  0  0  0  0  2  0  0  0  0  0  0
  -19.1220  -28.8860   23.3790 C   0  0  0  0  0  0  0  0  0  0  0  0
  -18.8840  -30.1490   23.9640 C   0  0  0  0  0  3  0  0  0  0  0  0
  -17.5720  -30.6320   24.1260 C   0  0  0  0  0  3  0  0  0  0  0  0
  -16.4790  -29.8480   23.7170 C   0  0  0  0  0  3  0  0  0  0  0  0
  -16.7010  -28.5870   23.1390 C   0  0  0  0  0  3  0  0  0  0  0  0
  -25.8640  -32.5730   23.8430 C   0  0  0  0  0  3  0  0  0  0  0  0
  -26.3890  -31.8060   25.1190 C   0  0  1  0  0  0  0  0  0  0  0  0
  -25.3040  -31.5680   26.1950 C   0  0  0  0  0  1  0  0  0  0  0  0
  -26.9740  -30.4290   24.7340 C   0  0  0  0  0  1  0  0  0  0  0  0
  -27.5430  -32.6050   25.7710 C   0  0  0  0  0  1  0  0  0  0  0  0
  -25.5490  -33.9710   24.1780 N   0  0  0  0  0  0  0  0  0  0  0  0
  -25.8730  -35.0300   23.4250 C   0  0  0  0  0  0  0  0  0  0  0  0
  -26.5350  -34.9350   22.3890 O   0  0  0  0  0  0  0  0  0  0  0  0
  -24.9550  -34.1180   24.9810 H   0  0  0  0  0  0  0  0  0  0  0  0
  -24.1390  -36.8250   23.0960 C   0  0  0  0  0  1  0  0  0  0  0  0
  -25.3860  -36.4170   23.8950 C   0  0  0  0  0  3  0  0  0  0  0  0
  -27.5260  -37.3020   24.7130 C   0  0  0  0  0  1  0  0  0  0  0  0
  -26.4150  -37.4720   23.7790 N   0  0  0  0  0  0  0  0  0  0  0  0
  -26.0080  -38.3910   23.9340 H   0  0  0  0  0  0  0  0  0  0  0  0
  1  3  1  0
  1  7  2  0
  2  6  1  0
  2  4  1  0
  4  1  1  0
  4  5  1  1
  6  3  1  0
  8  2  2  0
  9 13  1  0
 10  9  2  0
 10 14  1  0
 12 11  1  0
 12 53  1  0
 13  6  1  0
 13 11  2  0
 14 12  2  0
 16 21  1  0
 17 18  1  0
 17 16  1  0
 19 18  1  0
 19 28  1  0
 19 20  1  0
 21 15  1  0
 21 20  1  0
 22 15  2  0
 23 24  1  0
 24 14  1  0
 24 15  1  0
 25 26  2  0
 26 45  1  0
 27 26  1  0
 27 30  1  0
 28 25  1  0
 28 29  1  0
 29 27  2  0
 30 31  1  0
 31 32  2  0
 33 36  1  0
 33 32  1  0
 34 33  2  0
 35 34  1  0
 35 30  2  0
 36 37  1  0
 37 38  1  0
 38 39  2  0
 40 39  1  0
 40 44  1  0
 41 40  2  0
 42 37  2  0
 42 41  1  0
 43 42  1  0
 45 46  1  0
 46 49  1  0
 46 48  1  0
 47 45  2  0
 50 51  1  0
 50 25  1  0
 52 50  1  0
 53 55  1  1
 53 54  1  0
 56 53  1  0
 57 59  1  0
 57  4  1  0
 58 69  2  0
 59 64  1  0
 60 68  1  0
 60 70  1  0
 61 67  1  0
 61 63  1  0
 62 68  1  0
 63 62  1  0
 64 63  2  0
 65 59  2  0
 66 65  1  0
 66 61  2  0
 67 60  1  0
 68 58  1  0
 70 72  2  0
 71 70  1  0
 73 71  1  0
 74 83  2  0
 74 79  1  0
 75 71  1  0
 75 79  1  0
 76 75  1  0
 77 78  1  0
 77 76  1  0
 78 74  1  0
 79 80  2  0
 80 81  1  0
 82 81  2  0
 83 82  1  0
 84 58  1  0
 84 89  1  0
 84 85  1  0
 85 88  1  1
 85 86  1  0
 87 85  1  0
 89 92  1  0
 90 94  1  0
 90 89  1  0
 91 90  2  0
 94 93  1  0
 96 94  1  0
 96 97  1  0
 96 95  1  0
M  ISO  4   4 101  15 100  24 100  57 101
M  END
>  <TORSDO>  (58) 
F 18

>  <SCORE>  (58) 
-14.419

>  <name>  (58) 
57

>  <ligand_id>  (58) 
57

>  <original_smiles>  (58) 
[H]c1c([H])c([H])c2c(c1[H])C([H])([H])C([H])([H])C([H])([H])C2([H])N([H])C(=O)C1([H])N(C(=O)C([H])(N([H])C(=O)C([H])(N([H])C([H])([H])[H])C([H])([H])[H])C(C([H])([H])[H])(C([H])([H])[H])C([H])([H])[H])C([H])([H])c2c([H])c(OC3(C([H])([H])[H])C(=O)N(c4c([H])c([H])c(N(C(=O)N5C([H])([H])C([H])([H])C([H])([H])C([H])(n6nc(-c7c([H])c([H])c(Oc8c([H])c([H])c(F)c([H])c8F)c([H])c7[H])c(C(=O)N([H])[H])c6N([H])[H])C5([H])[H])C([H])([H])[H])c(C(F)(F)F)c4[H])C([H])([H])C3=O)c([H])c([H])c2C1([H])[H]

>  <smiles>  (58) 
[H]c1c([H])c([H])c2c(c1[H])C([H])([H])C([H])([H])C([H])([H])C2([H])N([H])C(=O)C1([H])N(C(=O)C([H])(N([H])C(=O)C([H])(N([H])C([H])([H])[H])C([H])([H])[H])C(C([H])([H])[H])(C([H])([H])[H])C([H])([H])[H])C([H])([H])c2c([H])c(OC3(C([H])([H])[H])C(=O)N(c4c([H])c([H])c(N(C(=O)N5C([H])([H])C([H])([H])C([H])([H])C([H])(n6nc(-c7c([H])c([H])c(Oc8c([H])c([H])c(F)c([H])c8F)c([H])c7[H])c(C(=O)N([H])[H])c6N([H])[H])C5([H])[H])C([H])([H])[H])c(C(F)(F)F)c4[H])C([H])([H])C3=O)c([H])c([H])c2C1([H])[H]

$$$$
58:0:0
     RDKit          3D

 99107  0  0  1  0  0  0  0  0999 V2000
  -30.6270  -24.7770   21.0870 C   0  0  0  0  0  1  0  0  0  0  0  0
  -29.6260  -24.1620   20.0840 C   0  0  1  0  0  0  0  0  0  0  0  0
  -28.9490  -21.6710   19.9100 C   0  0  0  0  0  0  0  0  0  0  0  0
  -29.6220  -22.6640   20.4500 N   0  0  0  0  0  2  0  0  0  0  0  0
  -27.9060  -21.8590   19.0310 N   0  0  0  0  0  4  0  0  0  0  0  0
  -27.4340  -21.0410   18.6590 H   0  0  0  0  0  0  0  0  0  0  0  0
  -27.1770  -22.5230   19.2780 H   0  0  0  0  0  0  0  0  0  0  0  0
  -30.5590  -19.5510   20.0390 C   0  0  0  0  0  3  0  0  0  0  0  0
  -28.2190  -19.2300   20.4000 C   0  0  0  0  0  3  0  0  0  0  0  0
  -30.7760  -18.1280   20.1300 C   0  0  0  0  0  3  0  0  0  0  0  0
  -28.4320  -17.8230   20.5160 C   0  0  0  0  0  3  0  0  0  0  0  0
  -29.2680  -20.1540   20.1490 C   0  0  0  0  0  0  0  0  0  0  0  0
  -29.7060  -17.2110   20.3650 C   0  0  0  0  0  0  0  0  0  0  0  0
  -30.5980  -14.7330   20.0450 C   0  0  0  0  0  0  0  0  0  0  0  0
  -30.3850  -12.4960   18.9510 C   0  0  0  0  0  2  0  0  0  0  0  0
  -29.3680  -12.6250   17.7910 C   0  0  0  0  0  2  0  0  0  0  0  0
  -27.9210  -12.4440   18.2950 C   0  0  0  0  0  2  0  0  0  0  0  0
  -27.6260  -13.2810   19.5670 C   0  0  0  0  0  3  0  0  0  0  0  0
  -28.7440  -13.1050   20.6190 C   0  0  0  0  0  2  0  0  0  0  0  0
  -30.0160  -13.4880   19.9830 N   0  0  0  0  0  0  0  0  0  0  0  0
  -31.7310  -14.9270   19.5920 O   0  0  0  0  0  0  0  0  0  0  0  0
  -29.7750  -15.7420   20.4980 N   0  0  0  0  0  0  0  0  0  0  0  0
  -28.9230  -15.3440   20.8620 H   0  0  0  0  0  0  0  0  0  0  0  0
  -25.2760  -13.8700   20.4230 C   0  0  0  0  0  0  0  0  0  0  0  0
  -24.2300  -13.0920   20.8380 C   0  0  0  0  0  0  0  0  0  0  0  0
  -24.6870  -11.7410   20.7560 C   0  0  0  0  0  0  0  0  0  0  0  0
  -26.3050  -12.9920   20.1160 N   0  0  0  0  0  0  0  0  0  0  0  0
  -25.9590  -11.7060   20.3760 N   0  0  0  0  0  0  0  0  0  0  0  0
  -23.9690  -10.4770   20.9610 C   0  0  0  0  0  0  0  0  0  0  0  0
  -24.4240   -9.5100   21.8850 C   0  0  0  0  0  3  0  0  0  0  0  0
  -23.7050   -8.3100   22.0780 C   0  0  0  0  0  3  0  0  0  0  0  0
  -22.5180   -8.0680   21.3460 C   0  0  0  0  0  0  0  0  0  0  0  0
  -22.0830   -9.0230   20.4100 C   0  0  0  0  0  3  0  0  0  0  0  0
  -22.8020  -10.2140   20.2160 C   0  0  0  0  0  3  0  0  0  0  0  0
  -21.7710   -6.9210   21.4480 O   0  0  0  0  0  0  0  0  0  0  0  0
  -21.7130   -6.2010   22.6140 C   0  0  0  0  0  0  0  0  0  0  0  0
  -21.2660   -6.7750   23.8240 C   0  0  0  0  0  3  0  0  0  0  0  0
  -21.1570   -5.9810   24.9830 C   0  0  0  0  0  3  0  0  0  0  0  0
  -21.4850   -4.6120   24.9330 C   0  0  0  0  0  0  0  0  0  0  0  0
  -21.9250   -4.0380   23.7280 C   0  0  0  0  0  3  0  0  0  0  0  0
  -22.0360   -4.8280   22.5710 C   0  0  0  0  0  0  0  0  0  0  0  0
  -22.4410   -4.2650   21.4080 F   0  0  0  0  0  0  0  0  0  0  0  0
  -21.3730   -3.8480   26.0440 F   0  0  0  0  0  0  0  0  0  0  0  0
  -22.8510  -13.5660   21.1930 C   0  0  0  0  0  0  0  0  0  0  0  0
  -22.1680  -12.8550   22.0840 N   0  0  0  0  0  0  0  0  0  0  0  0
  -22.3870  -14.6000   20.7150 O   0  0  0  0  0  0  0  0  0  0  0  0
  -22.5560  -12.0170   22.4910 H   0  0  0  0  0  0  0  0  0  0  0  0
  -21.2450  -13.1540   22.3640 H   0  0  0  0  0  0  0  0  0  0  0  0
  -25.4310  -15.2430   20.2550 N   0  0  0  0  0  0  0  0  0  0  0  0
  -24.6560  -15.8830   20.3890 H   0  0  0  0  0  0  0  0  0  0  0  0
  -26.2210  -15.6710   19.7920 H   0  0  0  0  0  0  0  0  0  0  0  0
  -28.2690  -24.9890   20.2830 C   0  0  0  0  0  0  0  0  0  0  0  0
  -27.2270  -24.3950   20.5770 O   0  0  0  0  0  0  0  0  0  0  0  0
  -28.3530  -26.4410   20.0800 O   0  0  0  0  0  0  0  0  0  0  0  0
  -24.5720  -31.8220   23.1580 C   0  0  0  0  0  0  0  0  0  0  0  0
  -27.2330  -27.3000   20.0630 C   0  0  0  0  0  0  0  0  0  0  0  0
  -23.3900  -30.4440   21.4860 C   0  0  0  0  0  3  0  0  0  0  0  0
  -24.8610  -28.9180   20.0510 C   0  0  0  0  0  0  0  0  0  0  0  0
  -25.9320  -30.7680   21.3370 C   0  0  0  0  0  2  0  0  0  0  0  0
  -26.0230  -29.3960   20.6730 C   0  0  0  0  0  0  0  0  0  0  0  0
  -27.2090  -28.5970   20.6730 C   0  0  0  0  0  3  0  0  0  0  0  0
  -26.0480  -26.8890   19.4090 C   0  0  0  0  0  3  0  0  0  0  0  0
  -24.8780  -27.6700   19.4120 C   0  0  0  0  0  3  0  0  0  0  0  0
  -23.6220  -29.7900   20.0990 C   0  0  0  0  0  2  0  0  0  0  0  0
  -24.6490  -31.0290   22.0510 N   0  0  0  0  0  0  0  0  0  0  0  0
  -23.4810  -32.0880   23.6860 O   0  0  0  0  0  0  0  0  0  0  0  0
  -22.7210  -29.4110   22.4240 C   0  0  0  0  0  0  0  0  0  0  0  0
  -21.3970  -29.2290   22.2800 N   0  0  0  0  0  0  0  0  0  0  0  0
  -23.3930  -28.7780   23.2420 O   0  0  0  0  0  0  0  0  0  0  0  0
  -20.9140  -29.7920   21.5930 H   0  0  0  0  0  0  0  0  0  0  0  0
  -18.0210  -28.0060   22.7220 C   0  0  0  0  0  0  0  0  0  0  0  0
  -20.5740  -28.2760   23.0280 C   0  0  0  0  0  3  0  0  0  0  0  0
  -20.6920  -26.8530   22.4350 C   0  0  0  0  0  2  0  0  0  0  0  0
  -19.6040  -26.5370   21.4020 C   0  0  0  0  0  2  0  0  0  0  0  0
  -18.2130  -26.6660   22.0300 C   0  0  0  0  0  2  0  0  0  0  0  0
  -19.1290  -28.7690   23.1760 C   0  0  0  0  0  0  0  0  0  0  0  0
  -18.8950  -30.0220   23.7810 C   0  0  0  0  0  3  0  0  0  0  0  0
  -17.5850  -30.5130   23.9370 C   0  0  0  0  0  3  0  0  0  0  0  0
  -16.4910  -29.7480   23.5000 C   0  0  0  0  0  3  0  0  0  0  0  0
  -16.7090  -28.4950   22.8980 C   0  0  0  0  0  3  0  0  0  0  0  0
  -25.8450  -32.4510   23.8030 C   0  0  0  0  0  3  0  0  0  0  0  0
  -25.5280  -33.8440   24.1480 N   0  0  0  0  0  0  0  0  0  0  0  0
  -25.8600  -34.9080   23.4030 C   0  0  0  0  0  0  0  0  0  0  0  0
  -26.5340  -34.8190   22.3740 O   0  0  0  0  0  0  0  0  0  0  0  0
  -24.9290  -33.9860   24.9480 H   0  0  0  0  0  0  0  0  0  0  0  0
  -24.1240  -36.6980   23.0670 C   0  0  0  0  0  1  0  0  0  0  0  0
  -25.3660  -36.2890   23.8760 C   0  0  0  0  0  3  0  0  0  0  0  0
  -27.4940  -37.1740   24.7210 C   0  0  0  0  0  1  0  0  0  0  0  0
  -26.3940  -37.3470   23.7770 N   0  0  0  0  0  0  0  0  0  0  0  0
  -25.9830  -38.2640   23.9320 H   0  0  0  0  0  0  0  0  0  0  0  0
  -26.3490  -31.6660   25.0770 C   0  0  1  0  0  0  0  0  0  0  0  0
  -25.2430  -31.4130   26.1290 C   0  0  0  0  0  1  0  0  0  0  0  0
  -26.9390  -30.2930   24.6770 C   0  0  0  0  0  1  0  0  0  0  0  0
  -27.4900  -32.4540   25.7610 C   0  0  0  0  0  1  0  0  0  0  0  0
  -30.2260  -24.3700   18.6590 C   0  0  0  0  0  2  0  0  0  0  0  0
  -30.1030  -23.6100   16.2980 C   0  0  0  0  0  1  0  0  0  0  0  0
  -29.3820  -23.8550   17.5610 N   0  0  0  0  0  4  0  0  0  0  0  0
  -28.9760  -22.9820   17.8890 H   0  0  0  0  0  0  0  0  0  0  0  0
  -28.6230  -24.4910   17.3810 H   0  0  0  0  0  0  0  0  0  0  0  0
  2 52  1  0
  2  4  1  0
  2  1  1  1
  3 12  1  0
  3  4  1  0
  5  7  1  0
  5  3  2  0
  6  5  1  0
  8 10  2  0
  8 12  1  0
  9 11  1  0
 10 13  1  0
 12  9  2  0
 13 22  1  0
 13 11  2  0
 14 22  1  0
 15 20  1  0
 16 17  1  0
 16 15  1  0
 18 17  1  0
 18 27  1  0
 18 19  1  0
 20 14  1  0
 20 19  1  0
 21 14  2  0
 22 23  1  0
 24 25  2  0
 25 44  1  0
 26 25  1  0
 26 29  1  0
 27 28  1  0
 27 24  1  0
 28 26  2  0
 29 30  1  0
 30 31  2  0
 32 35  1  0
 32 31  1  0
 33 32  2  0
 34 33  1  0
 34 29  2  0
 35 36  1  0
 36 37  1  0
 37 38  2  0
 39 38  1  0
 39 43  1  0
 40 39  2  0
 41 36  2  0
 41 40  1  0
 42 41  1  0
 44 45  1  0
 45 48  1  0
 45 47  1  0
 46 44  2  0
 49 50  1  0
 49 24  1  0
 51 49  1  0
 52 53  2  0
 54 52  1  0
 55 66  2  0
 56 54  1  0
 56 61  1  0
 57 65  1  0
 57 67  1  0
 58 64  1  0
 58 60  1  0
 59 65  1  0
 60 61  2  0
 60 59  1  0
 62 63  1  0
 62 56  2  0
 63 58  2  0
 64 57  1  0
 65 55  1  0
 67 69  2  0
 68 67  1  0
 70 68  1  0
 71 80  2  0
 71 76  1  0
 72 68  1  0
 72 76  1  0
 73 72  1  0
 74 75  1  0
 74 73  1  0
 75 71  1  0
 76 77  2  0
 77 78  1  0
 79 78  2  0
 80 79  1  0
 81 55  1  0
 81 82  1  0
 81 91  1  0
 82 85  1  0
 83 87  1  0
 83 82  1  0
 84 83  2  0
 87 86  1  0
 89 87  1  0
 89 90  1  0
 89 88  1  0
 91 94  1  1
 91 92  1  0
 93 91  1  0
 95  2  1  0
 96 97  1  0
 97 98  1  0
 97 95  1  0
 99 97  1  0
M  ISO  4  14 100  22 100  52 101  54 101
M  END
>  <TORSDO>  (59) 
F 21

>  <SCORE>  (59) 
-13.688

>  <name>  (59) 
58

>  <ligand_id>  (59) 
58

>  <original_smiles>  (59) 
[H]c1c([H])c([H])c2c(c1[H])C([H])([H])C([H])([H])C([H])([H])C2([H])N([H])C(=O)C1([H])N(C(=O)C([H])(N([H])C(=O)C([H])(N([H])C([H])([H])[H])C([H])([H])[H])C(C([H])([H])[H])(C([H])([H])[H])C([H])([H])[H])C([H])([H])c2c([H])c(OC(=O)C(N=C(c3c([H])c([H])c(N([H])C(=O)N4C([H])([H])C([H])([H])C([H])([H])C([H])(n5nc(-c6c([H])c([H])c(Oc7c([H])c([H])c(F)c([H])c7F)c([H])c6[H])c(C(=O)N([H])[H])c5N([H])[H])C4([H])[H])c([H])c3[H])N([H])[H])(C([H])([H])[H])C([H])([H])[N+]([H])([H])C([H])([H])[H])c([H])c([H])c2C1([H])[H]

>  <smiles>  (59) 
[H]c1c([H])c([H])c2c(c1[H])C([H])([H])C([H])([H])C([H])([H])C2([H])N([H])C(=O)C1([H])N(C(=O)C([H])(N([H])C(=O)C([H])(N([H])C([H])([H])[H])C([H])([H])[H])C(C([H])([H])[H])(C([H])([H])[H])C([H])([H])[H])C([H])([H])c2c([H])c(OC(=O)C(N=C(c3c([H])c([H])c(N([H])C(=O)N4C([H])([H])C([H])([H])C([H])([H])C([H])(n5nc(-c6c([H])c([H])c(Oc7c([H])c([H])c(F)c([H])c7F)c([H])c6[H])c(C(=O)N([H])[H])c5N([H])[H])C4([H])[H])c([H])c3[H])N([H])[H])(C([H])([H])[H])C([H])([H])[N+]([H])([H])C([H])([H])[H])c([H])c([H])c2C1([H])[H]

$$$$
59:0:0
     RDKit          3D

 98107  0  0  1  0  0  0  0  0999 V2000
  -29.5730  -23.1380   21.0380 C   0  0  0  0  0  0  0  0  0  0  0  0
  -30.6670  -22.5770   21.7910 C   0  0  0  0  0  0  0  0  0  0  0  0
  -28.8930  -21.9990   20.4040 C   0  0  0  0  0  0  0  0  0  0  0  0
  -31.6210  -23.2660   22.4450 C   0  0  0  0  0  1  0  0  0  0  0  0
  -29.2360  -24.4670   20.9840 C   0  0  0  0  0  2  0  0  0  0  0  0
  -30.6230  -21.0740   21.7020 C   0  0  0  0  0  2  0  0  0  0  0  0
  -29.5450  -20.8280   20.7400 N   0  0  0  0  0  0  0  0  0  0  0  0
  -27.8760  -22.0740   19.7080 O   0  0  0  0  0  0  0  0  0  0  0  0
  -28.8060  -19.3700   18.8760 C   0  0  0  0  0  3  0  0  0  0  0  0
  -29.6880  -18.2630   20.8650 C   0  0  0  0  0  3  0  0  0  0  0  0
  -29.3360  -19.4870   20.1840 C   0  0  0  0  0  0  0  0  0  0  0  0
  -28.6040  -18.1160   18.2770 C   0  0  0  0  0  0  0  0  0  0  0  0
  -29.4990  -16.9680   20.2600 C   0  0  0  0  0  0  0  0  0  0  0  0
  -28.9490  -16.9320   18.9550 C   0  0  0  0  0  0  0  0  0  0  0  0
  -28.7110  -15.7520   18.3370 F   0  0  0  0  0  0  0  0  0  0  0  0
  -30.4440  -14.6530   20.4560 C   0  0  0  0  0  0  0  0  0  0  0  0
  -30.2350  -12.4260   19.3920 C   0  0  0  0  0  2  0  0  0  0  0  0
  -29.2830  -12.5420   18.1840 C   0  0  0  0  0  2  0  0  0  0  0  0
  -27.8130  -12.3800   18.6200 C   0  0  0  0  0  2  0  0  0  0  0  0
  -27.4520  -13.2220   19.8730 C   0  0  0  0  0  3  0  0  0  0  0  0
  -28.5230  -13.0810   20.9780 C   0  0  0  0  0  2  0  0  0  0  0  0
  -29.8280  -13.4320   20.3940 N   0  0  0  0  0  0  0  0  0  0  0  0
  -31.5740  -14.8340   19.9970 O   0  0  0  0  0  0  0  0  0  0  0  0
  -29.7210  -15.7020   20.9460 N   0  0  0  0  0  0  0  0  0  0  0  0
  -28.9400  -15.4070   21.5130 H   0  0  0  0  0  0  0  0  0  0  0  0
  -25.0530  -13.7660   20.6170 C   0  0  0  0  0  0  0  0  0  0  0  0
  -24.0050  -12.9680   20.9890 C   0  0  0  0  0  0  0  0  0  0  0  0
  -24.4950  -11.6270   20.9390 C   0  0  0  0  0  0  0  0  0  0  0  0
  -26.1120  -12.9090   20.3630 N   0  0  0  0  0  0  0  0  0  0  0  0
  -25.7830  -11.6170   20.6190 N   0  0  0  0  0  0  0  0  0  0  0  0
  -23.7960  -10.3470   21.1250 C   0  0  0  0  0  0  0  0  0  0  0  0
  -24.2690   -9.3730   22.0320 C   0  0  0  0  0  3  0  0  0  0  0  0
  -23.5690   -8.1600   22.2090 C   0  0  0  0  0  3  0  0  0  0  0  0
  -22.3850   -7.9100   21.4760 C   0  0  0  0  0  0  0  0  0  0  0  0
  -21.9310   -8.8740   20.5570 C   0  0  0  0  0  3  0  0  0  0  0  0
  -22.6310  -10.0780   20.3790 C   0  0  0  0  0  3  0  0  0  0  0  0
  -21.6550   -6.7480   21.5620 O   0  0  0  0  0  0  0  0  0  0  0  0
  -21.6630   -5.9770   22.6960 C   0  0  0  0  0  0  0  0  0  0  0  0
  -21.2550   -6.4870   23.9470 C   0  0  0  0  0  3  0  0  0  0  0  0
  -21.2120   -5.6390   25.0730 C   0  0  0  0  0  3  0  0  0  0  0  0
  -21.5660   -4.2830   24.9480 C   0  0  0  0  0  0  0  0  0  0  0  0
  -21.9670   -3.7720   23.7010 C   0  0  0  0  0  3  0  0  0  0  0  0
  -22.0130   -4.6170   22.5770 C   0  0  0  0  0  0  0  0  0  0  0  0
  -22.3790   -4.1150   21.3740 F   0  0  0  0  0  0  0  0  0  0  0  0
  -21.5190   -3.4660   26.0260 F   0  0  0  0  0  0  0  0  0  0  0  0
  -22.6010  -13.4140   21.2790 C   0  0  0  0  0  0  0  0  0  0  0  0
  -21.8980  -12.6950   22.1490 N   0  0  0  0  0  0  0  0  0  0  0  0
  -22.1320  -14.4310   20.7680 O   0  0  0  0  0  0  0  0  0  0  0  0
  -22.2920  -11.8740   22.5820 H   0  0  0  0  0  0  0  0  0  0  0  0
  -20.9560  -12.9720   22.3890 H   0  0  0  0  0  0  0  0  0  0  0  0
  -25.1880  -15.1410   20.4490 N   0  0  0  0  0  0  0  0  0  0  0  0
  -24.4110  -15.7810   20.5660 H   0  0  0  0  0  0  0  0  0  0  0  0
  -26.0170  -15.5880   20.0800 H   0  0  0  0  0  0  0  0  0  0  0  0
  -28.0440  -18.0420   17.0010 N   0  0  0  0  0  0  0  0  0  0  0  0
  -28.1120  -18.8480   16.3870 H   0  0  0  0  0  0  0  0  0  0  0  0
  -28.1210  -17.1500   16.5210 H   0  0  0  0  0  0  0  0  0  0  0  0
  -28.0840  -25.2020   20.2740 C   0  0  0  0  0  2  0  0  0  0  0  0
  -28.2640  -26.6520   20.2690 O   0  0  0  0  0  0  0  0  0  0  0  0
  -24.5630  -31.9770   23.2930 C   0  0  0  0  0  0  0  0  0  0  0  0
  -27.1250  -27.4500   20.2200 C   0  0  0  0  0  0  0  0  0  0  0  0
  -23.3350  -30.5940   21.6550 C   0  0  0  0  0  3  0  0  0  0  0  0
  -24.7620  -29.0370   20.2200 C   0  0  0  0  0  0  0  0  0  0  0  0
  -25.8680  -30.9080   21.4500 C   0  0  0  0  0  2  0  0  0  0  0  0
  -25.9330  -29.5320   20.8070 C   0  0  0  0  0  0  0  0  0  0  0  0
  -27.1180  -28.7500   20.7960 C   0  0  0  0  0  3  0  0  0  0  0  0
  -25.9350  -26.9910   19.6100 C   0  0  0  0  0  3  0  0  0  0  0  0
  -24.7610  -27.7700   19.6130 C   0  0  0  0  0  3  0  0  0  0  0  0
  -23.5320  -29.9170   20.2730 C   0  0  0  0  0  2  0  0  0  0  0  0
  -24.6090  -31.1730   22.1930 N   0  0  0  0  0  0  0  0  0  0  0  0
  -23.4870  -32.2640   23.8360 O   0  0  0  0  0  0  0  0  0  0  0  0
  -22.6670  -29.5830   22.6150 C   0  0  0  0  0  0  0  0  0  0  0  0
  -21.3420  -29.4100   22.4810 N   0  0  0  0  0  0  0  0  0  0  0  0
  -23.3390  -28.9560   23.4370 O   0  0  0  0  0  0  0  0  0  0  0  0
  -20.8580  -29.9640   21.7880 H   0  0  0  0  0  0  0  0  0  0  0  0
  -17.9600  -28.2270   22.9540 C   0  0  0  0  0  0  0  0  0  0  0  0
  -20.5170  -28.4800   23.2510 C   0  0  0  0  0  3  0  0  0  0  0  0
  -20.6210  -27.0440   22.6830 C   0  0  0  0  0  2  0  0  0  0  0  0
  -19.5290  -26.7180   21.6610 C   0  0  0  0  0  2  0  0  0  0  0  0
  -18.1410  -26.8730   22.2890 C   0  0  0  0  0  2  0  0  0  0  0  0
  -19.0770  -28.9880   23.3910 C   0  0  0  0  0  0  0  0  0  0  0  0
  -18.8560  -30.2580   23.9690 C   0  0  0  0  0  3  0  0  0  0  0  0
  -17.5520  -30.7650   24.1180 C   0  0  0  0  0  3  0  0  0  0  0  0
  -16.4480  -29.9990   23.6990 C   0  0  0  0  0  3  0  0  0  0  0  0
  -16.6540  -28.7340   23.1210 C   0  0  0  0  0  3  0  0  0  0  0  0
  -25.8590  -32.5920   23.9100 C   0  0  0  0  0  3  0  0  0  0  0  0
  -26.3630  -31.8200   25.1900 C   0  0  1  0  0  0  0  0  0  0  0  0
  -25.2660  -31.6050   26.2590 C   0  0  0  0  0  1  0  0  0  0  0  0
  -26.9240  -30.4310   24.8050 C   0  0  0  0  0  1  0  0  0  0  0  0
  -27.5240  -32.5980   25.8520 C   0  0  0  0  0  1  0  0  0  0  0  0
  -25.5740  -33.9980   24.2300 N   0  0  0  0  0  0  0  0  0  0  0  0
  -25.9110  -35.0390   23.4570 C   0  0  0  0  0  0  0  0  0  0  0  0
  -26.5660  -34.9160   22.4180 O   0  0  0  0  0  0  0  0  0  0  0  0
  -24.9920  -34.1700   25.0360 H   0  0  0  0  0  0  0  0  0  0  0  0
  -24.2010  -36.8500   23.1060 C   0  0  0  0  0  1  0  0  0  0  0  0
  -25.4490  -36.4380   23.9040 C   0  0  0  0  0  3  0  0  0  0  0  0
  -27.6060  -37.3070   24.6920 C   0  0  0  0  0  1  0  0  0  0  0  0
  -26.4920  -37.4770   23.7630 N   0  0  0  0  0  0  0  0  0  0  0  0
  -26.0990  -38.4050   23.9050 H   0  0  0  0  0  0  0  0  0  0  0  0
  1  2  2  0
  2  4  1  0
  3  7  1  0
  3  1  1  0
  5  1  1  0
  6  2  1  0
  7  6  1  0
  8  3  2  0
  9 11  1  0
 11  7  1  0
 11 10  2  0
 12  9  2  0
 12 14  1  0
 13 10  1  0
 13 24  1  0
 14 13  2  0
 15 14  1  0
 16 24  1  0
 17 22  1  0
 18 19  1  0
 18 17  1  0
 20 19  1  0
 20 29  1  0
 20 21  1  0
 22 16  1  0
 22 21  1  0
 23 16  2  0
 24 25  1  0
 26 27  2  0
 27 46  1  0
 28 27  1  0
 28 31  1  0
 29 26  1  0
 29 30  1  0
 30 28  2  0
 31 32  1  0
 32 33  2  0
 34 37  1  0
 34 33  1  0
 35 34  2  0
 36 35  1  0
 36 31  2  0
 37 38  1  0
 38 39  1  0
 39 40  2  0
 41 40  1  0
 41 45  1  0
 42 41  2  0
 43 38  2  0
 43 42  1  0
 44 43  1  0
 46 47  1  0
 47 50  1  0
 47 49  1  0
 48 46  2  0
 51 52  1  0
 51 26  1  0
 53 51  1  0
 54 12  1  0
 55 54  1  0
 56 54  1  0
 57  5  1  0
 58 57  1  0
 59 70  2  0
 60 58  1  0
 60 65  1  0
 61 69  1  0
 61 71  1  0
 62 68  1  0
 62 64  1  0
 63 69  1  0
 64 63  1  0
 65 64  2  0
 66 67  1  0
 66 60  2  0
 67 62  2  0
 68 61  1  0
 69 59  1  0
 71 73  2  0
 72 71  1  0
 74 72  1  0
 75 84  2  0
 75 80  1  0
 76 72  1  0
 76 80  1  0
 77 76  1  0
 78 79  1  0
 78 77  1  0
 79 75  1  0
 80 81  2  0
 81 82  1  0
 83 82  2  0
 84 83  1  0
 85 59  1  0
 85 90  1  0
 85 86  1  0
 86 89  1  1
 86 87  1  0
 88 86  1  0
 90 93  1  0
 91 95  1  0
 91 90  1  0
 92 91  2  0
 95 94  1  0
 97 95  1  0
 97 98  1  0
 97 96  1  0
M  ISO  4  16 100  24 100  57 101  58 101
M  END
>  <TORSDO>  (60) 
F 19

>  <SCORE>  (60) 
-12.800

>  <name>  (60) 
59

>  <ligand_id>  (60) 
59

>  <original_smiles>  (60) 
[H]C([H])=C1C(=C([H])C([H])([H])Oc2c([H])c([H])c3c(c2[H])C([H])([H])N(C(=O)C([H])(N([H])C(=O)C([H])(N([H])C([H])([H])[H])C([H])([H])[H])C(C([H])([H])[H])(C([H])([H])[H])C([H])([H])[H])C([H])(C(=O)N([H])C2([H])c4c([H])c([H])c([H])c([H])c4C([H])([H])C([H])([H])C2([H])[H])C3([H])[H])C(=O)N(c2c([H])c(N([H])[H])c(F)c(N([H])C(=O)N3C([H])([H])C([H])([H])C([H])([H])C([H])(n4nc(-c5c([H])c([H])c(Oc6c([H])c([H])c(F)c([H])c6F)c([H])c5[H])c(C(=O)N([H])[H])c4N([H])[H])C3([H])[H])c2[H])C1([H])[H]

>  <smiles>  (60) 
[H]C([H])=C1C(=C([H])C([H])([H])Oc2c([H])c([H])c3c(c2[H])C([H])([H])N(C(=O)C([H])(N([H])C(=O)C([H])(N([H])C([H])([H])[H])C([H])([H])[H])C(C([H])([H])[H])(C([H])([H])[H])C([H])([H])[H])C([H])(C(=O)N([H])C2([H])c4c([H])c([H])c([H])c([H])c4C([H])([H])C([H])([H])C2([H])[H])C3([H])[H])C(=O)N(c2c([H])c(N([H])[H])c(F)c(N([H])C(=O)N3C([H])([H])C([H])([H])C([H])([H])C([H])(n4nc(-c5c([H])c([H])c(Oc6c([H])c([H])c(F)c([H])c6F)c([H])c5[H])c(C(=O)N([H])[H])c4N([H])[H])C3([H])[H])c2[H])C1([H])[H]

$$$$
60:0:0
     RDKit          3D

 93102  0  0  1  0  0  0  0  0999 V2000
  -29.1630  -22.5960   21.0160 C   0  0  0  0  0  3  0  0  0  0  0  0
  -28.3460  -23.5410   20.4240 C   0  0  0  0  0  0  0  0  0  0  0  0
  -27.6060  -22.7270   19.4690 C   0  0  0  0  0  0  0  0  0  0  0  0
  -26.6600  -23.1590   18.6230 C   0  0  0  0  0  1  0  0  0  0  0  0
  -28.0190  -21.2580   19.5330 C   0  0  0  0  0  3  0  0  0  0  0  0
  -29.0510  -21.2350   20.5520 N   0  0  0  0  0  0  0  0  0  0  0  0
  -29.3900  -18.6300   20.4420 C   0  0  0  0  0  3  0  0  0  0  0  0
  -31.0350  -20.0980   21.4650 C   0  0  0  0  0  3  0  0  0  0  0  0
  -31.4470  -17.6700   21.3150 C   0  0  0  0  0  3  0  0  0  0  0  0
  -29.7890  -19.9960   20.8100 C   0  0  0  0  0  0  0  0  0  0  0  0
  -30.2040  -17.4340   20.6810 C   0  0  0  0  0  0  0  0  0  0  0  0
  -31.8470  -18.9680   21.7040 C   0  0  0  0  0  0  0  0  0  0  0  0
  -33.0370  -19.1310   22.3300 F   0  0  0  0  0  0  0  0  0  0  0  0
  -30.5470  -14.8710   20.1290 C   0  0  0  0  0  0  0  0  0  0  0  0
  -30.3020  -12.6080   19.0670 C   0  0  0  0  0  2  0  0  0  0  0  0
  -29.3150  -12.6800   17.8800 C   0  0  0  0  0  2  0  0  0  0  0  0
  -27.8680  -12.4790   18.3660 C   0  0  0  0  0  2  0  0  0  0  0  0
  -27.5290  -13.3620   19.5970 C   0  0  0  0  0  3  0  0  0  0  0  0
  -28.6300  -13.2850   20.6760 C   0  0  0  0  0  2  0  0  0  0  0  0
  -29.8990  -13.6570   20.0360 N   0  0  0  0  0  0  0  0  0  0  0  0
  -31.7230  -14.9550   19.7640 O   0  0  0  0  0  0  0  0  0  0  0  0
  -29.7960  -16.0220   20.3830 N   0  0  0  0  0  0  0  0  0  0  0  0
  -28.8010  -15.8570   20.3900 H   0  0  0  0  0  0  0  0  0  0  0  0
  -25.1710  -13.9340   20.4270 C   0  0  0  0  0  0  0  0  0  0  0  0
  -24.1250  -13.1500   20.8390 C   0  0  0  0  0  0  0  0  0  0  0  0
  -24.5940  -11.8020   20.7810 C   0  0  0  0  0  0  0  0  0  0  0  0
  -26.2080  -13.0620   20.1390 N   0  0  0  0  0  0  0  0  0  0  0  0
  -25.8700  -11.7750   20.4150 N   0  0  0  0  0  0  0  0  0  0  0  0
  -23.8860  -10.5300   20.9850 C   0  0  0  0  0  0  0  0  0  0  0  0
  -24.3510   -9.5610   21.9010 C   0  0  0  0  0  3  0  0  0  0  0  0
  -23.6370   -8.3580   22.0920 C   0  0  0  0  0  3  0  0  0  0  0  0
  -22.4410   -8.1230   21.3720 C   0  0  0  0  0  0  0  0  0  0  0  0
  -21.9950   -9.0790   20.4450 C   0  0  0  0  0  3  0  0  0  0  0  0
  -22.7120  -10.2710   20.2520 C   0  0  0  0  0  3  0  0  0  0  0  0
  -21.6930   -6.9750   21.4800 O   0  0  0  0  0  0  0  0  0  0  0  0
  -21.6710   -6.2310   22.6330 C   0  0  0  0  0  0  0  0  0  0  0  0
  -21.2620   -6.7770   23.8700 C   0  0  0  0  0  3  0  0  0  0  0  0
  -21.1960   -5.9610   25.0150 C   0  0  0  0  0  3  0  0  0  0  0  0
  -21.5270   -4.5940   24.9250 C   0  0  0  0  0  0  0  0  0  0  0  0
  -21.9280   -4.0450   23.6940 C   0  0  0  0  0  3  0  0  0  0  0  0
  -21.9970   -4.8610   22.5520 C   0  0  0  0  0  0  0  0  0  0  0  0
  -22.3650   -4.3230   21.3640 F   0  0  0  0  0  0  0  0  0  0  0  0
  -21.4530   -3.8050   26.0200 F   0  0  0  0  0  0  0  0  0  0  0  0
  -22.7360  -13.6150   21.1680 C   0  0  0  0  0  0  0  0  0  0  0  0
  -22.0450  -12.9000   22.0500 N   0  0  0  0  0  0  0  0  0  0  0  0
  -22.2720  -14.6440   20.6770 O   0  0  0  0  0  0  0  0  0  0  0  0
  -22.4350  -12.0680   22.4670 H   0  0  0  0  0  0  0  0  0  0  0  0
  -21.1150  -13.1850   22.3210 H   0  0  0  0  0  0  0  0  0  0  0  0
  -25.3170  -15.3080   20.2410 N   0  0  0  0  0  0  0  0  0  0  0  0
  -24.5400  -15.9530   20.3420 H   0  0  0  0  0  0  0  0  0  0  0  0
  -26.1220  -15.7350   19.8040 H   0  0  0  0  0  0  0  0  0  0  0  0
  -27.9240  -25.0110   20.9620 C   0  0  0  0  0  2  0  0  0  0  0  0
  -28.2330  -26.3530   20.3140 O   0  0  0  0  0  0  0  0  0  0  0  0
  -24.6010  -31.9670   23.2750 C   0  0  0  0  0  0  0  0  0  0  0  0
  -27.1840  -27.3150   20.2690 C   0  0  0  0  0  0  0  0  0  0  0  0
  -23.3990  -30.5700   21.6380 C   0  0  0  0  0  3  0  0  0  0  0  0
  -24.8530  -29.0060   20.2170 C   0  0  0  0  0  0  0  0  0  0  0  0
  -25.9460  -30.8590   21.4650 C   0  0  0  0  0  2  0  0  0  0  0  0
  -26.0270  -29.4720   20.8240 C   0  0  0  0  0  0  0  0  0  0  0  0
  -27.1990  -28.6340   20.8460 C   0  0  0  0  0  3  0  0  0  0  0  0
  -25.9950  -26.9410   19.6140 C   0  0  0  0  0  3  0  0  0  0  0  0
  -24.8440  -27.7490   19.5980 C   0  0  0  0  0  3  0  0  0  0  0  0
  -23.6180  -29.8900   20.2610 C   0  0  0  0  0  2  0  0  0  0  0  0
  -24.6690  -31.1510   22.1820 N   0  0  0  0  0  0  0  0  0  0  0  0
  -23.5170  -32.2440   23.8070 O   0  0  0  0  0  0  0  0  0  0  0  0
  -22.7300  -29.5570   22.6000 C   0  0  0  0  0  0  0  0  0  0  0  0
  -21.4020  -29.3780   22.4740 N   0  0  0  0  0  0  0  0  0  0  0  0
  -23.4050  -28.9340   23.4210 O   0  0  0  0  0  0  0  0  0  0  0  0
  -20.9180  -29.9340   21.7840 H   0  0  0  0  0  0  0  0  0  0  0  0
  -18.0280  -28.1600   22.9680 C   0  0  0  0  0  0  0  0  0  0  0  0
  -20.5830  -28.4400   23.2440 C   0  0  0  0  0  3  0  0  0  0  0  0
  -20.7000  -27.0090   22.6750 C   0  0  0  0  0  2  0  0  0  0  0  0
  -19.6040  -26.6740   21.6590 C   0  0  0  0  0  2  0  0  0  0  0  0
  -18.2210  -26.8080   22.3000 C   0  0  0  0  0  2  0  0  0  0  0  0
  -19.1390  -28.9330   23.3960 C   0  0  0  0  0  0  0  0  0  0  0  0
  -18.9080  -30.2000   23.9770 C   0  0  0  0  0  3  0  0  0  0  0  0
  -17.5990  -30.6920   24.1340 C   0  0  0  0  0  3  0  0  0  0  0  0
  -16.5010  -29.9170   23.7230 C   0  0  0  0  0  3  0  0  0  0  0  0
  -16.7170  -28.6530   23.1420 C   0  0  0  0  0  3  0  0  0  0  0  0
  -25.8810  -32.6070   23.8940 C   0  0  0  0  0  3  0  0  0  0  0  0
  -25.5680  -34.0070   24.2120 N   0  0  0  0  0  0  0  0  0  0  0  0
  -25.9040  -35.0580   23.4500 C   0  0  0  0  0  0  0  0  0  0  0  0
  -26.5760  -34.9480   22.4190 O   0  0  0  0  0  0  0  0  0  0  0  0
  -24.9730  -34.1630   25.0120 H   0  0  0  0  0  0  0  0  0  0  0  0
  -24.1810  -36.8540   23.0780 C   0  0  0  0  0  1  0  0  0  0  0  0
  -25.4200  -36.4520   23.8960 C   0  0  0  0  0  3  0  0  0  0  0  0
  -27.5540  -37.3360   24.7320 C   0  0  0  0  0  1  0  0  0  0  0  0
  -26.4560  -37.5030   23.7820 N   0  0  0  0  0  0  0  0  0  0  0  0
  -26.0550  -38.4250   23.9230 H   0  0  0  0  0  0  0  0  0  0  0  0
  -26.3880  -31.8500   25.1800 C   0  0  1  0  0  0  0  0  0  0  0  0
  -25.2890  -31.6220   26.2450 C   0  0  0  0  0  1  0  0  0  0  0  0
  -26.9710  -30.4690   24.8040 C   0  0  0  0  0  1  0  0  0  0  0  0
  -27.5350  -32.6510   25.8410 C   0  0  0  0  0  1  0  0  0  0  0  0
  2 52  1  0
  2  1  2  0
  3  5  2  0
  3  2  1  0
  4  3  1  0
  5  6  1  0
  6 10  1  0
  6  1  1  0
  7 11  2  0
  7 10  1  0
  8 12  1  0
  9 12  2  0
 10  8  2  0
 11  9  1  0
 12 13  1  0
 14 22  1  0
 15 20  1  0
 16 17  1  0
 16 15  1  0
 18 17  1  0
 18 27  1  0
 18 19  1  0
 20 14  1  0
 20 19  1  0
 21 14  2  0
 22 23  1  0
 22 11  1  0
 24 25  2  0
 25 44  1  0
 26 25  1  0
 26 29  1  0
 27 28  1  0
 27 24  1  0
 28 26  2  0
 29 30  1  0
 30 31  2  0
 32 35  1  0
 32 31  1  0
 33 32  2  0
 34 33  1  0
 34 29  2  0
 35 36  1  0
 36 37  1  0
 37 38  2  0
 39 38  1  0
 39 43  1  0
 40 39  2  0
 41 36  2  0
 41 40  1  0
 42 41  1  0
 44 45  1  0
 45 48  1  0
 45 47  1  0
 46 44  2  0
 49 50  1  0
 49 24  1  0
 51 49  1  0
 53 52  1  0
 54 65  2  0
 55 53  1  0
 55 60  1  0
 56 64  1  0
 56 66  1  0
 57 63  1  0
 57 59  1  0
 58 64  1  0
 59 60  2  0
 59 58  1  0
 61 55  2  0
 62 61  1  0
 62 57  2  0
 63 56  1  0
 64 54  1  0
 66 68  2  0
 67 66  1  0
 69 67  1  0
 70 79  2  0
 70 75  1  0
 71 67  1  0
 71 75  1  0
 72 71  1  0
 73 74  1  0
 73 72  1  0
 74 70  1  0
 75 76  2  0
 76 77  1  0
 78 77  2  0
 79 78  1  0
 80 54  1  0
 80 81  1  0
 80 90  1  0
 81 84  1  0
 82 86  1  0
 82 81  1  0
 83 82  2  0
 86 85  1  0
 88 86  1  0
 88 89  1  0
 88 87  1  0
 90 93  1  1
 90 91  1  0
 92 90  1  0
M  ISO  4  14 100  22 100  52 101  53 101
M  END
>  <TORSDO>  (61) 
F 18

>  <SCORE>  (61) 
-14.949

>  <name>  (61) 
60

>  <ligand_id>  (61) 
60

>  <original_smiles>  (61) 
[H]C([H])=C1C(C([H])([H])Oc2c([H])c([H])c3c(c2[H])C([H])([H])N(C(=O)C([H])(N([H])C(=O)C([H])(N([H])C([H])([H])[H])C([H])([H])[H])C(C([H])([H])[H])(C([H])([H])[H])C([H])([H])[H])C([H])(C(=O)N([H])C2([H])c4c([H])c([H])c([H])c([H])c4C([H])([H])C([H])([H])C2([H])[H])C3([H])[H])=C([H])N(c2c([H])c(F)c([H])c(N([H])C(=O)N3C([H])([H])C([H])([H])C([H])([H])C([H])(n4nc(-c5c([H])c([H])c(Oc6c([H])c([H])c(F)c([H])c6F)c([H])c5[H])c(C(=O)N([H])[H])c4N([H])[H])C3([H])[H])c2[H])C1([H])[H]

>  <smiles>  (61) 
[H]C([H])=C1C(C([H])([H])Oc2c([H])c([H])c3c(c2[H])C([H])([H])N(C(=O)C([H])(N([H])C(=O)C([H])(N([H])C([H])([H])[H])C([H])([H])[H])C(C([H])([H])[H])(C([H])([H])[H])C([H])([H])[H])C([H])(C(=O)N([H])C2([H])c4c([H])c([H])c([H])c([H])c4C([H])([H])C([H])([H])C2([H])[H])C3([H])[H])=C([H])N(c2c([H])c(F)c([H])c(N([H])C(=O)N3C([H])([H])C([H])([H])C([H])([H])C([H])(n4nc(-c5c([H])c([H])c(Oc6c([H])c([H])c(F)c([H])c6F)c([H])c5[H])c(C(=O)N([H])[H])c4N([H])[H])C3([H])[H])c2[H])C1([H])[H]

$$$$
61:0:0
     RDKit          3D

 98106  0  0  1  0  0  0  0  0999 V2000
  -29.5200  -23.4430   19.7300 C   0  0  0  0  0  3  0  0  0  0  0  0
  -30.3660  -21.3030   20.7440 C   0  0  0  0  0  0  0  0  0  0  0  0
  -29.4200  -22.0100   20.0960 N   0  0  0  0  0  0  0  0  0  0  0  0
  -31.3450  -21.8450   21.2600 O   0  0  0  0  0  0  0  0  0  0  0  0
  -28.6340  -21.5070   19.7140 H   0  0  0  0  0  0  0  0  0  0  0  0
  -31.4420  -19.0170   20.9050 C   0  0  0  0  0  3  0  0  0  0  0  0
  -31.3940  -17.6070   20.9700 C   0  0  0  0  0  3  0  0  0  0  0  0
  -29.0300  -19.1110   20.6540 C   0  0  0  0  0  3  0  0  0  0  0  0
  -30.2680  -19.7920   20.7430 C   0  0  0  0  0  0  0  0  0  0  0  0
  -30.1560  -16.9310   20.8750 C   0  0  0  0  0  0  0  0  0  0  0  0
  -28.9810  -17.6990   20.7220 C   0  0  0  0  0  0  0  0  0  0  0  0
  -27.7860  -17.0660   20.6400 F   0  0  0  0  0  0  0  0  0  0  0  0
  -30.7380  -14.5350   20.3950 C   0  0  0  0  0  0  0  0  0  0  0  0
  -30.4490  -12.3940   19.2040 C   0  0  0  0  0  2  0  0  0  0  0  0
  -29.4900  -12.6240   18.0170 C   0  0  0  0  0  2  0  0  0  0  0  0
  -28.0190  -12.4830   18.4600 C   0  0  0  0  0  2  0  0  0  0  0  0
  -27.6990  -13.2890   19.7480 C   0  0  0  0  0  3  0  0  0  0  0  0
  -28.7660  -13.0270   20.8350 C   0  0  0  0  0  2  0  0  0  0  0  0
  -30.0850  -13.3480   20.2610 N   0  0  0  0  0  0  0  0  0  0  0  0
  -31.8590  -14.7330   19.9180 O   0  0  0  0  0  0  0  0  0  0  0  0
  -30.0080  -15.5110   20.9690 N   0  0  0  0  0  0  0  0  0  0  0  0
  -29.0960  -15.2110   21.2760 H   0  0  0  0  0  0  0  0  0  0  0  0
  -25.3030  -13.8880   20.4740 C   0  0  0  0  0  0  0  0  0  0  0  0
  -24.2380  -13.1110   20.8430 C   0  0  0  0  0  0  0  0  0  0  0  0
  -24.7030  -11.7610   20.8040 C   0  0  0  0  0  0  0  0  0  0  0  0
  -26.3490  -13.0100   20.2340 N   0  0  0  0  0  0  0  0  0  0  0  0
  -25.9910  -11.7260   20.4880 N   0  0  0  0  0  0  0  0  0  0  0  0
  -23.9810  -10.4970   20.9950 C   0  0  0  0  0  0  0  0  0  0  0  0
  -24.3950   -9.5480   21.9560 C   0  0  0  0  0  3  0  0  0  0  0  0
  -23.6740   -8.3470   22.1330 C   0  0  0  0  0  3  0  0  0  0  0  0
  -22.5260   -8.0870   21.3480 C   0  0  0  0  0  0  0  0  0  0  0  0
  -22.1300   -9.0250   20.3780 C   0  0  0  0  0  3  0  0  0  0  0  0
  -22.8520  -10.2170   20.2000 C   0  0  0  0  0  3  0  0  0  0  0  0
  -21.7780   -6.9370   21.4320 O   0  0  0  0  0  0  0  0  0  0  0  0
  -21.6690   -6.2340   22.6060 C   0  0  0  0  0  0  0  0  0  0  0  0
  -21.1390   -6.8180   23.7760 C   0  0  0  0  0  3  0  0  0  0  0  0
  -20.9780   -6.0390   24.9400 C   0  0  0  0  0  3  0  0  0  0  0  0
  -21.3390   -4.6780   24.9330 C   0  0  0  0  0  0  0  0  0  0  0  0
  -21.8630   -4.0940   23.7670 C   0  0  0  0  0  3  0  0  0  0  0  0
  -22.0240   -4.8700   22.6050 C   0  0  0  0  0  0  0  0  0  0  0  0
  -22.5100   -4.2980   21.4770 F   0  0  0  0  0  0  0  0  0  0  0  0
  -21.1790   -3.9280   26.0490 F   0  0  0  0  0  0  0  0  0  0  0  0
  -22.8430  -13.5840   21.1310 C   0  0  0  0  0  0  0  0  0  0  0  0
  -22.1210  -12.8800   21.9960 N   0  0  0  0  0  0  0  0  0  0  0  0
  -22.3990  -14.6140   20.6250 O   0  0  0  0  0  0  0  0  0  0  0  0
  -22.4930  -12.0470   22.4280 H   0  0  0  0  0  0  0  0  0  0  0  0
  -21.1860  -13.1790   22.2310 H   0  0  0  0  0  0  0  0  0  0  0  0
  -25.4620  -15.2610   20.3110 N   0  0  0  0  0  0  0  0  0  0  0  0
  -24.7020  -15.9110   20.4780 H   0  0  0  0  0  0  0  0  0  0  0  0
  -26.3420  -15.7280   20.1300 H   0  0  0  0  0  0  0  0  0  0  0  0
  -31.2160  -22.9410   17.8780 C   0  0  0  0  0  1  0  0  0  0  0  0
  -29.9460  -25.0690   17.7830 C   0  0  0  0  0  1  0  0  0  0  0  0
  -28.7770  -22.9090   17.3080 C   0  0  0  0  0  1  0  0  0  0  0  0
  -29.8470  -23.5840   18.1970 C   0  0  2  0  0  0  0  0  0  0  0  0
  -28.2700  -24.2430   20.2040 C   0  0  0  0  0  0  0  0  0  0  0  0
  -27.1210  -23.8190   20.0380 O   0  0  0  0  0  0  0  0  0  0  0  0
  -28.4900  -25.5770   20.9610 C   0  0  0  0  0  2  0  0  0  0  0  0
  -28.4450  -26.7390   20.1100 O   0  0  0  0  0  0  0  0  0  0  0  0
  -24.5980  -31.8780   23.2420 C   0  0  0  0  0  0  0  0  0  0  0  0
  -27.2770  -27.4650   20.1500 C   0  0  0  0  0  0  0  0  0  0  0  0
  -23.4080  -30.4850   21.5780 C   0  0  0  0  0  3  0  0  0  0  0  0
  -24.8780  -28.9620   20.1540 C   0  0  0  0  0  0  0  0  0  0  0  0
  -25.9330  -30.8540   21.4020 C   0  0  0  0  0  2  0  0  0  0  0  0
  -26.0310  -29.4870   20.7540 C   0  0  0  0  0  0  0  0  0  0  0  0
  -27.2350  -28.7480   20.7460 C   0  0  0  0  0  3  0  0  0  0  0  0
  -26.1110  -26.9530   19.5450 C   0  0  0  0  0  3  0  0  0  0  0  0
  -24.9140  -27.6940   19.5480 C   0  0  0  0  0  3  0  0  0  0  0  0
  -23.6310  -29.8160   20.1960 C   0  0  0  0  0  2  0  0  0  0  0  0
  -24.6640  -31.0870   22.1330 N   0  0  0  0  0  0  0  0  0  0  0  0
  -23.5110  -32.1410   23.7770 O   0  0  0  0  0  0  0  0  0  0  0  0
  -22.7540  -29.4540   22.5260 C   0  0  0  0  0  0  0  0  0  0  0  0
  -21.4280  -29.2770   22.3960 N   0  0  0  0  0  0  0  0  0  0  0  0
  -23.4350  -28.8170   23.3320 O   0  0  0  0  0  0  0  0  0  0  0  0
  -20.9400  -29.8440   21.7170 H   0  0  0  0  0  0  0  0  0  0  0  0
  -18.0480  -28.1040   22.8920 C   0  0  0  0  0  0  0  0  0  0  0  0
  -20.6090  -28.3310   23.1520 C   0  0  0  0  0  3  0  0  0  0  0  0
  -20.6940  -26.9110   22.5450 C   0  0  0  0  0  2  0  0  0  0  0  0
  -19.5820  -26.6210   21.5330 C   0  0  0  0  0  2  0  0  0  0  0  0
  -18.2060  -26.7670   22.1890 C   0  0  0  0  0  2  0  0  0  0  0  0
  -19.1770  -28.8460   23.3300 C   0  0  0  0  0  0  0  0  0  0  0  0
  -18.9750  -30.1000   23.9470 C   0  0  0  0  0  3  0  0  0  0  0  0
  -17.6770  -30.6120   24.1300 C   0  0  0  0  0  3  0  0  0  0  0  0
  -16.5620  -29.8660   23.7100 C   0  0  0  0  0  3  0  0  0  0  0  0
  -16.7480  -28.6130   23.0960 C   0  0  0  0  0  3  0  0  0  0  0  0
  -25.8770  -32.5080   23.8750 C   0  0  0  0  0  3  0  0  0  0  0  0
  -25.5660  -33.9060   24.2010 N   0  0  0  0  0  0  0  0  0  0  0  0
  -25.9030  -34.9570   23.4410 C   0  0  0  0  0  0  0  0  0  0  0  0
  -26.5800  -34.8520   22.4150 O   0  0  0  0  0  0  0  0  0  0  0  0
  -24.9660  -34.0620   24.9970 H   0  0  0  0  0  0  0  0  0  0  0  0
  -24.1810  -36.7500   23.0660 C   0  0  0  0  0  1  0  0  0  0  0  0
  -25.4130  -36.3470   23.8920 C   0  0  0  0  0  3  0  0  0  0  0  0
  -27.5350  -37.2330   24.7510 C   0  0  0  0  0  1  0  0  0  0  0  0
  -26.4480  -37.3980   23.7900 N   0  0  0  0  0  0  0  0  0  0  0  0
  -26.0400  -38.3190   23.9270 H   0  0  0  0  0  0  0  0  0  0  0  0
  -26.3820  -31.7350   25.1550 C   0  0  1  0  0  0  0  0  0  0  0  0
  -25.2800  -31.4930   26.2110 C   0  0  0  0  0  1  0  0  0  0  0  0
  -26.9720  -30.3590   24.7630 C   0  0  0  0  0  1  0  0  0  0  0  0
  -27.5250  -32.5300   25.8290 C   0  0  0  0  0  1  0  0  0  0  0  0
  1  3  1  0
  1 55  1  0
  2  4  2  0
  3  2  1  0
  5  3  1  0
  6  7  1  0
  8 11  2  0
  8  9  1  0
  9  2  1  0
  9  6  2  0
 10 21  1  0
 10  7  2  0
 11 10  1  0
 12 11  1  0
 13 21  1  0
 14 19  1  0
 15 16  1  0
 15 14  1  0
 17 16  1  0
 17 26  1  0
 17 18  1  0
 19 13  1  0
 19 18  1  0
 20 13  2  0
 21 22  1  0
 23 24  2  0
 24 43  1  0
 25 24  1  0
 25 28  1  0
 26 23  1  0
 26 27  1  0
 27 25  2  0
 28 29  1  0
 29 30  2  0
 31 34  1  0
 31 30  1  0
 32 31  2  0
 33 32  1  0
 33 28  2  0
 34 35  1  0
 35 36  1  0
 36 37  2  0
 38 37  1  0
 38 42  1  0
 39 38  2  0
 40 35  2  0
 40 39  1  0
 41 40  1  0
 43 44  1  0
 44 47  1  0
 44 46  1  0
 45 43  2  0
 48 23  1  0
 48 49  1  0
 50 48  1  0
 54 51  1  1
 52 54  1  0
 53 54  1  0
 54  1  1  0
 55 57  1  0
 56 55  2  0
 58 60  1  0
 58 57  1  0
 59 70  2  0
 60 65  1  0
 61 69  1  0
 61 71  1  0
 62 68  1  0
 62 64  1  0
 63 69  1  0
 64 63  1  0
 65 64  2  0
 66 67  1  0
 66 60  2  0
 67 62  2  0
 68 61  1  0
 69 59  1  0
 71 73  2  0
 72 71  1  0
 74 72  1  0
 75 84  2  0
 75 80  1  0
 76 72  1  0
 76 80  1  0
 77 76  1  0
 78 79  1  0
 78 77  1  0
 79 75  1  0
 80 81  2  0
 81 82  1  0
 83 82  2  0
 84 83  1  0
 85 59  1  0
 85 86  1  0
 85 95  1  0
 86 89  1  0
 87 91  1  0
 87 86  1  0
 88 87  2  0
 91 90  1  0
 93 91  1  0
 93 94  1  0
 93 92  1  0
 95 98  1  1
 95 96  1  0
 97 95  1  0
M  ISO  4  13 100  21 100  57 101  58 101
M  END
>  <TORSDO>  (62) 
F 21

>  <SCORE>  (62) 
-13.887

>  <name>  (62) 
61

>  <ligand_id>  (62) 
61

>  <original_smiles>  (62) 
[H]c1c([H])c([H])c2c(c1[H])C([H])([H])C([H])([H])C([H])([H])C2([H])N([H])C(=O)C1([H])N(C(=O)C([H])(N([H])C(=O)C([H])(N([H])C([H])([H])[H])C([H])([H])[H])C(C([H])([H])[H])(C([H])([H])[H])C([H])([H])[H])C([H])([H])c2c([H])c(OC([H])([H])C(=O)C([H])(N([H])C(=O)c3c([H])c([H])c(N([H])C(=O)N4C([H])([H])C([H])([H])C([H])([H])C([H])(n5nc(-c6c([H])c([H])c(Oc7c([H])c([H])c(F)c([H])c7F)c([H])c6[H])c(C(=O)N([H])[H])c5N([H])[H])C4([H])[H])c(F)c3[H])C(C([H])([H])[H])(C([H])([H])[H])C([H])([H])[H])c([H])c([H])c2C1([H])[H]

>  <smiles>  (62) 
[H]c1c([H])c([H])c2c(c1[H])C([H])([H])C([H])([H])C([H])([H])C2([H])N([H])C(=O)C1([H])N(C(=O)C([H])(N([H])C(=O)C([H])(N([H])C([H])([H])[H])C([H])([H])[H])C(C([H])([H])[H])(C([H])([H])[H])C([H])([H])[H])C([H])([H])c2c([H])c(OC([H])([H])C(=O)C([H])(N([H])C(=O)c3c([H])c([H])c(N([H])C(=O)N4C([H])([H])C([H])([H])C([H])([H])C([H])(n5nc(-c6c([H])c([H])c(Oc7c([H])c([H])c(F)c([H])c7F)c([H])c6[H])c(C(=O)N([H])[H])c5N([H])[H])C4([H])[H])c(F)c3[H])C(C([H])([H])[H])(C([H])([H])[H])C([H])([H])[H])c([H])c([H])c2C1([H])[H]

$$$$
62:0:0
     RDKit          3D

 99108  0  0  1  0  0  0  0  0999 V2000
  -28.0520  -25.2490   22.4810 C   0  0  0  0  0  0  0  0  0  0  0  0
  -29.7800  -22.2880   21.7920 C   0  0  0  0  0  2  0  0  0  0  0  0
  -28.9100  -22.9750   19.4930 C   0  0  0  0  0  3  0  0  0  0  0  0
  -30.0660  -23.8080   21.9240 C   0  0  0  0  0  2  0  0  0  0  0  0
  -29.7440  -21.8890   20.3080 C   0  0  0  0  0  3  0  0  0  0  0  0
  -28.3330  -24.2840   20.2270 C   0  0  0  0  0  0  0  0  0  0  0  0
  -28.8640  -24.6000   21.5810 N   0  0  0  0  0  0  0  0  0  0  0  0
  -26.9270  -25.6470   22.1680 O   0  0  0  0  0  0  0  0  0  0  0  0
  -29.4940  -20.0850   18.5350 C   0  0  0  0  0  3  0  0  0  0  0  0
  -29.7090  -19.1890   20.7920 C   0  0  0  0  0  3  0  0  0  0  0  0
  -29.6930  -17.6680   18.8850 C   0  0  0  0  0  3  0  0  0  0  0  0
  -29.6070  -20.3510   19.9150 C   0  0  0  0  0  0  0  0  0  0  0  0
  -29.5350  -18.7720   18.0250 C   0  0  0  0  0  0  0  0  0  0  0  0
  -29.7640  -17.8200   20.2920 C   0  0  0  0  0  0  0  0  0  0  0  0
  -30.5830  -15.4470   20.8850 C   0  0  0  0  0  0  0  0  0  0  0  0
  -30.6020  -13.0640   20.1450 C   0  0  0  0  0  2  0  0  0  0  0  0
  -29.8270  -12.9240   18.8140 C   0  0  0  0  0  2  0  0  0  0  0  0
  -28.3350  -12.6700   19.0890 C   0  0  0  0  0  2  0  0  0  0  0  0
  -27.7470  -13.6720   20.1190 C   0  0  0  0  0  3  0  0  0  0  0  0
  -28.6520  -13.8560   21.3620 C   0  0  0  0  0  2  0  0  0  0  0  0
  -30.0060  -14.1950   20.9050 N   0  0  0  0  0  0  0  0  0  0  0  0
  -31.7660  -15.5660   20.5660 O   0  0  0  0  0  0  0  0  0  0  0  0
  -29.8100  -16.5790   21.1040 N   0  0  0  0  0  0  0  0  0  0  0  0
  -29.0270  -16.4520   21.7240 H   0  0  0  0  0  0  0  0  0  0  0  0
  -25.2820  -14.1730   20.6160 C   0  0  0  0  0  0  0  0  0  0  0  0
  -24.2160  -13.3600   20.9120 C   0  0  0  0  0  0  0  0  0  0  0  0
  -24.7350  -12.0300   20.9550 C   0  0  0  0  0  0  0  0  0  0  0  0
  -26.3750  -13.3320   20.4870 N   0  0  0  0  0  0  0  0  0  0  0  0
  -26.0500  -12.0430   20.7570 N   0  0  0  0  0  0  0  0  0  0  0  0
  -24.0470  -10.7390   21.1070 C   0  0  0  0  0  0  0  0  0  0  0  0
  -24.4130   -9.8210   22.1150 C   0  0  0  0  0  3  0  0  0  0  0  0
  -23.7180   -8.6000   22.2550 C   0  0  0  0  0  3  0  0  0  0  0  0
  -22.6480   -8.2850   21.3840 C   0  0  0  0  0  0  0  0  0  0  0  0
  -22.3000   -9.1960   20.3720 C   0  0  0  0  0  3  0  0  0  0  0  0
  -22.9940  -10.4110   20.2290 C   0  0  0  0  0  3  0  0  0  0  0  0
  -21.9350   -7.1110   21.4270 O   0  0  0  0  0  0  0  0  0  0  0  0
  -21.7740   -6.4100   22.5980 C   0  0  0  0  0  0  0  0  0  0  0  0
  -21.1080   -6.9650   23.7120 C   0  0  0  0  0  3  0  0  0  0  0  0
  -20.9000   -6.1860   24.8670 C   0  0  0  0  0  3  0  0  0  0  0  0
  -21.3460   -4.8520   24.9100 C   0  0  0  0  0  0  0  0  0  0  0  0
  -22.0090   -4.2970   23.8020 C   0  0  0  0  0  3  0  0  0  0  0  0
  -22.2180   -5.0720   22.6470 C   0  0  0  0  0  0  0  0  0  0  0  0
  -22.8330   -4.5260   21.5700 F   0  0  0  0  0  0  0  0  0  0  0  0
  -21.1440   -4.1010   26.0160 F   0  0  0  0  0  0  0  0  0  0  0  0
  -22.7840  -13.7880   21.0520 C   0  0  0  0  0  0  0  0  0  0  0  0
  -22.0130  -13.0830   21.8760 N   0  0  0  0  0  0  0  0  0  0  0  0
  -22.3500  -14.7760   20.4650 O   0  0  0  0  0  0  0  0  0  0  0  0
  -22.3730  -12.2860   22.3770 H   0  0  0  0  0  0  0  0  0  0  0  0
  -21.0490  -13.3560   22.0140 H   0  0  0  0  0  0  0  0  0  0  0  0
  -25.4030  -15.5440   20.4310 N   0  0  0  0  0  0  0  0  0  0  0  0
  -24.5970  -16.1610   20.4270 H   0  0  0  0  0  0  0  0  0  0  0  0
  -26.2650  -16.0230   20.1950 H   0  0  0  0  0  0  0  0  0  0  0  0
  -29.4340  -18.5670   16.6480 N   0  0  0  0  0  0  0  0  0  0  0  0
  -29.4890  -19.3410   15.9910 H   0  0  0  0  0  0  0  0  0  0  0  0
  -29.6630  -17.6670   16.2370 H   0  0  0  0  0  0  0  0  0  0  0  0
  -27.7440  -25.8480   24.8220 C   0  0  0  0  0  2  0  0  0  0  0  0
  -28.5610  -25.4110   23.8400 C   0  0  0  0  0  3  0  0  0  0  0  0
  -27.9370  -25.5420   19.3120 C   0  0  0  0  0  2  0  0  0  0  0  0
  -28.1140  -26.9730   19.7100 O   0  0  0  0  0  0  0  0  0  0  0  0
  -24.6070  -32.0720   23.4690 C   0  0  0  0  0  0  0  0  0  0  0  0
  -27.0210  -27.8580   19.7850 C   0  0  0  0  0  0  0  0  0  0  0  0
  -23.3190  -30.8580   21.7520 C   0  0  0  0  0  3  0  0  0  0  0  0
  -24.6880  -29.4810   20.1050 C   0  0  0  0  0  0  0  0  0  0  0  0
  -25.8510  -31.1800   21.4970 C   0  0  0  0  0  2  0  0  0  0  0  0
  -25.8890  -29.8800   20.6970 C   0  0  0  0  0  0  0  0  0  0  0  0
  -27.0490  -29.0550   20.5690 C   0  0  0  0  0  3  0  0  0  0  0  0
  -25.8030  -27.5820   19.1150 C   0  0  0  0  0  3  0  0  0  0  0  0
  -24.6340  -28.3190   19.3360 C   0  0  0  0  0  3  0  0  0  0  0  0
  -23.4670  -30.3510   20.3010 C   0  0  0  0  0  2  0  0  0  0  0  0
  -24.6100  -31.3840   22.2940 N   0  0  0  0  0  0  0  0  0  0  0  0
  -23.5540  -32.2890   24.0870 O   0  0  0  0  0  0  0  0  0  0  0  0
  -22.7090  -29.7360   22.6280 C   0  0  0  0  0  0  0  0  0  0  0  0
  -21.3960  -29.4880   22.4790 N   0  0  0  0  0  0  0  0  0  0  0  0
  -23.4210  -29.0930   23.4070 O   0  0  0  0  0  0  0  0  0  0  0  0
  -20.8630  -30.0690   21.8440 H   0  0  0  0  0  0  0  0  0  0  0  0
  -18.1160  -28.0040   22.8200 C   0  0  0  0  0  0  0  0  0  0  0  0
  -20.6350  -28.4550   23.1880 C   0  0  0  0  0  3  0  0  0  0  0  0
  -20.8700  -27.0580   22.5660 C   0  0  0  0  0  2  0  0  0  0  0  0
  -19.8300  -26.6910   21.5020 C   0  0  0  0  0  2  0  0  0  0  0  0
  -18.4200  -26.7020   22.1010 C   0  0  0  0  0  2  0  0  0  0  0  0
  -19.1540  -28.8340   23.3210 C   0  0  0  0  0  0  0  0  0  0  0  0
  -18.8160  -30.0490   23.9530 C   0  0  0  0  0  3  0  0  0  0  0  0
  -17.4720  -30.4380   24.0940 C   0  0  0  0  0  3  0  0  0  0  0  0
  -16.4460  -29.6050   23.6070 C   0  0  0  0  0  3  0  0  0  0  0  0
  -16.7710  -28.3920   22.9750 C   0  0  0  0  0  3  0  0  0  0  0  0
  -25.9290  -32.6430   24.0690 C   0  0  0  0  0  3  0  0  0  0  0  0
  -26.4930  -31.7800   25.2680 C   0  0  1  0  0  0  0  0  0  0  0  0
  -25.4470  -31.4890   26.3680 C   0  0  0  0  0  1  0  0  0  0  0  0
  -27.0460  -30.4190   24.7740 C   0  0  0  0  0  1  0  0  0  0  0  0
  -27.6730  -32.5230   25.9350 C   0  0  0  0  0  1  0  0  0  0  0  0
  -25.6600  -34.0220   24.5050 N   0  0  0  0  0  0  0  0  0  0  0  0
  -25.9890  -35.1150   23.8050 C   0  0  0  0  0  0  0  0  0  0  0  0
  -26.6230  -35.0690   22.7470 O   0  0  0  0  0  0  0  0  0  0  0  0
  -25.1110  -34.1350   25.3440 H   0  0  0  0  0  0  0  0  0  0  0  0
  -24.3000  -36.9650   23.6130 C   0  0  0  0  0  1  0  0  0  0  0  0
  -25.5440  -36.4750   24.3690 C   0  0  0  0  0  3  0  0  0  0  0  0
  -27.7030  -37.2640   25.2290 C   0  0  0  0  0  1  0  0  0  0  0  0
  -26.5970  -37.5100   24.3110 N   0  0  0  0  0  0  0  0  0  0  0  0
  -26.2060  -38.4250   24.5250 H   0  0  0  0  0  0  0  0  0  0  0  0
  1 57  1  0
  2  4  1  0
  3  6  2  0
  3  5  1  0
  5 12  1  0
  5  2  1  0
  6  7  1  0
  7  4  1  0
  7  1  1  0
  8  1  2  0
  9 12  1  0
 11 14  2  0
 12 10  2  0
 13  9  2  0
 13 11  1  0
 14 10  1  0
 14 23  1  0
 15 21  1  0
 15 23  1  0
 16 21  1  0
 17 18  1  0
 17 16  1  0
 19 18  1  0
 19 28  1  0
 19 20  1  0
 21 20  1  0
 22 15  2  0
 23 24  1  0
 25 26  2  0
 26 27  1  0
 26 45  1  0
 27 30  1  0
 28 25  1  0
 28 29  1  0
 29 27  2  0
 30 31  1  0
 31 32  2  0
 33 36  1  0
 33 32  1  0
 34 33  2  0
 35 34  1  0
 35 30  2  0
 36 37  1  0
 37 42  2  0
 37 38  1  0
 38 39  2  0
 39 40  1  0
 40 44  1  0
 41 40  2  0
 42 41  1  0
 43 42  1  0
 45 46  1  0
 46 49  1  0
 46 48  1  0
 47 45  2  0
 50 25  1  0
 51 50  1  0
 52 50  1  0
 53 13  1  0
 54 53  1  0
 55 53  1  0
 57 56  2  0
 58 59  1  0
 58  6  1  0
 59 61  1  0
 60 71  2  0
 61 66  1  0
 62 70  1  0
 62 72  1  0
 63 69  1  0
 63 65  1  0
 64 70  1  0
 65 64  1  0
 66 65  2  0
 67 68  1  0
 67 61  2  0
 68 63  2  0
 69 62  1  0
 70 60  1  0
 72 74  2  0
 73 72  1  0
 75 73  1  0
 76 85  2  0
 76 81  1  0
 77 73  1  0
 77 81  1  0
 78 77  1  0
 79 80  1  0
 79 78  1  0
 80 76  1  0
 81 82  2  0
 82 83  1  0
 84 83  2  0
 85 84  1  0
 86 60  1  0
 86 91  1  0
 86 87  1  0
 87 90  1  1
 87 88  1  0
 89 87  1  0
 91 94  1  0
 92 96  1  0
 92 91  1  0
 93 92  2  0
 96 95  1  0
 98 96  1  0
 98 99  1  0
 98 97  1  0
M  ISO  4  15 100  23 100  58 101  59 101
M  END
>  <TORSDO>  (63) 
F 20

>  <SCORE>  (63) 
-13.715

>  <name>  (63) 
62

>  <ligand_id>  (63) 
62

>  <original_smiles>  (63) 
[H]C([H])=C([H])C(=O)N1C([H])([H])C([H])([H])C([H])(c2c([H])c(N([H])[H])c([H])c(N([H])C(=O)N3C([H])([H])C([H])([H])C([H])([H])C([H])(n4nc(-c5c([H])c([H])c(Oc6c([H])c([H])c(F)c([H])c6F)c([H])c5[H])c(C(=O)N([H])[H])c4N([H])[H])C3([H])[H])c2[H])C([H])([H])C1([H])C([H])([H])Oc1c([H])c([H])c2c(c1[H])C([H])([H])N(C(=O)C([H])(N([H])C(=O)C([H])(N([H])C([H])([H])[H])C([H])([H])[H])C(C([H])([H])[H])(C([H])([H])[H])C([H])([H])[H])C([H])(C(=O)N([H])C1([H])c3c([H])c([H])c([H])c([H])c3C([H])([H])C([H])([H])C1([H])[H])C2([H])[H]

>  <smiles>  (63) 
[H]C([H])=C([H])C(=O)N1C([H])([H])C([H])([H])C([H])(c2c([H])c(N([H])[H])c([H])c(N([H])C(=O)N3C([H])([H])C([H])([H])C([H])([H])C([H])(n4nc(-c5c([H])c([H])c(Oc6c([H])c([H])c(F)c([H])c6F)c([H])c5[H])c(C(=O)N([H])[H])c4N([H])[H])C3([H])[H])c2[H])C([H])([H])C1([H])C([H])([H])Oc1c([H])c([H])c2c(c1[H])C([H])([H])N(C(=O)C([H])(N([H])C(=O)C([H])(N([H])C([H])([H])[H])C([H])([H])[H])C(C([H])([H])[H])(C([H])([H])[H])C([H])([H])[H])C([H])(C(=O)N([H])C1([H])c3c([H])c([H])c([H])c([H])c3C([H])([H])C([H])([H])C1([H])[H])C2([H])[H]

$$$$
63:0:0
     RDKit          3D

101110  0  0  1  0  0  0  0  0999 V2000
  -30.0810  -22.2140   20.6180 C   0  0  0  0  0  3  0  0  0  0  0  0
  -29.5840  -20.8540   18.6300 C   0  0  0  0  0  3  0  0  0  0  0  0
  -29.7190  -23.4720   21.3980 C   0  0  0  0  0  2  0  0  0  0  0  0
  -29.9130  -24.4650   19.0860 C   0  0  0  0  0  2  0  0  0  0  0  0
  -29.0740  -23.2550   18.6830 C   0  0  0  0  0  2  0  0  0  0  0  0
  -29.7590  -24.7950   20.5780 C   0  0  2  0  0  0  0  0  0  0  0  0
  -30.9530  -25.6790   21.0180 C   0  0  0  0  0  1  0  0  0  0  0  0
  -29.6240  -22.0400   19.3290 N   0  0  0  0  0  0  0  0  0  0  0  0
  -30.8680  -21.3540   21.3110 N   0  0  0  0  0  0  0  0  0  0  0  0
  -29.3180  -20.8430   17.3120 N   0  0  0  0  0  0  0  0  0  0  0  0
  -31.1510  -21.5810   22.2600 H   0  0  0  0  0  0  0  0  0  0  0  0
  -31.2760  -20.5100   20.9320 H   0  0  0  0  0  0  0  0  0  0  0  0
  -29.1750  -19.9640   16.8430 H   0  0  0  0  0  0  0  0  0  0  0  0
  -29.2960  -21.6880   16.7640 H   0  0  0  0  0  0  0  0  0  0  0  0
  -29.0620  -19.1360   20.3980 C   0  0  0  0  0  3  0  0  0  0  0  0
  -29.1530  -17.8160   20.8910 C   0  0  0  0  0  3  0  0  0  0  0  0
  -30.5290  -18.5370   18.5560 C   0  0  0  0  0  3  0  0  0  0  0  0
  -29.7630  -19.5160   19.2300 C   0  0  0  0  0  0  0  0  0  0  0  0
  -29.9100  -16.8340   20.2150 C   0  0  0  0  0  0  0  0  0  0  0  0
  -30.5800  -17.2070   19.0160 C   0  0  0  0  0  0  0  0  0  0  0  0
  -31.2200  -16.3040   18.2400 F   0  0  0  0  0  0  0  0  0  0  0  0
  -30.6560  -14.4680   20.4190 C   0  0  0  0  0  0  0  0  0  0  0  0
  -30.3820  -12.2920   19.3300 C   0  0  0  0  0  2  0  0  0  0  0  0
  -29.4440  -12.5000   18.1210 C   0  0  0  0  0  2  0  0  0  0  0  0
  -27.9660  -12.3730   18.5440 C   0  0  0  0  0  2  0  0  0  0  0  0
  -27.6210  -13.2180   19.7980 C   0  0  0  0  0  3  0  0  0  0  0  0
  -28.6720  -12.9990   20.9110 C   0  0  0  0  0  2  0  0  0  0  0  0
  -30.0040  -13.2780   20.3490 N   0  0  0  0  0  0  0  0  0  0  0  0
  -31.8330  -14.6140   20.0840 O   0  0  0  0  0  0  0  0  0  0  0  0
  -29.8680  -15.5060   20.7370 N   0  0  0  0  0  0  0  0  0  0  0  0
  -29.0120  -15.2560   21.2020 H   0  0  0  0  0  0  0  0  0  0  0  0
  -25.2140  -13.8330   20.4890 C   0  0  0  0  0  0  0  0  0  0  0  0
  -24.1460  -13.0610   20.8610 C   0  0  0  0  0  0  0  0  0  0  0  0
  -24.6120  -11.7090   20.8440 C   0  0  0  0  0  0  0  0  0  0  0  0
  -26.2640  -12.9520   20.2720 N   0  0  0  0  0  0  0  0  0  0  0  0
  -25.9030  -11.6710   20.5420 N   0  0  0  0  0  0  0  0  0  0  0  0
  -23.8870  -10.4480   21.0400 C   0  0  0  0  0  0  0  0  0  0  0  0
  -24.3230   -9.4830   21.9740 C   0  0  0  0  0  3  0  0  0  0  0  0
  -23.6010   -8.2850   22.1590 C   0  0  0  0  0  3  0  0  0  0  0  0
  -22.4290   -8.0420   21.4050 C   0  0  0  0  0  0  0  0  0  0  0  0
  -22.0090   -8.9960   20.4610 C   0  0  0  0  0  3  0  0  0  0  0  0
  -22.7310  -10.1860   20.2740 C   0  0  0  0  0  3  0  0  0  0  0  0
  -21.6800   -6.8920   21.4960 O   0  0  0  0  0  0  0  0  0  0  0  0
  -21.6450   -6.1450   22.6460 C   0  0  0  0  0  0  0  0  0  0  0  0
  -21.2330   -6.6960   23.8800 C   0  0  0  0  0  3  0  0  0  0  0  0
  -21.1450   -5.8750   25.0220 C   0  0  0  0  0  3  0  0  0  0  0  0
  -21.4580   -4.5060   24.9340 C   0  0  0  0  0  0  0  0  0  0  0  0
  -21.8650   -3.9550   23.7050 C   0  0  0  0  0  3  0  0  0  0  0  0
  -21.9540   -4.7730   22.5640 C   0  0  0  0  0  0  0  0  0  0  0  0
  -22.3230   -4.2340   21.3780 F   0  0  0  0  0  0  0  0  0  0  0  0
  -21.3680   -3.7140   26.0270 F   0  0  0  0  0  0  0  0  0  0  0  0
  -22.7450  -13.5360   21.1230 C   0  0  0  0  0  0  0  0  0  0  0  0
  -22.0140  -12.8450   21.9910 N   0  0  0  0  0  0  0  0  0  0  0  0
  -22.3040  -14.5530   20.5910 O   0  0  0  0  0  0  0  0  0  0  0  0
  -22.3850  -12.0230   22.4450 H   0  0  0  0  0  0  0  0  0  0  0  0
  -21.0730  -13.1450   22.2050 H   0  0  0  0  0  0  0  0  0  0  0  0
  -25.3800  -15.2020   20.3020 N   0  0  0  0  0  0  0  0  0  0  0  0
  -24.6080  -15.8550   20.3970 H   0  0  0  0  0  0  0  0  0  0  0  0
  -26.2140  -15.6360   19.9310 H   0  0  0  0  0  0  0  0  0  0  0  0
  -28.4540  -25.5870   20.8410 C   0  0  0  0  0  2  0  0  0  0  0  0
  -28.4380  -26.8000   20.0960 O   0  0  0  0  0  0  0  0  0  0  0  0
  -24.5890  -31.8820   23.2310 C   0  0  0  0  0  0  0  0  0  0  0  0
  -27.2490  -27.4810   20.1410 C   0  0  0  0  0  0  0  0  0  0  0  0
  -23.3810  -30.4730   21.5930 C   0  0  0  0  0  3  0  0  0  0  0  0
  -24.8380  -28.9390   20.1710 C   0  0  0  0  0  0  0  0  0  0  0  0
  -25.8990  -30.8530   21.3800 C   0  0  0  0  0  2  0  0  0  0  0  0
  -25.9920  -29.4820   20.7500 C   0  0  0  0  0  0  0  0  0  0  0  0
  -27.2020  -28.7600   20.7300 C   0  0  0  0  0  3  0  0  0  0  0  0
  -26.0820  -26.9390   19.5620 C   0  0  0  0  0  3  0  0  0  0  0  0
  -24.8750  -27.6630   19.5800 C   0  0  0  0  0  3  0  0  0  0  0  0
  -23.5880  -29.7880   20.2160 C   0  0  0  0  0  2  0  0  0  0  0  0
  -24.6420  -31.0850   22.1280 N   0  0  0  0  0  0  0  0  0  0  0  0
  -23.5100  -32.1480   23.7770 O   0  0  0  0  0  0  0  0  0  0  0  0
  -22.7400  -29.4510   22.5550 C   0  0  0  0  0  0  0  0  0  0  0  0
  -21.4140  -29.2690   22.4320 N   0  0  0  0  0  0  0  0  0  0  0  0
  -23.4270  -28.8240   23.3640 O   0  0  0  0  0  0  0  0  0  0  0  0
  -20.9220  -29.8240   21.7450 H   0  0  0  0  0  0  0  0  0  0  0  0
  -18.0400  -28.0900   22.9460 C   0  0  0  0  0  0  0  0  0  0  0  0
  -20.6010  -28.3320   23.2040 C   0  0  0  0  0  3  0  0  0  0  0  0
  -20.6930  -26.9030   22.6180 C   0  0  0  0  0  2  0  0  0  0  0  0
  -19.5840  -26.5920   21.6100 C   0  0  0  0  0  2  0  0  0  0  0  0
  -18.2060  -26.7430   22.2640 C   0  0  0  0  0  2  0  0  0  0  0  0
  -19.1660  -28.8440   23.3730 C   0  0  0  0  0  0  0  0  0  0  0  0
  -18.9580  -30.1070   23.9680 C   0  0  0  0  0  3  0  0  0  0  0  0
  -17.6570  -30.6150   24.1440 C   0  0  0  0  0  3  0  0  0  0  0  0
  -16.5450  -29.8570   23.7350 C   0  0  0  0  0  3  0  0  0  0  0  0
  -16.7390  -28.5970   23.1400 C   0  0  0  0  0  3  0  0  0  0  0  0
  -25.8770  -32.5140   23.8470 C   0  0  0  0  0  3  0  0  0  0  0  0
  -25.5680  -33.9090   24.1800 N   0  0  0  0  0  0  0  0  0  0  0  0
  -25.8990  -34.9620   23.4190 C   0  0  0  0  0  0  0  0  0  0  0  0
  -26.5690  -34.8600   22.3880 O   0  0  0  0  0  0  0  0  0  0  0  0
  -24.9740  -34.0640   24.9810 H   0  0  0  0  0  0  0  0  0  0  0  0
  -24.1720  -36.7530   23.0590 C   0  0  0  0  0  1  0  0  0  0  0  0
  -25.4080  -36.3470   23.8770 C   0  0  0  0  0  3  0  0  0  0  0  0
  -27.5350  -37.2340   24.7210 C   0  0  0  0  0  1  0  0  0  0  0  0
  -26.4380  -37.4010   23.7730 N   0  0  0  0  0  0  0  0  0  0  0  0
  -26.0290  -38.3200   23.9210 H   0  0  0  0  0  0  0  0  0  0  0  0
  -26.4050  -31.7370   25.1150 C   0  0  1  0  0  0  0  0  0  0  0  0
  -25.3210  -31.4900   26.1890 C   0  0  0  0  0  1  0  0  0  0  0  0
  -26.9910  -30.3650   24.7080 C   0  0  0  0  0  1  0  0  0  0  0  0
  -27.5570  -32.5320   25.7750 C   0  0  0  0  0  1  0  0  0  0  0  0
  1  9  1  0
  1  3  1  0
  2 10  1  0
  2 18  1  0
  2  8  1  0
  4  6  1  0
  5  4  1  0
  5  8  1  0
  6 60  1  0
  6  7  1  1
  6  3  1  0
  8  1  1  0
  9 11  1  0
 12  9  1  0
 13 10  1  0
 14 10  1  0
 15 16  1  0
 17 20  2  0
 17 18  1  0
 18 15  2  0
 19 30  1  0
 19 16  2  0
 20 19  1  0
 21 20  1  0
 22 30  1  0
 23 28  1  0
 24 25  1  0
 24 23  1  0
 26 25  1  0
 26 35  1  0
 26 27  1  0
 28 22  1  0
 28 27  1  0
 29 22  2  0
 30 31  1  0
 32 33  2  0
 33 52  1  0
 34 33  1  0
 34 37  1  0
 35 32  1  0
 35 36  1  0
 36 34  2  0
 37 38  1  0
 38 39  2  0
 40 43  1  0
 40 39  1  0
 41 40  2  0
 42 41  1  0
 42 37  2  0
 43 44  1  0
 44 45  1  0
 45 46  2  0
 47 46  1  0
 47 51  1  0
 48 47  2  0
 49 44  2  0
 49 48  1  0
 50 49  1  0
 52 53  1  0
 53 56  1  0
 53 55  1  0
 54 52  2  0
 57 58  1  0
 57 32  1  0
 59 57  1  0
 61 63  1  0
 61 60  1  0
 62 73  2  0
 63 68  1  0
 64 72  1  0
 64 74  1  0
 65 71  1  0
 65 67  1  0
 66 72  1  0
 67 66  1  0
 68 67  2  0
 69 70  1  0
 69 63  2  0
 70 65  2  0
 71 64  1  0
 72 62  1  0
 74 76  2  0
 75 74  1  0
 77 75  1  0
 78 87  2  0
 78 83  1  0
 79 75  1  0
 79 83  1  0
 80 79  1  0
 81 82  1  0
 81 80  1  0
 82 78  1  0
 83 84  2  0
 84 85  1  0
 86 85  2  0
 87 86  1  0
 88 62  1  0
 88 89  1  0
 88 98  1  0
 89 92  1  0
 90 94  1  0
 90 89  1  0
 91 90  2  0
 94 93  1  0
 96 94  1  0
 96 97  1  0
 96 95  1  0
 98101  1  1
 98 99  1  0
100 98  1  0
M  ISO  4  22 100  30 100  60 101  61 101
M  END
>  <TORSDO>  (64) 
F 18

>  <SCORE>  (64) 
-15.082

>  <name>  (64) 
63

>  <ligand_id>  (64) 
63

>  <original_smiles>  (64) 
[H]c1c([H])c([H])c2c(c1[H])C([H])([H])C([H])([H])C([H])([H])C2([H])N([H])C(=O)C1([H])N(C(=O)C([H])(N([H])C(=O)C([H])(N([H])C([H])([H])[H])C([H])([H])[H])C(C([H])([H])[H])(C([H])([H])[H])C([H])([H])[H])C([H])([H])c2c([H])c(OC([H])([H])C3(C([H])([H])[H])C([H])([H])C(=[N+]([H])[H])N(C(c4c([H])c([H])c(N([H])C(=O)N5C([H])([H])C([H])([H])C([H])([H])C([H])(n6nc(-c7c([H])c([H])c(Oc8c([H])c([H])c(F)c([H])c8F)c([H])c7[H])c(C(=O)N([H])[H])c6N([H])[H])C5([H])[H])c(F)c4[H])=[N+]([H])[H])C([H])([H])C3([H])[H])c([H])c([H])c2C1([H])[H]

>  <smiles>  (64) 
[H]c1c([H])c([H])c2c(c1[H])C([H])([H])C([H])([H])C([H])([H])C2([H])N([H])C(=O)C1([H])N(C(=O)C([H])(N([H])C(=O)C([H])(N([H])C([H])([H])[H])C([H])([H])[H])C(C([H])([H])[H])(C([H])([H])[H])C([H])([H])[H])C([H])([H])c2c([H])c(OC([H])([H])C3(C([H])([H])[H])C([H])([H])C(=[N+]([H])[H])N(C(c4c([H])c([H])c(N([H])C(=O)N5C([H])([H])C([H])([H])C([H])([H])C([H])(n6nc(-c7c([H])c([H])c(Oc8c([H])c([H])c(F)c([H])c8F)c([H])c7[H])c(C(=O)N([H])[H])c6N([H])[H])C5([H])[H])c(F)c4[H])=[N+]([H])[H])C([H])([H])C3([H])[H])c([H])c([H])c2C1([H])[H]

$$$$
64:0:0
     RDKit          3D

 95104  0  0  1  0  0  0  0  0999 V2000
  -28.8870  -23.9940   20.3030 C   0  0  0  0  0  0  0  0  0  0  0  0
  -28.4790  -22.5760   20.4900 C   0  0  0  0  0  0  0  0  0  0  0  0
  -28.0330  -25.0740   20.4250 C   0  0  0  0  0  3  0  0  0  0  0  0
  -30.3510  -24.0130   19.9750 C   0  0  0  0  0  3  0  0  0  0  0  0
  -30.7780  -22.5330   20.1290 C   0  0  0  0  0  3  0  0  0  0  0  0
  -29.5600  -21.7330   20.3370 N   0  0  0  0  0  0  0  0  0  0  0  0
  -27.3330  -22.1970   20.7520 O   0  0  0  0  0  0  0  0  0  0  0  0
  -30.8260  -19.5350   20.7180 C   0  0  0  0  0  3  0  0  0  0  0  0
  -30.9140  -18.1030   20.7660 C   0  0  0  0  0  3  0  0  0  0  0  0
  -28.5250  -19.3970   20.0700 C   0  0  0  0  0  3  0  0  0  0  0  0
  -29.6240  -20.2430   20.3910 C   0  0  0  0  0  0  0  0  0  0  0  0
  -29.8000  -17.2750   20.4610 C   0  0  0  0  0  0  0  0  0  0  0  0
  -28.6180  -17.9700   20.0840 C   0  0  0  0  0  0  0  0  0  0  0  0
  -30.5620  -14.7540   20.3500 C   0  0  0  0  0  0  0  0  0  0  0  0
  -30.3700  -12.4970   19.3080 C   0  0  0  0  0  2  0  0  0  0  0  0
  -29.4060  -12.6030   18.1040 C   0  0  0  0  0  2  0  0  0  0  0  0
  -27.9400  -12.4320   18.5520 C   0  0  0  0  0  2  0  0  0  0  0  0
  -27.5880  -13.2960   19.7930 C   0  0  0  0  0  3  0  0  0  0  0  0
  -28.6660  -13.1620   20.8930 C   0  0  0  0  0  2  0  0  0  0  0  0
  -29.9610  -13.5190   20.2910 N   0  0  0  0  0  0  0  0  0  0  0  0
  -31.7380  -14.9070   20.0100 O   0  0  0  0  0  0  0  0  0  0  0  0
  -29.7170  -15.8110   20.5900 N   0  0  0  0  0  0  0  0  0  0  0  0
  -28.7650  -15.5110   20.7400 H   0  0  0  0  0  0  0  0  0  0  0  0
  -25.2030  -13.8810   20.5570 C   0  0  0  0  0  0  0  0  0  0  0  0
  -24.1400  -13.1020   20.9220 C   0  0  0  0  0  0  0  0  0  0  0  0
  -24.6040  -11.7530   20.8670 C   0  0  0  0  0  0  0  0  0  0  0  0
  -26.2470  -13.0070   20.2960 N   0  0  0  0  0  0  0  0  0  0  0  0
  -25.8910  -11.7200   20.5430 N   0  0  0  0  0  0  0  0  0  0  0  0
  -23.8780  -10.4900   21.0470 C   0  0  0  0  0  0  0  0  0  0  0  0
  -24.3060   -9.5200   21.9790 C   0  0  0  0  0  3  0  0  0  0  0  0
  -23.5790   -8.3210   22.1500 C   0  0  0  0  0  3  0  0  0  0  0  0
  -22.4110   -8.0860   21.3870 C   0  0  0  0  0  0  0  0  0  0  0  0
  -22.0020   -9.0460   20.4440 C   0  0  0  0  0  3  0  0  0  0  0  0
  -22.7280  -10.2350   20.2730 C   0  0  0  0  0  3  0  0  0  0  0  0
  -21.6560   -6.9400   21.4650 O   0  0  0  0  0  0  0  0  0  0  0  0
  -21.5830   -6.2050   22.6210 C   0  0  0  0  0  0  0  0  0  0  0  0
  -21.0960   -6.7580   23.8250 C   0  0  0  0  0  3  0  0  0  0  0  0
  -20.9720   -5.9480   24.9730 C   0  0  0  0  0  3  0  0  0  0  0  0
  -21.3240   -4.5860   24.9150 C   0  0  0  0  0  0  0  0  0  0  0  0
  -21.8050   -4.0330   23.7140 C   0  0  0  0  0  3  0  0  0  0  0  0
  -21.9310   -4.8400   22.5700 C   0  0  0  0  0  0  0  0  0  0  0  0
  -22.3730   -4.2980   21.4100 F   0  0  0  0  0  0  0  0  0  0  0  0
  -21.1990   -3.8060   26.0130 F   0  0  0  0  0  0  0  0  0  0  0  0
  -22.7470  -13.5780   21.2170 C   0  0  0  0  0  0  0  0  0  0  0  0
  -22.0310  -12.8740   22.0860 N   0  0  0  0  0  0  0  0  0  0  0  0
  -22.3030  -14.6100   20.7160 O   0  0  0  0  0  0  0  0  0  0  0  0
  -22.4020  -12.0390   22.5140 H   0  0  0  0  0  0  0  0  0  0  0  0
  -21.0970  -13.1740   22.3270 H   0  0  0  0  0  0  0  0  0  0  0  0
  -25.3480  -15.2560   20.4160 N   0  0  0  0  0  0  0  0  0  0  0  0
  -24.5680  -15.8810   20.5840 H   0  0  0  0  0  0  0  0  0  0  0  0
  -26.2080  -15.7710   20.2200 H   0  0  0  0  0  0  0  0  0  0  0  0
  -27.5220  -17.2180   19.6680 N   0  0  0  0  0  0  0  0  0  0  0  0
  -26.7600  -17.7780   19.2990 H   0  0  0  0  0  0  0  0  0  0  0  0
  -27.7780  -16.5210   18.9800 H   0  0  0  0  0  0  0  0  0  0  0  0
  -28.2870  -26.4630   20.2430 O   0  0  0  0  0  0  0  0  0  0  0  0
  -24.6190  -31.9290   23.2890 C   0  0  0  0  0  0  0  0  0  0  0  0
  -27.1940  -27.3530   20.2100 C   0  0  0  0  0  0  0  0  0  0  0  0
  -23.4010  -30.5430   21.6490 C   0  0  0  0  0  3  0  0  0  0  0  0
  -24.8390  -28.9900   20.2100 C   0  0  0  0  0  0  0  0  0  0  0  0
  -25.9430  -30.8420   21.4610 C   0  0  0  0  0  2  0  0  0  0  0  0
  -26.0130  -29.4630   20.8110 C   0  0  0  0  0  0  0  0  0  0  0  0
  -27.1920  -28.6540   20.8080 C   0  0  0  0  0  3  0  0  0  0  0  0
  -26.0030  -26.9490   19.5640 C   0  0  0  0  0  3  0  0  0  0  0  0
  -24.8370  -27.7370   19.5760 C   0  0  0  0  0  3  0  0  0  0  0  0
  -23.6070  -29.8710   20.2650 C   0  0  0  0  0  2  0  0  0  0  0  0
  -24.6730  -31.1210   22.1890 N   0  0  0  0  0  0  0  0  0  0  0  0
  -23.5390  -32.2120   23.8270 O   0  0  0  0  0  0  0  0  0  0  0  0
  -22.7350  -29.5270   22.6080 C   0  0  0  0  0  0  0  0  0  0  0  0
  -21.4100  -29.3490   22.4770 N   0  0  0  0  0  0  0  0  0  0  0  0
  -23.4110  -28.9030   23.4300 O   0  0  0  0  0  0  0  0  0  0  0  0
  -20.9230  -29.9040   21.7870 H   0  0  0  0  0  0  0  0  0  0  0  0
  -18.0310  -28.1500   22.9660 C   0  0  0  0  0  0  0  0  0  0  0  0
  -20.5880  -28.4130   23.2470 C   0  0  0  0  0  3  0  0  0  0  0  0
  -20.6940  -26.9790   22.6780 C   0  0  0  0  0  2  0  0  0  0  0  0
  -19.5970  -26.6520   21.6590 C   0  0  0  0  0  2  0  0  0  0  0  0
  -18.2130  -26.7990   22.2960 C   0  0  0  0  0  2  0  0  0  0  0  0
  -19.1470  -28.9150   23.3990 C   0  0  0  0  0  0  0  0  0  0  0  0
  -18.9240  -30.1790   23.9860 C   0  0  0  0  0  3  0  0  0  0  0  0
  -17.6170  -30.6790   24.1450 C   0  0  0  0  0  3  0  0  0  0  0  0
  -16.5160  -29.9110   23.7290 C   0  0  0  0  0  3  0  0  0  0  0  0
  -16.7240  -28.6480   23.1450 C   0  0  0  0  0  3  0  0  0  0  0  0
  -25.9080  -32.5520   23.9070 C   0  0  0  0  0  3  0  0  0  0  0  0
  -25.6080  -33.9520   24.2410 N   0  0  0  0  0  0  0  0  0  0  0  0
  -25.9130  -35.0020   23.4670 C   0  0  0  0  0  0  0  0  0  0  0  0
  -26.5470  -34.8940   22.4130 O   0  0  0  0  0  0  0  0  0  0  0  0
  -25.0410  -34.1090   25.0610 H   0  0  0  0  0  0  0  0  0  0  0  0
  -24.1630  -36.7860   23.1800 C   0  0  0  0  0  1  0  0  0  0  0  0
  -25.4420  -36.3930   23.9350 C   0  0  0  0  0  3  0  0  0  0  0  0
  -27.6070  -37.2970   24.6620 C   0  0  0  0  0  1  0  0  0  0  0  0
  -26.4640  -37.4480   23.7650 N   0  0  0  0  0  0  0  0  0  0  0  0
  -26.0600  -38.3690   23.9180 H   0  0  0  0  0  0  0  0  0  0  0  0
  -26.4230  -31.7760   25.1820 C   0  0  1  0  0  0  0  0  0  0  0  0
  -25.3290  -31.5430   26.2510 C   0  0  0  0  0  1  0  0  0  0  0  0
  -26.9960  -30.3950   24.7890 C   0  0  0  0  0  1  0  0  0  0  0  0
  -27.5780  -32.5630   25.8420 C   0  0  0  0  0  1  0  0  0  0  0  0
  1  3  2  0
  1  2  1  0
  2  7  2  0
  4  5  2  0
  4  1  1  0
  5  6  1  0
  6 11  1  0
  6  2  1  0
  8  9  1  0
 10 13  2  0
 10 11  1  0
 11  8  2  0
 12 22  1  0
 12  9  2  0
 13 12  1  0
 14 22  1  0
 15 20  1  0
 16 17  1  0
 16 15  1  0
 18 17  1  0
 18 27  1  0
 18 19  1  0
 20 14  1  0
 20 19  1  0
 21 14  2  0
 22 23  1  0
 24 25  2  0
 25 44  1  0
 26 25  1  0
 26 29  1  0
 27 28  1  0
 27 24  1  0
 28 26  2  0
 29 30  1  0
 30 31  2  0
 32 35  1  0
 32 31  1  0
 33 32  2  0
 34 33  1  0
 34 29  2  0
 35 36  1  0
 36 37  1  0
 37 38  2  0
 39 38  1  0
 39 43  1  0
 40 39  2  0
 41 36  2  0
 41 40  1  0
 42 41  1  0
 44 45  1  0
 45 48  1  0
 45 47  1  0
 46 44  2  0
 49 24  1  0
 49 50  1  0
 51 49  1  0
 52 13  1  0
 53 52  1  0
 54 52  1  0
 55  3  1  0
 56 67  2  0
 57 55  1  0
 57 62  1  0
 58 66  1  0
 58 68  1  0
 59 65  1  0
 59 61  1  0
 60 66  1  0
 61 60  1  0
 62 61  2  0
 63 64  1  0
 63 57  2  0
 64 59  2  0
 65 58  1  0
 66 56  1  0
 68 70  2  0
 69 68  1  0
 71 69  1  0
 72 81  2  0
 72 77  1  0
 73 69  1  0
 73 77  1  0
 74 73  1  0
 75 76  1  0
 75 74  1  0
 76 72  1  0
 77 78  2  0
 78 79  1  0
 80 79  2  0
 81 80  1  0
 82 56  1  0
 82 83  1  0
 82 92  1  0
 83 86  1  0
 84 88  1  0
 84 83  1  0
 85 84  2  0
 88 87  1  0
 90 91  1  0
 90 88  1  0
 90 89  1  0
 92 95  1  1
 92 93  1  0
 94 92  1  0
M  ISO  4   3 101  14 100  22 100  55 101
M  END
>  <TORSDO>  (65) 
F 18

>  <SCORE>  (65) 
-15.308

>  <name>  (65) 
64

>  <ligand_id>  (65) 
64

>  <original_smiles>  (65) 
[H]C(Oc1c([H])c([H])c2c(c1[H])C([H])([H])N(C(=O)C([H])(N([H])C(=O)C([H])(N([H])C([H])([H])[H])C([H])([H])[H])C(C([H])([H])[H])(C([H])([H])[H])C([H])([H])[H])C([H])(C(=O)N([H])C1([H])c3c([H])c([H])c([H])c([H])c3C([H])([H])C([H])([H])C1([H])[H])C2([H])[H])=C1C(=O)N(c2c([H])c([H])c(N([H])C(=O)N3C([H])([H])C([H])([H])C([H])([H])C([H])(n4nc(-c5c([H])c([H])c(Oc6c([H])c([H])c(F)c([H])c6F)c([H])c5[H])c(C(=O)N([H])[H])c4N([H])[H])C3([H])[H])c(N([H])[H])c2[H])C([H])([H])C1([H])[H]

>  <smiles>  (65) 
[H]C(Oc1c([H])c([H])c2c(c1[H])C([H])([H])N(C(=O)C([H])(N([H])C(=O)C([H])(N([H])C([H])([H])[H])C([H])([H])[H])C(C([H])([H])[H])(C([H])([H])[H])C([H])([H])[H])C([H])(C(=O)N([H])C1([H])c3c([H])c([H])c([H])c([H])c3C([H])([H])C([H])([H])C1([H])[H])C2([H])[H])=C1C(=O)N(c2c([H])c([H])c(N([H])C(=O)N3C([H])([H])C([H])([H])C([H])([H])C([H])(n4nc(-c5c([H])c([H])c(Oc6c([H])c([H])c(F)c([H])c6F)c([H])c5[H])c(C(=O)N([H])[H])c4N([H])[H])C3([H])[H])c(N([H])[H])c2[H])C([H])([H])C1([H])[H]

$$$$
65:0:0
     RDKit          3D

 95104  0  0  1  0  0  0  0  0999 V2000
  -28.6150  -24.1680   20.6240 C   0  0  0  0  0  0  0  0  0  0  0  0
  -29.7170  -23.6390   20.0170 C   0  0  0  0  0  0  0  0  0  0  0  0
  -27.5690  -23.2280   21.0040 C   0  0  0  0  0  0  0  0  0  0  0  0
  -29.8540  -22.1930   19.6870 C   0  0  0  0  0  0  0  0  0  0  0  0
  -26.3130  -23.6330   21.2670 C   0  0  0  0  0  2  0  0  0  0  0  0
  -27.8990  -21.7440   21.1070 C   0  0  0  0  0  2  0  0  0  0  0  0
  -30.9110  -24.5010   19.6070 C   0  0  0  0  0  1  0  0  0  0  0  0
  -29.1260  -21.2830   20.4190 N   0  0  0  0  0  0  0  0  0  0  0  0
  -30.6090  -21.8310   18.7770 O   0  0  0  0  0  0  0  0  0  0  0  0
  -30.6850  -19.2490   20.1600 C   0  0  0  0  0  3  0  0  0  0  0  0
  -28.4180  -18.9080   20.8870 C   0  0  0  0  0  3  0  0  0  0  0  0
  -30.9240  -17.8470   20.2310 C   0  0  0  0  0  3  0  0  0  0  0  0
  -28.6560  -17.5170   20.9710 C   0  0  0  0  0  3  0  0  0  0  0  0
  -29.4160  -19.8330   20.4680 C   0  0  0  0  0  0  0  0  0  0  0  0
  -29.9040  -16.9510   20.6360 C   0  0  0  0  0  0  0  0  0  0  0  0
  -30.7490  -14.5990   20.0880 C   0  0  0  0  0  0  0  0  0  0  0  0
  -30.4590  -12.4420   18.8980 C   0  0  0  0  0  2  0  0  0  0  0  0
  -29.4390  -12.6560   17.7590 C   0  0  0  0  0  2  0  0  0  0  0  0
  -27.9920  -12.4920   18.2710 C   0  0  0  0  0  2  0  0  0  0  0  0
  -27.7270  -13.2930   19.5730 C   0  0  0  0  0  3  0  0  0  0  0  0
  -28.8450  -13.0290   20.6070 C   0  0  0  0  0  2  0  0  0  0  0  0
  -30.1330  -13.3850   19.9810 N   0  0  0  0  0  0  0  0  0  0  0  0
  -31.8320  -14.8420   19.5440 O   0  0  0  0  0  0  0  0  0  0  0  0
  -30.0270  -15.5220   20.7660 N   0  0  0  0  0  0  0  0  0  0  0  0
  -29.2490  -15.0900   21.2410 H   0  0  0  0  0  0  0  0  0  0  0  0
  -25.3750  -13.8900   20.4330 C   0  0  0  0  0  0  0  0  0  0  0  0
  -24.3270  -13.1110   20.8430 C   0  0  0  0  0  0  0  0  0  0  0  0
  -24.7810  -11.7600   20.7520 C   0  0  0  0  0  0  0  0  0  0  0  0
  -26.4020  -13.0120   20.1200 N   0  0  0  0  0  0  0  0  0  0  0  0
  -26.0510  -11.7250   20.3700 N   0  0  0  0  0  0  0  0  0  0  0  0
  -24.0650  -10.4940   20.9550 C   0  0  0  0  0  0  0  0  0  0  0  0
  -24.5120   -9.5340   21.8890 C   0  0  0  0  0  3  0  0  0  0  0  0
  -23.7960   -8.3320   22.0790 C   0  0  0  0  0  3  0  0  0  0  0  0
  -22.6200   -8.0820   21.3330 C   0  0  0  0  0  0  0  0  0  0  0  0
  -22.1910   -9.0310   20.3890 C   0  0  0  0  0  3  0  0  0  0  0  0
  -22.9070  -10.2240   20.1980 C   0  0  0  0  0  3  0  0  0  0  0  0
  -21.8750   -6.9310   21.4310 O   0  0  0  0  0  0  0  0  0  0  0  0
  -21.7910   -6.2260   22.6050 C   0  0  0  0  0  0  0  0  0  0  0  0
  -21.3150   -6.8180   23.7950 C   0  0  0  0  0  3  0  0  0  0  0  0
  -21.1770   -6.0390   24.9620 C   0  0  0  0  0  3  0  0  0  0  0  0
  -21.5030   -4.6700   24.9390 C   0  0  0  0  0  0  0  0  0  0  0  0
  -21.9720   -4.0780   23.7530 C   0  0  0  0  0  3  0  0  0  0  0  0
  -22.1130   -4.8540   22.5890 C   0  0  0  0  0  0  0  0  0  0  0  0
  -22.5430   -4.2730   21.4430 F   0  0  0  0  0  0  0  0  0  0  0  0
  -21.3620   -3.9200   26.0570 F   0  0  0  0  0  0  0  0  0  0  0  0
  -22.9490  -13.5840   21.2070 C   0  0  0  0  0  0  0  0  0  0  0  0
  -22.2720  -12.8740   22.1030 N   0  0  0  0  0  0  0  0  0  0  0  0
  -22.4810  -14.6170   20.7330 O   0  0  0  0  0  0  0  0  0  0  0  0
  -22.6630  -12.0380   22.5110 H   0  0  0  0  0  0  0  0  0  0  0  0
  -21.3520  -13.1750   22.3890 H   0  0  0  0  0  0  0  0  0  0  0  0
  -25.5350  -15.2650   20.2800 N   0  0  0  0  0  0  0  0  0  0  0  0
  -24.7770  -15.9180   20.4480 H   0  0  0  0  0  0  0  0  0  0  0  0
  -26.3580  -15.7060   19.8890 H   0  0  0  0  0  0  0  0  0  0  0  0
  -28.5520  -25.6540   21.0940 C   0  0  0  0  0  2  0  0  0  0  0  0
  -28.4540  -26.6670   20.0630 O   0  0  0  0  0  0  0  0  0  0  0  0
  -24.5260  -31.8480   23.1040 C   0  0  0  0  0  0  0  0  0  0  0  0
  -27.3030  -27.4330   20.0750 C   0  0  0  0  0  0  0  0  0  0  0  0
  -23.3830  -30.4420   21.4210 C   0  0  0  0  0  3  0  0  0  0  0  0
  -24.8970  -28.9290   20.0260 C   0  0  0  0  0  0  0  0  0  0  0  0
  -25.9110  -30.8270   21.2960 C   0  0  0  0  0  2  0  0  0  0  0  0
  -26.0340  -29.4570   20.6530 C   0  0  0  0  0  0  0  0  0  0  0  0
  -27.2430  -28.7170   20.6740 C   0  0  0  0  0  3  0  0  0  0  0  0
  -26.1550  -26.9270   19.4380 C   0  0  0  0  0  3  0  0  0  0  0  0
  -24.9530  -27.6620   19.4160 C   0  0  0  0  0  3  0  0  0  0  0  0
  -23.6410  -29.7750   20.0430 C   0  0  0  0  0  2  0  0  0  0  0  0
  -24.6230  -31.0550   21.9990 N   0  0  0  0  0  0  0  0  0  0  0  0
  -23.4260  -32.1040   23.6170 O   0  0  0  0  0  0  0  0  0  0  0  0
  -22.7180  -29.4070   22.3580 C   0  0  0  0  0  0  0  0  0  0  0  0
  -21.3950  -29.2250   22.2090 N   0  0  0  0  0  0  0  0  0  0  0  0
  -23.3910  -28.7720   23.1750 O   0  0  0  0  0  0  0  0  0  0  0  0
  -20.9140  -29.7900   21.5250 H   0  0  0  0  0  0  0  0  0  0  0  0
  -18.0140  -28.0280   22.6580 C   0  0  0  0  0  0  0  0  0  0  0  0
  -20.5710  -28.2720   22.9540 C   0  0  0  0  0  3  0  0  0  0  0  0
  -20.6740  -26.8540   22.3460 C   0  0  0  0  0  2  0  0  0  0  0  0
  -19.5790  -26.5570   21.3170 C   0  0  0  0  0  2  0  0  0  0  0  0
  -18.1930  -26.6930   21.9540 C   0  0  0  0  0  2  0  0  0  0  0  0
  -19.1320  -28.7770   23.1130 C   0  0  0  0  0  0  0  0  0  0  0  0
  -18.9130  -30.0280   23.7290 C   0  0  0  0  0  3  0  0  0  0  0  0
  -17.6090  -30.5310   23.8960 C   0  0  0  0  0  3  0  0  0  0  0  0
  -16.5060  -29.7780   23.4570 C   0  0  0  0  0  3  0  0  0  0  0  0
  -16.7100  -28.5290   22.8440 C   0  0  0  0  0  3  0  0  0  0  0  0
  -25.7850  -32.4930   23.7620 C   0  0  0  0  0  3  0  0  0  0  0  0
  -25.4510  -33.8860   24.0880 N   0  0  0  0  0  0  0  0  0  0  0  0
  -25.7970  -34.9460   23.3440 C   0  0  0  0  0  0  0  0  0  0  0  0
  -26.5020  -34.8530   22.3360 O   0  0  0  0  0  0  0  0  0  0  0  0
  -24.8280  -34.0300   24.8700 H   0  0  0  0  0  0  0  0  0  0  0  0
  -24.0700  -36.7260   22.9340 C   0  0  0  0  0  1  0  0  0  0  0  0
  -25.2800  -36.3260   23.7920 C   0  0  0  0  0  3  0  0  0  0  0  0
  -27.3730  -37.2210   24.7120 C   0  0  0  0  0  1  0  0  0  0  0  0
  -26.3070  -37.3890   23.7280 N   0  0  0  0  0  0  0  0  0  0  0  0
  -25.8880  -38.3040   23.8690 H   0  0  0  0  0  0  0  0  0  0  0  0
  -26.2780  -31.7230   25.0490 C   0  0  1  0  0  0  0  0  0  0  0  0
  -25.1600  -31.4650   26.0870 C   0  0  0  0  0  1  0  0  0  0  0  0
  -26.8910  -30.3550   24.6640 C   0  0  0  0  0  1  0  0  0  0  0  0
  -27.4000  -32.5290   25.7440 C   0  0  0  0  0  1  0  0  0  0  0  0
  1  3  1  0
  1 54  1  0
  2  1  2  0
  3  6  1  0
  3  5  2  0
  4  2  1  0
  4  8  1  0
  7  2  1  0
  8 14  1  0
  8  6  1  0
  9  4  2  0
 10 12  2  0
 10 14  1  0
 11 13  1  0
 12 15  1  0
 14 11  2  0
 15 24  1  0
 15 13  2  0
 16 24  1  0
 17 22  1  0
 18 19  1  0
 18 17  1  0
 20 19  1  0
 20 29  1  0
 20 21  1  0
 22 16  1  0
 22 21  1  0
 23 16  2  0
 24 25  1  0
 26 27  2  0
 27 46  1  0
 28 27  1  0
 28 31  1  0
 29 30  1  0
 29 26  1  0
 30 28  2  0
 31 32  1  0
 32 33  2  0
 34 37  1  0
 34 33  1  0
 35 34  2  0
 36 35  1  0
 36 31  2  0
 37 38  1  0
 38 39  1  0
 39 40  2  0
 41 40  1  0
 41 45  1  0
 42 41  2  0
 43 38  2  0
 43 42  1  0
 44 43  1  0
 46 47  1  0
 47 50  1  0
 47 49  1  0
 48 46  2  0
 51 26  1  0
 51 52  1  0
 53 51  1  0
 55 57  1  0
 55 54  1  0
 56 67  2  0
 57 62  1  0
 58 66  1  0
 58 68  1  0
 59 65  1  0
 59 61  1  0
 60 66  1  0
 61 62  2  0
 61 60  1  0
 63 57  2  0
 64 63  1  0
 64 59  2  0
 65 58  1  0
 66 56  1  0
 68 70  2  0
 69 68  1  0
 71 69  1  0
 72 81  2  0
 72 77  1  0
 73 69  1  0
 73 77  1  0
 74 73  1  0
 75 76  1  0
 75 74  1  0
 76 72  1  0
 77 78  2  0
 78 79  1  0
 80 79  2  0
 81 80  1  0
 82 56  1  0
 82 83  1  0
 82 92  1  0
 83 86  1  0
 84 88  1  0
 84 83  1  0
 85 84  2  0
 88 87  1  0
 90 88  1  0
 90 91  1  0
 90 89  1  0
 92 95  1  1
 92 93  1  0
 94 92  1  0
M  ISO  4  16 100  24 100  54 101  55 101
M  END
>  <TORSDO>  (66) 
F 18

>  <SCORE>  (66) 
-14.277

>  <name>  (66) 
65

>  <ligand_id>  (66) 
65

>  <original_smiles>  (66) 
[H]C([H])=C1C(C([H])([H])Oc2c([H])c([H])c3c(c2[H])C([H])([H])N(C(=O)C([H])(N([H])C(=O)C([H])(N([H])C([H])([H])[H])C([H])([H])[H])C(C([H])([H])[H])(C([H])([H])[H])C([H])([H])[H])C([H])(C(=O)N([H])C2([H])c4c([H])c([H])c([H])c([H])c4C([H])([H])C([H])([H])C2([H])[H])C3([H])[H])=C(C([H])([H])[H])C(=O)N(c2c([H])c([H])c(N([H])C(=O)N3C([H])([H])C([H])([H])C([H])([H])C([H])(n4nc(-c5c([H])c([H])c(Oc6c([H])c([H])c(F)c([H])c6F)c([H])c5[H])c(C(=O)N([H])[H])c4N([H])[H])C3([H])[H])c([H])c2[H])C1([H])[H]

>  <smiles>  (66) 
[H]C([H])=C1C(C([H])([H])Oc2c([H])c([H])c3c(c2[H])C([H])([H])N(C(=O)C([H])(N([H])C(=O)C([H])(N([H])C([H])([H])[H])C([H])([H])[H])C(C([H])([H])[H])(C([H])([H])[H])C([H])([H])[H])C([H])(C(=O)N([H])C2([H])c4c([H])c([H])c([H])c([H])c4C([H])([H])C([H])([H])C2([H])[H])C3([H])[H])=C(C([H])([H])[H])C(=O)N(c2c([H])c([H])c(N([H])C(=O)N3C([H])([H])C([H])([H])C([H])([H])C([H])(n4nc(-c5c([H])c([H])c(Oc6c([H])c([H])c(F)c([H])c6F)c([H])c5[H])c(C(=O)N([H])[H])c4N([H])[H])C3([H])[H])c([H])c2[H])C1([H])[H]

$$$$
66:0:0
     RDKit          3D

 97106  0  0  1  0  0  0  0  0999 V2000
  -28.3220  -23.1120   18.7490 C   0  0  0  0  0  0  0  0  0  0  0  0
  -29.1930  -22.6600   20.8730 C   0  0  0  0  0  0  0  0  0  0  0  0
  -27.5260  -23.6060   17.7880 C   0  0  0  0  0  2  0  0  0  0  0  0
  -28.6890  -21.6250   18.8820 C   0  0  0  0  0  2  0  0  0  0  0  0
  -28.8800  -23.8940   19.9270 C   0  0  1  0  0  0  0  0  0  0  0  0
  -30.2380  -24.5140   19.5430 C   0  0  0  0  0  1  0  0  0  0  0  0
  -29.2210  -21.4250   20.2340 N   0  0  0  0  0  0  0  0  0  0  0  0
  -29.3830  -22.8300   22.0810 O   0  0  0  0  0  0  0  0  0  0  0  0
  -30.8800  -20.1830   21.6280 C   0  0  0  0  0  3  0  0  0  0  0  0
  -29.5030  -18.7750   20.2040 C   0  0  0  0  0  3  0  0  0  0  0  0
  -31.2330  -17.7540   21.5900 C   0  0  0  0  0  3  0  0  0  0  0  0
  -29.8270  -20.1230   20.6820 C   0  0  0  0  0  0  0  0  0  0  0  0
  -31.5630  -19.0340   22.0750 C   0  0  0  0  0  0  0  0  0  0  0  0
  -30.1970  -17.5620   20.6480 C   0  0  0  0  0  0  0  0  0  0  0  0
  -30.6560  -15.0260   20.1420 C   0  0  0  0  0  0  0  0  0  0  0  0
  -30.4780  -12.7450   19.1210 C   0  0  0  0  0  2  0  0  0  0  0  0
  -29.5050  -12.7840   17.9220 C   0  0  0  0  0  2  0  0  0  0  0  0
  -28.0500  -12.5830   18.3920 C   0  0  0  0  0  2  0  0  0  0  0  0
  -27.6880  -13.4640   19.6170 C   0  0  0  0  0  3  0  0  0  0  0  0
  -28.7810  -13.4040   20.7070 C   0  0  0  0  0  2  0  0  0  0  0  0
  -30.0430  -13.7940   20.0690 N   0  0  0  0  0  0  0  0  0  0  0  0
  -31.8460  -15.1330   19.8310 O   0  0  0  0  0  0  0  0  0  0  0  0
  -29.8560  -16.1580   20.2790 N   0  0  0  0  0  0  0  0  0  0  0  0
  -28.8700  -15.9660   20.1970 H   0  0  0  0  0  0  0  0  0  0  0  0
  -25.3190  -14.0120   20.4330 C   0  0  0  0  0  0  0  0  0  0  0  0
  -24.2770  -13.2170   20.8250 C   0  0  0  0  0  0  0  0  0  0  0  0
  -24.7570  -11.8720   20.7570 C   0  0  0  0  0  0  0  0  0  0  0  0
  -26.3660  -13.1490   20.1470 N   0  0  0  0  0  0  0  0  0  0  0  0
  -26.0370  -11.8580   20.4070 N   0  0  0  0  0  0  0  0  0  0  0  0
  -24.0520  -10.5990   20.9460 C   0  0  0  0  0  0  0  0  0  0  0  0
  -24.4940   -9.6450   21.8900 C   0  0  0  0  0  3  0  0  0  0  0  0
  -23.7900   -8.4340   22.0670 C   0  0  0  0  0  3  0  0  0  0  0  0
  -22.6290   -8.1690   21.3010 C   0  0  0  0  0  0  0  0  0  0  0  0
  -22.2090   -9.1110   20.3450 C   0  0  0  0  0  3  0  0  0  0  0  0
  -22.9130  -10.3130   20.1660 C   0  0  0  0  0  3  0  0  0  0  0  0
  -21.8950   -7.0110   21.3870 O   0  0  0  0  0  0  0  0  0  0  0  0
  -21.8180   -6.2950   22.5550 C   0  0  0  0  0  0  0  0  0  0  0  0
  -21.2850   -6.8530   23.7380 C   0  0  0  0  0  3  0  0  0  0  0  0
  -21.1580   -6.0590   24.8960 C   0  0  0  0  0  3  0  0  0  0  0  0
  -21.5550   -4.7080   24.8710 C   0  0  0  0  0  0  0  0  0  0  0  0
  -22.0800   -4.1490   23.6930 C   0  0  0  0  0  3  0  0  0  0  0  0
  -22.2070   -4.9410   22.5380 C   0  0  0  0  0  0  0  0  0  0  0  0
  -22.6940   -4.3920   21.4000 F   0  0  0  0  0  0  0  0  0  0  0  0
  -21.4270   -3.9440   25.9820 F   0  0  0  0  0  0  0  0  0  0  0  0
  -22.8820  -13.6700   21.1440 C   0  0  0  0  0  0  0  0  0  0  0  0
  -22.1840  -12.9470   22.0130 N   0  0  0  0  0  0  0  0  0  0  0  0
  -22.4180  -14.7010   20.6590 O   0  0  0  0  0  0  0  0  0  0  0  0
  -22.5710  -12.1140   22.4310 H   0  0  0  0  0  0  0  0  0  0  0  0
  -21.2480  -13.2320   22.2600 H   0  0  0  0  0  0  0  0  0  0  0  0
  -25.4550  -15.3890   20.2710 N   0  0  0  0  0  0  0  0  0  0  0  0
  -24.6750  -16.0230   20.4100 H   0  0  0  0  0  0  0  0  0  0  0  0
  -26.2700  -15.8490   19.8890 H   0  0  0  0  0  0  0  0  0  0  0  0
  -32.5820  -19.1750   23.0160 N   0  0  0  0  0  0  0  0  0  0  0  0
  -32.6620  -20.0530   23.5240 H   0  0  0  0  0  0  0  0  0  0  0  0
  -32.8420  -18.3720   23.5830 H   0  0  0  0  0  0  0  0  0  0  0  0
  -27.9450  -25.1270   20.4730 C   0  0  0  0  0  2  0  0  0  0  0  0
  -28.1670  -26.5790   20.0950 O   0  0  0  0  0  0  0  0  0  0  0  0
  -24.5100  -32.0250   23.2580 C   0  0  0  0  0  0  0  0  0  0  0  0
  -27.0720  -27.4740   20.1020 C   0  0  0  0  0  0  0  0  0  0  0  0
  -23.2860  -30.6510   21.6160 C   0  0  0  0  0  3  0  0  0  0  0  0
  -24.7170  -29.1240   20.1370 C   0  0  0  0  0  0  0  0  0  0  0  0
  -25.8260  -30.9650   21.3990 C   0  0  0  0  0  2  0  0  0  0  0  0
  -25.8960  -29.5920   20.7310 C   0  0  0  0  0  0  0  0  0  0  0  0
  -27.0790  -28.7810   20.6980 C   0  0  0  0  0  3  0  0  0  0  0  0
  -25.8730  -27.0830   19.4680 C   0  0  0  0  0  3  0  0  0  0  0  0
  -24.7110  -27.8780   19.4930 C   0  0  0  0  0  3  0  0  0  0  0  0
  -23.4810  -30.0010   20.2210 C   0  0  0  0  0  2  0  0  0  0  0  0
  -24.5610  -31.2320   22.1470 N   0  0  0  0  0  0  0  0  0  0  0  0
  -23.4340  -32.2900   23.8140 O   0  0  0  0  0  0  0  0  0  0  0  0
  -22.6400  -29.6170   22.5700 C   0  0  0  0  0  0  0  0  0  0  0  0
  -21.3150  -29.4240   22.4490 N   0  0  0  0  0  0  0  0  0  0  0  0
  -23.3290  -28.9930   23.3810 O   0  0  0  0  0  0  0  0  0  0  0  0
  -20.8160  -29.9780   21.7660 H   0  0  0  0  0  0  0  0  0  0  0  0
  -17.9590  -28.1600   22.9390 C   0  0  0  0  0  0  0  0  0  0  0  0
  -20.5120  -28.4690   23.2140 C   0  0  0  0  0  3  0  0  0  0  0  0
  -20.6440  -27.0420   22.6340 C   0  0  0  0  0  2  0  0  0  0  0  0
  -19.5500  -26.7010   21.6180 C   0  0  0  0  0  2  0  0  0  0  0  0
  -18.1630  -26.8170   22.2590 C   0  0  0  0  0  2  0  0  0  0  0  0
  -19.0610  -28.9420   23.3750 C   0  0  0  0  0  0  0  0  0  0  0  0
  -18.8160  -30.1970   23.9720 C   0  0  0  0  0  3  0  0  0  0  0  0
  -17.5010  -30.6700   24.1400 C   0  0  0  0  0  3  0  0  0  0  0  0
  -16.4130  -29.8850   23.7190 C   0  0  0  0  0  3  0  0  0  0  0  0
  -16.6430  -28.6330   23.1260 C   0  0  0  0  0  3  0  0  0  0  0  0
  -25.7990  -32.6530   23.8720 C   0  0  0  0  0  3  0  0  0  0  0  0
  -26.3080  -31.8920   25.1580 C   0  0  1  0  0  0  0  0  0  0  0  0
  -25.2120  -31.6740   26.2260 C   0  0  0  0  0  1  0  0  0  0  0  0
  -26.8810  -30.5050   24.7820 C   0  0  0  0  0  1  0  0  0  0  0  0
  -27.4640  -32.6860   25.8110 C   0  0  0  0  0  1  0  0  0  0  0  0
  -25.5050  -34.0580   24.1880 N   0  0  0  0  0  0  0  0  0  0  0  0
  -25.8530  -35.1010   23.4220 C   0  0  0  0  0  0  0  0  0  0  0  0
  -26.5250  -34.9810   22.3950 O   0  0  0  0  0  0  0  0  0  0  0  0
  -24.9100  -34.2280   24.9860 H   0  0  0  0  0  0  0  0  0  0  0  0
  -24.1610  -36.9210   23.0350 C   0  0  0  0  0  1  0  0  0  0  0  0
  -25.3820  -36.4990   23.8690 C   0  0  0  0  0  3  0  0  0  0  0  0
  -27.5110  -37.3540   24.7390 C   0  0  0  0  0  1  0  0  0  0  0  0
  -26.4340  -37.5340   23.7700 N   0  0  0  0  0  0  0  0  0  0  0  0
  -26.0390  -38.4620   23.9010 H   0  0  0  0  0  0  0  0  0  0  0  0
  1  4  1  0
  1  5  1  0
  2  8  2  0
  3  1  2  0
  4  7  1  0
  5  6  1  6
  5 56  1  0
  5  2  1  0
  7 12  1  0
  7  2  1  0
  9 13  1  0
 10 14  2  0
 10 12  1  0
 11 13  2  0
 12  9  2  0
 13 53  1  0
 14 11  1  0
 15 23  1  0
 16 21  1  0
 17 18  1  0
 17 16  1  0
 19 18  1  0
 19 28  1  0
 19 20  1  0
 21 15  1  0
 21 20  1  0
 22 15  2  0
 23 14  1  0
 24 23  1  0
 25 26  2  0
 26 45  1  0
 27 26  1  0
 27 30  1  0
 28 29  1  0
 28 25  1  0
 29 27  2  0
 30 31  1  0
 31 32  2  0
 33 36  1  0
 33 32  1  0
 34 33  2  0
 35 34  1  0
 35 30  2  0
 36 37  1  0
 37 38  1  0
 38 39  2  0
 40 39  1  0
 40 44  1  0
 41 40  2  0
 42 37  2  0
 42 41  1  0
 43 42  1  0
 45 46  1  0
 46 49  1  0
 46 48  1  0
 47 45  2  0
 50 51  1  0
 50 25  1  0
 52 50  1  0
 53 54  1  0
 53 55  1  0
 57 59  1  0
 57 56  1  0
 58 69  2  0
 59 64  1  0
 60 68  1  0
 60 70  1  0
 61 67  1  0
 61 63  1  0
 62 68  1  0
 63 62  1  0
 64 63  2  0
 65 66  1  0
 65 59  2  0
 66 61  2  0
 67 60  1  0
 68 58  1  0
 70 72  2  0
 71 70  1  0
 73 71  1  0
 74 83  2  0
 74 79  1  0
 75 71  1  0
 75 79  1  0
 76 75  1  0
 77 78  1  0
 77 76  1  0
 78 74  1  0
 79 80  2  0
 80 81  1  0
 82 81  2  0
 83 82  1  0
 84 58  1  0
 84 89  1  0
 84 85  1  0
 85 88  1  1
 85 86  1  0
 87 85  1  0
 89 92  1  0
 90 94  1  0
 90 89  1  0
 91 90  2  0
 94 93  1  0
 96 94  1  0
 96 97  1  0
 96 95  1  0
M  ISO  4  15 100  23 100  56 101  57 101
M  END
>  <TORSDO>  (67) 
F 19

>  <SCORE>  (67) 
-14.248

>  <name>  (67) 
66

>  <ligand_id>  (67) 
66

>  <original_smiles>  (67) 
[H]C([H])=C1C([H])([H])N(c2c([H])c(N([H])[H])c([H])c(N([H])C(=O)N3C([H])([H])C([H])([H])C([H])([H])C([H])(n4nc(-c5c([H])c([H])c(Oc6c([H])c([H])c(F)c([H])c6F)c([H])c5[H])c(C(=O)N([H])[H])c4N([H])[H])C3([H])[H])c2[H])C(=O)C1(C([H])([H])[H])C([H])([H])Oc1c([H])c([H])c2c(c1[H])C([H])([H])N(C(=O)C([H])(N([H])C(=O)C([H])(N([H])C([H])([H])[H])C([H])([H])[H])C(C([H])([H])[H])(C([H])([H])[H])C([H])([H])[H])C([H])(C(=O)N([H])C1([H])c3c([H])c([H])c([H])c([H])c3C([H])([H])C([H])([H])C1([H])[H])C2([H])[H]

>  <smiles>  (67) 
[H]C([H])=C1C([H])([H])N(c2c([H])c(N([H])[H])c([H])c(N([H])C(=O)N3C([H])([H])C([H])([H])C([H])([H])C([H])(n4nc(-c5c([H])c([H])c(Oc6c([H])c([H])c(F)c([H])c6F)c([H])c5[H])c(C(=O)N([H])[H])c4N([H])[H])C3([H])[H])c2[H])C(=O)C1(C([H])([H])[H])C([H])([H])Oc1c([H])c([H])c2c(c1[H])C([H])([H])N(C(=O)C([H])(N([H])C(=O)C([H])(N([H])C([H])([H])[H])C([H])([H])[H])C(C([H])([H])[H])(C([H])([H])[H])C([H])([H])[H])C([H])(C(=O)N([H])C1([H])c3c([H])c([H])c([H])c([H])c3C([H])([H])C([H])([H])C1([H])[H])C2([H])[H]

$$$$
67:0:0
     RDKit          3D

 94103  0  0  1  0  0  0  0  0999 V2000
  -29.4170  -22.4840   19.3690 C   0  0  0  0  0  0  0  0  0  0  0  0
  -29.3970  -23.5920   21.4800 C   0  0  0  0  0  2  0  0  0  0  0  0
  -29.6530  -22.0750   21.6210 C   0  0  0  0  0  2  0  0  0  0  0  0
  -29.4720  -23.9380   19.9820 C   0  0  1  0  0  0  0  0  0  0  0  0
  -30.8440  -24.5460   19.6260 C   0  0  0  0  0  1  0  0  0  0  0  0
  -29.6180  -21.4880   20.2820 N   0  0  0  0  0  0  0  0  0  0  0  0
  -29.2350  -22.2960   18.1610 O   0  0  0  0  0  0  0  0  0  0  0  0
  -30.7930  -19.3740   19.4020 C   0  0  0  0  0  3  0  0  0  0  0  0
  -30.9340  -17.9440   19.3880 C   0  0  0  0  0  3  0  0  0  0  0  0
  -28.8260  -19.1630   20.7590 C   0  0  0  0  0  3  0  0  0  0  0  0
  -28.9420  -17.7450   20.7320 C   0  0  0  0  0  0  0  0  0  0  0  0
  -29.7390  -20.0280   20.1060 C   0  0  0  0  0  0  0  0  0  0  0  0
  -30.0120  -17.0860   20.0580 C   0  0  0  0  0  0  0  0  0  0  0  0
  -27.8920  -16.9410   21.4800 C   0  0  0  0  0  1  0  0  0  0  0  0
  -30.7250  -14.6340   19.4060 C   0  0  0  0  0  0  0  0  0  0  0  0
  -30.3200  -12.4560   18.2630 C   0  0  0  0  0  2  0  0  0  0  0  0
  -29.1680  -12.6590   17.2520 C   0  0  0  0  0  2  0  0  0  0  0  0
  -27.7900  -12.4940   17.9300 C   0  0  0  0  0  2  0  0  0  0  0  0
  -27.6840  -13.2760   19.2680 C   0  0  0  0  0  3  0  0  0  0  0  0
  -28.9230  -13.0180   20.1530 C   0  0  0  0  0  2  0  0  0  0  0  0
  -30.1140  -13.4060   19.3770 N   0  0  0  0  0  0  0  0  0  0  0  0
  -31.7760  -14.8440   18.7940 O   0  0  0  0  0  0  0  0  0  0  0  0
  -30.0220  -15.6170   20.0540 N   0  0  0  0  0  0  0  0  0  0  0  0
  -29.2680  -15.2190   20.5930 H   0  0  0  0  0  0  0  0  0  0  0  0
  -25.5290  -13.8580   20.5400 C   0  0  0  0  0  0  0  0  0  0  0  0
  -24.5020  -13.0840   21.0070 C   0  0  0  0  0  0  0  0  0  0  0  0
  -24.8380  -11.7380   20.6710 C   0  0  0  0  0  0  0  0  0  0  0  0
  -26.4380  -12.9810   19.9690 N   0  0  0  0  0  0  0  0  0  0  0  0
  -26.0360  -11.6900   20.1000 N   0  0  0  0  0  0  0  0  0  0  0  0
  -24.0630  -10.4980   20.8050 C   0  0  0  0  0  0  0  0  0  0  0  0
  -24.5200   -9.4210   21.5970 C   0  0  0  0  0  3  0  0  0  0  0  0
  -23.7460   -8.2470   21.7240 C   0  0  0  0  0  3  0  0  0  0  0  0
  -22.4990   -8.1440   21.0630 C   0  0  0  0  0  0  0  0  0  0  0  0
  -22.0610   -9.2090   20.2580 C   0  0  0  0  0  3  0  0  0  0  0  0
  -22.8330  -10.3730   20.1260 C   0  0  0  0  0  3  0  0  0  0  0  0
  -21.6930   -7.0320   21.1120 O   0  0  0  0  0  0  0  0  0  0  0  0
  -21.5940   -6.2620   22.2430 C   0  0  0  0  0  0  0  0  0  0  0  0
  -21.1950   -6.8070   23.4840 C   0  0  0  0  0  3  0  0  0  0  0  0
  -21.0400   -5.9670   24.6040 C   0  0  0  0  0  3  0  0  0  0  0  0
  -21.2740   -4.5830   24.4860 C   0  0  0  0  0  0  0  0  0  0  0  0
  -21.6670   -4.0390   23.2510 C   0  0  0  0  0  3  0  0  0  0  0  0
  -21.8230   -4.8760   22.1320 C   0  0  0  0  0  0  0  0  0  0  0  0
  -22.1800   -4.3420   20.9390 F   0  0  0  0  0  0  0  0  0  0  0  0
  -21.1190   -3.7740   25.5600 F   0  0  0  0  0  0  0  0  0  0  0  0
  -23.2280  -13.5740   21.6330 C   0  0  0  0  0  0  0  0  0  0  0  0
  -22.6560  -12.7970   22.5470 N   0  0  0  0  0  0  0  0  0  0  0  0
  -22.7580  -14.6750   21.3500 O   0  0  0  0  0  0  0  0  0  0  0  0
  -23.0530  -11.9030   22.7940 H   0  0  0  0  0  0  0  0  0  0  0  0
  -21.8080  -13.1000   23.0040 H   0  0  0  0  0  0  0  0  0  0  0  0
  -25.7500  -15.2320   20.5300 N   0  0  0  0  0  0  0  0  0  0  0  0
  -25.0060  -15.8680   20.7970 H   0  0  0  0  0  0  0  0  0  0  0  0
  -26.4650  -15.6790   19.9700 H   0  0  0  0  0  0  0  0  0  0  0  0
  -28.3430  -24.9830   19.5390 C   0  0  0  0  0  2  0  0  0  0  0  0
  -28.4530  -26.4030   19.9760 O   0  0  0  0  0  0  0  0  0  0  0  0
  -24.5870  -31.6130   23.1400 C   0  0  0  0  0  0  0  0  0  0  0  0
  -27.3140  -27.2270   19.9330 C   0  0  0  0  0  0  0  0  0  0  0  0
  -23.4240  -30.2540   21.4410 C   0  0  0  0  0  3  0  0  0  0  0  0
  -24.9150  -28.7920   19.9650 C   0  0  0  0  0  0  0  0  0  0  0  0
  -25.9590  -30.6300   21.2910 C   0  0  0  0  0  2  0  0  0  0  0  0
  -26.0700  -29.2800   20.5900 C   0  0  0  0  0  0  0  0  0  0  0  0
  -27.2710  -28.5090   20.5650 C   0  0  0  0  0  3  0  0  0  0  0  0
  -26.1350  -26.7970   19.2790 C   0  0  0  0  0  3  0  0  0  0  0  0
  -24.9510  -27.5570   19.3010 C   0  0  0  0  0  3  0  0  0  0  0  0
  -23.6600  -29.6390   20.0370 C   0  0  0  0  0  2  0  0  0  0  0  0
  -24.6740  -30.8460   22.0140 N   0  0  0  0  0  0  0  0  0  0  0  0
  -23.4940  -31.8480   23.6750 O   0  0  0  0  0  0  0  0  0  0  0  0
  -22.7790  -29.1860   22.3560 C   0  0  0  0  0  0  0  0  0  0  0  0
  -21.4680  -28.9500   22.1780 N   0  0  0  0  0  0  0  0  0  0  0  0
  -23.4590  -28.5760   23.1840 O   0  0  0  0  0  0  0  0  0  0  0  0
  -20.9760  -29.4940   21.4840 H   0  0  0  0  0  0  0  0  0  0  0  0
  -18.1300  -27.6170   22.5620 C   0  0  0  0  0  0  0  0  0  0  0  0
  -20.6690  -27.9610   22.9040 C   0  0  0  0  0  3  0  0  0  0  0  0
  -20.8400  -26.5520   22.2920 C   0  0  0  0  0  2  0  0  0  0  0  0
  -19.7760  -26.2170   21.2420 C   0  0  0  0  0  2  0  0  0  0  0  0
  -18.3750  -26.2960   21.8530 C   0  0  0  0  0  2  0  0  0  0  0  0
  -19.2080  -28.4070   23.0410 C   0  0  0  0  0  0  0  0  0  0  0  0
  -18.9290  -29.6440   23.6610 C   0  0  0  0  0  3  0  0  0  0  0  0
  -17.6030  -30.0920   23.8100 C   0  0  0  0  0  3  0  0  0  0  0  0
  -16.5380  -29.3000   23.3450 C   0  0  0  0  0  3  0  0  0  0  0  0
  -16.8020  -28.0640   22.7280 C   0  0  0  0  0  3  0  0  0  0  0  0
  -25.8520  -32.2500   23.7930 C   0  0  0  0  0  3  0  0  0  0  0  0
  -25.5290  -33.6470   24.1120 N   0  0  0  0  0  0  0  0  0  0  0  0
  -25.8270  -34.6960   23.3320 C   0  0  0  0  0  0  0  0  0  0  0  0
  -26.4730  -34.5890   22.2860 O   0  0  0  0  0  0  0  0  0  0  0  0
  -24.9490  -33.8040   24.9240 H   0  0  0  0  0  0  0  0  0  0  0  0
  -24.0560  -36.4510   23.0120 C   0  0  0  0  0  1  0  0  0  0  0  0
  -25.3320  -36.0810   23.7870 C   0  0  0  0  0  3  0  0  0  0  0  0
  -27.4690  -37.0210   24.5440 C   0  0  0  0  0  1  0  0  0  0  0  0
  -26.3400  -37.1490   23.6250 N   0  0  0  0  0  0  0  0  0  0  0  0
  -25.9190  -38.0640   23.7670 H   0  0  0  0  0  0  0  0  0  0  0  0
  -26.3340  -31.4840   25.0850 C   0  0  1  0  0  0  0  0  0  0  0  0
  -25.2090  -31.2420   26.1170 C   0  0  0  0  0  1  0  0  0  0  0  0
  -26.9390  -30.1100   24.7130 C   0  0  0  0  0  1  0  0  0  0  0  0
  -27.4560  -32.2870   25.7840 C   0  0  0  0  0  1  0  0  0  0  0  0
  1  4  1  0
  1  6  1  0
  2  3  1  0
  4  5  1  1
  4  2  1  0
  6  3  1  0
  7  1  2  0
  8 12  1  0
  9  8  2  0
  9 13  1  0
 11 10  1  0
 11 14  1  0
 12  6  1  0
 12 10  2  0
 13 11  2  0
 15 23  1  0
 16 21  1  0
 17 18  1  0
 17 16  1  0
 19 18  1  0
 19 28  1  0
 19 20  1  0
 21 15  1  0
 21 20  1  0
 22 15  2  0
 23 13  1  0
 23 24  1  0
 25 26  2  0
 26 45  1  0
 27 30  1  0
 27 26  1  0
 28 29  1  0
 28 25  1  0
 29 27  2  0
 30 31  1  0
 31 32  2  0
 33 36  1  0
 33 32  1  0
 34 33  2  0
 35 34  1  0
 35 30  2  0
 36 37  1  0
 37 38  1  0
 38 39  2  0
 40 39  1  0
 40 44  1  0
 41 40  2  0
 42 37  2  0
 42 41  1  0
 43 42  1  0
 45 46  1  0
 46 48  1  0
 46 49  1  0
 47 45  2  0
 50 25  1  0
 50 51  1  0
 52 50  1  0
 53 54  1  0
 53  4  1  0
 55 66  2  0
 56 54  1  0
 56 61  1  0
 57 65  1  0
 57 67  1  0
 58 64  1  0
 58 60  1  0
 59 65  1  0
 60 59  1  0
 61 60  2  0
 62 63  1  0
 62 56  2  0
 63 58  2  0
 64 57  1  0
 65 55  1  0
 67 69  2  0
 68 67  1  0
 70 68  1  0
 71 80  2  0
 71 76  1  0
 72 68  1  0
 72 76  1  0
 73 72  1  0
 74 75  1  0
 74 73  1  0
 75 71  1  0
 76 77  2  0
 77 78  1  0
 79 78  2  0
 80 79  1  0
 81 55  1  0
 81 82  1  0
 81 91  1  0
 82 85  1  0
 83 87  1  0
 83 82  1  0
 84 83  2  0
 87 86  1  0
 89 90  1  0
 89 87  1  0
 89 88  1  0
 91 94  1  1
 91 92  1  0
 93 91  1  0
M  ISO  4  15 100  23 100  53 101  54 101
M  END
>  <TORSDO>  (68) 
F 18

>  <SCORE>  (68) 
-10.647

>  <name>  (68) 
67

>  <ligand_id>  (68) 
67

>  <original_smiles>  (68) 
[H]c1c([H])c([H])c2c(c1[H])C([H])([H])C([H])([H])C([H])([H])C2([H])N([H])C(=O)C1([H])N(C(=O)C([H])(N([H])C(=O)C([H])(N([H])C([H])([H])[H])C([H])([H])[H])C(C([H])([H])[H])(C([H])([H])[H])C([H])([H])[H])C([H])([H])c2c([H])c(OC([H])([H])C3(C([H])([H])[H])C(=O)N(c4c([H])c([H])c(N([H])C(=O)N5C([H])([H])C([H])([H])C([H])([H])C([H])(n6nc(-c7c([H])c([H])c(Oc8c([H])c([H])c(F)c([H])c8F)c([H])c7[H])c(C(=O)N([H])[H])c6N([H])[H])C5([H])[H])c(C([H])([H])[H])c4[H])C([H])([H])C3([H])[H])c([H])c([H])c2C1([H])[H]

>  <smiles>  (68) 
[H]c1c([H])c([H])c2c(c1[H])C([H])([H])C([H])([H])C([H])([H])C2([H])N([H])C(=O)C1([H])N(C(=O)C([H])(N([H])C(=O)C([H])(N([H])C([H])([H])[H])C([H])([H])[H])C(C([H])([H])[H])(C([H])([H])[H])C([H])([H])[H])C([H])([H])c2c([H])c(OC([H])([H])C3(C([H])([H])[H])C(=O)N(c4c([H])c([H])c(N([H])C(=O)N5C([H])([H])C([H])([H])C([H])([H])C([H])(n6nc(-c7c([H])c([H])c(Oc8c([H])c([H])c(F)c([H])c8F)c([H])c7[H])c(C(=O)N([H])[H])c6N([H])[H])C5([H])[H])c(C([H])([H])[H])c4[H])C([H])([H])C3([H])[H])c([H])c([H])c2C1([H])[H]

$$$$
68:0:0
     RDKit          3D

100109  0  0  1  0  0  0  0  0999 V2000
  -28.8080  -23.8480   20.1870 C   0  0  0  0  0  0  0  0  0  0  0  0
  -30.0870  -23.4470   20.4610 C   0  0  0  0  0  0  0  0  0  0  0  0
  -27.7720  -22.8150   20.3160 C   0  0  0  0  0  0  0  0  0  0  0  0
  -30.4760  -22.0350   20.7800 C   0  0  0  0  0  0  0  0  0  0  0  0
  -26.4690  -23.1410   20.3130 C   0  0  0  0  0  2  0  0  0  0  0  0
  -28.1420  -21.3290   20.4680 C   0  0  0  0  0  2  0  0  0  0  0  0
  -31.2570  -24.4210   20.3240 C   0  0  0  0  0  1  0  0  0  0  0  0
  -29.5810  -21.0300   20.5220 N   0  0  0  0  0  0  0  0  0  0  0  0
  -31.6020  -21.7520   21.2080 O   0  0  0  0  0  0  0  0  0  0  0  0
  -30.6890  -19.7030   18.8200 C   0  0  0  0  0  3  0  0  0  0  0  0
  -31.1200  -18.5110   18.2300 C   0  0  0  0  0  3  0  0  0  0  0  0
  -29.8500  -18.4280   20.7210 C   0  0  0  0  0  3  0  0  0  0  0  0
  -30.0380  -19.7090   20.0690 C   0  0  0  0  0  0  0  0  0  0  0  0
  -30.9530  -17.2610   18.8660 C   0  0  0  0  0  0  0  0  0  0  0  0
  -30.3300  -17.1800   20.1530 C   0  0  0  0  0  0  0  0  0  0  0  0
  -30.8840  -14.7370   20.7710 C   0  0  0  0  0  0  0  0  0  0  0  0
  -30.7040  -12.4660   19.8040 C   0  0  0  0  0  2  0  0  0  0  0  0
  -29.8520  -12.5570   18.5190 C   0  0  0  0  0  2  0  0  0  0  0  0
  -28.3550  -12.4190   18.8470 C   0  0  0  0  0  2  0  0  0  0  0  0
  -27.9120  -13.3160   20.0350 C   0  0  0  0  0  3  0  0  0  0  0  0
  -28.8950  -13.2250   21.2240 C   0  0  0  0  0  2  0  0  0  0  0  0
  -30.2390  -13.5310   20.7160 N   0  0  0  0  0  0  0  0  0  0  0  0
  -32.0970  -14.8120   20.5640 O   0  0  0  0  0  0  0  0  0  0  0  0
  -30.1060  -15.8730   20.8030 N   0  0  0  0  0  0  0  0  0  0  0  0
  -29.1820  -15.7390   21.1870 H   0  0  0  0  0  0  0  0  0  0  0  0
  -25.4770  -13.9100   20.5850 C   0  0  0  0  0  0  0  0  0  0  0  0
  -24.3920  -13.1380   20.8990 C   0  0  0  0  0  0  0  0  0  0  0  0
  -24.8630  -11.7900   20.9320 C   0  0  0  0  0  0  0  0  0  0  0  0
  -26.5390  -13.0330   20.4400 N   0  0  0  0  0  0  0  0  0  0  0  0
  -26.1710  -11.7540   20.7140 N   0  0  0  0  0  0  0  0  0  0  0  0
  -24.1310  -10.5270   21.1020 C   0  0  0  0  0  0  0  0  0  0  0  0
  -24.5240   -9.5700   22.0640 C   0  0  0  0  0  3  0  0  0  0  0  0
  -23.7930   -8.3730   22.2230 C   0  0  0  0  0  3  0  0  0  0  0  0
  -22.6570   -8.1230   21.4160 C   0  0  0  0  0  0  0  0  0  0  0  0
  -22.2850   -9.0680   20.4440 C   0  0  0  0  0  3  0  0  0  0  0  0
  -23.0160  -10.2570   20.2850 C   0  0  0  0  0  3  0  0  0  0  0  0
  -21.9030   -6.9760   21.4820 O   0  0  0  0  0  0  0  0  0  0  0  0
  -21.8090   -6.2400   22.6350 C   0  0  0  0  0  0  0  0  0  0  0  0
  -21.3290   -6.8010   23.8400 C   0  0  0  0  0  3  0  0  0  0  0  0
  -21.1830   -5.9920   24.9840 C   0  0  0  0  0  3  0  0  0  0  0  0
  -21.5070   -4.6230   24.9260 C   0  0  0  0  0  0  0  0  0  0  0  0
  -21.9800   -4.0620   23.7260 C   0  0  0  0  0  3  0  0  0  0  0  0
  -22.1280   -4.8680   22.5840 C   0  0  0  0  0  0  0  0  0  0  0  0
  -22.5630   -4.3180   21.4250 F   0  0  0  0  0  0  0  0  0  0  0  0
  -21.3590   -3.8440   26.0220 F   0  0  0  0  0  0  0  0  0  0  0  0
  -22.9780  -13.6110   21.0630 C   0  0  0  0  0  0  0  0  0  0  0  0
  -22.2010  -12.9360   21.9020 N   0  0  0  0  0  0  0  0  0  0  0  0
  -22.5690  -14.6140   20.4810 O   0  0  0  0  0  0  0  0  0  0  0  0
  -22.5460  -12.1250   22.3930 H   0  0  0  0  0  0  0  0  0  0  0  0
  -21.2490  -13.2360   22.0560 H   0  0  0  0  0  0  0  0  0  0  0  0
  -25.6460  -15.2780   20.3860 N   0  0  0  0  0  0  0  0  0  0  0  0
  -24.8660  -15.9270   20.4290 H   0  0  0  0  0  0  0  0  0  0  0  0
  -26.5050  -15.7150   20.0760 H   0  0  0  0  0  0  0  0  0  0  0  0
  -32.4380  -15.8640   17.4500 C   0  0  0  0  0  0  0  0  0  0  0  0
  -32.5820  -14.4930   16.8040 C   0  0  0  0  0  1  0  0  0  0  0  0
  -31.3030  -16.0910   18.1360 N   0  0  0  0  0  0  0  0  0  0  0  0
  -33.3490  -16.6860   17.3260 O   0  0  0  0  0  0  0  0  0  0  0  0
  -30.6800  -15.3050   18.2360 H   0  0  0  0  0  0  0  0  0  0  0  0
  -28.5130  -25.2230   19.4440 C   0  0  0  0  0  2  0  0  0  0  0  0
  -28.4010  -26.5030   20.1780 O   0  0  0  0  0  0  0  0  0  0  0  0
  -24.5990  -31.8460   23.1800 C   0  0  0  0  0  0  0  0  0  0  0  0
  -27.2630  -27.3290   20.0910 C   0  0  0  0  0  0  0  0  0  0  0  0
  -23.4160  -30.4510   21.5220 C   0  0  0  0  0  3  0  0  0  0  0  0
  -24.8850  -28.9320   20.0880 C   0  0  0  0  0  0  0  0  0  0  0  0
  -25.9550  -30.7900   21.3570 C   0  0  0  0  0  2  0  0  0  0  0  0
  -26.0460  -29.4190   20.6980 C   0  0  0  0  0  0  0  0  0  0  0  0
  -27.2340  -28.6270   20.6960 C   0  0  0  0  0  3  0  0  0  0  0  0
  -26.0690  -26.9000   19.4630 C   0  0  0  0  0  3  0  0  0  0  0  0
  -24.8980  -27.6770   19.4650 C   0  0  0  0  0  3  0  0  0  0  0  0
  -23.6410  -29.7940   20.1370 C   0  0  0  0  0  2  0  0  0  0  0  0
  -24.6750  -31.0460   22.0760 N   0  0  0  0  0  0  0  0  0  0  0  0
  -23.5110  -32.1090   23.7110 O   0  0  0  0  0  0  0  0  0  0  0  0
  -22.7590  -29.4170   22.4690 C   0  0  0  0  0  0  0  0  0  0  0  0
  -21.4310  -29.2510   22.3540 N   0  0  0  0  0  0  0  0  0  0  0  0
  -23.4420  -28.7710   23.2680 O   0  0  0  0  0  0  0  0  0  0  0  0
  -20.9380  -29.8250   21.6850 H   0  0  0  0  0  0  0  0  0  0  0  0
  -18.0470  -28.0880   22.8890 C   0  0  0  0  0  0  0  0  0  0  0  0
  -20.6130  -28.3060   23.1170 C   0  0  0  0  0  3  0  0  0  0  0  0
  -20.6840  -26.8870   22.5030 C   0  0  0  0  0  2  0  0  0  0  0  0
  -19.5580  -26.6050   21.5040 C   0  0  0  0  0  2  0  0  0  0  0  0
  -18.1910  -26.7540   22.1770 C   0  0  0  0  0  2  0  0  0  0  0  0
  -19.1840  -28.8240   23.3170 C   0  0  0  0  0  0  0  0  0  0  0  0
  -18.9950  -30.0740   23.9440 C   0  0  0  0  0  3  0  0  0  0  0  0
  -17.7010  -30.5890   24.1480 C   0  0  0  0  0  3  0  0  0  0  0  0
  -16.5780  -29.8500   23.7370 C   0  0  0  0  0  3  0  0  0  0  0  0
  -16.7520  -28.6000   23.1150 C   0  0  0  0  0  3  0  0  0  0  0  0
  -25.8730  -32.4850   23.8120 C   0  0  0  0  0  3  0  0  0  0  0  0
  -26.3870  -31.7120   25.0900 C   0  0  1  0  0  0  0  0  0  0  0  0
  -25.2880  -31.4650   26.1510 C   0  0  0  0  0  1  0  0  0  0  0  0
  -26.9770  -30.3370   24.6980 C   0  0  0  0  0  1  0  0  0  0  0  0
  -27.5290  -32.5090   25.7610 C   0  0  0  0  0  1  0  0  0  0  0  0
  -25.5510  -33.8790   24.1460 N   0  0  0  0  0  0  0  0  0  0  0  0
  -25.8990  -34.9390   23.4050 C   0  0  0  0  0  0  0  0  0  0  0  0
  -26.5950  -34.8460   22.3890 O   0  0  0  0  0  0  0  0  0  0  0  0
  -24.9360  -34.0260   24.9320 H   0  0  0  0  0  0  0  0  0  0  0  0
  -24.1860  -36.7390   23.0120 C   0  0  0  0  0  1  0  0  0  0  0  0
  -25.3980  -36.3220   23.8620 C   0  0  0  0  0  3  0  0  0  0  0  0
  -27.5010  -37.1940   24.7790 C   0  0  0  0  0  1  0  0  0  0  0  0
  -26.4350  -37.3760   23.7990 N   0  0  0  0  0  0  0  0  0  0  0  0
  -26.0230  -38.2940   23.9460 H   0  0  0  0  0  0  0  0  0  0  0  0
  1  3  1  0
  1  2  2  0
  2  4  1  0
  3  6  1  0
  4  9  2  0
  5  3  2  0
  6  8  1  0
  7  2  1  0
  8  4  1  0
 10 13  1  0
 11 10  2  0
 11 14  1  0
 13  8  1  0
 13 12  2  0
 14 15  2  0
 15 12  1  0
 15 24  1  0
 16 24  1  0
 17 22  1  0
 18 19  1  0
 18 17  1  0
 20 19  1  0
 20 29  1  0
 20 21  1  0
 22 16  1  0
 22 21  1  0
 23 16  2  0
 24 25  1  0
 26 27  2  0
 27 28  1  0
 27 46  1  0
 28 31  1  0
 29 26  1  0
 29 30  1  0
 30 28  2  0
 31 32  1  0
 32 33  2  0
 34 37  1  0
 34 33  1  0
 35 34  2  0
 36 35  1  0
 36 31  2  0
 37 38  1  0
 38 39  1  0
 39 40  2  0
 41 40  1  0
 41 45  1  0
 42 41  2  0
 43 38  2  0
 43 42  1  0
 44 43  1  0
 46 47  1  0
 47 50  1  0
 47 49  1  0
 48 46  2  0
 51 52  1  0
 51 26  1  0
 53 51  1  0
 54 56  1  0
 55 54  1  0
 56 58  1  0
 56 14  1  0
 57 54  2  0
 59 60  1  0
 59  1  1  0
 61 72  2  0
 62 60  1  0
 62 67  1  0
 63 71  1  0
 63 73  1  0
 64 70  1  0
 64 66  1  0
 65 71  1  0
 66 65  1  0
 67 66  2  0
 68 69  1  0
 68 62  2  0
 69 64  2  0
 70 63  1  0
 71 61  1  0
 73 75  2  0
 74 73  1  0
 76 74  1  0
 77 86  2  0
 77 82  1  0
 78 74  1  0
 78 82  1  0
 79 78  1  0
 80 81  1  0
 80 79  1  0
 81 77  1  0
 82 83  2  0
 83 84  1  0
 85 84  2  0
 86 85  1  0
 87 61  1  0
 87 92  1  0
 87 88  1  0
 88 91  1  1
 88 89  1  0
 90 88  1  0
 92 95  1  0
 93 97  1  0
 93 92  1  0
 94 93  2  0
 97 96  1  0
 99 97  1  0
 99100  1  0
 99 98  1  0
M  ISO  4  16 100  24 100  59 101  60 101
M  END
>  <TORSDO>  (69) 
F 19

>  <SCORE>  (69) 
-14.812

>  <name>  (69) 
68

>  <ligand_id>  (69) 
68

>  <original_smiles>  (69) 
[H]C([H])=C1C(C([H])([H])Oc2c([H])c([H])c3c(c2[H])C([H])([H])N(C(=O)C([H])(N([H])C(=O)C([H])(N([H])C([H])([H])[H])C([H])([H])[H])C(C([H])([H])[H])(C([H])([H])[H])C([H])([H])[H])C([H])(C(=O)N([H])C2([H])c4c([H])c([H])c([H])c([H])c4C([H])([H])C([H])([H])C2([H])[H])C3([H])[H])=C(C([H])([H])[H])C(=O)N(c2c([H])c([H])c(N([H])C(=O)C([H])([H])[H])c(N([H])C(=O)N3C([H])([H])C([H])([H])C([H])([H])C([H])(n4nc(-c5c([H])c([H])c(Oc6c([H])c([H])c(F)c([H])c6F)c([H])c5[H])c(C(=O)N([H])[H])c4N([H])[H])C3([H])[H])c2[H])C1([H])[H]

>  <smiles>  (69) 
[H]C([H])=C1C(C([H])([H])Oc2c([H])c([H])c3c(c2[H])C([H])([H])N(C(=O)C([H])(N([H])C(=O)C([H])(N([H])C([H])([H])[H])C([H])([H])[H])C(C([H])([H])[H])(C([H])([H])[H])C([H])([H])[H])C([H])(C(=O)N([H])C2([H])c4c([H])c([H])c([H])c([H])c4C([H])([H])C([H])([H])C2([H])[H])C3([H])[H])=C(C([H])([H])[H])C(=O)N(c2c([H])c([H])c(N([H])C(=O)C([H])([H])[H])c(N([H])C(=O)N3C([H])([H])C([H])([H])C([H])([H])C([H])(n4nc(-c5c([H])c([H])c(Oc6c([H])c([H])c(F)c([H])c6F)c([H])c5[H])c(C(=O)N([H])[H])c4N([H])[H])C3([H])[H])c2[H])C1([H])[H]

$$$$
69:0:0
     RDKit          3D

 99108  0  0  1  0  0  0  0  0999 V2000
  -28.6390  -22.7910   20.1180 C   0  0  0  0  0  3  0  0  0  0  0  0
  -28.6310  -21.6300   21.0270 C   0  0  0  0  0  0  0  0  0  0  0  0
  -28.2980  -24.1260   20.4660 C   0  0  0  0  0  0  0  0  0  0  0  0
  -29.1660  -22.3030   18.7840 C   0  0  0  0  0  2  0  0  0  0  0  0
  -29.4720  -20.8160   19.0060 C   0  0  0  0  0  2  0  0  0  0  0  0
  -29.2640  -20.5740   20.4290 N   0  0  0  0  0  0  0  0  0  0  0  0
  -27.8160  -24.5470   21.5420 O   0  0  0  0  0  0  0  0  0  0  0  0
  -28.1330  -21.5820   22.1550 O   0  0  0  0  0  0  0  0  0  0  0  0
  -30.2830  -19.3580   22.3670 C   0  0  0  0  0  3  0  0  0  0  0  0
  -29.7370  -18.0950   20.3550 C   0  0  0  0  0  3  0  0  0  0  0  0
  -30.7820  -16.9650   22.2560 C   0  0  0  0  0  3  0  0  0  0  0  0
  -29.7420  -19.3440   21.0540 C   0  0  0  0  0  0  0  0  0  0  0  0
  -30.7970  -18.1830   22.9640 C   0  0  0  0  0  0  0  0  0  0  0  0
  -30.2510  -16.9020   20.9490 C   0  0  0  0  0  0  0  0  0  0  0  0
  -30.8780  -14.5980   20.0710 C   0  0  0  0  0  0  0  0  0  0  0  0
  -30.6070  -12.4070   18.9470 C   0  0  0  0  0  2  0  0  0  0  0  0
  -29.6140  -12.5820   17.7740 C   0  0  0  0  0  2  0  0  0  0  0  0
  -28.1520  -12.4660   18.2540 C   0  0  0  0  0  2  0  0  0  0  0  0
  -27.8650  -13.3210   19.5170 C   0  0  0  0  0  3  0  0  0  0  0  0
  -28.9490  -13.0760   20.5890 C   0  0  0  0  0  2  0  0  0  0  0  0
  -30.2500  -13.3940   19.9760 N   0  0  0  0  0  0  0  0  0  0  0  0
  -32.0300  -14.7900   19.6680 O   0  0  0  0  0  0  0  0  0  0  0  0
  -30.0240  -15.6140   20.3670 N   0  0  0  0  0  0  0  0  0  0  0  0
  -29.0700  -15.2970   20.4410 H   0  0  0  0  0  0  0  0  0  0  0  0
  -25.5200  -14.0080   20.3160 C   0  0  0  0  0  0  0  0  0  0  0  0
  -24.4390  -13.2690   20.7170 C   0  0  0  0  0  0  0  0  0  0  0  0
  -24.8530  -11.9030   20.6580 C   0  0  0  0  0  0  0  0  0  0  0  0
  -26.5230  -13.0910   20.0390 N   0  0  0  0  0  0  0  0  0  0  0  0
  -26.1290  -11.8220   20.3030 N   0  0  0  0  0  0  0  0  0  0  0  0
  -24.0920  -10.6640   20.8620 C   0  0  0  0  0  0  0  0  0  0  0  0
  -24.5100   -9.6870   21.7910 C   0  0  0  0  0  3  0  0  0  0  0  0
  -23.7540   -8.5090   21.9800 C   0  0  0  0  0  3  0  0  0  0  0  0
  -22.5650   -8.3040   21.2400 C   0  0  0  0  0  0  0  0  0  0  0  0
  -22.1680   -9.2690   20.2980 C   0  0  0  0  0  3  0  0  0  0  0  0
  -22.9240  -10.4370   20.1060 C   0  0  0  0  0  3  0  0  0  0  0  0
  -21.7800   -7.1820   21.3390 O   0  0  0  0  0  0  0  0  0  0  0  0
  -21.6970   -6.4610   22.5040 C   0  0  0  0  0  0  0  0  0  0  0  0
  -21.2760   -7.0530   23.7150 C   0  0  0  0  0  3  0  0  0  0  0  0
  -21.1410   -6.2610   24.8730 C   0  0  0  0  0  3  0  0  0  0  0  0
  -21.4130   -4.8800   24.8190 C   0  0  0  0  0  0  0  0  0  0  0  0
  -21.8280   -4.2910   23.6120 C   0  0  0  0  0  3  0  0  0  0  0  0
  -21.9660   -5.0800   22.4560 C   0  0  0  0  0  0  0  0  0  0  0  0
  -22.3460   -4.5030   21.2890 F   0  0  0  0  0  0  0  0  0  0  0  0
  -21.2750   -4.1170   25.9280 F   0  0  0  0  0  0  0  0  0  0  0  0
  -23.0700  -13.7910   21.0450 C   0  0  0  0  0  0  0  0  0  0  0  0
  -22.3540  -13.1140   21.9370 N   0  0  0  0  0  0  0  0  0  0  0  0
  -22.6440  -14.8300   20.5430 O   0  0  0  0  0  0  0  0  0  0  0  0
  -22.7130  -12.2730   22.3620 H   0  0  0  0  0  0  0  0  0  0  0  0
  -21.4350  -13.4460   22.1980 H   0  0  0  0  0  0  0  0  0  0  0  0
  -25.7260  -15.3720   20.1420 N   0  0  0  0  0  0  0  0  0  0  0  0
  -24.9840  -16.0510   20.2810 H   0  0  0  0  0  0  0  0  0  0  0  0
  -26.5560  -15.7800   19.7360 H   0  0  0  0  0  0  0  0  0  0  0  0
  -31.3120  -18.2080   24.2610 N   0  0  0  0  0  0  0  0  0  0  0  0
  -31.0680  -18.9620   24.8990 H   0  0  0  0  0  0  0  0  0  0  0  0
  -31.5210  -17.3320   24.7360 H   0  0  0  0  0  0  0  0  0  0  0  0
  -28.1910  -25.2750   18.0680 C   0  0  0  0  0  1  0  0  0  0  0  0
  -30.1770  -25.5530   19.5640 C   0  0  0  0  0  1  0  0  0  0  0  0
  -28.6400  -25.3870   19.5430 C   0  0  2  0  0  0  0  0  0  0  0  0
  -28.3510  -26.7220   20.0810 O   0  0  0  0  0  0  0  0  0  0  0  0
  -24.5690  -31.8890   23.1840 C   0  0  0  0  0  0  0  0  0  0  0  0
  -27.1510  -27.4230   20.0470 C   0  0  0  0  0  0  0  0  0  0  0  0
  -23.3340  -30.4980   21.5590 C   0  0  0  0  0  3  0  0  0  0  0  0
  -24.7590  -28.9610   20.0950 C   0  0  0  0  0  0  0  0  0  0  0  0
  -25.8560  -30.8520   21.3100 C   0  0  0  0  0  2  0  0  0  0  0  0
  -25.9280  -29.4810   20.6600 C   0  0  0  0  0  0  0  0  0  0  0  0
  -27.1230  -28.7230   20.6210 C   0  0  0  0  0  3  0  0  0  0  0  0
  -25.9560  -26.9210   19.4900 C   0  0  0  0  0  3  0  0  0  0  0  0
  -24.7710  -27.6850   19.5030 C   0  0  0  0  0  3  0  0  0  0  0  0
  -23.5180  -29.8230   20.1740 C   0  0  0  0  0  2  0  0  0  0  0  0
  -24.6070  -31.0940   22.0760 N   0  0  0  0  0  0  0  0  0  0  0  0
  -23.4950  -32.1620   23.7390 O   0  0  0  0  0  0  0  0  0  0  0  0
  -22.6980  -29.4750   22.5280 C   0  0  0  0  0  0  0  0  0  0  0  0
  -21.3730  -29.2870   22.4180 N   0  0  0  0  0  0  0  0  0  0  0  0
  -23.3940  -28.8510   23.3330 O   0  0  0  0  0  0  0  0  0  0  0  0
  -20.8690  -29.8470   21.7440 H   0  0  0  0  0  0  0  0  0  0  0  0
  -18.0130  -28.0570   22.9230 C   0  0  0  0  0  0  0  0  0  0  0  0
  -20.5670  -28.3440   23.1940 C   0  0  0  0  0  3  0  0  0  0  0  0
  -20.6880  -26.9110   22.6230 C   0  0  0  0  0  2  0  0  0  0  0  0
  -19.5900  -26.5700   21.6140 C   0  0  0  0  0  2  0  0  0  0  0  0
  -18.2050  -26.7040   22.2580 C   0  0  0  0  0  2  0  0  0  0  0  0
  -19.1220  -28.8320   23.3510 C   0  0  0  0  0  0  0  0  0  0  0  0
  -18.8940  -30.0980   23.9310 C   0  0  0  0  0  3  0  0  0  0  0  0
  -17.5850  -30.5870   24.0960 C   0  0  0  0  0  3  0  0  0  0  0  0
  -16.4870  -29.8060   23.6900 C   0  0  0  0  0  3  0  0  0  0  0  0
  -16.7030  -28.5450   23.1070 C   0  0  0  0  0  3  0  0  0  0  0  0
  -25.8640  -32.5220   23.7850 C   0  0  0  0  0  3  0  0  0  0  0  0
  -26.4080  -31.7390   25.0410 C   0  0  1  0  0  0  0  0  0  0  0  0
  -25.3370  -31.4880   26.1290 C   0  0  0  0  0  1  0  0  0  0  0  0
  -26.9850  -30.3670   24.6150 C   0  0  0  0  0  1  0  0  0  0  0  0
  -27.5690  -32.5250   25.6930 C   0  0  0  0  0  1  0  0  0  0  0  0
  -25.5600  -33.9170   24.1360 N   0  0  0  0  0  0  0  0  0  0  0  0
  -25.8970  -34.9770   23.3910 C   0  0  0  0  0  0  0  0  0  0  0  0
  -26.5650  -34.8850   22.3580 O   0  0  0  0  0  0  0  0  0  0  0  0
  -24.9760  -34.0650   24.9440 H   0  0  0  0  0  0  0  0  0  0  0  0
  -24.1800  -36.7810   23.0610 C   0  0  0  0  0  1  0  0  0  0  0  0
  -25.4120  -36.3590   23.8730 C   0  0  0  0  0  3  0  0  0  0  0  0
  -27.5450  -37.2100   24.7380 C   0  0  0  0  0  1  0  0  0  0  0  0
  -26.4490  -37.4070   23.7930 N   0  0  0  0  0  0  0  0  0  0  0  0
  -26.0450  -38.3220   23.9650 H   0  0  0  0  0  0  0  0  0  0  0  0
  1  3  1  0
  1  2  1  0
  2  8  2  0
  3  7  2  0
  4  5  1  0
  4  1  1  0
  5  6  1  0
  6  2  1  0
  6 12  1  0
  9 13  1  0
 10 14  2  0
 10 12  1  0
 11 13  2  0
 12  9  2  0
 13 53  1  0
 14 11  1  0
 15 23  1  0
 16 21  1  0
 17 18  1  0
 17 16  1  0
 19 18  1  0
 19 28  1  0
 19 20  1  0
 21 15  1  0
 21 20  1  0
 22 15  2  0
 23 24  1  0
 23 14  1  0
 25 26  2  0
 26 45  1  0
 27 26  1  0
 27 30  1  0
 28 29  1  0
 28 25  1  0
 29 27  2  0
 30 31  1  0
 31 32  2  0
 33 36  1  0
 33 32  1  0
 34 33  2  0
 35 34  1  0
 35 30  2  0
 36 37  1  0
 37 38  1  0
 38 39  2  0
 40 39  1  0
 40 44  1  0
 41 40  2  0
 42 37  2  0
 42 41  1  0
 43 42  1  0
 45 46  1  0
 46 49  1  0
 46 48  1  0
 47 45  2  0
 50 51  1  0
 50 25  1  0
 52 50  1  0
 53 55  1  0
 53 54  1  0
 58 56  1  6
 58 57  1  0
 58 59  1  0
 58  3  1  0
 60 71  2  0
 61 59  1  0
 61 66  1  0
 62 70  1  0
 62 72  1  0
 63 69  1  0
 63 65  1  0
 64 70  1  0
 65 64  1  0
 66 65  2  0
 67 68  1  0
 67 61  2  0
 68 63  2  0
 69 62  1  0
 70 60  1  0
 72 74  2  0
 73 72  1  0
 75 73  1  0
 76 85  2  0
 76 81  1  0
 77 73  1  0
 77 81  1  0
 78 77  1  0
 79 80  1  0
 79 78  1  0
 80 76  1  0
 81 82  2  0
 82 83  1  0
 84 83  2  0
 85 84  1  0
 86 60  1  0
 86 91  1  0
 86 87  1  0
 87 90  1  1
 87 88  1  0
 89 87  1  0
 91 94  1  0
 92 96  1  0
 92 91  1  0
 93 92  2  0
 96 95  1  0
 98 96  1  0
 98 99  1  0
 98 97  1  0
M  ISO  4  15 100  23 100  58 101  59 101
M  END
>  <TORSDO>  (70) 
F 19

>  <SCORE>  (70) 
-13.079

>  <name>  (70) 
69

>  <ligand_id>  (70) 
69

>  <original_smiles>  (70) 
[H]c1c([H])c([H])c2c(c1[H])C([H])([H])C([H])([H])C([H])([H])C2([H])N([H])C(=O)C1([H])N(C(=O)C([H])(N([H])C(=O)C([H])(N([H])C([H])([H])[H])C([H])([H])[H])C(C([H])([H])[H])(C([H])([H])[H])C([H])([H])[H])C([H])([H])c2c([H])c(OC(C([O-])=C3C(=O)N(c4c([H])c(N([H])[H])c([H])c(N([H])C(=O)N5C([H])([H])C([H])([H])C([H])([H])C([H])(n6nc(-c7c([H])c([H])c(Oc8c([H])c([H])c(F)c([H])c8F)c([H])c7[H])c(C(=O)N([H])[H])c6N([H])[H])C5([H])[H])c4[H])C([H])([H])C3([H])[H])(C([H])([H])[H])C([H])([H])[H])c([H])c([H])c2C1([H])[H]

>  <smiles>  (70) 
[H]c1c([H])c([H])c2c(c1[H])C([H])([H])C([H])([H])C([H])([H])C2([H])N([H])C(=O)C1([H])N(C(=O)C([H])(N([H])C(=O)C([H])(N([H])C([H])([H])[H])C([H])([H])[H])C(C([H])([H])[H])(C([H])([H])[H])C([H])([H])[H])C([H])([H])c2c([H])c(OC(C([O-])=C3C(=O)N(c4c([H])c(N([H])[H])c([H])c(N([H])C(=O)N5C([H])([H])C([H])([H])C([H])([H])C([H])(n6nc(-c7c([H])c([H])c(Oc8c([H])c([H])c(F)c([H])c8F)c([H])c7[H])c(C(=O)N([H])[H])c6N([H])[H])C5([H])[H])c4[H])C([H])([H])C3([H])[H])(C([H])([H])[H])C([H])([H])[H])c([H])c([H])c2C1([H])[H]

$$$$
70:0:0
     RDKit          3D

 91100  0  0  1  0  0  0  0  0999 V2000
  -29.5660  -22.8870   19.8060 C   0  0  0  0  0  2  0  0  0  0  0  0
  -28.5380  -23.4570   20.4760 C   0  0  0  0  0  0  0  0  0  0  0  0
  -28.1730  -22.0380   21.0010 C   0  0  0  0  0  2  0  0  0  0  0  0
  -29.3010  -21.5300   20.1830 N   0  0  0  0  0  0  0  0  0  0  0  0
  -32.1420  -19.1110   19.7970 C   0  0  0  0  0  3  0  0  0  0  0  0
  -31.2890  -20.2210   19.8770 C   0  0  0  0  0  3  0  0  0  0  0  0
  -31.6740  -17.8090   20.0100 C   0  0  0  0  0  3  0  0  0  0  0  0
  -29.9140  -20.1430   20.1910 C   0  0  0  0  0  0  0  0  0  0  0  0
  -30.3200  -17.5330   20.3150 C   0  0  0  0  0  0  0  0  0  0  0  0
  -29.4640  -18.7420   20.4130 C   0  0  0  0  0  0  0  0  0  0  0  0
  -28.1550  -18.5450   20.7090 F   0  0  0  0  0  0  0  0  0  0  0  0
  -30.5970  -14.8640   20.3350 C   0  0  0  0  0  0  0  0  0  0  0  0
  -30.3750  -12.5540   19.3730 C   0  0  0  0  0  2  0  0  0  0  0  0
  -29.4470  -12.5770   18.1400 C   0  0  0  0  0  2  0  0  0  0  0  0
  -27.9820  -12.3890   18.5730 C   0  0  0  0  0  2  0  0  0  0  0  0
  -27.5910  -13.3010   19.7670 C   0  0  0  0  0  3  0  0  0  0  0  0
  -28.6500  -13.2860   20.8920 C   0  0  0  0  0  2  0  0  0  0  0  0
  -29.9350  -13.6480   20.2820 N   0  0  0  0  0  0  0  0  0  0  0  0
  -31.7970  -14.8470   20.0550 O   0  0  0  0  0  0  0  0  0  0  0  0
  -29.8960  -16.0810   20.4900 N   0  0  0  0  0  0  0  0  0  0  0  0
  -28.9160  -15.9610   20.6920 H   0  0  0  0  0  0  0  0  0  0  0  0
  -25.2070  -13.8740   20.5060 C   0  0  0  0  0  0  0  0  0  0  0  0
  -24.1440  -13.0960   20.8730 C   0  0  0  0  0  0  0  0  0  0  0  0
  -24.6120  -11.7460   20.8410 C   0  0  0  0  0  0  0  0  0  0  0  0
  -26.2530  -13.0000   20.2660 N   0  0  0  0  0  0  0  0  0  0  0  0
  -25.9040  -11.7130   20.5330 N   0  0  0  0  0  0  0  0  0  0  0  0
  -23.8880  -10.4810   21.0280 C   0  0  0  0  0  0  0  0  0  0  0  0
  -24.3160   -9.5150   21.9660 C   0  0  0  0  0  3  0  0  0  0  0  0
  -23.5910   -8.3170   22.1410 C   0  0  0  0  0  3  0  0  0  0  0  0
  -22.4240   -8.0750   21.3800 C   0  0  0  0  0  0  0  0  0  0  0  0
  -22.0150   -9.0290   20.4310 C   0  0  0  0  0  3  0  0  0  0  0  0
  -22.7410  -10.2180   20.2530 C   0  0  0  0  0  3  0  0  0  0  0  0
  -21.6710   -6.9290   21.4640 O   0  0  0  0  0  0  0  0  0  0  0  0
  -21.6110   -6.1900   22.6190 C   0  0  0  0  0  0  0  0  0  0  0  0
  -21.1610   -6.7460   23.8360 C   0  0  0  0  0  3  0  0  0  0  0  0
  -21.0480   -5.9350   24.9820 C   0  0  0  0  0  3  0  0  0  0  0  0
  -21.3750   -4.5680   24.9130 C   0  0  0  0  0  0  0  0  0  0  0  0
  -21.8180   -4.0100   23.7000 C   0  0  0  0  0  3  0  0  0  0  0  0
  -21.9320   -4.8200   22.5550 C   0  0  0  0  0  0  0  0  0  0  0  0
  -22.3390   -4.2730   21.3850 F   0  0  0  0  0  0  0  0  0  0  0  0
  -21.2600   -3.7860   26.0110 F   0  0  0  0  0  0  0  0  0  0  0  0
  -22.7450  -13.5690   21.1400 C   0  0  0  0  0  0  0  0  0  0  0  0
  -22.0160  -12.8700   22.0040 N   0  0  0  0  0  0  0  0  0  0  0  0
  -22.3070  -14.5930   20.6200 O   0  0  0  0  0  0  0  0  0  0  0  0
  -22.3840  -12.0420   22.4490 H   0  0  0  0  0  0  0  0  0  0  0  0
  -21.0770  -13.1700   22.2250 H   0  0  0  0  0  0  0  0  0  0  0  0
  -25.3640  -15.2450   20.3320 N   0  0  0  0  0  0  0  0  0  0  0  0
  -24.5940  -15.8950   20.4460 H   0  0  0  0  0  0  0  0  0  0  0  0
  -26.2090  -15.6940   20.0000 H   0  0  0  0  0  0  0  0  0  0  0  0
  -27.8790  -24.8980   20.8150 C   0  0  0  0  0  3  0  0  0  0  0  0
  -28.2570  -26.2680   20.2590 O   0  0  0  0  0  0  0  0  0  0  0  0
  -24.6300  -31.8790   23.2590 C   0  0  0  0  0  0  0  0  0  0  0  0
  -27.2140  -27.2400   20.2100 C   0  0  0  0  0  0  0  0  0  0  0  0
  -23.4280  -30.4860   21.6180 C   0  0  0  0  0  3  0  0  0  0  0  0
  -24.8770  -28.9320   20.1840 C   0  0  0  0  0  0  0  0  0  0  0  0
  -25.9760  -30.7760   21.4440 C   0  0  0  0  0  2  0  0  0  0  0  0
  -26.0530  -29.3930   20.7910 C   0  0  0  0  0  0  0  0  0  0  0  0
  -27.2280  -28.5600   20.7920 C   0  0  0  0  0  3  0  0  0  0  0  0
  -26.0230  -26.8740   19.5480 C   0  0  0  0  0  3  0  0  0  0  0  0
  -24.8710  -27.6830   19.5460 C   0  0  0  0  0  3  0  0  0  0  0  0
  -23.6450  -29.8160   20.2360 C   0  0  0  0  0  2  0  0  0  0  0  0
  -24.6980  -31.0670   22.1620 N   0  0  0  0  0  0  0  0  0  0  0  0
  -23.5460  -32.1580   23.7910 O   0  0  0  0  0  0  0  0  0  0  0  0
  -22.7600  -29.4690   22.5770 C   0  0  0  0  0  0  0  0  0  0  0  0
  -21.4330  -29.2920   22.4510 N   0  0  0  0  0  0  0  0  0  0  0  0
  -23.4360  -28.8430   23.3970 O   0  0  0  0  0  0  0  0  0  0  0  0
  -20.9440  -29.8480   21.7630 H   0  0  0  0  0  0  0  0  0  0  0  0
  -18.0550  -28.0880   22.9540 C   0  0  0  0  0  0  0  0  0  0  0  0
  -20.6140  -28.3540   23.2210 C   0  0  0  0  0  3  0  0  0  0  0  0
  -20.7170  -26.9220   22.6460 C   0  0  0  0  0  2  0  0  0  0  0  0
  -19.6160  -26.5970   21.6320 C   0  0  0  0  0  2  0  0  0  0  0  0
  -18.2340  -26.7380   22.2770 C   0  0  0  0  0  2  0  0  0  0  0  0
  -19.1720  -28.8520   23.3830 C   0  0  0  0  0  0  0  0  0  0  0  0
  -18.9500  -30.1130   23.9770 C   0  0  0  0  0  3  0  0  0  0  0  0
  -17.6440  -30.6110   24.1450 C   0  0  0  0  0  3  0  0  0  0  0  0
  -16.5420  -29.8430   23.7320 C   0  0  0  0  0  3  0  0  0  0  0  0
  -16.7480  -28.5840   23.1430 C   0  0  0  0  0  3  0  0  0  0  0  0
  -25.9110  -32.5140   23.8810 C   0  0  0  0  0  3  0  0  0  0  0  0
  -25.5990  -33.9120   24.2160 N   0  0  0  0  0  0  0  0  0  0  0  0
  -25.9200  -34.9690   23.4570 C   0  0  0  0  0  0  0  0  0  0  0  0
  -26.5800  -34.8690   22.4200 O   0  0  0  0  0  0  0  0  0  0  0  0
  -25.0150  -34.0630   25.0250 H   0  0  0  0  0  0  0  0  0  0  0  0
  -24.1840  -36.7610   23.1260 C   0  0  0  0  0  1  0  0  0  0  0  0
  -25.4350  -36.3560   23.9230 C   0  0  0  0  0  3  0  0  0  0  0  0
  -27.5740  -37.2460   24.7360 C   0  0  0  0  0  1  0  0  0  0  0  0
  -26.4640  -37.4110   23.8030 N   0  0  0  0  0  0  0  0  0  0  0  0
  -26.0570  -38.3310   23.9520 H   0  0  0  0  0  0  0  0  0  0  0  0
  -26.4270  -31.7430   25.1580 C   0  0  1  0  0  0  0  0  0  0  0  0
  -25.3340  -31.5080   26.2280 C   0  0  0  0  0  1  0  0  0  0  0  0
  -27.0080  -30.3640   24.7710 C   0  0  0  0  0  1  0  0  0  0  0  0
  -27.5780  -32.5360   25.8210 C   0  0  0  0  0  1  0  0  0  0  0  0
  1  4  1  0
  1  2  1  0
  2 50  2  0
  2  3  1  0
  4  8  1  0
  4  3  1  0
  5  6  2  0
  5  7  1  0
  6  8  1  0
  7  9  2  0
  8 10  2  0
  9 10  1  0
  9 20  1  0
 10 11  1  0
 12 20  1  0
 13 18  1  0
 14 15  1  0
 14 13  1  0
 16 15  1  0
 16 25  1  0
 16 17  1  0
 18 12  1  0
 18 17  1  0
 19 12  2  0
 20 21  1  0
 22 23  2  0
 23 42  1  0
 24 23  1  0
 24 27  1  0
 25 22  1  0
 25 26  1  0
 26 24  2  0
 27 28  1  0
 28 29  2  0
 30 33  1  0
 30 29  1  0
 31 30  2  0
 32 31  1  0
 32 27  2  0
 33 34  1  0
 34 35  1  0
 35 36  2  0
 37 36  1  0
 37 41  1  0
 38 37  2  0
 39 34  2  0
 39 38  1  0
 40 39  1  0
 42 43  1  0
 43 46  1  0
 43 45  1  0
 44 42  2  0
 47 48  1  0
 47 22  1  0
 49 47  1  0
 51 50  1  0
 52 63  2  0
 53 51  1  0
 53 58  1  0
 54 62  1  0
 54 64  1  0
 55 61  1  0
 55 57  1  0
 56 62  1  0
 57 58  2  0
 57 56  1  0
 59 53  2  0
 60 59  1  0
 60 55  2  0
 61 54  1  0
 62 52  1  0
 64 66  2  0
 65 64  1  0
 67 65  1  0
 68 77  2  0
 68 73  1  0
 69 65  1  0
 69 73  1  0
 70 69  1  0
 71 72  1  0
 71 70  1  0
 72 68  1  0
 73 74  2  0
 74 75  1  0
 76 75  2  0
 77 76  1  0
 78 52  1  0
 78 79  1  0
 78 88  1  0
 79 82  1  0
 80 84  1  0
 80 79  1  0
 81 80  2  0
 84 83  1  0
 86 84  1  0
 86 87  1  0
 86 85  1  0
 88 91  1  1
 88 89  1  0
 90 88  1  0
M  ISO  4  12 100  20 100  50 101  51 101
M  END
>  <TORSDO>  (71) 
F 18

>  <SCORE>  (71) 
-14.829

>  <name>  (71) 
70

>  <ligand_id>  (71) 
70

>  <original_smiles>  (71) 
[H]C1=C(C([H])([H])Oc2c([H])c([H])c3c(c2[H])C([H])([H])N(C(=O)C([H])(N([H])C(=O)C([H])(N([H])C([H])([H])[H])C([H])([H])[H])C(C([H])([H])[H])(C([H])([H])[H])C([H])([H])[H])C([H])(C(=O)N([H])C2([H])c4c([H])c([H])c([H])c([H])c4C([H])([H])C([H])([H])C2([H])[H])C3([H])[H])C([H])([H])N1c1c([H])c([H])c([H])c(N([H])C(=O)N2C([H])([H])C([H])([H])C([H])([H])C([H])(n3nc(-c4c([H])c([H])c(Oc5c([H])c([H])c(F)c([H])c5F)c([H])c4[H])c(C(=O)N([H])[H])c3N([H])[H])C2([H])[H])c1F

>  <smiles>  (71) 
[H]C1=C(C([H])([H])Oc2c([H])c([H])c3c(c2[H])C([H])([H])N(C(=O)C([H])(N([H])C(=O)C([H])(N([H])C([H])([H])[H])C([H])([H])[H])C(C([H])([H])[H])(C([H])([H])[H])C([H])([H])[H])C([H])(C(=O)N([H])C2([H])c4c([H])c([H])c([H])c([H])c4C([H])([H])C([H])([H])C2([H])[H])C3([H])[H])C([H])([H])N1c1c([H])c([H])c([H])c(N([H])C(=O)N2C([H])([H])C([H])([H])C([H])([H])C([H])(n3nc(-c4c([H])c([H])c(Oc5c([H])c([H])c(F)c([H])c5F)c([H])c4[H])c(C(=O)N([H])[H])c3N([H])[H])C2([H])[H])c1F

$$$$
71:0:0
     RDKit          3D

 96104  0  0  1  0  0  0  0  0999 V2000
  -30.3300  -21.6840   20.5760 C   0  0  0  0  0  0  0  0  0  0  0  0
  -29.4520  -24.1290   20.4900 C   0  0  0  0  0  0  0  0  0  0  0  0
  -29.3370  -22.6410   20.5050 N   0  0  0  0  0  0  0  0  0  0  0  0
  -31.6020  -22.1000   20.5750 N   0  0  0  0  0  4  0  0  0  0  0  0
  -30.5370  -24.6890   20.6920 O   0  0  0  0  0  0  0  0  0  0  0  0
  -28.4310  -22.2130   20.4040 H   0  0  0  0  0  0  0  0  0  0  0  0
  -32.3610  -21.4390   20.5290 H   0  0  0  0  0  0  0  0  0  0  0  0
  -31.7960  -23.0930   20.6100 H   0  0  0  0  0  0  0  0  0  0  0  0
  -29.0470  -19.4660   20.0670 C   0  0  0  0  0  3  0  0  0  0  0  0
  -31.1310  -19.3300   21.2510 C   0  0  0  0  0  3  0  0  0  0  0  0
  -28.9590  -18.0360   20.1000 C   0  0  0  0  0  3  0  0  0  0  0  0
  -31.0590  -17.9010   21.2550 C   0  0  0  0  0  3  0  0  0  0  0  0
  -30.1420  -20.1650   20.6420 C   0  0  0  0  0  0  0  0  0  0  0  0
  -29.9680  -17.2070   20.6730 C   0  0  0  0  0  0  0  0  0  0  0  0
  -30.5930  -14.6950   20.4300 C   0  0  0  0  0  0  0  0  0  0  0  0
  -30.3820  -12.4590   19.3510 C   0  0  0  0  0  2  0  0  0  0  0  0
  -29.4240  -12.5780   18.1420 C   0  0  0  0  0  2  0  0  0  0  0  0
  -27.9580  -12.3990   18.5820 C   0  0  0  0  0  2  0  0  0  0  0  0
  -27.6000  -13.2630   19.8190 C   0  0  0  0  0  3  0  0  0  0  0  0
  -28.6690  -13.1220   20.9290 C   0  0  0  0  0  2  0  0  0  0  0  0
  -29.9720  -13.4730   20.3420 N   0  0  0  0  0  0  0  0  0  0  0  0
  -31.7610  -14.8480   20.0590 O   0  0  0  0  0  0  0  0  0  0  0  0
  -29.7790  -15.7540   20.7470 N   0  0  0  0  0  0  0  0  0  0  0  0
  -28.8290  -15.4670   20.9140 H   0  0  0  0  0  0  0  0  0  0  0  0
  -25.2110  -13.8500   20.5570 C   0  0  0  0  0  0  0  0  0  0  0  0
  -24.1490  -13.0730   20.9300 C   0  0  0  0  0  0  0  0  0  0  0  0
  -24.6140  -11.7230   20.8900 C   0  0  0  0  0  0  0  0  0  0  0  0
  -26.2560  -12.9740   20.3120 N   0  0  0  0  0  0  0  0  0  0  0  0
  -25.9040  -11.6900   20.5740 N   0  0  0  0  0  0  0  0  0  0  0  0
  -23.8920  -10.4580   21.0770 C   0  0  0  0  0  0  0  0  0  0  0  0
  -24.3380   -9.4820   21.9960 C   0  0  0  0  0  3  0  0  0  0  0  0
  -23.6150   -8.2820   22.1720 C   0  0  0  0  0  3  0  0  0  0  0  0
  -22.4330   -8.0490   21.4300 C   0  0  0  0  0  0  0  0  0  0  0  0
  -22.0050   -9.0150   20.5020 C   0  0  0  0  0  3  0  0  0  0  0  0
  -22.7270  -10.2070   20.3240 C   0  0  0  0  0  3  0  0  0  0  0  0
  -21.6820   -6.9030   21.5170 O   0  0  0  0  0  0  0  0  0  0  0  0
  -21.6540   -6.1450   22.6600 C   0  0  0  0  0  0  0  0  0  0  0  0
  -21.2440   -6.6820   23.9000 C   0  0  0  0  0  3  0  0  0  0  0  0
  -21.1650   -5.8500   25.0350 C   0  0  0  0  0  3  0  0  0  0  0  0
  -21.4840   -4.4840   24.9310 C   0  0  0  0  0  0  0  0  0  0  0  0
  -21.8870   -3.9460   23.6960 C   0  0  0  0  0  3  0  0  0  0  0  0
  -21.9700   -4.7750   22.5630 C   0  0  0  0  0  0  0  0  0  0  0  0
  -22.3370   -4.2470   21.3700 F   0  0  0  0  0  0  0  0  0  0  0  0
  -21.4000   -3.6820   26.0190 F   0  0  0  0  0  0  0  0  0  0  0  0
  -22.7520  -13.5470   21.2110 C   0  0  0  0  0  0  0  0  0  0  0  0
  -22.0340  -12.8470   22.0830 N   0  0  0  0  0  0  0  0  0  0  0  0
  -22.3070  -14.5710   20.6960 O   0  0  0  0  0  0  0  0  0  0  0  0
  -22.4070  -12.0190   22.5210 H   0  0  0  0  0  0  0  0  0  0  0  0
  -21.0970  -13.1450   22.3170 H   0  0  0  0  0  0  0  0  0  0  0  0
  -25.3700  -15.2220   20.3850 N   0  0  0  0  0  0  0  0  0  0  0  0
  -24.5930  -15.8670   20.4900 H   0  0  0  0  0  0  0  0  0  0  0  0
  -26.1990  -15.6630   20.0100 H   0  0  0  0  0  0  0  0  0  0  0  0
  -27.8280  -24.6120   18.6650 C   0  0  0  0  0  1  0  0  0  0  0  0
  -27.0710  -24.4880   21.1600 C   0  0  0  0  0  1  0  0  0  0  0  0
  -28.1460  -24.9660   20.1440 C   0  0  1  0  0  0  0  0  0  0  0  0
  -28.3080  -26.4620   20.2650 O   0  0  0  0  0  0  0  0  0  0  0  0
  -24.6160  -31.9130   23.2590 C   0  0  0  0  0  0  0  0  0  0  0  0
  -27.1990  -27.3420   20.1860 C   0  0  0  0  0  0  0  0  0  0  0  0
  -23.4040  -30.5340   21.6130 C   0  0  0  0  0  3  0  0  0  0  0  0
  -24.8470  -28.9950   20.1790 C   0  0  0  0  0  0  0  0  0  0  0  0
  -25.9510  -30.8320   21.4390 C   0  0  0  0  0  2  0  0  0  0  0  0
  -26.0210  -29.4590   20.7830 C   0  0  0  0  0  0  0  0  0  0  0  0
  -27.1980  -28.6460   20.7800 C   0  0  0  0  0  3  0  0  0  0  0  0
  -25.9970  -26.9630   19.5380 C   0  0  0  0  0  3  0  0  0  0  0  0
  -24.8380  -27.7500   19.5470 C   0  0  0  0  0  3  0  0  0  0  0  0
  -23.6130  -29.8690   20.2300 C   0  0  0  0  0  2  0  0  0  0  0  0
  -24.6750  -31.1090   22.1590 N   0  0  0  0  0  0  0  0  0  0  0  0
  -23.5340  -32.1970   23.7930 O   0  0  0  0  0  0  0  0  0  0  0  0
  -22.7330  -29.5140   22.5640 C   0  0  0  0  0  0  0  0  0  0  0  0
  -21.4060  -29.3450   22.4330 N   0  0  0  0  0  0  0  0  0  0  0  0
  -23.4050  -28.8790   23.3810 O   0  0  0  0  0  0  0  0  0  0  0  0
  -20.9240  -29.9060   21.7430 H   0  0  0  0  0  0  0  0  0  0  0  0
  -18.0170  -28.1760   22.9200 C   0  0  0  0  0  0  0  0  0  0  0  0
  -20.5760  -28.4130   23.1990 C   0  0  0  0  0  3  0  0  0  0  0  0
  -20.6670  -26.9820   22.6200 C   0  0  0  0  0  2  0  0  0  0  0  0
  -19.5660  -26.6730   21.6000 C   0  0  0  0  0  2  0  0  0  0  0  0
  -18.1850  -26.8270   22.2420 C   0  0  0  0  0  2  0  0  0  0  0  0
  -19.1410  -28.9280   23.3550 C   0  0  0  0  0  0  0  0  0  0  0  0
  -18.9300  -30.1920   23.9490 C   0  0  0  0  0  3  0  0  0  0  0  0
  -17.6280  -30.7030   24.1120 C   0  0  0  0  0  3  0  0  0  0  0  0
  -16.5200  -29.9470   23.6930 C   0  0  0  0  0  3  0  0  0  0  0  0
  -16.7150  -28.6860   23.1040 C   0  0  0  0  0  3  0  0  0  0  0  0
  -25.9030  -32.5320   23.8850 C   0  0  0  0  0  3  0  0  0  0  0  0
  -25.6010  -33.9290   24.2240 N   0  0  0  0  0  0  0  0  0  0  0  0
  -25.9180  -34.9820   23.4590 C   0  0  0  0  0  0  0  0  0  0  0  0
  -26.5650  -34.8790   22.4120 O   0  0  0  0  0  0  0  0  0  0  0  0
  -25.0160  -34.0820   25.0320 H   0  0  0  0  0  0  0  0  0  0  0  0
  -24.1710  -36.7700   23.1650 C   0  0  0  0  0  1  0  0  0  0  0  0
  -25.4450  -36.3710   23.9280 C   0  0  0  0  0  3  0  0  0  0  0  0
  -27.6060  -37.2680   24.6760 C   0  0  0  0  0  1  0  0  0  0  0  0
  -26.4700  -37.4260   23.7720 N   0  0  0  0  0  0  0  0  0  0  0  0
  -26.0660  -38.3460   23.9260 H   0  0  0  0  0  0  0  0  0  0  0  0
  -26.4140  -31.7470   25.1560 C   0  0  1  0  0  0  0  0  0  0  0  0
  -25.3190  -31.5100   26.2220 C   0  0  0  0  0  1  0  0  0  0  0  0
  -26.9860  -30.3660   24.7580 C   0  0  0  0  0  1  0  0  0  0  0  0
  -27.5690  -32.5280   25.8230 C   0  0  0  0  0  1  0  0  0  0  0  0
  1 13  1  0
  2  3  1  0
  2  5  2  0
  3  1  1  0
  4  1  2  0
  4  8  1  0
  6  3  1  0
  7  4  1  0
  9 11  2  0
  9 13  1  0
 10 12  1  0
 11 14  1  0
 13 10  2  0
 14 23  1  0
 14 12  2  0
 15 23  1  0
 16 21  1  0
 17 18  1  0
 17 16  1  0
 19 18  1  0
 19 28  1  0
 19 20  1  0
 21 15  1  0
 21 20  1  0
 22 15  2  0
 23 24  1  0
 25 26  2  0
 26 45  1  0
 27 26  1  0
 27 30  1  0
 28 25  1  0
 28 29  1  0
 29 27  2  0
 30 31  1  0
 31 32  2  0
 33 36  1  0
 33 32  1  0
 34 33  2  0
 35 34  1  0
 35 30  2  0
 36 37  1  0
 37 38  1  0
 38 39  2  0
 40 39  1  0
 40 44  1  0
 41 40  2  0
 42 37  2  0
 42 41  1  0
 43 42  1  0
 45 46  1  0
 46 49  1  0
 46 48  1  0
 47 45  2  0
 50 51  1  0
 50 25  1  0
 52 50  1  0
 55 53  1  6
 55 56  1  0
 55  2  1  0
 55 54  1  0
 57 68  2  0
 58 56  1  0
 58 63  1  0
 59 67  1  0
 59 69  1  0
 60 66  1  0
 60 62  1  0
 61 67  1  0
 62 61  1  0
 63 62  2  0
 64 65  1  0
 64 58  2  0
 65 60  2  0
 66 59  1  0
 67 57  1  0
 69 71  2  0
 70 69  1  0
 72 70  1  0
 73 82  2  0
 73 78  1  0
 74 70  1  0
 74 78  1  0
 75 74  1  0
 76 77  1  0
 76 75  1  0
 77 73  1  0
 78 79  2  0
 79 80  1  0
 81 80  2  0
 82 81  1  0
 83 57  1  0
 83 84  1  0
 83 93  1  0
 84 87  1  0
 85 89  1  0
 85 84  1  0
 86 85  2  0
 89 88  1  0
 91 92  1  0
 91 89  1  0
 91 90  1  0
 93 96  1  1
 93 94  1  0
 95 93  1  0
M  ISO  4  15 100  23 100  55 101  56 101
M  END
>  <TORSDO>  (72) 
F 18

>  <SCORE>  (72) 
-15.093

>  <name>  (72) 
71

>  <ligand_id>  (72) 
71

>  <original_smiles>  (72) 
[H]c1c([H])c([H])c2c(c1[H])C([H])([H])C([H])([H])C([H])([H])C2([H])N([H])C(=O)C1([H])N(C(=O)C([H])(N([H])C(=O)C([H])(N([H])C([H])([H])[H])C([H])([H])[H])C(C([H])([H])[H])(C([H])([H])[H])C([H])([H])[H])C([H])([H])c2c([H])c(OC(C(=O)N([H])C(c3c([H])c([H])c(N([H])C(=O)N4C([H])([H])C([H])([H])C([H])([H])C([H])(n5nc(-c6c([H])c([H])c(Oc7c([H])c([H])c(F)c([H])c7F)c([H])c6[H])c(C(=O)N([H])[H])c5N([H])[H])C4([H])[H])c([H])c3[H])=[N+]([H])[H])(C([H])([H])[H])C([H])([H])[H])c([H])c([H])c2C1([H])[H]

>  <smiles>  (72) 
[H]c1c([H])c([H])c2c(c1[H])C([H])([H])C([H])([H])C([H])([H])C2([H])N([H])C(=O)C1([H])N(C(=O)C([H])(N([H])C(=O)C([H])(N([H])C([H])([H])[H])C([H])([H])[H])C(C([H])([H])[H])(C([H])([H])[H])C([H])([H])[H])C([H])([H])c2c([H])c(OC(C(=O)N([H])C(c3c([H])c([H])c(N([H])C(=O)N4C([H])([H])C([H])([H])C([H])([H])C([H])(n5nc(-c6c([H])c([H])c(Oc7c([H])c([H])c(F)c([H])c7F)c([H])c6[H])c(C(=O)N([H])[H])c5N([H])[H])C4([H])[H])c([H])c3[H])=[N+]([H])[H])(C([H])([H])[H])C([H])([H])[H])c([H])c([H])c2C1([H])[H]

$$$$
72:0:0
     RDKit          3D

 94103  0  0  1  0  0  0  0  0999 V2000
  -29.2690  -22.9490   19.5620 C   0  0  0  0  0  3  0  0  0  0  0  0
  -28.6910  -24.1560   19.9320 C   0  0  0  0  0  0  0  0  0  0  0  0
  -27.2460  -22.7700   21.4600 C   0  0  0  0  0  0  0  0  0  0  0  0
  -25.9540  -22.5860   21.7770 C   0  0  0  0  0  2  0  0  0  0  0  0
  -27.8040  -24.1660   21.1660 C   0  0  0  0  0  2  0  0  0  0  0  0
  -28.2080  -21.5800   21.3380 C   0  0  0  0  0  2  0  0  0  0  0  0
  -29.1240  -21.6530   20.1960 N   0  0  0  0  0  0  0  0  0  0  0  0
  -31.0680  -20.5330   19.1880 C   0  0  0  0  0  3  0  0  0  0  0  0
  -31.5790  -18.1370   19.3790 C   0  0  0  0  0  3  0  0  0  0  0  0
  -29.6010  -19.0560   20.4370 C   0  0  0  0  0  3  0  0  0  0  0  0
  -31.8960  -19.4260   18.9100 C   0  0  0  0  0  0  0  0  0  0  0  0
  -29.8880  -20.4180   19.9570 C   0  0  0  0  0  0  0  0  0  0  0  0
  -30.4280  -17.8780   20.1600 C   0  0  0  0  0  0  0  0  0  0  0  0
  -33.1530  -19.6150   18.0820 C   0  0  0  0  0  1  0  0  0  0  0  0
  -30.8900  -15.2950   20.5230 C   0  0  0  0  0  0  0  0  0  0  0  0
  -30.7580  -12.9420   19.6930 C   0  0  0  0  0  2  0  0  0  0  0  0
  -29.9150  -12.9130   18.4000 C   0  0  0  0  0  2  0  0  0  0  0  0
  -28.4210  -12.7510   18.7380 C   0  0  0  0  0  2  0  0  0  0  0  0
  -27.9530  -13.7180   19.8570 C   0  0  0  0  0  3  0  0  0  0  0  0
  -28.9300  -13.7480   21.0530 C   0  0  0  0  0  2  0  0  0  0  0  0
  -30.2600  -14.0670   20.5220 N   0  0  0  0  0  0  0  0  0  0  0  0
  -32.1050  -15.3240   20.3110 O   0  0  0  0  0  0  0  0  0  0  0  0
  -30.1260  -16.4660   20.5850 N   0  0  0  0  0  0  0  0  0  0  0  0
  -29.1710  -16.3030   20.8660 H   0  0  0  0  0  0  0  0  0  0  0  0
  -25.5310  -14.3230   20.4400 C   0  0  0  0  0  0  0  0  0  0  0  0
  -24.4440  -13.5570   20.7600 C   0  0  0  0  0  0  0  0  0  0  0  0
  -24.9040  -12.2050   20.7790 C   0  0  0  0  0  0  0  0  0  0  0  0
  -26.5830  -13.4380   20.2780 N   0  0  0  0  0  0  0  0  0  0  0  0
  -26.2100  -12.1590   20.5470 N   0  0  0  0  0  0  0  0  0  0  0  0
  -24.1620  -10.9470   20.9450 C   0  0  0  0  0  0  0  0  0  0  0  0
  -24.5450   -9.9840   21.9030 C   0  0  0  0  0  3  0  0  0  0  0  0
  -23.8020   -8.7920   22.0570 C   0  0  0  0  0  3  0  0  0  0  0  0
  -22.6620   -8.5580   21.2530 C   0  0  0  0  0  0  0  0  0  0  0  0
  -22.2980   -9.5110   20.2850 C   0  0  0  0  0  3  0  0  0  0  0  0
  -23.0410  -10.6920   20.1290 C   0  0  0  0  0  3  0  0  0  0  0  0
  -21.8940   -7.4200   21.3150 O   0  0  0  0  0  0  0  0  0  0  0  0
  -21.8170   -6.6650   22.4580 C   0  0  0  0  0  0  0  0  0  0  0  0
  -21.3560   -7.2070   23.6790 C   0  0  0  0  0  3  0  0  0  0  0  0
  -21.2270   -6.3780   24.8120 C   0  0  0  0  0  3  0  0  0  0  0  0
  -21.5490   -5.0100   24.7250 C   0  0  0  0  0  0  0  0  0  0  0  0
  -22.0040   -4.4690   23.5100 C   0  0  0  0  0  3  0  0  0  0  0  0
  -22.1340   -5.2940   22.3790 C   0  0  0  0  0  0  0  0  0  0  0  0
  -22.5520   -4.7630   21.2040 F   0  0  0  0  0  0  0  0  0  0  0  0
  -21.4190   -4.2120   25.8110 F   0  0  0  0  0  0  0  0  0  0  0  0
  -23.0350  -14.0440   20.9430 C   0  0  0  0  0  0  0  0  0  0  0  0
  -22.2590  -13.3660   21.7820 N   0  0  0  0  0  0  0  0  0  0  0  0
  -22.6310  -15.0580   20.3770 O   0  0  0  0  0  0  0  0  0  0  0  0
  -22.5990  -12.5440   22.2590 H   0  0  0  0  0  0  0  0  0  0  0  0
  -21.3130  -13.6740   21.9520 H   0  0  0  0  0  0  0  0  0  0  0  0
  -25.7120  -15.6900   20.2470 N   0  0  0  0  0  0  0  0  0  0  0  0
  -24.9370  -16.3440   20.2830 H   0  0  0  0  0  0  0  0  0  0  0  0
  -26.5710  -16.1140   19.9240 H   0  0  0  0  0  0  0  0  0  0  0  0
  -28.7780  -25.5270   19.1070 C   0  0  0  0  0  2  0  0  0  0  0  0
  -28.6460  -26.8880   19.7440 O   0  0  0  0  0  0  0  0  0  0  0  0
  -24.5970  -31.8880   23.0880 C   0  0  0  0  0  0  0  0  0  0  0  0
  -27.4740  -27.6850   19.7130 C   0  0  0  0  0  0  0  0  0  0  0  0
  -23.4750  -30.5280   21.3610 C   0  0  0  0  0  3  0  0  0  0  0  0
  -25.0120  -29.1750   19.8200 C   0  0  0  0  0  0  0  0  0  0  0  0
  -25.9900  -31.0140   21.1910 C   0  0  0  0  0  2  0  0  0  0  0  0
  -26.1530  -29.6860   20.4490 C   0  0  0  0  0  0  0  0  0  0  0  0
  -27.3810  -28.9510   20.3870 C   0  0  0  0  0  3  0  0  0  0  0  0
  -26.2990  -27.2350   19.0710 C   0  0  0  0  0  3  0  0  0  0  0  0
  -25.0910  -27.9610   19.1210 C   0  0  0  0  0  3  0  0  0  0  0  0
  -23.7210  -29.9630   19.9350 C   0  0  0  0  0  2  0  0  0  0  0  0
  -24.7060  -31.1600   21.9370 N   0  0  0  0  0  0  0  0  0  0  0  0
  -23.5010  -32.0530   23.6470 O   0  0  0  0  0  0  0  0  0  0  0  0
  -22.8900  -29.4070   22.2530 C   0  0  0  0  0  0  0  0  0  0  0  0
  -21.5730  -29.1620   22.1350 N   0  0  0  0  0  0  0  0  0  0  0  0
  -23.6190  -28.7630   23.0140 O   0  0  0  0  0  0  0  0  0  0  0  0
  -21.0400  -29.7380   21.5000 H   0  0  0  0  0  0  0  0  0  0  0  0
  -18.2780  -27.7420   22.6120 C   0  0  0  0  0  0  0  0  0  0  0  0
  -20.8250  -28.1230   22.8470 C   0  0  0  0  0  3  0  0  0  0  0  0
  -20.9880  -26.7490   22.1590 C   0  0  0  0  0  2  0  0  0  0  0  0
  -19.8810  -26.4430   21.1450 C   0  0  0  0  0  2  0  0  0  0  0  0
  -18.5090  -26.4630   21.8260 C   0  0  0  0  0  2  0  0  0  0  0  0
  -19.3650  -28.5300   23.0770 C   0  0  0  0  0  0  0  0  0  0  0  0
  -19.0930  -29.7280   23.7730 C   0  0  0  0  0  3  0  0  0  0  0  0
  -17.7670  -30.1400   24.0070 C   0  0  0  0  0  3  0  0  0  0  0  0
  -16.6960  -29.3480   23.5570 C   0  0  0  0  0  3  0  0  0  0  0  0
  -16.9520  -28.1510   22.8670 C   0  0  0  0  0  3  0  0  0  0  0  0
  -25.8390  -32.5650   23.7470 C   0  0  0  0  0  3  0  0  0  0  0  0
  -25.4490  -33.9280   24.1390 N   0  0  0  0  0  0  0  0  0  0  0  0
  -25.7180  -35.0320   23.4290 C   0  0  0  0  0  0  0  0  0  0  0  0
  -26.3910  -35.0150   22.3960 O   0  0  0  0  0  0  0  0  0  0  0  0
  -24.8540  -34.0120   24.9500 H   0  0  0  0  0  0  0  0  0  0  0  0
  -23.8840  -36.7350   23.1650 C   0  0  0  0  0  1  0  0  0  0  0  0
  -25.1520  -36.3680   23.9520 C   0  0  0  0  0  3  0  0  0  0  0  0
  -27.2370  -37.3400   24.8110 C   0  0  0  0  0  1  0  0  0  0  0  0
  -26.1180  -37.4860   23.8830 N   0  0  0  0  0  0  0  0  0  0  0  0
  -25.6580  -38.3710   24.0790 H   0  0  0  0  0  0  0  0  0  0  0  0
  -26.3930  -31.7700   24.9940 C   0  0  1  0  0  0  0  0  0  0  0  0
  -25.3110  -31.4330   26.0470 C   0  0  0  0  0  1  0  0  0  0  0  0
  -27.0500  -30.4450   24.5500 C   0  0  0  0  0  1  0  0  0  0  0  0
  -27.4970  -32.5990   25.6920 C   0  0  0  0  0  1  0  0  0  0  0  0
  1  2  2  0
  1  7  1  0
  2  5  1  0
  3  4  2  0
  5  3  1  0
  6  3  1  0
  7  6  1  0
  8 12  1  0
  9 13  2  0
 11  8  2  0
 11  9  1  0
 12  7  1  0
 12 10  2  0
 13 10  1  0
 13 23  1  0
 14 11  1  0
 15 23  1  0
 16 21  1  0
 17 18  1  0
 17 16  1  0
 19 18  1  0
 19 28  1  0
 19 20  1  0
 21 15  1  0
 21 20  1  0
 22 15  2  0
 23 24  1  0
 25 26  2  0
 26 27  1  0
 26 45  1  0
 27 30  1  0
 28 25  1  0
 28 29  1  0
 29 27  2  0
 30 31  1  0
 31 32  2  0
 33 36  1  0
 33 32  1  0
 34 33  2  0
 35 34  1  0
 35 30  2  0
 36 37  1  0
 37 38  1  0
 38 39  2  0
 40 39  1  0
 40 44  1  0
 41 40  2  0
 42 37  2  0
 42 41  1  0
 43 42  1  0
 45 46  1  0
 46 49  1  0
 46 48  1  0
 47 45  2  0
 50 51  1  0
 50 25  1  0
 52 50  1  0
 53 54  1  0
 53  2  1  0
 55 66  2  0
 56 54  1  0
 56 61  1  0
 57 65  1  0
 57 67  1  0
 58 64  1  0
 58 60  1  0
 59 65  1  0
 60 59  1  0
 61 60  2  0
 62 63  1  0
 62 56  2  0
 63 58  2  0
 64 57  1  0
 65 55  1  0
 67 69  2  0
 68 67  1  0
 70 68  1  0
 71 80  2  0
 71 76  1  0
 72 68  1  0
 72 76  1  0
 73 72  1  0
 74 75  1  0
 74 73  1  0
 75 71  1  0
 76 77  2  0
 77 78  1  0
 79 78  2  0
 80 79  1  0
 81 55  1  0
 81 82  1  0
 81 91  1  0
 82 85  1  0
 83 87  1  0
 83 82  1  0
 84 83  2  0
 87 86  1  0
 89 87  1  0
 89 90  1  0
 89 88  1  0
 91 94  1  1
 91 92  1  0
 93 91  1  0
M  ISO  4  15 100  23 100  53 101  54 101
M  END
>  <TORSDO>  (73) 
F 18

>  <SCORE>  (73) 
-12.837

>  <name>  (73) 
72

>  <ligand_id>  (73) 
72

>  <original_smiles>  (73) 
[H]C([H])=C1C([H])([H])C(C([H])([H])Oc2c([H])c([H])c3c(c2[H])C([H])([H])N(C(=O)C([H])(N([H])C(=O)C([H])(N([H])C([H])([H])[H])C([H])([H])[H])C(C([H])([H])[H])(C([H])([H])[H])C([H])([H])[H])C([H])(C(=O)N([H])C2([H])c4c([H])c([H])c([H])c([H])c4C([H])([H])C([H])([H])C2([H])[H])C3([H])[H])=C([H])N(c2c([H])c(N([H])C(=O)N3C([H])([H])C([H])([H])C([H])([H])C([H])(n4nc(-c5c([H])c([H])c(Oc6c([H])c([H])c(F)c([H])c6F)c([H])c5[H])c(C(=O)N([H])[H])c4N([H])[H])C3([H])[H])c([H])c(C([H])([H])[H])c2[H])C1([H])[H]

>  <smiles>  (73) 
[H]C([H])=C1C([H])([H])C(C([H])([H])Oc2c([H])c([H])c3c(c2[H])C([H])([H])N(C(=O)C([H])(N([H])C(=O)C([H])(N([H])C([H])([H])[H])C([H])([H])[H])C(C([H])([H])[H])(C([H])([H])[H])C([H])([H])[H])C([H])(C(=O)N([H])C2([H])c4c([H])c([H])c([H])c([H])c4C([H])([H])C([H])([H])C2([H])[H])C3([H])[H])=C([H])N(c2c([H])c(N([H])C(=O)N3C([H])([H])C([H])([H])C([H])([H])C([H])(n4nc(-c5c([H])c([H])c(Oc6c([H])c([H])c(F)c([H])c6F)c([H])c5[H])c(C(=O)N([H])[H])c4N([H])[H])C3([H])[H])c([H])c(C([H])([H])[H])c2[H])C1([H])[H]

$$$$
73:0:0
     RDKit          3D

 98107  0  0  1  0  0  0  0  0999 V2000
  -30.3000  -19.6930   19.0440 C   0  0  0  0  0  3  0  0  0  0  0  0
  -30.5140  -18.2810   19.2590 C   0  0  0  0  0  3  0  0  0  0  0  0
  -29.8940  -19.9960   21.3310 C   0  0  0  0  0  3  0  0  0  0  0  0
  -30.0050  -20.6510   20.0690 C   0  0  0  0  0  0  0  0  0  0  0  0
  -30.4620  -17.6650   20.5430 C   0  0  0  0  0  0  0  0  0  0  0  0
  -30.1060  -18.5950   21.5800 C   0  0  0  0  0  0  0  0  0  0  0  0
  -31.2990  -15.2570   19.9630 C   0  0  0  0  0  0  0  0  0  0  0  0
  -31.0300  -13.0160   18.8700 C   0  0  0  0  0  2  0  0  0  0  0  0
  -30.0300  -13.0960   17.6960 C   0  0  0  0  0  2  0  0  0  0  0  0
  -28.5890  -12.8900   18.1980 C   0  0  0  0  0  2  0  0  0  0  0  0
  -28.2690  -13.7660   19.4370 C   0  0  0  0  0  3  0  0  0  0  0  0
  -29.3770  -13.6660   20.5060 C   0  0  0  0  0  2  0  0  0  0  0  0
  -30.6540  -14.0410   19.8740 N   0  0  0  0  0  0  0  0  0  0  0  0
  -32.3490  -15.4400   19.3380 O   0  0  0  0  0  0  0  0  0  0  0  0
  -31.2060  -15.9180   22.2180 C   0  0  0  0  0  1  0  0  0  0  0  0
  -30.8150  -16.2300   20.8270 N   0  0  0  0  0  0  0  0  0  0  0  0
  -25.9230  -14.3260   20.3150 C   0  0  0  0  0  0  0  0  0  0  0  0
  -24.8820  -13.5360   20.7230 C   0  0  0  0  0  0  0  0  0  0  0  0
  -25.3470  -12.1890   20.6270 C   0  0  0  0  0  0  0  0  0  0  0  0
  -26.9540  -13.4590   19.9920 N   0  0  0  0  0  0  0  0  0  0  0  0
  -26.6170  -12.1670   20.2420 N   0  0  0  0  0  0  0  0  0  0  0  0
  -24.6370  -10.9180   20.8240 C   0  0  0  0  0  0  0  0  0  0  0  0
  -25.0320   -9.9970   21.8200 C   0  0  0  0  0  3  0  0  0  0  0  0
  -24.3220   -8.7910   22.0020 C   0  0  0  0  0  3  0  0  0  0  0  0
  -23.2030   -8.4960   21.1870 C   0  0  0  0  0  0  0  0  0  0  0  0
  -22.8280   -9.4050   20.1820 C   0  0  0  0  0  3  0  0  0  0  0  0
  -23.5380  -10.6030   19.9990 C   0  0  0  0  0  3  0  0  0  0  0  0
  -22.4690   -7.3380   21.2750 O   0  0  0  0  0  0  0  0  0  0  0  0
  -22.1190   -6.7980   22.4870 C   0  0  0  0  0  0  0  0  0  0  0  0
  -21.3870   -7.5300   23.4460 C   0  0  0  0  0  3  0  0  0  0  0  0
  -20.9890   -6.9130   24.6490 C   0  0  0  0  0  3  0  0  0  0  0  0
  -21.3120   -5.5650   24.8900 C   0  0  0  0  0  0  0  0  0  0  0  0
  -22.0360   -4.8320   23.9330 C   0  0  0  0  0  3  0  0  0  0  0  0
  -22.4350   -5.4460   22.7340 C   0  0  0  0  0  0  0  0  0  0  0  0
  -23.1150   -4.7290   21.8060 F   0  0  0  0  0  0  0  0  0  0  0  0
  -20.9220   -4.9700   26.0420 F   0  0  0  0  0  0  0  0  0  0  0  0
  -23.5010  -13.9980   21.0880 C   0  0  0  0  0  0  0  0  0  0  0  0
  -22.8420  -13.3000   22.0060 N   0  0  0  0  0  0  0  0  0  0  0  0
  -23.0150  -15.0150   20.5930 O   0  0  0  0  0  0  0  0  0  0  0  0
  -23.2510  -12.4770   22.4260 H   0  0  0  0  0  0  0  0  0  0  0  0
  -21.9190  -13.5900   22.2940 H   0  0  0  0  0  0  0  0  0  0  0  0
  -26.0740  -15.7010   20.1700 N   0  0  0  0  0  0  0  0  0  0  0  0
  -25.3090  -16.3480   20.3320 H   0  0  0  0  0  0  0  0  0  0  0  0
  -26.8960  -16.1500   19.7860 H   0  0  0  0  0  0  0  0  0  0  0  0
  -29.9100  -23.0260   18.7980 C   0  0  0  0  0  0  0  0  0  0  0  0
  -29.3940  -23.1770   20.7460 C   0  0  0  0  0  0  0  0  0  0  0  0
  -29.8310  -24.2920   19.7320 C   0  0  0  0  0  3  0  0  0  0  0  0
  -29.8370  -22.1270   19.8950 N   0  0  0  0  0  0  0  0  0  0  0  0
  -30.0210  -22.8200   17.6050 O   0  0  0  0  0  0  0  0  0  0  0  0
  -28.8960  -23.1500   21.8540 O   0  0  0  0  0  0  0  0  0  0  0  0
  -28.7700  -25.4580   19.3840 C   0  0  0  0  0  2  0  0  0  0  0  0
  -28.8910  -26.8720   19.8990 O   0  0  0  0  0  0  0  0  0  0  0  0
  -24.7290  -31.7260   23.3360 C   0  0  0  0  0  0  0  0  0  0  0  0
  -27.7520  -27.7160   19.8710 C   0  0  0  0  0  0  0  0  0  0  0  0
  -23.7030  -30.5200   21.4450 C   0  0  0  0  0  3  0  0  0  0  0  0
  -25.3170  -29.2440   19.9190 C   0  0  0  0  0  0  0  0  0  0  0  0
  -26.2340  -30.9590   21.4800 C   0  0  0  0  0  2  0  0  0  0  0  0
  -26.4230  -29.6850   20.6560 C   0  0  0  0  0  0  0  0  0  0  0  0
  -27.6430  -28.9350   20.6220 C   0  0  0  0  0  3  0  0  0  0  0  0
  -26.6190  -27.3510   19.1060 C   0  0  0  0  0  3  0  0  0  0  0  0
  -25.4210  -28.0880   19.1340 C   0  0  0  0  0  3  0  0  0  0  0  0
  -24.0360  -30.0530   20.0040 C   0  0  0  0  0  2  0  0  0  0  0  0
  -24.9030  -31.0790   22.1460 N   0  0  0  0  0  0  0  0  0  0  0  0
  -23.6020  -31.8800   23.8290 O   0  0  0  0  0  0  0  0  0  0  0  0
  -23.0340  -29.3520   22.2110 C   0  0  0  0  0  0  0  0  0  0  0  0
  -21.7050  -29.2120   22.0650 N   0  0  0  0  0  0  0  0  0  0  0  0
  -23.7110  -28.5800   22.8960 O   0  0  0  0  0  0  0  0  0  0  0  0
  -21.2190  -29.8890   21.4920 H   0  0  0  0  0  0  0  0  0  0  0  0
  -18.3040  -28.0500   22.4780 C   0  0  0  0  0  0  0  0  0  0  0  0
  -20.8810  -28.1590   22.6600 C   0  0  0  0  0  3  0  0  0  0  0  0
  -20.8930  -26.8830   21.7870 C   0  0  0  0  0  2  0  0  0  0  0  0
  -19.7340  -26.8250   20.7880 C   0  0  0  0  0  2  0  0  0  0  0  0
  -18.3900  -26.8720   21.5220 C   0  0  0  0  0  2  0  0  0  0  0  0
  -19.4730  -28.6630   23.0010 C   0  0  0  0  0  0  0  0  0  0  0  0
  -19.3380  -29.7750   23.8600 C   0  0  0  0  0  3  0  0  0  0  0  0
  -18.0640  -30.2710   24.1990 C   0  0  0  0  0  3  0  0  0  0  0  0
  -16.9100  -29.6500   23.6910 C   0  0  0  0  0  3  0  0  0  0  0  0
  -17.0310  -28.5410   22.8370 C   0  0  0  0  0  3  0  0  0  0  0  0
  -25.9360  -32.3210   24.1240 C   0  0  0  0  0  3  0  0  0  0  0  0
  -26.2380  -31.5540   25.4700 C   0  0  1  0  0  0  0  0  0  0  0  0
  -25.0040  -31.3940   26.3860 C   0  0  0  0  0  1  0  0  0  0  0  0
  -26.7940  -30.1390   25.1810 C   0  0  0  0  0  1  0  0  0  0  0  0
  -27.3310  -32.3030   26.2670 C   0  0  0  0  0  1  0  0  0  0  0  0
  -25.6370  -33.7350   24.3940 N   0  0  0  0  0  0  0  0  0  0  0  0
  -26.0650  -34.7620   23.6470 C   0  0  0  0  0  0  0  0  0  0  0  0
  -26.8230  -34.6180   22.6840 O   0  0  0  0  0  0  0  0  0  0  0  0
  -24.9780  -33.9220   25.1350 H   0  0  0  0  0  0  0  0  0  0  0  0
  -24.4310  -36.5920   23.0980 C   0  0  0  0  0  1  0  0  0  0  0  0
  -25.5790  -36.1730   24.0290 C   0  0  0  0  0  3  0  0  0  0  0  0
  -27.6460  -37.0250   25.0470 C   0  0  0  0  0  1  0  0  0  0  0  0
  -26.6480  -37.1940   23.9930 N   0  0  0  0  0  0  0  0  0  0  0  0
  -26.2560  -38.1280   24.0760 H   0  0  0  0  0  0  0  0  0  0  0  0
  -30.2630  -18.7210   24.0400 C   0  0  0  0  0  0  0  0  0  0  0  0
  -29.8840  -18.1210   22.9020 N   0  0  0  0  0  0  0  0  0  0  0  0
  -30.8190  -19.8220   24.0790 O   0  0  0  0  0  0  0  0  0  0  0  0
  -29.5430  -17.1750   22.9910 H   0  0  0  0  0  0  0  0  0  0  0  0
  -30.1690  -18.3690   26.4430 C   0  0  0  0  0  2  0  0  0  0  0  0
  -29.9510  -17.9060   25.2000 C   0  0  0  0  0  3  0  0  0  0  0  0
  1  2  2  0
  1  4  1  0
  2  5  1  0
  3  6  1  0
  4  3  2  0
  5 16  1  0
  5  6  2  0
  6 94  1  0
  7 16  1  0
  8 13  1  0
  9 10  1  0
  9  8  1  0
 11 10  1  0
 11 20  1  0
 11 12  1  0
 13  7  1  0
 13 12  1  0
 14  7  2  0
 16 15  1  0
 17 18  2  0
 18 37  1  0
 19 18  1  0
 19 22  1  0
 20 21  1  0
 20 17  1  0
 21 19  2  0
 22 23  1  0
 23 24  2  0
 25 28  1  0
 25 24  1  0
 26 25  2  0
 27 26  1  0
 27 22  2  0
 28 29  1  0
 29 34  2  0
 29 30  1  0
 30 31  2  0
 31 32  1  0
 32 36  1  0
 33 32  2  0
 34 33  1  0
 35 34  1  0
 37 38  1  0
 38 41  1  0
 38 40  1  0
 39 37  2  0
 42 17  1  0
 42 43  1  0
 44 42  1  0
 45 47  1  0
 45 48  1  0
 46 50  2  0
 47 51  1  0
 47 46  1  0
 48  4  1  0
 48 46  1  0
 49 45  2  0
 51 52  1  0
 53 64  2  0
 54 52  1  0
 54 59  1  0
 55 63  1  0
 55 65  1  0
 56 62  1  0
 56 58  1  0
 57 63  1  0
 58 57  1  0
 59 58  2  0
 60 61  1  0
 60 54  2  0
 61 56  2  0
 62 55  1  0
 63 53  1  0
 65 67  2  0
 66 65  1  0
 68 66  1  0
 69 78  2  0
 69 74  1  0
 70 66  1  0
 70 74  1  0
 71 70  1  0
 72 73  1  0
 72 71  1  0
 73 69  1  0
 74 75  2  0
 75 76  1  0
 77 76  2  0
 78 77  1  0
 79 53  1  0
 79 84  1  0
 79 80  1  0
 80 83  1  1
 80 81  1  0
 82 80  1  0
 84 87  1  0
 85 89  1  0
 85 84  1  0
 86 85  2  0
 89 88  1  0
 91 89  1  0
 91 92  1  0
 91 90  1  0
 93 95  2  0
 93 98  1  0
 94 96  1  0
 94 93  1  0
 98 97  2  0
M  ISO  4   7 100  16 100  51 101  52 101
M  END
>  <TORSDO>  (74) 
F 20

>  <SCORE>  (74) 
-4.285

>  <name>  (74) 
73

>  <ligand_id>  (74) 
73

>  <original_smiles>  (74) 
[H]C([H])=C([H])C(=O)N([H])c1c([H])c(N2C(=O)C([H])(C([H])([H])Oc3c([H])c([H])c4c(c3[H])C([H])([H])N(C(=O)C([H])(N([H])C(=O)C([H])(N([H])C([H])([H])[H])C([H])([H])[H])C(C([H])([H])[H])(C([H])([H])[H])C([H])([H])[H])C([H])(C(=O)N([H])C3([H])c5c([H])c([H])c([H])c([H])c5C([H])([H])C([H])([H])C3([H])[H])C4([H])[H])C2=O)c([H])c([H])c1N(C(=O)N1C([H])([H])C([H])([H])C([H])([H])C([H])(n2nc(-c3c([H])c([H])c(Oc4c([H])c([H])c(F)c([H])c4F)c([H])c3[H])c(C(=O)N([H])[H])c2N([H])[H])C1([H])[H])C([H])([H])[H]

>  <smiles>  (74) 
[H]C([H])=C([H])C(=O)N([H])c1c([H])c(N2C(=O)C([H])(C([H])([H])Oc3c([H])c([H])c4c(c3[H])C([H])([H])N(C(=O)C([H])(N([H])C(=O)C([H])(N([H])C([H])([H])[H])C([H])([H])[H])C(C([H])([H])[H])(C([H])([H])[H])C([H])([H])[H])C([H])(C(=O)N([H])C3([H])c5c([H])c([H])c([H])c([H])c5C([H])([H])C([H])([H])C3([H])[H])C4([H])[H])C2=O)c([H])c([H])c1N(C(=O)N1C([H])([H])C([H])([H])C([H])([H])C([H])(n2nc(-c3c([H])c([H])c(Oc4c([H])c([H])c(F)c([H])c4F)c([H])c3[H])c(C(=O)N([H])[H])c2N([H])[H])C1([H])[H])C([H])([H])[H]

$$$$
74:0:0
     RDKit          3D

 96105  0  0  1  0  0  0  0  0999 V2000
  -28.6520  -22.5460   21.0780 C   0  0  0  0  0  0  0  0  0  0  0  0
  -28.4120  -23.4990   18.9340 C   0  0  0  0  0  2  0  0  0  0  0  0
  -28.6620  -21.9710   18.8550 C   0  0  0  0  0  2  0  0  0  0  0  0
  -27.9860  -23.7950   20.3780 C   0  0  1  0  0  0  0  0  0  0  0  0
  -26.4580  -23.5940   20.5600 C   0  0  0  0  0  1  0  0  0  0  0  0
  -28.9330  -21.5210   20.2190 N   0  0  0  0  0  0  0  0  0  0  0  0
  -28.8550  -22.5150   22.2960 O   0  0  0  0  0  0  0  0  0  0  0  0
  -28.1840  -19.1370   20.5310 C   0  0  0  0  0  3  0  0  0  0  0  0
  -28.4590  -17.7370   20.5460 C   0  0  0  0  0  3  0  0  0  0  0  0
  -30.5440  -19.5900   20.5560 C   0  0  0  0  0  3  0  0  0  0  0  0
  -29.2200  -20.1060   20.4950 C   0  0  0  0  0  0  0  0  0  0  0  0
  -29.7770  -17.2130   20.4930 C   0  0  0  0  0  0  0  0  0  0  0  0
  -30.8250  -18.1830   20.5390 C   0  0  0  0  0  0  0  0  0  0  0  0
  -30.7010  -14.7820   20.5030 C   0  0  0  0  0  0  0  0  0  0  0  0
  -30.5730  -12.4600   19.6260 C   0  0  0  0  0  2  0  0  0  0  0  0
  -29.6850  -12.4050   18.3660 C   0  0  0  0  0  2  0  0  0  0  0  0
  -28.1860  -12.3040   18.7320 C   0  0  0  0  0  2  0  0  0  0  0  0
  -27.7460  -13.2350   19.9000 C   0  0  0  0  0  3  0  0  0  0  0  0
  -28.7690  -13.2380   21.0550 C   0  0  0  0  0  2  0  0  0  0  0  0
  -30.0790  -13.5570   20.4780 N   0  0  0  0  0  0  0  0  0  0  0  0
  -31.9320  -14.8480   20.4340 O   0  0  0  0  0  0  0  0  0  0  0  0
  -29.8470  -15.8400   18.5250 C   0  0  0  0  0  1  0  0  0  0  0  0
  -29.9520  -15.8380   19.9980 N   0  0  0  0  0  0  0  0  0  0  0  0
  -25.3220  -13.8170   20.5210 C   0  0  0  0  0  0  0  0  0  0  0  0
  -24.2510  -13.0390   20.8650 C   0  0  0  0  0  0  0  0  0  0  0  0
  -24.7320  -11.6950   20.8890 C   0  0  0  0  0  0  0  0  0  0  0  0
  -26.3880  -12.9460   20.3540 N   0  0  0  0  0  0  0  0  0  0  0  0
  -26.0370  -11.6680   20.6430 N   0  0  0  0  0  0  0  0  0  0  0  0
  -24.0150  -10.4270   21.0710 C   0  0  0  0  0  0  0  0  0  0  0  0
  -24.4300   -9.4750   22.0280 C   0  0  0  0  0  3  0  0  0  0  0  0
  -23.7110   -8.2730   22.1990 C   0  0  0  0  0  3  0  0  0  0  0  0
  -22.5630   -8.0140   21.4130 C   0  0  0  0  0  0  0  0  0  0  0  0
  -22.1650   -8.9560   20.4450 C   0  0  0  0  0  3  0  0  0  0  0  0
  -22.8870  -10.1490   20.2730 C   0  0  0  0  0  3  0  0  0  0  0  0
  -21.8250   -6.8590   21.4940 O   0  0  0  0  0  0  0  0  0  0  0  0
  -21.7570   -6.1220   22.6500 C   0  0  0  0  0  0  0  0  0  0  0  0
  -21.3010   -6.6820   23.8640 C   0  0  0  0  0  3  0  0  0  0  0  0
  -21.1850   -5.8740   25.0130 C   0  0  0  0  0  3  0  0  0  0  0  0
  -21.5160   -4.5080   24.9490 C   0  0  0  0  0  0  0  0  0  0  0  0
  -21.9640   -3.9470   23.7410 C   0  0  0  0  0  3  0  0  0  0  0  0
  -22.0820   -4.7520   22.5940 C   0  0  0  0  0  0  0  0  0  0  0  0
  -22.4960   -4.2020   21.4260 F   0  0  0  0  0  0  0  0  0  0  0  0
  -21.3960   -3.7270   26.0490 F   0  0  0  0  0  0  0  0  0  0  0  0
  -22.8350  -13.5040   21.0640 C   0  0  0  0  0  0  0  0  0  0  0  0
  -22.0760  -12.8250   21.9170 N   0  0  0  0  0  0  0  0  0  0  0  0
  -22.4110  -14.5080   20.4970 O   0  0  0  0  0  0  0  0  0  0  0  0
  -22.4290  -12.0150   22.4060 H   0  0  0  0  0  0  0  0  0  0  0  0
  -21.1270  -13.1210   22.1000 H   0  0  0  0  0  0  0  0  0  0  0  0
  -25.4730  -15.1820   20.3100 N   0  0  0  0  0  0  0  0  0  0  0  0
  -24.6960  -15.8360   20.3400 H   0  0  0  0  0  0  0  0  0  0  0  0
  -26.3290  -15.5970   19.9700 H   0  0  0  0  0  0  0  0  0  0  0  0
  -32.1560  -17.7810   20.4470 N   0  0  0  0  0  0  0  0  0  0  0  0
  -32.3630  -16.7800   20.4380 H   0  0  0  0  0  0  0  0  0  0  0  0
  -32.8960  -18.3610   20.8340 H   0  0  0  0  0  0  0  0  0  0  0  0
  -28.4170  -25.2630   20.8870 C   0  0  0  0  0  2  0  0  0  0  0  0
  -28.3360  -26.4990   20.0660 O   0  0  0  0  0  0  0  0  0  0  0  0
  -24.6180  -31.8630   23.2040 C   0  0  0  0  0  0  0  0  0  0  0  0
  -27.2120  -27.3270   20.1190 C   0  0  0  0  0  0  0  0  0  0  0  0
  -23.4100  -30.4770   21.5570 C   0  0  0  0  0  3  0  0  0  0  0  0
  -24.8520  -28.9340   20.1120 C   0  0  0  0  0  0  0  0  0  0  0  0
  -25.9450  -30.7950   21.3670 C   0  0  0  0  0  2  0  0  0  0  0  0
  -26.0180  -29.4170   20.7190 C   0  0  0  0  0  0  0  0  0  0  0  0
  -27.2040  -28.6250   20.7140 C   0  0  0  0  0  3  0  0  0  0  0  0
  -26.0420  -26.9100   19.4600 C   0  0  0  0  0  3  0  0  0  0  0  0
  -24.8660  -27.6870   19.4670 C   0  0  0  0  0  3  0  0  0  0  0  0
  -23.6170  -29.8100   20.1710 C   0  0  0  0  0  2  0  0  0  0  0  0
  -24.6760  -31.0650   22.0970 N   0  0  0  0  0  0  0  0  0  0  0  0
  -23.5380  -32.1350   23.7470 O   0  0  0  0  0  0  0  0  0  0  0  0
  -22.7520  -29.4520   22.5150 C   0  0  0  0  0  0  0  0  0  0  0  0
  -21.4250  -29.2810   22.3980 N   0  0  0  0  0  0  0  0  0  0  0  0
  -23.4380  -28.8160   23.3210 O   0  0  0  0  0  0  0  0  0  0  0  0
  -20.9330  -29.8440   21.7190 H   0  0  0  0  0  0  0  0  0  0  0  0
  -18.0460  -28.0930   22.9170 C   0  0  0  0  0  0  0  0  0  0  0  0
  -20.6080  -28.3360   23.1610 C   0  0  0  0  0  3  0  0  0  0  0  0
  -20.6990  -26.9120   22.5640 C   0  0  0  0  0  2  0  0  0  0  0  0
  -19.5830  -26.6050   21.5620 C   0  0  0  0  0  2  0  0  0  0  0  0
  -18.2090  -26.7500   22.2240 C   0  0  0  0  0  2  0  0  0  0  0  0
  -19.1730  -28.8450   23.3420 C   0  0  0  0  0  0  0  0  0  0  0  0
  -18.9660  -30.1020   23.9530 C   0  0  0  0  0  3  0  0  0  0  0  0
  -17.6640  -30.6040   24.1410 C   0  0  0  0  0  3  0  0  0  0  0  0
  -16.5540  -29.8490   23.7290 C   0  0  0  0  0  3  0  0  0  0  0  0
  -16.7440  -28.5950   23.1230 C   0  0  0  0  0  3  0  0  0  0  0  0
  -25.9030  -32.4900   23.8250 C   0  0  0  0  0  3  0  0  0  0  0  0
  -26.4230  -31.7110   25.0950 C   0  0  1  0  0  0  0  0  0  0  0  0
  -25.3340  -31.4670   26.1690 C   0  0  0  0  0  1  0  0  0  0  0  0
  -27.0010  -30.3350   24.6910 C   0  0  0  0  0  1  0  0  0  0  0  0
  -27.5750  -32.5010   25.7550 C   0  0  0  0  0  1  0  0  0  0  0  0
  -25.5950  -33.8860   24.1670 N   0  0  0  0  0  0  0  0  0  0  0  0
  -25.9240  -34.9450   23.4170 C   0  0  0  0  0  0  0  0  0  0  0  0
  -26.5920  -34.8510   22.3830 O   0  0  0  0  0  0  0  0  0  0  0  0
  -25.0030  -34.0310   24.9720 H   0  0  0  0  0  0  0  0  0  0  0  0
  -24.2010  -36.7450   23.0790 C   0  0  0  0  0  1  0  0  0  0  0  0
  -25.4390  -36.3310   23.8890 C   0  0  0  0  0  3  0  0  0  0  0  0
  -27.5720  -37.2040   24.7350 C   0  0  0  0  0  1  0  0  0  0  0  0
  -26.4740  -37.3820   23.7880 N   0  0  0  0  0  0  0  0  0  0  0  0
  -26.0700  -38.3020   23.9420 H   0  0  0  0  0  0  0  0  0  0  0  0
  1  7  2  0
  2  4  1  0
  3  2  1  0
  3  6  1  0
  4  5  1  6
  4 55  1  0
  4  1  1  0
  6 11  1  0
  6  1  1  0
  8  9  1  0
 11  8  2  0
 11 10  1  0
 12 13  1  0
 12  9  2  0
 13 10  2  0
 15 20  1  0
 16 17  1  0
 16 15  1  0
 18 17  1  0
 18 27  1  0
 18 19  1  0
 20 14  1  0
 20 19  1  0
 21 14  2  0
 22 23  1  0
 23 12  1  0
 23 14  1  0
 24 25  2  0
 25 26  1  0
 25 44  1  0
 26 29  1  0
 27 24  1  0
 27 28  1  0
 28 26  2  0
 29 30  1  0
 30 31  2  0
 32 35  1  0
 32 31  1  0
 33 32  2  0
 34 33  1  0
 34 29  2  0
 35 36  1  0
 36 37  1  0
 37 38  2  0
 39 38  1  0
 39 43  1  0
 40 39  2  0
 41 36  2  0
 41 40  1  0
 42 41  1  0
 44 45  1  0
 45 48  1  0
 45 47  1  0
 46 44  2  0
 49 50  1  0
 49 24  1  0
 51 49  1  0
 52 13  1  0
 52 54  1  0
 53 52  1  0
 56 58  1  0
 56 55  1  0
 57 68  2  0
 58 63  1  0
 59 67  1  0
 59 69  1  0
 60 66  1  0
 60 62  1  0
 61 67  1  0
 62 61  1  0
 63 62  2  0
 64 65  1  0
 64 58  2  0
 65 60  2  0
 66 59  1  0
 67 57  1  0
 69 71  2  0
 70 69  1  0
 72 70  1  0
 73 82  2  0
 73 78  1  0
 74 70  1  0
 74 78  1  0
 75 74  1  0
 76 77  1  0
 76 75  1  0
 77 73  1  0
 78 79  2  0
 79 80  1  0
 81 80  2  0
 82 81  1  0
 83 57  1  0
 83 88  1  0
 83 84  1  0
 84 87  1  1
 84 85  1  0
 86 84  1  0
 88 91  1  0
 89 93  1  0
 89 88  1  0
 90 89  2  0
 93 92  1  0
 95 93  1  0
 95 96  1  0
 95 94  1  0
M  ISO  4  14 100  23 100  55 101  56 101
M  END
>  <TORSDO>  (75) 
F 19

>  <SCORE>  (75) 
-14.334

>  <name>  (75) 
74

>  <ligand_id>  (75) 
74

>  <original_smiles>  (75) 
[H]c1c([H])c([H])c2c(c1[H])C([H])([H])C([H])([H])C([H])([H])C2([H])N([H])C(=O)C1([H])N(C(=O)C([H])(N([H])C(=O)C([H])(N([H])C([H])([H])[H])C([H])([H])[H])C(C([H])([H])[H])(C([H])([H])[H])C([H])([H])[H])C([H])([H])c2c([H])c(OC([H])([H])C3(C([H])([H])[H])C(=O)N(c4c([H])c([H])c(N(C(=O)N5C([H])([H])C([H])([H])C([H])([H])C([H])(n6nc(-c7c([H])c([H])c(Oc8c([H])c([H])c(F)c([H])c8F)c([H])c7[H])c(C(=O)N([H])[H])c6N([H])[H])C5([H])[H])C([H])([H])[H])c(N([H])[H])c4[H])C([H])([H])C3([H])[H])c([H])c([H])c2C1([H])[H]

>  <smiles>  (75) 
[H]c1c([H])c([H])c2c(c1[H])C([H])([H])C([H])([H])C([H])([H])C2([H])N([H])C(=O)C1([H])N(C(=O)C([H])(N([H])C(=O)C([H])(N([H])C([H])([H])[H])C([H])([H])[H])C(C([H])([H])[H])(C([H])([H])[H])C([H])([H])[H])C([H])([H])c2c([H])c(OC([H])([H])C3(C([H])([H])[H])C(=O)N(c4c([H])c([H])c(N(C(=O)N5C([H])([H])C([H])([H])C([H])([H])C([H])(n6nc(-c7c([H])c([H])c(Oc8c([H])c([H])c(F)c([H])c8F)c([H])c7[H])c(C(=O)N([H])[H])c6N([H])[H])C5([H])[H])C([H])([H])[H])c(N([H])[H])c4[H])C([H])([H])C3([H])[H])c([H])c([H])c2C1([H])[H]

$$$$
75:0:0
     RDKit          3D

 95103  0  0  1  0  0  0  0  0999 V2000
  -29.8930  -20.7010   19.5700 C   0  0  0  0  0  0  0  0  0  0  0  0
  -29.3700  -23.1470   19.9990 C   0  0  0  0  0  0  0  0  0  0  0  0
  -29.2790  -21.7780   20.1700 N   0  0  0  0  0  0  0  0  0  0  0  0
  -30.8420  -20.8040   18.7890 O   0  0  0  0  0  0  0  0  0  0  0  0
  -30.0740  -23.6730   19.1310 O   0  0  0  0  0  0  0  0  0  0  0  0
  -28.6100  -21.5200   20.8760 H   0  0  0  0  0  0  0  0  0  0  0  0
  -27.9650  -19.1350   20.0790 C   0  0  0  0  0  3  0  0  0  0  0  0
  -27.3910  -17.8870   20.3600 C   0  0  0  0  0  3  0  0  0  0  0  0
  -30.1770  -18.0800   20.0080 C   0  0  0  0  0  3  0  0  0  0  0  0
  -29.3620  -19.2860   19.9130 C   0  0  0  0  0  0  0  0  0  0  0  0
  -29.5860  -16.7870   20.2920 C   0  0  0  0  0  0  0  0  0  0  0  0
  -28.1880  -16.7420   20.4740 C   0  0  0  0  0  0  0  0  0  0  0  0
  -27.5950  -15.5570   20.7650 F   0  0  0  0  0  0  0  0  0  0  0  0
  -30.7970  -14.4970   19.7750 C   0  0  0  0  0  0  0  0  0  0  0  0
  -30.6540  -12.1390   18.9530 C   0  0  0  0  0  2  0  0  0  0  0  0
  -29.6510  -12.0800   17.7780 C   0  0  0  0  0  2  0  0  0  0  0  0
  -28.2020  -11.9300   18.2850 C   0  0  0  0  0  2  0  0  0  0  0  0
  -27.8660  -12.9260   19.4260 C   0  0  0  0  0  3  0  0  0  0  0  0
  -28.9700  -12.9010   20.5070 C   0  0  0  0  0  2  0  0  0  0  0  0
  -30.2520  -13.2380   19.8550 N   0  0  0  0  0  0  0  0  0  0  0  0
  -31.8370  -14.7160   19.1430 O   0  0  0  0  0  0  0  0  0  0  0  0
  -30.1490  -15.4510   20.5000 N   0  0  0  0  0  0  0  0  0  0  0  0
  -29.5830  -14.9810   21.1930 H   0  0  0  0  0  0  0  0  0  0  0  0
  -25.5280  -13.5830   20.2740 C   0  0  0  0  0  0  0  0  0  0  0  0
  -24.4700  -12.8350   20.7180 C   0  0  0  0  0  0  0  0  0  0  0  0
  -24.9030  -11.4740   20.6700 C   0  0  0  0  0  0  0  0  0  0  0  0
  -26.5400  -12.6800   19.9890 N   0  0  0  0  0  0  0  0  0  0  0  0
  -26.1700  -11.4060   20.2810 N   0  0  0  0  0  0  0  0  0  0  0  0
  -24.1640  -10.2280   20.9170 C   0  0  0  0  0  0  0  0  0  0  0  0
  -24.5750   -9.3110   21.9090 C   0  0  0  0  0  3  0  0  0  0  0  0
  -23.8390   -8.1290   22.1400 C   0  0  0  0  0  3  0  0  0  0  0  0
  -22.6770   -7.8560   21.3790 C   0  0  0  0  0  0  0  0  0  0  0  0
  -22.2850   -8.7610   20.3780 C   0  0  0  0  0  3  0  0  0  0  0  0
  -23.0220   -9.9350   20.1450 C   0  0  0  0  0  3  0  0  0  0  0  0
  -21.9150   -6.7220   21.5170 O   0  0  0  0  0  0  0  0  0  0  0  0
  -21.7690   -6.0940   22.7290 C   0  0  0  0  0  0  0  0  0  0  0  0
  -21.2380   -6.7620   23.8540 C   0  0  0  0  0  3  0  0  0  0  0  0
  -21.0410   -6.0600   25.0590 C   0  0  0  0  0  3  0  0  0  0  0  0
  -21.3630   -4.6920   25.1400 C   0  0  0  0  0  0  0  0  0  0  0  0
  -21.8870   -4.0240   24.0190 C   0  0  0  0  0  3  0  0  0  0  0  0
  -22.0860   -4.7240   22.8160 C   0  0  0  0  0  0  0  0  0  0  0  0
  -22.5710   -4.0710   21.7320 F   0  0  0  0  0  0  0  0  0  0  0  0
  -21.1670   -4.0160   26.2970 F   0  0  0  0  0  0  0  0  0  0  0  0
  -23.1030  -13.3430   21.0750 C   0  0  0  0  0  0  0  0  0  0  0  0
  -22.4280  -12.6820   22.0080 N   0  0  0  0  0  0  0  0  0  0  0  0
  -22.6450  -14.3620   20.5600 O   0  0  0  0  0  0  0  0  0  0  0  0
  -22.8130  -11.8580   22.4470 H   0  0  0  0  0  0  0  0  0  0  0  0
  -21.5130  -13.0050   22.2900 H   0  0  0  0  0  0  0  0  0  0  0  0
  -25.7040  -14.9470   20.0680 N   0  0  0  0  0  0  0  0  0  0  0  0
  -24.9630  -15.6200   20.2290 H   0  0  0  0  0  0  0  0  0  0  0  0
  -26.5510  -15.3670   19.7100 H   0  0  0  0  0  0  0  0  0  0  0  0
  -28.1550  -25.2550   20.9370 C   0  0  0  0  0  3  0  0  0  0  0  0
  -28.5380  -23.9230   20.9760 C   0  0  0  0  0  0  0  0  0  0  0  0
  -28.0440  -23.1360   22.1940 C   0  0  0  0  0  1  0  0  0  0  0  0
  -28.3510  -26.3310   20.0600 O   0  0  0  0  0  0  0  0  0  0  0  0
  -24.6440  -31.7520   23.0850 C   0  0  0  0  0  0  0  0  0  0  0  0
  -27.2830  -27.2340   20.0070 C   0  0  0  0  0  0  0  0  0  0  0  0
  -23.4510  -30.3660   21.4240 C   0  0  0  0  0  3  0  0  0  0  0  0
  -24.9150  -28.8280   19.9950 C   0  0  0  0  0  0  0  0  0  0  0  0
  -25.9900  -30.6900   21.2600 C   0  0  0  0  0  2  0  0  0  0  0  0
  -26.0790  -29.3180   20.6040 C   0  0  0  0  0  0  0  0  0  0  0  0
  -27.2680  -28.5310   20.6070 C   0  0  0  0  0  3  0  0  0  0  0  0
  -26.1030  -26.7900   19.3790 C   0  0  0  0  0  3  0  0  0  0  0  0
  -24.9280  -27.5680   19.3730 C   0  0  0  0  0  3  0  0  0  0  0  0
  -23.6750  -29.6980   20.0410 C   0  0  0  0  0  2  0  0  0  0  0  0
  -24.7130  -30.9530   21.9800 N   0  0  0  0  0  0  0  0  0  0  0  0
  -23.5570  -32.0260   23.6140 O   0  0  0  0  0  0  0  0  0  0  0  0
  -22.7790  -29.3450   22.3720 C   0  0  0  0  0  0  0  0  0  0  0  0
  -21.4470  -29.2040   22.2650 N   0  0  0  0  0  0  0  0  0  0  0  0
  -23.4550  -28.6840   23.1640 O   0  0  0  0  0  0  0  0  0  0  0  0
  -20.9610  -29.7900   21.5990 H   0  0  0  0  0  0  0  0  0  0  0  0
  -18.0430  -28.1260   22.8410 C   0  0  0  0  0  0  0  0  0  0  0  0
  -20.6170  -28.2700   23.0280 C   0  0  0  0  0  3  0  0  0  0  0  0
  -20.6390  -26.8600   22.3940 C   0  0  0  0  0  2  0  0  0  0  0  0
  -19.4900  -26.6240   21.4090 C   0  0  0  0  0  2  0  0  0  0  0  0
  -18.1390  -26.7980   22.1080 C   0  0  0  0  0  2  0  0  0  0  0  0
  -19.2060  -28.8250   23.2590 C   0  0  0  0  0  0  0  0  0  0  0  0
  -19.0610  -30.0700   23.9070 C   0  0  0  0  0  3  0  0  0  0  0  0
  -17.7840  -30.6160   24.1400 C   0  0  0  0  0  3  0  0  0  0  0  0
  -16.6350  -29.9140   23.7360 C   0  0  0  0  0  3  0  0  0  0  0  0
  -16.7660  -28.6700   23.0930 C   0  0  0  0  0  3  0  0  0  0  0  0
  -25.9230  -32.3770   23.7210 C   0  0  0  0  0  3  0  0  0  0  0  0
  -25.6010  -33.7610   24.1000 N   0  0  0  0  0  0  0  0  0  0  0  0
  -25.9080  -34.8410   23.3700 C   0  0  0  0  0  0  0  0  0  0  0  0
  -26.5620  -34.7790   22.3250 O   0  0  0  0  0  0  0  0  0  0  0  0
  -25.0160  -33.8820   24.9140 H   0  0  0  0  0  0  0  0  0  0  0  0
  -24.1470  -36.6180   23.1070 C   0  0  0  0  0  1  0  0  0  0  0  0
  -25.4120  -36.2080   23.8790 C   0  0  0  0  0  3  0  0  0  0  0  0
  -27.5530  -37.0990   24.6850 C   0  0  0  0  0  1  0  0  0  0  0  0
  -26.4270  -37.2800   23.7740 N   0  0  0  0  0  0  0  0  0  0  0  0
  -26.0110  -38.1880   23.9580 H   0  0  0  0  0  0  0  0  0  0  0  0
  -26.4550  -31.5700   24.9680 C   0  0  1  0  0  0  0  0  0  0  0  0
  -25.3670  -31.2740   26.0280 C   0  0  0  0  0  1  0  0  0  0  0  0
  -27.0610  -30.2160   24.5280 C   0  0  0  0  0  1  0  0  0  0  0  0
  -27.5920  -32.3590   25.6580 C   0  0  0  0  0  1  0  0  0  0  0  0
  1 10  1  0
  1  3  1  0
  2  3  1  0
  2 53  1  0
  3  6  1  0
  4  1  2  0
  5  2  2  0
  7  8  1  0
  8 12  2  0
  9 11  2  0
 10  9  1  0
 10  7  2  0
 11 12  1  0
 11 22  1  0
 12 13  1  0
 14 20  1  0
 14 22  1  0
 15 20  1  0
 16 17  1  0
 16 15  1  0
 18 17  1  0
 18 27  1  0
 18 19  1  0
 20 19  1  0
 21 14  2  0
 22 23  1  0
 24 25  2  0
 25 44  1  0
 26 25  1  0
 26 29  1  0
 27 24  1  0
 27 28  1  0
 28 26  2  0
 29 30  1  0
 30 31  2  0
 32 35  1  0
 32 31  1  0
 33 32  2  0
 34 33  1  0
 34 29  2  0
 35 36  1  0
 36 41  2  0
 36 37  1  0
 37 38  2  0
 38 39  1  0
 39 43  1  0
 40 39  2  0
 41 40  1  0
 42 41  1  0
 44 45  1  0
 45 48  1  0
 45 47  1  0
 46 44  2  0
 49 50  1  0
 49 24  1  0
 51 49  1  0
 52 53  2  0
 53 54  1  0
 55 52  1  0
 56 67  2  0
 57 55  1  0
 57 62  1  0
 58 66  1  0
 58 68  1  0
 59 65  1  0
 59 61  1  0
 60 66  1  0
 61 62  2  0
 61 60  1  0
 63 57  2  0
 64 63  1  0
 64 59  2  0
 65 58  1  0
 66 56  1  0
 68 70  2  0
 69 68  1  0
 71 69  1  0
 72 81  2  0
 72 77  1  0
 73 69  1  0
 73 77  1  0
 74 73  1  0
 75 76  1  0
 75 74  1  0
 76 72  1  0
 77 78  2  0
 78 79  1  0
 80 79  2  0
 81 80  1  0
 82 56  1  0
 82 83  1  0
 82 92  1  0
 83 86  1  0
 84 88  1  0
 84 83  1  0
 85 84  2  0
 88 87  1  0
 90 88  1  0
 90 91  1  0
 90 89  1  0
 92 95  1  1
 92 93  1  0
 94 92  1  0
M  ISO  4  14 100  22 100  52 101  55 101
M  END
>  <TORSDO>  (76) 
F 18

>  <SCORE>  (76) 
-13.928

>  <name>  (76) 
75

>  <ligand_id>  (76) 
75

>  <original_smiles>  (76) 
[H]C(Oc1c([H])c([H])c2c(c1[H])C([H])([H])N(C(=O)C([H])(N([H])C(=O)C([H])(N([H])C([H])([H])[H])C([H])([H])[H])C(C([H])([H])[H])(C([H])([H])[H])C([H])([H])[H])C([H])(C(=O)N([H])C1([H])c3c([H])c([H])c([H])c([H])c3C([H])([H])C([H])([H])C1([H])[H])C2([H])[H])=C(C(=O)N([H])C(=O)c1c([H])c([H])c(F)c(N([H])C(=O)N2C([H])([H])C([H])([H])C([H])([H])C([H])(n3nc(-c4c([H])c([H])c(Oc5c([H])c([H])c(F)c([H])c5F)c([H])c4[H])c(C(=O)N([H])[H])c3N([H])[H])C2([H])[H])c1[H])C([H])([H])[H]

>  <smiles>  (76) 
[H]C(Oc1c([H])c([H])c2c(c1[H])C([H])([H])N(C(=O)C([H])(N([H])C(=O)C([H])(N([H])C([H])([H])[H])C([H])([H])[H])C(C([H])([H])[H])(C([H])([H])[H])C([H])([H])[H])C([H])(C(=O)N([H])C1([H])c3c([H])c([H])c([H])c([H])c3C([H])([H])C([H])([H])C1([H])[H])C2([H])[H])=C(C(=O)N([H])C(=O)c1c([H])c([H])c(F)c(N([H])C(=O)N2C([H])([H])C([H])([H])C([H])([H])C([H])(n3nc(-c4c([H])c([H])c(Oc5c([H])c([H])c(F)c([H])c5F)c([H])c4[H])c(C(=O)N([H])[H])c3N([H])[H])C2([H])[H])c1[H])C([H])([H])[H]

$$$$
76:0:0
     RDKit          3D

 98107  0  0  1  0  0  0  0  0999 V2000
  -29.0380  -18.8160   20.6910 C   0  0  0  0  0  3  0  0  0  0  0  0
  -29.0330  -20.2130   20.9230 C   0  0  0  0  0  3  0  0  0  0  0  0
  -31.4160  -18.9400   20.2120 C   0  0  0  0  0  3  0  0  0  0  0  0
  -30.2290  -18.1830   20.2770 C   0  0  0  0  0  0  0  0  0  0  0  0
  -30.2100  -21.0050   20.7640 C   0  0  0  0  0  0  0  0  0  0  0  0
  -31.4170  -20.3200   20.4630 C   0  0  0  0  0  0  0  0  0  0  0  0
  -32.6080  -20.9630   20.3670 F   0  0  0  0  0  0  0  0  0  0  0  0
  -30.7190  -14.4520   20.2810 C   0  0  0  0  0  0  0  0  0  0  0  0
  -30.3110  -12.3110   19.1880 C   0  0  0  0  0  2  0  0  0  0  0  0
  -29.3800  -12.5590   17.9860 C   0  0  0  0  0  2  0  0  0  0  0  0
  -27.9110  -12.4410   18.4270 C   0  0  0  0  0  2  0  0  0  0  0  0
  -27.5980  -13.2690   19.7060 C   0  0  0  0  0  3  0  0  0  0  0  0
  -28.6660  -13.0690   20.8070 C   0  0  0  0  0  2  0  0  0  0  0  0
  -29.9830  -13.3130   20.2150 N   0  0  0  0  0  0  0  0  0  0  0  0
  -31.8800  -14.5150   19.8610 O   0  0  0  0  0  0  0  0  0  0  0  0
  -30.3010  -16.8070   19.7720 C   0  0  0  0  0  0  0  0  0  0  0  0
  -30.0370  -15.6990   20.5130 N   0  0  0  0  0  0  0  0  0  0  0  0
  -30.6960  -16.7260   18.4900 N   0  0  0  0  0  4  0  0  0  0  0  0
  -29.2400  -15.7820   21.1190 H   0  0  0  0  0  0  0  0  0  0  0  0
  -30.8360  -17.5750   17.9640 H   0  0  0  0  0  0  0  0  0  0  0  0
  -30.9140  -15.8450   18.0530 H   0  0  0  0  0  0  0  0  0  0  0  0
  -25.2130  -13.8680   20.4590 C   0  0  0  0  0  0  0  0  0  0  0  0
  -24.1530  -13.0940   20.8390 C   0  0  0  0  0  0  0  0  0  0  0  0
  -24.6130  -11.7420   20.7940 C   0  0  0  0  0  0  0  0  0  0  0  0
  -26.2550  -12.9890   20.2060 N   0  0  0  0  0  0  0  0  0  0  0  0
  -25.9010  -11.7050   20.4680 N   0  0  0  0  0  0  0  0  0  0  0  0
  -23.8920  -10.4780   20.9860 C   0  0  0  0  0  0  0  0  0  0  0  0
  -24.3190   -9.5190   21.9330 C   0  0  0  0  0  3  0  0  0  0  0  0
  -23.5960   -8.3210   22.1130 C   0  0  0  0  0  3  0  0  0  0  0  0
  -22.4330   -8.0730   21.3480 C   0  0  0  0  0  0  0  0  0  0  0  0
  -22.0250   -9.0190   20.3910 C   0  0  0  0  0  3  0  0  0  0  0  0
  -22.7490  -10.2090   20.2080 C   0  0  0  0  0  3  0  0  0  0  0  0
  -21.6820   -6.9260   21.4370 O   0  0  0  0  0  0  0  0  0  0  0  0
  -21.6030   -6.2040   22.6020 C   0  0  0  0  0  0  0  0  0  0  0  0
  -21.0960   -6.7670   23.7940 C   0  0  0  0  0  3  0  0  0  0  0  0
  -20.9690   -5.9710   24.9490 C   0  0  0  0  0  3  0  0  0  0  0  0
  -21.3360   -4.6120   24.9140 C   0  0  0  0  0  0  0  0  0  0  0  0
  -21.8340   -4.0500   23.7260 C   0  0  0  0  0  3  0  0  0  0  0  0
  -21.9650   -4.8430   22.5730 C   0  0  0  0  0  0  0  0  0  0  0  0
  -22.4250   -4.2900   21.4260 F   0  0  0  0  0  0  0  0  0  0  0  0
  -21.2090   -3.8440   26.0220 F   0  0  0  0  0  0  0  0  0  0  0  0
  -22.7600  -13.5700   21.1320 C   0  0  0  0  0  0  0  0  0  0  0  0
  -22.0420  -12.8640   21.9980 N   0  0  0  0  0  0  0  0  0  0  0  0
  -22.3180  -14.6030   20.6280 O   0  0  0  0  0  0  0  0  0  0  0  0
  -22.4130  -12.0280   22.4240 H   0  0  0  0  0  0  0  0  0  0  0  0
  -21.1070  -13.1610   22.2380 H   0  0  0  0  0  0  0  0  0  0  0  0
  -25.3760  -15.2410   20.2810 N   0  0  0  0  0  0  0  0  0  0  0  0
  -24.5980  -15.8850   20.3790 H   0  0  0  0  0  0  0  0  0  0  0  0
  -26.1980  -15.6740   19.8830 H   0  0  0  0  0  0  0  0  0  0  0  0
  -29.3780  -24.5820   20.7360 C   0  0  0  0  0  0  0  0  0  0  0  0
  -30.6280  -24.6120   20.0360 C   0  0  0  0  0  0  0  0  0  0  0  0
  -29.1900  -23.2410   21.2700 C   0  0  0  0  0  0  0  0  0  0  0  0
  -31.2000  -25.6630   19.4210 C   0  0  0  0  0  2  0  0  0  0  0  0
  -28.4350  -25.5390   20.8570 C   0  0  0  0  0  3  0  0  0  0  0  0
  -31.2240  -23.2440   20.1070 C   0  0  0  0  0  2  0  0  0  0  0  0
  -30.1900  -22.4510   20.7970 N   0  0  0  0  0  0  0  0  0  0  0  0
  -28.2860  -22.8870   22.0330 O   0  0  0  0  0  0  0  0  0  0  0  0
  -28.5100  -26.7860   20.2860 O   0  0  0  0  0  0  0  0  0  0  0  0
  -24.5760  -31.8810   23.2550 C   0  0  0  0  0  0  0  0  0  0  0  0
  -27.3410  -27.5000   20.2390 C   0  0  0  0  0  0  0  0  0  0  0  0
  -23.4200  -30.4670   21.5830 C   0  0  0  0  0  3  0  0  0  0  0  0
  -24.9230  -28.9500   20.1900 C   0  0  0  0  0  0  0  0  0  0  0  0
  -25.9420  -30.8640   21.4420 C   0  0  0  0  0  2  0  0  0  0  0  0
  -26.0580  -29.4960   20.8020 C   0  0  0  0  0  0  0  0  0  0  0  0
  -27.2720  -28.7780   20.8260 C   0  0  0  0  0  3  0  0  0  0  0  0
  -26.1960  -26.9570   19.6150 C   0  0  0  0  0  3  0  0  0  0  0  0
  -24.9850  -27.6770   19.5940 C   0  0  0  0  0  3  0  0  0  0  0  0
  -23.6670  -29.7890   20.2080 C   0  0  0  0  0  2  0  0  0  0  0  0
  -24.6620  -31.0860   22.1520 N   0  0  0  0  0  0  0  0  0  0  0  0
  -23.4800  -32.1400   23.7720 O   0  0  0  0  0  0  0  0  0  0  0  0
  -22.7600  -29.4380   22.5290 C   0  0  0  0  0  0  0  0  0  0  0  0
  -21.4360  -29.2620   22.3880 N   0  0  0  0  0  0  0  0  0  0  0  0
  -23.4340  -28.8020   23.3440 O   0  0  0  0  0  0  0  0  0  0  0  0
  -20.9550  -29.8280   21.7040 H   0  0  0  0  0  0  0  0  0  0  0  0
  -18.0430  -28.1300   22.8860 C   0  0  0  0  0  0  0  0  0  0  0  0
  -20.6070  -28.3220   23.1410 C   0  0  0  0  0  3  0  0  0  0  0  0
  -20.6740  -26.9070   22.5240 C   0  0  0  0  0  2  0  0  0  0  0  0
  -19.5540  -26.6380   21.5120 C   0  0  0  0  0  2  0  0  0  0  0  0
  -18.1820  -26.7960   22.1740 C   0  0  0  0  0  2  0  0  0  0  0  0
  -19.1820  -28.8530   23.3270 C   0  0  0  0  0  0  0  0  0  0  0  0
  -18.9970  -30.1050   23.9540 C   0  0  0  0  0  3  0  0  0  0  0  0
  -17.7050  -30.6330   24.1420 C   0  0  0  0  0  3  0  0  0  0  0  0
  -16.5810  -29.9030   23.7190 C   0  0  0  0  0  3  0  0  0  0  0  0
  -16.7510  -28.6540   23.0970 C   0  0  0  0  0  3  0  0  0  0  0  0
  -25.8430  -32.5200   23.9060 C   0  0  0  0  0  3  0  0  0  0  0  0
  -25.5220  -33.9200   24.2140 N   0  0  0  0  0  0  0  0  0  0  0  0
  -25.8710  -34.9630   23.4510 C   0  0  0  0  0  0  0  0  0  0  0  0
  -26.5680  -34.8520   22.4400 O   0  0  0  0  0  0  0  0  0  0  0  0
  -24.8990  -34.0840   24.9940 H   0  0  0  0  0  0  0  0  0  0  0  0
  -24.1510  -36.7470   23.0240 C   0  0  0  0  0  1  0  0  0  0  0  0
  -25.3650  -36.3550   23.8800 C   0  0  0  0  0  3  0  0  0  0  0  0
  -27.4640  -37.2520   24.7810 C   0  0  0  0  0  1  0  0  0  0  0  0
  -26.4000  -37.4090   23.7920 N   0  0  0  0  0  0  0  0  0  0  0  0
  -25.9870  -38.3290   23.9150 H   0  0  0  0  0  0  0  0  0  0  0  0
  -26.3310  -31.7580   25.1980 C   0  0  1  0  0  0  0  0  0  0  0  0
  -25.2120  -31.5150   26.2370 C   0  0  0  0  0  1  0  0  0  0  0  0
  -26.9350  -30.3830   24.8280 C   0  0  0  0  0  1  0  0  0  0  0  0
  -27.4590  -32.5610   25.8880 C   0  0  0  0  0  1  0  0  0  0  0  0
  1  2  1  0
  3  4  1  0
  3  6  2  0
  4  1  2  0
  5 56  1  0
  5  2  2  0
  6  5  1  0
  7  6  1  0
  8 17  1  0
  9 14  1  0
 10 11  1  0
 10  9  1  0
 12 11  1  0
 12 25  1  0
 12 13  1  0
 14  8  1  0
 14 13  1  0
 15  8  2  0
 16  4  1  0
 16 17  1  0
 17 19  1  0
 18 16  2  0
 20 18  1  0
 21 18  1  0
 22 23  2  0
 23 42  1  0
 24 23  1  0
 24 27  1  0
 25 22  1  0
 25 26  1  0
 26 24  2  0
 27 28  1  0
 28 29  2  0
 30 33  1  0
 30 29  1  0
 31 30  2  0
 32 31  1  0
 32 27  2  0
 33 34  1  0
 34 35  1  0
 35 36  2  0
 37 36  1  0
 37 41  1  0
 38 37  2  0
 39 34  2  0
 39 38  1  0
 40 39  1  0
 42 43  1  0
 43 46  1  0
 43 45  1  0
 44 42  2  0
 47 48  1  0
 47 22  1  0
 49 47  1  0
 50 54  2  0
 50 52  1  0
 51 55  1  0
 51 50  1  0
 52 57  2  0
 53 51  2  0
 55 56  1  0
 56 52  1  0
 58 54  1  0
 59 70  2  0
 60 58  1  0
 60 65  1  0
 61 69  1  0
 61 71  1  0
 62 68  1  0
 62 64  1  0
 63 69  1  0
 64 65  2  0
 64 63  1  0
 66 60  2  0
 67 66  1  0
 67 62  2  0
 68 61  1  0
 69 59  1  0
 71 73  2  0
 72 71  1  0
 74 72  1  0
 75 84  2  0
 75 80  1  0
 76 72  1  0
 76 80  1  0
 77 76  1  0
 78 79  1  0
 78 77  1  0
 79 75  1  0
 80 81  2  0
 81 82  1  0
 83 82  2  0
 84 83  1  0
 85 59  1  0
 85 86  1  0
 85 95  1  0
 86 89  1  0
 87 91  1  0
 87 86  1  0
 88 87  2  0
 91 90  1  0
 93 91  1  0
 93 94  1  0
 93 92  1  0
 95 98  1  1
 95 96  1  0
 97 95  1  0
M  ISO  4   8 100  17 100  54 101  58 101
M  END
>  <TORSDO>  (77) 
F 17

>  <SCORE>  (77) 
-15.510

>  <name>  (77) 
76

>  <ligand_id>  (77) 
76

>  <original_smiles>  (77) 
[H]C([H])=C1C(=C([H])Oc2c([H])c([H])c3c(c2[H])C([H])([H])N(C(=O)C([H])(N([H])C(=O)C([H])(N([H])C([H])([H])[H])C([H])([H])[H])C(C([H])([H])[H])(C([H])([H])[H])C([H])([H])[H])C([H])(C(=O)N([H])C2([H])c4c([H])c([H])c([H])c([H])c4C([H])([H])C([H])([H])C2([H])[H])C3([H])[H])C(=O)N(c2c([H])c([H])c(C(N([H])C(=O)N3C([H])([H])C([H])([H])C([H])([H])C([H])(n4nc(-c5c([H])c([H])c(Oc6c([H])c([H])c(F)c([H])c6F)c([H])c5[H])c(C(=O)N([H])[H])c4N([H])[H])C3([H])[H])=[N+]([H])[H])c([H])c2F)C1([H])[H]

>  <smiles>  (77) 
[H]C([H])=C1C(=C([H])Oc2c([H])c([H])c3c(c2[H])C([H])([H])N(C(=O)C([H])(N([H])C(=O)C([H])(N([H])C([H])([H])[H])C([H])([H])[H])C(C([H])([H])[H])(C([H])([H])[H])C([H])([H])[H])C([H])(C(=O)N([H])C2([H])c4c([H])c([H])c([H])c([H])c4C([H])([H])C([H])([H])C2([H])[H])C3([H])[H])C(=O)N(c2c([H])c([H])c(C(N([H])C(=O)N3C([H])([H])C([H])([H])C([H])([H])C([H])(n4nc(-c5c([H])c([H])c(Oc6c([H])c([H])c(F)c([H])c6F)c([H])c5[H])c(C(=O)N([H])[H])c4N([H])[H])C3([H])[H])=[N+]([H])[H])c([H])c2F)C1([H])[H]

$$$$
77:0:0
     RDKit          3D

102110  0  0  1  0  0  0  0  0999 V2000
  -30.5440  -20.6130   22.0990 C   0  0  0  0  0  0  0  0  0  0  0  0
  -30.5750  -22.9830   21.2730 C   0  0  0  0  0  0  0  0  0  0  0  0
  -30.7100  -21.5540   21.1430 N   0  0  0  0  0  0  0  0  0  0  0  0
  -30.2200  -20.9260   23.3580 N   0  0  0  0  0  4  0  0  0  0  0  0
  -30.1750  -23.5120   22.3200 O   0  0  0  0  0  0  0  0  0  0  0  0
  -30.9450  -21.1230   20.2610 H   0  0  0  0  0  0  0  0  0  0  0  0
  -30.1930  -20.2160   24.0730 H   0  0  0  0  0  0  0  0  0  0  0  0
  -30.0530  -21.8940   23.6020 H   0  0  0  0  0  0  0  0  0  0  0  0
  -31.9860  -18.7060   21.3170 C   0  0  0  0  0  3  0  0  0  0  0  0
  -32.1490  -17.3350   21.0170 C   0  0  0  0  0  3  0  0  0  0  0  0
  -29.6570  -18.2990   21.9180 C   0  0  0  0  0  3  0  0  0  0  0  0
  -30.7360  -19.1960   21.7660 C   0  0  0  0  0  0  0  0  0  0  0  0
  -31.0620  -16.4460   21.1690 C   0  0  0  0  0  0  0  0  0  0  0  0
  -29.8230  -16.9350   21.6300 C   0  0  0  0  0  0  0  0  0  0  0  0
  -28.7830  -16.0790   21.7880 F   0  0  0  0  0  0  0  0  0  0  0  0
  -31.3820  -14.4400   19.7710 C   0  0  0  0  0  0  0  0  0  0  0  0
  -30.8540  -12.4140   18.4540 C   0  0  0  0  0  2  0  0  0  0  0  0
  -29.7650  -12.7000   17.4020 C   0  0  0  0  0  2  0  0  0  0  0  0
  -28.3550  -12.5580   18.0090 C   0  0  0  0  0  2  0  0  0  0  0  0
  -28.2040  -13.3420   19.3370 C   0  0  0  0  0  3  0  0  0  0  0  0
  -29.3730  -13.0130   20.2890 C   0  0  0  0  0  2  0  0  0  0  0  0
  -30.6460  -13.3120   19.5970 N   0  0  0  0  0  0  0  0  0  0  0  0
  -32.2760  -14.8000   18.9980 O   0  0  0  0  0  0  0  0  0  0  0  0
  -31.1290  -15.0550   20.9290 N   0  0  0  0  0  0  0  0  0  0  0  0
  -30.4980  -14.5270   21.5140 H   0  0  0  0  0  0  0  0  0  0  0  0
  -25.9430  -13.9780   20.4030 C   0  0  0  0  0  0  0  0  0  0  0  0
  -24.8980  -13.2160   20.8520 C   0  0  0  0  0  0  0  0  0  0  0  0
  -25.2880  -11.8560   20.6530 C   0  0  0  0  0  0  0  0  0  0  0  0
  -26.9080  -13.0830   19.9680 N   0  0  0  0  0  0  0  0  0  0  0  0
  -26.5220  -11.7960   20.1690 N   0  0  0  0  0  0  0  0  0  0  0  0
  -24.5370  -10.6080   20.8420 C   0  0  0  0  0  0  0  0  0  0  0  0
  -24.9610   -9.6230   21.7620 C   0  0  0  0  0  3  0  0  0  0  0  0
  -24.2130   -8.4390   21.9380 C   0  0  0  0  0  3  0  0  0  0  0  0
  -23.0280   -8.2310   21.1940 C   0  0  0  0  0  0  0  0  0  0  0  0
  -22.6210   -9.2050   20.2640 C   0  0  0  0  0  3  0  0  0  0  0  0
  -23.3690  -10.3810   20.0860 C   0  0  0  0  0  3  0  0  0  0  0  0
  -22.2530   -7.1010   21.2800 O   0  0  0  0  0  0  0  0  0  0  0  0
  -22.0510   -6.4530   22.4720 C   0  0  0  0  0  0  0  0  0  0  0  0
  -21.5160   -7.1160   23.5980 C   0  0  0  0  0  3  0  0  0  0  0  0
  -21.2600   -6.3970   24.7830 C   0  0  0  0  0  3  0  0  0  0  0  0
  -21.5300   -5.0170   24.8420 C   0  0  0  0  0  0  0  0  0  0  0  0
  -22.0590   -4.3540   23.7200 C   0  0  0  0  0  3  0  0  0  0  0  0
  -22.3170   -5.0700   22.5380 C   0  0  0  0  0  0  0  0  0  0  0  0
  -22.8050   -4.4210   21.4530 F   0  0  0  0  0  0  0  0  0  0  0  0
  -21.2770   -4.3250   25.9770 F   0  0  0  0  0  0  0  0  0  0  0  0
  -23.5720  -13.7180   21.3490 C   0  0  0  0  0  0  0  0  0  0  0  0
  -22.9590  -13.0060   22.2880 N   0  0  0  0  0  0  0  0  0  0  0  0
  -23.0940  -14.7750   20.9400 O   0  0  0  0  0  0  0  0  0  0  0  0
  -23.3590  -12.1490   22.6400 H   0  0  0  0  0  0  0  0  0  0  0  0
  -22.0760  -13.3260   22.6620 H   0  0  0  0  0  0  0  0  0  0  0  0
  -26.1470  -15.3520   20.3130 N   0  0  0  0  0  0  0  0  0  0  0  0
  -25.4430  -16.0260   20.5960 H   0  0  0  0  0  0  0  0  0  0  0  0
  -26.9820  -15.7840   19.9370 H   0  0  0  0  0  0  0  0  0  0  0  0
  -31.0810  -23.7770   20.0590 C   0  0  0  0  0  3  0  0  0  0  0  0
  -32.5430  -23.9340   20.1670 N   0  0  0  0  0  4  0  0  0  0  0  0
  -32.7270  -24.5860   20.9100 H   0  0  0  0  0  0  0  0  0  0  0  0
  -32.9070  -24.3310   19.3210 H   0  0  0  0  0  0  0  0  0  0  0  0
  -33.0030  -23.0660   20.3640 H   0  0  0  0  0  0  0  0  0  0  0  0
  -30.4880  -25.2050   20.0060 C   0  0  0  0  0  0  0  0  0  0  0  0
  -31.1790  -26.2130   20.2290 O   0  0  0  0  0  0  0  0  0  0  0  0
  -29.0020  -25.3800   19.6360 C   0  0  0  0  0  2  0  0  0  0  0  0
  -28.8240  -26.7240   19.1990 O   0  0  0  0  0  0  0  0  0  0  0  0
  -24.7540  -31.2070   22.8830 C   0  0  0  0  0  0  0  0  0  0  0  0
  -27.5810  -27.2840   19.3340 C   0  0  0  0  0  0  0  0  0  0  0  0
  -23.5900  -29.9110   21.1230 C   0  0  0  0  0  3  0  0  0  0  0  0
  -25.0960  -28.6010   19.5370 C   0  0  0  0  0  0  0  0  0  0  0  0
  -26.0830  -30.4410   20.9210 C   0  0  0  0  0  2  0  0  0  0  0  0
  -26.2300  -29.1480   20.1500 C   0  0  0  0  0  0  0  0  0  0  0  0
  -27.4750  -28.5000   20.0390 C   0  0  0  0  0  3  0  0  0  0  0  0
  -26.4320  -26.7270   18.7320 C   0  0  0  0  0  3  0  0  0  0  0  0
  -25.1900  -27.3870   18.8270 C   0  0  0  0  0  3  0  0  0  0  0  0
  -23.8070  -29.3770   19.6800 C   0  0  0  0  0  2  0  0  0  0  0  0
  -24.8280  -30.5290   21.7020 N   0  0  0  0  0  0  0  0  0  0  0  0
  -23.6740  -31.3620   23.4670 O   0  0  0  0  0  0  0  0  0  0  0  0
  -23.0170  -28.7660   21.9870 C   0  0  0  0  0  0  0  0  0  0  0  0
  -21.7070  -28.5090   21.8420 N   0  0  0  0  0  0  0  0  0  0  0  0
  -23.7460  -28.1160   22.7410 O   0  0  0  0  0  0  0  0  0  0  0  0
  -21.1770  -29.0920   21.2110 H   0  0  0  0  0  0  0  0  0  0  0  0
  -18.4280  -27.0390   22.2030 C   0  0  0  0  0  0  0  0  0  0  0  0
  -20.9600  -27.4520   22.5220 C   0  0  0  0  0  3  0  0  0  0  0  0
  -21.1670  -26.0880   21.8250 C   0  0  0  0  0  2  0  0  0  0  0  0
  -20.0940  -25.7770   20.7750 C   0  0  0  0  0  2  0  0  0  0  0  0
  -18.7040  -25.7690   21.4150 C   0  0  0  0  0  2  0  0  0  0  0  0
  -19.4880  -27.8370   22.7090 C   0  0  0  0  0  0  0  0  0  0  0  0
  -19.1790  -29.0270   23.4040 C   0  0  0  0  0  3  0  0  0  0  0  0
  -17.8410  -29.4190   23.5980 C   0  0  0  0  0  3  0  0  0  0  0  0
  -16.7950  -28.6170   23.1080 C   0  0  0  0  0  3  0  0  0  0  0  0
  -17.0890  -27.4270   22.4170 C   0  0  0  0  0  3  0  0  0  0  0  0
  -26.0200  -31.8410   23.5440 C   0  0  0  0  0  3  0  0  0  0  0  0
  -25.6610  -33.2000   23.9690 N   0  0  0  0  0  0  0  0  0  0  0  0
  -25.9850  -34.3160   23.3020 C   0  0  0  0  0  0  0  0  0  0  0  0
  -26.6880  -34.3100   22.2870 O   0  0  0  0  0  0  0  0  0  0  0  0
  -25.0370  -33.2770   24.7580 H   0  0  0  0  0  0  0  0  0  0  0  0
  -24.2270  -36.0920   23.0160 C   0  0  0  0  0  1  0  0  0  0  0  0
  -25.4420  -35.6510   23.8470 C   0  0  0  0  0  3  0  0  0  0  0  0
  -27.5170  -36.5130   24.8390 C   0  0  0  0  0  1  0  0  0  0  0  0
  -26.4510  -36.7330   23.8640 N   0  0  0  0  0  0  0  0  0  0  0  0
  -26.0150  -37.6280   24.0670 H   0  0  0  0  0  0  0  0  0  0  0  0
  -26.5750  -31.0030   24.7590 C   0  0  1  0  0  0  0  0  0  0  0  0
  -25.4940  -30.6170   25.7950 C   0  0  0  0  0  1  0  0  0  0  0  0
  -27.2400  -29.6990   24.2610 C   0  0  0  0  0  1  0  0  0  0  0  0
  -27.6730  -31.8090   25.4940 C   0  0  0  0  0  1  0  0  0  0  0  0
  1  4  2  0
  2  5  2  0
  3  2  1  0
  3  1  1  0
  4  8  1  0
  4  7  1  0
  6  3  1  0
  9 12  1  0
 10 13  1  0
 10  9  2  0
 12 11  2  0
 12  1  1  0
 13 14  2  0
 14 15  1  0
 14 11  1  0
 16 24  1  0
 17 22  1  0
 18 19  1  0
 18 17  1  0
 20 19  1  0
 20 29  1  0
 20 21  1  0
 22 16  1  0
 22 21  1  0
 23 16  2  0
 24 13  1  0
 24 25  1  0
 26 27  2  0
 27 46  1  0
 28 31  1  0
 28 27  1  0
 29 30  1  0
 29 26  1  0
 30 28  2  0
 31 32  1  0
 32 33  2  0
 34 37  1  0
 34 33  1  0
 35 34  2  0
 36 35  1  0
 36 31  2  0
 37 38  1  0
 38 43  2  0
 38 39  1  0
 39 40  2  0
 40 41  1  0
 41 45  1  0
 42 41  2  0
 43 42  1  0
 44 43  1  0
 46 47  1  0
 47 49  1  0
 47 50  1  0
 48 46  2  0
 51 26  1  0
 51 52  1  0
 53 51  1  0
 54 59  1  0
 54 55  1  0
 54  2  1  0
 55 58  1  0
 55 56  1  0
 57 55  1  0
 59 60  2  0
 61 59  1  0
 62 64  1  0
 62 61  1  0
 63 74  2  0
 64 69  1  0
 65 73  1  0
 65 75  1  0
 66 72  1  0
 66 68  1  0
 67 73  1  0
 68 67  1  0
 69 68  2  0
 70 71  1  0
 70 64  2  0
 71 66  2  0
 72 65  1  0
 73 63  1  0
 75 77  2  0
 76 75  1  0
 78 76  1  0
 79 88  2  0
 79 84  1  0
 80 76  1  0
 80 84  1  0
 81 80  1  0
 82 83  1  0
 82 81  1  0
 83 79  1  0
 84 85  2  0
 85 86  1  0
 87 86  2  0
 88 87  1  0
 89 63  1  0
 89 90  1  0
 89 99  1  0
 90 93  1  0
 91 95  1  0
 91 90  1  0
 92 91  2  0
 95 94  1  0
 95 97  1  0
 97 98  1  0
 97 96  1  0
 99102  1  1
 99100  1  0
101 99  1  0
M  ISO  4  16 100  24 100  61 101  62 101
M  END
>  <TORSDO>  (78) 
F 21

>  <SCORE>  (78) 
-10.190

>  <name>  (78) 
77

>  <ligand_id>  (78) 
77

>  <original_smiles>  (78) 
[H]c1c([H])c([H])c2c(c1[H])C([H])([H])C([H])([H])C([H])([H])C2([H])N([H])C(=O)C1([H])N(C(=O)C([H])(N([H])C(=O)C([H])(N([H])C([H])([H])[H])C([H])([H])[H])C(C([H])([H])[H])(C([H])([H])[H])C([H])([H])[H])C([H])([H])c2c([H])c(OC([H])([H])C(=O)C([H])(C(=O)N([H])C(c3c([H])c([H])c(N([H])C(=O)N4C([H])([H])C([H])([H])C([H])([H])C([H])(n5nc(-c6c([H])c([H])c(Oc7c([H])c([H])c(F)c([H])c7F)c([H])c6[H])c(C(=O)N([H])[H])c5N([H])[H])C4([H])[H])c(F)c3[H])=[N+]([H])[H])[N+]([H])([H])[H])c([H])c([H])c2C1([H])[H]

>  <smiles>  (78) 
[H]c1c([H])c([H])c2c(c1[H])C([H])([H])C([H])([H])C([H])([H])C2([H])N([H])C(=O)C1([H])N(C(=O)C([H])(N([H])C(=O)C([H])(N([H])C([H])([H])[H])C([H])([H])[H])C(C([H])([H])[H])(C([H])([H])[H])C([H])([H])[H])C([H])([H])c2c([H])c(OC([H])([H])C(=O)C([H])(C(=O)N([H])C(c3c([H])c([H])c(N([H])C(=O)N4C([H])([H])C([H])([H])C([H])([H])C([H])(n5nc(-c6c([H])c([H])c(Oc7c([H])c([H])c(F)c([H])c7F)c([H])c6[H])c(C(=O)N([H])[H])c5N([H])[H])C4([H])[H])c(F)c3[H])=[N+]([H])[H])[N+]([H])([H])[H])c([H])c([H])c2C1([H])[H]

$$$$
78:0:0
     RDKit          3D

 97107  0  0  1  0  0  0  0  0999 V2000
  -38.2500  -14.9210   21.9620 C   0  0  0  0  0  3  0  0  0  0  0  0
  -38.1800  -15.6940   20.7860 C   0  0  0  0  0  3  0  0  0  0  0  0
  -39.0610  -13.7710   22.0130 C   0  0  0  0  0  3  0  0  0  0  0  0
  -39.6970  -14.1520   19.6890 C   0  0  0  0  0  3  0  0  0  0  0  0
  -38.9530  -15.3680   19.6420 C   0  0  0  0  0  0  0  0  0  0  0  0
  -39.7520  -13.3500   20.8610 C   0  0  0  0  0  0  0  0  0  0  0  0
  -41.4900  -10.4070   22.2050 C   0  0  0  0  0  3  0  0  0  0  0  0
  -41.1610  -11.6900   21.9930 C   0  0  0  0  0  2  0  0  0  0  0  0
  -40.0950   -9.6610   20.1670 C   0  0  0  0  0  0  0  0  0  0  0  0
  -41.0730   -9.2580   21.2960 C   0  0  0  0  0  3  0  0  0  0  0  0
  -39.9600  -11.1700   19.8620 C   0  0  0  0  0  3  0  0  0  0  0  0
  -39.4060   -8.8550   19.4370 N   0  0  0  0  0  2  0  0  0  0  0  0
  -40.4440  -12.1220   20.8860 N   0  0  0  0  0  0  0  0  0  0  0  0
  -39.7000   -7.4940   19.3480 C   0  0  0  0  0  0  0  0  0  0  0  0
  -38.4290   -5.4000   19.1190 C   0  0  0  0  0  2  0  0  0  0  0  0
  -37.3170   -5.6560   18.0790 C   0  0  0  0  0  2  0  0  0  0  0  0
  -36.0560   -6.2220   18.7670 C   0  0  0  0  0  2  0  0  0  0  0  0
  -36.3830   -7.4240   19.6970 C   0  0  0  0  0  3  0  0  0  0  0  0
  -37.5690   -7.0950   20.6310 C   0  0  0  0  0  2  0  0  0  0  0  0
  -38.7080   -6.6760   19.7980 N   0  0  0  0  0  0  0  0  0  0  0  0
  -40.6760   -7.0530   18.7420 O   0  0  0  0  0  0  0  0  0  0  0  0
  -34.7700   -7.4510   21.7020 C   0  0  0  0  0  0  0  0  0  0  0  0
  -33.6720   -8.2190   21.9820 C   0  0  0  0  0  0  0  0  0  0  0  0
  -33.4970   -9.0800   20.8580 C   0  0  0  0  0  0  0  0  0  0  0  0
  -35.2130   -7.8620   20.4540 N   0  0  0  0  0  0  0  0  0  0  0  0
  -34.4040   -8.8170   19.9280 N   0  0  0  0  0  0  0  0  0  0  0  0
  -32.5530  -10.1820   20.6390 C   0  0  0  0  0  0  0  0  0  0  0  0
  -31.2590  -10.1630   21.1990 C   0  0  0  0  0  3  0  0  0  0  0  0
  -30.3760  -11.2430   20.9930 C   0  0  0  0  0  3  0  0  0  0  0  0
  -30.7840  -12.3610   20.2260 C   0  0  0  0  0  0  0  0  0  0  0  0
  -32.0700  -12.3620   19.6560 C   0  0  0  0  0  3  0  0  0  0  0  0
  -32.9450  -11.2830   19.8560 C   0  0  0  0  0  3  0  0  0  0  0  0
  -29.9840  -13.4420   19.9480 O   0  0  0  0  0  0  0  0  0  0  0  0
  -28.6170  -13.3640   20.0260 C   0  0  0  0  0  0  0  0  0  0  0  0
  -27.9120  -13.7870   21.1750 C   0  0  0  0  0  3  0  0  0  0  0  0
  -26.5020  -13.7680   21.1870 C   0  0  0  0  0  3  0  0  0  0  0  0
  -25.7960  -13.3350   20.0490 C   0  0  0  0  0  0  0  0  0  0  0  0
  -26.4930  -12.9190   18.9010 C   0  0  0  0  0  3  0  0  0  0  0  0
  -27.8990  -12.9310   18.8950 C   0  0  0  0  0  0  0  0  0  0  0  0
  -28.5650  -12.5440   17.7810 F   0  0  0  0  0  0  0  0  0  0  0  0
  -24.4410  -13.3170   20.0600 F   0  0  0  0  0  0  0  0  0  0  0  0
  -32.8870   -8.2150   23.2600 C   0  0  0  0  0  0  0  0  0  0  0  0
  -32.8260   -9.3510   23.9460 N   0  0  0  0  0  0  0  0  0  0  0  0
  -32.2770   -7.2150   23.6350 O   0  0  0  0  0  0  0  0  0  0  0  0
  -33.2950  -10.1820   23.6190 H   0  0  0  0  0  0  0  0  0  0  0  0
  -32.2760   -9.3960   24.7930 H   0  0  0  0  0  0  0  0  0  0  0  0
  -35.4320   -6.4610   22.4170 N   0  0  0  0  0  0  0  0  0  0  0  0
  -35.1260   -6.1820   23.3420 H   0  0  0  0  0  0  0  0  0  0  0  0
  -36.2580   -5.9650   22.1110 H   0  0  0  0  0  0  0  0  0  0  0  0
  -39.8480  -17.3530   18.4310 C   0  0  0  0  0  3  0  0  0  0  0  0
  -39.2890  -18.4400   17.8700 C   0  0  0  0  0  0  0  0  0  0  0  0
  -37.9500  -18.0430   17.4980 C   0  0  0  0  0  0  0  0  0  0  0  0
  -36.9680  -18.8550   17.0630 C   0  0  0  0  0  1  0  0  0  0  0  0
  -37.7950  -16.5600   17.7520 C   0  0  0  0  0  3  0  0  0  0  0  0
  -39.0170  -16.2320   18.5100 N   0  0  0  0  0  0  0  0  0  0  0  0
  -39.8970  -19.8570   17.8640 C   0  0  0  0  0  2  0  0  0  0  0  0
  -38.9670  -20.9490   17.7320 O   0  0  0  0  0  0  0  0  0  0  0  0
  -36.2260  -26.4070   21.3610 C   0  0  0  0  0  0  0  0  0  0  0  0
  -38.4970  -21.4100   18.9320 C   0  0  0  0  0  0  0  0  0  0  0  0
  -37.2200  -24.5820   22.7090 C   0  0  0  0  0  3  0  0  0  0  0  0
  -37.7410  -22.4320   21.4470 C   0  0  0  0  0  0  0  0  0  0  0  0
  -36.1710  -24.0920   20.4250 C   0  0  0  0  0  2  0  0  0  0  0  0
  -37.1700  -22.9620   20.2800 C   0  0  0  0  0  0  0  0  0  0  0  0
  -37.5370  -22.4480   19.0170 C   0  0  0  0  0  3  0  0  0  0  0  0
  -39.0350  -20.8660   20.1120 C   0  0  0  0  0  3  0  0  0  0  0  0
  -38.6690  -21.3760   21.3720 C   0  0  0  0  0  3  0  0  0  0  0  0
  -37.2970  -23.0330   22.7630 C   0  0  0  0  0  2  0  0  0  0  0  0
  -36.5370  -25.0830   21.4680 N   0  0  0  0  0  0  0  0  0  0  0  0
  -36.4590  -27.1950   22.2870 O   0  0  0  0  0  0  0  0  0  0  0  0
  -38.6450  -25.1540   22.8980 C   0  0  0  0  0  0  0  0  0  0  0  0
  -38.7960  -26.0790   23.8610 N   0  0  0  0  0  0  0  0  0  0  0  0
  -39.5850  -24.7550   22.2070 O   0  0  0  0  0  0  0  0  0  0  0  0
  -37.9780  -26.3670   24.3790 H   0  0  0  0  0  0  0  0  0  0  0  0
  -40.2980  -29.2670   24.6520 C   0  0  0  0  0  0  0  0  0  0  0  0
  -40.0500  -26.7250   24.2460 C   0  0  0  0  0  3  0  0  0  0  0  0
  -40.3310  -26.5580   25.7590 C   0  0  0  0  0  2  0  0  0  0  0  0
  -39.8090  -27.7270   26.5990 C   0  0  0  0  0  2  0  0  0  0  0  0
  -40.4420  -29.0460   26.1470 C   0  0  0  0  0  2  0  0  0  0  0  0
  -40.1000  -28.1800   23.7610 C   0  0  0  0  0  0  0  0  0  0  0  0
  -39.9270  -28.4460   22.3840 C   0  0  0  0  0  3  0  0  0  0  0  0
  -39.9680  -29.7660   21.8960 C   0  0  0  0  0  3  0  0  0  0  0  0
  -40.1830  -30.8370   22.7810 C   0  0  0  0  0  3  0  0  0  0  0  0
  -40.3470  -30.5860   24.1550 C   0  0  0  0  0  3  0  0  0  0  0  0
  -35.5430  -26.9920   20.0800 C   0  0  0  0  0  3  0  0  0  0  0  0
  -33.9720  -26.8380   20.0890 C   0  0  1  0  0  0  0  0  0  0  0  0
  -33.4750  -25.4470   19.6460 C   0  0  0  0  0  1  0  0  0  0  0  0
  -33.4190  -27.1170   21.5060 C   0  0  0  0  0  1  0  0  0  0  0  0
  -33.3260  -27.8750   19.1430 C   0  0  0  0  0  1  0  0  0  0  0  0
  -36.1250  -26.3200   18.9070 N   0  0  0  0  0  0  0  0  0  0  0  0
  -37.2020  -26.7560   18.2440 C   0  0  0  0  0  0  0  0  0  0  0  0
  -37.7680  -27.8220   18.5050 O   0  0  0  0  0  0  0  0  0  0  0  0
  -35.7210  -25.4370   18.6370 H   0  0  0  0  0  0  0  0  0  0  0  0
  -38.3130  -26.7560   15.9930 C   0  0  0  0  0  1  0  0  0  0  0  0
  -37.7410  -25.8660   17.1080 C   0  0  0  0  0  3  0  0  0  0  0  0
  -37.1640  -24.2940   15.3150 C   0  0  0  0  0  1  0  0  0  0  0  0
  -36.7270  -24.9460   16.5480 N   0  0  0  0  0  0  0  0  0  0  0  0
  -35.8560  -25.4360   16.3580 H   0  0  0  0  0  0  0  0  0  0  0  0
  1  3  1  0
  2  1  2  0
  4  6  1  0
  5  4  2  0
  5  2  1  0
  6 13  1  0
  6  3  2  0
  8  7  1  0
  9 10  1  0
 10  7  2  0
 11  9  2  0
 11 13  1  0
 12  9  1  0
 13  8  1  0
 14 12  1  0
 14 20  1  0
 15 20  1  0
 16 17  1  0
 16 15  1  0
 18 17  1  0
 18 25  1  0
 18 19  1  0
 20 19  1  0
 21 14  2  0
 22 23  2  0
 22 47  1  0
 23 42  1  0
 24 23  1  0
 25 22  1  0
 26 25  1  0
 26 24  2  0
 27 24  1  0
 27 28  1  0
 29 28  2  0
 30 29  1  0
 31 32  1  0
 31 30  2  0
 32 27  2  0
 33 34  1  0
 33 30  1  0
 34 35  1  0
 35 36  2  0
 37 41  1  0
 37 36  1  0
 38 37  2  0
 39 38  1  0
 39 34  2  0
 40 39  1  0
 42 44  2  0
 42 43  1  0
 43 46  1  0
 45 43  1  0
 47 48  1  0
 49 47  1  0
 50 55  1  0
 51 50  2  0
 52 54  2  0
 52 51  1  0
 53 52  1  0
 54 55  1  0
 55  5  1  0
 56 51  1  0
 57 56  1  0
 57 59  1  0
 58 68  1  0
 58 69  2  0
 59 64  2  0
 59 65  1  0
 60 67  1  0
 60 70  1  0
 61 67  1  0
 62 68  1  0
 63 62  1  0
 63 61  2  0
 64 63  1  0
 65 66  2  0
 66 61  1  0
 68 60  1  0
 70 71  1  0
 71 73  1  0
 72 70  2  0
 74 78  1  0
 75 71  1  0
 75 76  1  0
 76 77  1  0
 78 77  1  0
 79 75  1  0
 79 74  2  0
 80 79  1  0
 81 80  2  0
 81 82  1  0
 82 83  2  0
 83 74  1  0
 84 85  1  0
 84 58  1  0
 85 87  1  1
 86 85  1  0
 88 85  1  0
 89 84  1  0
 90 91  2  0
 90 89  1  0
 92 89  1  0
 94 93  1  0
 94 90  1  0
 95 96  1  0
 96 94  1  0
 97 96  1  0
M  ISO  4  12 100  14 100  56 101  57 101
M  END
>  <TORSDO>  (79) 
F 19

>  <SCORE>  (79) 
-5.214

>  <name>  (79) 
78

>  <ligand_id>  (79) 
78

>  <original_smiles>  (79) 
[H]C([H])=C1C(C([H])([H])Oc2c([H])c([H])c3c(c2[H])C([H])([H])N(C(=O)C([H])(N([H])C(=O)C([H])(N([H])C([H])([H])[H])C([H])([H])[H])C(C([H])([H])[H])(C([H])([H])[H])C([H])([H])[H])C([H])(C(=O)N([H])C2([H])c4c([H])c([H])c([H])c([H])c4C([H])([H])C([H])([H])C2([H])[H])C3([H])[H])=C([H])N(c2c([H])c([H])c([H])c(N3C([H])=C([H])C([H])([H])C(=NC(=O)N4C([H])([H])C([H])([H])C([H])([H])C([H])(n5nc(-c6c([H])c([H])c(Oc7c([H])c([H])c(F)c([H])c7F)c([H])c6[H])c(C(=O)N([H])[H])c5N([H])[H])C4([H])[H])C3([H])[H])c2[H])C1([H])[H]

>  <smiles>  (79) 
[H]C([H])=C1C(C([H])([H])Oc2c([H])c([H])c3c(c2[H])C([H])([H])N(C(=O)C([H])(N([H])C(=O)C([H])(N([H])C([H])([H])[H])C([H])([H])[H])C(C([H])([H])[H])(C([H])([H])[H])C([H])([H])[H])C([H])(C(=O)N([H])C2([H])c4c([H])c([H])c([H])c([H])c4C([H])([H])C([H])([H])C2([H])[H])C3([H])[H])=C([H])N(c2c([H])c([H])c([H])c(N3C([H])=C([H])C([H])([H])C(=NC(=O)N4C([H])([H])C([H])([H])C([H])([H])C([H])(n5nc(-c6c([H])c([H])c(Oc7c([H])c([H])c(F)c([H])c7F)c([H])c6[H])c(C(=O)N([H])[H])c5N([H])[H])C4([H])[H])C3([H])[H])c2[H])C1([H])[H]

$$$$
79:0:0
     RDKit          3D

 93102  0  0  1  0  0  0  0  0999 V2000
  -29.1570  -22.5770   20.9600 C   0  0  0  0  0  3  0  0  0  0  0  0
  -28.2780  -23.5240   20.4800 C   0  0  0  0  0  0  0  0  0  0  0  0
  -27.4090  -22.7030   19.6440 C   0  0  0  0  0  0  0  0  0  0  0  0
  -26.2470  -23.0970   19.1040 C   0  0  0  0  0  1  0  0  0  0  0  0
  -27.9220  -21.2620   19.5390 C   0  0  0  0  0  3  0  0  0  0  0  0
  -29.0010  -21.2130   20.5160 N   0  0  0  0  0  0  0  0  0  0  0  0
  -32.1290  -19.0720   20.6000 C   0  0  0  0  0  3  0  0  0  0  0  0
  -31.6570  -17.7540   20.6890 C   0  0  0  0  0  3  0  0  0  0  0  0
  -29.3990  -18.6190   20.6030 C   0  0  0  0  0  3  0  0  0  0  0  0
  -31.2710  -20.1830   20.4920 C   0  0  0  0  0  0  0  0  0  0  0  0
  -29.8580  -20.0210   20.5570 C   0  0  0  0  0  0  0  0  0  0  0  0
  -30.2810  -17.4410   20.6430 C   0  0  0  0  0  0  0  0  0  0  0  0
  -31.9510  -21.5230   20.2460 C   0  0  0  0  0  1  0  0  0  0  0  0
  -30.5950  -14.8210   20.3520 C   0  0  0  0  0  0  0  0  0  0  0  0
  -30.3750  -12.5520   19.3040 C   0  0  0  0  0  2  0  0  0  0  0  0
  -29.4310  -12.6190   18.0840 C   0  0  0  0  0  2  0  0  0  0  0  0
  -27.9690  -12.4250   18.5260 C   0  0  0  0  0  2  0  0  0  0  0  0
  -27.6010  -13.3050   19.7510 C   0  0  0  0  0  3  0  0  0  0  0  0
  -28.6650  -13.2270   20.8670 C   0  0  0  0  0  2  0  0  0  0  0  0
  -29.9500  -13.6010   20.2690 N   0  0  0  0  0  0  0  0  0  0  0  0
  -31.7670  -14.8720   19.9670 O   0  0  0  0  0  0  0  0  0  0  0  0
  -29.8760  -15.9860   20.6720 N   0  0  0  0  0  0  0  0  0  0  0  0
  -28.9170  -15.8060   20.9330 H   0  0  0  0  0  0  0  0  0  0  0  0
  -25.2200  -13.8780   20.4970 C   0  0  0  0  0  0  0  0  0  0  0  0
  -24.1610  -13.0970   20.8740 C   0  0  0  0  0  0  0  0  0  0  0  0
  -24.6330  -11.7480   20.8390 C   0  0  0  0  0  0  0  0  0  0  0  0
  -26.2650  -13.0030   20.2520 N   0  0  0  0  0  0  0  0  0  0  0  0
  -25.9220  -11.7170   20.5200 N   0  0  0  0  0  0  0  0  0  0  0  0
  -23.9160  -10.4810   21.0310 C   0  0  0  0  0  0  0  0  0  0  0  0
  -24.3600   -9.5140   21.9600 C   0  0  0  0  0  3  0  0  0  0  0  0
  -23.6420   -8.3140   22.1410 C   0  0  0  0  0  3  0  0  0  0  0  0
  -22.4660   -8.0700   21.3930 C   0  0  0  0  0  0  0  0  0  0  0  0
  -22.0420   -9.0240   20.4520 C   0  0  0  0  0  3  0  0  0  0  0  0
  -22.7610  -10.2170   20.2690 C   0  0  0  0  0  3  0  0  0  0  0  0
  -21.7170   -6.9210   21.4860 O   0  0  0  0  0  0  0  0  0  0  0  0
  -21.6800   -6.1760   22.6370 C   0  0  0  0  0  0  0  0  0  0  0  0
  -21.2580   -6.7250   23.8660 C   0  0  0  0  0  3  0  0  0  0  0  0
  -21.1690   -5.9060   25.0100 C   0  0  0  0  0  3  0  0  0  0  0  0
  -21.4900   -4.5390   24.9250 C   0  0  0  0  0  0  0  0  0  0  0  0
  -21.9060   -3.9880   23.6980 C   0  0  0  0  0  3  0  0  0  0  0  0
  -21.9970   -4.8050   22.5580 C   0  0  0  0  0  0  0  0  0  0  0  0
  -22.3770   -4.2660   21.3750 F   0  0  0  0  0  0  0  0  0  0  0  0
  -21.3980   -3.7520   26.0200 F   0  0  0  0  0  0  0  0  0  0  0  0
  -22.7640  -13.5670   21.1570 C   0  0  0  0  0  0  0  0  0  0  0  0
  -22.0440  -12.8610   22.0230 N   0  0  0  0  0  0  0  0  0  0  0  0
  -22.3200  -14.5930   20.6450 O   0  0  0  0  0  0  0  0  0  0  0  0
  -22.4160  -12.0290   22.4540 H   0  0  0  0  0  0  0  0  0  0  0  0
  -21.1050  -13.1530   22.2530 H   0  0  0  0  0  0  0  0  0  0  0  0
  -25.3810  -15.2480   20.3180 N   0  0  0  0  0  0  0  0  0  0  0  0
  -24.6140  -15.9030   20.4190 H   0  0  0  0  0  0  0  0  0  0  0  0
  -26.2200  -15.6770   19.9510 H   0  0  0  0  0  0  0  0  0  0  0  0
  -27.9940  -25.0250   21.0190 C   0  0  0  0  0  2  0  0  0  0  0  0
  -28.2640  -26.3160   20.2670 O   0  0  0  0  0  0  0  0  0  0  0  0
  -24.6170  -31.8940   23.2450 C   0  0  0  0  0  0  0  0  0  0  0  0
  -27.2190  -27.2700   20.2240 C   0  0  0  0  0  0  0  0  0  0  0  0
  -23.4200  -30.4870   21.6070 C   0  0  0  0  0  3  0  0  0  0  0  0
  -24.8760  -28.9360   20.1830 C   0  0  0  0  0  0  0  0  0  0  0  0
  -25.9650  -30.7930   21.4330 C   0  0  0  0  0  2  0  0  0  0  0  0
  -26.0470  -29.4070   20.7930 C   0  0  0  0  0  0  0  0  0  0  0  0
  -27.2240  -28.5860   20.8070 C   0  0  0  0  0  3  0  0  0  0  0  0
  -26.0430  -26.8970   19.5460 C   0  0  0  0  0  3  0  0  0  0  0  0
  -24.8810  -27.6890   19.5440 C   0  0  0  0  0  3  0  0  0  0  0  0
  -23.6360  -29.8060   20.2310 C   0  0  0  0  0  2  0  0  0  0  0  0
  -24.6860  -31.0770   22.1510 N   0  0  0  0  0  0  0  0  0  0  0  0
  -23.5310  -32.1730   23.7720 O   0  0  0  0  0  0  0  0  0  0  0  0
  -22.7530  -29.4760   22.5710 C   0  0  0  0  0  0  0  0  0  0  0  0
  -21.4260  -29.3040   22.4480 N   0  0  0  0  0  0  0  0  0  0  0  0
  -23.4290  -28.8480   23.3900 O   0  0  0  0  0  0  0  0  0  0  0  0
  -20.9410  -29.8620   21.7590 H   0  0  0  0  0  0  0  0  0  0  0  0
  -18.0470  -28.1080   22.9520 C   0  0  0  0  0  0  0  0  0  0  0  0
  -20.6060  -28.3650   23.2160 C   0  0  0  0  0  3  0  0  0  0  0  0
  -20.7060  -26.9340   22.6360 C   0  0  0  0  0  2  0  0  0  0  0  0
  -19.6010  -26.6110   21.6260 C   0  0  0  0  0  2  0  0  0  0  0  0
  -18.2190  -26.7600   22.2710 C   0  0  0  0  0  2  0  0  0  0  0  0
  -19.1680  -28.8690   23.3790 C   0  0  0  0  0  0  0  0  0  0  0  0
  -18.9520  -30.1320   23.9750 C   0  0  0  0  0  3  0  0  0  0  0  0
  -17.6490  -30.6310   24.1480 C   0  0  0  0  0  3  0  0  0  0  0  0
  -16.5420  -29.8670   23.7380 C   0  0  0  0  0  3  0  0  0  0  0  0
  -16.7430  -28.6070   23.1460 C   0  0  0  0  0  3  0  0  0  0  0  0
  -25.8960  -32.5320   23.8690 C   0  0  0  0  0  3  0  0  0  0  0  0
  -25.5820  -33.9310   24.1920 N   0  0  0  0  0  0  0  0  0  0  0  0
  -25.9120  -34.9840   23.4300 C   0  0  0  0  0  0  0  0  0  0  0  0
  -26.5780  -34.8790   22.3970 O   0  0  0  0  0  0  0  0  0  0  0  0
  -25.0020  -34.0900   25.0010 H   0  0  0  0  0  0  0  0  0  0  0  0
  -24.1820  -36.7710   23.0680 C   0  0  0  0  0  1  0  0  0  0  0  0
  -25.4240  -36.3730   23.8820 C   0  0  0  0  0  3  0  0  0  0  0  0
  -27.5590  -37.2600   24.7090 C   0  0  0  0  0  1  0  0  0  0  0  0
  -26.4540  -37.4270   23.7690 N   0  0  0  0  0  0  0  0  0  0  0  0
  -26.0460  -38.3450   23.9180 H   0  0  0  0  0  0  0  0  0  0  0  0
  -26.4040  -31.7690   25.1540 C   0  0  1  0  0  0  0  0  0  0  0  0
  -25.3040  -31.5370   26.2160 C   0  0  0  0  0  1  0  0  0  0  0  0
  -26.9920  -30.3900   24.7740 C   0  0  0  0  0  1  0  0  0  0  0  0
  -27.5500  -32.5690   25.8160 C   0  0  0  0  0  1  0  0  0  0  0  0
  2  1  2  0
  2 52  1  0
  3  2  1  0
  4  3  1  0
  5  3  2  0
  5  6  1  0
  6 11  1  0
  6  1  1  0
  7  8  1  0
  9 12  1  0
 10 11  1  0
 10  7  2  0
 11  9  2  0
 12 22  1  0
 12  8  2  0
 13 10  1  0
 14 22  1  0
 15 20  1  0
 16 17  1  0
 16 15  1  0
 18 17  1  0
 18 27  1  0
 18 19  1  0
 20 14  1  0
 20 19  1  0
 21 14  2  0
 22 23  1  0
 24 25  2  0
 25 44  1  0
 26 25  1  0
 26 29  1  0
 27 24  1  0
 27 28  1  0
 28 26  2  0
 29 30  1  0
 30 31  2  0
 32 35  1  0
 32 31  1  0
 33 32  2  0
 34 33  1  0
 34 29  2  0
 35 36  1  0
 36 37  1  0
 37 38  2  0
 39 38  1  0
 39 43  1  0
 40 39  2  0
 41 36  2  0
 41 40  1  0
 42 41  1  0
 44 45  1  0
 45 48  1  0
 45 47  1  0
 46 44  2  0
 49 50  1  0
 49 24  1  0
 51 49  1  0
 53 52  1  0
 54 65  2  0
 55 53  1  0
 55 60  1  0
 56 64  1  0
 56 66  1  0
 57 63  1  0
 57 59  1  0
 58 64  1  0
 59 60  2  0
 59 58  1  0
 61 55  2  0
 62 61  1  0
 62 57  2  0
 63 56  1  0
 64 54  1  0
 66 68  2  0
 67 66  1  0
 69 67  1  0
 70 79  2  0
 70 75  1  0
 71 67  1  0
 71 75  1  0
 72 71  1  0
 73 74  1  0
 73 72  1  0
 74 70  1  0
 75 76  2  0
 76 77  1  0
 78 77  2  0
 79 78  1  0
 80 54  1  0
 80 81  1  0
 80 90  1  0
 81 84  1  0
 82 86  1  0
 82 81  1  0
 83 82  2  0
 86 85  1  0
 88 86  1  0
 88 89  1  0
 88 87  1  0
 90 93  1  1
 90 91  1  0
 92 90  1  0
M  ISO  4  14 100  22 100  52 101  53 101
M  END
>  <TORSDO>  (80) 
F 18

>  <SCORE>  (80) 
-15.070

>  <name>  (80) 
79

>  <ligand_id>  (80) 
79

>  <original_smiles>  (80) 
[H]C([H])=C1C(C([H])([H])Oc2c([H])c([H])c3c(c2[H])C([H])([H])N(C(=O)C([H])(N([H])C(=O)C([H])(N([H])C([H])([H])[H])C([H])([H])[H])C(C([H])([H])[H])(C([H])([H])[H])C([H])([H])[H])C([H])(C(=O)N([H])C2([H])c4c([H])c([H])c([H])c([H])c4C([H])([H])C([H])([H])C2([H])[H])C3([H])[H])=C([H])N(c2c([H])c(N([H])C(=O)N3C([H])([H])C([H])([H])C([H])([H])C([H])(n4nc(-c5c([H])c([H])c(Oc6c([H])c([H])c(F)c([H])c6F)c([H])c5[H])c(C(=O)N([H])[H])c4N([H])[H])C3([H])[H])c([H])c([H])c2C([H])([H])[H])C1([H])[H]

>  <smiles>  (80) 
[H]C([H])=C1C(C([H])([H])Oc2c([H])c([H])c3c(c2[H])C([H])([H])N(C(=O)C([H])(N([H])C(=O)C([H])(N([H])C([H])([H])[H])C([H])([H])[H])C(C([H])([H])[H])(C([H])([H])[H])C([H])([H])[H])C([H])(C(=O)N([H])C2([H])c4c([H])c([H])c([H])c([H])c4C([H])([H])C([H])([H])C2([H])[H])C3([H])[H])=C([H])N(c2c([H])c(N([H])C(=O)N3C([H])([H])C([H])([H])C([H])([H])C([H])(n4nc(-c5c([H])c([H])c(Oc6c([H])c([H])c(F)c([H])c6F)c([H])c5[H])c(C(=O)N([H])[H])c4N([H])[H])C3([H])[H])c([H])c([H])c2C([H])([H])[H])C1([H])[H]

$$$$
80:0:0
     RDKit          3D

100110  0  0  1  0  0  0  0  0999 V2000
  -30.5850  -20.0980   19.3250 C   0  0  0  0  0  3  0  0  0  0  0  0
  -29.3720  -18.5650   20.7670 C   0  0  0  0  0  3  0  0  0  0  0  0
  -29.5920  -19.9380   20.3030 C   0  0  0  0  0  0  0  0  0  0  0  0
  -31.2850  -19.0020   18.7930 C   0  0  0  0  0  0  0  0  0  0  0  0
  -30.0620  -17.3860   20.2240 C   0  0  0  0  0  0  0  0  0  0  0  0
  -30.9860  -17.6740   19.1800 C   0  0  0  0  0  0  0  0  0  0  0  0
  -31.5830  -16.6830   18.4800 F   0  0  0  0  0  0  0  0  0  0  0  0
  -30.5630  -14.7920   20.4480 C   0  0  0  0  0  0  0  0  0  0  0  0
  -30.3740  -12.5000   19.4610 C   0  0  0  0  0  2  0  0  0  0  0  0
  -29.4700  -12.5620   18.2110 C   0  0  0  0  0  2  0  0  0  0  0  0
  -27.9880  -12.4040   18.6000 C   0  0  0  0  0  2  0  0  0  0  0  0
  -27.5880  -13.2920   19.8090 C   0  0  0  0  0  3  0  0  0  0  0  0
  -28.6180  -13.2210   20.9540 C   0  0  0  0  0  2  0  0  0  0  0  0
  -29.9240  -13.5700   20.3850 N   0  0  0  0  0  0  0  0  0  0  0  0
  -31.7730  -14.8270   20.2180 O   0  0  0  0  0  0  0  0  0  0  0  0
  -29.8070  -15.9560   20.6300 N   0  0  0  0  0  0  0  0  0  0  0  0
  -28.8830  -15.7820   20.9950 H   0  0  0  0  0  0  0  0  0  0  0  0
  -25.1840  -13.8840   20.4650 C   0  0  0  0  0  0  0  0  0  0  0  0
  -24.1110  -13.1140   20.8220 C   0  0  0  0  0  0  0  0  0  0  0  0
  -24.5770  -11.7630   20.8240 C   0  0  0  0  0  0  0  0  0  0  0  0
  -26.2340  -13.0040   20.2690 N   0  0  0  0  0  0  0  0  0  0  0  0
  -25.8750  -11.7240   20.5490 N   0  0  0  0  0  0  0  0  0  0  0  0
  -23.8440  -10.5030   21.0160 C   0  0  0  0  0  0  0  0  0  0  0  0
  -24.2590   -9.5450   21.9690 C   0  0  0  0  0  3  0  0  0  0  0  0
  -23.5280   -8.3510   22.1480 C   0  0  0  0  0  3  0  0  0  0  0  0
  -22.3660   -8.1080   21.3760 C   0  0  0  0  0  0  0  0  0  0  0  0
  -21.9710   -9.0540   20.4130 C   0  0  0  0  0  3  0  0  0  0  0  0
  -22.7030  -10.2380   20.2320 C   0  0  0  0  0  3  0  0  0  0  0  0
  -21.6080   -6.9660   21.4640 O   0  0  0  0  0  0  0  0  0  0  0  0
  -21.5460   -6.2300   22.6220 C   0  0  0  0  0  0  0  0  0  0  0  0
  -21.1090   -6.7940   23.8410 C   0  0  0  0  0  3  0  0  0  0  0  0
  -20.9940   -5.9860   24.9890 C   0  0  0  0  0  3  0  0  0  0  0  0
  -21.3060   -4.6150   24.9200 C   0  0  0  0  0  0  0  0  0  0  0  0
  -21.7340   -4.0500   23.7060 C   0  0  0  0  0  3  0  0  0  0  0  0
  -21.8510   -4.8560   22.5590 C   0  0  0  0  0  0  0  0  0  0  0  0
  -22.2450   -4.3010   21.3870 F   0  0  0  0  0  0  0  0  0  0  0  0
  -21.1850   -3.8370   26.0210 F   0  0  0  0  0  0  0  0  0  0  0  0
  -22.7080  -13.5950   21.0510 C   0  0  0  0  0  0  0  0  0  0  0  0
  -21.9560  -12.9100   21.9060 N   0  0  0  0  0  0  0  0  0  0  0  0
  -22.2840  -14.6150   20.5070 O   0  0  0  0  0  0  0  0  0  0  0  0
  -22.3090  -12.0850   22.3670 H   0  0  0  0  0  0  0  0  0  0  0  0
  -21.0160  -13.2180   22.1060 H   0  0  0  0  0  0  0  0  0  0  0  0
  -25.3520  -15.2520   20.2690 N   0  0  0  0  0  0  0  0  0  0  0  0
  -24.5840  -15.9090   20.3580 H   0  0  0  0  0  0  0  0  0  0  0  0
  -26.1990  -15.6850   19.9250 H   0  0  0  0  0  0  0  0  0  0  0  0
  -33.3080  -18.8310   15.8070 C   0  0  0  0  0  0  0  0  0  0  0  0
  -33.6450  -19.3000   18.1040 C   0  0  0  0  0  0  0  0  0  0  0  0
  -33.5070  -18.3720   14.5630 C   0  0  0  0  0  1  0  0  0  0  0  0
  -34.2300  -19.3800   19.3120 C   0  0  0  0  0  1  0  0  0  0  0  0
  -34.3950  -19.1860   16.7970 C   0  0  0  0  0  3  0  0  0  0  0  0
  -31.9640  -18.9780   16.4680 C   0  0  0  0  0  3  0  0  0  0  0  0
  -32.2840  -19.2660   17.8530 N   0  0  0  0  0  0  0  0  0  0  0  0
  -28.5300  -22.2880   19.9640 C   0  0  0  0  0  3  0  0  0  0  0  0
  -28.6040  -23.5470   20.5050 C   0  0  0  0  0  0  0  0  0  0  0  0
  -29.2160  -23.2980   21.7890 C   0  0  0  0  0  0  0  0  0  0  0  0
  -29.5140  -24.2410   22.6960 C   0  0  0  0  0  1  0  0  0  0  0  0
  -29.4720  -21.7930   21.9760 C   0  0  0  0  0  3  0  0  0  0  0  0
  -28.9540  -21.1680   20.7500 N   0  0  0  0  0  0  0  0  0  0  0  0
  -27.9130  -24.8700   19.9200 C   0  0  0  0  0  2  0  0  0  0  0  0
  -28.2420  -26.3080   20.2690 O   0  0  0  0  0  0  0  0  0  0  0  0
  -24.6340  -31.8810   23.2450 C   0  0  0  0  0  0  0  0  0  0  0  0
  -27.1920  -27.2660   20.1640 C   0  0  0  0  0  0  0  0  0  0  0  0
  -23.4180  -30.4920   21.6100 C   0  0  0  0  0  3  0  0  0  0  0  0
  -24.8560  -28.9560   20.1530 C   0  0  0  0  0  0  0  0  0  0  0  0
  -25.9640  -30.7880   21.4210 C   0  0  0  0  0  2  0  0  0  0  0  0
  -26.0320  -29.4080   20.7660 C   0  0  0  0  0  0  0  0  0  0  0  0
  -27.2010  -28.5740   20.7700 C   0  0  0  0  0  3  0  0  0  0  0  0
  -26.0020  -26.9220   19.4760 C   0  0  0  0  0  3  0  0  0  0  0  0
  -24.8500  -27.7230   19.4940 C   0  0  0  0  0  3  0  0  0  0  0  0
  -23.6240  -29.8350   20.2210 C   0  0  0  0  0  2  0  0  0  0  0  0
  -24.6910  -31.0720   22.1470 N   0  0  0  0  0  0  0  0  0  0  0  0
  -23.5540  -32.1590   23.7870 O   0  0  0  0  0  0  0  0  0  0  0  0
  -22.7630  -29.4680   22.5690 C   0  0  0  0  0  0  0  0  0  0  0  0
  -21.4360  -29.2850   22.4520 N   0  0  0  0  0  0  0  0  0  0  0  0
  -23.4450  -28.8430   23.3840 O   0  0  0  0  0  0  0  0  0  0  0  0
  -20.9400  -29.8400   21.7680 H   0  0  0  0  0  0  0  0  0  0  0  0
  -18.0660  -28.0680   22.9630 C   0  0  0  0  0  0  0  0  0  0  0  0
  -20.6230  -28.3450   23.2280 C   0  0  0  0  0  3  0  0  0  0  0  0
  -20.7330  -26.9130   22.6570 C   0  0  0  0  0  2  0  0  0  0  0  0
  -19.6320  -26.5800   21.6460 C   0  0  0  0  0  2  0  0  0  0  0  0
  -18.2510  -26.7170   22.2920 C   0  0  0  0  0  2  0  0  0  0  0  0
  -19.1790  -28.8390   23.3880 C   0  0  0  0  0  0  0  0  0  0  0  0
  -18.9500  -30.1020   23.9770 C   0  0  0  0  0  3  0  0  0  0  0  0
  -17.6420  -30.5930   24.1450 C   0  0  0  0  0  3  0  0  0  0  0  0
  -16.5430  -29.8170   23.7360 C   0  0  0  0  0  3  0  0  0  0  0  0
  -16.7560  -28.5580   23.1490 C   0  0  0  0  0  3  0  0  0  0  0  0
  -25.9220  -32.5130   23.8560 C   0  0  0  0  0  3  0  0  0  0  0  0
  -26.4490  -31.7400   25.1280 C   0  0  1  0  0  0  0  0  0  0  0  0
  -25.3640  -31.5040   26.2060 C   0  0  0  0  0  1  0  0  0  0  0  0
  -27.0260  -30.3610   24.7380 C   0  0  0  0  0  1  0  0  0  0  0  0
  -27.6070  -32.5320   25.7810 C   0  0  0  0  0  1  0  0  0  0  0  0
  -25.6140  -33.9100   24.1920 N   0  0  0  0  0  0  0  0  0  0  0  0
  -25.9270  -34.9660   23.4280 C   0  0  0  0  0  0  0  0  0  0  0  0
  -26.5780  -34.8650   22.3840 O   0  0  0  0  0  0  0  0  0  0  0  0
  -25.0340  -34.0610   25.0050 H   0  0  0  0  0  0  0  0  0  0  0  0
  -24.1870  -36.7550   23.1140 C   0  0  0  0  0  1  0  0  0  0  0  0
  -25.4450  -36.3510   23.8970 C   0  0  0  0  0  3  0  0  0  0  0  0
  -27.5940  -37.2450   24.6830 C   0  0  0  0  0  1  0  0  0  0  0  0
  -26.4720  -37.4090   23.7650 N   0  0  0  0  0  0  0  0  0  0  0  0
  -26.0640  -38.3270   23.9200 H   0  0  0  0  0  0  0  0  0  0  0  0
  1  3  1  0
  3 58  1  0
  3  2  2  0
  4  6  1  0
  4  1  2  0
  5 16  1  0
  5  2  1  0
  6  5  2  0
  7  6  1  0
  8 16  1  0
  9 14  1  0
 10 11  1  0
 10  9  1  0
 12 11  1  0
 12 21  1  0
 12 13  1  0
 14  8  1  0
 14 13  1  0
 15  8  2  0
 16 17  1  0
 18 19  2  0
 19 20  1  0
 19 38  1  0
 20 23  1  0
 21 18  1  0
 21 22  1  0
 22 20  2  0
 23 24  1  0
 24 25  2  0
 26 29  1  0
 26 25  1  0
 27 26  2  0
 28 27  1  0
 28 23  2  0
 29 30  1  0
 30 31  1  0
 31 32  2  0
 33 32  1  0
 33 37  1  0
 34 33  2  0
 35 30  2  0
 35 34  1  0
 36 35  1  0
 38 39  1  0
 39 42  1  0
 39 41  1  0
 40 38  2  0
 43 44  1  0
 43 18  1  0
 45 43  1  0
 46 51  2  0
 46 50  1  0
 47 49  1  0
 48 46  1  0
 50 47  2  0
 51 52  1  0
 52 47  1  0
 52  4  1  0
 53 54  2  0
 53 58  1  0
 54 55  1  0
 55 57  2  0
 55 56  1  0
 58 57  1  0
 59 60  1  0
 59 54  1  0
 61 72  2  0
 62 60  1  0
 62 67  1  0
 63 71  1  0
 63 73  1  0
 64 70  1  0
 64 66  1  0
 65 71  1  0
 66 67  2  0
 66 65  1  0
 68 69  1  0
 68 62  2  0
 69 64  2  0
 70 63  1  0
 71 61  1  0
 73 75  2  0
 74 73  1  0
 76 74  1  0
 77 86  2  0
 77 82  1  0
 78 74  1  0
 78 82  1  0
 79 78  1  0
 80 81  1  0
 80 79  1  0
 81 77  1  0
 82 83  2  0
 83 84  1  0
 85 84  2  0
 86 85  1  0
 87 61  1  0
 87 92  1  0
 87 88  1  0
 88 91  1  1
 88 89  1  0
 90 88  1  0
 92 95  1  0
 93 97  1  0
 93 92  1  0
 94 93  2  0
 97 96  1  0
 99 97  1  0
 99100  1  0
 99 98  1  0
M  ISO  4   8 100  16 100  59 101  60 101
M  END
>  <TORSDO>  (81) 
F 19

>  <SCORE>  (81) 
-14.619

>  <name>  (81) 
80

>  <ligand_id>  (81) 
80

>  <original_smiles>  (81) 
[H]C([H])=C1N(c2c([H])c(N3C([H])=C(C([H])([H])Oc4c([H])c([H])c5c(c4[H])C([H])([H])N(C(=O)C([H])(N([H])C(=O)C([H])(N([H])C([H])([H])[H])C([H])([H])[H])C(C([H])([H])[H])(C([H])([H])[H])C([H])([H])[H])C([H])(C(=O)N([H])C4([H])c6c([H])c([H])c([H])c([H])c6C([H])([H])C([H])([H])C4([H])[H])C5([H])[H])C(=C([H])[H])C3([H])[H])c([H])c(N([H])C(=O)N3C([H])([H])C([H])([H])C([H])([H])C([H])(n4nc(-c5c([H])c([H])c(Oc6c([H])c([H])c(F)c([H])c6F)c([H])c5[H])c(C(=O)N([H])[H])c4N([H])[H])C3([H])[H])c2F)C([H])([H])C(=C([H])[H])C1([H])[H]

>  <smiles>  (81) 
[H]C([H])=C1N(c2c([H])c(N3C([H])=C(C([H])([H])Oc4c([H])c([H])c5c(c4[H])C([H])([H])N(C(=O)C([H])(N([H])C(=O)C([H])(N([H])C([H])([H])[H])C([H])([H])[H])C(C([H])([H])[H])(C([H])([H])[H])C([H])([H])[H])C([H])(C(=O)N([H])C4([H])c6c([H])c([H])c([H])c([H])c6C([H])([H])C([H])([H])C4([H])[H])C5([H])[H])C(=C([H])[H])C3([H])[H])c([H])c(N([H])C(=O)N3C([H])([H])C([H])([H])C([H])([H])C([H])(n4nc(-c5c([H])c([H])c(Oc6c([H])c([H])c(F)c([H])c6F)c([H])c5[H])c(C(=O)N([H])[H])c4N([H])[H])C3([H])[H])c2F)C([H])([H])C(=C([H])[H])C1([H])[H]

$$$$
81:0:0
     RDKit          3D

 96105  0  0  1  0  0  0  0  0999 V2000
  -28.5830  -22.2980   20.2690 C   0  0  0  0  0  0  0  0  0  0  0  0
  -30.7050  -22.3940   19.7550 C   0  0  0  0  0  0  0  0  0  0  0  0
  -28.7980  -23.7650   19.7420 C   0  0  2  0  0  0  0  0  0  0  0  0
  -28.1330  -23.8690   18.3590 C   0  0  0  0  0  1  0  0  0  0  0  0
  -30.2380  -23.6450   19.6040 N   0  0  0  0  0  0  0  0  0  0  0  0
  -29.7080  -21.5350   20.0880 N   0  0  0  0  0  0  0  0  0  0  0  0
  -27.5180  -21.9180   20.7660 O   0  0  0  0  0  0  0  0  0  0  0  0
  -31.9010  -22.1150   19.6450 O   0  0  0  0  0  0  0  0  0  0  0  0
  -30.8270  -24.4380   19.3940 H   0  0  0  0  0  0  0  0  0  0  0  0
  -30.9900  -19.3590   19.5960 C   0  0  0  0  0  3  0  0  0  0  0  0
  -31.1930  -17.9450   19.6910 C   0  0  0  0  0  3  0  0  0  0  0  0
  -28.9050  -19.1620   20.7320 C   0  0  0  0  0  3  0  0  0  0  0  0
  -29.0940  -17.7390   20.8310 C   0  0  0  0  0  0  0  0  0  0  0  0
  -29.8570  -20.0430   20.1410 C   0  0  0  0  0  0  0  0  0  0  0  0
  -30.2740  -17.0790   20.3430 C   0  0  0  0  0  0  0  0  0  0  0  0
  -27.9750  -16.9440   21.4870 C   0  0  0  0  0  1  0  0  0  0  0  0
  -30.9620  -14.6580   19.7310 C   0  0  0  0  0  0  0  0  0  0  0  0
  -30.5380  -12.4570   18.6110 C   0  0  0  0  0  2  0  0  0  0  0  0
  -29.5150  -12.6010   17.4660 C   0  0  0  0  0  2  0  0  0  0  0  0
  -28.0790  -12.4710   18.0060 C   0  0  0  0  0  2  0  0  0  0  0  0
  -27.8360  -13.3280   19.2760 C   0  0  0  0  0  3  0  0  0  0  0  0
  -28.9740  -13.1640   20.3070 C   0  0  0  0  0  2  0  0  0  0  0  0
  -30.2450  -13.4840   19.6380 N   0  0  0  0  0  0  0  0  0  0  0  0
  -31.9950  -14.8000   19.0690 O   0  0  0  0  0  0  0  0  0  0  0  0
  -31.0220  -15.3680   21.9970 C   0  0  0  0  0  1  0  0  0  0  0  0
  -30.5570  -15.6420   20.6230 N   0  0  0  0  0  0  0  0  0  0  0  0
  -25.5470  -13.9610   20.2560 C   0  0  0  0  0  0  0  0  0  0  0  0
  -24.4860  -13.2060   20.6750 C   0  0  0  0  0  0  0  0  0  0  0  0
  -24.8840  -11.8430   20.5130 C   0  0  0  0  0  0  0  0  0  0  0  0
  -26.5260  -13.0600   19.8660 N   0  0  0  0  0  0  0  0  0  0  0  0
  -26.1360  -11.7770   20.0780 N   0  0  0  0  0  0  0  0  0  0  0  0
  -24.1220  -10.6000   20.6930 C   0  0  0  0  0  0  0  0  0  0  0  0
  -24.5130   -9.6220   21.6330 C   0  0  0  0  0  3  0  0  0  0  0  0
  -23.7510   -8.4450   21.8020 C   0  0  0  0  0  3  0  0  0  0  0  0
  -22.5850   -8.2360   21.0290 C   0  0  0  0  0  0  0  0  0  0  0  0
  -22.2140   -9.2020   20.0770 C   0  0  0  0  0  3  0  0  0  0  0  0
  -22.9770  -10.3690   19.9060 C   0  0  0  0  0  3  0  0  0  0  0  0
  -21.8020   -7.1080   21.1030 O   0  0  0  0  0  0  0  0  0  0  0  0
  -21.6150   -6.4380   22.2850 C   0  0  0  0  0  0  0  0  0  0  0  0
  -21.0830   -7.0750   23.4280 C   0  0  0  0  0  3  0  0  0  0  0  0
  -20.8430   -6.3310   24.6000 C   0  0  0  0  0  3  0  0  0  0  0  0
  -21.1260   -4.9540   24.6320 C   0  0  0  0  0  0  0  0  0  0  0  0
  -21.6510   -4.3170   23.4940 C   0  0  0  0  0  3  0  0  0  0  0  0
  -21.8940   -5.0560   22.3240 C   0  0  0  0  0  0  0  0  0  0  0  0
  -22.3790   -4.4330   21.2230 F   0  0  0  0  0  0  0  0  0  0  0  0
  -20.8910   -4.2370   25.7560 F   0  0  0  0  0  0  0  0  0  0  0  0
  -23.1440  -13.7160   21.1110 C   0  0  0  0  0  0  0  0  0  0  0  0
  -22.4920  -13.0190   22.0360 N   0  0  0  0  0  0  0  0  0  0  0  0
  -22.6840  -14.7660   20.6620 O   0  0  0  0  0  0  0  0  0  0  0  0
  -22.8780  -12.1700   22.4200 H   0  0  0  0  0  0  0  0  0  0  0  0
  -21.5970  -13.3460   22.3700 H   0  0  0  0  0  0  0  0  0  0  0  0
  -25.7590  -15.3330   20.1570 N   0  0  0  0  0  0  0  0  0  0  0  0
  -25.0450  -16.0070   20.4070 H   0  0  0  0  0  0  0  0  0  0  0  0
  -26.6000  -15.7600   19.7920 H   0  0  0  0  0  0  0  0  0  0  0  0
  -28.3370  -25.0340   20.6250 C   0  0  0  0  0  2  0  0  0  0  0  0
  -28.4600  -26.4250   20.0890 O   0  0  0  0  0  0  0  0  0  0  0  0
  -24.5090  -31.7370   22.9810 C   0  0  0  0  0  0  0  0  0  0  0  0
  -27.3100  -27.2300   20.0390 C   0  0  0  0  0  0  0  0  0  0  0  0
  -23.3590  -30.2450   21.3800 C   0  0  0  0  0  3  0  0  0  0  0  0
  -24.8730  -28.7310   19.9770 C   0  0  0  0  0  0  0  0  0  0  0  0
  -25.8740  -30.6870   21.1610 C   0  0  0  0  0  2  0  0  0  0  0  0
  -26.0190  -29.2930   20.5560 C   0  0  0  0  0  0  0  0  0  0  0  0
  -27.2410  -28.5560   20.5710 C   0  0  0  0  0  3  0  0  0  0  0  0
  -26.1450  -26.7220   19.4260 C   0  0  0  0  0  3  0  0  0  0  0  0
  -24.9410  -27.4520   19.3960 C   0  0  0  0  0  3  0  0  0  0  0  0
  -23.5950  -29.5460   20.0140 C   0  0  0  0  0  2  0  0  0  0  0  0
  -24.5990  -30.9100   21.8990 N   0  0  0  0  0  0  0  0  0  0  0  0
  -23.4180  -31.9740   23.5210 O   0  0  0  0  0  0  0  0  0  0  0  0
  -22.7500  -29.2230   22.3710 C   0  0  0  0  0  0  0  0  0  0  0  0
  -21.4320  -28.9860   22.2650 N   0  0  0  0  0  0  0  0  0  0  0  0
  -23.4640  -28.6430   23.1940 O   0  0  0  0  0  0  0  0  0  0  0  0
  -20.9110  -29.5060   21.5730 H   0  0  0  0  0  0  0  0  0  0  0  0
  -18.1120  -27.6690   22.8450 C   0  0  0  0  0  0  0  0  0  0  0  0
  -20.6630  -28.0290   23.0650 C   0  0  0  0  0  3  0  0  0  0  0  0
  -20.8090  -26.5930   22.5080 C   0  0  0  0  0  2  0  0  0  0  0  0
  -19.7030  -26.2160   21.5180 C   0  0  0  0  0  2  0  0  0  0  0  0
  -18.3280  -26.3170   22.1850 C   0  0  0  0  0  2  0  0  0  0  0  0
  -19.2090  -28.4790   23.2430 C   0  0  0  0  0  0  0  0  0  0  0  0
  -18.9530  -29.7410   23.8210 C   0  0  0  0  0  3  0  0  0  0  0  0
  -17.6330  -30.1950   24.0060 C   0  0  0  0  0  3  0  0  0  0  0  0
  -16.5510  -29.3840   23.6210 C   0  0  0  0  0  3  0  0  0  0  0  0
  -16.7920  -28.1220   23.0480 C   0  0  0  0  0  3  0  0  0  0  0  0
  -25.7650  -32.4410   23.5790 C   0  0  0  0  0  3  0  0  0  0  0  0
  -25.3740  -33.8080   23.9510 N   0  0  0  0  0  0  0  0  0  0  0  0
  -25.6040  -34.8960   23.2010 C   0  0  0  0  0  0  0  0  0  0  0  0
  -26.2350  -34.8560   22.1420 O   0  0  0  0  0  0  0  0  0  0  0  0
  -24.8040  -33.9070   24.7780 H   0  0  0  0  0  0  0  0  0  0  0  0
  -23.7430  -36.5730   22.9540 C   0  0  0  0  0  1  0  0  0  0  0  0
  -25.0420  -36.2400   23.7050 C   0  0  0  0  0  3  0  0  0  0  0  0
  -27.1460  -37.2560   24.4620 C   0  0  0  0  0  1  0  0  0  0  0  0
  -25.9940  -37.3650   23.5710 N   0  0  0  0  0  0  0  0  0  0  0  0
  -25.5320  -38.2530   23.7540 H   0  0  0  0  0  0  0  0  0  0  0  0
  -26.3710  -31.6800   24.8220 C   0  0  1  0  0  0  0  0  0  0  0  0
  -25.3250  -31.3250   25.9040 C   0  0  0  0  0  1  0  0  0  0  0  0
  -27.0540  -30.3660   24.3780 C   0  0  0  0  0  1  0  0  0  0  0  0
  -27.4680  -32.5470   25.4830 C   0  0  0  0  0  1  0  0  0  0  0  0
  1  7  2  0
  2  6  1  0
  3  4  1  6
  3  1  1  0
  3 55  1  0
  5  3  1  0
  5  2  1  0
  6 14  1  0
  6  1  1  0
  8  2  2  0
  9  5  1  0
 10 11  2  0
 10 14  1  0
 11 15  1  0
 12 13  1  0
 13 16  1  0
 14 12  2  0
 15 26  1  0
 15 13  2  0
 17 26  1  0
 18 23  1  0
 19 20  1  0
 19 18  1  0
 21 20  1  0
 21 30  1  0
 21 22  1  0
 23 17  1  0
 23 22  1  0
 24 17  2  0
 26 25  1  0
 27 28  2  0
 28 47  1  0
 29 28  1  0
 29 32  1  0
 30 31  1  0
 30 27  1  0
 31 29  2  0
 32 33  1  0
 33 34  2  0
 35 38  1  0
 35 34  1  0
 36 35  2  0
 37 36  1  0
 37 32  2  0
 38 39  1  0
 39 44  2  0
 39 40  1  0
 40 41  2  0
 41 42  1  0
 42 46  1  0
 43 42  2  0
 44 43  1  0
 45 44  1  0
 47 48  1  0
 48 51  1  0
 48 50  1  0
 49 47  2  0
 52 27  1  0
 52 53  1  0
 54 52  1  0
 56 55  1  0
 57 68  2  0
 58 56  1  0
 58 63  1  0
 59 67  1  0
 59 69  1  0
 60 66  1  0
 60 62  1  0
 61 67  1  0
 62 63  2  0
 62 61  1  0
 64 58  2  0
 65 64  1  0
 65 60  2  0
 66 59  1  0
 67 57  1  0
 69 71  2  0
 70 69  1  0
 72 70  1  0
 73 82  2  0
 73 78  1  0
 74 70  1  0
 74 78  1  0
 75 74  1  0
 76 77  1  0
 76 75  1  0
 77 73  1  0
 78 79  2  0
 79 80  1  0
 81 80  2  0
 82 81  1  0
 83 57  1  0
 83 84  1  0
 83 93  1  0
 84 87  1  0
 85 89  1  0
 85 84  1  0
 86 85  2  0
 89 88  1  0
 91 89  1  0
 91 92  1  0
 91 90  1  0
 93 96  1  1
 93 94  1  0
 95 93  1  0
M  ISO  4  17 100  26 100  55 101  56 101
M  END
>  <TORSDO>  (82) 
F 18

>  <SCORE>  (82) 
-11.824

>  <name>  (82) 
81

>  <ligand_id>  (82) 
81

>  <original_smiles>  (82) 
[H]c1c([H])c([H])c2c(c1[H])C([H])([H])C([H])([H])C([H])([H])C2([H])N([H])C(=O)C1([H])N(C(=O)C([H])(N([H])C(=O)C([H])(N([H])C([H])([H])[H])C([H])([H])[H])C(C([H])([H])[H])(C([H])([H])[H])C([H])([H])[H])C([H])([H])c2c([H])c(OC([H])([H])C3(C([H])([H])[H])C(=O)N(c4c([H])c([H])c(N(C(=O)N5C([H])([H])C([H])([H])C([H])([H])C([H])(n6nc(-c7c([H])c([H])c(Oc8c([H])c([H])c(F)c([H])c8F)c([H])c7[H])c(C(=O)N([H])[H])c6N([H])[H])C5([H])[H])C([H])([H])[H])c(C([H])([H])[H])c4[H])C(=O)N3[H])c([H])c([H])c2C1([H])[H]

>  <smiles>  (82) 
[H]c1c([H])c([H])c2c(c1[H])C([H])([H])C([H])([H])C([H])([H])C2([H])N([H])C(=O)C1([H])N(C(=O)C([H])(N([H])C(=O)C([H])(N([H])C([H])([H])[H])C([H])([H])[H])C(C([H])([H])[H])(C([H])([H])[H])C([H])([H])[H])C([H])([H])c2c([H])c(OC([H])([H])C3(C([H])([H])[H])C(=O)N(c4c([H])c([H])c(N(C(=O)N5C([H])([H])C([H])([H])C([H])([H])C([H])(n6nc(-c7c([H])c([H])c(Oc8c([H])c([H])c(F)c([H])c8F)c([H])c7[H])c(C(=O)N([H])[H])c6N([H])[H])C5([H])[H])C([H])([H])[H])c(C([H])([H])[H])c4[H])C(=O)N3[H])c([H])c([H])c2C1([H])[H]

$$$$
82:0:0
     RDKit          3D

100109  0  0  1  0  0  0  0  0999 V2000
  -29.4920  -20.2340   19.7110 C   0  0  0  0  0  3  0  0  0  0  0  0
  -29.8500  -20.4070   22.0620 C   0  0  0  0  0  3  0  0  0  0  0  0
  -30.2880  -18.2480   20.9420 C   0  0  0  0  0  0  0  0  0  0  0  0
  -29.5020  -21.0720   20.8600 C   0  0  0  0  0  0  0  0  0  0  0  0
  -29.8600  -18.8550   19.7220 C   0  0  0  0  0  0  0  0  0  0  0  0
  -30.2470  -19.0500   22.1100 C   0  0  0  0  0  0  0  0  0  0  0  0
  -30.6230  -18.5350   23.3080 F   0  0  0  0  0  0  0  0  0  0  0  0
  -31.0350  -14.6630   20.1030 C   0  0  0  0  0  0  0  0  0  0  0  0
  -30.6190  -12.5210   18.9340 C   0  0  0  0  0  2  0  0  0  0  0  0
  -29.6130  -12.7250   17.7850 C   0  0  0  0  0  2  0  0  0  0  0  0
  -28.1700  -12.5730   18.3050 C   0  0  0  0  0  2  0  0  0  0  0  0
  -27.9030  -13.4000   19.5920 C   0  0  0  0  0  3  0  0  0  0  0  0
  -29.0300  -13.2090   20.6330 C   0  0  0  0  0  2  0  0  0  0  0  0
  -30.3030  -13.5200   19.9710 N   0  0  0  0  0  0  0  0  0  0  0  0
  -32.1590  -14.7480   19.6030 O   0  0  0  0  0  0  0  0  0  0  0  0
  -31.0190  -16.9090   20.9960 C   0  0  0  0  0  0  0  0  0  0  0  0
  -30.4010  -15.7630   20.5990 N   0  0  0  0  0  0  0  0  0  0  0  0
  -32.1910  -16.9310   21.3910 O   0  0  0  0  0  0  0  0  0  0  0  0
  -29.3970  -15.7360   20.6510 H   0  0  0  0  0  0  0  0  0  0  0  0
  -25.5710  -13.9810   20.5020 C   0  0  0  0  0  0  0  0  0  0  0  0
  -24.5230  -13.1970   20.9060 C   0  0  0  0  0  0  0  0  0  0  0  0
  -24.9690  -11.8460   20.7810 C   0  0  0  0  0  0  0  0  0  0  0  0
  -26.5890  -13.1060   20.1560 N   0  0  0  0  0  0  0  0  0  0  0  0
  -26.2370  -11.8130   20.3830 N   0  0  0  0  0  0  0  0  0  0  0  0
  -24.2440  -10.5810   20.9600 C   0  0  0  0  0  0  0  0  0  0  0  0
  -24.6790   -9.6060   21.8860 C   0  0  0  0  0  3  0  0  0  0  0  0
  -23.9530   -8.4070   22.0550 C   0  0  0  0  0  3  0  0  0  0  0  0
  -22.7810   -8.1750   21.2980 C   0  0  0  0  0  0  0  0  0  0  0  0
  -22.3650   -9.1390   20.3630 C   0  0  0  0  0  3  0  0  0  0  0  0
  -23.0900  -10.3290   20.1920 C   0  0  0  0  0  3  0  0  0  0  0  0
  -22.0270   -7.0290   21.3780 O   0  0  0  0  0  0  0  0  0  0  0  0
  -21.9020   -6.3280   22.5510 C   0  0  0  0  0  0  0  0  0  0  0  0
  -21.3650   -6.9150   23.7170 C   0  0  0  0  0  3  0  0  0  0  0  0
  -21.1920   -6.1390   24.8790 C   0  0  0  0  0  3  0  0  0  0  0  0
  -21.5440   -4.7770   24.8770 C   0  0  0  0  0  0  0  0  0  0  0  0
  -22.0750   -4.1890   23.7140 C   0  0  0  0  0  3  0  0  0  0  0  0
  -22.2500   -4.9620   22.5530 C   0  0  0  0  0  0  0  0  0  0  0  0
  -22.7420   -4.3860   21.4300 F   0  0  0  0  0  0  0  0  0  0  0  0
  -21.3700   -4.0290   25.9910 F   0  0  0  0  0  0  0  0  0  0  0  0
  -23.1530  -13.6720   21.2940 C   0  0  0  0  0  0  0  0  0  0  0  0
  -22.4860  -12.9530   22.1900 N   0  0  0  0  0  0  0  0  0  0  0  0
  -22.6850  -14.7130   20.8350 O   0  0  0  0  0  0  0  0  0  0  0  0
  -22.8810  -12.1110   22.5810 H   0  0  0  0  0  0  0  0  0  0  0  0
  -21.5680  -13.2510   22.4900 H   0  0  0  0  0  0  0  0  0  0  0  0
  -25.7350  -15.3560   20.3810 N   0  0  0  0  0  0  0  0  0  0  0  0
  -24.9780  -16.0030   20.5790 H   0  0  0  0  0  0  0  0  0  0  0  0
  -26.5480  -15.8120   19.9840 H   0  0  0  0  0  0  0  0  0  0  0  0
  -28.9660  -24.4640   21.0430 C   0  0  0  0  0  0  0  0  0  0  0  0
  -29.2500  -23.5760   19.9360 C   0  0  0  0  0  0  0  0  0  0  0  0
  -28.7390  -25.7990   21.1780 C   0  0  0  0  0  3  0  0  0  0  0  0
  -29.0320  -23.3030   22.0240 C   0  0  0  0  0  2  0  0  0  0  0  0
  -29.1750  -22.4810   20.8140 N   0  0  0  0  0  0  0  0  0  0  0  0
  -29.5250  -23.7810   18.7710 O   0  0  0  0  0  0  0  0  0  0  0  0
  -28.7250  -26.7600   20.1850 O   0  0  0  0  0  0  0  0  0  0  0  0
  -24.7320  -31.8860   23.1920 C   0  0  0  0  0  0  0  0  0  0  0  0
  -27.5890  -27.5410   20.1450 C   0  0  0  0  0  0  0  0  0  0  0  0
  -23.6210  -30.4760   21.4910 C   0  0  0  0  0  3  0  0  0  0  0  0
  -25.1650  -29.0000   20.0880 C   0  0  0  0  0  0  0  0  0  0  0  0
  -26.1430  -30.9010   21.3840 C   0  0  0  0  0  2  0  0  0  0  0  0
  -26.2900  -29.5420   20.7260 C   0  0  0  0  0  0  0  0  0  0  0  0
  -27.5090  -28.8190   20.7520 C   0  0  0  0  0  3  0  0  0  0  0  0
  -26.4530  -27.0220   19.4970 C   0  0  0  0  0  3  0  0  0  0  0  0
  -25.2440  -27.7420   19.4660 C   0  0  0  0  0  3  0  0  0  0  0  0
  -23.8950  -29.8230   20.1080 C   0  0  0  0  0  2  0  0  0  0  0  0
  -24.8460  -31.1010   22.0810 N   0  0  0  0  0  0  0  0  0  0  0  0
  -23.6270  -32.1210   23.7000 O   0  0  0  0  0  0  0  0  0  0  0  0
  -22.9680  -29.4210   22.4150 C   0  0  0  0  0  0  0  0  0  0  0  0
  -21.6480  -29.2240   22.2600 N   0  0  0  0  0  0  0  0  0  0  0  0
  -23.6450  -28.7850   23.2250 O   0  0  0  0  0  0  0  0  0  0  0  0
  -21.1620  -29.7920   21.5800 H   0  0  0  0  0  0  0  0  0  0  0  0
  -18.2790  -27.9870   22.6840 C   0  0  0  0  0  0  0  0  0  0  0  0
  -20.8310  -28.2560   22.9910 C   0  0  0  0  0  3  0  0  0  0  0  0
  -20.9500  -26.8430   22.3720 C   0  0  0  0  0  2  0  0  0  0  0  0
  -19.8610  -26.5440   21.3360 C   0  0  0  0  0  2  0  0  0  0  0  0
  -18.4720  -26.6590   21.9710 C   0  0  0  0  0  2  0  0  0  0  0  0
  -19.3870  -28.7440   23.1500 C   0  0  0  0  0  0  0  0  0  0  0  0
  -19.1500  -29.9870   23.7750 C   0  0  0  0  0  3  0  0  0  0  0  0
  -17.8400  -30.4730   23.9400 C   0  0  0  0  0  3  0  0  0  0  0  0
  -16.7470  -29.7110   23.4920 C   0  0  0  0  0  3  0  0  0  0  0  0
  -16.9670  -28.4700   22.8690 C   0  0  0  0  0  3  0  0  0  0  0  0
  -25.9800  -32.5410   23.8630 C   0  0  0  0  0  3  0  0  0  0  0  0
  -26.4630  -31.7770   25.1560 C   0  0  1  0  0  0  0  0  0  0  0  0
  -25.3350  -31.5170   26.1810 C   0  0  0  0  0  1  0  0  0  0  0  0
  -27.0890  -30.4120   24.7840 C   0  0  0  0  0  1  0  0  0  0  0  0
  -27.5710  -32.5920   25.8630 C   0  0  0  0  0  1  0  0  0  0  0  0
  -25.6330  -33.9310   24.1800 N   0  0  0  0  0  0  0  0  0  0  0  0
  -25.9600  -34.9890   23.4260 C   0  0  0  0  0  0  0  0  0  0  0  0
  -26.6580  -34.8970   22.4110 O   0  0  0  0  0  0  0  0  0  0  0  0
  -25.0150  -34.0750   24.9660 H   0  0  0  0  0  0  0  0  0  0  0  0
  -24.1960  -36.7340   23.0200 C   0  0  0  0  0  1  0  0  0  0  0  0
  -25.4280  -36.3660   23.8620 C   0  0  0  0  0  3  0  0  0  0  0  0
  -27.5230  -37.3080   24.7340 C   0  0  0  0  0  1  0  0  0  0  0  0
  -26.4360  -37.4450   23.7680 N   0  0  0  0  0  0  0  0  0  0  0  0
  -26.0040  -38.3560   23.9030 H   0  0  0  0  0  0  0  0  0  0  0  0
  -29.8220  -18.1260   18.5160 N   0  0  0  0  0  0  0  0  0  0  0  0
  -29.7780  -17.1200   18.5970 H   0  0  0  0  0  0  0  0  0  0  0  0
  -31.8040  -19.5290   17.1550 C   0  0  0  0  0  1  0  0  0  0  0  0
  -30.5300  -17.3570   16.2020 O   0  0  0  0  0  0  0  0  0  0  0  0
  -29.1890  -19.5170   16.4570 O   0  0  0  0  0  0  0  0  0  0  0  0
  -30.2520  -18.6100   16.9200 S   0  0  1  0  0  0  0  0  0  0  0  0
  1  5  2  0
  1  4  1  0
  2  6  1  0
  3 16  1  0
  3  6  2  0
  4  2  2  0
  5  3  1  0
  6  7  1  0
  8 17  1  0
  9 14  1  0
 10 11  1  0
 10  9  1  0
 12 11  1  0
 12 23  1  0
 12 13  1  0
 14  8  1  0
 14 13  1  0
 15  8  2  0
 16 18  2  0
 17 19  1  0
 17 16  1  0
 20 21  2  0
 21 40  1  0
 22 21  1  0
 22 25  1  0
 23 24  1  0
 23 20  1  0
 24 22  2  0
 25 26  1  0
 26 27  2  0
 28 31  1  0
 28 27  1  0
 29 28  2  0
 30 29  1  0
 30 25  2  0
 31 32  1  0
 32 37  2  0
 32 33  1  0
 33 34  2  0
 35 34  1  0
 35 39  1  0
 36 35  2  0
 37 36  1  0
 38 37  1  0
 40 41  1  0
 41 44  1  0
 41 43  1  0
 42 40  2  0
 45 20  1  0
 45 46  1  0
 47 45  1  0
 48 50  2  0
 48 51  1  0
 49 52  1  0
 49 48  1  0
 52  4  1  0
 52 51  1  0
 53 49  2  0
 54 50  1  0
 55 66  2  0
 56 54  1  0
 56 61  1  0
 57 65  1  0
 57 67  1  0
 58 64  1  0
 58 60  1  0
 59 65  1  0
 60 61  2  0
 60 59  1  0
 62 56  2  0
 63 62  1  0
 63 58  2  0
 64 57  1  0
 65 55  1  0
 67 69  2  0
 68 67  1  0
 70 68  1  0
 71 80  2  0
 71 76  1  0
 72 68  1  0
 72 76  1  0
 73 72  1  0
 74 75  1  0
 74 73  1  0
 75 71  1  0
 76 77  2  0
 77 78  1  0
 79 78  2  0
 80 79  1  0
 81 55  1  0
 81 86  1  0
 81 82  1  0
 82 85  1  1
 82 83  1  0
 84 82  1  0
 86 89  1  0
 87 91  1  0
 87 86  1  0
 88 87  2  0
 91 90  1  0
 93 91  1  0
 93 94  1  0
 93 92  1  0
 95 96  1  0
 95  5  1  0
 98100  2  0
 99100  2  0
100 97  1  1
100 95  1  0
M  ISO  4   8 100  17 100  50 101  54 101
M  END
>  <TORSDO>  (83) 
F 19

>  <SCORE>  (83) 
-12.840

>  <name>  (83) 
82

>  <ligand_id>  (83) 
82

>  <original_smiles>  (83) 
[H]C(Oc1c([H])c([H])c2c(c1[H])C([H])([H])N(C(=O)C([H])(N([H])C(=O)C([H])(N([H])C([H])([H])[H])C([H])([H])[H])C(C([H])([H])[H])(C([H])([H])[H])C([H])([H])[H])C([H])(C(=O)N([H])C1([H])c3c([H])c([H])c([H])c([H])c3C([H])([H])C([H])([H])C1([H])[H])C2([H])[H])=C1C(=O)N(c2c([H])c(F)c(C(=O)N([H])C(=O)N3C([H])([H])C([H])([H])C([H])([H])C([H])(n4nc(-c5c([H])c([H])c(Oc6c([H])c([H])c(F)c([H])c6F)c([H])c5[H])c(C(=O)N([H])[H])c4N([H])[H])C3([H])[H])c(N([H])S(=O)(=O)C([H])([H])[H])c2[H])C1([H])[H]

>  <smiles>  (83) 
[H]C(Oc1c([H])c([H])c2c(c1[H])C([H])([H])N(C(=O)C([H])(N([H])C(=O)C([H])(N([H])C([H])([H])[H])C([H])([H])[H])C(C([H])([H])[H])(C([H])([H])[H])C([H])([H])[H])C([H])(C(=O)N([H])C1([H])c3c([H])c([H])c([H])c([H])c3C([H])([H])C([H])([H])C1([H])[H])C2([H])[H])=C1C(=O)N(c2c([H])c(F)c(C(=O)N([H])C(=O)N3C([H])([H])C([H])([H])C([H])([H])C([H])(n4nc(-c5c([H])c([H])c(Oc6c([H])c([H])c(F)c([H])c6F)c([H])c5[H])c(C(=O)N([H])[H])c4N([H])[H])C3([H])[H])c(N([H])S(=O)(=O)C([H])([H])[H])c2[H])C1([H])[H]

$$$$
83:0:0
     RDKit          3D

 96104  0  0  1  0  0  0  0  0999 V2000
  -29.1550  -22.6420   20.6680 C   0  0  0  0  0  3  0  0  0  0  0  0
  -27.9760  -22.1270   21.5340 C   0  0  0  0  0  0  0  0  0  0  0  0
  -28.1480  -22.0900   22.8480 N   0  0  0  0  0  0  0  0  0  0  0  0
  -26.9240  -21.7690   21.0100 O   0  0  0  0  0  0  0  0  0  0  0  0
  -29.0270  -22.3730   23.2580 H   0  0  0  0  0  0  0  0  0  0  0  0
  -27.4110  -21.7570   23.4520 H   0  0  0  0  0  0  0  0  0  0  0  0
  -28.9790  -24.1980   20.1890 C   0  0  0  0  0  3  0  0  0  0  0  0
  -28.6170  -25.5150   20.5520 C   0  0  0  0  0  3  0  0  0  0  0  0
  -28.5980  -26.7220   19.7970 O   0  0  0  0  0  0  0  0  0  0  0  0
  -24.6740  -31.9020   23.1390 C   0  0  0  0  0  0  0  0  0  0  0  0
  -27.4780  -27.5780   19.8740 C   0  0  0  0  0  0  0  0  0  0  0  0
  -23.5340  -30.5330   21.4300 C   0  0  0  0  0  3  0  0  0  0  0  0
  -25.0510  -29.1120   19.9350 C   0  0  0  0  0  0  0  0  0  0  0  0
  -26.0590  -30.9650   21.2620 C   0  0  0  0  0  2  0  0  0  0  0  0
  -26.2030  -29.6160   20.5570 C   0  0  0  0  0  0  0  0  0  0  0  0
  -27.4220  -28.8620   20.5180 C   0  0  0  0  0  3  0  0  0  0  0  0
  -26.3020  -27.1370   19.2350 C   0  0  0  0  0  3  0  0  0  0  0  0
  -25.1050  -27.8790   19.2640 C   0  0  0  0  0  3  0  0  0  0  0  0
  -23.7800  -29.9340   20.0200 C   0  0  0  0  0  2  0  0  0  0  0  0
  -24.7750  -31.1520   22.0020 N   0  0  0  0  0  0  0  0  0  0  0  0
  -23.5810  -32.1040   23.6870 O   0  0  0  0  0  0  0  0  0  0  0  0
  -22.9170  -29.4450   22.3400 C   0  0  0  0  0  0  0  0  0  0  0  0
  -21.5950  -29.2290   22.2200 N   0  0  0  0  0  0  0  0  0  0  0  0
  -23.6250  -28.7990   23.1170 O   0  0  0  0  0  0  0  0  0  0  0  0
  -21.0790  -29.8070   21.5710 H   0  0  0  0  0  0  0  0  0  0  0  0
  -18.2610  -27.9160   22.7270 C   0  0  0  0  0  0  0  0  0  0  0  0
  -20.8200  -28.2200   22.9460 C   0  0  0  0  0  3  0  0  0  0  0  0
  -20.9390  -26.8340   22.2700 C   0  0  0  0  0  2  0  0  0  0  0  0
  -19.8160  -26.5540   21.2670 C   0  0  0  0  0  2  0  0  0  0  0  0
  -18.4500  -26.6220   21.9550 C   0  0  0  0  0  2  0  0  0  0  0  0
  -19.3730  -28.6750   23.1790 C   0  0  0  0  0  0  0  0  0  0  0  0
  -19.1410  -29.8880   23.8630 C   0  0  0  0  0  3  0  0  0  0  0  0
  -17.8300  -30.3430   24.0980 C   0  0  0  0  0  3  0  0  0  0  0  0
  -16.7330  -29.5790   23.6610 C   0  0  0  0  0  3  0  0  0  0  0  0
  -16.9490  -28.3670   22.9810 C   0  0  0  0  0  3  0  0  0  0  0  0
  -25.9270  -32.5620   23.7920 C   0  0  0  0  0  3  0  0  0  0  0  0
  -26.4510  -31.7800   25.0590 C   0  0  1  0  0  0  0  0  0  0  0  0
  -25.3500  -31.4800   26.1050 C   0  0  0  0  0  1  0  0  0  0  0  0
  -27.0850  -30.4320   24.6450 C   0  0  0  0  0  1  0  0  0  0  0  0
  -27.5610  -32.5970   25.7590 C   0  0  0  0  0  1  0  0  0  0  0  0
  -25.5670  -33.9420   24.1530 N   0  0  0  0  0  0  0  0  0  0  0  0
  -25.8670  -35.0240   23.4220 C   0  0  0  0  0  0  0  0  0  0  0  0
  -26.5460  -34.9670   22.3930 O   0  0  0  0  0  0  0  0  0  0  0  0
  -24.9640  -34.0550   24.9540 H   0  0  0  0  0  0  0  0  0  0  0  0
  -24.0780  -36.7650   23.1060 C   0  0  0  0  0  1  0  0  0  0  0  0
  -25.3320  -36.3840   23.9100 C   0  0  0  0  0  3  0  0  0  0  0  0
  -27.4280  -37.3310   24.7720 C   0  0  0  0  0  1  0  0  0  0  0  0
  -26.3270  -37.4740   23.8220 N   0  0  0  0  0  0  0  0  0  0  0  0
  -25.8870  -38.3770   23.9830 H   0  0  0  0  0  0  0  0  0  0  0  0
  -29.4240  -21.5080   19.6890 N   0  0  0  0  0  0  0  0  0  0  0  0
  -28.5400  -21.2240   19.2710 H   0  0  0  0  0  0  0  0  0  0  0  0
  -32.3990  -19.4430   20.7270 C   0  0  0  0  0  3  0  0  0  0  0  0
  -31.9780  -18.1040   20.5890 C   0  0  0  0  0  3  0  0  0  0  0  0
  -31.5420  -20.5240   20.4460 C   0  0  0  0  0  3  0  0  0  0  0  0
  -30.6730  -17.7760   20.1580 C   0  0  0  0  0  0  0  0  0  0  0  0
  -30.2130  -20.3240   20.0180 C   0  0  0  0  0  0  0  0  0  0  0  0
  -29.7980  -18.9210   19.8830 C   0  0  0  0  0  0  0  0  0  0  0  0
  -28.5300  -18.6680   19.4700 F   0  0  0  0  0  0  0  0  0  0  0  0
  -31.0320  -15.1690   19.9150 C   0  0  0  0  0  0  0  0  0  0  0  0
  -30.7770  -12.8640   18.9660 C   0  0  0  0  0  2  0  0  0  0  0  0
  -29.7870  -12.8910   17.7820 C   0  0  0  0  0  2  0  0  0  0  0  0
  -28.3370  -12.7320   18.2800 C   0  0  0  0  0  2  0  0  0  0  0  0
  -28.0140  -13.6600   19.4810 C   0  0  0  0  0  3  0  0  0  0  0  0
  -29.1200  -13.6150   20.5570 C   0  0  0  0  0  2  0  0  0  0  0  0
  -30.3850  -13.9510   19.8930 N   0  0  0  0  0  0  0  0  0  0  0  0
  -32.2160  -15.2200   19.5700 O   0  0  0  0  0  0  0  0  0  0  0  0
  -30.2760  -16.3330   20.0720 N   0  0  0  0  0  0  0  0  0  0  0  0
  -29.2820  -16.1730   20.1210 H   0  0  0  0  0  0  0  0  0  0  0  0
  -25.6950  -14.2930   20.3740 C   0  0  0  0  0  0  0  0  0  0  0  0
  -24.6260  -13.5380   20.7700 C   0  0  0  0  0  0  0  0  0  0  0  0
  -25.0390  -12.1750   20.6530 C   0  0  0  0  0  0  0  0  0  0  0  0
  -26.6930  -13.3920   20.0380 N   0  0  0  0  0  0  0  0  0  0  0  0
  -26.3090  -12.1100   20.2700 N   0  0  0  0  0  0  0  0  0  0  0  0
  -24.2800  -10.9300   20.8270 C   0  0  0  0  0  0  0  0  0  0  0  0
  -24.6810   -9.9410   21.7520 C   0  0  0  0  0  3  0  0  0  0  0  0
  -23.9210   -8.7620   21.9140 C   0  0  0  0  0  3  0  0  0  0  0  0
  -22.7460   -8.5640   21.1500 C   0  0  0  0  0  0  0  0  0  0  0  0
  -22.3640   -9.5410   20.2150 C   0  0  0  0  0  3  0  0  0  0  0  0
  -23.1250  -10.7120   20.0500 C   0  0  0  0  0  3  0  0  0  0  0  0
  -21.9610   -7.4400   21.2220 O   0  0  0  0  0  0  0  0  0  0  0  0
  -21.8380   -6.7200   22.3850 C   0  0  0  0  0  0  0  0  0  0  0  0
  -21.3230   -7.2960   23.5660 C   0  0  0  0  0  3  0  0  0  0  0  0
  -21.1490   -6.5030   24.7190 C   0  0  0  0  0  3  0  0  0  0  0  0
  -21.4790   -5.1350   24.6890 C   0  0  0  0  0  0  0  0  0  0  0  0
  -21.9880   -4.5590   23.5120 C   0  0  0  0  0  3  0  0  0  0  0  0
  -22.1640   -5.3490   22.3620 C   0  0  0  0  0  0  0  0  0  0  0  0
  -22.6340   -4.7830   21.2240 F   0  0  0  0  0  0  0  0  0  0  0  0
  -21.3060   -4.3710   25.7930 F   0  0  0  0  0  0  0  0  0  0  0  0
  -23.2620  -14.0480   21.1370 C   0  0  0  0  0  0  0  0  0  0  0  0
  -22.5600  -13.3400   22.0150 N   0  0  0  0  0  0  0  0  0  0  0  0
  -22.8320  -15.1070   20.6820 O   0  0  0  0  0  0  0  0  0  0  0  0
  -22.9230  -12.4820   22.4020 H   0  0  0  0  0  0  0  0  0  0  0  0
  -21.6460  -13.6620   22.3020 H   0  0  0  0  0  0  0  0  0  0  0  0
  -25.8940  -15.6650   20.2450 N   0  0  0  0  0  0  0  0  0  0  0  0
  -25.1530  -16.3320   20.4270 H   0  0  0  0  0  0  0  0  0  0  0  0
  -26.7230  -16.0970   19.8570 H   0  0  0  0  0  0  0  0  0  0  0  0
  1  7  1  0
  1  2  1  0
  2  3  1  0
  3  5  1  0
  3  6  1  0
  4  2  2  0
  7  8  2  0
  9 11  1  0
  9  8  1  0
 10 21  2  0
 11 16  1  0
 12 20  1  0
 12 22  1  0
 13 19  1  0
 13 15  1  0
 14 20  1  0
 15 14  1  0
 16 15  2  0
 17 18  1  0
 17 11  2  0
 18 13  2  0
 19 12  1  0
 20 10  1  0
 22 24  2  0
 23 22  1  0
 25 23  1  0
 26 35  2  0
 26 31  1  0
 27 23  1  0
 27 31  1  0
 28 27  1  0
 29 30  1  0
 29 28  1  0
 30 26  1  0
 31 32  2  0
 32 33  1  0
 34 33  2  0
 35 34  1  0
 36 10  1  0
 36 41  1  0
 36 37  1  0
 37 40  1  1
 37 38  1  0
 39 37  1  0
 41 44  1  0
 42 46  1  0
 42 41  1  0
 43 42  2  0
 46 45  1  0
 48 46  1  0
 48 49  1  0
 48 47  1  0
 50 56  1  0
 50  1  1  0
 51 50  1  0
 53 52  1  0
 54 52  2  0
 55 53  2  0
 56 54  1  0
 57 56  2  0
 57 55  1  0
 58 57  1  0
 59 67  1  0
 60 65  1  0
 61 62  1  0
 61 60  1  0
 63 62  1  0
 63 72  1  0
 63 64  1  0
 65 59  1  0
 65 64  1  0
 66 59  2  0
 67 68  1  0
 67 55  1  0
 69 70  2  0
 70 89  1  0
 71 70  1  0
 71 74  1  0
 72 73  1  0
 72 69  1  0
 73 71  2  0
 74 75  1  0
 75 76  2  0
 77 80  1  0
 77 76  1  0
 78 77  2  0
 79 78  1  0
 79 74  2  0
 80 81  1  0
 81 82  1  0
 82 83  2  0
 84 83  1  0
 84 88  1  0
 85 84  2  0
 86 81  2  0
 86 85  1  0
 87 86  1  0
 89 90  1  0
 90 93  1  0
 90 92  1  0
 91 89  2  0
 94 69  1  0
 94 95  1  0
 96 94  1  0
M  ISO  4   8 101   9 101  59 100  67 100
M  END
>  <TORSDO>  (84) 
F 20

>  <SCORE>  (84) 
-12.356

>  <name>  (84) 
83

>  <ligand_id>  (84) 
83

>  <original_smiles>  (84) 
[H]C(Oc1c([H])c([H])c2c(c1[H])C([H])([H])N(C(=O)C([H])(N([H])C(=O)C([H])(N([H])C([H])([H])[H])C([H])([H])[H])C(C([H])([H])[H])(C([H])([H])[H])C([H])([H])[H])C([H])(C(=O)N([H])C1([H])c3c([H])c([H])c([H])c([H])c3C([H])([H])C([H])([H])C1([H])[H])C2([H])[H])=C([H])C([H])(C(=O)N([H])[H])N([H])c1c([H])c([H])c([H])c(N([H])C(=O)N2C([H])([H])C([H])([H])C([H])([H])C([H])(n3nc(-c4c([H])c([H])c(Oc5c([H])c([H])c(F)c([H])c5F)c([H])c4[H])c(C(=O)N([H])[H])c3N([H])[H])C2([H])[H])c1F

>  <smiles>  (84) 
[H]C(Oc1c([H])c([H])c2c(c1[H])C([H])([H])N(C(=O)C([H])(N([H])C(=O)C([H])(N([H])C([H])([H])[H])C([H])([H])[H])C(C([H])([H])[H])(C([H])([H])[H])C([H])([H])[H])C([H])(C(=O)N([H])C1([H])c3c([H])c([H])c([H])c([H])c3C([H])([H])C([H])([H])C1([H])[H])C2([H])[H])=C([H])C([H])(C(=O)N([H])[H])N([H])c1c([H])c([H])c([H])c(N([H])C(=O)N2C([H])([H])C([H])([H])C([H])([H])C([H])(n3nc(-c4c([H])c([H])c(Oc5c([H])c([H])c(F)c([H])c5F)c([H])c4[H])c(C(=O)N([H])[H])c3N([H])[H])C2([H])[H])c1F

$$$$
84:0:0
     RDKit          3D

 93101  0  0  1  0  0  0  0  0999 V2000
  -30.2480  -21.7180   20.2160 C   0  0  0  0  0  0  0  0  0  0  0  0
  -29.2140  -22.6200   20.2300 N   0  0  0  0  0  0  0  0  0  0  0  0
  -31.4060  -22.1460   20.2130 O   0  0  0  0  0  0  0  0  0  0  0  0
  -28.2770  -22.2390   20.2130 H   0  0  0  0  0  0  0  0  0  0  0  0
  -31.1950  -19.3420   19.9270 C   0  0  0  0  0  3  0  0  0  0  0  0
  -31.1570  -17.9190   20.0100 C   0  0  0  0  0  3  0  0  0  0  0  0
  -28.8380  -18.0570   20.6120 C   0  0  0  0  0  3  0  0  0  0  0  0
  -30.0690  -20.1780   20.1920 C   0  0  0  0  0  0  0  0  0  0  0  0
  -29.9730  -17.2260   20.3710 C   0  0  0  0  0  0  0  0  0  0  0  0
  -28.8740  -19.4860   20.5320 C   0  0  0  0  0  0  0  0  0  0  0  0
  -27.7460  -20.1860   20.8030 F   0  0  0  0  0  0  0  0  0  0  0  0
  -30.6260  -14.7130   20.0650 C   0  0  0  0  0  0  0  0  0  0  0  0
  -30.3380  -12.5050   18.9610 C   0  0  0  0  0  2  0  0  0  0  0  0
  -29.3280  -12.6740   17.8040 C   0  0  0  0  0  2  0  0  0  0  0  0
  -27.8790  -12.5200   18.3100 C   0  0  0  0  0  2  0  0  0  0  0  0
  -27.6020  -13.3520   19.5910 C   0  0  0  0  0  3  0  0  0  0  0  0
  -28.7190  -13.1510   20.6400 C   0  0  0  0  0  2  0  0  0  0  0  0
  -29.9970  -13.4970   20.0000 N   0  0  0  0  0  0  0  0  0  0  0  0
  -31.7680  -14.8610   19.6190 O   0  0  0  0  0  0  0  0  0  0  0  0
  -29.8530  -15.7660   20.4930 N   0  0  0  0  0  0  0  0  0  0  0  0
  -28.9740  -15.4520   20.8760 H   0  0  0  0  0  0  0  0  0  0  0  0
  -25.2620  -13.9630   20.4580 C   0  0  0  0  0  0  0  0  0  0  0  0
  -24.2060  -13.1940   20.8640 C   0  0  0  0  0  0  0  0  0  0  0  0
  -24.6450  -11.8380   20.7680 C   0  0  0  0  0  0  0  0  0  0  0  0
  -26.2780  -13.0750   20.1400 N   0  0  0  0  0  0  0  0  0  0  0  0
  -25.9160  -11.7910   20.3860 N   0  0  0  0  0  0  0  0  0  0  0  0
  -23.9110  -10.5800   20.9590 C   0  0  0  0  0  0  0  0  0  0  0  0
  -24.3510   -9.6020   21.8790 C   0  0  0  0  0  3  0  0  0  0  0  0
  -23.6180   -8.4090   22.0590 C   0  0  0  0  0  3  0  0  0  0  0  0
  -22.4320   -8.1860   21.3200 C   0  0  0  0  0  0  0  0  0  0  0  0
  -22.0120   -9.1530   20.3900 C   0  0  0  0  0  3  0  0  0  0  0  0
  -22.7450  -10.3380   20.2080 C   0  0  0  0  0  3  0  0  0  0  0  0
  -21.6700   -7.0470   21.4110 O   0  0  0  0  0  0  0  0  0  0  0  0
  -21.5920   -6.3240   22.5740 C   0  0  0  0  0  0  0  0  0  0  0  0
  -21.1070   -6.8910   23.7730 C   0  0  0  0  0  3  0  0  0  0  0  0
  -20.9790   -6.0930   24.9270 C   0  0  0  0  0  3  0  0  0  0  0  0
  -21.3250   -4.7290   24.8830 C   0  0  0  0  0  0  0  0  0  0  0  0
  -21.8020   -4.1620   23.6890 C   0  0  0  0  0  3  0  0  0  0  0  0
  -21.9320   -4.9570   22.5370 C   0  0  0  0  0  0  0  0  0  0  0  0
  -22.3730   -4.4000   21.3840 F   0  0  0  0  0  0  0  0  0  0  0  0
  -21.1940   -3.9600   25.9900 F   0  0  0  0  0  0  0  0  0  0  0  0
  -22.8330  -13.6820   21.2260 C   0  0  0  0  0  0  0  0  0  0  0  0
  -22.1420  -12.9680   22.1080 N   0  0  0  0  0  0  0  0  0  0  0  0
  -22.3830  -14.7290   20.7630 O   0  0  0  0  0  0  0  0  0  0  0  0
  -22.5200  -12.1190   22.5030 H   0  0  0  0  0  0  0  0  0  0  0  0
  -21.2240  -13.2750   22.3930 H   0  0  0  0  0  0  0  0  0  0  0  0
  -25.4370  -15.3360   20.3090 N   0  0  0  0  0  0  0  0  0  0  0  0
  -24.6800  -15.9900   20.4640 H   0  0  0  0  0  0  0  0  0  0  0  0
  -26.2520  -15.7670   19.8910 H   0  0  0  0  0  0  0  0  0  0  0  0
  -29.5630  -24.3700   21.9560 C   0  0  0  0  0  1  0  0  0  0  0  0
  -29.3680  -24.1150   20.4530 C   0  0  0  0  0  3  0  0  0  0  0  0
  -28.2280  -25.0800   19.9070 C   0  0  0  0  0  2  0  0  0  0  0  0
  -28.3960  -26.5380   20.1320 O   0  0  0  0  0  0  0  0  0  0  0  0
  -24.6000  -31.8650   23.1740 C   0  0  0  0  0  0  0  0  0  0  0  0
  -27.2640  -27.3670   20.0790 C   0  0  0  0  0  0  0  0  0  0  0  0
  -23.4140  -30.4750   21.5130 C   0  0  0  0  0  3  0  0  0  0  0  0
  -24.8830  -28.9530   20.0770 C   0  0  0  0  0  0  0  0  0  0  0  0
  -25.9500  -30.8180   21.3450 C   0  0  0  0  0  2  0  0  0  0  0  0
  -26.0440  -29.4470   20.6830 C   0  0  0  0  0  0  0  0  0  0  0  0
  -27.2380  -28.6650   20.6750 C   0  0  0  0  0  3  0  0  0  0  0  0
  -26.0780  -26.9260   19.4470 C   0  0  0  0  0  3  0  0  0  0  0  0
  -24.9020  -27.6980   19.4510 C   0  0  0  0  0  3  0  0  0  0  0  0
  -23.6390  -29.8160   20.1270 C   0  0  0  0  0  2  0  0  0  0  0  0
  -24.6730  -31.0690   22.0680 N   0  0  0  0  0  0  0  0  0  0  0  0
  -23.5120  -32.1290   23.7070 O   0  0  0  0  0  0  0  0  0  0  0  0
  -22.7560  -29.4430   22.4600 C   0  0  0  0  0  0  0  0  0  0  0  0
  -21.4280  -29.2720   22.3410 N   0  0  0  0  0  0  0  0  0  0  0  0
  -23.4390  -28.7980   23.2610 O   0  0  0  0  0  0  0  0  0  0  0  0
  -20.9370  -29.8440   21.6670 H   0  0  0  0  0  0  0  0  0  0  0  0
  -18.0430  -28.1170   22.8770 C   0  0  0  0  0  0  0  0  0  0  0  0
  -20.6110  -28.3250   23.0990 C   0  0  0  0  0  3  0  0  0  0  0  0
  -20.6760  -26.9110   22.4790 C   0  0  0  0  0  2  0  0  0  0  0  0
  -19.5480  -26.6370   21.4800 C   0  0  0  0  0  2  0  0  0  0  0  0
  -18.1830  -26.7850   22.1580 C   0  0  0  0  0  2  0  0  0  0  0  0
  -19.1840  -28.8470   23.3060 C   0  0  0  0  0  0  0  0  0  0  0  0
  -18.9990  -30.0950   23.9390 C   0  0  0  0  0  3  0  0  0  0  0  0
  -17.7070  -30.6120   24.1500 C   0  0  0  0  0  3  0  0  0  0  0  0
  -16.5820  -29.8780   23.7380 C   0  0  0  0  0  3  0  0  0  0  0  0
  -16.7510  -28.6320   23.1080 C   0  0  0  0  0  3  0  0  0  0  0  0
  -25.8760  -32.5000   23.8080 C   0  0  0  0  0  3  0  0  0  0  0  0
  -26.3840  -31.7280   25.0860 C   0  0  1  0  0  0  0  0  0  0  0  0
  -25.2810  -31.4790   26.1420 C   0  0  0  0  0  1  0  0  0  0  0  0
  -26.9820  -30.3560   24.6960 C   0  0  0  0  0  1  0  0  0  0  0  0
  -27.5220  -32.5280   25.7630 C   0  0  0  0  0  1  0  0  0  0  0  0
  -25.5590  -33.8960   24.1400 N   0  0  0  0  0  0  0  0  0  0  0  0
  -25.8760  -34.9530   23.3790 C   0  0  0  0  0  0  0  0  0  0  0  0
  -26.5390  -34.8550   22.3430 O   0  0  0  0  0  0  0  0  0  0  0  0
  -24.9690  -34.0460   24.9460 H   0  0  0  0  0  0  0  0  0  0  0  0
  -24.1310  -36.7330   23.0400 C   0  0  0  0  0  1  0  0  0  0  0  0
  -25.3820  -36.3370   23.8410 C   0  0  0  0  0  3  0  0  0  0  0  0
  -27.5100  -37.2450   24.6640 C   0  0  0  0  0  1  0  0  0  0  0  0
  -26.4060  -37.3980   23.7200 N   0  0  0  0  0  0  0  0  0  0  0  0
  -25.9920  -38.3150   23.8620 H   0  0  0  0  0  0  0  0  0  0  0  0
  1  2  1  0
  2 51  1  0
  3  1  2  0
  4  2  1  0
  5  6  2  0
  5  8  1  0
  6  9  1  0
  8  1  1  0
  8 10  2  0
  9 20  1  0
  9  7  2  0
 10  7  1  0
 10 11  1  0
 12 20  1  0
 13 18  1  0
 14 15  1  0
 14 13  1  0
 16 15  1  0
 16 25  1  0
 16 17  1  0
 18 12  1  0
 18 17  1  0
 19 12  2  0
 20 21  1  0
 22 23  2  0
 23 42  1  0
 24 23  1  0
 24 27  1  0
 25 26  1  0
 25 22  1  0
 26 24  2  0
 27 28  1  0
 28 29  2  0
 30 33  1  0
 30 29  1  0
 31 30  2  0
 32 31  1  0
 32 27  2  0
 33 34  1  0
 34 35  1  0
 35 36  2  0
 37 36  1  0
 37 41  1  0
 38 37  2  0
 39 34  2  0
 39 38  1  0
 40 39  1  0
 42 43  1  0
 43 46  1  0
 43 45  1  0
 44 42  2  0
 47 22  1  0
 47 48  1  0
 49 47  1  0
 51 50  1  0
 52 53  1  0
 52 51  1  0
 54 65  2  0
 55 53  1  0
 55 60  1  0
 56 64  1  0
 56 66  1  0
 57 63  1  0
 57 59  1  0
 58 64  1  0
 59 58  1  0
 60 59  2  0
 61 62  1  0
 61 55  2  0
 62 57  2  0
 63 56  1  0
 64 54  1  0
 66 68  2  0
 67 66  1  0
 69 67  1  0
 70 79  2  0
 70 75  1  0
 71 67  1  0
 71 75  1  0
 72 71  1  0
 73 74  1  0
 73 72  1  0
 74 70  1  0
 75 76  2  0
 76 77  1  0
 78 77  2  0
 79 78  1  0
 80 54  1  0
 80 85  1  0
 80 81  1  0
 81 84  1  1
 81 82  1  0
 83 81  1  0
 85 88  1  0
 86 90  1  0
 86 85  1  0
 87 86  2  0
 90 89  1  0
 92 90  1  0
 92 93  1  0
 92 91  1  0
M  ISO  4  12 100  20 100  52 101  53 101
M  END
>  <TORSDO>  (85) 
F 19

>  <SCORE>  (85) 
-14.311

>  <name>  (85) 
84

>  <ligand_id>  (85) 
84

>  <original_smiles>  (85) 
[H]c1c([H])c([H])c2c(c1[H])C([H])([H])C([H])([H])C([H])([H])C2([H])N([H])C(=O)C1([H])N(C(=O)C([H])(N([H])C(=O)C([H])(N([H])C([H])([H])[H])C([H])([H])[H])C(C([H])([H])[H])(C([H])([H])[H])C([H])([H])[H])C([H])([H])c2c([H])c(OC([H])([H])C([H])(N([H])C(=O)c3c([H])c([H])c(N([H])C(=O)N4C([H])([H])C([H])([H])C([H])([H])C([H])(n5nc(-c6c([H])c([H])c(Oc7c([H])c([H])c(F)c([H])c7F)c([H])c6[H])c(C(=O)N([H])[H])c5N([H])[H])C4([H])[H])c([H])c3F)C([H])([H])[H])c([H])c([H])c2C1([H])[H]

>  <smiles>  (85) 
[H]c1c([H])c([H])c2c(c1[H])C([H])([H])C([H])([H])C([H])([H])C2([H])N([H])C(=O)C1([H])N(C(=O)C([H])(N([H])C(=O)C([H])(N([H])C([H])([H])[H])C([H])([H])[H])C(C([H])([H])[H])(C([H])([H])[H])C([H])([H])[H])C([H])([H])c2c([H])c(OC([H])([H])C([H])(N([H])C(=O)c3c([H])c([H])c(N([H])C(=O)N4C([H])([H])C([H])([H])C([H])([H])C([H])(n5nc(-c6c([H])c([H])c(Oc7c([H])c([H])c(F)c([H])c7F)c([H])c6[H])c(C(=O)N([H])[H])c5N([H])[H])C4([H])[H])c([H])c3F)C([H])([H])[H])c([H])c([H])c2C1([H])[H]

$$$$
85:0:0
     RDKit          3D

 99107  0  0  1  0  0  0  0  0999 V2000
  -30.5190  -21.2440   20.9580 C   0  0  0  0  0  0  0  0  0  0  0  0
  -29.7620  -22.0870   20.2230 N   0  0  0  0  0  0  0  0  0  0  0  0
  -31.4440  -21.7650   21.7640 N   0  0  0  0  0  4  0  0  0  0  0  0
  -29.0210  -21.6750   19.6710 H   0  0  0  0  0  0  0  0  0  0  0  0
  -31.9760  -21.1550   22.3650 H   0  0  0  0  0  0  0  0  0  0  0  0
  -31.6000  -22.7560   21.8180 H   0  0  0  0  0  0  0  0  0  0  0  0
  -31.5650  -18.9740   20.9930 C   0  0  0  0  0  3  0  0  0  0  0  0
  -31.4840  -17.5640   20.9850 C   0  0  0  0  0  3  0  0  0  0  0  0
  -29.1500  -19.1310   20.7530 C   0  0  0  0  0  3  0  0  0  0  0  0
  -30.4010  -19.7740   20.8870 C   0  0  0  0  0  0  0  0  0  0  0  0
  -30.2310  -16.9190   20.8590 C   0  0  0  0  0  0  0  0  0  0  0  0
  -29.0720  -17.7200   20.7450 C   0  0  0  0  0  0  0  0  0  0  0  0
  -27.8640  -17.1160   20.6260 F   0  0  0  0  0  0  0  0  0  0  0  0
  -30.7480  -14.5380   20.2510 C   0  0  0  0  0  0  0  0  0  0  0  0
  -30.4080  -12.4220   19.0270 C   0  0  0  0  0  2  0  0  0  0  0  0
  -29.4090  -12.6750   17.8770 C   0  0  0  0  0  2  0  0  0  0  0  0
  -27.9550  -12.5230   18.3680 C   0  0  0  0  0  2  0  0  0  0  0  0
  -27.6790  -13.3060   19.6810 C   0  0  0  0  0  3  0  0  0  0  0  0
  -28.7830  -13.0270   20.7260 C   0  0  0  0  0  2  0  0  0  0  0  0
  -30.0830  -13.3590   20.1130 N   0  0  0  0  0  0  0  0  0  0  0  0
  -31.8480  -14.7440   19.7310 O   0  0  0  0  0  0  0  0  0  0  0  0
  -30.0500  -15.5020   20.8820 N   0  0  0  0  0  0  0  0  0  0  0  0
  -29.1450  -15.2060   21.2180 H   0  0  0  0  0  0  0  0  0  0  0  0
  -25.3120  -13.8920   20.5060 C   0  0  0  0  0  0  0  0  0  0  0  0
  -24.2610  -13.1090   20.8970 C   0  0  0  0  0  0  0  0  0  0  0  0
  -24.7200  -11.7590   20.8100 C   0  0  0  0  0  0  0  0  0  0  0  0
  -26.3480  -13.0190   20.2090 N   0  0  0  0  0  0  0  0  0  0  0  0
  -25.9960  -11.7290   20.4470 N   0  0  0  0  0  0  0  0  0  0  0  0
  -24.0040  -10.4910   20.9980 C   0  0  0  0  0  0  0  0  0  0  0  0
  -24.4440   -9.5240   21.9280 C   0  0  0  0  0  3  0  0  0  0  0  0
  -23.7270   -8.3200   22.1020 C   0  0  0  0  0  3  0  0  0  0  0  0
  -22.5570   -8.0760   21.3460 C   0  0  0  0  0  0  0  0  0  0  0  0
  -22.1360   -9.0320   20.4040 C   0  0  0  0  0  3  0  0  0  0  0  0
  -22.8540  -10.2270   20.2280 C   0  0  0  0  0  3  0  0  0  0  0  0
  -21.8120   -6.9250   21.4290 O   0  0  0  0  0  0  0  0  0  0  0  0
  -21.7190   -6.2110   22.5960 C   0  0  0  0  0  0  0  0  0  0  0  0
  -21.2040   -6.7810   23.7810 C   0  0  0  0  0  3  0  0  0  0  0  0
  -21.0620   -5.9910   24.9390 C   0  0  0  0  0  3  0  0  0  0  0  0
  -21.4240   -4.6300   24.9130 C   0  0  0  0  0  0  0  0  0  0  0  0
  -21.9320   -4.0590   23.7320 C   0  0  0  0  0  3  0  0  0  0  0  0
  -22.0760   -4.8460   22.5770 C   0  0  0  0  0  0  0  0  0  0  0  0
  -22.5450   -4.2860   21.4360 F   0  0  0  0  0  0  0  0  0  0  0  0
  -21.2810   -3.8690   26.0230 F   0  0  0  0  0  0  0  0  0  0  0  0
  -22.8780  -13.5770   21.2450 C   0  0  0  0  0  0  0  0  0  0  0  0
  -22.1870  -12.8530   22.1210 N   0  0  0  0  0  0  0  0  0  0  0  0
  -22.4170  -14.6170   20.7770 O   0  0  0  0  0  0  0  0  0  0  0  0
  -22.5730  -12.0100   22.5210 H   0  0  0  0  0  0  0  0  0  0  0  0
  -21.2610  -13.1470   22.3950 H   0  0  0  0  0  0  0  0  0  0  0  0
  -25.4680  -15.2670   20.3640 N   0  0  0  0  0  0  0  0  0  0  0  0
  -24.7120  -15.9140   20.5560 H   0  0  0  0  0  0  0  0  0  0  0  0
  -26.3330  -15.7360   20.1210 H   0  0  0  0  0  0  0  0  0  0  0  0
  -29.8930  -23.5700   20.1200 C   0  0  0  0  0  3  0  0  0  0  0  0
  -29.7420  -23.3880   17.5310 C   0  0  0  0  0  1  0  0  0  0  0  0
  -31.9960  -23.5560   18.6600 C   0  0  0  0  0  1  0  0  0  0  0  0
  -30.5130  -23.9500   18.7440 C   0  0  0  0  0  3  0  0  0  0  0  0
  -28.5430  -24.2920   20.3520 C   0  0  0  0  0  0  0  0  0  0  0  0
  -27.4640  -23.7760   20.0410 O   0  0  0  0  0  0  0  0  0  0  0  0
  -28.5790  -25.6840   21.0210 C   0  0  0  0  0  2  0  0  0  0  0  0
  -28.5030  -26.7530   20.0650 O   0  0  0  0  0  0  0  0  0  0  0  0
  -24.6230  -31.8610   23.1920 C   0  0  0  0  0  0  0  0  0  0  0  0
  -27.3350  -27.4760   20.1000 C   0  0  0  0  0  0  0  0  0  0  0  0
  -23.4480  -30.4690   21.5190 C   0  0  0  0  0  3  0  0  0  0  0  0
  -24.9290  -28.9550   20.1000 C   0  0  0  0  0  0  0  0  0  0  0  0
  -25.9710  -30.8510   21.3560 C   0  0  0  0  0  2  0  0  0  0  0  0
  -26.0750  -29.4850   20.7060 C   0  0  0  0  0  0  0  0  0  0  0  0
  -27.2850  -28.7520   20.7030 C   0  0  0  0  0  3  0  0  0  0  0  0
  -26.1760  -26.9530   19.4930 C   0  0  0  0  0  3  0  0  0  0  0  0
  -24.9740  -27.6860   19.4920 C   0  0  0  0  0  3  0  0  0  0  0  0
  -23.6780  -29.8030   20.1360 C   0  0  0  0  0  2  0  0  0  0  0  0
  -24.6980  -31.0750   22.0820 N   0  0  0  0  0  0  0  0  0  0  0  0
  -23.5340  -32.1200   23.7230 O   0  0  0  0  0  0  0  0  0  0  0  0
  -22.7920  -29.4340   22.4620 C   0  0  0  0  0  0  0  0  0  0  0  0
  -21.4650  -29.2680   22.3390 N   0  0  0  0  0  0  0  0  0  0  0  0
  -23.4740  -28.7820   23.2580 O   0  0  0  0  0  0  0  0  0  0  0  0
  -20.9770  -29.8460   21.6670 H   0  0  0  0  0  0  0  0  0  0  0  0
  -18.0750  -28.1320   22.8600 C   0  0  0  0  0  0  0  0  0  0  0  0
  -20.6420  -28.3220   23.0910 C   0  0  0  0  0  3  0  0  0  0  0  0
  -20.7010  -26.9110   22.4620 C   0  0  0  0  0  2  0  0  0  0  0  0
  -19.5730  -26.6500   21.4590 C   0  0  0  0  0  2  0  0  0  0  0  0
  -18.2070  -26.8040   22.1350 C   0  0  0  0  0  2  0  0  0  0  0  0
  -19.2190  -28.8520   23.2950 C   0  0  0  0  0  0  0  0  0  0  0  0
  -19.0400  -30.1000   23.9330 C   0  0  0  0  0  3  0  0  0  0  0  0
  -17.7520  -30.6250   24.1410 C   0  0  0  0  0  3  0  0  0  0  0  0
  -16.6220  -29.9010   23.7220 C   0  0  0  0  0  3  0  0  0  0  0  0
  -16.7850  -28.6560   23.0880 C   0  0  0  0  0  3  0  0  0  0  0  0
  -25.8970  -32.4930   23.8350 C   0  0  0  0  0  3  0  0  0  0  0  0
  -25.5820  -33.8890   24.1660 N   0  0  0  0  0  0  0  0  0  0  0  0
  -25.9230  -34.9440   23.4140 C   0  0  0  0  0  0  0  0  0  0  0  0
  -26.6090  -34.8450   22.3940 O   0  0  0  0  0  0  0  0  0  0  0  0
  -24.9720  -34.0400   24.9560 H   0  0  0  0  0  0  0  0  0  0  0  0
  -24.2020  -36.7370   23.0290 C   0  0  0  0  0  1  0  0  0  0  0  0
  -25.4240  -36.3290   23.8670 C   0  0  0  0  0  3  0  0  0  0  0  0
  -27.5360  -37.2110   24.7570 C   0  0  0  0  0  1  0  0  0  0  0  0
  -26.4590  -37.3840   23.7860 N   0  0  0  0  0  0  0  0  0  0  0  0
  -26.0480  -38.3020   23.9280 H   0  0  0  0  0  0  0  0  0  0  0  0
  -26.4010  -31.7160   25.1140 C   0  0  1  0  0  0  0  0  0  0  0  0
  -25.2950  -31.4630   26.1630 C   0  0  0  0  0  1  0  0  0  0  0  0
  -26.9970  -30.3450   24.7180 C   0  0  0  0  0  1  0  0  0  0  0  0
  -27.5380  -32.5110   25.7970 C   0  0  0  0  0  1  0  0  0  0  0  0
  1  3  2  0
  2  1  1  0
  3  6  1  0
  3  5  1  0
  4  2  1  0
  8  7  1  0
  9 10  1  0
 10  1  1  0
 10  7  2  0
 11 22  1  0
 11  8  2  0
 12  9  2  0
 12 11  1  0
 13 12  1  0
 14 22  1  0
 15 20  1  0
 16 17  1  0
 16 15  1  0
 18 17  1  0
 18 27  1  0
 18 19  1  0
 20 14  1  0
 20 19  1  0
 21 14  2  0
 22 23  1  0
 24 25  2  0
 25 44  1  0
 26 25  1  0
 26 29  1  0
 27 28  1  0
 27 24  1  0
 28 26  2  0
 29 30  1  0
 30 31  2  0
 32 35  1  0
 32 31  1  0
 33 32  2  0
 34 33  1  0
 34 29  2  0
 35 36  1  0
 36 37  1  0
 37 38  2  0
 39 38  1  0
 39 43  1  0
 40 39  2  0
 41 36  2  0
 41 40  1  0
 42 41  1  0
 44 45  1  0
 45 48  1  0
 45 47  1  0
 46 44  2  0
 49 24  1  0
 49 50  1  0
 51 49  1  0
 52 55  1  0
 52  2  1  0
 52 56  1  0
 53 55  1  0
 54 55  1  0
 56 58  1  0
 57 56  2  0
 59 61  1  0
 59 58  1  0
 60 71  2  0
 61 66  1  0
 62 70  1  0
 62 72  1  0
 63 69  1  0
 63 65  1  0
 64 70  1  0
 65 64  1  0
 66 65  2  0
 67 61  2  0
 68 67  1  0
 68 63  2  0
 69 62  1  0
 70 60  1  0
 72 74  2  0
 73 72  1  0
 75 73  1  0
 76 85  2  0
 76 81  1  0
 77 73  1  0
 77 81  1  0
 78 77  1  0
 79 80  1  0
 79 78  1  0
 80 76  1  0
 81 82  2  0
 82 83  1  0
 84 83  2  0
 85 84  1  0
 86 60  1  0
 86 87  1  0
 86 96  1  0
 87 90  1  0
 88 92  1  0
 88 87  1  0
 89 88  2  0
 92 91  1  0
 94 92  1  0
 94 95  1  0
 94 93  1  0
 96 99  1  1
 96 97  1  0
 98 96  1  0
M  ISO  4  14 100  22 100  58 101  59 101
M  END
>  <TORSDO>  (86) 
F 21

>  <SCORE>  (86) 
-13.916

>  <name>  (86) 
85

>  <ligand_id>  (86) 
85

>  <original_smiles>  (86) 
[H]c1c([H])c([H])c2c(c1[H])C([H])([H])C([H])([H])C([H])([H])C2([H])N([H])C(=O)C1([H])N(C(=O)C([H])(N([H])C(=O)C([H])(N([H])C([H])([H])[H])C([H])([H])[H])C(C([H])([H])[H])(C([H])([H])[H])C([H])([H])[H])C([H])([H])c2c([H])c(OC([H])([H])C(=O)C([H])(N([H])C(c3c([H])c([H])c(N([H])C(=O)N4C([H])([H])C([H])([H])C([H])([H])C([H])(n5nc(-c6c([H])c([H])c(Oc7c([H])c([H])c(F)c([H])c7F)c([H])c6[H])c(C(=O)N([H])[H])c5N([H])[H])C4([H])[H])c(F)c3[H])=[N+]([H])[H])C([H])(C([H])([H])[H])C([H])([H])[H])c([H])c([H])c2C1([H])[H]

>  <smiles>  (86) 
[H]c1c([H])c([H])c2c(c1[H])C([H])([H])C([H])([H])C([H])([H])C2([H])N([H])C(=O)C1([H])N(C(=O)C([H])(N([H])C(=O)C([H])(N([H])C([H])([H])[H])C([H])([H])[H])C(C([H])([H])[H])(C([H])([H])[H])C([H])([H])[H])C([H])([H])c2c([H])c(OC([H])([H])C(=O)C([H])(N([H])C(c3c([H])c([H])c(N([H])C(=O)N4C([H])([H])C([H])([H])C([H])([H])C([H])(n5nc(-c6c([H])c([H])c(Oc7c([H])c([H])c(F)c([H])c7F)c([H])c6[H])c(C(=O)N([H])[H])c5N([H])[H])C4([H])[H])c(F)c3[H])=[N+]([H])[H])C([H])(C([H])([H])[H])C([H])([H])[H])c([H])c([H])c2C1([H])[H]

$$$$
86:0:0
     RDKit          3D

 97106  0  0  1  0  0  0  0  0999 V2000
  -28.5560  -23.3650   21.2060 C   0  0  0  0  0  0  0  0  0  0  0  0
  -28.5320  -23.8860   19.8390 C   0  0  0  0  0  0  0  0  0  0  0  0
  -28.9770  -21.8400   21.1970 C   0  0  0  0  0  0  0  0  0  0  0  0
  -28.3400  -25.2060   19.3950 C   0  0  0  0  0  0  0  0  0  0  0  0
  -28.8250  -22.5830   19.0220 C   0  0  0  0  0  2  0  0  0  0  0  0
  -28.4170  -25.5200   17.9080 C   0  0  0  0  0  1  0  0  0  0  0  0
  -29.1740  -21.3990   19.9280 N   0  0  0  0  0  0  0  0  0  0  0  0
  -28.2660  -23.9950   22.2310 O   0  0  0  0  0  0  0  0  0  0  0  0
  -29.1100  -21.1680   22.2310 O   0  0  0  0  0  0  0  0  0  0  0  0
  -30.9290  -17.5130   18.6520 C   0  0  0  0  0  3  0  0  0  0  0  0
  -31.1630  -18.7150   17.9770 C   0  0  0  0  0  3  0  0  0  0  0  0
  -29.5470  -18.7470   20.2280 C   0  0  0  0  0  3  0  0  0  0  0  0
  -29.7540  -20.0400   19.5400 C   0  0  0  0  0  0  0  0  0  0  0  0
  -30.1510  -17.4620   19.8240 C   0  0  0  0  0  0  0  0  0  0  0  0
  -30.6260  -19.9430   18.4100 C   0  0  0  0  0  0  0  0  0  0  0  0
  -30.7220  -14.9370   20.2760 C   0  0  0  0  0  0  0  0  0  0  0  0
  -30.5360  -12.6400   19.3140 C   0  0  0  0  0  2  0  0  0  0  0  0
  -29.5990  -12.6900   18.0870 C   0  0  0  0  0  2  0  0  0  0  0  0
  -28.1360  -12.4940   18.5220 C   0  0  0  0  0  2  0  0  0  0  0  0
  -27.7490  -13.3940   19.7260 C   0  0  0  0  0  3  0  0  0  0  0  0
  -28.8050  -13.3510   20.8490 C   0  0  0  0  0  2  0  0  0  0  0  0
  -30.0980  -13.7060   20.2520 N   0  0  0  0  0  0  0  0  0  0  0  0
  -31.9200  -14.9960   19.9780 O   0  0  0  0  0  0  0  0  0  0  0  0
  -29.9700  -16.1070   20.4490 N   0  0  0  0  0  0  0  0  0  0  0  0
  -29.0910  -15.9720   20.9250 H   0  0  0  0  0  0  0  0  0  0  0  0
  -25.3600  -13.9580   20.4610 C   0  0  0  0  0  0  0  0  0  0  0  0
  -24.3040  -13.1740   20.8350 C   0  0  0  0  0  0  0  0  0  0  0  0
  -24.7810  -11.8270   20.8040 C   0  0  0  0  0  0  0  0  0  0  0  0
  -26.4110  -13.0900   20.2220 N   0  0  0  0  0  0  0  0  0  0  0  0
  -26.0710  -11.8030   20.4910 N   0  0  0  0  0  0  0  0  0  0  0  0
  -24.0680  -10.5580   20.9960 C   0  0  0  0  0  0  0  0  0  0  0  0
  -24.5010   -9.6000   21.9420 C   0  0  0  0  0  3  0  0  0  0  0  0
  -23.7840   -8.3970   22.1220 C   0  0  0  0  0  3  0  0  0  0  0  0
  -22.6230   -8.1420   21.3550 C   0  0  0  0  0  0  0  0  0  0  0  0
  -22.2090   -9.0870   20.3990 C   0  0  0  0  0  3  0  0  0  0  0  0
  -22.9260  -10.2810   20.2180 C   0  0  0  0  0  3  0  0  0  0  0  0
  -21.8810   -6.9890   21.4410 O   0  0  0  0  0  0  0  0  0  0  0  0
  -21.8140   -6.2610   22.6020 C   0  0  0  0  0  0  0  0  0  0  0  0
  -21.3220   -6.8200   23.8020 C   0  0  0  0  0  3  0  0  0  0  0  0
  -21.2030   -6.0180   24.9550 C   0  0  0  0  0  3  0  0  0  0  0  0
  -21.5690   -4.6590   24.9090 C   0  0  0  0  0  0  0  0  0  0  0  0
  -22.0540   -4.1000   23.7140 C   0  0  0  0  0  3  0  0  0  0  0  0
  -22.1730   -4.8990   22.5630 C   0  0  0  0  0  0  0  0  0  0  0  0
  -22.6210   -4.3500   21.4080 F   0  0  0  0  0  0  0  0  0  0  0  0
  -21.4470   -3.8880   26.0140 F   0  0  0  0  0  0  0  0  0  0  0  0
  -22.9030  -13.6360   21.1090 C   0  0  0  0  0  0  0  0  0  0  0  0
  -22.1830  -12.9320   21.9730 N   0  0  0  0  0  0  0  0  0  0  0  0
  -22.4530  -14.6610   20.5920 O   0  0  0  0  0  0  0  0  0  0  0  0
  -22.5550  -12.1030   22.4110 H   0  0  0  0  0  0  0  0  0  0  0  0
  -21.2440  -13.2260   22.2040 H   0  0  0  0  0  0  0  0  0  0  0  0
  -25.5090  -15.3320   20.2800 N   0  0  0  0  0  0  0  0  0  0  0  0
  -24.7300  -15.9750   20.3800 H   0  0  0  0  0  0  0  0  0  0  0  0
  -26.3420  -15.7750   19.9140 H   0  0  0  0  0  0  0  0  0  0  0  0
  -31.0560  -21.0480   17.6840 N   0  0  0  0  0  0  0  0  0  0  0  0
  -31.8660  -20.9300   17.0840 H   0  0  0  0  0  0  0  0  0  0  0  0
  -31.0740  -21.9360   18.1710 H   0  0  0  0  0  0  0  0  0  0  0  0
  -28.2380  -26.4240   20.1520 O   0  0  0  0  0  0  0  0  0  0  0  0
  -24.5810  -31.9430   23.2170 C   0  0  0  0  0  0  0  0  0  0  0  0
  -27.1530  -27.3420   20.0790 C   0  0  0  0  0  0  0  0  0  0  0  0
  -23.3670  -30.5490   21.5850 C   0  0  0  0  0  3  0  0  0  0  0  0
  -24.7980  -29.0040   20.1310 C   0  0  0  0  0  0  0  0  0  0  0  0
  -25.9140  -30.8440   21.3890 C   0  0  0  0  0  2  0  0  0  0  0  0
  -25.9810  -29.4730   20.7120 C   0  0  0  0  0  0  0  0  0  0  0  0
  -27.1580  -28.6550   20.6740 C   0  0  0  0  0  3  0  0  0  0  0  0
  -25.9340  -26.9380   19.4930 C   0  0  0  0  0  3  0  0  0  0  0  0
  -24.7790  -27.7440   19.5140 C   0  0  0  0  0  3  0  0  0  0  0  0
  -23.5660  -29.8870   20.1980 C   0  0  0  0  0  2  0  0  0  0  0  0
  -24.6400  -31.1330   22.1160 N   0  0  0  0  0  0  0  0  0  0  0  0
  -23.5020  -32.2190   23.7610 O   0  0  0  0  0  0  0  0  0  0  0  0
  -22.7160  -29.5250   22.5470 C   0  0  0  0  0  0  0  0  0  0  0  0
  -21.3900  -29.3410   22.4330 N   0  0  0  0  0  0  0  0  0  0  0  0
  -23.4040  -28.9030   23.3610 O   0  0  0  0  0  0  0  0  0  0  0  0
  -20.8960  -29.8970   21.7480 H   0  0  0  0  0  0  0  0  0  0  0  0
  -18.0240  -28.1120   22.9520 C   0  0  0  0  0  0  0  0  0  0  0  0
  -20.5820  -28.3980   23.2090 C   0  0  0  0  0  3  0  0  0  0  0  0
  -20.6950  -26.9680   22.6320 C   0  0  0  0  0  2  0  0  0  0  0  0
  -19.5890  -26.6350   21.6250 C   0  0  0  0  0  2  0  0  0  0  0  0
  -18.2100  -26.7650   22.2760 C   0  0  0  0  0  2  0  0  0  0  0  0
  -19.1370  -28.8870   23.3760 C   0  0  0  0  0  0  0  0  0  0  0  0
  -18.9070  -30.1460   23.9690 C   0  0  0  0  0  3  0  0  0  0  0  0
  -17.5980  -30.6310   24.1460 C   0  0  0  0  0  3  0  0  0  0  0  0
  -16.4980  -29.8530   23.7400 C   0  0  0  0  0  3  0  0  0  0  0  0
  -16.7140  -28.5960   23.1470 C   0  0  0  0  0  3  0  0  0  0  0  0
  -25.8680  -32.5810   23.8280 C   0  0  0  0  0  3  0  0  0  0  0  0
  -25.5540  -33.9780   24.1650 N   0  0  0  0  0  0  0  0  0  0  0  0
  -25.8690  -35.0380   23.4100 C   0  0  0  0  0  0  0  0  0  0  0  0
  -26.5210  -34.9430   22.3670 O   0  0  0  0  0  0  0  0  0  0  0  0
  -24.9780  -34.1270   24.9800 H   0  0  0  0  0  0  0  0  0  0  0  0
  -24.1320  -36.8320   23.0900 C   0  0  0  0  0  1  0  0  0  0  0  0
  -25.3820  -36.4240   23.8850 C   0  0  0  0  0  3  0  0  0  0  0  0
  -27.5180  -37.3140   24.7070 C   0  0  0  0  0  1  0  0  0  0  0  0
  -26.4100  -37.4800   23.7690 N   0  0  0  0  0  0  0  0  0  0  0  0
  -26.0060  -38.4010   23.9170 H   0  0  0  0  0  0  0  0  0  0  0  0
  -26.3980  -31.8150   25.1030 C   0  0  1  0  0  0  0  0  0  0  0  0
  -25.3130  -31.5730   26.1790 C   0  0  0  0  0  1  0  0  0  0  0  0
  -26.9870  -30.4390   24.7150 C   0  0  0  0  0  1  0  0  0  0  0  0
  -27.5500  -32.6180   25.7550 C   0  0  0  0  0  1  0  0  0  0  0  0
  1  8  2  0
  2  1  1  0
  3  1  1  0
  3  9  2  0
  4  2  2  0
  4 57  1  0
  5  2  1  0
  5  7  1  0
  6  4  1  0
  7  3  1  0
 10 14  1  0
 11 15  1  0
 11 10  2  0
 13  7  1  0
 13 12  1  0
 14 12  2  0
 14 24  1  0
 15 13  2  0
 16 24  1  0
 17 22  1  0
 18 19  1  0
 18 17  1  0
 20 19  1  0
 20 29  1  0
 20 21  1  0
 22 16  1  0
 22 21  1  0
 23 16  2  0
 24 25  1  0
 26 27  2  0
 27 46  1  0
 28 27  1  0
 28 31  1  0
 29 26  1  0
 29 30  1  0
 30 28  2  0
 31 32  1  0
 32 33  2  0
 34 37  1  0
 34 33  1  0
 35 34  2  0
 36 35  1  0
 36 31  2  0
 37 38  1  0
 38 39  1  0
 39 40  2  0
 41 40  1  0
 41 45  1  0
 42 41  2  0
 43 38  2  0
 43 42  1  0
 44 43  1  0
 46 47  1  0
 47 50  1  0
 47 49  1  0
 48 46  2  0
 51 52  1  0
 51 26  1  0
 53 51  1  0
 54 56  1  0
 54 15  1  0
 55 54  1  0
 58 69  2  0
 59 57  1  0
 59 64  1  0
 60 68  1  0
 60 70  1  0
 61 67  1  0
 61 63  1  0
 62 68  1  0
 63 62  1  0
 64 63  2  0
 65 66  1  0
 65 59  2  0
 66 61  2  0
 67 60  1  0
 68 58  1  0
 70 72  2  0
 71 70  1  0
 73 71  1  0
 74 83  2  0
 74 79  1  0
 75 71  1  0
 75 79  1  0
 76 75  1  0
 77 78  1  0
 77 76  1  0
 78 74  1  0
 79 80  2  0
 80 81  1  0
 82 81  2  0
 83 82  1  0
 84 58  1  0
 84 85  1  0
 84 94  1  0
 85 88  1  0
 86 90  1  0
 86 85  1  0
 87 86  2  0
 90 89  1  0
 92 90  1  0
 92 93  1  0
 92 91  1  0
 94 97  1  1
 94 95  1  0
 96 94  1  0
M  ISO  4   4 101  16 100  24 100  57 101
M  END
>  <TORSDO>  (87) 
F 18

>  <SCORE>  (87) 
-14.988

>  <name>  (87) 
86

>  <ligand_id>  (87) 
86

>  <original_smiles>  (87) 
[H]c1c([H])c([H])c2c(c1[H])C([H])([H])C([H])([H])C([H])([H])C2([H])N([H])C(=O)C1([H])N(C(=O)C([H])(N([H])C(=O)C([H])(N([H])C([H])([H])[H])C([H])([H])[H])C(C([H])([H])[H])(C([H])([H])[H])C([H])([H])[H])C([H])([H])c2c([H])c(OC(=C3C(=O)C(=O)N(c4c([H])c(N([H])C(=O)N5C([H])([H])C([H])([H])C([H])([H])C([H])(n6nc(-c7c([H])c([H])c(Oc8c([H])c([H])c(F)c([H])c8F)c([H])c7[H])c(C(=O)N([H])[H])c6N([H])[H])C5([H])[H])c([H])c([H])c4N([H])[H])C3([H])[H])C([H])([H])[H])c([H])c([H])c2C1([H])[H]

>  <smiles>  (87) 
[H]c1c([H])c([H])c2c(c1[H])C([H])([H])C([H])([H])C([H])([H])C2([H])N([H])C(=O)C1([H])N(C(=O)C([H])(N([H])C(=O)C([H])(N([H])C([H])([H])[H])C([H])([H])[H])C(C([H])([H])[H])(C([H])([H])[H])C([H])([H])[H])C([H])([H])c2c([H])c(OC(=C3C(=O)C(=O)N(c4c([H])c(N([H])C(=O)N5C([H])([H])C([H])([H])C([H])([H])C([H])(n6nc(-c7c([H])c([H])c(Oc8c([H])c([H])c(F)c([H])c8F)c([H])c7[H])c(C(=O)N([H])[H])c6N([H])[H])C5([H])[H])c([H])c([H])c4N([H])[H])C3([H])[H])C([H])([H])[H])c([H])c([H])c2C1([H])[H]

$$$$
87:0:0
     RDKit          3D

 92100  0  0  1  0  0  0  0  0999 V2000
  -28.5320  -22.1860   20.0970 C   0  0  0  0  0  0  0  0  0  0  0  0
  -29.2310  -21.0500   20.5450 N   0  0  0  0  0  0  0  0  0  0  0  0
  -27.5190  -22.0670   19.3980 O   0  0  0  0  0  0  0  0  0  0  0  0
  -28.7620  -18.1450   18.0920 C   0  0  0  0  0  3  0  0  0  0  0  0
  -29.1620  -17.0070   18.8170 C   0  0  0  0  0  3  0  0  0  0  0  0
  -28.7530  -19.4270   18.6780 C   0  0  0  0  0  3  0  0  0  0  0  0
  -29.5280  -18.4370   20.7550 C   0  0  0  0  0  3  0  0  0  0  0  0
  -29.5520  -17.1030   20.1690 C   0  0  0  0  0  0  0  0  0  0  0  0
  -29.1460  -19.6450   20.0220 C   0  0  0  0  0  0  0  0  0  0  0  0
  -30.5560  -14.7430   20.4930 C   0  0  0  0  0  0  0  0  0  0  0  0
  -30.3980  -12.4640   19.4990 C   0  0  0  0  0  2  0  0  0  0  0  0
  -29.4880  -12.5590   18.2530 C   0  0  0  0  0  2  0  0  0  0  0  0
  -28.0080  -12.3910   18.6500 C   0  0  0  0  0  2  0  0  0  0  0  0
  -27.6140  -13.2700   19.8680 C   0  0  0  0  0  3  0  0  0  0  0  0
  -28.6470  -13.1530   21.0110 C   0  0  0  0  0  2  0  0  0  0  0  0
  -29.9610  -13.5040   20.4590 N   0  0  0  0  0  0  0  0  0  0  0  0
  -31.7160  -14.8840   20.0890 O   0  0  0  0  0  0  0  0  0  0  0  0
  -29.7980  -15.8330   20.8870 N   0  0  0  0  0  0  0  0  0  0  0  0
  -29.0240  -15.5620   21.4750 H   0  0  0  0  0  0  0  0  0  0  0  0
  -25.2100  -13.8640   20.5410 C   0  0  0  0  0  0  0  0  0  0  0  0
  -24.1380  -13.0920   20.9000 C   0  0  0  0  0  0  0  0  0  0  0  0
  -24.6020  -11.7400   20.8850 C   0  0  0  0  0  0  0  0  0  0  0  0
  -26.2590  -12.9840   20.3300 N   0  0  0  0  0  0  0  0  0  0  0  0
  -25.8990  -11.7020   20.5970 N   0  0  0  0  0  0  0  0  0  0  0  0
  -23.8730  -10.4790   21.0720 C   0  0  0  0  0  0  0  0  0  0  0  0
  -24.3040   -9.5090   22.0030 C   0  0  0  0  0  3  0  0  0  0  0  0
  -23.5760   -8.3130   22.1780 C   0  0  0  0  0  3  0  0  0  0  0  0
  -22.4030   -8.0790   21.4220 C   0  0  0  0  0  0  0  0  0  0  0  0
  -21.9910   -9.0380   20.4800 C   0  0  0  0  0  3  0  0  0  0  0  0
  -22.7200  -10.2250   20.3030 C   0  0  0  0  0  3  0  0  0  0  0  0
  -21.6460   -6.9350   21.5070 O   0  0  0  0  0  0  0  0  0  0  0  0
  -21.6050   -6.1820   22.6520 C   0  0  0  0  0  0  0  0  0  0  0  0
  -21.1960   -6.7270   23.8890 C   0  0  0  0  0  3  0  0  0  0  0  0
  -21.1020   -5.9000   25.0270 C   0  0  0  0  0  3  0  0  0  0  0  0
  -21.4100   -4.5290   24.9280 C   0  0  0  0  0  0  0  0  0  0  0  0
  -21.8110   -3.9840   23.6960 C   0  0  0  0  0  3  0  0  0  0  0  0
  -21.9070   -4.8080   22.5620 C   0  0  0  0  0  0  0  0  0  0  0  0
  -22.2750   -4.2730   21.3720 F   0  0  0  0  0  0  0  0  0  0  0  0
  -21.3120   -3.7330   26.0190 F   0  0  0  0  0  0  0  0  0  0  0  0
  -22.7360  -13.5720   21.1430 C   0  0  0  0  0  0  0  0  0  0  0  0
  -21.9910  -12.8830   22.0010 N   0  0  0  0  0  0  0  0  0  0  0  0
  -22.3070  -14.5920   20.6050 O   0  0  0  0  0  0  0  0  0  0  0  0
  -22.3510  -12.0600   22.4620 H   0  0  0  0  0  0  0  0  0  0  0  0
  -21.0490  -13.1860   22.2030 H   0  0  0  0  0  0  0  0  0  0  0  0
  -25.3780  -15.2330   20.3570 N   0  0  0  0  0  0  0  0  0  0  0  0
  -24.6120  -15.8910   20.4550 H   0  0  0  0  0  0  0  0  0  0  0  0
  -26.2380  -15.6670   20.0430 H   0  0  0  0  0  0  0  0  0  0  0  0
  -31.3930  -21.6570   21.4410 C   0  0  0  0  0  2  0  0  0  0  0  0
  -30.1320  -21.2170   21.5970 C   0  0  0  0  0  3  0  0  0  0  0  0
  -28.9400  -23.6960   20.4710 C   0  0  0  0  0  3  0  0  0  0  0  0
  -27.9690  -24.9090   20.0170 C   0  0  0  0  0  3  0  0  0  0  0  0
  -28.2550  -26.3710   20.2470 O   0  0  0  0  0  0  0  0  0  0  0  0
  -24.6100  -31.9010   23.2340 C   0  0  0  0  0  0  0  0  0  0  0  0
  -27.1760  -27.2860   20.1740 C   0  0  0  0  0  0  0  0  0  0  0  0
  -23.3980  -30.5090   21.6010 C   0  0  0  0  0  3  0  0  0  0  0  0
  -24.8350  -28.9530   20.1660 C   0  0  0  0  0  0  0  0  0  0  0  0
  -25.9440  -30.8000   21.4160 C   0  0  0  0  0  2  0  0  0  0  0  0
  -26.0120  -29.4200   20.7640 C   0  0  0  0  0  0  0  0  0  0  0  0
  -27.1860  -28.5980   20.7600 C   0  0  0  0  0  3  0  0  0  0  0  0
  -25.9750  -26.8970   19.5340 C   0  0  0  0  0  3  0  0  0  0  0  0
  -24.8210  -27.7000   19.5410 C   0  0  0  0  0  3  0  0  0  0  0  0
  -23.6050  -29.8350   20.2200 C   0  0  0  0  0  2  0  0  0  0  0  0
  -24.6700  -31.0880   22.1390 N   0  0  0  0  0  0  0  0  0  0  0  0
  -23.5290  -32.1850   23.7700 O   0  0  0  0  0  0  0  0  0  0  0  0
  -22.7310  -29.4950   22.5630 C   0  0  0  0  0  0  0  0  0  0  0  0
  -21.4060  -29.3150   22.4320 N   0  0  0  0  0  0  0  0  0  0  0  0
  -23.4080  -28.8720   23.3840 O   0  0  0  0  0  0  0  0  0  0  0  0
  -20.9180  -29.8690   21.7410 H   0  0  0  0  0  0  0  0  0  0  0  0
  -18.0290  -28.1100   22.9240 C   0  0  0  0  0  0  0  0  0  0  0  0
  -20.5850  -28.3810   23.2050 C   0  0  0  0  0  3  0  0  0  0  0  0
  -20.6950  -26.9450   22.6410 C   0  0  0  0  0  2  0  0  0  0  0  0
  -19.6010  -26.6110   21.6230 C   0  0  0  0  0  2  0  0  0  0  0  0
  -18.2150  -26.7550   22.2580 C   0  0  0  0  0  2  0  0  0  0  0  0
  -19.1430  -28.8790   23.3540 C   0  0  0  0  0  0  0  0  0  0  0  0
  -18.9160  -30.1450   23.9360 C   0  0  0  0  0  3  0  0  0  0  0  0
  -17.6080  -30.6410   24.0940 C   0  0  0  0  0  3  0  0  0  0  0  0
  -16.5090  -29.8690   23.6810 C   0  0  0  0  0  3  0  0  0  0  0  0
  -16.7200  -28.6050   23.1010 C   0  0  0  0  0  3  0  0  0  0  0  0
  -25.8960  -32.5300   23.8530 C   0  0  0  0  0  3  0  0  0  0  0  0
  -26.4110  -31.7600   25.1330 C   0  0  1  0  0  0  0  0  0  0  0  0
  -25.3180  -31.5320   26.2030 C   0  0  0  0  0  1  0  0  0  0  0  0
  -26.9870  -30.3790   24.7460 C   0  0  0  0  0  1  0  0  0  0  0  0
  -27.5670  -32.5510   25.7890 C   0  0  0  0  0  1  0  0  0  0  0  0
  -25.5920  -33.9310   24.1830 N   0  0  0  0  0  0  0  0  0  0  0  0
  -25.9210  -34.9810   23.4210 C   0  0  0  0  0  0  0  0  0  0  0  0
  -26.5820  -34.8750   22.3850 O   0  0  0  0  0  0  0  0  0  0  0  0
  -25.0060  -34.0870   24.9900 H   0  0  0  0  0  0  0  0  0  0  0  0
  -24.1940  -36.7800   23.0840 C   0  0  0  0  0  1  0  0  0  0  0  0
  -25.4430  -36.3730   23.8820 C   0  0  0  0  0  3  0  0  0  0  0  0
  -27.5890  -37.2520   24.6900 C   0  0  0  0  0  1  0  0  0  0  0  0
  -26.4770  -37.4230   23.7570 N   0  0  0  0  0  0  0  0  0  0  0  0
  -26.0760  -38.3440   23.9090 H   0  0  0  0  0  0  0  0  0  0  0  0
  1 50  1  0
  1  2  1  0
  2 49  1  0
  3  1  2  0
  4  6  2  0
  4  5  1  0
  5  8  2  0
  6  9  1  0
  8  7  1  0
  8 18  1  0
  9  2  1  0
  9  7  2  0
 10 18  1  0
 11 16  1  0
 12 13  1  0
 12 11  1  0
 14 13  1  0
 14 23  1  0
 14 15  1  0
 16 10  1  0
 16 15  1  0
 17 10  2  0
 18 19  1  0
 20 21  2  0
 21 40  1  0
 22 21  1  0
 22 25  1  0
 23 20  1  0
 23 24  1  0
 24 22  2  0
 25 26  1  0
 26 27  2  0
 28 31  1  0
 28 27  1  0
 29 28  2  0
 30 29  1  0
 30 25  2  0
 31 32  1  0
 32 33  1  0
 33 34  2  0
 35 34  1  0
 35 39  1  0
 36 35  2  0
 37 32  2  0
 37 36  1  0
 38 37  1  0
 40 41  1  0
 41 44  1  0
 41 43  1  0
 42 40  2  0
 45 46  1  0
 45 20  1  0
 47 45  1  0
 48 49  2  0
 51 52  1  0
 51 50  2  0
 53 64  2  0
 54 52  1  0
 54 59  1  0
 55 63  1  0
 55 65  1  0
 56 62  1  0
 56 58  1  0
 57 63  1  0
 58 57  1  0
 59 58  2  0
 60 61  1  0
 60 54  2  0
 61 56  2  0
 62 55  1  0
 63 53  1  0
 65 67  2  0
 66 65  1  0
 68 66  1  0
 69 78  2  0
 69 74  1  0
 70 66  1  0
 70 74  1  0
 71 70  1  0
 72 73  1  0
 72 71  1  0
 73 69  1  0
 74 75  2  0
 75 76  1  0
 77 76  2  0
 78 77  1  0
 79 53  1  0
 79 84  1  0
 79 80  1  0
 80 83  1  1
 80 81  1  0
 82 80  1  0
 84 87  1  0
 85 89  1  0
 85 84  1  0
 86 85  2  0
 89 88  1  0
 91 89  1  0
 91 92  1  0
 91 90  1  0
M  ISO  4  10 100  18 100  51 101  52 101
M  END
>  <TORSDO>  (88) 
F 20

>  <SCORE>  (88) 
-14.121

>  <name>  (88) 
87

>  <ligand_id>  (88) 
87

>  <original_smiles>  (88) 
[H]C([H])=C([H])N(C(=O)C([H])([H])C([H])([H])Oc1c([H])c([H])c2c(c1[H])C([H])([H])N(C(=O)C([H])(N([H])C(=O)C([H])(N([H])C([H])([H])[H])C([H])([H])[H])C(C([H])([H])[H])(C([H])([H])[H])C([H])([H])[H])C([H])(C(=O)N([H])C1([H])c3c([H])c([H])c([H])c([H])c3C([H])([H])C([H])([H])C1([H])[H])C2([H])[H])c1c([H])c([H])c([H])c(N([H])C(=O)N2C([H])([H])C([H])([H])C([H])([H])C([H])(n3nc(-c4c([H])c([H])c(Oc5c([H])c([H])c(F)c([H])c5F)c([H])c4[H])c(C(=O)N([H])[H])c3N([H])[H])C2([H])[H])c1[H]

>  <smiles>  (88) 
[H]C([H])=C([H])N(C(=O)C([H])([H])C([H])([H])Oc1c([H])c([H])c2c(c1[H])C([H])([H])N(C(=O)C([H])(N([H])C(=O)C([H])(N([H])C([H])([H])[H])C([H])([H])[H])C(C([H])([H])[H])(C([H])([H])[H])C([H])([H])[H])C([H])(C(=O)N([H])C1([H])c3c([H])c([H])c([H])c([H])c3C([H])([H])C([H])([H])C1([H])[H])C2([H])[H])c1c([H])c([H])c([H])c(N([H])C(=O)N2C([H])([H])C([H])([H])C([H])([H])C([H])(n3nc(-c4c([H])c([H])c(Oc5c([H])c([H])c(F)c([H])c5F)c([H])c4[H])c(C(=O)N([H])[H])c3N([H])[H])C2([H])[H])c1[H]

$$$$
88:0:0
     RDKit          3D

 97106  0  0  1  0  0  0  0  0999 V2000
  -30.6250  -23.6560   20.1820 C   0  0  0  0  0  0  0  0  0  0  0  0
  -32.0330  -23.3600   20.2100 C   0  0  0  0  0  0  0  0  0  0  0  0
  -29.9220  -22.3980   20.4500 C   0  0  0  0  0  0  0  0  0  0  0  0
  -33.0470  -24.2260   20.0310 C   0  0  0  0  0  2  0  0  0  0  0  0
  -30.0820  -24.8730   19.8810 C   0  0  0  0  0  3  0  0  0  0  0  0
  -32.2240  -21.8970   20.4370 C   0  0  0  0  0  2  0  0  0  0  0  0
  -30.8540  -21.3890   20.5860 N   0  0  0  0  0  0  0  0  0  0  0  0
  -28.6970  -22.2670   20.5290 O   0  0  0  0  0  0  0  0  0  0  0  0
  -31.7330  -19.0500   20.6790 C   0  0  0  0  0  3  0  0  0  0  0  0
  -31.5500  -17.6510   20.6120 C   0  0  0  0  0  3  0  0  0  0  0  0
  -29.3510  -19.3660   20.8140 C   0  0  0  0  0  3  0  0  0  0  0  0
  -29.1490  -17.9610   20.7160 C   0  0  0  0  0  0  0  0  0  0  0  0
  -30.6330  -19.9520   20.7020 C   0  0  0  0  0  0  0  0  0  0  0  0
  -30.2590  -17.0700   20.5790 C   0  0  0  0  0  0  0  0  0  0  0  0
  -30.8200  -14.6220   20.4770 C   0  0  0  0  0  0  0  0  0  0  0  0
  -30.6590  -12.3340   19.5650 C   0  0  0  0  0  2  0  0  0  0  0  0
  -29.7880  -12.3310   18.2930 C   0  0  0  0  0  2  0  0  0  0  0  0
  -28.2950  -12.1850   18.6540 C   0  0  0  0  0  2  0  0  0  0  0  0
  -27.8330  -13.0980   19.8280 C   0  0  0  0  0  3  0  0  0  0  0  0
  -28.8500  -13.1000   20.9900 C   0  0  0  0  0  2  0  0  0  0  0  0
  -30.1690  -13.4190   20.4310 N   0  0  0  0  0  0  0  0  0  0  0  0
  -32.0450  -14.6800   20.3760 O   0  0  0  0  0  0  0  0  0  0  0  0
  -29.9060  -15.7830   18.5990 C   0  0  0  0  0  1  0  0  0  0  0  0
  -30.1000  -15.7190   20.0630 N   0  0  0  0  0  0  0  0  0  0  0  0
  -25.3700  -13.5900   20.3630 C   0  0  0  0  0  0  0  0  0  0  0  0
  -24.3270  -12.7790   20.7010 C   0  0  0  0  0  0  0  0  0  0  0  0
  -24.8690  -11.4620   20.7840 C   0  0  0  0  0  0  0  0  0  0  0  0
  -26.4820  -12.7670   20.2600 N   0  0  0  0  0  0  0  0  0  0  0  0
  -26.1790  -11.4830   20.5770 N   0  0  0  0  0  0  0  0  0  0  0  0
  -24.2020  -10.1760   21.0010 C   0  0  0  0  0  0  0  0  0  0  0  0
  -24.6030   -9.3030   22.0350 C   0  0  0  0  0  3  0  0  0  0  0  0
  -23.9290   -8.0800   22.2350 C   0  0  0  0  0  3  0  0  0  0  0  0
  -22.8420   -7.7230   21.4030 C   0  0  0  0  0  0  0  0  0  0  0  0
  -22.4630   -8.5860   20.3600 C   0  0  0  0  0  3  0  0  0  0  0  0
  -23.1380   -9.8010   20.1570 C   0  0  0  0  0  3  0  0  0  0  0  0
  -22.1430   -6.5460   21.5120 O   0  0  0  0  0  0  0  0  0  0  0  0
  -21.9810   -5.9140   22.7180 C   0  0  0  0  0  0  0  0  0  0  0  0
  -21.3680   -6.5540   23.8170 C   0  0  0  0  0  3  0  0  0  0  0  0
  -21.1590   -5.8460   25.0170 C   0  0  0  0  0  3  0  0  0  0  0  0
  -21.5520   -4.4970   25.1170 C   0  0  0  0  0  0  0  0  0  0  0  0
  -22.1570   -3.8570   24.0210 C   0  0  0  0  0  3  0  0  0  0  0  0
  -22.3700   -4.5630   22.8240 C   0  0  0  0  0  0  0  0  0  0  0  0
  -22.9350   -3.9360   21.7640 F   0  0  0  0  0  0  0  0  0  0  0  0
  -21.3450   -3.8140   26.2670 F   0  0  0  0  0  0  0  0  0  0  0  0
  -22.8900  -13.1910   20.8560 C   0  0  0  0  0  0  0  0  0  0  0  0
  -22.1550  -12.5150   21.7310 N   0  0  0  0  0  0  0  0  0  0  0  0
  -22.4320  -14.1550   20.2440 O   0  0  0  0  0  0  0  0  0  0  0  0
  -22.5450  -11.7410   22.2490 H   0  0  0  0  0  0  0  0  0  0  0  0
  -21.1910  -12.7730   21.8910 H   0  0  0  0  0  0  0  0  0  0  0  0
  -25.4550  -14.9510   20.1230 N   0  0  0  0  0  0  0  0  0  0  0  0
  -24.6330  -15.4860   20.3760 H   0  0  0  0  0  0  0  0  0  0  0  0
  -26.3030  -15.3850   20.4820 H   0  0  0  0  0  0  0  0  0  0  0  0
  -27.7490  -17.4720   20.7520 C   0  0  0  0  0  0  0  0  0  0  0  0
  -26.6920  -18.2850   20.0040 C   0  0  0  0  0  1  0  0  0  0  0  0
  -27.4120  -16.4380   21.3300 O   0  0  0  0  0  0  0  0  0  0  0  0
  -28.6320  -25.3560   19.7380 C   0  0  0  0  0  2  0  0  0  0  0  0
  -28.5760  -26.7710   20.0030 O   0  0  0  0  0  0  0  0  0  0  0  0
  -24.7910  -31.7810   23.3330 C   0  0  0  0  0  0  0  0  0  0  0  0
  -27.3780  -27.4710   20.0110 C   0  0  0  0  0  0  0  0  0  0  0  0
  -23.5620  -30.5040   21.6020 C   0  0  0  0  0  3  0  0  0  0  0  0
  -24.9940  -29.0180   20.0950 C   0  0  0  0  0  0  0  0  0  0  0  0
  -26.0930  -30.8260   21.4300 C   0  0  0  0  0  2  0  0  0  0  0  0
  -26.1570  -29.4910   20.7130 C   0  0  0  0  0  0  0  0  0  0  0  0
  -27.3450  -28.7270   20.6630 C   0  0  0  0  0  3  0  0  0  0  0  0
  -26.1940  -27.0070   19.3930 C   0  0  0  0  0  3  0  0  0  0  0  0
  -25.0090  -27.7770   19.4290 C   0  0  0  0  0  3  0  0  0  0  0  0
  -23.7630  -29.8950   20.1870 C   0  0  0  0  0  2  0  0  0  0  0  0
  -24.8340  -31.0500   22.1830 N   0  0  0  0  0  0  0  0  0  0  0  0
  -23.7140  -32.0400   23.8880 O   0  0  0  0  0  0  0  0  0  0  0  0
  -22.8860  -29.4460   22.5010 C   0  0  0  0  0  0  0  0  0  0  0  0
  -21.5610  -29.2880   22.3450 N   0  0  0  0  0  0  0  0  0  0  0  0
  -23.5500  -28.7690   23.2910 O   0  0  0  0  0  0  0  0  0  0  0  0
  -21.0880  -29.8900   21.6850 H   0  0  0  0  0  0  0  0  0  0  0  0
  -18.1690  -28.0980   22.7200 C   0  0  0  0  0  0  0  0  0  0  0  0
  -20.7230  -28.3180   23.0500 C   0  0  0  0  0  3  0  0  0  0  0  0
  -20.8250  -26.9190   22.4020 C   0  0  0  0  0  2  0  0  0  0  0  0
  -19.7390  -26.6600   21.3510 C   0  0  0  0  0  2  0  0  0  0  0  0
  -18.3470  -26.7840   21.9770 C   0  0  0  0  0  2  0  0  0  0  0  0
  -19.2860  -28.8250   23.2110 C   0  0  0  0  0  0  0  0  0  0  0  0
  -19.0690  -30.0570   23.8630 C   0  0  0  0  0  3  0  0  0  0  0  0
  -17.7660  -30.5630   24.0320 C   0  0  0  0  0  3  0  0  0  0  0  0
  -16.6640  -29.8330   23.5590 C   0  0  0  0  0  3  0  0  0  0  0  0
  -16.8650  -28.6020   22.9090 C   0  0  0  0  0  3  0  0  0  0  0  0
  -26.0880  -32.3430   23.9980 C   0  0  0  0  0  3  0  0  0  0  0  0
  -26.5770  -31.4900   25.2320 C   0  0  1  0  0  0  0  0  0  0  0  0
  -25.4690  -31.2210   26.2780 C   0  0  0  0  0  1  0  0  0  0  0  0
  -27.1270  -30.1220   24.7650 C   0  0  0  0  0  1  0  0  0  0  0  0
  -27.7450  -32.2140   25.9420 C   0  0  0  0  0  1  0  0  0  0  0  0
  -25.8140  -33.7290   24.4020 N   0  0  0  0  0  0  0  0  0  0  0  0
  -26.1740  -34.8110   23.6990 C   0  0  0  0  0  0  0  0  0  0  0  0
  -26.8420  -34.7450   22.6630 O   0  0  0  0  0  0  0  0  0  0  0  0
  -25.2190  -33.8560   25.2070 H   0  0  0  0  0  0  0  0  0  0  0  0
  -24.4890  -36.6610   23.4390 C   0  0  0  0  0  1  0  0  0  0  0  0
  -25.7200  -36.1850   24.2270 C   0  0  0  0  0  3  0  0  0  0  0  0
  -27.8750  -36.9730   25.1050 C   0  0  0  0  0  1  0  0  0  0  0  0
  -26.7790  -37.2170   24.1690 N   0  0  0  0  0  0  0  0  0  0  0  0
  -26.3960  -38.1380   24.3640 H   0  0  0  0  0  0  0  0  0  0  0  0
  1  2  1  0
  1  3  1  0
  2  6  1  0
  3  8  2  0
  3  7  1  0
  4  2  2  0
  5  1  2  0
  6  7  1  0
  7 13  1  0
  9 13  1  0
 10  9  2  0
 12 53  1  0
 12 11  1  0
 13 11  2  0
 14 10  1  0
 14 12  2  0
 16 21  1  0
 17 18  1  0
 17 16  1  0
 19 18  1  0
 19 28  1  0
 19 20  1  0
 21 15  1  0
 21 20  1  0
 22 15  2  0
 23 24  1  0
 24 15  1  0
 24 14  1  0
 25 26  2  0
 26 27  1  0
 26 45  1  0
 27 30  1  0
 28 25  1  0
 28 29  1  0
 29 27  2  0
 30 31  1  0
 31 32  2  0
 33 36  1  0
 33 32  1  0
 34 33  2  0
 35 34  1  0
 35 30  2  0
 36 37  1  0
 37 42  2  0
 37 38  1  0
 38 39  2  0
 39 40  1  0
 40 44  1  0
 41 40  2  0
 42 41  1  0
 43 42  1  0
 45 46  1  0
 46 49  1  0
 46 48  1  0
 47 45  2  0
 50 25  1  0
 50 51  1  0
 50 52  1  0
 53 55  2  0
 54 53  1  0
 56  5  1  0
 56 57  1  0
 57 59  1  0
 58 69  2  0
 59 64  1  0
 60 68  1  0
 60 70  1  0
 61 67  1  0
 61 63  1  0
 62 68  1  0
 63 62  1  0
 64 63  2  0
 65 66  1  0
 65 59  2  0
 66 61  2  0
 67 60  1  0
 68 58  1  0
 70 72  2  0
 71 70  1  0
 73 71  1  0
 74 83  2  0
 74 79  1  0
 75 71  1  0
 75 79  1  0
 76 75  1  0
 77 78  1  0
 77 76  1  0
 78 74  1  0
 79 80  2  0
 80 81  1  0
 82 81  2  0
 83 82  1  0
 84 58  1  0
 84 89  1  0
 84 85  1  0
 85 88  1  1
 85 86  1  0
 87 85  1  0
 89 92  1  0
 90 94  1  0
 90 89  1  0
 91 90  2  0
 94 93  1  0
 96 94  1  0
 96 97  1  0
 96 95  1  0
M  ISO  4  15 100  24 100  56 101  57 101
M  END
>  <TORSDO>  (89) 
F 19

>  <SCORE>  (89) 
-11.903

>  <name>  (89) 
88

>  <ligand_id>  (89) 
88

>  <original_smiles>  (89) 
[H]C([H])=C1C(=C([H])C([H])([H])Oc2c([H])c([H])c3c(c2[H])C([H])([H])N(C(=O)C([H])(N([H])C(=O)C([H])(N([H])C([H])([H])[H])C([H])([H])[H])C(C([H])([H])[H])(C([H])([H])[H])C([H])([H])[H])C([H])(C(=O)N([H])C2([H])c4c([H])c([H])c([H])c([H])c4C([H])([H])C([H])([H])C2([H])[H])C3([H])[H])C(=O)N(c2c([H])c([H])c(N(C(=O)N3C([H])([H])C([H])([H])C([H])([H])C([H])(n4nc(-c5c([H])c([H])c(Oc6c([H])c([H])c(F)c([H])c6F)c([H])c5[H])c(C(=O)N([H])[H])c4N([H])[H])C3([H])[H])C([H])([H])[H])c(C(=O)C([H])([H])[H])c2[H])C1([H])[H]

>  <smiles>  (89) 
[H]C([H])=C1C(=C([H])C([H])([H])Oc2c([H])c([H])c3c(c2[H])C([H])([H])N(C(=O)C([H])(N([H])C(=O)C([H])(N([H])C([H])([H])[H])C([H])([H])[H])C(C([H])([H])[H])(C([H])([H])[H])C([H])([H])[H])C([H])(C(=O)N([H])C2([H])c4c([H])c([H])c([H])c([H])c4C([H])([H])C([H])([H])C2([H])[H])C3([H])[H])C(=O)N(c2c([H])c([H])c(N(C(=O)N3C([H])([H])C([H])([H])C([H])([H])C([H])(n4nc(-c5c([H])c([H])c(Oc6c([H])c([H])c(F)c([H])c6F)c([H])c5[H])c(C(=O)N([H])[H])c4N([H])[H])C3([H])[H])C([H])([H])[H])c(C(=O)C([H])([H])[H])c2[H])C1([H])[H]

$$$$
89:0:0
     RDKit          3D

 97106  0  0  1  0  0  0  0  0999 V2000
  -29.4300  -18.9630   20.3200 C   0  0  0  0  0  3  0  0  0  0  0  0
  -31.4760  -18.1410   19.3890 C   0  0  0  0  0  3  0  0  0  0  0  0
  -30.2620  -17.7830   20.0180 C   0  0  0  0  0  0  0  0  0  0  0  0
  -29.7990  -20.3590   19.9860 C   0  0  0  0  0  0  0  0  0  0  0  0
  -31.7800  -19.4800   19.0930 C   0  0  0  0  0  0  0  0  0  0  0  0
  -28.1910  -23.8540   20.7910 C   0  0  0  0  0  3  0  0  0  0  0  0
  -27.4420  -22.8450   21.5420 C   0  0  0  0  0  0  0  0  0  0  0  0
  -29.0790  -22.9560   19.9480 C   0  0  0  0  0  0  0  0  0  0  0  0
  -26.1820  -22.9680   22.0020 C   0  0  0  0  0  2  0  0  0  0  0  0
  -28.0100  -25.2620   20.9640 C   0  0  0  0  0  3  0  0  0  0  0  0
  -28.0720  -21.4830   21.4660 C   0  0  0  0  0  2  0  0  0  0  0  0
  -27.3430  -25.7350   22.2670 C   0  0  0  0  0  1  0  0  0  0  0  0
  -30.9850  -20.5280   19.3600 N   0  0  0  0  0  0  0  0  0  0  0  0
  -29.0130  -21.5960   20.3650 N   0  0  0  0  0  0  0  0  0  0  0  0
  -29.7790  -23.3600   19.0140 O   0  0  0  0  0  0  0  0  0  0  0  0
  -30.6700  -15.1200   20.1170 C   0  0  0  0  0  0  0  0  0  0  0  0
  -30.4500  -12.7940   19.1870 C   0  0  0  0  0  2  0  0  0  0  0  0
  -29.5000  -12.8080   17.9700 C   0  0  0  0  0  2  0  0  0  0  0  0
  -28.0390  -12.6290   18.4270 C   0  0  0  0  0  2  0  0  0  0  0  0
  -27.6730  -13.5450   19.6270 C   0  0  0  0  0  3  0  0  0  0  0  0
  -28.7520  -13.5280   20.7300 C   0  0  0  0  0  2  0  0  0  0  0  0
  -30.0270  -13.8900   20.0980 N   0  0  0  0  0  0  0  0  0  0  0  0
  -31.8650  -15.1300   19.8090 O   0  0  0  0  0  0  0  0  0  0  0  0
  -29.9380  -16.3170   20.2890 N   0  0  0  0  0  0  0  0  0  0  0  0
  -28.9870  -16.1500   20.5760 H   0  0  0  0  0  0  0  0  0  0  0  0
  -25.3160  -14.1320   20.4370 C   0  0  0  0  0  0  0  0  0  0  0  0
  -24.2520  -13.3600   20.8140 C   0  0  0  0  0  0  0  0  0  0  0  0
  -24.7000  -12.0060   20.7370 C   0  0  0  0  0  0  0  0  0  0  0  0
  -26.3440  -13.2500   20.1500 N   0  0  0  0  0  0  0  0  0  0  0  0
  -25.9820  -11.9630   20.3950 N   0  0  0  0  0  0  0  0  0  0  0  0
  -23.9610  -10.7460   20.9120 C   0  0  0  0  0  0  0  0  0  0  0  0
  -24.3880   -9.7610   21.8290 C   0  0  0  0  0  3  0  0  0  0  0  0
  -23.6500   -8.5700   21.9940 C   0  0  0  0  0  3  0  0  0  0  0  0
  -22.4700   -8.3560   21.2420 C   0  0  0  0  0  0  0  0  0  0  0  0
  -22.0620   -9.3300   20.3150 C   0  0  0  0  0  3  0  0  0  0  0  0
  -22.8010  -10.5130   20.1470 C   0  0  0  0  0  3  0  0  0  0  0  0
  -21.7040   -7.2170   21.3180 O   0  0  0  0  0  0  0  0  0  0  0  0
  -21.6430   -6.4650   22.4630 C   0  0  0  0  0  0  0  0  0  0  0  0
  -21.1690   -6.9980   23.6820 C   0  0  0  0  0  3  0  0  0  0  0  0
  -21.0570   -6.1710   24.8170 C   0  0  0  0  0  3  0  0  0  0  0  0
  -21.4100   -4.8110   24.7340 C   0  0  0  0  0  0  0  0  0  0  0  0
  -21.8770   -4.2760   23.5210 C   0  0  0  0  0  3  0  0  0  0  0  0
  -21.9900   -5.1000   22.3870 C   0  0  0  0  0  0  0  0  0  0  0  0
  -22.4210   -4.5760   21.2150 F   0  0  0  0  0  0  0  0  0  0  0  0
  -21.2970   -4.0130   25.8220 F   0  0  0  0  0  0  0  0  0  0  0  0
  -22.8680  -13.8470   21.1300 C   0  0  0  0  0  0  0  0  0  0  0  0
  -22.1540  -13.1410   22.0000 N   0  0  0  0  0  0  0  0  0  0  0  0
  -22.4300  -14.8870   20.6410 O   0  0  0  0  0  0  0  0  0  0  0  0
  -22.5220  -12.2990   22.4170 H   0  0  0  0  0  0  0  0  0  0  0  0
  -21.2260  -13.4470   22.2530 H   0  0  0  0  0  0  0  0  0  0  0  0
  -25.4890  -15.5050   20.2860 N   0  0  0  0  0  0  0  0  0  0  0  0
  -24.7230  -16.1570   20.4160 H   0  0  0  0  0  0  0  0  0  0  0  0
  -26.3160  -15.9430   19.9020 H   0  0  0  0  0  0  0  0  0  0  0  0
  -32.9770  -19.8090   18.4760 N   0  0  0  0  0  0  0  0  0  0  0  0
  -33.7400  -19.1430   18.5040 H   0  0  0  0  0  0  0  0  0  0  0  0
  -33.2770  -20.7760   18.4870 H   0  0  0  0  0  0  0  0  0  0  0  0
  -28.3960  -26.4620   20.2420 O   0  0  0  0  0  0  0  0  0  0  0  0
  -24.6360  -31.9880   23.2230 C   0  0  0  0  0  0  0  0  0  0  0  0
  -27.3970  -27.4840   20.1090 C   0  0  0  0  0  0  0  0  0  0  0  0
  -23.5090  -30.6170   21.5110 C   0  0  0  0  0  3  0  0  0  0  0  0
  -25.0290  -29.1370   20.0660 C   0  0  0  0  0  0  0  0  0  0  0  0
  -26.0540  -30.9610   21.4190 C   0  0  0  0  0  2  0  0  0  0  0  0
  -26.1790  -29.5990   20.7230 C   0  0  0  0  0  0  0  0  0  0  0  0
  -27.3690  -28.7850   20.7360 C   0  0  0  0  0  3  0  0  0  0  0  0
  -26.2340  -27.1200   19.4010 C   0  0  0  0  0  3  0  0  0  0  0  0
  -25.0670  -27.9090   19.3910 C   0  0  0  0  0  3  0  0  0  0  0  0
  -23.7760  -29.9950   20.1160 C   0  0  0  0  0  2  0  0  0  0  0  0
  -24.7510  -31.2070   22.1070 N   0  0  0  0  0  0  0  0  0  0  0  0
  -23.5320  -32.2340   23.7310 O   0  0  0  0  0  0  0  0  0  0  0  0
  -22.8340  -29.5620   22.4230 C   0  0  0  0  0  0  0  0  0  0  0  0
  -21.5100  -29.3780   22.2660 N   0  0  0  0  0  0  0  0  0  0  0  0
  -23.4990  -28.9180   23.2370 O   0  0  0  0  0  0  0  0  0  0  0  0
  -21.0300  -29.9520   21.5880 H   0  0  0  0  0  0  0  0  0  0  0  0
  -18.1190  -28.2080   22.7670 C   0  0  0  0  0  0  0  0  0  0  0  0
  -20.6880  -28.4050   22.9920 C   0  0  0  0  0  3  0  0  0  0  0  0
  -20.7490  -27.0160   22.3170 C   0  0  0  0  0  2  0  0  0  0  0  0
  -19.6180  -26.7840   21.3080 C   0  0  0  0  0  2  0  0  0  0  0  0
  -18.2540  -26.9080   21.9930 C   0  0  0  0  0  2  0  0  0  0  0  0
  -19.2620  -28.9190   23.2220 C   0  0  0  0  0  0  0  0  0  0  0  0
  -19.0790  -30.1390   23.9080 C   0  0  0  0  0  3  0  0  0  0  0  0
  -17.7880  -30.6500   24.1400 C   0  0  0  0  0  3  0  0  0  0  0  0
  -16.6600  -29.9360   23.6970 C   0  0  0  0  0  3  0  0  0  0  0  0
  -16.8280  -28.7150   23.0190 C   0  0  0  0  0  3  0  0  0  0  0  0
  -25.8850  -32.6300   23.9020 C   0  0  0  0  0  3  0  0  0  0  0  0
  -25.5500  -34.0260   24.2250 N   0  0  0  0  0  0  0  0  0  0  0  0
  -25.8680  -35.0830   23.4630 C   0  0  0  0  0  0  0  0  0  0  0  0
  -26.5390  -34.9860   22.4330 O   0  0  0  0  0  0  0  0  0  0  0  0
  -24.9480  -34.1730   25.0210 H   0  0  0  0  0  0  0  0  0  0  0  0
  -24.0970  -36.8360   23.1220 C   0  0  0  0  0  1  0  0  0  0  0  0
  -25.3600  -36.4650   23.9150 C   0  0  0  0  0  3  0  0  0  0  0  0
  -27.4840  -37.4070   24.7120 C   0  0  0  0  0  1  0  0  0  0  0  0
  -26.3700  -37.5370   23.7760 N   0  0  0  0  0  0  0  0  0  0  0  0
  -25.9470  -38.4520   23.9110 H   0  0  0  0  0  0  0  0  0  0  0  0
  -26.3500  -31.8590   25.1980 C   0  0  1  0  0  0  0  0  0  0  0  0
  -25.2110  -31.6110   26.2160 C   0  0  0  0  0  1  0  0  0  0  0  0
  -26.9580  -30.4860   24.8320 C   0  0  0  0  0  1  0  0  0  0  0  0
  -27.4650  -32.6590   25.9110 C   0  0  0  0  0  1  0  0  0  0  0  0
  2  3  2  0
  3 24  1  0
  3  1  1  0
  4  1  2  0
  4 14  1  0
  5 13  2  0
  5  2  1  0
  6 10  1  0
  6  7  1  0
  7  9  2  0
  8 14  1  0
  8  6  1  0
 10 12  1  0
 11  7  1  0
 13  4  1  0
 14 11  1  0
 15  8  2  0
 16 24  1  0
 17 22  1  0
 18 19  1  0
 18 17  1  0
 20 19  1  0
 20 29  1  0
 20 21  1  0
 22 16  1  0
 22 21  1  0
 23 16  2  0
 24 25  1  0
 26 27  2  0
 27 46  1  0
 28 27  1  0
 28 31  1  0
 29 30  1  0
 29 26  1  0
 30 28  2  0
 31 32  1  0
 32 33  2  0
 34 37  1  0
 34 33  1  0
 35 34  2  0
 36 35  1  0
 36 31  2  0
 37 38  1  0
 38 39  1  0
 39 40  2  0
 41 40  1  0
 41 45  1  0
 42 41  2  0
 43 38  2  0
 43 42  1  0
 44 43  1  0
 46 47  1  0
 47 50  1  0
 47 49  1  0
 48 46  2  0
 51 52  1  0
 51 26  1  0
 53 51  1  0
 54 56  1  0
 54 55  1  0
 54  5  1  0
 57 10  1  0
 58 69  2  0
 59 57  1  0
 59 64  1  0
 60 68  1  0
 60 70  1  0
 61 67  1  0
 61 63  1  0
 62 68  1  0
 63 64  2  0
 63 62  1  0
 65 59  2  0
 66 65  1  0
 66 61  2  0
 67 60  1  0
 68 58  1  0
 70 72  2  0
 71 70  1  0
 73 71  1  0
 74 83  2  0
 74 79  1  0
 75 71  1  0
 75 79  1  0
 76 75  1  0
 77 78  1  0
 77 76  1  0
 78 74  1  0
 79 80  2  0
 80 81  1  0
 82 81  2  0
 83 82  1  0
 84 58  1  0
 84 85  1  0
 84 94  1  0
 85 88  1  0
 86 90  1  0
 86 85  1  0
 87 86  2  0
 90 89  1  0
 92 93  1  0
 92 90  1  0
 92 91  1  0
 94 97  1  1
 94 95  1  0
 96 94  1  0
M  ISO  4  10 101  16 100  24 100  57 101
M  END
>  <TORSDO>  (90) 
F 17

>  <SCORE>  (90) 
-14.939

>  <name>  (90) 
89

>  <ligand_id>  (90) 
89

>  <original_smiles>  (90) 
[H]C([H])=C1C(=C(Oc2c([H])c([H])c3c(c2[H])C([H])([H])N(C(=O)C([H])(N([H])C(=O)C([H])(N([H])C([H])([H])[H])C([H])([H])[H])C(C([H])([H])[H])(C([H])([H])[H])C([H])([H])[H])C([H])(C(=O)N([H])C2([H])c4c([H])c([H])c([H])c([H])c4C([H])([H])C([H])([H])C2([H])[H])C3([H])[H])C([H])([H])[H])C(=O)N(c2nc(N([H])[H])c([H])c(N([H])C(=O)N3C([H])([H])C([H])([H])C([H])([H])C([H])(n4nc(-c5c([H])c([H])c(Oc6c([H])c([H])c(F)c([H])c6F)c([H])c5[H])c(C(=O)N([H])[H])c4N([H])[H])C3([H])[H])c2[H])C1([H])[H]

>  <smiles>  (90) 
[H]C([H])=C1C(=C(Oc2c([H])c([H])c3c(c2[H])C([H])([H])N(C(=O)C([H])(N([H])C(=O)C([H])(N([H])C([H])([H])[H])C([H])([H])[H])C(C([H])([H])[H])(C([H])([H])[H])C([H])([H])[H])C([H])(C(=O)N([H])C2([H])c4c([H])c([H])c([H])c([H])c4C([H])([H])C([H])([H])C2([H])[H])C3([H])[H])C([H])([H])[H])C(=O)N(c2nc(N([H])[H])c([H])c(N([H])C(=O)N3C([H])([H])C([H])([H])C([H])([H])C([H])(n4nc(-c5c([H])c([H])c(Oc6c([H])c([H])c(F)c([H])c6F)c([H])c5[H])c(C(=O)N([H])[H])c4N([H])[H])C3([H])[H])c2[H])C1([H])[H]

$$$$
90:0:0
     RDKit          3D

 98107  0  0  1  0  0  0  0  0999 V2000
  -31.9620  -21.4170   22.8780 C   0  0  0  0  0  3  0  0  0  0  0  0
  -31.7360  -20.1860   22.2380 C   0  0  0  0  0  3  0  0  0  0  0  0
  -31.1870  -22.5390   22.5440 C   0  0  0  0  0  3  0  0  0  0  0  0
  -30.7180  -20.0130   21.2700 C   0  0  0  0  0  0  0  0  0  0  0  0
  -30.1610  -22.4240   21.5810 C   0  0  0  0  0  0  0  0  0  0  0  0
  -29.9190  -21.1590   20.9820 C   0  0  0  0  0  0  0  0  0  0  0  0
  -28.9130  -21.0530   20.0770 F   0  0  0  0  0  0  0  0  0  0  0  0
  -31.3570  -17.6490   20.4250 C   0  0  0  0  0  0  0  0  0  0  0  0
  -29.3660  -17.9670   20.8360 C   0  0  0  0  0  2  0  0  0  0  0  0
  -30.0770  -16.8750   19.9850 C   0  0  1  0  0  0  0  0  0  0  0  0
  -29.8580  -16.8840   18.4600 C   0  0  0  0  0  1  0  0  0  0  0  0
  -30.5600  -18.7680   20.5850 N   0  0  0  0  0  0  0  0  0  0  0  0
  -32.5230  -17.4290   20.6890 O   0  0  0  0  0  0  0  0  0  0  0  0
  -30.6930  -14.4470   20.2000 C   0  0  0  0  0  0  0  0  0  0  0  0
  -30.3550  -12.3000   19.0640 C   0  0  0  0  0  2  0  0  0  0  0  0
  -29.3810  -12.5500   17.8910 C   0  0  0  0  0  2  0  0  0  0  0  0
  -27.9200  -12.4130   18.3610 C   0  0  0  0  0  2  0  0  0  0  0  0
  -27.6270  -13.2220   19.6540 C   0  0  0  0  0  3  0  0  0  0  0  0
  -28.7170  -12.9750   20.7260 C   0  0  0  0  0  2  0  0  0  0  0  0
  -30.0260  -13.2650   20.1240 N   0  0  0  0  0  0  0  0  0  0  0  0
  -31.8240  -14.6030   19.7360 O   0  0  0  0  0  0  0  0  0  0  0  0
  -29.9240  -15.5050   20.5320 N   0  0  0  0  0  0  0  0  0  0  0  0
  -29.0290  -15.2810   20.9350 H   0  0  0  0  0  0  0  0  0  0  0  0
  -25.2470  -13.8230   20.4300 C   0  0  0  0  0  0  0  0  0  0  0  0
  -24.1920  -13.0480   20.8280 C   0  0  0  0  0  0  0  0  0  0  0  0
  -24.6540  -11.6970   20.7840 C   0  0  0  0  0  0  0  0  0  0  0  0
  -26.2870  -12.9450   20.1690 N   0  0  0  0  0  0  0  0  0  0  0  0
  -25.9350  -11.6620   20.4390 N   0  0  0  0  0  0  0  0  0  0  0  0
  -23.9370  -10.4330   20.9900 C   0  0  0  0  0  0  0  0  0  0  0  0
  -24.3870   -9.4730   21.9230 C   0  0  0  0  0  3  0  0  0  0  0  0
  -23.6700   -8.2730   22.1180 C   0  0  0  0  0  3  0  0  0  0  0  0
  -22.4880   -8.0250   21.3800 C   0  0  0  0  0  0  0  0  0  0  0  0
  -22.0570   -8.9750   20.4370 C   0  0  0  0  0  3  0  0  0  0  0  0
  -22.7760  -10.1650   20.2400 C   0  0  0  0  0  3  0  0  0  0  0  0
  -21.7420   -6.8760   21.4850 O   0  0  0  0  0  0  0  0  0  0  0  0
  -21.7030   -6.1460   22.6440 C   0  0  0  0  0  0  0  0  0  0  0  0
  -21.2640   -6.7060   23.8630 C   0  0  0  0  0  3  0  0  0  0  0  0
  -21.1740   -5.9020   25.0160 C   0  0  0  0  0  3  0  0  0  0  0  0
  -21.5110   -4.5360   24.9510 C   0  0  0  0  0  0  0  0  0  0  0  0
  -21.9410   -3.9740   23.7360 C   0  0  0  0  0  3  0  0  0  0  0  0
  -22.0340   -4.7760   22.5850 C   0  0  0  0  0  0  0  0  0  0  0  0
  -22.4300   -4.2260   21.4120 F   0  0  0  0  0  0  0  0  0  0  0  0
  -21.4160   -3.7610   26.0570 F   0  0  0  0  0  0  0  0  0  0  0  0
  -22.8010  -13.5230   21.1400 C   0  0  0  0  0  0  0  0  0  0  0  0
  -22.0970  -12.8220   22.0230 N   0  0  0  0  0  0  0  0  0  0  0  0
  -22.3490  -14.5500   20.6360 O   0  0  0  0  0  0  0  0  0  0  0  0
  -22.4770  -11.9920   22.4540 H   0  0  0  0  0  0  0  0  0  0  0  0
  -21.1650  -13.1230   22.2710 H   0  0  0  0  0  0  0  0  0  0  0  0
  -25.4040  -15.1940   20.2480 N   0  0  0  0  0  0  0  0  0  0  0  0
  -24.6360  -15.8440   20.3710 H   0  0  0  0  0  0  0  0  0  0  0  0
  -26.2310  -15.6320   19.8640 H   0  0  0  0  0  0  0  0  0  0  0  0
  -29.6410  -24.8470   21.2640 C   0  0  0  0  0  0  0  0  0  0  0  0
  -29.3200  -23.5340   21.2630 N   0  0  0  0  0  0  0  0  0  0  0  0
  -30.8070  -25.2430   21.1620 O   0  0  0  0  0  0  0  0  0  0  0  0
  -28.3460  -23.3150   21.1000 H   0  0  0  0  0  0  0  0  0  0  0  0
  -27.2040  -25.2600   21.9560 C   0  0  0  0  0  1  0  0  0  0  0  0
  -28.4970  -25.8900   21.3730 C   0  0  0  0  0  3  0  0  0  0  0  0
  -28.3060  -26.5820   20.1190 O   0  0  0  0  0  0  0  0  0  0  0  0
  -24.5910  -31.8330   23.2060 C   0  0  0  0  0  0  0  0  0  0  0  0
  -27.2010  -27.4020   20.0870 C   0  0  0  0  0  0  0  0  0  0  0  0
  -23.3780  -30.4590   21.5430 C   0  0  0  0  0  3  0  0  0  0  0  0
  -24.8230  -28.9280   20.1010 C   0  0  0  0  0  0  0  0  0  0  0  0
  -25.9040  -30.7970   21.3590 C   0  0  0  0  0  2  0  0  0  0  0  0
  -25.9820  -29.4330   20.7080 C   0  0  0  0  0  0  0  0  0  0  0  0
  -27.1750  -28.6730   20.7080 C   0  0  0  0  0  3  0  0  0  0  0  0
  -26.0360  -26.9210   19.4570 C   0  0  0  0  0  3  0  0  0  0  0  0
  -24.8440  -27.6690   19.4730 C   0  0  0  0  0  3  0  0  0  0  0  0
  -23.5840  -29.7930   20.1550 C   0  0  0  0  0  2  0  0  0  0  0  0
  -24.6410  -31.0430   22.0950 N   0  0  0  0  0  0  0  0  0  0  0  0
  -23.5130  -32.1130   23.7460 O   0  0  0  0  0  0  0  0  0  0  0  0
  -22.7120  -29.4360   22.4900 C   0  0  0  0  0  0  0  0  0  0  0  0
  -21.3870  -29.2690   22.3570 N   0  0  0  0  0  0  0  0  0  0  0  0
  -23.3870  -28.7950   23.3010 O   0  0  0  0  0  0  0  0  0  0  0  0
  -20.9060  -29.8350   21.6720 H   0  0  0  0  0  0  0  0  0  0  0  0
  -18.0020  -28.0940   22.8240 C   0  0  0  0  0  0  0  0  0  0  0  0
  -20.5580  -28.3310   23.1140 C   0  0  0  0  0  3  0  0  0  0  0  0
  -20.6550  -26.9030   22.5270 C   0  0  0  0  0  2  0  0  0  0  0  0
  -19.5580  -26.5970   21.5020 C   0  0  0  0  0  2  0  0  0  0  0  0
  -18.1730  -26.7490   22.1380 C   0  0  0  0  0  2  0  0  0  0  0  0
  -19.1230  -28.8440   23.2670 C   0  0  0  0  0  0  0  0  0  0  0  0
  -18.9100  -30.1050   23.8650 C   0  0  0  0  0  3  0  0  0  0  0  0
  -17.6080  -30.6160   24.0250 C   0  0  0  0  0  3  0  0  0  0  0  0
  -16.5030  -29.8630   23.5970 C   0  0  0  0  0  3  0  0  0  0  0  0
  -16.6990  -28.6040   23.0030 C   0  0  0  0  0  3  0  0  0  0  0  0
  -25.8830  -32.4420   23.8340 C   0  0  0  0  0  3  0  0  0  0  0  0
  -26.3980  -31.6450   25.0960 C   0  0  1  0  0  0  0  0  0  0  0  0
  -25.3040  -31.3960   26.1620 C   0  0  0  0  0  1  0  0  0  0  0  0
  -26.9710  -30.2720   24.6760 C   0  0  0  0  0  1  0  0  0  0  0  0
  -27.5540  -32.4200   25.7690 C   0  0  0  0  0  1  0  0  0  0  0  0
  -25.5870  -33.8380   24.1850 N   0  0  0  0  0  0  0  0  0  0  0  0
  -25.9270  -34.8980   23.4390 C   0  0  0  0  0  0  0  0  0  0  0  0
  -26.5940  -34.8040   22.4050 O   0  0  0  0  0  0  0  0  0  0  0  0
  -24.9960  -33.9870   24.9890 H   0  0  0  0  0  0  0  0  0  0  0  0
  -24.2170  -36.7100   23.1060 C   0  0  0  0  0  1  0  0  0  0  0  0
  -25.4500  -36.2820   23.9170 C   0  0  0  0  0  3  0  0  0  0  0  0
  -27.5860  -37.1380   24.7740 C   0  0  0  0  0  1  0  0  0  0  0  0
  -26.4930  -37.3270   23.8240 N   0  0  0  0  0  0  0  0  0  0  0  0
  -26.0970  -38.2510   23.9740 H   0  0  0  0  0  0  0  0  0  0  0  0
  2  1  2  0
  3  1  1  0
  4  2  1  0
  5  3  2  0
  6  4  2  0
  6  5  1  0
  7  6  1  0
  8 12  1  0
  8 13  2  0
 10 11  1  6
 10  8  1  0
 10 22  1  0
 10  9  1  0
 12  9  1  0
 12  4  1  0
 14 22  1  0
 15 20  1  0
 16 17  1  0
 16 15  1  0
 18 17  1  0
 18 27  1  0
 18 19  1  0
 20 14  1  0
 20 19  1  0
 21 14  2  0
 22 23  1  0
 24 25  2  0
 25 44  1  0
 26 25  1  0
 26 29  1  0
 27 24  1  0
 27 28  1  0
 28 26  2  0
 29 30  1  0
 30 31  2  0
 32 35  1  0
 32 31  1  0
 33 32  2  0
 34 33  1  0
 34 29  2  0
 35 36  1  0
 36 37  1  0
 37 38  2  0
 39 38  1  0
 39 43  1  0
 40 39  2  0
 41 36  2  0
 41 40  1  0
 42 41  1  0
 44 45  1  0
 45 48  1  0
 45 47  1  0
 46 44  2  0
 49 50  1  0
 49 24  1  0
 51 49  1  0
 52 57  1  0
 53 52  1  0
 53  5  1  0
 54 52  2  0
 55 53  1  0
 57 56  1  0
 58 57  1  0
 59 70  2  0
 60 58  1  0
 60 65  1  0
 61 69  1  0
 61 71  1  0
 62 68  1  0
 62 64  1  0
 63 69  1  0
 64 65  2  0
 64 63  1  0
 66 67  1  0
 66 60  2  0
 67 62  2  0
 68 61  1  0
 69 59  1  0
 71 73  2  0
 72 71  1  0
 74 72  1  0
 75 84  2  0
 75 80  1  0
 76 72  1  0
 76 80  1  0
 77 76  1  0
 78 79  1  0
 78 77  1  0
 79 75  1  0
 80 81  2  0
 81 82  1  0
 83 82  2  0
 84 83  1  0
 85 59  1  0
 85 90  1  0
 85 86  1  0
 86 89  1  1
 86 87  1  0
 88 86  1  0
 90 93  1  0
 91 95  1  0
 91 90  1  0
 92 91  2  0
 95 94  1  0
 97 95  1  0
 97 98  1  0
 97 96  1  0
M  ISO  4  14 100  22 100  57 101  58 101
M  END
>  <TORSDO>  (91) 
F 19

>  <SCORE>  (91) 
-14.275

>  <name>  (91) 
90

>  <ligand_id>  (91) 
90

>  <original_smiles>  (91) 
[H]c1c([H])c(N([H])C(=O)C([H])(Oc2c([H])c([H])c3c(c2[H])C([H])([H])N(C(=O)C([H])(N([H])C(=O)C([H])(N([H])C([H])([H])[H])C([H])([H])[H])C(C([H])([H])[H])(C([H])([H])[H])C([H])([H])[H])C([H])(C(=O)N([H])C2([H])c4c([H])c([H])c([H])c([H])c4C([H])([H])C([H])([H])C2([H])[H])C3([H])[H])C([H])([H])[H])c(F)c(N2C(=O)C(N([H])C(=O)N3C([H])([H])C([H])([H])C([H])([H])C([H])(n4nc(-c5c([H])c([H])c(Oc6c([H])c([H])c(F)c([H])c6F)c([H])c5[H])c(C(=O)N([H])[H])c4N([H])[H])C3([H])[H])(C([H])([H])[H])C2([H])[H])c1[H]

>  <smiles>  (91) 
[H]c1c([H])c(N([H])C(=O)C([H])(Oc2c([H])c([H])c3c(c2[H])C([H])([H])N(C(=O)C([H])(N([H])C(=O)C([H])(N([H])C([H])([H])[H])C([H])([H])[H])C(C([H])([H])[H])(C([H])([H])[H])C([H])([H])[H])C([H])(C(=O)N([H])C2([H])c4c([H])c([H])c([H])c([H])c4C([H])([H])C([H])([H])C2([H])[H])C3([H])[H])C([H])([H])[H])c(F)c(N2C(=O)C(N([H])C(=O)N3C([H])([H])C([H])([H])C([H])([H])C([H])(n4nc(-c5c([H])c([H])c(Oc6c([H])c([H])c(F)c([H])c6F)c([H])c5[H])c(C(=O)N([H])[H])c4N([H])[H])C3([H])[H])(C([H])([H])[H])C2([H])[H])c1[H]

$$$$
91:0:0
     RDKit          3D

 92101  0  0  1  0  0  0  0  0999 V2000
  -28.6330  -23.6450   19.7260 C   0  0  0  0  0  0  0  0  0  0  0  0
  -28.6400  -22.6210   20.8110 C   0  0  0  0  0  0  0  0  0  0  0  0
  -28.4380  -25.0350   19.4790 C   0  0  0  0  0  0  0  0  0  0  0  0
  -28.9560  -22.4810   18.7450 C   0  0  0  0  0  2  0  0  0  0  0  0
  -28.6140  -25.4920   18.0390 C   0  0  0  0  0  1  0  0  0  0  0  0
  -28.9040  -21.5300   19.8910 N   0  0  0  0  0  0  0  0  0  0  0  0
  -28.4200  -22.7240   22.0020 O   0  0  0  0  0  0  0  0  0  0  0  0
  -28.2850  -18.1870   18.0810 C   0  0  0  0  0  3  0  0  0  0  0  0
  -28.3520  -19.5370   18.4850 C   0  0  0  0  0  3  0  0  0  0  0  0
  -28.8370  -17.1370   18.8340 C   0  0  0  0  0  3  0  0  0  0  0  0
  -29.4830  -18.8330   20.4550 C   0  0  0  0  0  3  0  0  0  0  0  0
  -28.9430  -19.9990   19.6950 C   0  0  0  0  0  0  0  0  0  0  0  0
  -29.4720  -17.3870   20.0620 C   0  0  0  0  0  0  0  0  0  0  0  0
  -30.5650  -14.9510   20.3520 C   0  0  0  0  0  0  0  0  0  0  0  0
  -30.3400  -12.6300   19.3750 C   0  0  0  0  0  2  0  0  0  0  0  0
  -29.4190  -12.6120   18.1360 C   0  0  0  0  0  2  0  0  0  0  0  0
  -27.9470  -12.4330   18.5520 C   0  0  0  0  0  2  0  0  0  0  0  0
  -27.5510  -13.3300   19.7560 C   0  0  0  0  0  3  0  0  0  0  0  0
  -28.6050  -13.3570   20.8830 C   0  0  0  0  0  2  0  0  0  0  0  0
  -29.8830  -13.7380   20.2680 N   0  0  0  0  0  0  0  0  0  0  0  0
  -31.7440  -14.9450   19.9880 O   0  0  0  0  0  0  0  0  0  0  0  0
  -30.5990  -16.5660   22.1230 C   0  0  0  0  0  1  0  0  0  0  0  0
  -30.0060  -16.1770   20.8320 N   0  0  0  0  0  0  0  0  0  0  0  0
  -25.1650  -13.8950   20.4740 C   0  0  0  0  0  0  0  0  0  0  0  0
  -24.0980  -13.1150   20.8170 C   0  0  0  0  0  0  0  0  0  0  0  0
  -24.5700  -11.7660   20.8130 C   0  0  0  0  0  0  0  0  0  0  0  0
  -26.2150  -13.0210   20.2510 N   0  0  0  0  0  0  0  0  0  0  0  0
  -25.8650  -11.7360   20.5220 N   0  0  0  0  0  0  0  0  0  0  0  0
  -23.8480  -10.5040   21.0120 C   0  0  0  0  0  0  0  0  0  0  0  0
  -24.2740   -9.5450   21.9570 C   0  0  0  0  0  3  0  0  0  0  0  0
  -23.5480   -8.3500   22.1450 C   0  0  0  0  0  3  0  0  0  0  0  0
  -22.3760   -8.1040   21.3870 C   0  0  0  0  0  0  0  0  0  0  0  0
  -21.9680   -9.0520   20.4320 C   0  0  0  0  0  3  0  0  0  0  0  0
  -22.6980  -10.2390   20.2410 C   0  0  0  0  0  3  0  0  0  0  0  0
  -21.6250   -6.9590   21.4820 O   0  0  0  0  0  0  0  0  0  0  0  0
  -21.5810   -6.2220   22.6370 C   0  0  0  0  0  0  0  0  0  0  0  0
  -21.1690   -6.7850   23.8640 C   0  0  0  0  0  3  0  0  0  0  0  0
  -21.0690   -5.9740   25.0130 C   0  0  0  0  0  3  0  0  0  0  0  0
  -21.3750   -4.6010   24.9340 C   0  0  0  0  0  0  0  0  0  0  0  0
  -21.7860   -4.0390   23.7120 C   0  0  0  0  0  3  0  0  0  0  0  0
  -21.8840   -4.8470   22.5660 C   0  0  0  0  0  0  0  0  0  0  0  0
  -22.2560   -4.2970   21.3860 F   0  0  0  0  0  0  0  0  0  0  0  0
  -21.2700   -3.8210   26.0340 F   0  0  0  0  0  0  0  0  0  0  0  0
  -22.6950  -13.5900   21.0580 C   0  0  0  0  0  0  0  0  0  0  0  0
  -21.9620  -12.9070   21.9270 N   0  0  0  0  0  0  0  0  0  0  0  0
  -22.2610  -14.6040   20.5130 O   0  0  0  0  0  0  0  0  0  0  0  0
  -22.3350  -12.0970   22.4030 H   0  0  0  0  0  0  0  0  0  0  0  0
  -21.0160  -13.2030   22.1280 H   0  0  0  0  0  0  0  0  0  0  0  0
  -25.3300  -15.2690   20.3220 N   0  0  0  0  0  0  0  0  0  0  0  0
  -24.5710  -15.9090   20.5200 H   0  0  0  0  0  0  0  0  0  0  0  0
  -26.2330  -15.7230   20.2990 H   0  0  0  0  0  0  0  0  0  0  0  0
  -28.2440  -26.2120   20.3110 O   0  0  0  0  0  0  0  0  0  0  0  0
  -24.6400  -31.8850   23.2320 C   0  0  0  0  0  0  0  0  0  0  0  0
  -27.2000  -27.1940   20.1690 C   0  0  0  0  0  0  0  0  0  0  0  0
  -23.4290  -30.4840   21.6020 C   0  0  0  0  0  3  0  0  0  0  0  0
  -24.8650  -28.9180   20.1590 C   0  0  0  0  0  0  0  0  0  0  0  0
  -25.9780  -30.7610   21.4160 C   0  0  0  0  0  2  0  0  0  0  0  0
  -26.0450  -29.3700   20.7600 C   0  0  0  0  0  0  0  0  0  0  0  0
  -27.2100  -28.5210   20.7560 C   0  0  0  0  0  3  0  0  0  0  0  0
  -25.9870  -26.8270   19.5470 C   0  0  0  0  0  3  0  0  0  0  0  0
  -24.8450  -27.6580   19.5380 C   0  0  0  0  0  3  0  0  0  0  0  0
  -23.6370  -29.8100   20.2190 C   0  0  0  0  0  2  0  0  0  0  0  0
  -24.7040  -31.0680   22.1360 N   0  0  0  0  0  0  0  0  0  0  0  0
  -23.5580  -32.1690   23.7680 O   0  0  0  0  0  0  0  0  0  0  0  0
  -22.7650  -29.4760   22.5720 C   0  0  0  0  0  0  0  0  0  0  0  0
  -21.4380  -29.2980   22.4530 N   0  0  0  0  0  0  0  0  0  0  0  0
  -23.4450  -28.8580   23.3950 O   0  0  0  0  0  0  0  0  0  0  0  0
  -20.9500  -29.8480   21.7610 H   0  0  0  0  0  0  0  0  0  0  0  0
  -18.0660  -28.0660   22.9570 C   0  0  0  0  0  0  0  0  0  0  0  0
  -20.6220  -28.3590   23.2290 C   0  0  0  0  0  3  0  0  0  0  0  0
  -20.7370  -26.9230   22.6680 C   0  0  0  0  0  2  0  0  0  0  0  0
  -19.6410  -26.5780   21.6550 C   0  0  0  0  0  2  0  0  0  0  0  0
  -18.2570  -26.7130   22.2930 C   0  0  0  0  0  2  0  0  0  0  0  0
  -19.1750  -28.8470   23.3810 C   0  0  0  0  0  0  0  0  0  0  0  0
  -18.9380  -30.1090   23.9660 C   0  0  0  0  0  3  0  0  0  0  0  0
  -17.6270  -30.5940   24.1270 C   0  0  0  0  0  3  0  0  0  0  0  0
  -16.5340  -29.8120   23.7160 C   0  0  0  0  0  3  0  0  0  0  0  0
  -16.7540  -28.5510   23.1380 C   0  0  0  0  0  3  0  0  0  0  0  0
  -25.9220  -32.5220   23.8520 C   0  0  0  0  0  3  0  0  0  0  0  0
  -25.6110  -33.9190   24.1890 N   0  0  0  0  0  0  0  0  0  0  0  0
  -25.9310  -34.9790   23.4330 C   0  0  0  0  0  0  0  0  0  0  0  0
  -26.5920  -34.8810   22.3950 O   0  0  0  0  0  0  0  0  0  0  0  0
  -25.0230  -34.0680   24.9960 H   0  0  0  0  0  0  0  0  0  0  0  0
  -24.1990  -36.7740   23.1090 C   0  0  0  0  0  1  0  0  0  0  0  0
  -25.4490  -36.3650   23.9040 C   0  0  0  0  0  3  0  0  0  0  0  0
  -27.5960  -37.2470   24.7090 C   0  0  0  0  0  1  0  0  0  0  0  0
  -26.4780  -37.4210   23.7860 N   0  0  0  0  0  0  0  0  0  0  0  0
  -26.0730  -38.3380   23.9450 H   0  0  0  0  0  0  0  0  0  0  0  0
  -26.4410  -31.7530   25.1290 C   0  0  1  0  0  0  0  0  0  0  0  0
  -25.3550  -31.5280   26.2100 C   0  0  0  0  0  1  0  0  0  0  0  0
  -27.0170  -30.3710   24.7440 C   0  0  0  0  0  1  0  0  0  0  0  0
  -27.5990  -32.5470   25.7810 C   0  0  0  0  0  1  0  0  0  0  0  0
  1  2  1  0
  2  7  2  0
  3  1  2  0
  3 52  1  0
  4  1  1  0
  4  6  1  0
  5  3  1  0
  6  2  1  0
  8  9  2  0
  8 10  1  0
  9 12  1  0
 10 13  2  0
 12  6  1  0
 12 11  2  0
 13 11  1  0
 13 23  1  0
 14 23  1  0
 15 20  1  0
 16 17  1  0
 16 15  1  0
 18 17  1  0
 18 27  1  0
 18 19  1  0
 20 14  1  0
 20 19  1  0
 21 14  2  0
 23 22  1  0
 24 25  2  0
 25 44  1  0
 26 25  1  0
 26 29  1  0
 27 24  1  0
 27 28  1  0
 28 26  2  0
 29 30  1  0
 30 31  2  0
 32 35  1  0
 32 31  1  0
 33 32  2  0
 34 33  1  0
 34 29  2  0
 35 36  1  0
 36 37  1  0
 37 38  2  0
 39 38  1  0
 39 43  1  0
 40 39  2  0
 41 36  2  0
 41 40  1  0
 42 41  1  0
 44 45  1  0
 45 48  1  0
 45 47  1  0
 46 44  2  0
 49 24  1  0
 49 50  1  0
 51 49  1  0
 53 64  2  0
 54 52  1  0
 54 59  1  0
 55 63  1  0
 55 65  1  0
 56 62  1  0
 56 58  1  0
 57 63  1  0
 58 57  1  0
 59 58  2  0
 60 54  2  0
 61 60  1  0
 61 56  2  0
 62 55  1  0
 63 53  1  0
 65 67  2  0
 66 65  1  0
 68 66  1  0
 69 78  2  0
 69 74  1  0
 70 66  1  0
 70 74  1  0
 71 70  1  0
 72 73  1  0
 72 71  1  0
 73 69  1  0
 74 75  2  0
 75 76  1  0
 77 76  2  0
 78 77  1  0
 79 53  1  0
 79 80  1  0
 79 89  1  0
 80 83  1  0
 81 85  1  0
 81 80  1  0
 82 81  2  0
 85 84  1  0
 87 85  1  0
 87 88  1  0
 87 86  1  0
 89 92  1  1
 89 90  1  0
 91 89  1  0
M  ISO  4   3 101  14 100  23 100  52 101
M  END
>  <TORSDO>  (92) 
F 17

>  <SCORE>  (92) 
-15.471

>  <name>  (92) 
91

>  <ligand_id>  (92) 
91

>  <original_smiles>  (92) 
[H]c1c([H])c(N(C(=O)N2C([H])([H])C([H])([H])C([H])([H])C([H])(n3nc(-c4c([H])c([H])c(Oc5c([H])c([H])c(F)c([H])c5F)c([H])c4[H])c(C(=O)N([H])[H])c3N([H])[H])C2([H])[H])C([H])([H])[H])c([H])c(N2C(=O)C(=C(Oc3c([H])c([H])c4c(c3[H])C([H])([H])N(C(=O)C([H])(N([H])C(=O)C([H])(N([H])C([H])([H])[H])C([H])([H])[H])C(C([H])([H])[H])(C([H])([H])[H])C([H])([H])[H])C([H])(C(=O)N([H])C3([H])c5c([H])c([H])c([H])c([H])c5C([H])([H])C([H])([H])C3([H])[H])C4([H])[H])C([H])([H])[H])C2([H])[H])c1[H]

>  <smiles>  (92) 
[H]c1c([H])c(N(C(=O)N2C([H])([H])C([H])([H])C([H])([H])C([H])(n3nc(-c4c([H])c([H])c(Oc5c([H])c([H])c(F)c([H])c5F)c([H])c4[H])c(C(=O)N([H])[H])c3N([H])[H])C2([H])[H])C([H])([H])[H])c([H])c(N2C(=O)C(=C(Oc3c([H])c([H])c4c(c3[H])C([H])([H])N(C(=O)C([H])(N([H])C(=O)C([H])(N([H])C([H])([H])[H])C([H])([H])[H])C(C([H])([H])[H])(C([H])([H])[H])C([H])([H])[H])C([H])(C(=O)N([H])C3([H])c5c([H])c([H])c([H])c([H])c5C([H])([H])C([H])([H])C3([H])[H])C4([H])[H])C([H])([H])[H])C2([H])[H])c1[H]

$$$$
92:0:0
     RDKit          3D

 96105  0  0  1  0  0  0  0  0999 V2000
  -29.0790  -22.4470   20.0270 C   0  0  0  0  0  2  0  0  0  0  0  0
  -31.5690  -23.5750   19.8600 C   0  0  0  0  0  3  0  0  0  0  0  0
  -29.2520  -23.8230   20.0060 C   0  0  0  0  0  0  0  0  0  0  0  0
  -31.4840  -22.0470   19.7430 C   0  0  0  0  0  3  0  0  0  0  0  0
  -30.5520  -24.3490   19.9620 N   0  0  0  0  0  0  0  0  0  0  0  0
  -30.1360  -21.4900   19.9660 N   0  0  0  0  0  0  0  0  0  0  0  0
  -31.2410  -19.2650   20.4480 C   0  0  0  0  0  3  0  0  0  0  0  0
  -31.2070  -17.8490   20.6030 C   0  0  0  0  0  3  0  0  0  0  0  0
  -28.9070  -19.2900   19.9580 C   0  0  0  0  0  3  0  0  0  0  0  0
  -28.8340  -17.8610   20.1310 C   0  0  0  0  0  0  0  0  0  0  0  0
  -30.0960  -20.0460   20.1080 C   0  0  0  0  0  0  0  0  0  0  0  0
  -30.0150  -17.0920   20.4460 C   0  0  0  0  0  0  0  0  0  0  0  0
  -30.7330  -14.5880   20.0470 C   0  0  0  0  0  0  0  0  0  0  0  0
  -30.4810  -12.3650   18.9540 C   0  0  0  0  0  2  0  0  0  0  0  0
  -29.4560  -12.4960   17.8060 C   0  0  0  0  0  2  0  0  0  0  0  0
  -28.0170  -12.3070   18.3290 C   0  0  0  0  0  2  0  0  0  0  0  0
  -27.7300  -13.1360   19.6100 C   0  0  0  0  0  3  0  0  0  0  0  0
  -28.8650  -12.9760   20.6470 C   0  0  0  0  0  2  0  0  0  0  0  0
  -30.1280  -13.3560   19.9910 N   0  0  0  0  0  0  0  0  0  0  0  0
  -31.8490  -14.7660   19.5530 O   0  0  0  0  0  0  0  0  0  0  0  0
  -29.9780  -15.6170   20.5560 N   0  0  0  0  0  0  0  0  0  0  0  0
  -29.1540  -15.2800   21.0390 H   0  0  0  0  0  0  0  0  0  0  0  0
  -25.3890  -13.6800   20.5230 C   0  0  0  0  0  0  0  0  0  0  0  0
  -24.3550  -12.8810   20.9300 C   0  0  0  0  0  0  0  0  0  0  0  0
  -24.8200  -11.5370   20.8020 C   0  0  0  0  0  0  0  0  0  0  0  0
  -26.4200  -12.8210   20.1760 N   0  0  0  0  0  0  0  0  0  0  0  0
  -26.0870  -11.5240   20.4010 N   0  0  0  0  0  0  0  0  0  0  0  0
  -24.1130  -10.2620   20.9820 C   0  0  0  0  0  0  0  0  0  0  0  0
  -24.5590   -9.2950   21.9090 C   0  0  0  0  0  3  0  0  0  0  0  0
  -23.8520   -8.0850   22.0780 C   0  0  0  0  0  3  0  0  0  0  0  0
  -22.6840   -7.8340   21.3190 C   0  0  0  0  0  0  0  0  0  0  0  0
  -22.2570   -8.7900   20.3810 C   0  0  0  0  0  3  0  0  0  0  0  0
  -22.9650   -9.9920   20.2100 C   0  0  0  0  0  3  0  0  0  0  0  0
  -21.9460   -6.6770   21.3990 O   0  0  0  0  0  0  0  0  0  0  0  0
  -21.8300   -5.9780   22.5730 C   0  0  0  0  0  0  0  0  0  0  0  0
  -21.3020   -6.5680   23.7430 C   0  0  0  0  0  3  0  0  0  0  0  0
  -21.1340   -5.7930   24.9070 C   0  0  0  0  0  3  0  0  0  0  0  0
  -21.4820   -4.4280   24.9030 C   0  0  0  0  0  0  0  0  0  0  0  0
  -22.0020   -3.8380   23.7370 C   0  0  0  0  0  3  0  0  0  0  0  0
  -22.1720   -4.6110   22.5740 C   0  0  0  0  0  0  0  0  0  0  0  0
  -22.6540   -4.0320   21.4480 F   0  0  0  0  0  0  0  0  0  0  0  0
  -21.3130   -3.6810   26.0190 F   0  0  0  0  0  0  0  0  0  0  0  0
  -22.9800  -13.3350   21.3260 C   0  0  0  0  0  0  0  0  0  0  0  0
  -22.3330  -12.6110   22.2320 N   0  0  0  0  0  0  0  0  0  0  0  0
  -22.4900  -14.3670   20.8690 O   0  0  0  0  0  0  0  0  0  0  0  0
  -22.7420  -11.7740   22.6220 H   0  0  0  0  0  0  0  0  0  0  0  0
  -21.4140  -12.8960   22.5410 H   0  0  0  0  0  0  0  0  0  0  0  0
  -25.5280  -15.0580   20.3980 N   0  0  0  0  0  0  0  0  0  0  0  0
  -24.7850  -15.7000   20.6490 H   0  0  0  0  0  0  0  0  0  0  0  0
  -26.3880  -15.5220   20.1410 H   0  0  0  0  0  0  0  0  0  0  0  0
  -27.4880  -17.2050   19.9780 C   0  0  0  0  0  0  0  0  0  0  0  0
  -26.3290  -18.0300   19.4220 C   0  0  0  0  0  1  0  0  0  0  0  0
  -27.2540  -16.0350   20.2940 O   0  0  0  0  0  0  0  0  0  0  0  0
  -27.2810  -24.7160   21.3400 C   0  0  0  0  0  1  0  0  0  0  0  0
  -28.0670  -24.8610   20.0220 C   0  0  0  0  0  3  0  0  0  0  0  0
  -28.3740  -26.3100   19.8090 O   0  0  0  0  0  0  0  0  0  0  0  0
  -24.7210  -31.6380   23.0580 C   0  0  0  0  0  0  0  0  0  0  0  0
  -27.2850  -27.2060   19.7800 C   0  0  0  0  0  0  0  0  0  0  0  0
  -23.5040  -30.3370   21.3500 C   0  0  0  0  0  3  0  0  0  0  0  0
  -24.9400  -28.8530   19.8460 C   0  0  0  0  0  0  0  0  0  0  0  0
  -26.0480  -30.6350   21.1850 C   0  0  0  0  0  2  0  0  0  0  0  0
  -26.1150  -29.2910   20.4710 C   0  0  0  0  0  0  0  0  0  0  0  0
  -27.2910  -28.4800   20.4300 C   0  0  0  0  0  3  0  0  0  0  0  0
  -26.0910  -26.8390   19.1140 C   0  0  0  0  0  3  0  0  0  0  0  0
  -24.9310  -27.6320   19.1570 C   0  0  0  0  0  3  0  0  0  0  0  0
  -23.7120  -29.7340   19.9380 C   0  0  0  0  0  2  0  0  0  0  0  0
  -24.7770  -30.8850   21.9220 N   0  0  0  0  0  0  0  0  0  0  0  0
  -23.6390  -31.9000   23.6060 O   0  0  0  0  0  0  0  0  0  0  0  0
  -22.8330  -29.2780   22.2580 C   0  0  0  0  0  0  0  0  0  0  0  0
  -21.4990  -29.1510   22.1570 N   0  0  0  0  0  0  0  0  0  0  0  0
  -23.5100  -28.5770   23.0130 O   0  0  0  0  0  0  0  0  0  0  0  0
  -21.0110  -29.7680   21.5220 H   0  0  0  0  0  0  0  0  0  0  0  0
  -18.0900  -28.0860   22.7260 C   0  0  0  0  0  0  0  0  0  0  0  0
  -20.6680  -28.1920   22.8870 C   0  0  0  0  0  3  0  0  0  0  0  0
  -20.6660  -26.8130   22.1880 C   0  0  0  0  0  2  0  0  0  0  0  0
  -19.5020  -26.6350   21.2070 C   0  0  0  0  0  2  0  0  0  0  0  0
  -18.1620  -26.7930   21.9300 C   0  0  0  0  0  2  0  0  0  0  0  0
  -19.2660  -28.7510   23.1610 C   0  0  0  0  0  0  0  0  0  0  0  0
  -19.1430  -29.9690   23.8670 C   0  0  0  0  0  3  0  0  0  0  0  0
  -17.8750  -30.5180   24.1400 C   0  0  0  0  0  3  0  0  0  0  0  0
  -16.7150  -29.8460   23.7190 C   0  0  0  0  0  3  0  0  0  0  0  0
  -16.8230  -28.6330   23.0170 C   0  0  0  0  0  3  0  0  0  0  0  0
  -26.0080  -32.2260   23.7110 C   0  0  0  0  0  3  0  0  0  0  0  0
  -26.5300  -31.3750   24.9340 C   0  0  1  0  0  0  0  0  0  0  0  0
  -25.4380  -31.0620   25.9830 C   0  0  0  0  0  1  0  0  0  0  0  0
  -27.1210  -30.0300   24.4500 C   0  0  0  0  0  1  0  0  0  0  0  0
  -27.6770  -32.1290   25.6460 C   0  0  0  0  0  1  0  0  0  0  0  0
  -25.7050  -33.6030   24.1310 N   0  0  0  0  0  0  0  0  0  0  0  0
  -26.0200  -34.7000   23.4300 C   0  0  0  0  0  0  0  0  0  0  0  0
  -26.6670  -34.6600   22.3800 O   0  0  0  0  0  0  0  0  0  0  0  0
  -25.1290  -33.7080   24.9540 H   0  0  0  0  0  0  0  0  0  0  0  0
  -24.2800  -36.5060   23.2270 C   0  0  0  0  0  1  0  0  0  0  0  0
  -25.5420  -36.0570   23.9810 C   0  0  0  0  0  3  0  0  0  0  0  0
  -27.6920  -36.9020   24.8170 C   0  0  0  0  0  1  0  0  0  0  0  0
  -26.5700  -37.1170   23.9070 N   0  0  0  0  0  0  0  0  0  0  0  0
  -26.1650  -38.0260   24.1150 H   0  0  0  0  0  0  0  0  0  0  0  0
  2  5  1  0
  3 55  1  0
  3  1  1  0
  4  2  2  0
  4  6  1  0
  5  3  2  0
  6  1  1  0
  6 11  1  0
  7  8  1  0
  9 11  1  0
  9 10  2  0
 10 12  1  0
 11  7  2  0
 12 21  1  0
 12  8  2  0
 13 21  1  0
 14 19  1  0
 15 16  1  0
 15 14  1  0
 17 16  1  0
 17 26  1  0
 17 18  1  0
 19 13  1  0
 19 18  1  0
 20 13  2  0
 21 22  1  0
 23 24  2  0
 24 43  1  0
 25 24  1  0
 25 28  1  0
 26 27  1  0
 26 23  1  0
 27 25  2  0
 28 29  1  0
 29 30  2  0
 31 34  1  0
 31 30  1  0
 32 31  2  0
 33 32  1  0
 33 28  2  0
 34 35  1  0
 35 40  2  0
 35 36  1  0
 36 37  2  0
 38 37  1  0
 38 42  1  0
 39 38  2  0
 40 39  1  0
 41 40  1  0
 43 44  1  0
 44 47  1  0
 44 46  1  0
 45 43  2  0
 48 23  1  0
 48 49  1  0
 50 48  1  0
 51 10  1  0
 51 53  2  0
 52 51  1  0
 55 54  1  0
 56 55  1  0
 57 68  2  0
 58 56  1  0
 58 63  1  0
 59 67  1  0
 59 69  1  0
 60 66  1  0
 60 62  1  0
 61 67  1  0
 62 61  1  0
 63 62  2  0
 64 65  1  0
 64 58  2  0
 65 60  2  0
 66 59  1  0
 67 57  1  0
 69 71  2  0
 70 69  1  0
 72 70  1  0
 73 82  2  0
 73 78  1  0
 74 70  1  0
 74 78  1  0
 75 74  1  0
 76 77  1  0
 76 75  1  0
 77 73  1  0
 78 79  2  0
 79 80  1  0
 81 80  2  0
 82 81  1  0
 83 57  1  0
 83 88  1  0
 83 84  1  0
 84 87  1  1
 84 85  1  0
 86 84  1  0
 88 91  1  0
 89 93  1  0
 89 88  1  0
 90 89  2  0
 93 92  1  0
 95 93  1  0
 95 96  1  0
 95 94  1  0
M  ISO  4  13 100  21 100  55 101  56 101
M  END
>  <TORSDO>  (93) 
F 19

>  <SCORE>  (93) 
-13.788

>  <name>  (93) 
92

>  <ligand_id>  (93) 
92

>  <original_smiles>  (93) 
[H]C1=NC(C([H])(Oc2c([H])c([H])c3c(c2[H])C([H])([H])N(C(=O)C([H])(N([H])C(=O)C([H])(N([H])C([H])([H])[H])C([H])([H])[H])C(C([H])([H])[H])(C([H])([H])[H])C([H])([H])[H])C([H])(C(=O)N([H])C2([H])c4c([H])c([H])c([H])c([H])c4C([H])([H])C([H])([H])C2([H])[H])C3([H])[H])C([H])([H])[H])=C([H])N(c2c([H])c([H])c(N([H])C(=O)N3C([H])([H])C([H])([H])C([H])([H])C([H])(n4nc(-c5c([H])c([H])c(Oc6c([H])c([H])c(F)c([H])c6F)c([H])c5[H])c(C(=O)N([H])[H])c4N([H])[H])C3([H])[H])c(C(=O)C([H])([H])[H])c2[H])C1([H])[H]

>  <smiles>  (93) 
[H]C1=NC(C([H])(Oc2c([H])c([H])c3c(c2[H])C([H])([H])N(C(=O)C([H])(N([H])C(=O)C([H])(N([H])C([H])([H])[H])C([H])([H])[H])C(C([H])([H])[H])(C([H])([H])[H])C([H])([H])[H])C([H])(C(=O)N([H])C2([H])c4c([H])c([H])c([H])c([H])c4C([H])([H])C([H])([H])C2([H])[H])C3([H])[H])C([H])([H])[H])=C([H])N(c2c([H])c([H])c(N([H])C(=O)N3C([H])([H])C([H])([H])C([H])([H])C([H])(n4nc(-c5c([H])c([H])c(Oc6c([H])c([H])c(F)c([H])c6F)c([H])c5[H])c(C(=O)N([H])[H])c4N([H])[H])C3([H])[H])c(C(=O)C([H])([H])[H])c2[H])C1([H])[H]

$$$$
93:0:0
     RDKit          3D

 95104  0  0  1  0  0  0  0  0999 V2000
  -27.9490  -23.8430   20.8640 C   0  0  0  0  0  0  0  0  0  0  0  0
  -28.6390  -24.3390   19.8270 C   0  0  0  0  0  0  0  0  0  0  0  0
  -27.9980  -22.3970   20.7960 C   0  0  0  0  0  0  0  0  0  0  0  0
  -29.2070  -23.2020   19.1200 C   0  0  0  0  0  0  0  0  0  0  0  0
  -27.0990  -24.5600   21.9000 C   0  0  0  0  0  1  0  0  0  0  0  0
  -28.7540  -22.0820   19.7260 N   0  0  0  0  0  0  0  0  0  0  0  0
  -27.3950  -21.5990   21.5160 O   0  0  0  0  0  0  0  0  0  0  0  0
  -29.9220  -23.2380   18.1100 O   0  0  0  0  0  0  0  0  0  0  0  0
  -28.7510  -20.7470   19.0760 C   0  0  0  0  0  2  0  0  0  0  0  0
  -28.7540  -18.8130   20.7960 C   0  0  0  0  0  3  0  0  0  0  0  0
  -30.4810  -18.8850   19.1070 C   0  0  0  0  0  3  0  0  0  0  0  0
  -29.1570  -17.5010   21.1470 C   0  0  0  0  0  3  0  0  0  0  0  0
  -30.8620  -17.5650   19.4330 C   0  0  0  0  0  3  0  0  0  0  0  0
  -29.3780  -19.5010   19.7300 C   0  0  0  0  0  0  0  0  0  0  0  0
  -30.1790  -16.8250   20.4340 C   0  0  0  0  0  0  0  0  0  0  0  0
  -30.8900  -14.5330   19.8000 C   0  0  0  0  0  0  0  0  0  0  0  0
  -30.3600  -12.4600   18.5460 C   0  0  0  0  0  2  0  0  0  0  0  0
  -29.3030  -12.7100   17.4530 C   0  0  0  0  0  2  0  0  0  0  0  0
  -27.8830  -12.5820   18.0310 C   0  0  0  0  0  2  0  0  0  0  0  0
  -27.6980  -13.3850   19.3440 C   0  0  0  0  0  3  0  0  0  0  0  0
  -28.8520  -13.1120   20.3300 C   0  0  0  0  0  2  0  0  0  0  0  0
  -30.1240  -13.4120   19.6470 N   0  0  0  0  0  0  0  0  0  0  0  0
  -31.8880  -14.7300   19.0980 O   0  0  0  0  0  0  0  0  0  0  0  0
  -30.6370  -15.0730   22.1560 C   0  0  0  0  0  1  0  0  0  0  0  0
  -30.5010  -15.4440   20.7380 N   0  0  0  0  0  0  0  0  0  0  0  0
  -25.4270  -14.0150   20.3730 C   0  0  0  0  0  0  0  0  0  0  0  0
  -24.3800  -13.2510   20.8100 C   0  0  0  0  0  0  0  0  0  0  0  0
  -24.7760  -11.8910   20.6220 C   0  0  0  0  0  0  0  0  0  0  0  0
  -26.4000  -13.1200   19.9560 N   0  0  0  0  0  0  0  0  0  0  0  0
  -26.0180  -11.8320   20.1630 N   0  0  0  0  0  0  0  0  0  0  0  0
  -24.0220  -10.6440   20.8030 C   0  0  0  0  0  0  0  0  0  0  0  0
  -24.4890   -9.6150   21.6510 C   0  0  0  0  0  3  0  0  0  0  0  0
  -23.7380   -8.4310   21.8230 C   0  0  0  0  0  3  0  0  0  0  0  0
  -22.5050   -8.2690   21.1460 C   0  0  0  0  0  0  0  0  0  0  0  0
  -22.0550   -9.2880   20.2850 C   0  0  0  0  0  3  0  0  0  0  0  0
  -22.8060  -10.4620   20.1130 C   0  0  0  0  0  3  0  0  0  0  0  0
  -21.7210   -7.1440   21.2310 O   0  0  0  0  0  0  0  0  0  0  0  0
  -21.6930   -6.3700   22.3640 C   0  0  0  0  0  0  0  0  0  0  0  0
  -21.3450   -6.9040   23.6240 C   0  0  0  0  0  3  0  0  0  0  0  0
  -21.2590   -6.0580   24.7480 C   0  0  0  0  0  3  0  0  0  0  0  0
  -21.5140   -4.6800   24.6160 C   0  0  0  0  0  0  0  0  0  0  0  0
  -21.8540   -4.1450   23.3610 C   0  0  0  0  0  3  0  0  0  0  0  0
  -21.9410   -4.9870   22.2390 C   0  0  0  0  0  0  0  0  0  0  0  0
  -22.2480   -4.4610   21.0280 F   0  0  0  0  0  0  0  0  0  0  0  0
  -21.4260   -3.8690   25.6950 F   0  0  0  0  0  0  0  0  0  0  0  0
  -23.0460  -13.7490   21.2900 C   0  0  0  0  0  0  0  0  0  0  0  0
  -22.4110  -13.0210   22.2030 N   0  0  0  0  0  0  0  0  0  0  0  0
  -22.5800  -14.8140   20.8890 O   0  0  0  0  0  0  0  0  0  0  0  0
  -22.8070  -12.1620   22.5520 H   0  0  0  0  0  0  0  0  0  0  0  0
  -21.5180  -13.3250   22.5620 H   0  0  0  0  0  0  0  0  0  0  0  0
  -25.6240  -15.3920   20.2830 N   0  0  0  0  0  0  0  0  0  0  0  0
  -24.9080  -16.0550   20.5560 H   0  0  0  0  0  0  0  0  0  0  0  0
  -26.4650  -15.8390   19.9370 H   0  0  0  0  0  0  0  0  0  0  0  0
  -28.7900  -25.7810   19.3000 C   0  0  0  0  0  2  0  0  0  0  0  0
  -28.4560  -26.8360   20.2090 O   0  0  0  0  0  0  0  0  0  0  0  0
  -24.5220  -31.9230   23.1840 C   0  0  0  0  0  0  0  0  0  0  0  0
  -27.2500  -27.5080   20.1270 C   0  0  0  0  0  0  0  0  0  0  0  0
  -23.3430  -30.5050   21.5310 C   0  0  0  0  0  3  0  0  0  0  0  0
  -24.8250  -28.9800   20.1150 C   0  0  0  0  0  0  0  0  0  0  0  0
  -25.8700  -30.8840   21.3640 C   0  0  0  0  0  2  0  0  0  0  0  0
  -25.9680  -29.5200   20.7160 C   0  0  0  0  0  0  0  0  0  0  0  0
  -27.1760  -28.7900   20.7200 C   0  0  0  0  0  3  0  0  0  0  0  0
  -26.0870  -26.9730   19.5250 C   0  0  0  0  0  3  0  0  0  0  0  0
  -24.8790  -27.7050   19.5200 C   0  0  0  0  0  3  0  0  0  0  0  0
  -23.5730  -29.8310   20.1510 C   0  0  0  0  0  2  0  0  0  0  0  0
  -24.5940  -31.1230   22.0820 N   0  0  0  0  0  0  0  0  0  0  0  0
  -23.4350  -32.1820   23.7170 O   0  0  0  0  0  0  0  0  0  0  0  0
  -22.6980  -29.4760   22.4870 C   0  0  0  0  0  0  0  0  0  0  0  0
  -21.3800  -29.2710   22.3400 N   0  0  0  0  0  0  0  0  0  0  0  0
  -23.3800  -28.8640   23.3140 O   0  0  0  0  0  0  0  0  0  0  0  0
  -20.8930  -29.8110   21.6400 H   0  0  0  0  0  0  0  0  0  0  0  0
  -18.0160  -28.0310   22.7730 C   0  0  0  0  0  0  0  0  0  0  0  0
  -20.5640  -28.3220   23.0970 C   0  0  0  0  0  3  0  0  0  0  0  0
  -20.6960  -26.8940   22.5180 C   0  0  0  0  0  2  0  0  0  0  0  0
  -19.6180  -26.5580   21.4820 C   0  0  0  0  0  2  0  0  0  0  0  0
  -18.2220  -26.6840   22.1010 C   0  0  0  0  0  2  0  0  0  0  0  0
  -19.1150  -28.8050   23.2250 C   0  0  0  0  0  0  0  0  0  0  0  0
  -18.8680  -30.0680   23.8050 C   0  0  0  0  0  3  0  0  0  0  0  0
  -17.5550  -30.5550   23.9420 C   0  0  0  0  0  3  0  0  0  0  0  0
  -16.4690  -29.7770   23.5090 C   0  0  0  0  0  3  0  0  0  0  0  0
  -16.6990  -28.5150   22.9290 C   0  0  0  0  0  3  0  0  0  0  0  0
  -25.7960  -32.5660   23.8130 C   0  0  0  0  0  3  0  0  0  0  0  0
  -26.3180  -31.7970   25.0900 C   0  0  1  0  0  0  0  0  0  0  0  0
  -25.2240  -31.5290   26.1510 C   0  0  0  0  0  1  0  0  0  0  0  0
  -26.9320  -30.4330   24.6970 C   0  0  0  0  0  1  0  0  0  0  0  0
  -27.4480  -32.6110   25.7630 C   0  0  0  0  0  1  0  0  0  0  0  0
  -25.4740  -33.9600   24.1430 N   0  0  0  0  0  0  0  0  0  0  0  0
  -25.8110  -35.0180   23.3920 C   0  0  0  0  0  0  0  0  0  0  0  0
  -26.4990  -34.9200   22.3730 O   0  0  0  0  0  0  0  0  0  0  0  0
  -24.8670  -34.1070   24.9350 H   0  0  0  0  0  0  0  0  0  0  0  0
  -24.0790  -36.8000   23.0080 C   0  0  0  0  0  1  0  0  0  0  0  0
  -25.3060  -36.4020   23.8430 C   0  0  0  0  0  3  0  0  0  0  0  0
  -27.4180  -37.2910   24.7220 C   0  0  0  0  0  1  0  0  0  0  0  0
  -26.3360  -37.4610   23.7570 N   0  0  0  0  0  0  0  0  0  0  0  0
  -25.9260  -38.3790   23.9020 H   0  0  0  0  0  0  0  0  0  0  0  0
  1  5  1  0
  2  1  2  0
  3  1  1  0
  3  7  2  0
  4  6  1  0
  4  2  1  0
  6  3  1  0
  8  4  2  0
  9  6  1  0
  9 14  1  0
 10 12  1  0
 11 13  2  0
 11 14  1  0
 13 15  1  0
 14 10  2  0
 15 25  1  0
 15 12  2  0
 16 25  1  0
 17 22  1  0
 18 19  1  0
 18 17  1  0
 20 19  1  0
 20 29  1  0
 20 21  1  0
 22 16  1  0
 22 21  1  0
 23 16  2  0
 25 24  1  0
 26 27  2  0
 27 46  1  0
 28 31  1  0
 28 27  1  0
 29 30  1  0
 29 26  1  0
 30 28  2  0
 31 32  1  0
 32 33  2  0
 34 37  1  0
 34 33  1  0
 35 34  2  0
 36 35  1  0
 36 31  2  0
 37 38  1  0
 38 39  1  0
 39 40  2  0
 41 40  1  0
 41 45  1  0
 42 41  2  0
 43 38  2  0
 43 42  1  0
 44 43  1  0
 46 47  1  0
 47 49  1  0
 47 50  1  0
 48 46  2  0
 51 26  1  0
 51 52  1  0
 53 51  1  0
 54  2  1  0
 54 55  1  0
 56 67  2  0
 57 55  1  0
 57 62  1  0
 58 66  1  0
 58 68  1  0
 59 65  1  0
 59 61  1  0
 60 66  1  0
 61 62  2  0
 61 60  1  0
 63 57  2  0
 64 63  1  0
 64 59  2  0
 65 58  1  0
 66 56  1  0
 68 70  2  0
 69 68  1  0
 71 69  1  0
 72 81  2  0
 72 77  1  0
 73 69  1  0
 73 77  1  0
 74 73  1  0
 75 76  1  0
 75 74  1  0
 76 72  1  0
 77 78  2  0
 78 79  1  0
 80 79  2  0
 81 80  1  0
 82 56  1  0
 82 87  1  0
 82 83  1  0
 83 86  1  1
 83 84  1  0
 85 83  1  0
 87 90  1  0
 88 92  1  0
 88 87  1  0
 89 88  2  0
 92 91  1  0
 94 92  1  0
 94 95  1  0
 94 93  1  0
M  ISO  4  16 100  25 100  54 101  55 101
M  END
>  <TORSDO>  (94) 
F 19

>  <SCORE>  (94) 
-12.579

>  <name>  (94) 
93

>  <ligand_id>  (94) 
93

>  <original_smiles>  (94) 
[H]c1c([H])c([H])c2c(c1[H])C([H])([H])C([H])([H])C([H])([H])C2([H])N([H])C(=O)C1([H])N(C(=O)C([H])(N([H])C(=O)C([H])(N([H])C([H])([H])[H])C([H])([H])[H])C(C([H])([H])[H])(C([H])([H])[H])C([H])([H])[H])C([H])([H])c2c([H])c(OC([H])([H])C3=C(C([H])([H])[H])C(=O)N(C([H])([H])c4c([H])c([H])c(N(C(=O)N5C([H])([H])C([H])([H])C([H])([H])C([H])(n6nc(-c7c([H])c([H])c(Oc8c([H])c([H])c(F)c([H])c8F)c([H])c7[H])c(C(=O)N([H])[H])c6N([H])[H])C5([H])[H])C([H])([H])[H])c([H])c4[H])C3=O)c([H])c([H])c2C1([H])[H]

>  <smiles>  (94) 
[H]c1c([H])c([H])c2c(c1[H])C([H])([H])C([H])([H])C([H])([H])C2([H])N([H])C(=O)C1([H])N(C(=O)C([H])(N([H])C(=O)C([H])(N([H])C([H])([H])[H])C([H])([H])[H])C(C([H])([H])[H])(C([H])([H])[H])C([H])([H])[H])C([H])([H])c2c([H])c(OC([H])([H])C3=C(C([H])([H])[H])C(=O)N(C([H])([H])c4c([H])c([H])c(N(C(=O)N5C([H])([H])C([H])([H])C([H])([H])C([H])(n6nc(-c7c([H])c([H])c(Oc8c([H])c([H])c(F)c([H])c8F)c([H])c7[H])c(C(=O)N([H])[H])c6N([H])[H])C5([H])[H])C([H])([H])[H])c([H])c4[H])C3=O)c([H])c([H])c2C1([H])[H]

$$$$
94:0:0
     RDKit          3D

 97106  0  0  1  0  0  0  0  0999 V2000
  -28.9150  -23.6840   20.4060 C   0  0  0  0  0  0  0  0  0  0  0  0
  -29.3020  -24.1500   21.7340 C   0  0  0  0  0  0  0  0  0  0  0  0
  -28.5640  -21.9440   21.8420 C   0  0  0  0  0  0  0  0  0  0  0  0
  -28.3870  -24.7290   19.5570 C   0  0  0  0  0  0  0  0  0  0  0  0
  -28.9690  -23.0940   22.7550 C   0  0  0  0  0  2  0  0  0  0  0  0
  -27.8040  -24.3490   18.2090 C   0  0  0  0  0  1  0  0  0  0  0  0
  -28.8950  -22.1360   20.5420 N   0  0  0  0  0  0  0  0  0  0  0  0
  -29.8060  -25.2360   22.0420 O   0  0  0  0  0  0  0  0  0  0  0  0
  -27.9480  -20.9770   22.3070 O   0  0  0  0  0  0  0  0  0  0  0  0
  -30.4230  -21.0140   18.7820 C   0  0  0  0  0  3  0  0  0  0  0  0
  -29.4860  -19.3780   20.2990 C   0  0  0  0  0  3  0  0  0  0  0  0
  -31.0180  -18.5720   18.6340 C   0  0  0  0  0  3  0  0  0  0  0  0
  -29.5640  -20.8490   19.8880 C   0  0  0  0  0  0  0  0  0  0  0  0
  -31.1140  -19.9230   18.1780 C   0  0  0  0  0  0  0  0  0  0  0  0
  -30.2010  -18.1780   19.7220 C   0  0  0  0  0  0  0  0  0  0  0  0
  -30.8550  -15.4190   19.8220 C   0  0  0  0  0  0  0  0  0  0  0  0
  -30.7310  -13.0090   18.9490 C   0  0  0  0  0  2  0  0  0  0  0  0
  -29.7310  -12.9000   17.7720 C   0  0  0  0  0  2  0  0  0  0  0  0
  -28.3030  -12.6620   18.2950 C   0  0  0  0  0  2  0  0  0  0  0  0
  -27.9510  -13.6010   19.4780 C   0  0  0  0  0  3  0  0  0  0  0  0
  -29.0700  -13.6750   20.5390 C   0  0  0  0  0  2  0  0  0  0  0  0
  -30.2860  -14.1280   19.8470 N   0  0  0  0  0  0  0  0  0  0  0  0
  -32.0330  -15.4530   19.4430 O   0  0  0  0  0  0  0  0  0  0  0  0
  -30.0990  -16.6380   20.0850 N   0  0  0  0  0  0  0  0  0  0  0  0
  -29.2330  -16.4140   20.5550 H   0  0  0  0  0  0  0  0  0  0  0  0
  -25.6470  -14.1760   20.4100 C   0  0  0  0  0  0  0  0  0  0  0  0
  -24.5960  -13.4050   20.8230 C   0  0  0  0  0  0  0  0  0  0  0  0
  -25.0310  -12.0490   20.7050 C   0  0  0  0  0  0  0  0  0  0  0  0
  -26.6510  -13.2930   20.0600 N   0  0  0  0  0  0  0  0  0  0  0  0
  -26.2970  -12.0030   20.3020 N   0  0  0  0  0  0  0  0  0  0  0  0
  -24.2940  -10.7920   20.8950 C   0  0  0  0  0  0  0  0  0  0  0  0
  -24.7020   -9.8320   21.8470 C   0  0  0  0  0  3  0  0  0  0  0  0
  -23.9650   -8.6410   22.0260 C   0  0  0  0  0  3  0  0  0  0  0  0
  -22.8050   -8.4020   21.2520 C   0  0  0  0  0  0  0  0  0  0  0  0
  -22.4150   -9.3500   20.2890 C   0  0  0  0  0  3  0  0  0  0  0  0
  -23.1530  -10.5320   20.1090 C   0  0  0  0  0  3  0  0  0  0  0  0
  -22.0410   -7.2630   21.3370 O   0  0  0  0  0  0  0  0  0  0  0  0
  -21.8660   -6.6020   22.5270 C   0  0  0  0  0  0  0  0  0  0  0  0
  -21.2960   -7.2330   23.6520 C   0  0  0  0  0  3  0  0  0  0  0  0
  -21.0700   -6.4970   24.8330 C   0  0  0  0  0  3  0  0  0  0  0  0
  -21.4040   -5.1300   24.8860 C   0  0  0  0  0  0  0  0  0  0  0  0
  -21.9660   -4.4980   23.7630 C   0  0  0  0  0  3  0  0  0  0  0  0
  -22.1930   -5.2320   22.5850 C   0  0  0  0  0  0  0  0  0  0  0  0
  -22.7150   -4.6130   21.4990 F   0  0  0  0  0  0  0  0  0  0  0  0
  -21.1790   -4.4210   26.0170 F   0  0  0  0  0  0  0  0  0  0  0  0
  -23.2310  -13.8930   21.2080 C   0  0  0  0  0  0  0  0  0  0  0  0
  -22.5560  -13.1810   22.1020 N   0  0  0  0  0  0  0  0  0  0  0  0
  -22.7760  -14.9400   20.7520 O   0  0  0  0  0  0  0  0  0  0  0  0
  -22.9410  -12.3330   22.4930 H   0  0  0  0  0  0  0  0  0  0  0  0
  -21.6420  -13.4880   22.4030 H   0  0  0  0  0  0  0  0  0  0  0  0
  -25.8250  -15.5500   20.2740 N   0  0  0  0  0  0  0  0  0  0  0  0
  -25.0730  -16.2100   20.4450 H   0  0  0  0  0  0  0  0  0  0  0  0
  -26.6440  -15.9840   19.8710 H   0  0  0  0  0  0  0  0  0  0  0  0
  -31.9330  -20.1960   17.0830 N   0  0  0  0  0  0  0  0  0  0  0  0
  -31.8610  -21.0910   16.6080 H   0  0  0  0  0  0  0  0  0  0  0  0
  -32.2500  -19.4420   16.4810 H   0  0  0  0  0  0  0  0  0  0  0  0
  -28.4040  -26.2320   19.7580 O   0  0  0  0  0  0  0  0  0  0  0  0
  -24.6640  -31.8000   23.0610 C   0  0  0  0  0  0  0  0  0  0  0  0
  -27.3090  -27.2180   19.7530 C   0  0  0  0  0  0  0  0  0  0  0  0
  -23.4660  -30.4190   21.4120 C   0  0  0  0  0  3  0  0  0  0  0  0
  -24.9240  -28.9450   19.8770 C   0  0  0  0  0  0  0  0  0  0  0  0
  -26.0100  -30.7640   21.1790 C   0  0  0  0  0  2  0  0  0  0  0  0
  -26.1120  -29.3930   20.4650 C   0  0  0  0  0  0  0  0  0  0  0  0
  -27.2970  -28.5460   20.3850 C   0  0  0  0  0  3  0  0  0  0  0  0
  -26.0780  -26.8990   19.1400 C   0  0  0  0  0  3  0  0  0  0  0  0
  -24.9240  -27.7180   19.1980 C   0  0  0  0  0  3  0  0  0  0  0  0
  -23.6670  -29.8010   20.0030 C   0  0  0  0  0  2  0  0  0  0  0  0
  -24.7360  -31.0190   21.9380 N   0  0  0  0  0  0  0  0  0  0  0  0
  -23.5860  -32.0230   23.6330 O   0  0  0  0  0  0  0  0  0  0  0  0
  -22.8560  -29.3560   22.3600 C   0  0  0  0  0  0  0  0  0  0  0  0
  -21.5380  -29.1070   22.2430 N   0  0  0  0  0  0  0  0  0  0  0  0
  -23.5720  -28.7540   23.1640 O   0  0  0  0  0  0  0  0  0  0  0  0
  -21.0130  -29.6470   21.5700 H   0  0  0  0  0  0  0  0  0  0  0  0
  -18.2550  -27.6430   22.7170 C   0  0  0  0  0  0  0  0  0  0  0  0
  -20.7840  -28.1030   23.0010 C   0  0  0  0  0  3  0  0  0  0  0  0
  -21.0000  -26.6880   22.4150 C   0  0  0  0  0  2  0  0  0  0  0  0
  -19.9320  -26.2900   21.3910 C   0  0  0  0  0  2  0  0  0  0  0  0
  -18.5400  -26.3200   22.0270 C   0  0  0  0  0  2  0  0  0  0  0  0
  -19.3080  -28.4870   23.1600 C   0  0  0  0  0  0  0  0  0  0  0  0
  -18.9860  -29.7210   23.7660 C   0  0  0  0  0  3  0  0  0  0  0  0
  -17.6440  -30.1120   23.9350 C   0  0  0  0  0  3  0  0  0  0  0  0
  -16.6060  -29.2670   23.5070 C   0  0  0  0  0  3  0  0  0  0  0  0
  -16.9120  -28.0340   22.9030 C   0  0  0  0  0  3  0  0  0  0  0  0
  -25.9340  -32.4680   23.6720 C   0  0  0  0  0  3  0  0  0  0  0  0
  -25.5740  -33.8390   24.0740 N   0  0  0  0  0  0  0  0  0  0  0  0
  -25.8290  -34.9410   23.3560 C   0  0  0  0  0  0  0  0  0  0  0  0
  -26.4540  -34.9130   22.2930 O   0  0  0  0  0  0  0  0  0  0  0  0
  -25.0110  -33.9300   24.9060 H   0  0  0  0  0  0  0  0  0  0  0  0
  -24.0060  -36.6680   23.1740 C   0  0  0  0  0  1  0  0  0  0  0  0
  -25.3070  -36.2870   23.8980 C   0  0  0  0  0  3  0  0  0  0  0  0
  -27.4380  -37.2440   24.6570 C   0  0  0  0  0  1  0  0  0  0  0  0
  -26.2840  -37.3910   23.7740 N   0  0  0  0  0  0  0  0  0  0  0  0
  -25.8450  -38.2850   23.9730 H   0  0  0  0  0  0  0  0  0  0  0  0
  -26.5180  -31.6760   24.9060 C   0  0  1  0  0  0  0  0  0  0  0  0
  -25.4670  -31.3590   25.9970 C   0  0  0  0  0  1  0  0  0  0  0  0
  -27.1420  -30.3350   24.4550 C   0  0  0  0  0  1  0  0  0  0  0  0
  -27.6570  -32.4920   25.5620 C   0  0  0  0  0  1  0  0  0  0  0  0
  1  7  1  0
  1  2  1  0
  2  8  2  0
  2  5  1  0
  3  9  2  0
  3  5  1  0
  4 57  1  0
  4  1  2  0
  6  4  1  0
  7  3  1  0
 10 13  1  0
 12 15  2  0
 13 11  2  0
 13  7  1  0
 14 12  1  0
 14 10  2  0
 15 24  1  0
 15 11  1  0
 16 22  1  0
 16 24  1  0
 17 22  1  0
 18 19  1  0
 18 17  1  0
 20 19  1  0
 20 29  1  0
 20 21  1  0
 22 21  1  0
 23 16  2  0
 24 25  1  0
 26 27  2  0
 27 46  1  0
 28 27  1  0
 28 31  1  0
 29 30  1  0
 29 26  1  0
 30 28  2  0
 31 32  1  0
 32 33  2  0
 34 37  1  0
 34 33  1  0
 35 34  2  0
 36 35  1  0
 36 31  2  0
 37 38  1  0
 38 43  2  0
 38 39  1  0
 39 40  2  0
 40 41  1  0
 41 45  1  0
 42 41  2  0
 43 42  1  0
 44 43  1  0
 46 47  1  0
 47 50  1  0
 47 49  1  0
 48 46  2  0
 51 26  1  0
 51 52  1  0
 53 51  1  0
 54 14  1  0
 55 54  1  0
 56 54  1  0
 58 69  2  0
 59 57  1  0
 59 64  1  0
 60 68  1  0
 60 70  1  0
 61 67  1  0
 61 63  1  0
 62 68  1  0
 63 62  1  0
 64 63  2  0
 65 66  1  0
 65 59  2  0
 66 61  2  0
 67 60  1  0
 68 58  1  0
 70 72  2  0
 71 70  1  0
 73 71  1  0
 74 83  2  0
 74 79  1  0
 75 71  1  0
 75 79  1  0
 76 75  1  0
 77 78  1  0
 77 76  1  0
 78 74  1  0
 79 80  2  0
 80 81  1  0
 82 81  2  0
 83 82  1  0
 84 58  1  0
 84 85  1  0
 84 94  1  0
 85 88  1  0
 86 90  1  0
 86 85  1  0
 87 86  2  0
 90 89  1  0
 92 90  1  0
 92 93  1  0
 92 91  1  0
 94 97  1  1
 94 95  1  0
 96 94  1  0
M  ISO  4   4 101  16 100  24 100  57 101
M  END
>  <TORSDO>  (95) 
F 18

>  <SCORE>  (95) 
-13.011

>  <name>  (95) 
94

>  <ligand_id>  (95) 
94

>  <original_smiles>  (95) 
[H]c1c([H])c([H])c2c(c1[H])C([H])([H])C([H])([H])C([H])([H])C2([H])N([H])C(=O)C1([H])N(C(=O)C([H])(N([H])C(=O)C([H])(N([H])C([H])([H])[H])C([H])([H])[H])C(C([H])([H])[H])(C([H])([H])[H])C([H])([H])[H])C([H])([H])c2c([H])c(OC(=C3C(=O)C([H])([H])C(=O)N3c3c([H])c(N([H])[H])c([H])c(N([H])C(=O)N4C([H])([H])C([H])([H])C([H])([H])C([H])(n5nc(-c6c([H])c([H])c(Oc7c([H])c([H])c(F)c([H])c7F)c([H])c6[H])c(C(=O)N([H])[H])c5N([H])[H])C4([H])[H])c3[H])C([H])([H])[H])c([H])c([H])c2C1([H])[H]

>  <smiles>  (95) 
[H]c1c([H])c([H])c2c(c1[H])C([H])([H])C([H])([H])C([H])([H])C2([H])N([H])C(=O)C1([H])N(C(=O)C([H])(N([H])C(=O)C([H])(N([H])C([H])([H])[H])C([H])([H])[H])C(C([H])([H])[H])(C([H])([H])[H])C([H])([H])[H])C([H])([H])c2c([H])c(OC(=C3C(=O)C([H])([H])C(=O)N3c3c([H])c(N([H])[H])c([H])c(N([H])C(=O)N4C([H])([H])C([H])([H])C([H])([H])C([H])(n5nc(-c6c([H])c([H])c(Oc7c([H])c([H])c(F)c([H])c7F)c([H])c6[H])c(C(=O)N([H])[H])c5N([H])[H])C4([H])[H])c3[H])C([H])([H])[H])c([H])c([H])c2C1([H])[H]

$$$$
95:0:0
     RDKit          3D

 98107  0  0  1  0  0  0  0  0999 V2000
  -30.3990  -17.7860   19.3530 C   0  0  0  0  0  3  0  0  0  0  0  0
  -30.1110  -19.1630   19.0650 C   0  0  0  0  0  3  0  0  0  0  0  0
  -30.6700  -19.7570   21.2980 C   0  0  0  0  0  3  0  0  0  0  0  0
  -30.8380  -17.3220   20.6300 C   0  0  0  0  0  0  0  0  0  0  0  0
  -30.2390  -20.2050   20.0300 C   0  0  0  0  0  0  0  0  0  0  0  0
  -30.9410  -18.3840   21.6070 C   0  0  0  0  0  0  0  0  0  0  0  0
  -29.7860  -23.7130   18.6240 C   0  0  0  0  0  0  0  0  0  0  0  0
  -29.4140  -24.0020   19.9950 C   0  0  0  0  0  0  0  0  0  0  0  0
  -29.7990  -24.5930   17.6080 C   0  0  0  0  0  1  0  0  0  0  0  0
  -29.0300  -25.2120   20.5550 C   0  0  0  0  0  3  0  0  0  0  0  0
  -30.1410  -22.2340   18.4500 C   0  0  0  0  0  3  0  0  0  0  0  0
  -29.5260  -22.6410   20.7390 C   0  0  0  0  0  3  0  0  0  0  0  0
  -28.6690  -25.3150   22.0320 C   0  0  0  0  0  1  0  0  0  0  0  0
  -29.9630  -21.6020   19.7630 N   0  0  0  0  0  0  0  0  0  0  0  0
  -28.9920  -26.4780   19.9180 O   0  0  0  0  0  0  0  0  0  0  0  0
  -24.7100  -31.3720   23.1100 C   0  0  0  0  0  0  0  0  0  0  0  0
  -27.8060  -27.2290   19.9270 C   0  0  0  0  0  0  0  0  0  0  0  0
  -23.6770  -29.9370   21.3840 C   0  0  0  0  0  3  0  0  0  0  0  0
  -25.2970  -28.5930   19.9300 C   0  0  0  0  0  0  0  0  0  0  0  0
  -26.1740  -30.5090   21.2690 C   0  0  0  0  0  2  0  0  0  0  0  0
  -26.4010  -29.1730   20.5700 C   0  0  0  0  0  0  0  0  0  0  0  0
  -27.6620  -28.5030   20.5580 C   0  0  0  0  0  3  0  0  0  0  0  0
  -26.6780  -26.6960   19.2720 C   0  0  0  0  0  3  0  0  0  0  0  0
  -25.4370  -27.3600   19.2730 C   0  0  0  0  0  3  0  0  0  0  0  0
  -23.9810  -29.3430   19.9830 C   0  0  0  0  0  2  0  0  0  0  0  0
  -24.8700  -30.6240   21.9800 N   0  0  0  0  0  0  0  0  0  0  0  0
  -23.5970  -31.5200   23.6330 O   0  0  0  0  0  0  0  0  0  0  0  0
  -23.0980  -28.8230   22.2870 C   0  0  0  0  0  0  0  0  0  0  0  0
  -21.8130  -28.4860   22.0830 N   0  0  0  0  0  0  0  0  0  0  0  0
  -23.8050  -28.2670   23.1310 O   0  0  0  0  0  0  0  0  0  0  0  0
  -21.2960  -28.9920   21.3780 H   0  0  0  0  0  0  0  0  0  0  0  0
  -18.6200  -26.8010   22.3020 C   0  0  0  0  0  0  0  0  0  0  0  0
  -21.0780  -27.4350   22.7900 C   0  0  0  0  0  3  0  0  0  0  0  0
  -21.4410  -26.0360   22.2390 C   0  0  0  0  0  2  0  0  0  0  0  0
  -20.4910  -25.5590   21.1360 C   0  0  0  0  0  2  0  0  0  0  0  0
  -19.0520  -25.4960   21.6560 C   0  0  0  0  0  2  0  0  0  0  0  0
  -19.5720  -27.7180   22.8200 C   0  0  0  0  0  0  0  0  0  0  0  0
  -19.1170  -28.9320   23.3790 C   0  0  0  0  0  3  0  0  0  0  0  0
  -17.7440  -29.2340   23.4290 C   0  0  0  0  0  3  0  0  0  0  0  0
  -16.8050  -28.3150   22.9290 C   0  0  0  0  0  3  0  0  0  0  0  0
  -17.2430  -27.1010   22.3700 C   0  0  0  0  0  3  0  0  0  0  0  0
  -25.9160  -32.0950   23.7860 C   0  0  0  0  0  3  0  0  0  0  0  0
  -26.3780  -31.4080   25.1290 C   0  0  1  0  0  0  0  0  0  0  0  0
  -25.2340  -31.2030   26.1490 C   0  0  0  0  0  1  0  0  0  0  0  0
  -27.0120  -30.0260   24.8460 C   0  0  0  0  0  1  0  0  0  0  0  0
  -27.4710  -32.2660   25.8060 C   0  0  0  0  0  1  0  0  0  0  0  0
  -25.5180  -33.4890   24.0290 N   0  0  0  0  0  0  0  0  0  0  0  0
  -25.8980  -34.5320   23.2790 C   0  0  0  0  0  0  0  0  0  0  0  0
  -26.6880  -34.4270   22.3370 O   0  0  0  0  0  0  0  0  0  0  0  0
  -24.8310  -33.6420   24.7520 H   0  0  0  0  0  0  0  0  0  0  0  0
  -24.1730  -36.2500   22.6520 C   0  0  0  0  0  1  0  0  0  0  0  0
  -25.3090  -35.9120   23.6290 C   0  0  0  0  0  3  0  0  0  0  0  0
  -27.2790  -36.9000   24.7110 C   0  0  0  0  0  1  0  0  0  0  0  0
  -26.3110  -36.9990   23.6220 N   0  0  0  0  0  0  0  0  0  0  0  0
  -25.8560  -37.9070   23.6840 H   0  0  0  0  0  0  0  0  0  0  0  0
  -31.1850  -15.8240   20.9700 C   0  0  0  0  0  0  0  0  0  0  0  0
  -31.2210  -15.4430   22.1800 N   0  0  0  0  0  0  0  0  0  0  0  0
  -30.9930  -16.2080   22.8040 H   0  0  0  0  0  0  0  0  0  0  0  0
  -31.5930  -14.7430   19.8900 C   0  0  0  0  0  0  0  0  0  0  0  0
  -31.1410  -12.5800   18.7120 C   0  0  0  0  0  2  0  0  0  0  0  0
  -30.0800  -12.7860   17.6070 C   0  0  0  0  0  2  0  0  0  0  0  0
  -28.6550  -12.6530   18.1770 C   0  0  0  0  0  2  0  0  0  0  0  0
  -28.4670  -13.4700   19.4800 C   0  0  0  0  0  3  0  0  0  0  0  0
  -29.6200  -13.2050   20.4700 C   0  0  0  0  0  2  0  0  0  0  0  0
  -30.8860  -13.5570   19.8000 N   0  0  0  0  0  0  0  0  0  0  0  0
  -32.5970  -14.9280   19.1910 O   0  0  0  0  0  0  0  0  0  0  0  0
  -26.2370  -14.1400   20.5670 C   0  0  0  0  0  0  0  0  0  0  0  0
  -25.1580  -13.4050   20.9770 C   0  0  0  0  0  0  0  0  0  0  0  0
  -25.4930  -12.0400   20.7230 C   0  0  0  0  0  0  0  0  0  0  0  0
  -27.1640  -13.2260   20.0930 N   0  0  0  0  0  0  0  0  0  0  0  0
  -26.7280  -11.9490   20.2440 N   0  0  0  0  0  0  0  0  0  0  0  0
  -24.6870  -10.8180   20.8520 C   0  0  0  0  0  0  0  0  0  0  0  0
  -25.1160   -9.7320   21.6460 C   0  0  0  0  0  3  0  0  0  0  0  0
  -24.3150   -8.5760   21.7690 C   0  0  0  0  0  3  0  0  0  0  0  0
  -23.0700   -8.5010   21.0990 C   0  0  0  0  0  0  0  0  0  0  0  0
  -22.6600   -9.5760   20.2930 C   0  0  0  0  0  3  0  0  0  0  0  0
  -23.4600  -10.7240   20.1680 C   0  0  0  0  0  3  0  0  0  0  0  0
  -22.2380   -7.4090   21.1410 O   0  0  0  0  0  0  0  0  0  0  0  0
  -22.0460   -6.6930   22.2950 C   0  0  0  0  0  0  0  0  0  0  0  0
  -21.5610   -7.2970   23.4750 C   0  0  0  0  0  3  0  0  0  0  0  0
  -21.3130   -6.5100   24.6180 C   0  0  0  0  0  3  0  0  0  0  0  0
  -21.5390   -5.1210   24.5800 C   0  0  0  0  0  0  0  0  0  0  0  0
  -22.0170   -4.5170   23.4050 C   0  0  0  0  0  3  0  0  0  0  0  0
  -22.2670   -5.3000   22.2640 C   0  0  0  0  0  0  0  0  0  0  0  0
  -22.7070   -4.7100   21.1270 F   0  0  0  0  0  0  0  0  0  0  0  0
  -21.2930   -4.3640   25.6750 F   0  0  0  0  0  0  0  0  0  0  0  0
  -23.8510  -13.9410   21.4840 C   0  0  0  0  0  0  0  0  0  0  0  0
  -23.2160  -13.2330   22.4100 N   0  0  0  0  0  0  0  0  0  0  0  0
  -23.4090  -15.0210   21.0940 O   0  0  0  0  0  0  0  0  0  0  0  0
  -23.5900  -12.3570   22.7450 H   0  0  0  0  0  0  0  0  0  0  0  0
  -22.3430  -13.5720   22.7910 H   0  0  0  0  0  0  0  0  0  0  0  0
  -26.4970  -15.5070   20.5370 N   0  0  0  0  0  0  0  0  0  0  0  0
  -25.8150  -16.1940   20.8380 H   0  0  0  0  0  0  0  0  0  0  0  0
  -27.3420  -15.9250   20.1670 H   0  0  0  0  0  0  0  0  0  0  0  0
  -31.3800  -18.1340   22.8920 O   0  0  0  0  0  0  0  0  0  0  0  0
  -30.5370  -18.2420   23.9480 C   0  0  0  0  0  0  0  0  0  0  0  0
  -31.2750  -18.5080   25.2510 C   0  0  0  0  0  1  0  0  0  0  0  0
  -29.3070  -18.1560   23.9150 O   0  0  0  0  0  0  0  0  0  0  0  0
  1  4  1  0
  2  1  2  0
  2  5  1  0
  3  6  1  0
  4 56  1  0
  4  6  2  0
  5  3  2  0
  6 95  1  0
  7  8  1  0
  8 10  1  0
  8 12  2  0
  9  7  1  0
 10 13  1  0
 11  7  2  0
 11 14  1  0
 14  5  1  0
 14 12  1  0
 15 17  1  0
 15 10  1  0
 16 27  2  0
 17 22  1  0
 18 26  1  0
 18 28  1  0
 19 25  1  0
 19 21  1  0
 20 26  1  0
 21 20  1  0
 22 21  2  0
 23 24  1  0
 23 17  2  0
 24 19  2  0
 25 18  1  0
 26 16  1  0
 28 30  2  0
 29 28  1  0
 31 29  1  0
 32 41  2  0
 32 37  1  0
 33 29  1  0
 33 37  1  0
 34 33  1  0
 35 36  1  0
 35 34  1  0
 36 32  1  0
 37 38  2  0
 38 39  1  0
 40 39  2  0
 41 40  1  0
 42 16  1  0
 42 47  1  0
 42 43  1  0
 43 46  1  1
 43 44  1  0
 45 43  1  0
 47 50  1  0
 48 52  1  0
 48 47  1  0
 49 48  2  0
 52 51  1  0
 54 52  1  0
 54 55  1  0
 54 53  1  0
 56 57  2  0
 57 58  1  0
 59 56  1  0
 60 65  1  0
 61 62  1  0
 61 60  1  0
 63 62  1  0
 63 70  1  0
 63 64  1  0
 65 59  1  0
 65 64  1  0
 66 59  2  0
 67 68  2  0
 68 87  1  0
 69 72  1  0
 69 68  1  0
 70 71  1  0
 70 67  1  0
 71 69  2  0
 72 73  1  0
 73 74  2  0
 75 78  1  0
 75 74  1  0
 76 75  2  0
 77 76  1  0
 77 72  2  0
 78 79  1  0
 79 80  1  0
 80 81  2  0
 82 81  1  0
 82 86  1  0
 83 82  2  0
 84 79  2  0
 84 83  1  0
 85 84  1  0
 87 88  1  0
 88 90  1  0
 88 91  1  0
 89 87  2  0
 92 67  1  0
 92 93  1  0
 94 92  1  0
 95 96  1  0
 96 97  1  0
 98 96  2  0
M  ISO  4  10 101  15 101  56 100  59 100
M  END
>  <TORSDO>  (96) 
F 20

>  <SCORE>  (96) 
-5.137

>  <name>  (96) 
95

>  <ligand_id>  (96) 
95

>  <original_smiles>  (96) 
[H]N=C(C(=O)N1C([H])([H])C([H])([H])C([H])([H])C([H])(n2nc(-c3c([H])c([H])c(Oc4c([H])c([H])c(F)c([H])c4F)c([H])c3[H])c(C(=O)N([H])[H])c2N([H])[H])C1([H])[H])c1c([H])c([H])c(N2C([H])([H])C(=C([H])[H])C(=C(Oc3c([H])c([H])c4c(c3[H])C([H])([H])N(C(=O)C([H])(N([H])C(=O)C([H])(N([H])C([H])([H])[H])C([H])([H])[H])C(C([H])([H])[H])(C([H])([H])[H])C([H])([H])[H])C([H])(C(=O)N([H])C3([H])c5c([H])c([H])c([H])c([H])c5C([H])([H])C([H])([H])C3([H])[H])C4([H])[H])C([H])([H])[H])C2([H])[H])c([H])c1OC(=O)C([H])([H])[H]

>  <smiles>  (96) 
[H]N=C(C(=O)N1C([H])([H])C([H])([H])C([H])([H])C([H])(n2nc(-c3c([H])c([H])c(Oc4c([H])c([H])c(F)c([H])c4F)c([H])c3[H])c(C(=O)N([H])[H])c2N([H])[H])C1([H])[H])c1c([H])c([H])c(N2C([H])([H])C(=C([H])[H])C(=C(Oc3c([H])c([H])c4c(c3[H])C([H])([H])N(C(=O)C([H])(N([H])C(=O)C([H])(N([H])C([H])([H])[H])C([H])([H])[H])C(C([H])([H])[H])(C([H])([H])[H])C([H])([H])[H])C([H])(C(=O)N([H])C3([H])c5c([H])c([H])c([H])c([H])c5C([H])([H])C([H])([H])C3([H])[H])C4([H])[H])C([H])([H])[H])C2([H])[H])c([H])c1OC(=O)C([H])([H])[H]

$$$$
