0:0:0
     RDKit          3D

 95104  0  0  1  0  0  0  0  0999 V2000
  -30.3560  -19.5280   19.1870 C   0  0  0  0  0  3  0  0  0  0  0  0
  -28.9310  -18.2600   21.1110 C   0  0  0  0  0  3  0  0  0  0  0  0
  -30.4700  -18.1000   19.2990 C   0  0  0  0  0  0  0  0  0  0  0  0
  -29.7560  -17.4050   20.3280 C   0  0  0  0  0  0  0  0  0  0  0  0
  -29.4970  -20.3020   20.0200 C   0  0  0  0  0  0  0  0  0  0  0  0
  -28.7460  -24.0880   19.3370 C   0  0  0  0  0  0  0  0  0  0  0  0
  -28.4930  -22.5990   19.4800 C   0  0  0  0  0  0  0  0  0  0  0  0
  -30.8130  -23.8710   20.6120 C   0  0  0  0  0  0  0  0  0  0  0  0
  -31.3180  -24.5350   21.6630 C   0  0  0  0  0  2  0  0  0  0  0  0
  -27.7270  -24.9940   19.1020 C   0  0  0  0  0  3  0  0  0  0  0  0
  -30.1790  -24.5670   19.4380 C   0  0  0  0  0  2  0  0  0  0  0  0
  -30.7700  -22.3530   20.5160 C   0  0  0  0  0  2  0  0  0  0  0  0
  -31.3130  -17.3710   18.2650 C   0  0  0  0  0  1  0  0  0  0  0  0
  -28.8090  -19.6180   20.9770 N   0  0  0  0  0  0  0  0  0  0  0  0
  -29.5300  -21.7830   19.9410 N   0  0  0  0  0  0  0  0  0  0  0  0
  -27.4060  -22.1030   19.1660 O   0  0  0  0  0  0  0  0  0  0  0  0
  -30.5320  -14.8690   20.3940 C   0  0  0  0  0  0  0  0  0  0  0  0
  -30.4430  -12.5070   19.6020 C   0  0  0  0  0  2  0  0  0  0  0  0
  -29.5180  -12.4400   18.3680 C   0  0  0  0  0  2  0  0  0  0  0  0
  -28.0470  -12.2540   18.7930 C   0  0  0  0  0  2  0  0  0  0  0  0
  -27.6220  -13.2330   19.9190 C   0  0  0  0  0  3  0  0  0  0  0  0
  -28.6680  -13.2750   21.0580 C   0  0  0  0  0  2  0  0  0  0  0  0
  -29.9670  -13.6160   20.4570 N   0  0  0  0  0  0  0  0  0  0  0  0
  -31.7060  -15.0120   20.0450 O   0  0  0  0  0  0  0  0  0  0  0  0
  -29.6830  -15.9410   20.5720 N   0  0  0  0  0  0  0  0  0  0  0  0
  -28.8080  -15.6430   20.9770 H   0  0  0  0  0  0  0  0  0  0  0  0
  -25.2390  -13.8210   20.6780 C   0  0  0  0  0  0  0  0  0  0  0  0
  -24.1710  -13.0450   21.0380 C   0  0  0  0  0  0  0  0  0  0  0  0
  -24.6260  -11.6930   20.9740 C   0  0  0  0  0  0  0  0  0  0  0  0
  -26.2770  -12.9420   20.4120 N   0  0  0  0  0  0  0  0  0  0  0  0
  -25.9150  -11.6560   20.6530 N   0  0  0  0  0  0  0  0  0  0  0  0
  -23.8940  -10.4310   21.1440 C   0  0  0  0  0  0  0  0  0  0  0  0
  -24.3040   -9.4600   22.0840 C   0  0  0  0  0  3  0  0  0  0  0  0
  -23.5750   -8.2620   22.2410 C   0  0  0  0  0  3  0  0  0  0  0  0
  -22.4210   -8.0260   21.4580 C   0  0  0  0  0  0  0  0  0  0  0  0
  -22.0280   -8.9850   20.5080 C   0  0  0  0  0  3  0  0  0  0  0  0
  -22.7580  -10.1740   20.3480 C   0  0  0  0  0  3  0  0  0  0  0  0
  -21.6640   -6.8800   21.5250 O   0  0  0  0  0  0  0  0  0  0  0  0
  -21.5400   -6.1650   22.6900 C   0  0  0  0  0  0  0  0  0  0  0  0
  -20.9870   -6.7350   23.8570 C   0  0  0  0  0  3  0  0  0  0  0  0
  -20.8130   -5.9470   25.0120 C   0  0  0  0  0  3  0  0  0  0  0  0
  -21.1800   -4.5870   25.0000 C   0  0  0  0  0  0  0  0  0  0  0  0
  -21.7250   -4.0160   23.8350 C   0  0  0  0  0  3  0  0  0  0  0  0
  -21.9010   -4.8030   22.6830 C   0  0  0  0  0  0  0  0  0  0  0  0
  -22.4080   -4.2420   21.5580 F   0  0  0  0  0  0  0  0  0  0  0  0
  -21.0050   -3.8260   26.1050 F   0  0  0  0  0  0  0  0  0  0  0  0
  -22.7770  -13.5230   21.3290 C   0  0  0  0  0  0  0  0  0  0  0  0
  -22.0580  -12.8240   22.2000 N   0  0  0  0  0  0  0  0  0  0  0  0
  -22.3350  -14.5520   20.8190 O   0  0  0  0  0  0  0  0  0  0  0  0
  -22.4270  -11.9920   22.6370 H   0  0  0  0  0  0  0  0  0  0  0  0
  -21.1230  -13.1260   22.4360 H   0  0  0  0  0  0  0  0  0  0  0  0
  -25.4070  -15.1950   20.5290 N   0  0  0  0  0  0  0  0  0  0  0  0
  -24.6390  -15.8440   20.6570 H   0  0  0  0  0  0  0  0  0  0  0  0
  -26.2410  -15.6370   20.1650 H   0  0  0  0  0  0  0  0  0  0  0  0
  -27.8470  -26.3980   18.8910 O   0  0  0  0  0  0  0  0  0  0  0  0
  -24.4460  -31.4880   22.7640 C   0  0  0  0  0  0  0  0  0  0  0  0
  -26.7350  -27.2540   19.0360 C   0  0  0  0  0  0  0  0  0  0  0  0
  -23.0860  -30.2600   21.1080 C   0  0  0  0  0  3  0  0  0  0  0  0
  -24.3890  -28.8660   19.4010 C   0  0  0  0  0  0  0  0  0  0  0  0
  -25.6020  -30.5940   20.7280 C   0  0  0  0  0  2  0  0  0  0  0  0
  -25.6110  -29.2880   19.9410 C   0  0  0  0  0  0  0  0  0  0  0  0
  -26.7820  -28.4930   19.7520 C   0  0  0  0  0  3  0  0  0  0  0  0
  -25.4920  -26.9050   18.4600 C   0  0  0  0  0  3  0  0  0  0  0  0
  -24.3330  -27.6810   18.6510 C   0  0  0  0  0  3  0  0  0  0  0  0
  -23.1670  -29.7280   19.6530 C   0  0  0  0  0  2  0  0  0  0  0  0
  -24.4020  -30.7950   21.5890 N   0  0  0  0  0  0  0  0  0  0  0  0
  -23.4200  -31.7080   23.4230 O   0  0  0  0  0  0  0  0  0  0  0  0
  -22.5080  -29.1500   22.0180 C   0  0  0  0  0  0  0  0  0  0  0  0
  -21.1760  -28.9700   21.9840 N   0  0  0  0  0  0  0  0  0  0  0  0
  -23.2540  -28.4570   22.7160 O   0  0  0  0  0  0  0  0  0  0  0  0
  -20.6340  -29.5810   21.3900 H   0  0  0  0  0  0  0  0  0  0  0  0
  -17.8530  -27.6980   22.6380 C   0  0  0  0  0  0  0  0  0  0  0  0
  -20.4230  -27.9570   22.7270 C   0  0  0  0  0  3  0  0  0  0  0  0
  -20.4830  -26.5860   22.0140 C   0  0  0  0  0  2  0  0  0  0  0  0
  -19.3050  -26.3490   21.0650 C   0  0  0  0  0  2  0  0  0  0  0  0
  -17.9780  -26.4190   21.8270 C   0  0  0  0  0  2  0  0  0  0  0  0
  -19.0000  -28.4290   23.0460 C   0  0  0  0  0  0  0  0  0  0  0  0
  -18.8250  -29.6290   23.7690 C   0  0  0  0  0  3  0  0  0  0  0  0
  -17.5350  -30.0950   24.0890 C   0  0  0  0  0  3  0  0  0  0  0  0
  -16.4040  -29.3590   23.6950 C   0  0  0  0  0  3  0  0  0  0  0  0
  -16.5640  -28.1620   22.9730 C   0  0  0  0  0  3  0  0  0  0  0  0
  -25.7860  -32.0570   23.3260 C   0  0  0  0  0  3  0  0  0  0  0  0
  -25.5140  -33.4060   23.8400 N   0  0  0  0  0  0  0  0  0  0  0  0
  -25.8450  -34.5430   23.2100 C   0  0  0  0  0  0  0  0  0  0  0  0
  -26.4820  -34.5600   22.1530 O   0  0  0  0  0  0  0  0  0  0  0  0
  -24.9450  -33.4680   24.6710 H   0  0  0  0  0  0  0  0  0  0  0  0
  -24.1610  -36.4070   23.1270 C   0  0  0  0  0  1  0  0  0  0  0  0
  -25.4010  -35.8690   23.8560 C   0  0  0  0  0  3  0  0  0  0  0  0
  -27.5650  -36.5860   24.7690 C   0  0  0  0  0  1  0  0  0  0  0  0
  -26.4610  -36.9030   23.8660 N   0  0  0  0  0  0  0  0  0  0  0  0
  -26.0810  -37.8080   24.1310 H   0  0  0  0  0  0  0  0  0  0  0  0
  -26.4190  -31.1510   24.4530 C   0  0  1  0  0  0  0  0  0  0  0  0
  -25.4380  -30.8030   25.5960 C   0  0  0  0  0  1  0  0  0  0  0  0
  -26.9430  -29.8220   23.8620 C   0  0  0  0  0  1  0  0  0  0  0  0
  -27.6440  -31.8670   25.0680 C   0  0  0  0  0  1  0  0  0  0  0  0
  1  3  2  0
  1  5  1  0
  3  4  1  0
  4 25  1  0
  4  2  2  0
  5 14  2  0
  6 11  1  0
  6  7  1  0
  7 15  1  0
  8  9  2  0
 10  6  2  0
 11  8  1  0
 12  8  1  0
 13  3  1  0
 14  2  1  0
 15  5  1  0
 15 12  1  0
 16  7  2  0
 17 23  1  0
 17 25  1  0
 18 23  1  0
 19 20  1  0
 19 18  1  0
 21 20  1  0
 21 30  1  0
 21 22  1  0
 23 22  1  0
 24 17  2  0
 25 26  1  0
 27 28  2  0
 28 47  1  0
 29 28  1  0
 29 32  1  0
 30 31  1  0
 30 27  1  0
 31 29  2  0
 32 33  1  0
 33 34  2  0
 35 38  1  0
 35 34  1  0
 36 35  2  0
 37 36  1  0
 37 32  2  0
 38 39  1  0
 39 40  1  0
 40 41  2  0
 42 41  1  0
 42 46  1  0
 43 42  2  0
 44 39  2  0
 44 43  1  0
 45 44  1  0
 47 48  1  0
 48 51  1  0
 48 50  1  0
 49 47  2  0
 52 53  1  0
 52 27  1  0
 54 52  1  0
 55 57  1  0
 55 10  1  0
 56 67  2  0
 57 62  1  0
 58 66  1  0
 58 68  1  0
 59 65  1  0
 59 61  1  0
 60 66  1  0
 61 60  1  0
 62 61  2  0
 63 64  1  0
 63 57  2  0
 64 59  2  0
 65 58  1  0
 66 56  1  0
 68 70  2  0
 69 68  1  0
 71 69  1  0
 72 81  2  0
 72 77  1  0
 73 69  1  0
 73 77  1  0
 74 73  1  0
 75 76  1  0
 75 74  1  0
 76 72  1  0
 77 78  2  0
 78 79  1  0
 80 79  2  0
 81 80  1  0
 82 56  1  0
 82 83  1  0
 82 92  1  0
 83 86  1  0
 84 83  1  0
 84 88  1  0
 85 84  2  0
 88 87  1  0
 88 90  1  0
 90 91  1  0
 90 89  1  0
 92 95  1  1
 92 93  1  0
 94 92  1  0
M  ISO  4  10 101  17 100  25 100  55 101
M  END
>  <TORSDO>  (1) 
F 16

>  <SCORE>  (1) 
-13.060

>  <name>  (1) 
0

>  <ligand_id>  (1) 
0

>  <original_smiles>  (1) 
[H]C([H])=C1C([H])([H])C(=C([H])Oc2c([H])c([H])c3c(c2[H])C([H])([H])N(C(=O)C([H])(N([H])C(=O)C([H])(N([H])C([H])([H])[H])C([H])([H])[H])C(C([H])([H])[H])(C([H])([H])[H])C([H])([H])[H])C([H])(C(=O)N([H])C2([H])c4c([H])c([H])c([H])c([H])c4C([H])([H])C([H])([H])C2([H])[H])C3([H])[H])C(=O)N(c2nc([H])c(N([H])C(=O)N3C([H])([H])C([H])([H])C([H])([H])C([H])(n4nc(-c5c([H])c([H])c(Oc6c([H])c([H])c(F)c([H])c6F)c([H])c5[H])c(C(=O)N([H])[H])c4N([H])[H])C3([H])[H])c(C([H])([H])[H])c2[H])C1([H])[H]

>  <smiles>  (1) 
[H]C([H])=C1C([H])([H])C(=C([H])Oc2c([H])c([H])c3c(c2[H])C([H])([H])N(C(=O)C([H])(N([H])C(=O)C([H])(N([H])C([H])([H])[H])C([H])([H])[H])C(C([H])([H])[H])(C([H])([H])[H])C([H])([H])[H])C([H])(C(=O)N([H])C2([H])c4c([H])c([H])c([H])c([H])c4C([H])([H])C([H])([H])C2([H])[H])C3([H])[H])C(=O)N(c2nc([H])c(N([H])C(=O)N3C([H])([H])C([H])([H])C([H])([H])C([H])(n4nc(-c5c([H])c([H])c(Oc6c([H])c([H])c(F)c([H])c6F)c([H])c5[H])c(C(=O)N([H])[H])c4N([H])[H])C3([H])[H])c(C([H])([H])[H])c2[H])C1([H])[H]

$$$$
1:0:0
     RDKit          3D

 91 99  0  0  1  0  0  0  0  0999 V2000
  -29.6290  -21.6270   19.6520 C   0  0  0  0  0  0  0  0  0  0  0  0
  -30.2760  -21.9040   18.6370 O   0  0  0  0  0  0  0  0  0  0  0  0
  -28.5220  -19.3590   20.3320 C   0  0  0  0  0  3  0  0  0  0  0  0
  -28.5790  -17.9440   20.5350 C   0  0  0  0  0  3  0  0  0  0  0  0
  -30.9580  -17.9700   20.2390 C   0  0  0  0  0  3  0  0  0  0  0  0
  -29.6850  -20.1320   20.0700 C   0  0  0  0  0  0  0  0  0  0  0  0
  -29.7900  -17.1930   20.4700 C   0  0  0  0  0  0  0  0  0  0  0  0
  -30.9090  -19.3900   20.0500 C   0  0  0  0  0  0  0  0  0  0  0  0
  -32.0770  -20.0350   19.8110 F   0  0  0  0  0  0  0  0  0  0  0  0
  -30.5690  -14.6860   20.3130 C   0  0  0  0  0  0  0  0  0  0  0  0
  -30.3790  -12.4400   19.2500 C   0  0  0  0  0  2  0  0  0  0  0  0
  -29.4190  -12.5630   18.0460 C   0  0  0  0  0  2  0  0  0  0  0  0
  -27.9500  -12.3970   18.4880 C   0  0  0  0  0  2  0  0  0  0  0  0
  -27.6020  -13.2490   19.7370 C   0  0  0  0  0  3  0  0  0  0  0  0
  -28.6740  -13.0900   20.8390 C   0  0  0  0  0  2  0  0  0  0  0  0
  -29.9730  -13.4510   20.2490 N   0  0  0  0  0  0  0  0  0  0  0  0
  -31.7310  -14.8510   19.9280 O   0  0  0  0  0  0  0  0  0  0  0  0
  -29.7390  -15.7300   20.6560 N   0  0  0  0  0  0  0  0  0  0  0  0
  -28.8400  -15.3930   20.9590 H   0  0  0  0  0  0  0  0  0  0  0  0
  -25.2150  -13.8450   20.4760 C   0  0  0  0  0  0  0  0  0  0  0  0
  -24.1530  -13.0690   20.8590 C   0  0  0  0  0  0  0  0  0  0  0  0
  -24.6190  -11.7200   20.8270 C   0  0  0  0  0  0  0  0  0  0  0  0
  -26.2590  -12.9650   20.2340 N   0  0  0  0  0  0  0  0  0  0  0  0
  -25.9060  -11.6830   20.5060 N   0  0  0  0  0  0  0  0  0  0  0  0
  -23.8970  -10.4560   21.0270 C   0  0  0  0  0  0  0  0  0  0  0  0
  -24.3450   -9.4900   21.9550 C   0  0  0  0  0  3  0  0  0  0  0  0
  -23.6230   -8.2900   22.1420 C   0  0  0  0  0  3  0  0  0  0  0  0
  -22.4420   -8.0490   21.4020 C   0  0  0  0  0  0  0  0  0  0  0  0
  -22.0140   -9.0040   20.4640 C   0  0  0  0  0  3  0  0  0  0  0  0
  -22.7350  -10.1950   20.2730 C   0  0  0  0  0  3  0  0  0  0  0  0
  -21.6920   -6.9020   21.5000 O   0  0  0  0  0  0  0  0  0  0  0  0
  -21.6670   -6.1540   22.6490 C   0  0  0  0  0  0  0  0  0  0  0  0
  -21.2630   -6.7040   23.8860 C   0  0  0  0  0  3  0  0  0  0  0  0
  -21.1830   -5.8820   25.0280 C   0  0  0  0  0  3  0  0  0  0  0  0
  -21.4970   -4.5130   24.9350 C   0  0  0  0  0  0  0  0  0  0  0  0
  -21.8950   -3.9630   23.7030 C   0  0  0  0  0  3  0  0  0  0  0  0
  -21.9750   -4.7820   22.5630 C   0  0  0  0  0  0  0  0  0  0  0  0
  -22.3380   -4.2430   21.3730 F   0  0  0  0  0  0  0  0  0  0  0  0
  -21.4150   -3.7210   26.0300 F   0  0  0  0  0  0  0  0  0  0  0  0
  -22.7570  -13.5440   21.1410 C   0  0  0  0  0  0  0  0  0  0  0  0
  -22.0380  -12.8490   22.0160 N   0  0  0  0  0  0  0  0  0  0  0  0
  -22.3110  -14.5650   20.6200 O   0  0  0  0  0  0  0  0  0  0  0  0
  -22.4120  -12.0230   22.4600 H   0  0  0  0  0  0  0  0  0  0  0  0
  -21.1020  -13.1500   22.2470 H   0  0  0  0  0  0  0  0  0  0  0  0
  -25.3730  -15.2150   20.2920 N   0  0  0  0  0  0  0  0  0  0  0  0
  -24.5980  -15.8600   20.3960 H   0  0  0  0  0  0  0  0  0  0  0  0
  -26.1940  -15.6470   19.8880 H   0  0  0  0  0  0  0  0  0  0  0  0
  -28.9260  -23.8610   20.0320 C   0  0  0  0  0  3  0  0  0  0  0  0
  -28.9090  -22.5980   20.4090 N   0  0  0  0  0  0  0  0  0  0  0  0
  -28.1360  -25.0580   20.7030 C   0  0  0  0  0  2  0  0  0  0  0  0
  -28.3470  -26.4520   20.2140 O   0  0  0  0  0  0  0  0  0  0  0  0
  -24.6040  -31.8680   23.2360 C   0  0  0  0  0  0  0  0  0  0  0  0
  -27.2320  -27.3080   20.1960 C   0  0  0  0  0  0  0  0  0  0  0  0
  -23.4060  -30.4620   21.5960 C   0  0  0  0  0  3  0  0  0  0  0  0
  -24.8630  -28.9120   20.1770 C   0  0  0  0  0  0  0  0  0  0  0  0
  -25.9440  -30.7880   21.4150 C   0  0  0  0  0  2  0  0  0  0  0  0
  -26.0300  -29.4070   20.7730 C   0  0  0  0  0  0  0  0  0  0  0  0
  -27.2210  -28.6170   20.7700 C   0  0  0  0  0  3  0  0  0  0  0  0
  -26.0460  -26.8680   19.5700 C   0  0  0  0  0  3  0  0  0  0  0  0
  -24.8730  -27.6480   19.5660 C   0  0  0  0  0  3  0  0  0  0  0  0
  -23.6230  -29.7830   20.2190 C   0  0  0  0  0  2  0  0  0  0  0  0
  -24.6700  -31.0580   22.1390 N   0  0  0  0  0  0  0  0  0  0  0  0
  -23.5190  -32.1440   23.7690 O   0  0  0  0  0  0  0  0  0  0  0  0
  -22.7440  -29.4480   22.5580 C   0  0  0  0  0  0  0  0  0  0  0  0
  -21.4170  -29.2730   22.4350 N   0  0  0  0  0  0  0  0  0  0  0  0
  -23.4230  -28.8200   23.3760 O   0  0  0  0  0  0  0  0  0  0  0  0
  -20.9290  -29.8300   21.7470 H   0  0  0  0  0  0  0  0  0  0  0  0
  -18.0390  -28.0820   22.9410 C   0  0  0  0  0  0  0  0  0  0  0  0
  -20.5980  -28.3360   23.2060 C   0  0  0  0  0  3  0  0  0  0  0  0
  -20.6960  -26.9050   22.6280 C   0  0  0  0  0  2  0  0  0  0  0  0
  -19.5900  -26.5840   21.6170 C   0  0  0  0  0  2  0  0  0  0  0  0
  -18.2100  -26.7320   22.2660 C   0  0  0  0  0  2  0  0  0  0  0  0
  -19.1590  -28.8420   23.3690 C   0  0  0  0  0  0  0  0  0  0  0  0
  -18.9440  -30.1040   23.9630 C   0  0  0  0  0  3  0  0  0  0  0  0
  -17.6400  -30.6080   24.1320 C   0  0  0  0  0  3  0  0  0  0  0  0
  -16.5340  -29.8450   23.7200 C   0  0  0  0  0  3  0  0  0  0  0  0
  -16.7340  -28.5840   23.1300 C   0  0  0  0  0  3  0  0  0  0  0  0
  -25.8840  -32.5040   23.8600 C   0  0  0  0  0  3  0  0  0  0  0  0
  -26.3990  -31.7360   25.1400 C   0  0  1  0  0  0  0  0  0  0  0  0
  -25.3040  -31.5030   26.2070 C   0  0  0  0  0  1  0  0  0  0  0  0
  -26.9810  -30.3580   24.7530 C   0  0  0  0  0  1  0  0  0  0  0  0
  -27.5500  -32.5330   25.8000 C   0  0  0  0  0  1  0  0  0  0  0  0
  -25.5710  -33.9030   24.1860 N   0  0  0  0  0  0  0  0  0  0  0  0
  -25.9030  -34.9550   23.4280 C   0  0  0  0  0  0  0  0  0  0  0  0
  -26.5740  -34.8510   22.3960 O   0  0  0  0  0  0  0  0  0  0  0  0
  -24.9750  -34.0570   24.9870 H   0  0  0  0  0  0  0  0  0  0  0  0
  -24.1740  -36.7470   23.0690 C   0  0  0  0  0  1  0  0  0  0  0  0
  -25.4140  -36.3440   23.8830 C   0  0  0  0  0  3  0  0  0  0  0  0
  -27.5460  -37.2320   24.7150 C   0  0  0  0  0  1  0  0  0  0  0  0
  -26.4470  -37.3960   23.7680 N   0  0  0  0  0  0  0  0  0  0  0  0
  -26.0400  -38.3170   23.9100 H   0  0  0  0  0  0  0  0  0  0  0  0
  1  6  1  0
  1 49  1  0
  2  1  2  0
  3  4  1  0
  5  7  1  0
  6  3  2  0
  7  4  2  0
  7 18  1  0
  8  6  1  0
  8  5  2  0
  9  8  1  0
 10 18  1  0
 11 16  1  0
 12 13  1  0
 12 11  1  0
 14 13  1  0
 14 23  1  0
 14 15  1  0
 16 10  1  0
 16 15  1  0
 17 10  2  0
 18 19  1  0
 20 21  2  0
 21 40  1  0
 22 21  1  0
 22 25  1  0
 23 20  1  0
 23 24  1  0
 24 22  2  0
 25 26  1  0
 26 27  2  0
 28 31  1  0
 28 27  1  0
 29 28  2  0
 30 29  1  0
 30 25  2  0
 31 32  1  0
 32 33  1  0
 33 34  2  0
 35 34  1  0
 35 39  1  0
 36 35  2  0
 37 32  2  0
 37 36  1  0
 38 37  1  0
 40 41  1  0
 41 44  1  0
 41 43  1  0
 42 40  2  0
 45 46  1  0
 45 20  1  0
 47 45  1  0
 48 49  2  0
 48 50  1  0
 51 50  1  0
 52 63  2  0
 53 51  1  0
 53 58  1  0
 54 62  1  0
 54 64  1  0
 55 61  1  0
 55 57  1  0
 56 62  1  0
 57 56  1  0
 58 57  2  0
 59 53  2  0
 60 59  1  0
 60 55  2  0
 61 54  1  0
 62 52  1  0
 64 66  2  0
 65 64  1  0
 67 65  1  0
 68 77  2  0
 68 73  1  0
 69 65  1  0
 69 73  1  0
 70 69  1  0
 71 72  1  0
 71 70  1  0
 72 68  1  0
 73 74  2  0
 74 75  1  0
 76 75  2  0
 77 76  1  0
 78 52  1  0
 78 83  1  0
 78 79  1  0
 79 82  1  1
 79 80  1  0
 81 79  1  0
 83 86  1  0
 84 88  1  0
 84 83  1  0
 85 84  2  0
 88 87  1  0
 90 88  1  0
 90 91  1  0
 90 89  1  0
M  ISO  4  10 100  18 100  50 101  51 101
M  END
>  <TORSDO>  (2) 
F 19

>  <SCORE>  (2) 
-14.371

>  <name>  (2) 
1

>  <ligand_id>  (2) 
1

>  <original_smiles>  (2) 
[H]C(=NC(=O)c1c([H])c([H])c(N([H])C(=O)N2C([H])([H])C([H])([H])C([H])([H])C([H])(n3nc(-c4c([H])c([H])c(Oc5c([H])c([H])c(F)c([H])c5F)c([H])c4[H])c(C(=O)N([H])[H])c3N([H])[H])C2([H])[H])c([H])c1F)C([H])([H])Oc1c([H])c([H])c2c(c1[H])C([H])([H])N(C(=O)C([H])(N([H])C(=O)C([H])(N([H])C([H])([H])[H])C([H])([H])[H])C(C([H])([H])[H])(C([H])([H])[H])C([H])([H])[H])C([H])(C(=O)N([H])C1([H])c3c([H])c([H])c([H])c([H])c3C([H])([H])C([H])([H])C1([H])[H])C2([H])[H]

>  <smiles>  (2) 
[H]C(=NC(=O)c1c([H])c([H])c(N([H])C(=O)N2C([H])([H])C([H])([H])C([H])([H])C([H])(n3nc(-c4c([H])c([H])c(Oc5c([H])c([H])c(F)c([H])c5F)c([H])c4[H])c(C(=O)N([H])[H])c3N([H])[H])C2([H])[H])c([H])c1F)C([H])([H])Oc1c([H])c([H])c2c(c1[H])C([H])([H])N(C(=O)C([H])(N([H])C(=O)C([H])(N([H])C([H])([H])[H])C([H])([H])[H])C(C([H])([H])[H])(C([H])([H])[H])C([H])([H])[H])C([H])(C(=O)N([H])C1([H])c3c([H])c([H])c([H])c([H])c3C([H])([H])C([H])([H])C1([H])[H])C2([H])[H]

$$$$
2:0:0
     RDKit          3D

 93101  0  0  1  0  0  0  0  0999 V2000
  -29.0280  -23.4500   19.8820 C   0  0  0  0  0  0  0  0  0  0  0  0
  -29.3930  -22.1800   19.5050 N   0  0  0  0  0  0  0  0  0  0  0  0
  -28.8240  -23.7660   21.0560 O   0  0  0  0  0  0  0  0  0  0  0  0
  -29.6240  -22.1390   18.5190 H   0  0  0  0  0  0  0  0  0  0  0  0
  -28.8000  -19.5620   22.1780 C   0  0  0  0  0  3  0  0  0  0  0  0
  -29.3550  -18.4060   21.5970 C   0  0  0  0  0  3  0  0  0  0  0  0
  -28.8340  -20.8000   21.5070 C   0  0  0  0  0  3  0  0  0  0  0  0
  -29.9800  -19.7190   19.6520 C   0  0  0  0  0  3  0  0  0  0  0  0
  -29.9720  -18.4480   20.3270 C   0  0  0  0  0  0  0  0  0  0  0  0
  -29.4240  -20.9160   20.2280 C   0  0  0  0  0  0  0  0  0  0  0  0
  -30.5770  -17.1860   19.7430 C   0  0  0  0  0  3  0  0  0  0  0  0
  -30.4990  -15.9000   20.2200 C   0  0  0  0  0  3  0  0  0  0  0  0
  -31.1920  -14.7520   19.5790 C   0  0  0  0  0  0  0  0  0  0  0  0
  -30.7890  -12.5700   18.4730 C   0  0  0  0  0  2  0  0  0  0  0  0
  -29.6910  -12.7790   17.4050 C   0  0  0  0  0  2  0  0  0  0  0  0
  -28.2860  -12.6220   18.0230 C   0  0  0  0  0  2  0  0  0  0  0  0
  -28.1230  -13.4190   19.3460 C   0  0  0  0  0  3  0  0  0  0  0  0
  -29.3210  -13.1820   20.2890 C   0  0  0  0  0  2  0  0  0  0  0  0
  -30.5460  -13.5430   19.5590 N   0  0  0  0  0  0  0  0  0  0  0  0
  -32.2650  -14.8950   18.9820 O   0  0  0  0  0  0  0  0  0  0  0  0
  -25.9050  -14.0020   20.5080 C   0  0  0  0  0  0  0  0  0  0  0  0
  -24.8670  -13.2240   20.9450 C   0  0  0  0  0  0  0  0  0  0  0  0
  -25.2440  -11.8740   20.6720 C   0  0  0  0  0  0  0  0  0  0  0  0
  -26.8510  -13.1250   20.0000 N   0  0  0  0  0  0  0  0  0  0  0  0
  -26.4670  -11.8320   20.1550 N   0  0  0  0  0  0  0  0  0  0  0  0
  -24.4890  -10.6230   20.8190 C   0  0  0  0  0  0  0  0  0  0  0  0
  -24.9350   -9.5860   21.6680 C   0  0  0  0  0  3  0  0  0  0  0  0
  -24.1830   -8.4000   21.8090 C   0  0  0  0  0  3  0  0  0  0  0  0
  -22.9690   -8.2430   21.0990 C   0  0  0  0  0  0  0  0  0  0  0  0
  -22.5390   -9.2690   20.2380 C   0  0  0  0  0  3  0  0  0  0  0  0
  -23.2930  -10.4460   20.0960 C   0  0  0  0  0  3  0  0  0  0  0  0
  -22.1840   -7.1160   21.1510 O   0  0  0  0  0  0  0  0  0  0  0  0
  -22.0580   -6.3800   22.3020 C   0  0  0  0  0  0  0  0  0  0  0  0
  -21.5840   -6.9510   23.5030 C   0  0  0  0  0  3  0  0  0  0  0  0
  -21.4040   -6.1420   24.6440 C   0  0  0  0  0  3  0  0  0  0  0  0
  -21.6890   -4.7650   24.5830 C   0  0  0  0  0  0  0  0  0  0  0  0
  -22.1550   -4.1930   23.3850 C   0  0  0  0  0  3  0  0  0  0  0  0
  -22.3370   -4.9990   22.2470 C   0  0  0  0  0  0  0  0  0  0  0  0
  -22.7650   -4.4400   21.0910 F   0  0  0  0  0  0  0  0  0  0  0  0
  -21.5090   -3.9870   25.6760 F   0  0  0  0  0  0  0  0  0  0  0  0
  -23.5580  -13.7070   21.4980 C   0  0  0  0  0  0  0  0  0  0  0  0
  -22.9580  -12.9470   22.4060 N   0  0  0  0  0  0  0  0  0  0  0  0
  -23.0830  -14.7910   21.1600 O   0  0  0  0  0  0  0  0  0  0  0  0
  -23.3590  -12.0690   22.6990 H   0  0  0  0  0  0  0  0  0  0  0  0
  -22.0830  -13.2470   22.8150 H   0  0  0  0  0  0  0  0  0  0  0  0
  -26.1170  -15.3780   20.4800 N   0  0  0  0  0  0  0  0  0  0  0  0
  -25.4200  -16.0410   20.8010 H   0  0  0  0  0  0  0  0  0  0  0  0
  -26.9450  -15.8240   20.1030 H   0  0  0  0  0  0  0  0  0  0  0  0
  -28.6710  -25.7390   18.7790 C   0  0  0  0  0  3  0  0  0  0  0  0
  -28.9380  -24.3910   18.7350 C   0  0  0  0  0  0  0  0  0  0  0  0
  -29.1230  -23.8620   17.5120 O   0  0  0  0  0  0  0  0  0  0  0  0
  -29.0200  -24.5610   16.8780 H   0  0  0  0  0  0  0  0  0  0  0  0
  -28.4550  -26.5940   19.8530 O   0  0  0  0  0  0  0  0  0  0  0  0
  -24.8050  -31.8470   23.1330 C   0  0  0  0  0  0  0  0  0  0  0  0
  -27.3430  -27.4370   19.8400 C   0  0  0  0  0  0  0  0  0  0  0  0
  -23.5560  -30.5010   21.4800 C   0  0  0  0  0  3  0  0  0  0  0  0
  -24.9680  -29.0070   19.9620 C   0  0  0  0  0  0  0  0  0  0  0  0
  -26.0850  -30.8410   21.2350 C   0  0  0  0  0  2  0  0  0  0  0  0
  -26.1500  -29.4880   20.5400 C   0  0  0  0  0  0  0  0  0  0  0  0
  -27.3400  -28.7110   20.4780 C   0  0  0  0  0  3  0  0  0  0  0  0
  -26.1360  -26.9890   19.2580 C   0  0  0  0  0  3  0  0  0  0  0  0
  -24.9600  -27.7590   19.3160 C   0  0  0  0  0  3  0  0  0  0  0  0
  -23.7300  -29.8710   20.0720 C   0  0  0  0  0  2  0  0  0  0  0  0
  -24.8360  -31.0770   22.0060 N   0  0  0  0  0  0  0  0  0  0  0  0
  -23.7370  -32.1040   23.7070 O   0  0  0  0  0  0  0  0  0  0  0  0
  -22.9220  -29.4520   22.4240 C   0  0  0  0  0  0  0  0  0  0  0  0
  -21.6020  -29.2400   22.2910 N   0  0  0  0  0  0  0  0  0  0  0  0
  -23.6170  -28.8320   23.2340 O   0  0  0  0  0  0  0  0  0  0  0  0
  -21.1030  -29.7940   21.6090 H   0  0  0  0  0  0  0  0  0  0  0  0
  -18.2700  -27.9000   22.7130 C   0  0  0  0  0  0  0  0  0  0  0  0
  -20.8070  -28.2720   23.0460 C   0  0  0  0  0  3  0  0  0  0  0  0
  -20.9870  -26.8440   22.4810 C   0  0  0  0  0  2  0  0  0  0  0  0
  -19.9260  -26.4680   21.4410 C   0  0  0  0  0  2  0  0  0  0  0  0
  -18.5230  -26.5570   22.0490 C   0  0  0  0  0  2  0  0  0  0  0  0
  -19.3430  -28.7120   23.1670 C   0  0  0  0  0  0  0  0  0  0  0  0
  -19.0550  -29.9670   23.7460 C   0  0  0  0  0  3  0  0  0  0  0  0
  -17.7260  -30.4130   23.8730 C   0  0  0  0  0  3  0  0  0  0  0  0
  -16.6670  -29.5990   23.4350 C   0  0  0  0  0  3  0  0  0  0  0  0
  -16.9400  -28.3440   22.8620 C   0  0  0  0  0  3  0  0  0  0  0  0
  -26.1070  -32.4570   23.7400 C   0  0  0  0  0  3  0  0  0  0  0  0
  -26.7030  -31.5990   24.9230 C   0  0  1  0  0  0  0  0  0  0  0  0
  -25.6690  -31.2460   26.0170 C   0  0  0  0  0  1  0  0  0  0  0  0
  -27.2970  -30.2730   24.3920 C   0  0  0  0  0  1  0  0  0  0  0  0
  -27.8670  -32.3680   25.5930 C   0  0  0  0  0  1  0  0  0  0  0  0
  -25.7870  -33.8170   24.1970 N   0  0  0  0  0  0  0  0  0  0  0  0
  -26.0620  -34.9340   23.5110 C   0  0  0  0  0  0  0  0  0  0  0  0
  -26.6830  -34.9300   22.4450 O   0  0  0  0  0  0  0  0  0  0  0  0
  -25.2300  -33.8940   25.0350 H   0  0  0  0  0  0  0  0  0  0  0  0
  -24.2890  -36.7130   23.3780 C   0  0  0  0  0  1  0  0  0  0  0  0
  -25.5700  -36.2700   24.1020 C   0  0  0  0  0  3  0  0  0  0  0  0
  -27.7230  -37.1260   24.9180 C   0  0  0  0  0  1  0  0  0  0  0  0
  -26.5780  -37.3510   24.0380 N   0  0  0  0  0  0  0  0  0  0  0  0
  -26.1630  -38.2440   24.2850 H   0  0  0  0  0  0  0  0  0  0  0  0
  1  3  2  0
  2  1  1  0
  2 10  1  0
  4  2  1  0
  6  5  1  0
  7  5  2  0
  8 10  2  0
  8  9  1  0
  9  6  2  0
 10  7  1  0
 11 12  2  0
 11  9  1  0
 13 12  1  0
 14 19  1  0
 15 16  1  0
 15 14  1  0
 17 16  1  0
 17 24  1  0
 17 18  1  0
 19 13  1  0
 19 18  1  0
 20 13  2  0
 21 22  2  0
 22 41  1  0
 23 26  1  0
 23 22  1  0
 24 25  1  0
 24 21  1  0
 25 23  2  0
 26 27  1  0
 27 28  2  0
 29 32  1  0
 29 28  1  0
 30 29  2  0
 31 30  1  0
 31 26  2  0
 32 33  1  0
 33 34  1  0
 34 35  2  0
 36 35  1  0
 36 40  1  0
 37 36  2  0
 38 33  2  0
 38 37  1  0
 39 38  1  0
 41 42  1  0
 42 44  1  0
 42 45  1  0
 43 41  2  0
 46 21  1  0
 46 47  1  0
 48 46  1  0
 49 53  1  0
 50 49  2  0
 50  1  1  0
 51 50  1  0
 52 51  1  0
 54 65  2  0
 55 53  1  0
 55 60  1  0
 56 64  1  0
 56 66  1  0
 57 63  1  0
 57 59  1  0
 58 64  1  0
 59 58  1  0
 60 59  2  0
 61 62  1  0
 61 55  2  0
 62 57  2  0
 63 56  1  0
 64 54  1  0
 66 68  2  0
 67 66  1  0
 69 67  1  0
 70 79  2  0
 70 75  1  0
 71 67  1  0
 71 75  1  0
 72 71  1  0
 73 74  1  0
 73 72  1  0
 74 70  1  0
 75 76  2  0
 76 77  1  0
 78 77  2  0
 79 78  1  0
 80 54  1  0
 80 85  1  0
 80 81  1  0
 81 84  1  1
 81 82  1  0
 83 81  1  0
 85 88  1  0
 86 90  1  0
 86 85  1  0
 87 86  2  0
 90 89  1  0
 92 90  1  0
 92 93  1  0
 92 91  1  0
M  ISO  4  12 100  13 100  49 101  53 101
M  END
>  <TORSDO>  (3) 
F 20

>  <SCORE>  (3) 
-9.021

>  <name>  (3) 
2

>  <ligand_id>  (3) 
2

>  <original_smiles>  (3) 
[H]OC(C(=O)N([H])c1c([H])c([H])c([H])c(C([H])=C([H])C(=O)N2C([H])([H])C([H])([H])C([H])([H])C([H])(n3nc(-c4c([H])c([H])c(Oc5c([H])c([H])c(F)c([H])c5F)c([H])c4[H])c(C(=O)N([H])[H])c3N([H])[H])C2([H])[H])c1[H])=C([H])Oc1c([H])c([H])c2c(c1[H])C([H])([H])N(C(=O)C([H])(N([H])C(=O)C([H])(N([H])C([H])([H])[H])C([H])([H])[H])C(C([H])([H])[H])(C([H])([H])[H])C([H])([H])[H])C([H])(C(=O)N([H])C1([H])c3c([H])c([H])c([H])c([H])c3C([H])([H])C([H])([H])C1([H])[H])C2([H])[H]

>  <smiles>  (3) 
[H]OC(C(=O)N([H])c1c([H])c([H])c([H])c(C([H])=C([H])C(=O)N2C([H])([H])C([H])([H])C([H])([H])C([H])(n3nc(-c4c([H])c([H])c(Oc5c([H])c([H])c(F)c([H])c5F)c([H])c4[H])c(C(=O)N([H])[H])c3N([H])[H])C2([H])[H])c1[H])=C([H])Oc1c([H])c([H])c2c(c1[H])C([H])([H])N(C(=O)C([H])(N([H])C(=O)C([H])(N([H])C([H])([H])[H])C([H])([H])[H])C(C([H])([H])[H])(C([H])([H])[H])C([H])([H])[H])C([H])(C(=O)N([H])C1([H])c3c([H])c([H])c([H])c([H])c3C([H])([H])C([H])([H])C1([H])[H])C2([H])[H]

$$$$
3:0:0
     RDKit          3D

 83 87  0  0  1  0  0  0  0  0999 V2000
  -28.2240  -23.1690   19.8730 C   0  0  0  0  0 15  0  0  0  0  0  0
  -28.7690  -21.3020   20.5180 C   0  0  0  0  0  2  0  0  0  0  0  0
  -28.6780  -21.3380   21.7480 O   0  0  0  0  0  0  0  0  0  0  0  0
  -29.4060  -17.8900   20.4440 C   0  0  0  0  0  2  0  0  0  0  0  0
  -29.3650  -19.4740   20.0060 C   0  0  0  0  0  2  0  0  0  0  0  0
  -30.1340  -19.7300   18.7230 C   0  0  0  0  0  1  0  0  0  0  0  0
  -30.1210  -16.1980   20.1670 C   0  0  0  0  0  0  0  0  0  0  0  0
  -30.3470  -13.5060   19.4620 C   0  0  0  0  0  2  0  0  0  0  0  0
  -29.5270  -12.8980   18.2680 C   0  0  0  0  0  2  0  0  0  0  0  0
  -28.1340  -12.4450   18.7160 C   0  0  0  0  0  2  0  0  0  0  0  0
  -27.5470  -13.4760   19.6990 C   0  0  0  0  0  3  0  0  0  0  0  0
  -28.5250  -13.9850   20.8010 C   0  0  0  0  0  2  0  0  0  0  0  0
  -29.6560  -14.7380   20.1590 N   0  0  0  0  0  0  0  0  0  0  0  0
  -31.3420  -16.0120   19.9260 O   0  0  0  0  0  0  0  0  0  0  0  0
  -25.1800  -13.9570   20.4400 C   0  0  0  0  0  0  0  0  0  0  0  0
  -24.1250  -13.1690   20.8000 C   0  0  0  0  0  0  0  0  0  0  0  0
  -24.6080  -11.8240   20.7870 C   0  0  0  0  0  0  0  0  0  0  0  0
  -26.2370  -13.1000   20.2170 N   0  0  0  0  0  0  0  0  0  0  0  0
  -25.9080  -11.8050   20.4880 N   0  0  0  0  0  0  0  0  0  0  0  0
  -23.8830  -10.5580   20.9810 C   0  0  0  0  0  0  0  0  0  0  0  0
  -24.3050   -9.5970   21.9260 C   0  0  0  0  0  3  0  0  0  0  0  0
  -23.5720   -8.4040   22.1120 C   0  0  0  0  0  3  0  0  0  0  0  0
  -22.4030   -8.1610   21.3530 C   0  0  0  0  0  0  0  0  0  0  0  0
  -21.9980   -9.1110   20.3990 C   0  0  0  0  0  3  0  0  0  0  0  0
  -22.7310  -10.2960   20.2110 C   0  0  0  0  0  3  0  0  0  0  0  0
  -21.6420   -7.0200   21.4480 O   0  0  0  0  0  0  0  0  0  0  0  0
  -21.5930   -6.2810   22.6030 C   0  0  0  0  0  0  0  0  0  0  0  0
  -21.1700   -6.8430   23.8270 C   0  0  0  0  0  3  0  0  0  0  0  0
  -21.0650   -6.0320   24.9750 C   0  0  0  0  0  3  0  0  0  0  0  0
  -21.3710   -4.6600   24.9000 C   0  0  0  0  0  0  0  0  0  0  0  0
  -21.7850   -4.0980   23.6790 C   0  0  0  0  0  3  0  0  0  0  0  0
  -21.8910   -4.9060   22.5340 C   0  0  0  0  0  0  0  0  0  0  0  0
  -22.2700   -4.3530   21.3560 F   0  0  0  0  0  0  0  0  0  0  0  0
  -21.2630   -3.8790   26.0000 F   0  0  0  0  0  0  0  0  0  0  0  0
  -22.7200  -13.6400   21.0390 C   0  0  0  0  0  0  0  0  0  0  0  0
  -21.9840  -12.9570   21.9070 N   0  0  0  0  0  0  0  0  0  0  0  0
  -22.2890  -14.6530   20.4910 O   0  0  0  0  0  0  0  0  0  0  0  0
  -22.3480  -12.1400   22.3750 H   0  0  0  0  0  0  0  0  0  0  0  0
  -21.0400  -13.2570   22.1070 H   0  0  0  0  0  0  0  0  0  0  0  0
  -25.3290  -15.3270   20.2510 N   0  0  0  0  0  0  0  0  0  0  0  0
  -24.5560  -15.9750   20.3520 H   0  0  0  0  0  0  0  0  0  0  0  0
  -26.1780  -15.7740   19.9300 H   0  0  0  0  0  0  0  0  0  0  0  0
  -28.1220  -25.0470   20.3370 O   0  0  0  0  0  1  0  0  0  0  0  0
  -24.6590  -31.8040   23.1000 C   0  0  0  0  0  0  0  0  0  0  0  0
  -27.2020  -26.4170   20.2060 C   0  0  0  0  0  0  0  0  0  0  0  0
  -23.4880  -30.3630   21.4950 C   0  0  0  0  0  3  0  0  0  0  0  0
  -24.9480  -28.6410   20.1160 C   0  0  0  0  0  0  0  0  0  0  0  0
  -26.0800  -30.4250   21.4040 C   0  0  0  0  0  2  0  0  0  0  0  0
  -26.1460  -28.9500   20.7680 C   0  0  0  0  0  0  0  0  0  0  0  0
  -27.2350  -27.8740   20.7770 C   0  0  0  0  0  3  0  0  0  0  0  0
  -25.9680  -26.4100   19.4760 C   0  0  0  0  0  3  0  0  0  0  0  0
  -24.9190  -27.4030   19.4430 C   0  0  0  0  0  3  0  0  0  0  0  0
  -23.7450  -29.6200   20.1440 C   0  0  0  0  0  2  0  0  0  0  0  0
  -24.7700  -30.9080   22.0490 N   0  0  0  0  0  0  0  0  0  0  0  0
  -23.5590  -32.1170   23.5930 O   0  0  0  0  0  0  0  0  0  0  0  0
  -22.7530  -29.4250   22.4930 C   0  0  0  0  0  0  0  0  0  0  0  0
  -21.4160  -29.2870   22.3890 N   0  0  0  0  0  0  0  0  0  0  0  0
  -23.4040  -28.8130   23.3430 O   0  0  0  0  0  0  0  0  0  0  0  0
  -20.9360  -29.8290   21.6840 H   0  0  0  0  0  0  0  0  0  0  0  0
  -18.0280  -28.0800   22.9650 C   0  0  0  0  0  0  0  0  0  0  0  0
  -20.5930  -28.3630   23.1840 C   0  0  0  0  0  3  0  0  0  0  0  0
  -20.6880  -26.9220   22.6300 C   0  0  0  0  0  2  0  0  0  0  0  0
  -19.5740  -26.5850   21.6320 C   0  0  0  0  0  2  0  0  0  0  0  0
  -18.2010  -26.7280   22.2930 C   0  0  0  0  0  2  0  0  0  0  0  0
  -19.1490  -28.8550   23.3680 C   0  0  0  0  0  0  0  0  0  0  0  0
  -18.9270  -30.1150   23.9650 C   0  0  0  0  0  3  0  0  0  0  0  0
  -17.6210  -30.6010   24.1590 C   0  0  0  0  0  3  0  0  0  0  0  0
  -16.5160  -29.8270   23.7650 C   0  0  0  0  0  3  0  0  0  0  0  0
  -16.7210  -28.5660   23.1760 C   0  0  0  0  0  3  0  0  0  0  0  0
  -25.9050  -32.4920   23.7380 C   0  0  0  0  0  3  0  0  0  0  0  0
  -25.5540  -33.8920   24.0700 N   0  0  0  0  0  0  0  0  0  0  0  0
  -25.8670  -34.9690   23.3370 C   0  0  0  0  0  0  0  0  0  0  0  0
  -26.5290  -34.8900   22.3000 O   0  0  0  0  0  0  0  0  0  0  0  0
  -24.9600  -34.0240   24.8760 H   0  0  0  0  0  0  0  0  0  0  0  0
  -24.1100  -36.7590   23.0510 C   0  0  0  0  0  1  0  0  0  0  0  0
  -25.3750  -36.3520   23.8250 C   0  0  0  0  0  3  0  0  0  0  0  0
  -27.5100  -37.2730   24.6220 C   0  0  0  0  0  1  0  0  0  0  0  0
  -26.3930  -37.4200   23.6940 N   0  0  0  0  0  0  0  0  0  0  0  0
  -25.9770  -38.3370   23.8350 H   0  0  0  0  0  0  0  0  0  0  0  0
  -26.4130  -31.7600   25.0430 C   0  0  1  0  0  0  0  0  0  0  0  0
  -25.3090  -31.5370   26.1050 C   0  0  0  0  0  1  0  0  0  0  0  0
  -27.0180  -30.3790   24.7100 C   0  0  0  0  0  1  0  0  0  0  0  0
  -27.5470  -32.5830   25.7000 C   0  0  0  0  0  1  0  0  0  0  0  0
  2  3  2  0
  5  4  1  0
  6  5  1  0
  7  4  1  0
  8 13  1  0
  9 10  1  0
  9  8  1  0
 11 10  1  0
 11 18  1  0
 11 12  1  0
 13  7  1  0
 13 12  1  0
 14  7  2  0
 15 16  2  0
 16 35  1  0
 17 16  1  0
 17 20  1  0
 18 15  1  0
 18 19  1  0
 19 17  2  0
 20 21  1  0
 21 22  2  0
 23 26  1  0
 23 22  1  0
 24 23  2  0
 25 24  1  0
 25 20  2  0
 26 27  1  0
 27 28  1  0
 28 29  2  0
 30 29  1  0
 30 34  1  0
 31 30  2  0
 32 27  2  0
 32 31  1  0
 33 32  1  0
 35 36  1  0
 36 39  1  0
 36 38  1  0
 37 35  2  0
 40 41  1  0
 40 15  1  0
 42 40  1  0
 44 55  2  0
 45 43  1  0
 45 50  1  0
 46 54  1  0
 46 56  1  0
 47 53  1  0
 47 49  1  0
 48 54  1  0
 49 50  2  0
 49 48  1  0
 51 45  2  0
 52 51  1  0
 52 47  2  0
 53 46  1  0
 54 44  1  0
 56 58  2  0
 57 56  1  0
 59 57  1  0
 60 69  2  0
 60 65  1  0
 61 57  1  0
 61 65  1  0
 62 61  1  0
 63 64  1  0
 63 62  1  0
 64 60  1  0
 65 66  2  0
 66 67  1  0
 68 67  2  0
 69 68  1  0
 70 44  1  0
 70 71  1  0
 70 80  1  0
 71 74  1  0
 72 76  1  0
 72 71  1  0
 73 72  2  0
 76 75  1  0
 78 76  1  0
 78 79  1  0
 78 77  1  0
 80 83  1  1
 80 81  1  0
 82 80  1  0
M  ISO  4   1 101   4 100   7 100  43 101
M  END
>  <TORSDO>  (4) 
F 18

>  <SCORE>  (4) 
-16.512

>  <name>  (4) 
3

>  <ligand_id>  (4) 
3

>  <original_smiles>  (4) 
[H]C(C(=O)N1C([H])([H])C([H])([H])C([H])([H])C([H])(n2nc(-c3c([H])c([H])c(Oc4c([H])c([H])c(F)c([H])c4F)c([H])c3[H])c(C(=O)N([H])[H])c2N([H])[H])C1([H])[H])=C(C(=O)C([H])([H])Oc1c([H])c([H])c2c(c1[H])C([H])([H])N(C(=O)C([H])(N([H])C(=O)C([H])(N([H])C([H])([H])[H])C([H])([H])[H])C(C([H])([H])[H])(C([H])([H])[H])C([H])([H])[H])C([H])(C(=O)N([H])C1([H])c3c([H])c([H])c([H])c([H])c3C([H])([H])C([H])([H])C1([H])[H])C2([H])[H])C([H])([H])[H]

>  <smiles>  (4) 
[H]C(C(=O)N1C([H])([H])C([H])([H])C([H])([H])C([H])(n2nc(-c3c([H])c([H])c(Oc4c([H])c([H])c(F)c([H])c4F)c([H])c3[H])c(C(=O)N([H])[H])c2N([H])[H])C1([H])[H])=C(C(=O)C([H])([H])Oc1c([H])c([H])c2c(c1[H])C([H])([H])N(C(=O)C([H])(N([H])C(=O)C([H])(N([H])C([H])([H])[H])C([H])([H])[H])C(C([H])([H])[H])(C([H])([H])[H])C([H])([H])[H])C([H])(C(=O)N([H])C1([H])c3c([H])c([H])c([H])c([H])c3C([H])([H])C([H])([H])C1([H])[H])C2([H])[H])C([H])([H])[H]

$$$$
4:0:0
     RDKit          3D

 94103  0  0  1  0  0  0  0  0999 V2000
  -30.4270  -23.4220   20.1640 C   0  0  0  0  0  3  0  0  0  0  0  0
  -28.5480  -22.2960   20.4020 C   0  0  0  0  0  3  0  0  0  0  0  0
  -29.0020  -23.6100   20.3030 C   0  0  0  0  0  0  0  0  0  0  0  0
  -30.7070  -22.0640   20.1420 C   0  0  0  0  0  0  0  0  0  0  0  0
  -29.5400  -21.3090   20.2290 N   0  0  0  0  0  0  0  0  0  0  0  0
  -27.8020  -18.2920   18.8330 C   0  0  0  0  0  3  0  0  0  0  0  0
  -28.4750  -17.1880   19.3820 C   0  0  0  0  0  3  0  0  0  0  0  0
  -28.1970  -19.6040   19.1610 C   0  0  0  0  0  3  0  0  0  0  0  0
  -29.9760  -18.7040   20.5640 C   0  0  0  0  0  3  0  0  0  0  0  0
  -29.5820  -17.3230   20.2650 C   0  0  0  0  0  0  0  0  0  0  0  0
  -29.2840  -19.8670   20.0210 C   0  0  0  0  0  0  0  0  0  0  0  0
  -30.1340  -16.0320   20.9560 C   0  0  0  0  0  0  0  0  0  0  0  0
  -30.2080  -16.0170   22.2240 N   0  0  0  0  0  0  0  0  0  0  0  0
  -29.8680  -16.8850   22.6190 H   0  0  0  0  0  0  0  0  0  0  0  0
  -30.6990  -14.7670   20.1530 C   0  0  0  0  0  0  0  0  0  0  0  0
  -30.4190  -12.5120   19.1100 C   0  0  0  0  0  2  0  0  0  0  0  0
  -29.4170  -12.5510   17.9350 C   0  0  0  0  0  2  0  0  0  0  0  0
  -27.9730  -12.3670   18.4360 C   0  0  0  0  0  2  0  0  0  0  0  0
  -27.6510  -13.2830   19.6380 C   0  0  0  0  0  3  0  0  0  0  0  0
  -28.7510  -13.2010   20.7240 C   0  0  0  0  0  2  0  0  0  0  0  0
  -30.0320  -13.5560   20.0980 N   0  0  0  0  0  0  0  0  0  0  0  0
  -31.7970  -14.8750   19.6010 O   0  0  0  0  0  0  0  0  0  0  0  0
  -25.2960  -13.9290   20.4460 C   0  0  0  0  0  0  0  0  0  0  0  0
  -24.2290  -13.1690   20.8430 C   0  0  0  0  0  0  0  0  0  0  0  0
  -24.6710  -11.8120   20.7940 C   0  0  0  0  0  0  0  0  0  0  0  0
  -26.3150  -13.0290   20.1680 N   0  0  0  0  0  0  0  0  0  0  0  0
  -25.9480  -11.7550   20.4410 N   0  0  0  0  0  0  0  0  0  0  0  0
  -23.9340  -10.5570   20.9930 C   0  0  0  0  0  0  0  0  0  0  0  0
  -24.3780   -9.5800   21.9080 C   0  0  0  0  0  3  0  0  0  0  0  0
  -23.6390   -8.3930   22.0980 C   0  0  0  0  0  3  0  0  0  0  0  0
  -22.4430   -8.1780   21.3720 C   0  0  0  0  0  0  0  0  0  0  0  0
  -22.0180   -9.1460   20.4480 C   0  0  0  0  0  3  0  0  0  0  0  0
  -22.7560  -10.3250   20.2540 C   0  0  0  0  0  3  0  0  0  0  0  0
  -21.6710   -7.0470   21.4780 O   0  0  0  0  0  0  0  0  0  0  0  0
  -21.6390   -6.3030   22.6310 C   0  0  0  0  0  0  0  0  0  0  0  0
  -21.2640   -6.8660   23.8710 C   0  0  0  0  0  3  0  0  0  0  0  0
  -21.1790   -6.0480   25.0170 C   0  0  0  0  0  3  0  0  0  0  0  0
  -21.4550   -4.6710   24.9210 C   0  0  0  0  0  0  0  0  0  0  0  0
  -21.8220   -4.1100   23.6860 C   0  0  0  0  0  3  0  0  0  0  0  0
  -21.9120   -4.9250   22.5450 C   0  0  0  0  0  0  0  0  0  0  0  0
  -22.2470   -4.3730   21.3520 F   0  0  0  0  0  0  0  0  0  0  0  0
  -21.3650   -3.8840   26.0200 F   0  0  0  0  0  0  0  0  0  0  0  0
  -22.8460  -13.6680   21.1490 C   0  0  0  0  0  0  0  0  0  0  0  0
  -22.1340  -12.9900   22.0400 N   0  0  0  0  0  0  0  0  0  0  0  0
  -22.4110  -14.6970   20.6310 O   0  0  0  0  0  0  0  0  0  0  0  0
  -22.5050  -12.1590   22.4760 H   0  0  0  0  0  0  0  0  0  0  0  0
  -21.2060  -13.3060   22.2850 H   0  0  0  0  0  0  0  0  0  0  0  0
  -25.4480  -15.3000   20.2630 N   0  0  0  0  0  0  0  0  0  0  0  0
  -24.6650  -15.9190   20.4460 H   0  0  0  0  0  0  0  0  0  0  0  0
  -26.2150  -15.7730   19.7980 H   0  0  0  0  0  0  0  0  0  0  0  0
  -31.9080  -21.4350   19.9970 O   0  0  0  0  0  0  0  0  0  0  0  0
  -32.5880  -22.0990   19.9650 H   0  0  0  0  0  0  0  0  0  0  0  0
  -28.0020  -24.8630   20.3130 C   0  0  0  0  0  2  0  0  0  0  0  0
  -28.3260  -26.3310   20.1930 O   0  0  0  0  0  0  0  0  0  0  0  0
  -24.6130  -31.8590   23.1970 C   0  0  0  0  0  0  0  0  0  0  0  0
  -27.2200  -27.2320   20.1500 C   0  0  0  0  0  0  0  0  0  0  0  0
  -23.4100  -30.4590   21.5660 C   0  0  0  0  0  3  0  0  0  0  0  0
  -24.8560  -28.8910   20.1500 C   0  0  0  0  0  0  0  0  0  0  0  0
  -25.9600  -30.7480   21.3860 C   0  0  0  0  0  2  0  0  0  0  0  0
  -26.0360  -29.3660   20.7360 C   0  0  0  0  0  0  0  0  0  0  0  0
  -27.2210  -28.5550   20.7190 C   0  0  0  0  0  3  0  0  0  0  0  0
  -26.0030  -26.8230   19.5530 C   0  0  0  0  0  3  0  0  0  0  0  0
  -24.8470  -27.6250   19.5550 C   0  0  0  0  0  3  0  0  0  0  0  0
  -23.6130  -29.7670   20.1970 C   0  0  0  0  0  2  0  0  0  0  0  0
  -24.6830  -31.0450   22.1030 N   0  0  0  0  0  0  0  0  0  0  0  0
  -23.5300  -32.1370   23.7320 O   0  0  0  0  0  0  0  0  0  0  0  0
  -22.7440  -29.4500   22.5350 C   0  0  0  0  0  0  0  0  0  0  0  0
  -21.4150  -29.2800   22.4190 N   0  0  0  0  0  0  0  0  0  0  0  0
  -23.4220  -28.8190   23.3530 O   0  0  0  0  0  0  0  0  0  0  0  0
  -20.9230  -29.8340   21.7290 H   0  0  0  0  0  0  0  0  0  0  0  0
  -18.0410  -28.0920   22.9470 C   0  0  0  0  0  0  0  0  0  0  0  0
  -20.6000  -28.3450   23.1980 C   0  0  0  0  0  3  0  0  0  0  0  0
  -20.6920  -26.9090   22.6230 C   0  0  0  0  0  2  0  0  0  0  0  0
  -19.5800  -26.5900   21.6210 C   0  0  0  0  0  2  0  0  0  0  0  0
  -18.2050  -26.7430   22.2730 C   0  0  0  0  0  2  0  0  0  0  0  0
  -19.1640  -28.8540   23.3700 C   0  0  0  0  0  0  0  0  0  0  0  0
  -18.9480  -30.1180   23.9580 C   0  0  0  0  0  3  0  0  0  0  0  0
  -17.6440  -30.6160   24.1430 C   0  0  0  0  0  3  0  0  0  0  0  0
  -16.5370  -29.8520   23.7340 C   0  0  0  0  0  3  0  0  0  0  0  0
  -16.7380  -28.5950   23.1350 C   0  0  0  0  0  3  0  0  0  0  0  0
  -25.8920  -32.4960   23.8200 C   0  0  0  0  0  3  0  0  0  0  0  0
  -26.4040  -31.7360   25.1020 C   0  0  1  0  0  0  0  0  0  0  0  0
  -25.3080  -31.4960   26.1740 C   0  0  0  0  0  1  0  0  0  0  0  0
  -26.9930  -30.3600   24.7170 C   0  0  0  0  0  1  0  0  0  0  0  0
  -27.5470  -32.5480   25.7570 C   0  0  0  0  0  1  0  0  0  0  0  0
  -25.5720  -33.8910   24.1470 N   0  0  0  0  0  0  0  0  0  0  0  0
  -25.9110  -34.9500   23.4050 C   0  0  0  0  0  0  0  0  0  0  0  0
  -26.5860  -34.8580   22.3740 O   0  0  0  0  0  0  0  0  0  0  0  0
  -24.9700  -34.0420   24.9440 H   0  0  0  0  0  0  0  0  0  0  0  0
  -24.1790  -36.7480   23.0720 C   0  0  0  0  0  1  0  0  0  0  0  0
  -25.4200  -36.3340   23.8750 C   0  0  0  0  0  3  0  0  0  0  0  0
  -27.5530  -37.2200   24.7090 C   0  0  0  0  0  1  0  0  0  0  0  0
  -26.4490  -37.3920   23.7710 N   0  0  0  0  0  0  0  0  0  0  0  0
  -26.0370  -38.3090   23.9340 H   0  0  0  0  0  0  0  0  0  0  0  0
  1  3  1  0
  3 53  1  0
  3  2  2  0
  4  1  2  0
  4  5  1  0
  5  2  1  0
  6  8  2  0
  6  7  1  0
  7 10  2  0
  8 11  1  0
 10  9  1  0
 10 12  1  0
 11  5  1  0
 11  9  2  0
 12 13  2  0
 13 14  1  0
 15 12  1  0
 16 21  1  0
 17 18  1  0
 17 16  1  0
 19 18  1  0
 19 26  1  0
 19 20  1  0
 21 15  1  0
 21 20  1  0
 22 15  2  0
 23 24  2  0
 24 43  1  0
 25 24  1  0
 25 28  1  0
 26 27  1  0
 26 23  1  0
 27 25  2  0
 28 29  1  0
 29 30  2  0
 31 34  1  0
 31 30  1  0
 32 31  2  0
 33 32  1  0
 33 28  2  0
 34 35  1  0
 35 36  1  0
 36 37  2  0
 38 37  1  0
 38 42  1  0
 39 38  2  0
 40 35  2  0
 40 39  1  0
 41 40  1  0
 43 44  1  0
 44 47  1  0
 44 46  1  0
 45 43  2  0
 48 23  1  0
 48 49  1  0
 50 48  1  0
 51  4  1  0
 52 51  1  0
 54 53  1  0
 55 66  2  0
 56 54  1  0
 56 61  1  0
 57 65  1  0
 57 67  1  0
 58 64  1  0
 58 60  1  0
 59 65  1  0
 60 59  1  0
 61 60  2  0
 62 63  1  0
 62 56  2  0
 63 58  2  0
 64 57  1  0
 65 55  1  0
 67 69  2  0
 68 67  1  0
 70 68  1  0
 71 80  2  0
 71 76  1  0
 72 68  1  0
 72 76  1  0
 73 72  1  0
 74 75  1  0
 74 73  1  0
 75 71  1  0
 76 77  2  0
 77 78  1  0
 79 78  2  0
 80 79  1  0
 81 55  1  0
 81 86  1  0
 81 82  1  0
 82 85  1  1
 82 83  1  0
 84 82  1  0
 86 89  1  0
 87 91  1  0
 87 86  1  0
 88 87  2  0
 91 90  1  0
 93 91  1  0
 93 94  1  0
 93 92  1  0
M  ISO  4  12 100  15 100  53 101  54 101
M  END
>  <TORSDO>  (5) 
F 20

>  <SCORE>  (5) 
-14.513

>  <name>  (5) 
4

>  <ligand_id>  (5) 
4

>  <original_smiles>  (5) 
[H]N=C(C(=O)N1C([H])([H])C([H])([H])C([H])([H])C([H])(n2nc(-c3c([H])c([H])c(Oc4c([H])c([H])c(F)c([H])c4F)c([H])c3[H])c(C(=O)N([H])[H])c2N([H])[H])C1([H])[H])c1c([H])c([H])c([H])c(-n2c([H])c(C([H])([H])Oc3c([H])c([H])c4c(c3[H])C([H])([H])N(C(=O)C([H])(N([H])C(=O)C([H])(N([H])C([H])([H])[H])C([H])([H])[H])C(C([H])([H])[H])(C([H])([H])[H])C([H])([H])[H])C([H])(C(=O)N([H])C3([H])c5c([H])c([H])c([H])c([H])c5C([H])([H])C([H])([H])C3([H])[H])C4([H])[H])c([H])c2O[H])c1[H]

>  <smiles>  (5) 
[H]N=C(C(=O)N1C([H])([H])C([H])([H])C([H])([H])C([H])(n2nc(-c3c([H])c([H])c(Oc4c([H])c([H])c(F)c([H])c4F)c([H])c3[H])c(C(=O)N([H])[H])c2N([H])[H])C1([H])[H])c1c([H])c([H])c([H])c(-n2c([H])c(C([H])([H])Oc3c([H])c([H])c4c(c3[H])C([H])([H])N(C(=O)C([H])(N([H])C(=O)C([H])(N([H])C([H])([H])[H])C([H])([H])[H])C(C([H])([H])[H])(C([H])([H])[H])C([H])([H])[H])C([H])(C(=O)N([H])C3([H])c5c([H])c([H])c([H])c([H])c5C([H])([H])C([H])([H])C3([H])[H])C4([H])[H])c([H])c2O[H])c1[H]

$$$$
5:0:0
     RDKit          3D

 95103  0  0  1  0  0  0  0  0999 V2000
  -30.3290  -15.5260   20.2980 C   0  0  0  0  0  0  0  0  0  0  0  0
  -30.4020  -13.0080   19.5170 C   0  0  0  0  0  2  0  0  0  0  0  0
  -29.5110  -12.6350   18.3010 C   0  0  0  0  0  2  0  0  0  0  0  0
  -28.0730  -12.3220   18.7490 C   0  0  0  0  0  2  0  0  0  0  0  0
  -27.5660  -13.3410   19.7960 C   0  0  0  0  0  3  0  0  0  0  0  0
  -28.5920  -13.6320   20.9140 C   0  0  0  0  0  2  0  0  0  0  0  0
  -29.7900  -14.1880   20.2550 N   0  0  0  0  0  0  0  0  0  0  0  0
  -31.5650  -15.5090   20.1620 O   0  0  0  0  0  0  0  0  0  0  0  0
  -29.7480  -18.5000   20.3020 C   0  0  0  0  0  3  0  0  0  0  0  0
  -29.1450  -21.4530   20.1870 C   0  0  0  0  0  0  0  0  0  0  0  0
  -28.9160  -19.7780   20.1270 N   0  0  0  0  0  0  0  0  0  0  0  0
  -29.4900  -16.9900   20.2550 N   0  0  0  0  0  0  0  0  0  0  0  0
  -30.3080  -21.7750   20.4410 O   0  0  0  0  0  0  0  0  0  0  0  0
  -27.9760  -19.4880   19.9110 H   0  0  0  0  0  0  0  0  0  0  0  0
  -28.4930  -16.8880   20.2130 H   0  0  0  0  0  0  0  0  0  0  0  0
  -31.4630  -19.1150   21.9930 C   0  0  0  0  0  3  0  0  0  0  0  0
  -32.1180  -18.9080   19.6520 C   0  0  0  0  0  3  0  0  0  0  0  0
  -32.7730  -19.5120   22.3260 C   0  0  0  0  0  3  0  0  0  0  0  0
  -33.4270  -19.3070   19.9890 C   0  0  0  0  0  3  0  0  0  0  0  0
  -31.1310  -18.8190   20.6530 C   0  0  0  0  0  0  0  0  0  0  0  0
  -33.7640  -19.6180   21.3220 C   0  0  0  0  0  0  0  0  0  0  0  0
  -35.6580  -20.4560   22.5840 C   0  0  0  0  0  2  0  0  0  0  0  0
  -36.1850  -20.9280   23.6890 C   0  0  0  0  0  1  0  0  0  0  0  0
  -35.0640  -20.0360   21.6050 N   0  0  0  0  0  2  0  0  0  0  0  0
  -25.1990  -13.8870   20.5570 C   0  0  0  0  0  0  0  0  0  0  0  0
  -24.1370  -13.1070   20.9190 C   0  0  0  0  0  0  0  0  0  0  0  0
  -24.6050  -11.7570   20.8770 C   0  0  0  0  0  0  0  0  0  0  0  0
  -26.2430  -13.0140   20.3080 N   0  0  0  0  0  0  0  0  0  0  0  0
  -25.8990  -11.7260   20.5720 N   0  0  0  0  0  0  0  0  0  0  0  0
  -23.8760  -10.4940   21.0490 C   0  0  0  0  0  0  0  0  0  0  0  0
  -24.2860   -9.5260   21.9900 C   0  0  0  0  0  3  0  0  0  0  0  0
  -23.5530   -8.3300   22.1540 C   0  0  0  0  0  3  0  0  0  0  0  0
  -22.3950   -8.0960   21.3740 C   0  0  0  0  0  0  0  0  0  0  0  0
  -22.0050   -9.0520   20.4220 C   0  0  0  0  0  3  0  0  0  0  0  0
  -22.7390  -10.2380   20.2560 C   0  0  0  0  0  3  0  0  0  0  0  0
  -21.6370   -6.9520   21.4450 O   0  0  0  0  0  0  0  0  0  0  0  0
  -21.5400   -6.2220   22.6040 C   0  0  0  0  0  0  0  0  0  0  0  0
  -21.0700   -6.7950   23.8060 C   0  0  0  0  0  3  0  0  0  0  0  0
  -20.9210   -5.9940   24.9560 C   0  0  0  0  0  3  0  0  0  0  0  0
  -21.2320   -4.6220   24.9050 C   0  0  0  0  0  0  0  0  0  0  0  0
  -21.6940   -4.0490   23.7060 C   0  0  0  0  0  3  0  0  0  0  0  0
  -21.8440   -4.8470   22.5600 C   0  0  0  0  0  0  0  0  0  0  0  0
  -22.2700   -4.2850   21.4020 F   0  0  0  0  0  0  0  0  0  0  0  0
  -21.0810   -3.8510   26.0070 F   0  0  0  0  0  0  0  0  0  0  0  0
  -22.7390  -13.5840   21.1790 C   0  0  0  0  0  0  0  0  0  0  0  0
  -22.0060  -12.8850   22.0380 N   0  0  0  0  0  0  0  0  0  0  0  0
  -22.3090  -14.6100   20.6560 O   0  0  0  0  0  0  0  0  0  0  0  0
  -22.3680  -12.0540   22.4810 H   0  0  0  0  0  0  0  0  0  0  0  0
  -21.0670  -13.1870   22.2570 H   0  0  0  0  0  0  0  0  0  0  0  0
  -25.3530  -15.2590   20.3800 N   0  0  0  0  0  0  0  0  0  0  0  0
  -24.5540  -15.8820   20.4420 H   0  0  0  0  0  0  0  0  0  0  0  0
  -26.1290  -15.6680   19.8790 H   0  0  0  0  0  0  0  0  0  0  0  0
  -28.0510  -22.6720   19.9650 C   0  0  0  0  0  3  0  0  0  0  0  0
  -27.6900  -24.1520   19.9200 C   0  0  0  0  0  3  0  0  0  0  0  0
  -28.0550  -25.6740   20.0350 O   0  0  0  0  0  0  0  0  0  0  0  0
  -24.5680  -31.8200   23.0710 C   0  0  0  0  0  0  0  0  0  0  0  0
  -27.0900  -26.8600   20.0030 C   0  0  0  0  0  0  0  0  0  0  0  0
  -23.3650  -30.4240   21.4450 C   0  0  0  0  0  3  0  0  0  0  0  0
  -24.8030  -28.8170   19.9960 C   0  0  0  0  0  0  0  0  0  0  0  0
  -25.9380  -30.6080   21.2830 C   0  0  0  0  0  2  0  0  0  0  0  0
  -26.0000  -29.1890   20.6200 C   0  0  0  0  0  0  0  0  0  0  0  0
  -27.1310  -28.2310   20.6060 C   0  0  0  0  0  3  0  0  0  0  0  0
  -25.8690  -26.6940   19.3030 C   0  0  0  0  0  3  0  0  0  0  0  0
  -24.7690  -27.5930   19.3130 C   0  0  0  0  0  3  0  0  0  0  0  0
  -23.5860  -29.7470   20.0650 C   0  0  0  0  0  2  0  0  0  0  0  0
  -24.6480  -30.9810   21.9850 N   0  0  0  0  0  0  0  0  0  0  0  0
  -23.4820  -32.1050   23.6030 O   0  0  0  0  0  0  0  0  0  0  0  0
  -22.6770  -29.4290   22.4170 C   0  0  0  0  0  0  0  0  0  0  0  0
  -21.3420  -29.2790   22.3240 N   0  0  0  0  0  0  0  0  0  0  0  0
  -23.3520  -28.7890   23.2250 O   0  0  0  0  0  0  0  0  0  0  0  0
  -20.8450  -29.8400   21.6460 H   0  0  0  0  0  0  0  0  0  0  0  0
  -17.9580  -28.0940   22.9190 C   0  0  0  0  0  0  0  0  0  0  0  0
  -20.5290  -28.3380   23.1040 C   0  0  0  0  0  3  0  0  0  0  0  0
  -20.5990  -26.9130   22.5060 C   0  0  0  0  0  2  0  0  0  0  0  0
  -19.4630  -26.6160   21.5210 C   0  0  0  0  0  2  0  0  0  0  0  0
  -18.1040  -26.7570   22.2120 C   0  0  0  0  0  2  0  0  0  0  0  0
  -19.0970  -28.8430   23.3240 C   0  0  0  0  0  0  0  0  0  0  0  0
  -18.9040  -30.0930   23.9520 C   0  0  0  0  0  3  0  0  0  0  0  0
  -17.6060  -30.5950   24.1740 C   0  0  0  0  0  3  0  0  0  0  0  0
  -16.4840  -29.8440   23.7810 C   0  0  0  0  0  3  0  0  0  0  0  0
  -16.6610  -28.5960   23.1590 C   0  0  0  0  0  3  0  0  0  0  0  0
  -25.8400  -32.4730   23.6910 C   0  0  0  0  0  3  0  0  0  0  0  0
  -25.5060  -33.8630   24.0560 N   0  0  0  0  0  0  0  0  0  0  0  0
  -25.8190  -34.9460   23.3300 C   0  0  0  0  0  0  0  0  0  0  0  0
  -26.4770  -34.8820   22.2900 O   0  0  0  0  0  0  0  0  0  0  0  0
  -24.9170  -33.9860   24.8650 H   0  0  0  0  0  0  0  0  0  0  0  0
  -24.0720  -36.7410   23.0630 C   0  0  0  0  0  1  0  0  0  0  0  0
  -25.3270  -36.3180   23.8400 C   0  0  0  0  0  3  0  0  0  0  0  0
  -27.4670  -37.1990   24.6670 C   0  0  0  0  0  1  0  0  0  0  0  0
  -26.3480  -37.3850   23.7470 N   0  0  0  0  0  0  0  0  0  0  0  0
  -25.9350  -38.2950   23.9280 H   0  0  0  0  0  0  0  0  0  0  0  0
  -26.3760  -31.6960   24.9590 C   0  0  1  0  0  0  0  0  0  0  0  0
  -25.2970  -31.4420   26.0370 C   0  0  0  0  0  1  0  0  0  0  0  0
  -26.9670  -30.3260   24.5600 C   0  0  0  0  0  1  0  0  0  0  0  0
  -27.5280  -32.4930   25.6130 C   0  0  0  0  0  1  0  0  0  0  0  0
  2  7  1  0
  3  4  1  0
  3  2  1  0
  5  4  1  0
  5 28  1  0
  5  6  1  0
  7  1  1  0
  7  6  1  0
  8  1  2  0
  9 11  1  0
  9 20  1  0
 10 13  2  0
 11 10  1  0
 12  1  1  0
 12  9  1  0
 14 11  1  0
 15 12  1  0
 16 18  1  0
 17 19  2  0
 17 20  1  0
 19 21  1  0
 20 16  2  0
 21 24  1  0
 21 18  2  0
 22 23  1  0
 24 22  1  0
 25 26  2  0
 26 45  1  0
 27 26  1  0
 27 30  1  0
 28 25  1  0
 28 29  1  0
 29 27  2  0
 30 31  1  0
 31 32  2  0
 33 36  1  0
 33 32  1  0
 34 33  2  0
 35 34  1  0
 35 30  2  0
 36 37  1  0
 37 38  1  0
 38 39  2  0
 40 39  1  0
 40 44  1  0
 41 40  2  0
 42 37  2  0
 42 41  1  0
 43 42  1  0
 45 46  1  0
 46 49  1  0
 46 48  1  0
 47 45  2  0
 50 51  1  0
 50 25  1  0
 52 50  1  0
 53 10  1  0
 54 53  2  0
 54 55  1  0
 56 67  2  0
 57 55  1  0
 57 62  1  0
 58 66  1  0
 58 68  1  0
 59 65  1  0
 59 61  1  0
 60 66  1  0
 61 60  1  0
 62 61  2  0
 63 64  1  0
 63 57  2  0
 64 59  2  0
 65 58  1  0
 66 56  1  0
 68 70  2  0
 69 68  1  0
 71 69  1  0
 72 81  2  0
 72 77  1  0
 73 69  1  0
 73 77  1  0
 74 73  1  0
 75 76  1  0
 75 74  1  0
 76 72  1  0
 77 78  2  0
 78 79  1  0
 80 79  2  0
 81 80  1  0
 82 56  1  0
 82 83  1  0
 82 92  1  0
 83 86  1  0
 84 88  1  0
 84 83  1  0
 85 84  2  0
 88 87  1  0
 90 88  1  0
 90 91  1  0
 90 89  1  0
 92 95  1  1
 92 93  1  0
 94 92  1  0
M  ISO  4   1 100  12 100  54 101  55 101
M  END
>  <TORSDO>  (6) 
F 18

>  <SCORE>  (6) 
-14.957

>  <name>  (6) 
5

>  <ligand_id>  (6) 
5

>  <original_smiles>  (6) 
[H]C([H])=C=Nc1c([H])c([H])c(C(N([H])C(=O)C([H])=C([H])Oc2c([H])c([H])c3c(c2[H])C([H])([H])N(C(=O)C([H])(N([H])C(=O)C([H])(N([H])C([H])([H])[H])C([H])([H])[H])C(C([H])([H])[H])(C([H])([H])[H])C([H])([H])[H])C([H])(C(=O)N([H])C2([H])c4c([H])c([H])c([H])c([H])c4C([H])([H])C([H])([H])C2([H])[H])C3([H])[H])=[N+]([H])C(=O)N2C([H])([H])C([H])([H])C([H])([H])C([H])(n3nc(-c4c([H])c([H])c(Oc5c([H])c([H])c(F)c([H])c5F)c([H])c4[H])c(C(=O)N([H])[H])c3N([H])[H])C2([H])[H])c([H])c1[H]

>  <smiles>  (6) 
[H]C([H])=C=Nc1c([H])c([H])c(C(N([H])C(=O)C([H])=C([H])Oc2c([H])c([H])c3c(c2[H])C([H])([H])N(C(=O)C([H])(N([H])C(=O)C([H])(N([H])C([H])([H])[H])C([H])([H])[H])C(C([H])([H])[H])(C([H])([H])[H])C([H])([H])[H])C([H])(C(=O)N([H])C2([H])c4c([H])c([H])c([H])c([H])c4C([H])([H])C([H])([H])C2([H])[H])C3([H])[H])=[N+]([H])C(=O)N2C([H])([H])C([H])([H])C([H])([H])C([H])(n3nc(-c4c([H])c([H])c(Oc5c([H])c([H])c(F)c([H])c5F)c([H])c4[H])c(C(=O)N([H])[H])c3N([H])[H])C2([H])[H])c([H])c1[H]

$$$$
6:0:0
     RDKit          3D

 92100  0  0  1  0  0  0  0  0999 V2000
  -29.3580  -23.5010   20.5290 C   0  0  0  0  0  0  0  0  0  0  0  0
  -29.5040  -22.3920   21.2870 N   0  0  0  0  0  0  0  0  0  0  0  0
  -28.9910  -23.4860   19.3530 O   0  0  0  0  0  0  0  0  0  0  0  0
  -29.6720  -22.5690   22.2680 H   0  0  0  0  0  0  0  0  0  0  0  0
  -29.7060  -18.6660   21.6180 C   0  0  0  0  0  3  0  0  0  0  0  0
  -29.5010  -20.0330   21.9150 C   0  0  0  0  0  3  0  0  0  0  0  0
  -29.7870  -20.5940   19.5690 C   0  0  0  0  0  3  0  0  0  0  0  0
  -30.0080  -18.2590   20.3010 C   0  0  0  0  0  0  0  0  0  0  0  0
  -29.5650  -21.0160   20.9010 C   0  0  0  0  0  0  0  0  0  0  0  0
  -30.0070  -19.2340   19.2760 C   0  0  0  0  0  0  0  0  0  0  0  0
  -30.2650  -18.8780   17.9930 F   0  0  0  0  0  0  0  0  0  0  0  0
  -30.3980  -16.8770   19.9540 C   0  0  0  0  0  3  0  0  0  0  0  0
  -30.3120  -15.7300   20.6700 C   0  0  0  0  0  3  0  0  0  0  0  0
  -30.9570  -14.5540   20.0890 C   0  0  0  0  0  0  0  0  0  0  0  0
  -30.5240  -12.4360   18.9320 C   0  0  0  0  0  2  0  0  0  0  0  0
  -29.5320  -12.7110   17.7840 C   0  0  0  0  0  2  0  0  0  0  0  0
  -28.0810  -12.5820   18.2850 C   0  0  0  0  0  2  0  0  0  0  0  0
  -27.8250  -13.3690   19.5990 C   0  0  0  0  0  3  0  0  0  0  0  0
  -28.9420  -13.1170   20.6380 C   0  0  0  0  0  2  0  0  0  0  0  0
  -30.2360  -13.4020   20.0060 N   0  0  0  0  0  0  0  0  0  0  0  0
  -32.0680  -14.6600   19.5620 O   0  0  0  0  0  0  0  0  0  0  0  0
  -25.4760  -13.9500   20.4750 C   0  0  0  0  0  0  0  0  0  0  0  0
  -24.4270  -13.1660   20.8740 C   0  0  0  0  0  0  0  0  0  0  0  0
  -24.8780  -11.8150   20.7610 C   0  0  0  0  0  0  0  0  0  0  0  0
  -26.5020  -13.0760   20.1480 N   0  0  0  0  0  0  0  0  0  0  0  0
  -26.1480  -11.7840   20.3780 N   0  0  0  0  0  0  0  0  0  0  0  0
  -24.1560  -10.5490   20.9420 C   0  0  0  0  0  0  0  0  0  0  0  0
  -24.5680   -9.5930   21.8980 C   0  0  0  0  0  3  0  0  0  0  0  0
  -23.8450   -8.3930   22.0670 C   0  0  0  0  0  3  0  0  0  0  0  0
  -22.6970   -8.1370   21.2800 C   0  0  0  0  0  0  0  0  0  0  0  0
  -22.3040   -9.0820   20.3150 C   0  0  0  0  0  3  0  0  0  0  0  0
  -23.0270  -10.2730   20.1440 C   0  0  0  0  0  3  0  0  0  0  0  0
  -21.9490   -6.9870   21.3570 O   0  0  0  0  0  0  0  0  0  0  0  0
  -21.7780   -6.3170   22.5420 C   0  0  0  0  0  0  0  0  0  0  0  0
  -21.1860   -6.9320   23.6670 C   0  0  0  0  0  3  0  0  0  0  0  0
  -20.9660   -6.1870   24.8420 C   0  0  0  0  0  3  0  0  0  0  0  0
  -21.3260   -4.8260   24.8920 C   0  0  0  0  0  0  0  0  0  0  0  0
  -21.9090   -4.2110   23.7710 C   0  0  0  0  0  3  0  0  0  0  0  0
  -22.1310   -4.9540   22.5980 C   0  0  0  0  0  0  0  0  0  0  0  0
  -22.6740   -4.3500   21.5130 F   0  0  0  0  0  0  0  0  0  0  0  0
  -21.1070   -4.1080   26.0190 F   0  0  0  0  0  0  0  0  0  0  0  0
  -23.0510  -13.6380   21.2460 C   0  0  0  0  0  0  0  0  0  0  0  0
  -22.3690  -12.9110   22.1240 N   0  0  0  0  0  0  0  0  0  0  0  0
  -22.5900  -14.6840   20.7920 O   0  0  0  0  0  0  0  0  0  0  0  0
  -22.7560  -12.0660   22.5180 H   0  0  0  0  0  0  0  0  0  0  0  0
  -21.4460  -13.2080   22.4100 H   0  0  0  0  0  0  0  0  0  0  0  0
  -25.6420  -15.3250   20.3430 N   0  0  0  0  0  0  0  0  0  0  0  0
  -24.8960  -15.9870   20.5340 H   0  0  0  0  0  0  0  0  0  0  0  0
  -26.4900  -15.7690   20.0120 H   0  0  0  0  0  0  0  0  0  0  0  0
  -29.6650  -24.8460   21.2100 C   0  0  0  0  0  2  0  0  0  0  0  0
  -28.5090  -25.8680   21.1960 C   0  0  0  0  0  2  0  0  0  0  0  0
  -28.5320  -26.7690   20.0800 O   0  0  0  0  0  0  0  0  0  0  0  0
  -24.5640  -31.7960   23.1510 C   0  0  0  0  0  0  0  0  0  0  0  0
  -27.3800  -27.5130   20.0270 C   0  0  0  0  0  0  0  0  0  0  0  0
  -23.4210  -30.3860   21.4690 C   0  0  0  0  0  3  0  0  0  0  0  0
  -24.9420  -28.9290   20.0270 C   0  0  0  0  0  0  0  0  0  0  0  0
  -25.9340  -30.8360   21.3060 C   0  0  0  0  0  2  0  0  0  0  0  0
  -26.0720  -29.4840   20.6400 C   0  0  0  0  0  0  0  0  0  0  0  0
  -27.2980  -28.7830   20.6390 C   0  0  0  0  0  3  0  0  0  0  0  0
  -26.2400  -26.9700   19.4000 C   0  0  0  0  0  3  0  0  0  0  0  0
  -25.0190  -27.6710   19.4020 C   0  0  0  0  0  3  0  0  0  0  0  0
  -23.6660  -29.7390   20.0780 C   0  0  0  0  0  2  0  0  0  0  0  0
  -24.6570  -31.0200   22.0340 N   0  0  0  0  0  0  0  0  0  0  0  0
  -23.4690  -32.0210   23.6850 O   0  0  0  0  0  0  0  0  0  0  0  0
  -22.7940  -29.3270   22.4030 C   0  0  0  0  0  0  0  0  0  0  0  0
  -21.4770  -29.1070   22.2590 N   0  0  0  0  0  0  0  0  0  0  0  0
  -23.4890  -28.7070   23.2130 O   0  0  0  0  0  0  0  0  0  0  0  0
  -20.9760  -29.6600   21.5780 H   0  0  0  0  0  0  0  0  0  0  0  0
  -18.1380  -27.7970   22.6910 C   0  0  0  0  0  0  0  0  0  0  0  0
  -20.6820  -28.1300   23.0030 C   0  0  0  0  0  3  0  0  0  0  0  0
  -20.8380  -26.7140   22.4030 C   0  0  0  0  0  2  0  0  0  0  0  0
  -19.7620  -26.3750   21.3680 C   0  0  0  0  0  2  0  0  0  0  0  0
  -18.3660  -26.4660   21.9940 C   0  0  0  0  0  2  0  0  0  0  0  0
  -19.2260  -28.5860   23.1490 C   0  0  0  0  0  0  0  0  0  0  0  0
  -18.9590  -29.8320   23.7560 C   0  0  0  0  0  3  0  0  0  0  0  0
  -17.6370  -30.2890   23.9110 C   0  0  0  0  0  3  0  0  0  0  0  0
  -16.5640  -29.4970   23.4710 C   0  0  0  0  0  3  0  0  0  0  0  0
  -16.8150  -28.2530   22.8670 C   0  0  0  0  0  3  0  0  0  0  0  0
  -25.8240  -32.4540   23.7960 C   0  0  0  0  0  3  0  0  0  0  0  0
  -26.3590  -31.6720   25.0580 C   0  0  1  0  0  0  0  0  0  0  0  0
  -25.2670  -31.3720   26.1120 C   0  0  0  0  0  1  0  0  0  0  0  0
  -26.9920  -30.3240   24.6390 C   0  0  0  0  0  1  0  0  0  0  0  0
  -27.4770  -32.4900   25.7480 C   0  0  0  0  0  1  0  0  0  0  0  0
  -25.4690  -33.8350   24.1500 N   0  0  0  0  0  0  0  0  0  0  0  0
  -25.7700  -34.9100   23.4100 C   0  0  0  0  0  0  0  0  0  0  0  0
  -26.4460  -34.8460   22.3810 O   0  0  0  0  0  0  0  0  0  0  0  0
  -24.8670  -33.9560   24.9520 H   0  0  0  0  0  0  0  0  0  0  0  0
  -23.9860  -36.6500   23.0780 C   0  0  0  0  0  1  0  0  0  0  0  0
  -25.2350  -36.2730   23.8900 C   0  0  0  0  0  3  0  0  0  0  0  0
  -27.3310  -37.2140   24.7540 C   0  0  0  0  0  1  0  0  0  0  0  0
  -26.2330  -37.3610   23.8020 N   0  0  0  0  0  0  0  0  0  0  0  0
  -25.7960  -38.2650   23.9610 H   0  0  0  0  0  0  0  0  0  0  0  0
  1 50  1  0
  1  2  1  0
  2  4  1  0
  3  1  2  0
  5  6  1  0
  7  9  1  0
  8  5  2  0
  9  2  1  0
  9  6  2  0
 10  7  2  0
 10  8  1  0
 11 10  1  0
 12  8  1  0
 12 13  2  0
 14 13  1  0
 15 20  1  0
 16 17  1  0
 16 15  1  0
 18 17  1  0
 18 25  1  0
 18 19  1  0
 20 14  1  0
 20 19  1  0
 21 14  2  0
 22 23  2  0
 23 42  1  0
 24 23  1  0
 24 27  1  0
 25 26  1  0
 25 22  1  0
 26 24  2  0
 27 28  1  0
 28 29  2  0
 30 33  1  0
 30 29  1  0
 31 30  2  0
 32 31  1  0
 32 27  2  0
 33 34  1  0
 34 39  2  0
 34 35  1  0
 35 36  2  0
 36 37  1  0
 37 41  1  0
 38 37  2  0
 39 38  1  0
 40 39  1  0
 42 43  1  0
 43 46  1  0
 43 45  1  0
 44 42  2  0
 47 22  1  0
 47 48  1  0
 49 47  1  0
 51 50  1  0
 52 51  1  0
 53 64  2  0
 54 52  1  0
 54 59  1  0
 55 63  1  0
 55 65  1  0
 56 62  1  0
 56 58  1  0
 57 63  1  0
 58 57  1  0
 59 58  2  0
 60 61  1  0
 60 54  2  0
 61 56  2  0
 62 55  1  0
 63 53  1  0
 65 67  2  0
 66 65  1  0
 68 66  1  0
 69 78  2  0
 69 74  1  0
 70 66  1  0
 70 74  1  0
 71 70  1  0
 72 73  1  0
 72 71  1  0
 73 69  1  0
 74 75  2  0
 75 76  1  0
 77 76  2  0
 78 77  1  0
 79 53  1  0
 79 84  1  0
 79 80  1  0
 80 83  1  1
 80 81  1  0
 82 80  1  0
 84 87  1  0
 85 89  1  0
 85 84  1  0
 86 85  2  0
 89 88  1  0
 91 89  1  0
 91 92  1  0
 91 90  1  0
M  ISO  4  13 100  14 100  51 101  52 101
M  END
>  <TORSDO>  (7) 
F 20

>  <SCORE>  (7) 
-12.575

>  <name>  (7) 
6

>  <ligand_id>  (7) 
6

>  <original_smiles>  (7) 
[H]C(C(=O)N1C([H])([H])C([H])([H])C([H])([H])C([H])(n2nc(-c3c([H])c([H])c(Oc4c([H])c([H])c(F)c([H])c4F)c([H])c3[H])c(C(=O)N([H])[H])c2N([H])[H])C1([H])[H])=C([H])c1c([H])c([H])c(N([H])C(=O)C([H])([H])C([H])([H])Oc2c([H])c([H])c3c(c2[H])C([H])([H])N(C(=O)C([H])(N([H])C(=O)C([H])(N([H])C([H])([H])[H])C([H])([H])[H])C(C([H])([H])[H])(C([H])([H])[H])C([H])([H])[H])C([H])(C(=O)N([H])C2([H])c4c([H])c([H])c([H])c([H])c4C([H])([H])C([H])([H])C2([H])[H])C3([H])[H])c([H])c1F

>  <smiles>  (7) 
[H]C(C(=O)N1C([H])([H])C([H])([H])C([H])([H])C([H])(n2nc(-c3c([H])c([H])c(Oc4c([H])c([H])c(F)c([H])c4F)c([H])c3[H])c(C(=O)N([H])[H])c2N([H])[H])C1([H])[H])=C([H])c1c([H])c([H])c(N([H])C(=O)C([H])([H])C([H])([H])Oc2c([H])c([H])c3c(c2[H])C([H])([H])N(C(=O)C([H])(N([H])C(=O)C([H])(N([H])C([H])([H])[H])C([H])([H])[H])C(C([H])([H])[H])(C([H])([H])[H])C([H])([H])[H])C([H])(C(=O)N([H])C2([H])c4c([H])c([H])c([H])c([H])c4C([H])([H])C([H])([H])C2([H])[H])C3([H])[H])c([H])c1F

$$$$
7:0:0
     RDKit          3D

 92101  0  0  1  0  0  0  0  0999 V2000
  -28.6150  -24.0010   20.4310 C   0  0  0  0  0  0  0  0  0  0  0  0
  -28.2030  -22.6700   20.8490 C   0  0  0  0  0  0  0  0  0  0  0  0
  -27.9800  -25.2030   20.6260 C   0  0  0  0  0  3  0  0  0  0  0  0
  -29.8760  -23.4180   19.7920 C   0  0  0  0  0  2  0  0  0  0  0  0
  -29.3210  -22.1080   20.2230 N   0  0  0  0  0  0  0  0  0  0  0  0
  -27.2610  -22.2870   21.5120 O   0  0  0  0  0  0  0  0  0  0  0  0
  -32.0740  -19.5840   19.5010 C   0  0  0  0  0  3  0  0  0  0  0  0
  -31.4720  -18.3370   19.7390 C   0  0  0  0  0  3  0  0  0  0  0  0
  -31.3480  -20.7800   19.6620 C   0  0  0  0  0  3  0  0  0  0  0  0
  -29.4200  -19.5130   20.3120 C   0  0  0  0  0  3  0  0  0  0  0  0
  -30.1270  -18.2680   20.1400 C   0  0  0  0  0  0  0  0  0  0  0  0
  -29.9950  -20.8170   20.0790 C   0  0  0  0  0  0  0  0  0  0  0  0
  -29.4470  -16.8620   20.2750 C   0  0  0  0  0  2  0  0  0  0  0  0
  -30.7520  -14.6660   20.3500 C   0  0  0  0  0  0  0  0  0  0  0  0
  -30.4680  -12.4400   19.2850 C   0  0  0  0  0  2  0  0  0  0  0  0
  -29.5320  -12.5570   18.0640 C   0  0  0  0  0  2  0  0  0  0  0  0
  -28.0630  -12.3970   18.4970 C   0  0  0  0  0  2  0  0  0  0  0  0
  -27.7010  -13.2870   19.7170 C   0  0  0  0  0  3  0  0  0  0  0  0
  -28.7580  -13.1690   20.8390 C   0  0  0  0  0  2  0  0  0  0  0  0
  -30.0710  -13.4800   20.2560 N   0  0  0  0  0  0  0  0  0  0  0  0
  -31.8780  -14.7940   19.8610 O   0  0  0  0  0  0  0  0  0  0  0  0
  -30.7060  -16.1250   22.2670 C   0  0  0  0  0  1  0  0  0  0  0  0
  -30.1490  -15.7280   20.9740 N   0  0  0  0  0  0  0  0  0  0  0  0
  -25.3080  -13.8870   20.4330 C   0  0  0  0  0  0  0  0  0  0  0  0
  -24.2410  -13.1150   20.8040 C   0  0  0  0  0  0  0  0  0  0  0  0
  -24.7030  -11.7630   20.7810 C   0  0  0  0  0  0  0  0  0  0  0  0
  -26.3530  -13.0070   20.2050 N   0  0  0  0  0  0  0  0  0  0  0  0
  -25.9950  -11.7240   20.4750 N   0  0  0  0  0  0  0  0  0  0  0  0
  -23.9770  -10.5020   20.9760 C   0  0  0  0  0  0  0  0  0  0  0  0
  -24.3990   -9.5470   21.9280 C   0  0  0  0  0  3  0  0  0  0  0  0
  -23.6740   -8.3490   22.1110 C   0  0  0  0  0  3  0  0  0  0  0  0
  -22.5110   -8.0990   21.3430 C   0  0  0  0  0  0  0  0  0  0  0  0
  -22.1070   -9.0440   20.3830 C   0  0  0  0  0  3  0  0  0  0  0  0
  -22.8340  -10.2320   20.1980 C   0  0  0  0  0  3  0  0  0  0  0  0
  -21.7590   -6.9530   21.4340 O   0  0  0  0  0  0  0  0  0  0  0  0
  -21.6850   -6.2320   22.5990 C   0  0  0  0  0  0  0  0  0  0  0  0
  -21.2220   -6.8070   23.8030 C   0  0  0  0  0  3  0  0  0  0  0  0
  -21.0950   -6.0120   24.9600 C   0  0  0  0  0  3  0  0  0  0  0  0
  -21.4170   -4.6430   24.9130 C   0  0  0  0  0  0  0  0  0  0  0  0
  -21.8730   -4.0670   23.7120 C   0  0  0  0  0  3  0  0  0  0  0  0
  -22.0020   -4.8590   22.5590 C   0  0  0  0  0  0  0  0  0  0  0  0
  -22.4200   -4.2940   21.4000 F   0  0  0  0  0  0  0  0  0  0  0  0
  -21.2880   -3.8770   26.0210 F   0  0  0  0  0  0  0  0  0  0  0  0
  -22.8430  -13.5920   21.0720 C   0  0  0  0  0  0  0  0  0  0  0  0
  -22.1130  -12.9010   21.9400 N   0  0  0  0  0  0  0  0  0  0  0  0
  -22.4040  -14.6160   20.5470 O   0  0  0  0  0  0  0  0  0  0  0  0
  -22.4790  -12.0760   22.3910 H   0  0  0  0  0  0  0  0  0  0  0  0
  -21.1750  -13.2060   22.1630 H   0  0  0  0  0  0  0  0  0  0  0  0
  -25.4710  -15.2560   20.2480 N   0  0  0  0  0  0  0  0  0  0  0  0
  -24.7040  -15.9110   20.3540 H   0  0  0  0  0  0  0  0  0  0  0  0
  -26.3230  -15.6940   19.9200 H   0  0  0  0  0  0  0  0  0  0  0  0
  -28.3000  -26.5090   20.2060 O   0  0  0  0  0  0  0  0  0  0  0  0
  -24.5640  -31.8980   23.2020 C   0  0  0  0  0  0  0  0  0  0  0  0
  -27.2150  -27.3900   20.1400 C   0  0  0  0  0  0  0  0  0  0  0  0
  -23.3710  -30.4910   21.5610 C   0  0  0  0  0  3  0  0  0  0  0  0
  -24.8380  -28.9640   20.1290 C   0  0  0  0  0  0  0  0  0  0  0  0
  -25.9040  -30.8390   21.3770 C   0  0  0  0  0  2  0  0  0  0  0  0
  -26.0000  -29.4640   20.7310 C   0  0  0  0  0  0  0  0  0  0  0  0
  -27.1940  -28.6860   20.7350 C   0  0  0  0  0  3  0  0  0  0  0  0
  -26.0370  -26.9450   19.4990 C   0  0  0  0  0  3  0  0  0  0  0  0
  -24.8550  -27.7080   19.5050 C   0  0  0  0  0  3  0  0  0  0  0  0
  -23.5900  -29.8210   20.1800 C   0  0  0  0  0  2  0  0  0  0  0  0
  -24.6320  -31.0910   22.1040 N   0  0  0  0  0  0  0  0  0  0  0  0
  -23.4790  -32.1670   23.7360 O   0  0  0  0  0  0  0  0  0  0  0  0
  -22.7170  -29.4650   22.5180 C   0  0  0  0  0  0  0  0  0  0  0  0
  -21.3910  -29.2870   22.3990 N   0  0  0  0  0  0  0  0  0  0  0  0
  -23.4010  -28.8350   23.3290 O   0  0  0  0  0  0  0  0  0  0  0  0
  -20.8970  -29.8500   21.7210 H   0  0  0  0  0  0  0  0  0  0  0  0
  -18.0140  -28.1100   22.9290 C   0  0  0  0  0  0  0  0  0  0  0  0
  -20.5760  -28.3470   23.1700 C   0  0  0  0  0  3  0  0  0  0  0  0
  -20.6620  -26.9220   22.5780 C   0  0  0  0  0  2  0  0  0  0  0  0
  -19.5450  -26.6190   21.5730 C   0  0  0  0  0  2  0  0  0  0  0  0
  -18.1720  -26.7670   22.2350 C   0  0  0  0  0  2  0  0  0  0  0  0
  -19.1420  -28.8590   23.3530 C   0  0  0  0  0  0  0  0  0  0  0  0
  -18.9400  -30.1170   23.9590 C   0  0  0  0  0  3  0  0  0  0  0  0
  -17.6400  -30.6250   24.1470 C   0  0  0  0  0  3  0  0  0  0  0  0
  -16.5260  -29.8710   23.7400 C   0  0  0  0  0  3  0  0  0  0  0  0
  -16.7130  -28.6150   23.1350 C   0  0  0  0  0  3  0  0  0  0  0  0
  -25.8420  -32.5390   23.8250 C   0  0  0  0  0  3  0  0  0  0  0  0
  -25.5260  -33.9350   24.1590 N   0  0  0  0  0  0  0  0  0  0  0  0
  -25.8590  -34.9920   23.4050 C   0  0  0  0  0  0  0  0  0  0  0  0
  -26.5380  -34.8920   22.3790 O   0  0  0  0  0  0  0  0  0  0  0  0
  -24.9250  -34.0840   24.9570 H   0  0  0  0  0  0  0  0  0  0  0  0
  -24.1370  -36.7850   23.0240 C   0  0  0  0  0  1  0  0  0  0  0  0
  -25.3610  -36.3760   23.8600 C   0  0  0  0  0  3  0  0  0  0  0  0
  -27.4780  -37.2580   24.7390 C   0  0  0  0  0  1  0  0  0  0  0  0
  -26.3960  -37.4300   23.7740 N   0  0  0  0  0  0  0  0  0  0  0  0
  -25.9860  -38.3490   23.9190 H   0  0  0  0  0  0  0  0  0  0  0  0
  -26.3640  -31.7670   25.0990 C   0  0  1  0  0  0  0  0  0  0  0  0
  -25.2730  -31.5290   26.1690 C   0  0  0  0  0  1  0  0  0  0  0  0
  -26.9490  -30.3900   24.7070 C   0  0  0  0  0  1  0  0  0  0  0  0
  -27.5130  -32.5660   25.7600 C   0  0  0  0  0  1  0  0  0  0  0  0
  1  3  2  0
  1  2  1  0
  2  6  2  0
  4  5  1  0
  4  1  1  0
  5  2  1  0
  7  9  2  0
  7  8  1  0
  8 11  2  0
  9 12  1  0
 11 13  1  0
 11 10  1  0
 12  5  1  0
 12 10  2  0
 13 23  1  0
 14 23  1  0
 15 20  1  0
 16 17  1  0
 16 15  1  0
 18 17  1  0
 18 27  1  0
 18 19  1  0
 20 14  1  0
 20 19  1  0
 21 14  2  0
 23 22  1  0
 24 25  2  0
 25 44  1  0
 26 25  1  0
 26 29  1  0
 27 24  1  0
 27 28  1  0
 28 26  2  0
 29 30  1  0
 30 31  2  0
 32 35  1  0
 32 31  1  0
 33 32  2  0
 34 33  1  0
 34 29  2  0
 35 36  1  0
 36 37  1  0
 37 38  2  0
 39 38  1  0
 39 43  1  0
 40 39  2  0
 41 36  2  0
 41 40  1  0
 42 41  1  0
 44 45  1  0
 45 48  1  0
 45 47  1  0
 46 44  2  0
 49 50  1  0
 49 24  1  0
 51 49  1  0
 52  3  1  0
 53 64  2  0
 54 52  1  0
 54 59  1  0
 55 63  1  0
 55 65  1  0
 56 62  1  0
 56 58  1  0
 57 63  1  0
 58 59  2  0
 58 57  1  0
 60 61  1  0
 60 54  2  0
 61 56  2  0
 62 55  1  0
 63 53  1  0
 65 67  2  0
 66 65  1  0
 68 66  1  0
 69 78  2  0
 69 74  1  0
 70 66  1  0
 70 74  1  0
 71 70  1  0
 72 73  1  0
 72 71  1  0
 73 69  1  0
 74 75  2  0
 75 76  1  0
 77 76  2  0
 78 77  1  0
 79 53  1  0
 79 80  1  0
 79 89  1  0
 80 83  1  0
 81 85  1  0
 81 80  1  0
 82 81  2  0
 85 84  1  0
 87 85  1  0
 87 88  1  0
 87 86  1  0
 89 92  1  1
 89 90  1  0
 91 89  1  0
M  ISO  4   3 101  14 100  23 100  52 101
M  END
>  <TORSDO>  (8) 
F 18

>  <SCORE>  (8) 
-14.769

>  <name>  (8) 
7

>  <ligand_id>  (8) 
7

>  <original_smiles>  (8) 
[H]C(Oc1c([H])c([H])c2c(c1[H])C([H])([H])N(C(=O)C([H])(N([H])C(=O)C([H])(N([H])C([H])([H])[H])C([H])([H])[H])C(C([H])([H])[H])(C([H])([H])[H])C([H])([H])[H])C([H])(C(=O)N([H])C1([H])c3c([H])c([H])c([H])c([H])c3C([H])([H])C([H])([H])C1([H])[H])C2([H])[H])=C1C(=O)N(c2c([H])c([H])c([H])c(C([H])([H])N(C(=O)N3C([H])([H])C([H])([H])C([H])([H])C([H])(n4nc(-c5c([H])c([H])c(Oc6c([H])c([H])c(F)c([H])c6F)c([H])c5[H])c(C(=O)N([H])[H])c4N([H])[H])C3([H])[H])C([H])([H])[H])c2[H])C1([H])[H]

>  <smiles>  (8) 
[H]C(Oc1c([H])c([H])c2c(c1[H])C([H])([H])N(C(=O)C([H])(N([H])C(=O)C([H])(N([H])C([H])([H])[H])C([H])([H])[H])C(C([H])([H])[H])(C([H])([H])[H])C([H])([H])[H])C([H])(C(=O)N([H])C1([H])c3c([H])c([H])c([H])c([H])c3C([H])([H])C([H])([H])C1([H])[H])C2([H])[H])=C1C(=O)N(c2c([H])c([H])c([H])c(C([H])([H])N(C(=O)N3C([H])([H])C([H])([H])C([H])([H])C([H])(n4nc(-c5c([H])c([H])c(Oc6c([H])c([H])c(F)c([H])c6F)c([H])c5[H])c(C(=O)N([H])[H])c4N([H])[H])C3([H])[H])C([H])([H])[H])c2[H])C1([H])[H]

$$$$
8:0:0
     RDKit          3D

 93102  0  0  1  0  0  0  0  0999 V2000
  -29.8250  -23.7490   19.5290 C   0  0  0  0  0  3  0  0  0  0  0  0
  -29.2070  -22.9600   21.5150 C   0  0  0  0  0  3  0  0  0  0  0  0
  -29.1170  -24.0820   20.7200 C   0  0  0  0  0  0  0  0  0  0  0  0
  -30.3200  -22.4780   19.6690 C   0  0  0  0  0  0  0  0  0  0  0  0
  -29.9640  -21.9500   20.9090 N   0  0  0  0  0  0  0  0  0  0  0  0
  -30.6680  -19.3860   23.5780 C   0  0  0  0  0  3  0  0  0  0  0  0
  -30.9100  -18.2160   22.8400 C   0  0  0  0  0  3  0  0  0  0  0  0
  -30.3780  -20.5970   22.9240 C   0  0  0  0  0  3  0  0  0  0  0  0
  -30.5460  -19.4660   20.7800 C   0  0  0  0  0  3  0  0  0  0  0  0
  -30.8830  -18.2370   21.4280 C   0  0  0  0  0  0  0  0  0  0  0  0
  -30.2910  -20.6700   21.5130 C   0  0  0  0  0  0  0  0  0  0  0  0
  -31.2250  -17.0020   20.6600 C   0  0  0  0  0  3  0  0  0  0  0  0
  -31.0600  -15.7050   21.0450 C   0  0  0  0  0  3  0  0  0  0  0  0
  -31.5880  -14.6060   20.2230 C   0  0  0  0  0  0  0  0  0  0  0  0
  -31.0930  -12.5210   18.9830 C   0  0  0  0  0  2  0  0  0  0  0  0
  -30.1660  -12.8530   17.7960 C   0  0  0  0  0  2  0  0  0  0  0  0
  -28.6900  -12.8000   18.2310 C   0  0  0  0  0  2  0  0  0  0  0  0
  -28.4260  -13.6010   19.5340 C   0  0  0  0  0  3  0  0  0  0  0  0
  -29.4690  -13.2580   20.6210 C   0  0  0  0  0  2  0  0  0  0  0  0
  -30.8110  -13.4910   20.0610 N   0  0  0  0  0  0  0  0  0  0  0  0
  -32.6810  -14.7060   19.6580 O   0  0  0  0  0  0  0  0  0  0  0  0
  -26.0650  -14.3450   20.2340 C   0  0  0  0  0  0  0  0  0  0  0  0
  -24.9560  -13.6360   20.6160 C   0  0  0  0  0  0  0  0  0  0  0  0
  -25.3430  -12.2620   20.6050 C   0  0  0  0  0  0  0  0  0  0  0  0
  -27.0600  -13.4050   20.0160 N   0  0  0  0  0  0  0  0  0  0  0  0
  -26.6300  -12.1470   20.2960 N   0  0  0  0  0  0  0  0  0  0  0  0
  -24.5490  -11.0430   20.8160 C   0  0  0  0  0  0  0  0  0  0  0  0
  -24.9310  -10.0670   21.7620 C   0  0  0  0  0  3  0  0  0  0  0  0
  -24.1410   -8.9140   21.9590 C   0  0  0  0  0  3  0  0  0  0  0  0
  -22.9540   -8.7300   21.2110 C   0  0  0  0  0  0  0  0  0  0  0  0
  -22.5910   -9.6930   20.2540 C   0  0  0  0  0  3  0  0  0  0  0  0
  -23.3810  -10.8380   20.0540 C   0  0  0  0  0  3  0  0  0  0  0  0
  -22.1390   -7.6300   21.3170 O   0  0  0  0  0  0  0  0  0  0  0  0
  -21.9850   -6.9590   22.5050 C   0  0  0  0  0  0  0  0  0  0  0  0
  -21.5620   -7.6150   23.6820 C   0  0  0  0  0  3  0  0  0  0  0  0
  -21.3510   -6.8740   24.8620 C   0  0  0  0  0  3  0  0  0  0  0  0
  -21.5520   -5.4820   24.8660 C   0  0  0  0  0  0  0  0  0  0  0  0
  -21.9670   -4.8260   23.6930 C   0  0  0  0  0  3  0  0  0  0  0  0
  -22.1800   -5.5630   22.5150 C   0  0  0  0  0  0  0  0  0  0  0  0
  -22.5590   -4.9240   21.3820 F   0  0  0  0  0  0  0  0  0  0  0  0
  -21.3420   -4.7690   25.9970 F   0  0  0  0  0  0  0  0  0  0  0  0
  -23.5870  -14.1940   20.8820 C   0  0  0  0  0  0  0  0  0  0  0  0
  -22.8470  -13.5890   21.8060 N   0  0  0  0  0  0  0  0  0  0  0  0
  -23.1830  -15.2020   20.3050 O   0  0  0  0  0  0  0  0  0  0  0  0
  -23.1840  -12.7750   22.2980 H   0  0  0  0  0  0  0  0  0  0  0  0
  -21.9280  -13.9460   22.0260 H   0  0  0  0  0  0  0  0  0  0  0  0
  -26.3030  -15.7010   20.0370 N   0  0  0  0  0  0  0  0  0  0  0  0
  -25.5780  -16.4020   20.1470 H   0  0  0  0  0  0  0  0  0  0  0  0
  -27.1890  -16.0920   19.7400 H   0  0  0  0  0  0  0  0  0  0  0  0
  -31.0780  -21.7770   18.7820 O   0  0  0  0  0  0  0  0  0  0  0  0
  -31.1580  -22.3000   17.9900 H   0  0  0  0  0  0  0  0  0  0  0  0
  -28.4050  -25.3860   21.1100 C   0  0  0  0  0  2  0  0  0  0  0  0
  -28.6240  -26.5550   20.2840 O   0  0  0  0  0  0  0  0  0  0  0  0
  -24.6210  -31.6900   23.2360 C   0  0  0  0  0  0  0  0  0  0  0  0
  -27.4980  -27.3520   20.2020 C   0  0  0  0  0  0  0  0  0  0  0  0
  -23.5240  -30.2880   21.5190 C   0  0  0  0  0  3  0  0  0  0  0  0
  -25.0780  -28.8180   20.1260 C   0  0  0  0  0  0  0  0  0  0  0  0
  -26.0480  -30.7100   21.4380 C   0  0  0  0  0  2  0  0  0  0  0  0
  -26.1990  -29.3540   20.7750 C   0  0  0  0  0  0  0  0  0  0  0  0
  -27.4170  -28.6300   20.8090 C   0  0  0  0  0  3  0  0  0  0  0  0
  -26.3660  -26.8420   19.5360 C   0  0  0  0  0  3  0  0  0  0  0  0
  -25.1590  -27.5620   19.5000 C   0  0  0  0  0  3  0  0  0  0  0  0
  -23.8100  -29.6420   20.1380 C   0  0  0  0  0  2  0  0  0  0  0  0
  -24.7470  -30.9100   22.1240 N   0  0  0  0  0  0  0  0  0  0  0  0
  -23.5100  -31.9230   23.7330 O   0  0  0  0  0  0  0  0  0  0  0  0
  -22.8570  -29.2340   22.4320 C   0  0  0  0  0  0  0  0  0  0  0  0
  -21.5380  -29.0410   22.2640 N   0  0  0  0  0  0  0  0  0  0  0  0
  -23.5260  -28.5930   23.2480 O   0  0  0  0  0  0  0  0  0  0  0  0
  -21.0620  -29.6100   21.5780 H   0  0  0  0  0  0  0  0  0  0  0  0
  -18.1630  -27.8040   22.6450 C   0  0  0  0  0  0  0  0  0  0  0  0
  -20.7120  -28.0750   22.9860 C   0  0  0  0  0  3  0  0  0  0  0  0
  -20.8420  -26.6640   22.3690 C   0  0  0  0  0  2  0  0  0  0  0  0
  -19.7680  -26.3620   21.3190 C   0  0  0  0  0  2  0  0  0  0  0  0
  -18.3700  -26.4770   21.9340 C   0  0  0  0  0  2  0  0  0  0  0  0
  -19.2640  -28.5620   23.1250 C   0  0  0  0  0  0  0  0  0  0  0  0
  -19.0210  -29.8050   23.7480 C   0  0  0  0  0  3  0  0  0  0  0  0
  -17.7080  -30.2900   23.8970 C   0  0  0  0  0  3  0  0  0  0  0  0
  -16.6210  -29.5290   23.4340 C   0  0  0  0  0  3  0  0  0  0  0  0
  -16.8490  -28.2880   22.8130 C   0  0  0  0  0  3  0  0  0  0  0  0
  -25.8620  -32.3430   23.9210 C   0  0  0  0  0  3  0  0  0  0  0  0
  -26.3160  -31.5880   25.2300 C   0  0  1  0  0  0  0  0  0  0  0  0
  -25.1680  -31.3420   26.2370 C   0  0  0  0  0  1  0  0  0  0  0  0
  -26.9390  -30.2170   24.8820 C   0  0  0  0  0  1  0  0  0  0  0  0
  -27.4170  -32.4040   25.9470 C   0  0  0  0  0  1  0  0  0  0  0  0
  -25.5190  -33.7390   24.2180 N   0  0  0  0  0  0  0  0  0  0  0  0
  -25.8790  -34.7870   23.4660 C   0  0  0  0  0  0  0  0  0  0  0  0
  -26.6050  -34.6820   22.4730 O   0  0  0  0  0  0  0  0  0  0  0  0
  -24.8800  -33.8950   24.9840 H   0  0  0  0  0  0  0  0  0  0  0  0
  -24.1340  -36.5410   23.0160 C   0  0  0  0  0  1  0  0  0  0  0  0
  -25.3510  -36.1740   23.8800 C   0  0  0  0  0  3  0  0  0  0  0  0
  -27.4350  -37.1130   24.7750 C   0  0  0  0  0  1  0  0  0  0  0  0
  -26.3680  -37.2440   23.7870 N   0  0  0  0  0  0  0  0  0  0  0  0
  -25.9410  -38.1600   23.9040 H   0  0  0  0  0  0  0  0  0  0  0  0
  1  4  2  0
  1  3  1  0
  3 52  1  0
  3  2  2  0
  4  5  1  0
  5 11  1  0
  5  2  1  0
  7  6  2  0
  8  6  1  0
  9 10  2  0
  9 11  1  0
 10  7  1  0
 11  8  2  0
 12 13  2  0
 12 10  1  0
 14 13  1  0
 15 20  1  0
 16 17  1  0
 16 15  1  0
 18 17  1  0
 18 25  1  0
 18 19  1  0
 20 14  1  0
 20 19  1  0
 21 14  2  0
 22 23  2  0
 23 42  1  0
 24 23  1  0
 24 27  1  0
 25 22  1  0
 25 26  1  0
 26 24  2  0
 27 28  1  0
 28 29  2  0
 30 33  1  0
 30 29  1  0
 31 30  2  0
 32 31  1  0
 32 27  2  0
 33 34  1  0
 34 39  2  0
 34 35  1  0
 35 36  2  0
 36 37  1  0
 37 41  1  0
 38 37  2  0
 39 38  1  0
 40 39  1  0
 42 43  1  0
 43 46  1  0
 43 45  1  0
 44 42  2  0
 47 48  1  0
 47 22  1  0
 49 47  1  0
 50  4  1  0
 51 50  1  0
 53 52  1  0
 54 65  2  0
 55 53  1  0
 55 60  1  0
 56 64  1  0
 56 66  1  0
 57 63  1  0
 57 59  1  0
 58 64  1  0
 59 60  2  0
 59 58  1  0
 61 55  2  0
 62 61  1  0
 62 57  2  0
 63 56  1  0
 64 54  1  0
 66 68  2  0
 67 66  1  0
 69 67  1  0
 70 79  2  0
 70 75  1  0
 71 67  1  0
 71 75  1  0
 72 71  1  0
 73 74  1  0
 73 72  1  0
 74 70  1  0
 75 76  2  0
 76 77  1  0
 78 77  2  0
 79 78  1  0
 80 54  1  0
 80 85  1  0
 80 81  1  0
 81 84  1  1
 81 82  1  0
 83 81  1  0
 85 88  1  0
 86 90  1  0
 86 85  1  0
 87 86  2  0
 90 89  1  0
 92 90  1  0
 92 93  1  0
 92 91  1  0
M  ISO  4  13 100  14 100  52 101  53 101
M  END
>  <TORSDO>  (9) 
F 20

>  <SCORE>  (9) 
-12.440

>  <name>  (9) 
8

>  <ligand_id>  (9) 
8

>  <original_smiles>  (9) 
[H]Oc1c([H])c(C([H])([H])Oc2c([H])c([H])c3c(c2[H])C([H])([H])N(C(=O)C([H])(N([H])C(=O)C([H])(N([H])C([H])([H])[H])C([H])([H])[H])C(C([H])([H])[H])(C([H])([H])[H])C([H])([H])[H])C([H])(C(=O)N([H])C2([H])c4c([H])c([H])c([H])c([H])c4C([H])([H])C([H])([H])C2([H])[H])C3([H])[H])c([H])n1-c1c([H])c([H])c([H])c(C([H])=C([H])C(=O)N2C([H])([H])C([H])([H])C([H])([H])C([H])(n3nc(-c4c([H])c([H])c(Oc5c([H])c([H])c(F)c([H])c5F)c([H])c4[H])c(C(=O)N([H])[H])c3N([H])[H])C2([H])[H])c1[H]

>  <smiles>  (9) 
[H]Oc1c([H])c(C([H])([H])Oc2c([H])c([H])c3c(c2[H])C([H])([H])N(C(=O)C([H])(N([H])C(=O)C([H])(N([H])C([H])([H])[H])C([H])([H])[H])C(C([H])([H])[H])(C([H])([H])[H])C([H])([H])[H])C([H])(C(=O)N([H])C2([H])c4c([H])c([H])c([H])c([H])c4C([H])([H])C([H])([H])C2([H])[H])C3([H])[H])c([H])n1-c1c([H])c([H])c([H])c(C([H])=C([H])C(=O)N2C([H])([H])C([H])([H])C([H])([H])C([H])(n3nc(-c4c([H])c([H])c(Oc5c([H])c([H])c(F)c([H])c5F)c([H])c4[H])c(C(=O)N([H])[H])c3N([H])[H])C2([H])[H])c1[H]

$$$$
9:0:0
     RDKit          3D

 93102  0  0  1  0  0  0  0  0999 V2000
  -28.8400  -24.1350   21.2200 C   0  0  0  0  0  0  0  0  0  0  0  0
  -29.1210  -23.5990   22.5450 C   0  0  0  0  0  0  0  0  0  0  0  0
  -29.0010  -22.9630   20.2940 C   0  0  0  0  0  0  0  0  0  0  0  0
  -28.5310  -25.5000   21.1170 C   0  0  0  0  0  3  0  0  0  0  0  0
  -29.5740  -22.1600   22.4300 C   0  0  0  0  0  2  0  0  0  0  0  0
  -29.3740  -21.8230   21.0200 N   0  0  0  0  0  0  0  0  0  0  0  0
  -29.0500  -24.1920   23.6290 O   0  0  0  0  0  0  0  0  0  0  0  0
  -28.8320  -22.9740   19.0700 O   0  0  0  0  0  0  0  0  0  0  0  0
  -28.5330  -19.5660   20.1170 C   0  0  0  0  0  3  0  0  0  0  0  0
  -30.7160  -19.6410   21.0760 C   0  0  0  0  0  3  0  0  0  0  0  0
  -28.6330  -18.1330   20.0540 C   0  0  0  0  0  3  0  0  0  0  0  0
  -30.8300  -18.2070   20.9840 C   0  0  0  0  0  3  0  0  0  0  0  0
  -29.5610  -20.3820   20.6640 C   0  0  0  0  0  0  0  0  0  0  0  0
  -29.7710  -17.3890   20.4990 C   0  0  0  0  0  0  0  0  0  0  0  0
  -30.5720  -14.8370   20.3900 C   0  0  0  0  0  0  0  0  0  0  0  0
  -30.4250  -12.5400   19.3940 C   0  0  0  0  0  2  0  0  0  0  0  0
  -29.4840  -12.5970   18.1680 C   0  0  0  0  0  2  0  0  0  0  0  0
  -28.0090  -12.4300   18.5910 C   0  0  0  0  0  2  0  0  0  0  0  0
  -27.6300  -13.3230   19.8030 C   0  0  0  0  0  3  0  0  0  0  0  0
  -28.6870  -13.2280   20.9270 C   0  0  0  0  0  2  0  0  0  0  0  0
  -29.9870  -13.5890   20.3400 N   0  0  0  0  0  0  0  0  0  0  0  0
  -31.7610  -14.9810   20.0870 O   0  0  0  0  0  0  0  0  0  0  0  0
  -29.6990  -15.9030   20.5570 N   0  0  0  0  0  0  0  0  0  0  0  0
  -28.7570  -15.5610   20.6560 H   0  0  0  0  0  0  0  0  0  0  0  0
  -25.2440  -13.9310   20.5310 C   0  0  0  0  0  0  0  0  0  0  0  0
  -24.1730  -13.1640   20.9010 C   0  0  0  0  0  0  0  0  0  0  0  0
  -24.6270  -11.8100   20.8640 C   0  0  0  0  0  0  0  0  0  0  0  0
  -26.2820  -13.0450   20.2900 N   0  0  0  0  0  0  0  0  0  0  0  0
  -25.9170  -11.7640   20.5530 N   0  0  0  0  0  0  0  0  0  0  0  0
  -23.8910  -10.5530   21.0480 C   0  0  0  0  0  0  0  0  0  0  0  0
  -24.3090   -9.5820   21.9850 C   0  0  0  0  0  3  0  0  0  0  0  0
  -23.5740   -8.3900   22.1550 C   0  0  0  0  0  3  0  0  0  0  0  0
  -22.4060   -8.1600   21.3890 C   0  0  0  0  0  0  0  0  0  0  0  0
  -22.0070   -9.1200   20.4430 C   0  0  0  0  0  3  0  0  0  0  0  0
  -22.7430  -10.3040   20.2700 C   0  0  0  0  0  3  0  0  0  0  0  0
  -21.6430   -7.0200   21.4690 O   0  0  0  0  0  0  0  0  0  0  0  0
  -21.5710   -6.2810   22.6240 C   0  0  0  0  0  0  0  0  0  0  0  0
  -21.1190   -6.8400   23.8390 C   0  0  0  0  0  3  0  0  0  0  0  0
  -20.9950   -6.0260   24.9840 C   0  0  0  0  0  3  0  0  0  0  0  0
  -21.3140   -4.6580   24.9140 C   0  0  0  0  0  0  0  0  0  0  0  0
  -21.7600   -4.0990   23.7040 C   0  0  0  0  0  3  0  0  0  0  0  0
  -21.8850   -4.9080   22.5610 C   0  0  0  0  0  0  0  0  0  0  0  0
  -22.2950   -4.3600   21.3910 F   0  0  0  0  0  0  0  0  0  0  0  0
  -21.1890   -3.8750   26.0110 F   0  0  0  0  0  0  0  0  0  0  0  0
  -22.7800  -13.6510   21.1720 C   0  0  0  0  0  0  0  0  0  0  0  0
  -22.0420  -12.9580   22.0320 N   0  0  0  0  0  0  0  0  0  0  0  0
  -22.3520  -14.6840   20.6570 O   0  0  0  0  0  0  0  0  0  0  0  0
  -22.3990  -12.1240   22.4730 H   0  0  0  0  0  0  0  0  0  0  0  0
  -21.1080  -13.2700   22.2540 H   0  0  0  0  0  0  0  0  0  0  0  0
  -25.4150  -15.3020   20.3550 N   0  0  0  0  0  0  0  0  0  0  0  0
  -24.6410  -15.9500   20.4530 H   0  0  0  0  0  0  0  0  0  0  0  0
  -26.2400  -15.7320   19.9620 H   0  0  0  0  0  0  0  0  0  0  0  0
  -28.3410  -26.4290   20.0700 O   0  0  0  0  0  0  0  0  0  0  0  0
  -24.6600  -31.9010   23.2320 C   0  0  0  0  0  0  0  0  0  0  0  0
  -27.2620  -27.3370   20.1350 C   0  0  0  0  0  0  0  0  0  0  0  0
  -23.4480  -30.5030   21.5980 C   0  0  0  0  0  3  0  0  0  0  0  0
  -24.8960  -28.9610   20.1520 C   0  0  0  0  0  0  0  0  0  0  0  0
  -25.9880  -30.8250   21.3960 C   0  0  0  0  0  2  0  0  0  0  0  0
  -26.0710  -29.4450   20.7460 C   0  0  0  0  0  0  0  0  0  0  0  0
  -27.2600  -28.6440   20.7300 C   0  0  0  0  0  3  0  0  0  0  0  0
  -26.0670  -26.9160   19.5200 C   0  0  0  0  0  3  0  0  0  0  0  0
  -24.8970  -27.7020   19.5310 C   0  0  0  0  0  3  0  0  0  0  0  0
  -23.6540  -29.8330   20.2150 C   0  0  0  0  0  2  0  0  0  0  0  0
  -24.7180  -31.0950   22.1310 N   0  0  0  0  0  0  0  0  0  0  0  0
  -23.5800  -32.1710   23.7790 O   0  0  0  0  0  0  0  0  0  0  0  0
  -22.7970  -29.4810   22.5610 C   0  0  0  0  0  0  0  0  0  0  0  0
  -21.4710  -29.2950   22.4450 N   0  0  0  0  0  0  0  0  0  0  0  0
  -23.4870  -28.8580   23.3720 O   0  0  0  0  0  0  0  0  0  0  0  0
  -20.9730  -29.8500   21.7630 H   0  0  0  0  0  0  0  0  0  0  0  0
  -18.1100  -28.0540   22.9560 C   0  0  0  0  0  0  0  0  0  0  0  0
  -20.6650  -28.3480   23.2190 C   0  0  0  0  0  3  0  0  0  0  0  0
  -20.7840  -26.9170   22.6480 C   0  0  0  0  0  2  0  0  0  0  0  0
  -19.6860  -26.5770   21.6360 C   0  0  0  0  0  2  0  0  0  0  0  0
  -18.3030  -26.7070   22.2810 C   0  0  0  0  0  2  0  0  0  0  0  0
  -19.2190  -28.8330   23.3810 C   0  0  0  0  0  0  0  0  0  0  0  0
  -18.9840  -30.0940   23.9710 C   0  0  0  0  0  3  0  0  0  0  0  0
  -17.6730  -30.5770   24.1400 C   0  0  0  0  0  3  0  0  0  0  0  0
  -16.5780  -29.7960   23.7300 C   0  0  0  0  0  3  0  0  0  0  0  0
  -16.7970  -28.5360   23.1440 C   0  0  0  0  0  3  0  0  0  0  0  0
  -25.9450  -32.5380   23.8450 C   0  0  0  0  0  3  0  0  0  0  0  0
  -25.6320  -33.9330   24.1870 N   0  0  0  0  0  0  0  0  0  0  0  0
  -25.9410  -34.9920   23.4260 C   0  0  0  0  0  0  0  0  0  0  0  0
  -26.5900  -34.8980   22.3800 O   0  0  0  0  0  0  0  0  0  0  0  0
  -25.0530  -34.0800   25.0000 H   0  0  0  0  0  0  0  0  0  0  0  0
  -24.1950  -36.7760   23.1160 C   0  0  0  0  0  1  0  0  0  0  0  0
  -25.4540  -36.3750   23.9000 C   0  0  0  0  0  3  0  0  0  0  0  0
  -27.5970  -37.2720   24.6960 C   0  0  0  0  0  1  0  0  0  0  0  0
  -26.4770  -37.4360   23.7720 N   0  0  0  0  0  0  0  0  0  0  0  0
  -26.0680  -38.3530   23.9300 H   0  0  0  0  0  0  0  0  0  0  0  0
  -26.4770  -31.7640   25.1130 C   0  0  1  0  0  0  0  0  0  0  0  0
  -25.3950  -31.5180   26.1910 C   0  0  0  0  0  1  0  0  0  0  0  0
  -27.0620  -30.3900   24.7130 C   0  0  0  0  0  1  0  0  0  0  0  0
  -27.6310  -32.5610   25.7660 C   0  0  0  0  0  1  0  0  0  0  0  0
  1  2  1  0
  2  7  2  0
  3  6  1  0
  3  1  1  0
  4  1  2  0
  5  2  1  0
  6  5  1  0
  8  3  2  0
  9 13  1  0
 11  9  2  0
 11 14  1  0
 12 10  1  0
 13  6  1  0
 13 10  2  0
 14 23  1  0
 14 12  2  0
 15 23  1  0
 16 21  1  0
 17 18  1  0
 17 16  1  0
 19 18  1  0
 19 28  1  0
 19 20  1  0
 21 15  1  0
 21 20  1  0
 22 15  2  0
 23 24  1  0
 25 26  2  0
 26 45  1  0
 27 26  1  0
 27 30  1  0
 28 25  1  0
 28 29  1  0
 29 27  2  0
 30 31  1  0
 31 32  2  0
 33 36  1  0
 33 32  1  0
 34 33  2  0
 35 34  1  0
 35 30  2  0
 36 37  1  0
 37 38  1  0
 38 39  2  0
 40 39  1  0
 40 44  1  0
 41 40  2  0
 42 37  2  0
 42 41  1  0
 43 42  1  0
 45 46  1  0
 46 49  1  0
 46 48  1  0
 47 45  2  0
 50 51  1  0
 50 25  1  0
 52 50  1  0
 53 55  1  0
 53  4  1  0
 54 65  2  0
 55 60  1  0
 56 64  1  0
 56 66  1  0
 57 63  1  0
 57 59  1  0
 58 64  1  0
 59 58  1  0
 60 59  2  0
 61 62  1  0
 61 55  2  0
 62 57  2  0
 63 56  1  0
 64 54  1  0
 66 68  2  0
 67 66  1  0
 69 67  1  0
 70 79  2  0
 70 75  1  0
 71 67  1  0
 71 75  1  0
 72 71  1  0
 73 74  1  0
 73 72  1  0
 74 70  1  0
 75 76  2  0
 76 77  1  0
 78 77  2  0
 79 78  1  0
 80 54  1  0
 80 81  1  0
 80 90  1  0
 81 84  1  0
 82 86  1  0
 82 81  1  0
 83 82  2  0
 86 85  1  0
 88 86  1  0
 88 89  1  0
 88 87  1  0
 90 93  1  1
 90 91  1  0
 92 90  1  0
M  ISO  4   4 101  15 100  23 100  53 101
M  END
>  <TORSDO>  (10) 
F 17

>  <SCORE>  (10) 
-15.267

>  <name>  (10) 
9

>  <ligand_id>  (10) 
9

>  <original_smiles>  (10) 
[H]C(Oc1c([H])c([H])c2c(c1[H])C([H])([H])N(C(=O)C([H])(N([H])C(=O)C([H])(N([H])C([H])([H])[H])C([H])([H])[H])C(C([H])([H])[H])(C([H])([H])[H])C([H])([H])[H])C([H])(C(=O)N([H])C1([H])c3c([H])c([H])c([H])c([H])c3C([H])([H])C([H])([H])C1([H])[H])C2([H])[H])=C1C(=O)N(c2c([H])c([H])c(N([H])C(=O)N3C([H])([H])C([H])([H])C([H])([H])C([H])(n4nc(-c5c([H])c([H])c(Oc6c([H])c([H])c(F)c([H])c6F)c([H])c5[H])c(C(=O)N([H])[H])c4N([H])[H])C3([H])[H])c([H])c2[H])C([H])([H])C1=O

>  <smiles>  (10) 
[H]C(Oc1c([H])c([H])c2c(c1[H])C([H])([H])N(C(=O)C([H])(N([H])C(=O)C([H])(N([H])C([H])([H])[H])C([H])([H])[H])C(C([H])([H])[H])(C([H])([H])[H])C([H])([H])[H])C([H])(C(=O)N([H])C1([H])c3c([H])c([H])c([H])c([H])c3C([H])([H])C([H])([H])C1([H])[H])C2([H])[H])=C1C(=O)N(c2c([H])c([H])c(N([H])C(=O)N3C([H])([H])C([H])([H])C([H])([H])C([H])(n4nc(-c5c([H])c([H])c(Oc6c([H])c([H])c(F)c([H])c6F)c([H])c5[H])c(C(=O)N([H])[H])c4N([H])[H])C3([H])[H])c([H])c2[H])C([H])([H])C1=O

$$$$
10:0:0
     RDKit          3D

 93102  0  0  1  0  0  0  0  0999 V2000
  -27.9980  -23.2730   21.0590 C   0  0  0  0  0  3  0  0  0  0  0  0
  -28.6750  -23.8200   20.0410 C   0  0  0  0  0  0  0  0  0  0  0  0
  -28.3500  -21.8590   21.2140 C   0  0  0  0  0  0  0  0  0  0  0  0
  -29.4790  -22.6840   19.5130 C   0  0  0  0  0  0  0  0  0  0  0  0
  -29.2480  -21.5350   20.2540 N   0  0  0  0  0  0  0  0  0  0  0  0
  -27.9060  -21.0810   22.0650 O   0  0  0  0  0  0  0  0  0  0  0  0
  -30.2270  -22.7350   18.5300 O   0  0  0  0  0  0  0  0  0  0  0  0
  -32.3220  -19.3120   20.1680 C   0  0  0  0  0  3  0  0  0  0  0  0
  -31.4430  -20.4060   20.1480 C   0  0  0  0  0  3  0  0  0  0  0  0
  -31.8540  -17.9900   20.2420 C   0  0  0  0  0  3  0  0  0  0  0  0
  -29.5800  -18.8460   20.2910 C   0  0  0  0  0  3  0  0  0  0  0  0
  -30.0400  -20.2460   20.2140 C   0  0  0  0  0  0  0  0  0  0  0  0
  -30.4740  -17.6730   20.2850 C   0  0  0  0  0  0  0  0  0  0  0  0
  -30.7840  -15.0350   20.1030 C   0  0  0  0  0  0  0  0  0  0  0  0
  -30.5330  -12.7510   19.1010 C   0  0  0  0  0  2  0  0  0  0  0  0
  -29.5550  -12.8070   17.9080 C   0  0  0  0  0  2  0  0  0  0  0  0
  -28.1070  -12.6140   18.3940 C   0  0  0  0  0  2  0  0  0  0  0  0
  -27.7690  -13.4970   19.6260 C   0  0  0  0  0  3  0  0  0  0  0  0
  -28.8710  -13.4460   20.7050 C   0  0  0  0  0  2  0  0  0  0  0  0
  -30.1320  -13.8170   20.0550 N   0  0  0  0  0  0  0  0  0  0  0  0
  -31.9610  -15.0600   19.7380 O   0  0  0  0  0  0  0  0  0  0  0  0
  -30.0660  -16.2190   20.3440 N   0  0  0  0  0  0  0  0  0  0  0  0
  -29.0900  -16.0600   20.5460 H   0  0  0  0  0  0  0  0  0  0  0  0
  -25.4180  -14.0540   20.4810 C   0  0  0  0  0  0  0  0  0  0  0  0
  -24.3710  -13.2650   20.8720 C   0  0  0  0  0  0  0  0  0  0  0  0
  -24.8340  -11.9170   20.7790 C   0  0  0  0  0  0  0  0  0  0  0  0
  -26.4510  -13.1850   20.1700 N   0  0  0  0  0  0  0  0  0  0  0  0
  -26.1110  -11.8920   20.4140 N   0  0  0  0  0  0  0  0  0  0  0  0
  -24.1170  -10.6470   20.9590 C   0  0  0  0  0  0  0  0  0  0  0  0
  -24.5490   -9.6800   21.8940 C   0  0  0  0  0  3  0  0  0  0  0  0
  -23.8310   -8.4770   22.0640 C   0  0  0  0  0  3  0  0  0  0  0  0
  -22.6660   -8.2320   21.2970 C   0  0  0  0  0  0  0  0  0  0  0  0
  -22.2540   -9.1880   20.3520 C   0  0  0  0  0  3  0  0  0  0  0  0
  -22.9730  -10.3820   20.1810 C   0  0  0  0  0  3  0  0  0  0  0  0
  -21.9190   -7.0810   21.3760 O   0  0  0  0  0  0  0  0  0  0  0  0
  -21.8130   -6.3700   22.5440 C   0  0  0  0  0  0  0  0  0  0  0  0
  -21.2670   -6.9390   23.7160 C   0  0  0  0  0  3  0  0  0  0  0  0
  -21.1130   -6.1510   24.8740 C   0  0  0  0  0  3  0  0  0  0  0  0
  -21.4940   -4.7970   24.8620 C   0  0  0  0  0  0  0  0  0  0  0  0
  -22.0340   -4.2280   23.6950 C   0  0  0  0  0  3  0  0  0  0  0  0
  -22.1890   -5.0120   22.5390 C   0  0  0  0  0  0  0  0  0  0  0  0
  -22.6900   -4.4530   21.4110 F   0  0  0  0  0  0  0  0  0  0  0  0
  -21.3390   -4.0380   25.9730 F   0  0  0  0  0  0  0  0  0  0  0  0
  -22.9860  -13.7310   21.2170 C   0  0  0  0  0  0  0  0  0  0  0  0
  -22.2960  -13.0060   22.0910 N   0  0  0  0  0  0  0  0  0  0  0  0
  -22.5280  -14.7700   20.7470 O   0  0  0  0  0  0  0  0  0  0  0  0
  -22.6820  -12.1650   22.4920 H   0  0  0  0  0  0  0  0  0  0  0  0
  -21.3690  -13.2990   22.3630 H   0  0  0  0  0  0  0  0  0  0  0  0
  -25.5710  -15.4290   20.3380 N   0  0  0  0  0  0  0  0  0  0  0  0
  -24.8040  -16.0740   20.4960 H   0  0  0  0  0  0  0  0  0  0  0  0
  -26.3920  -15.8800   19.9550 H   0  0  0  0  0  0  0  0  0  0  0  0
  -28.5500  -25.2810   19.3780 C   0  0  0  0  0  2  0  0  0  0  0  0
  -28.4080  -26.5740   20.1490 O   0  0  0  0  0  0  0  0  0  0  0  0
  -24.6300  -31.9660   23.2260 C   0  0  0  0  0  0  0  0  0  0  0  0
  -27.2870  -27.4440   20.0700 C   0  0  0  0  0  0  0  0  0  0  0  0
  -23.4390  -30.5740   21.5730 C   0  0  0  0  0  3  0  0  0  0  0  0
  -24.9030  -29.0680   20.1040 C   0  0  0  0  0  0  0  0  0  0  0  0
  -25.9760  -30.9210   21.3800 C   0  0  0  0  0  2  0  0  0  0  0  0
  -26.0720  -29.5500   20.7050 C   0  0  0  0  0  0  0  0  0  0  0  0
  -27.2610  -28.7490   20.6790 C   0  0  0  0  0  3  0  0  0  0  0  0
  -26.0860  -27.0300   19.4510 C   0  0  0  0  0  3  0  0  0  0  0  0
  -24.9170  -27.8170   19.4680 C   0  0  0  0  0  3  0  0  0  0  0  0
  -23.6540  -29.9260   20.1790 C   0  0  0  0  0  2  0  0  0  0  0  0
  -24.7020  -31.1730   22.1160 N   0  0  0  0  0  0  0  0  0  0  0  0
  -23.5450  -32.2170   23.7720 O   0  0  0  0  0  0  0  0  0  0  0  0
  -22.7980  -29.5320   22.5220 C   0  0  0  0  0  0  0  0  0  0  0  0
  -21.4740  -29.3330   22.4030 N   0  0  0  0  0  0  0  0  0  0  0  0
  -23.4930  -28.9070   23.3280 O   0  0  0  0  0  0  0  0  0  0  0  0
  -20.9710  -29.8920   21.7290 H   0  0  0  0  0  0  0  0  0  0  0  0
  -18.1220  -28.0670   22.9140 C   0  0  0  0  0  0  0  0  0  0  0  0
  -20.6780  -28.3690   23.1650 C   0  0  0  0  0  3  0  0  0  0  0  0
  -20.8000  -26.9500   22.5650 C   0  0  0  0  0  2  0  0  0  0  0  0
  -19.6950  -26.6240   21.5550 C   0  0  0  0  0  2  0  0  0  0  0  0
  -18.3160  -26.7330   22.2130 C   0  0  0  0  0  2  0  0  0  0  0  0
  -19.2310  -28.8420   23.3480 C   0  0  0  0  0  0  0  0  0  0  0  0
  -18.9940  -30.0900   23.9640 C   0  0  0  0  0  3  0  0  0  0  0  0
  -17.6820  -30.5640   24.1510 C   0  0  0  0  0  3  0  0  0  0  0  0
  -16.5880  -29.7860   23.7340 C   0  0  0  0  0  3  0  0  0  0  0  0
  -16.8090  -28.5390   23.1210 C   0  0  0  0  0  3  0  0  0  0  0  0
  -25.9040  -32.6120   23.8500 C   0  0  0  0  0  3  0  0  0  0  0  0
  -25.5820  -34.0100   24.1750 N   0  0  0  0  0  0  0  0  0  0  0  0
  -25.9090  -35.0660   23.4180 C   0  0  0  0  0  0  0  0  0  0  0  0
  -26.5850  -34.9660   22.3910 O   0  0  0  0  0  0  0  0  0  0  0  0
  -24.9810  -34.1600   24.9720 H   0  0  0  0  0  0  0  0  0  0  0  0
  -24.1800  -36.8550   23.0450 C   0  0  0  0  0  1  0  0  0  0  0  0
  -25.4110  -36.4520   23.8730 C   0  0  0  0  0  3  0  0  0  0  0  0
  -27.5250  -37.3480   24.7450 C   0  0  0  0  0  1  0  0  0  0  0  0
  -26.4420  -37.5090   23.7780 N   0  0  0  0  0  0  0  0  0  0  0  0
  -26.0290  -38.4270   23.9140 H   0  0  0  0  0  0  0  0  0  0  0  0
  -26.4220  -31.8530   25.1320 C   0  0  1  0  0  0  0  0  0  0  0  0
  -25.3250  -31.6030   26.1940 C   0  0  0  0  0  1  0  0  0  0  0  0
  -27.0280  -30.4830   24.7520 C   0  0  0  0  0  1  0  0  0  0  0  0
  -27.5560  -32.6660   25.8010 C   0  0  0  0  0  1  0  0  0  0  0  0
  1  3  1  0
  2  1  2  0
  3  6  2  0
  4  2  1  0
  4  5  1  0
  5  3  1  0
  7  4  2  0
  8 10  1  0
  9  8  2  0
  9 12  1  0
 10 13  2  0
 12  5  1  0
 12 11  2  0
 13 11  1  0
 13 22  1  0
 14 22  1  0
 15 20  1  0
 16 17  1  0
 16 15  1  0
 18 17  1  0
 18 27  1  0
 18 19  1  0
 20 14  1  0
 20 19  1  0
 21 14  2  0
 22 23  1  0
 24 25  2  0
 25 44  1  0
 26 25  1  0
 26 29  1  0
 27 28  1  0
 27 24  1  0
 28 26  2  0
 29 30  1  0
 30 31  2  0
 32 35  1  0
 32 31  1  0
 33 32  2  0
 34 33  1  0
 34 29  2  0
 35 36  1  0
 36 37  1  0
 37 38  2  0
 39 38  1  0
 39 43  1  0
 40 39  2  0
 41 36  2  0
 41 40  1  0
 42 41  1  0
 44 45  1  0
 45 48  1  0
 45 47  1  0
 46 44  2  0
 49 24  1  0
 49 50  1  0
 51 49  1  0
 52  2  1  0
 52 53  1  0
 54 65  2  0
 55 53  1  0
 55 60  1  0
 56 64  1  0
 56 66  1  0
 57 63  1  0
 57 59  1  0
 58 64  1  0
 59 58  1  0
 60 59  2  0
 61 62  1  0
 61 55  2  0
 62 57  2  0
 63 56  1  0
 64 54  1  0
 66 68  2  0
 67 66  1  0
 69 67  1  0
 70 79  2  0
 70 75  1  0
 71 67  1  0
 71 75  1  0
 72 71  1  0
 73 74  1  0
 73 72  1  0
 74 70  1  0
 75 76  2  0
 76 77  1  0
 78 77  2  0
 79 78  1  0
 80 54  1  0
 80 81  1  0
 80 90  1  0
 81 84  1  0
 82 86  1  0
 82 81  1  0
 83 82  2  0
 86 85  1  0
 88 86  1  0
 88 89  1  0
 88 87  1  0
 90 93  1  1
 90 91  1  0
 92 90  1  0
M  ISO  4  14 100  22 100  52 101  53 101
M  END
>  <TORSDO>  (11) 
F 18

>  <SCORE>  (11) 
-14.060

>  <name>  (11) 
10

>  <ligand_id>  (11) 
10

>  <original_smiles>  (11) 
[H]C1=C(C([H])([H])Oc2c([H])c([H])c3c(c2[H])C([H])([H])N(C(=O)C([H])(N([H])C(=O)C([H])(N([H])C([H])([H])[H])C([H])([H])[H])C(C([H])([H])[H])(C([H])([H])[H])C([H])([H])[H])C([H])(C(=O)N([H])C2([H])c4c([H])c([H])c([H])c([H])c4C([H])([H])C([H])([H])C2([H])[H])C3([H])[H])C(=O)N(c2c([H])c([H])c([H])c(N([H])C(=O)N3C([H])([H])C([H])([H])C([H])([H])C([H])(n4nc(-c5c([H])c([H])c(Oc6c([H])c([H])c(F)c([H])c6F)c([H])c5[H])c(C(=O)N([H])[H])c4N([H])[H])C3([H])[H])c2[H])C1=O

>  <smiles>  (11) 
[H]C1=C(C([H])([H])Oc2c([H])c([H])c3c(c2[H])C([H])([H])N(C(=O)C([H])(N([H])C(=O)C([H])(N([H])C([H])([H])[H])C([H])([H])[H])C(C([H])([H])[H])(C([H])([H])[H])C([H])([H])[H])C([H])(C(=O)N([H])C2([H])c4c([H])c([H])c([H])c([H])c4C([H])([H])C([H])([H])C2([H])[H])C3([H])[H])C(=O)N(c2c([H])c([H])c([H])c(N([H])C(=O)N3C([H])([H])C([H])([H])C([H])([H])C([H])(n4nc(-c5c([H])c([H])c(Oc6c([H])c([H])c(F)c([H])c6F)c([H])c5[H])c(C(=O)N([H])[H])c4N([H])[H])C3([H])[H])c2[H])C1=O

$$$$
11:0:0
     RDKit          3D

 97105  0  0  1  0  0  0  0  0999 V2000
  -28.4630  -22.9730   20.2850 C   0  0  0  0  0  3  0  0  0  0  0  0
  -29.1320  -20.5730   19.9550 C   0  0  0  0  0  0  0  0  0  0  0  0
  -29.3800  -21.8170   20.4160 N   0  0  0  0  0  0  0  0  0  0  0  0
  -28.1180  -20.3020   19.3090 O   0  0  0  0  0  0  0  0  0  0  0  0
  -30.2300  -21.9700   20.9360 H   0  0  0  0  0  0  0  0  0  0  0  0
  -32.3430  -18.7270   20.9680 C   0  0  0  0  0  3  0  0  0  0  0  0
  -31.4390  -19.7630   20.6670 C   0  0  0  0  0  3  0  0  0  0  0  0
  -31.9330  -17.3800   20.9150 C   0  0  0  0  0  3  0  0  0  0  0  0
  -29.6940  -18.1020   20.2870 C   0  0  0  0  0  3  0  0  0  0  0  0
  -30.0990  -19.4680   20.3290 C   0  0  0  0  0  0  0  0  0  0  0  0
  -30.6070  -17.0470   20.5570 C   0  0  0  0  0  0  0  0  0  0  0  0
  -30.8730  -14.6200   20.0300 C   0  0  0  0  0  0  0  0  0  0  0  0
  -30.5450  -12.4060   18.9840 C   0  0  0  0  0  2  0  0  0  0  0  0
  -29.5590  -12.5430   17.8060 C   0  0  0  0  0  2  0  0  0  0  0  0
  -28.1050  -12.4080   18.2970 C   0  0  0  0  0  2  0  0  0  0  0  0
  -27.8030  -13.2980   19.5320 C   0  0  0  0  0  3  0  0  0  0  0  0
  -28.9010  -13.1500   20.6080 C   0  0  0  0  0  2  0  0  0  0  0  0
  -30.1970  -13.4390   19.9740 N   0  0  0  0  0  0  0  0  0  0  0  0
  -31.9920  -14.7610   19.5270 O   0  0  0  0  0  0  0  0  0  0  0  0
  -30.1770  -15.6790   20.5060 N   0  0  0  0  0  0  0  0  0  0  0  0
  -29.2130  -15.4930   20.7380 H   0  0  0  0  0  0  0  0  0  0  0  0
  -25.4540  -13.9220   20.3750 C   0  0  0  0  0  0  0  0  0  0  0  0
  -24.3920  -13.1580   20.7780 C   0  0  0  0  0  0  0  0  0  0  0  0
  -24.8290  -11.8010   20.6910 C   0  0  0  0  0  0  0  0  0  0  0  0
  -26.4710  -13.0320   20.0720 N   0  0  0  0  0  0  0  0  0  0  0  0
  -26.1010  -11.7490   20.3180 N   0  0  0  0  0  0  0  0  0  0  0  0
  -24.0910  -10.5450   20.8850 C   0  0  0  0  0  0  0  0  0  0  0  0
  -24.4680   -9.6130   21.8760 C   0  0  0  0  0  3  0  0  0  0  0  0
  -23.7330   -8.4210   22.0560 C   0  0  0  0  0  3  0  0  0  0  0  0
  -22.6050   -8.1550   21.2430 C   0  0  0  0  0  0  0  0  0  0  0  0
  -22.2490   -9.0750   20.2420 C   0  0  0  0  0  3  0  0  0  0  0  0
  -22.9850  -10.2580   20.0610 C   0  0  0  0  0  3  0  0  0  0  0  0
  -21.8460   -7.0130   21.3270 O   0  0  0  0  0  0  0  0  0  0  0  0
  -21.6520   -6.3650   22.5210 C   0  0  0  0  0  0  0  0  0  0  0  0
  -20.9970   -6.9850   23.6070 C   0  0  0  0  0  3  0  0  0  0  0  0
  -20.7570   -6.2600   24.7920 C   0  0  0  0  0  3  0  0  0  0  0  0
  -21.1610   -4.9150   24.8880 C   0  0  0  0  0  0  0  0  0  0  0  0
  -21.8090   -4.2940   23.8060 C   0  0  0  0  0  3  0  0  0  0  0  0
  -22.0510   -5.0170   22.6240 C   0  0  0  0  0  0  0  0  0  0  0  0
  -22.6560   -4.4080   21.5770 F   0  0  0  0  0  0  0  0  0  0  0  0
  -20.9240   -4.2150   26.0230 F   0  0  0  0  0  0  0  0  0  0  0  0
  -23.0190  -13.6500   21.1310 C   0  0  0  0  0  0  0  0  0  0  0  0
  -22.3100  -12.9250   21.9900 N   0  0  0  0  0  0  0  0  0  0  0  0
  -22.5850  -14.7110   20.6830 O   0  0  0  0  0  0  0  0  0  0  0  0
  -22.6740  -12.0660   22.3720 H   0  0  0  0  0  0  0  0  0  0  0  0
  -21.3900  -13.2350   22.2680 H   0  0  0  0  0  0  0  0  0  0  0  0
  -25.6330  -15.2940   20.2220 N   0  0  0  0  0  0  0  0  0  0  0  0
  -24.8780  -15.9550   20.3750 H   0  0  0  0  0  0  0  0  0  0  0  0
  -26.4630  -15.7270   19.8360 H   0  0  0  0  0  0  0  0  0  0  0  0
  -27.7010  -23.2050   21.5900 C   0  0  0  0  0  0  0  0  0  0  0  0
  -28.5360  -23.4360   22.8340 C   0  0  0  0  0  1  0  0  0  0  0  0
  -26.4370  -23.1690   21.6460 N   0  0  0  0  0  0  0  0  0  0  0  0
  -26.0930  -23.3230   22.5890 H   0  0  0  0  0  0  0  0  0  0  0  0
  -29.1190  -24.3050   19.8030 C   0  0  0  0  0  0  0  0  0  0  0  0
  -30.3270  -24.5500   19.9160 O   0  0  0  0  0  0  0  0  0  0  0  0
  -28.1570  -25.3200   19.1420 C   0  0  0  0  0  2  0  0  0  0  0  0
  -28.2920  -26.6940   19.6010 O   0  0  0  0  0  0  0  0  0  0  0  0
  -24.6670  -31.7950   23.0830 C   0  0  0  0  0  0  0  0  0  0  0  0
  -27.1360  -27.4690   19.6530 C   0  0  0  0  0  0  0  0  0  0  0  0
  -23.3800  -30.4730   21.4420 C   0  0  0  0  0  3  0  0  0  0  0  0
  -24.7560  -29.0170   19.8700 C   0  0  0  0  0  0  0  0  0  0  0  0
  -25.9010  -30.8270   21.1420 C   0  0  0  0  0  2  0  0  0  0  0  0
  -25.9490  -29.4880   20.4300 C   0  0  0  0  0  0  0  0  0  0  0  0
  -27.1390  -28.7210   20.3260 C   0  0  0  0  0  3  0  0  0  0  0  0
  -25.9170  -27.0490   19.0600 C   0  0  0  0  0  3  0  0  0  0  0  0
  -24.7380  -27.7960   19.1850 C   0  0  0  0  0  3  0  0  0  0  0  0
  -23.5200  -29.8730   20.0200 C   0  0  0  0  0  2  0  0  0  0  0  0
  -24.6710  -31.0450   21.9460 N   0  0  0  0  0  0  0  0  0  0  0  0
  -23.6130  -32.0410   23.6870 O   0  0  0  0  0  0  0  0  0  0  0  0
  -22.7780  -29.4020   22.3790 C   0  0  0  0  0  0  0  0  0  0  0  0
  -21.4510  -29.2070   22.2950 N   0  0  0  0  0  0  0  0  0  0  0  0
  -23.4990  -28.7520   23.1420 O   0  0  0  0  0  0  0  0  0  0  0  0
  -20.9280  -29.7860   21.6510 H   0  0  0  0  0  0  0  0  0  0  0  0
  -18.1130  -27.9470   22.8680 C   0  0  0  0  0  0  0  0  0  0  0  0
  -20.6750  -28.2290   23.0570 C   0  0  0  0  0  3  0  0  0  0  0  0
  -20.7740  -26.8220   22.4230 C   0  0  0  0  0  2  0  0  0  0  0  0
  -19.6400  -26.5240   21.4380 C   0  0  0  0  0  2  0  0  0  0  0  0
  -18.2800  -26.6270   22.1350 C   0  0  0  0  0  2  0  0  0  0  0  0
  -19.2370  -28.7070   23.2870 C   0  0  0  0  0  0  0  0  0  0  0  0
  -19.0230  -29.9450   23.9330 C   0  0  0  0  0  3  0  0  0  0  0  0
  -17.7200  -30.4210   24.1630 C   0  0  0  0  0  3  0  0  0  0  0  0
  -16.6110  -29.6570   23.7600 C   0  0  0  0  0  3  0  0  0  0  0  0
  -16.8090  -28.4220   23.1190 C   0  0  0  0  0  3  0  0  0  0  0  0
  -25.9820  -32.4000   23.6650 C   0  0  0  0  0  3  0  0  0  0  0  0
  -25.6860  -33.7770   24.0840 N   0  0  0  0  0  0  0  0  0  0  0  0
  -25.9810  -34.8700   23.3680 C   0  0  0  0  0  0  0  0  0  0  0  0
  -26.6040  -34.8250   22.3040 O   0  0  0  0  0  0  0  0  0  0  0  0
  -25.1290  -33.8850   24.9190 H   0  0  0  0  0  0  0  0  0  0  0  0
  -24.2540  -36.6870   23.1630 C   0  0  0  0  0  1  0  0  0  0  0  0
  -25.5100  -36.2290   23.9210 C   0  0  0  0  0  3  0  0  0  0  0  0
  -27.6580  -37.0610   24.7720 C   0  0  0  0  0  1  0  0  0  0  0  0
  -26.5450  -37.2840   23.8520 N   0  0  0  0  0  0  0  0  0  0  0  0
  -26.1430  -38.1950   24.0560 H   0  0  0  0  0  0  0  0  0  0  0  0
  -26.5710  -31.5640   24.8670 C   0  0  1  0  0  0  0  0  0  0  0  0
  -25.5390  -31.2600   25.9770 C   0  0  0  0  0  1  0  0  0  0  0  0
  -27.1390  -30.2150   24.3700 C   0  0  0  0  0  1  0  0  0  0  0  0
  -27.7500  -32.3310   25.5080 C   0  0  0  0  0  1  0  0  0  0  0  0
  1 54  1  0
  1  3  1  0
  1 50  1  0
  2 10  1  0
  2  3  1  0
  3  5  1  0
  4  2  2  0
  7  6  2  0
  8  6  1  0
  9 10  2  0
  9 11  1  0
 10  7  1  0
 11  8  2  0
 12 20  1  0
 13 18  1  0
 14 15  1  0
 14 13  1  0
 16 15  1  0
 16 25  1  0
 16 17  1  0
 18 12  1  0
 18 17  1  0
 19 12  2  0
 20 11  1  0
 20 21  1  0
 22 23  2  0
 23 42  1  0
 24 23  1  0
 24 27  1  0
 25 26  1  0
 25 22  1  0
 26 24  2  0
 27 28  1  0
 28 29  2  0
 30 33  1  0
 30 29  1  0
 31 30  2  0
 32 31  1  0
 32 27  2  0
 33 34  1  0
 34 39  2  0
 34 35  1  0
 35 36  2  0
 36 37  1  0
 37 41  1  0
 38 37  2  0
 39 38  1  0
 40 39  1  0
 42 43  1  0
 43 46  1  0
 43 45  1  0
 44 42  2  0
 47 22  1  0
 47 48  1  0
 49 47  1  0
 50 52  2  0
 50 51  1  0
 52 53  1  0
 54 55  2  0
 56 57  1  0
 56 54  1  0
 57 59  1  0
 58 69  2  0
 59 64  1  0
 60 68  1  0
 60 70  1  0
 61 67  1  0
 61 63  1  0
 62 68  1  0
 63 62  1  0
 64 63  2  0
 65 66  1  0
 65 59  2  0
 66 61  2  0
 67 60  1  0
 68 58  1  0
 70 72  2  0
 71 70  1  0
 73 71  1  0
 74 83  2  0
 74 79  1  0
 75 71  1  0
 75 79  1  0
 76 75  1  0
 77 78  1  0
 77 76  1  0
 78 74  1  0
 79 80  2  0
 80 81  1  0
 82 81  2  0
 83 82  1  0
 84 58  1  0
 84 85  1  0
 84 94  1  0
 85 88  1  0
 86 90  1  0
 86 85  1  0
 87 86  2  0
 90 89  1  0
 92 90  1  0
 92 93  1  0
 92 91  1  0
 94 97  1  1
 94 95  1  0
 96 94  1  0
M  ISO  4  12 100  20 100  56 101  57 101
M  END
>  <TORSDO>  (12) 
F 21

>  <SCORE>  (12) 
-13.060

>  <name>  (12) 
11

>  <ligand_id>  (12) 
11

>  <original_smiles>  (12) 
[H]N=C(C([H])([H])[H])C([H])(C(=O)C([H])([H])Oc1c([H])c([H])c2c(c1[H])C([H])([H])N(C(=O)C([H])(N([H])C(=O)C([H])(N([H])C([H])([H])[H])C([H])([H])[H])C(C([H])([H])[H])(C([H])([H])[H])C([H])([H])[H])C([H])(C(=O)N([H])C1([H])c3c([H])c([H])c([H])c([H])c3C([H])([H])C([H])([H])C1([H])[H])C2([H])[H])N([H])C(=O)c1c([H])c([H])c([H])c(N([H])C(=O)N2C([H])([H])C([H])([H])C([H])([H])C([H])(n3nc(-c4c([H])c([H])c(Oc5c([H])c([H])c(F)c([H])c5F)c([H])c4[H])c(C(=O)N([H])[H])c3N([H])[H])C2([H])[H])c1[H]

>  <smiles>  (12) 
[H]N=C(C([H])([H])[H])C([H])(C(=O)C([H])([H])Oc1c([H])c([H])c2c(c1[H])C([H])([H])N(C(=O)C([H])(N([H])C(=O)C([H])(N([H])C([H])([H])[H])C([H])([H])[H])C(C([H])([H])[H])(C([H])([H])[H])C([H])([H])[H])C([H])(C(=O)N([H])C1([H])c3c([H])c([H])c([H])c([H])c3C([H])([H])C([H])([H])C1([H])[H])C2([H])[H])N([H])C(=O)c1c([H])c([H])c([H])c(N([H])C(=O)N2C([H])([H])C([H])([H])C([H])([H])C([H])(n3nc(-c4c([H])c([H])c(Oc5c([H])c([H])c(F)c([H])c5F)c([H])c4[H])c(C(=O)N([H])[H])c3N([H])[H])C2([H])[H])c1[H]

$$$$
12:0:0
     RDKit          3D

 99108  0  0  1  0  0  0  0  0999 V2000
  -29.5100  -23.8980   23.4170 C   0  0  0  0  0  0  0  0  0  0  0  0
  -28.7460  -24.0940   20.3540 C   0  0  0  0  0  0  0  0  0  0  0  0
  -30.2680  -23.4710   22.1430 C   0  0  0  0  0  2  0  0  0  0  0  0
  -28.0530  -25.6960   22.3040 C   0  0  0  0  0  2  0  0  0  0  0  0
  -28.7970  -25.5920   20.9440 C   0  0  0  0  0  3  0  0  0  0  0  0
  -28.5480  -24.8380   23.3940 N   0  0  0  0  0  0  0  0  0  0  0  0
  -29.4100  -23.0490   21.0090 N   0  0  0  0  0  0  0  0  0  0  0  0
  -29.7990  -23.3520   24.4790 O   0  0  0  0  0  0  0  0  0  0  0  0
  -28.0990  -23.9090   19.3200 O   0  0  0  0  0  0  0  0  0  0  0  0
  -28.1130  -25.0200   24.2900 H   0  0  0  0  0  0  0  0  0  0  0  0
  -29.9770  -19.2090   21.4730 C   0  0  0  0  0  3  0  0  0  0  0  0
  -28.8470  -19.5050   19.3880 C   0  0  0  0  0  3  0  0  0  0  0  0
  -29.9350  -20.6240   21.6750 C   0  0  0  0  0  3  0  0  0  0  0  0
  -28.8230  -20.9320   19.5840 C   0  0  0  0  0  3  0  0  0  0  0  0
  -29.4410  -18.5910   20.3170 C   0  0  0  0  0  0  0  0  0  0  0  0
  -29.3760  -21.5680   20.7410 C   0  0  0  0  0  0  0  0  0  0  0  0
  -30.5610  -14.9520   19.9910 C   0  0  0  0  0  0  0  0  0  0  0  0
  -30.5550  -12.6690   18.9390 C   0  0  0  0  0  2  0  0  0  0  0  0
  -29.5470  -12.7010   17.7600 C   0  0  0  0  0  2  0  0  0  0  0  0
  -28.0970  -12.4830   18.2460 C   0  0  0  0  0  2  0  0  0  0  0  0
  -27.7440  -13.3740   19.4600 C   0  0  0  0  0  3  0  0  0  0  0  0
  -28.8370  -13.2210   20.5470 C   0  0  0  0  0  2  0  0  0  0  0  0
  -30.1150  -13.6520   19.9470 N   0  0  0  0  0  0  0  0  0  0  0  0
  -31.6730  -15.3050   19.5710 O   0  0  0  0  0  0  0  0  0  0  0  0
  -28.9650  -17.1550   20.4420 C   0  0  0  0  0  0  0  0  0  0  0  0
  -29.4450  -15.8560   20.3620 N   0  0  0  0  0  0  0  0  0  0  0  0
  -27.6690  -17.1810   20.7810 N   0  0  0  0  0  4  0  0  0  0  0  0
  -28.6790  -15.3150   20.7050 H   0  0  0  0  0  0  0  0  0  0  0  0
  -27.2750  -18.0890   20.9770 H   0  0  0  0  0  0  0  0  0  0  0  0
  -26.9980  -16.4130   20.7070 H   0  0  0  0  0  0  0  0  0  0  0  0
  -25.3900  -13.9940   20.2860 C   0  0  0  0  0  0  0  0  0  0  0  0
  -24.3340  -13.2210   20.6900 C   0  0  0  0  0  0  0  0  0  0  0  0
  -24.7920  -11.8680   20.6230 C   0  0  0  0  0  0  0  0  0  0  0  0
  -26.4130  -13.1070   19.9870 N   0  0  0  0  0  0  0  0  0  0  0  0
  -26.0660  -11.8280   20.2610 N   0  0  0  0  0  0  0  0  0  0  0  0
  -24.0740  -10.6050   20.8280 C   0  0  0  0  0  0  0  0  0  0  0  0
  -24.4890   -9.6760   21.8070 C   0  0  0  0  0  3  0  0  0  0  0  0
  -23.7790   -8.4710   21.9930 C   0  0  0  0  0  3  0  0  0  0  0  0
  -22.6430   -8.1890   21.2000 C   0  0  0  0  0  0  0  0  0  0  0  0
  -22.2490   -9.1050   20.2090 C   0  0  0  0  0  3  0  0  0  0  0  0
  -22.9600  -10.3020   20.0210 C   0  0  0  0  0  3  0  0  0  0  0  0
  -21.9030   -7.0360   21.2960 O   0  0  0  0  0  0  0  0  0  0  0  0
  -21.7280   -6.3920   22.4930 C   0  0  0  0  0  0  0  0  0  0  0  0
  -21.1300   -7.0310   23.6030 C   0  0  0  0  0  3  0  0  0  0  0  0
  -20.9080   -6.3090   24.7920 C   0  0  0  0  0  3  0  0  0  0  0  0
  -21.2730   -4.9520   24.8730 C   0  0  0  0  0  0  0  0  0  0  0  0
  -21.8600   -4.3130   23.7660 C   0  0  0  0  0  3  0  0  0  0  0  0
  -22.0870   -5.0320   22.5800 C   0  0  0  0  0  0  0  0  0  0  0  0
  -22.6380   -4.4070   21.5110 F   0  0  0  0  0  0  0  0  0  0  0  0
  -21.0490   -4.2560   26.0110 F   0  0  0  0  0  0  0  0  0  0  0  0
  -22.9510  -13.6960   21.0210 C   0  0  0  0  0  0  0  0  0  0  0  0
  -22.2540  -12.9920   21.9090 N   0  0  0  0  0  0  0  0  0  0  0  0
  -22.4960  -14.7250   20.5240 O   0  0  0  0  0  0  0  0  0  0  0  0
  -22.6300  -12.1510   22.3190 H   0  0  0  0  0  0  0  0  0  0  0  0
  -21.3230  -13.2900   22.1690 H   0  0  0  0  0  0  0  0  0  0  0  0
  -25.5650  -15.3670   20.1250 N   0  0  0  0  0  0  0  0  0  0  0  0
  -24.6750  -15.8390   20.2450 H   0  0  0  0  0  0  0  0  0  0  0  0
  -25.9290  -15.5960   19.2060 H   0  0  0  0  0  0  0  0  0  0  0  0
  -28.5530  -26.7250   20.0080 O   0  0  0  0  0  0  0  0  0  0  0  0
  -24.6790  -31.9420   23.2090 C   0  0  0  0  0  0  0  0  0  0  0  0
  -27.4110  -27.5330   20.0730 C   0  0  0  0  0  0  0  0  0  0  0  0
  -23.5130  -30.5580   21.5310 C   0  0  0  0  0  3  0  0  0  0  0  0
  -25.0060  -29.0830   20.0690 C   0  0  0  0  0  0  0  0  0  0  0  0
  -26.0400  -30.9530   21.3600 C   0  0  0  0  0  2  0  0  0  0  0  0
  -26.1570  -29.5910   20.6860 C   0  0  0  0  0  0  0  0  0  0  0  0
  -27.3630  -28.8280   20.6780 C   0  0  0  0  0  3  0  0  0  0  0  0
  -26.2420  -27.0750   19.4330 C   0  0  0  0  0  3  0  0  0  0  0  0
  -25.0500  -27.8290   19.4360 C   0  0  0  0  0  3  0  0  0  0  0  0
  -23.7440  -29.9210   20.1370 C   0  0  0  0  0  2  0  0  0  0  0  0
  -24.7620  -31.1650   22.0910 N   0  0  0  0  0  0  0  0  0  0  0  0
  -23.5880  -32.1740   23.7500 O   0  0  0  0  0  0  0  0  0  0  0  0
  -22.8770  -29.4990   22.4600 C   0  0  0  0  0  0  0  0  0  0  0  0
  -21.5580  -29.2850   22.3220 N   0  0  0  0  0  0  0  0  0  0  0  0
  -23.5720  -28.8750   23.2670 O   0  0  0  0  0  0  0  0  0  0  0  0
  -21.0550  -29.8270   21.6340 H   0  0  0  0  0  0  0  0  0  0  0  0
  -18.2120  -28.0110   22.8150 C   0  0  0  0  0  0  0  0  0  0  0  0
  -20.7700  -28.3050   23.0680 C   0  0  0  0  0  3  0  0  0  0  0  0
  -20.8880  -26.8990   22.4370 C   0  0  0  0  0  2  0  0  0  0  0  0
  -19.7810  -26.5960   21.4230 C   0  0  0  0  0  2  0  0  0  0  0  0
  -18.4050  -26.6950   22.0820 C   0  0  0  0  0  2  0  0  0  0  0  0
  -19.3240  -28.7750   23.2630 C   0  0  0  0  0  0  0  0  0  0  0  0
  -19.0840  -30.0100   23.9080 C   0  0  0  0  0  3  0  0  0  0  0  0
  -17.7720  -30.4840   24.1030 C   0  0  0  0  0  3  0  0  0  0  0  0
  -16.6780  -29.7140   23.6730 C   0  0  0  0  0  3  0  0  0  0  0  0
  -16.8980  -28.4800   23.0340 C   0  0  0  0  0  3  0  0  0  0  0  0
  -25.9440  -32.5910   23.8510 C   0  0  0  0  0  3  0  0  0  0  0  0
  -25.6110  -33.9870   24.1690 N   0  0  0  0  0  0  0  0  0  0  0  0
  -25.9440  -35.0420   23.4130 C   0  0  0  0  0  0  0  0  0  0  0  0
  -26.6300  -34.9400   22.3910 O   0  0  0  0  0  0  0  0  0  0  0  0
  -25.0020  -34.1380   24.9590 H   0  0  0  0  0  0  0  0  0  0  0  0
  -24.1970  -36.8120   23.0300 C   0  0  0  0  0  1  0  0  0  0  0  0
  -25.4350  -36.4270   23.8550 C   0  0  0  0  0  3  0  0  0  0  0  0
  -27.5450  -37.3480   24.7100 C   0  0  0  0  0  1  0  0  0  0  0  0
  -26.4570  -37.4890   23.7470 N   0  0  0  0  0  0  0  0  0  0  0  0
  -26.0410  -38.4070   23.8750 H   0  0  0  0  0  0  0  0  0  0  0  0
  -26.4460  -31.8310   25.1420 C   0  0  1  0  0  0  0  0  0  0  0  0
  -25.3330  -31.5710   26.1830 C   0  0  0  0  0  1  0  0  0  0  0  0
  -27.0650  -30.4630   24.7700 C   0  0  0  0  0  1  0  0  0  0  0  0
  -27.5650  -32.6470   25.8340 C   0  0  0  0  0  1  0  0  0  0  0  0
  1  8  2  0
  2  5  1  0
  2  7  1  0
  3  1  1  0
  4  6  1  0
  5 59  1  0
  5  4  1  0
  6  1  1  0
  6 10  1  0
  7  3  1  0
  9  2  2  0
 11 13  1  0
 12 14  2  0
 12 15  1  0
 14 16  1  0
 15 25  1  0
 15 11  2  0
 16  7  1  0
 16 13  2  0
 17 26  1  0
 18 23  1  0
 19 20  1  0
 19 18  1  0
 21 20  1  0
 21 34  1  0
 21 22  1  0
 23 17  1  0
 23 22  1  0
 24 17  2  0
 25 27  2  0
 26 25  1  0
 26 28  1  0
 27 29  1  0
 30 27  1  0
 31 32  2  0
 32 51  1  0
 33 32  1  0
 33 36  1  0
 34 35  1  0
 34 31  1  0
 35 33  2  0
 36 37  1  0
 37 38  2  0
 39 42  1  0
 39 38  1  0
 40 39  2  0
 41 40  1  0
 41 36  2  0
 42 43  1  0
 43 48  2  0
 43 44  1  0
 44 45  2  0
 45 46  1  0
 46 50  1  0
 47 46  2  0
 48 47  1  0
 49 48  1  0
 51 52  1  0
 52 55  1  0
 52 54  1  0
 53 51  2  0
 56 57  1  0
 56 31  1  0
 58 56  1  0
 59 61  1  0
 60 71  2  0
 61 66  1  0
 62 70  1  0
 62 72  1  0
 63 69  1  0
 63 65  1  0
 64 70  1  0
 65 64  1  0
 66 65  2  0
 67 68  1  0
 67 61  2  0
 68 63  2  0
 69 62  1  0
 70 60  1  0
 72 74  2  0
 73 72  1  0
 75 73  1  0
 76 85  2  0
 76 81  1  0
 77 73  1  0
 77 81  1  0
 78 77  1  0
 79 80  1  0
 79 78  1  0
 80 76  1  0
 81 82  2  0
 82 83  1  0
 84 83  2  0
 85 84  1  0
 86 60  1  0
 86 87  1  0
 86 96  1  0
 87 90  1  0
 88 92  1  0
 88 87  1  0
 89 88  2  0
 92 91  1  0
 94 92  1  0
 94 95  1  0
 94 93  1  0
 96 99  1  1
 96 97  1  0
 98 96  1  0
M  ISO  4   5 101  17 100  26 100  59 101
M  END
>  <TORSDO>  (13) 
F 17

>  <SCORE>  (13) 
-14.584

>  <name>  (13) 
12

>  <ligand_id>  (13) 
12

>  <original_smiles>  (13) 
[H]c1c([H])c([H])c2c(c1[H])C([H])([H])C([H])([H])C([H])([H])C2([H])N([H])C(=O)C1([H])N(C(=O)C([H])(N([H])C(=O)C([H])(N([H])C([H])([H])[H])C([H])([H])[H])C(C([H])([H])[H])(C([H])([H])[H])C([H])([H])[H])C([H])([H])c2c([H])c(OC3([H])C(=O)N(c4c([H])c([H])c(C(N([H])C(=O)N5C([H])([H])C([H])([H])C([H])([H])C([H])(n6nc(-c7c([H])c([H])c(Oc8c([H])c([H])c(F)c([H])c8F)c([H])c7[H])c(C(=O)N([H])[H])c6N([H])[H])C5([H])[H])=[N+]([H])[H])c([H])c4[H])C([H])([H])C(=O)N([H])C3([H])[H])c([H])c([H])c2C1([H])[H]

>  <smiles>  (13) 
[H]c1c([H])c([H])c2c(c1[H])C([H])([H])C([H])([H])C([H])([H])C2([H])N([H])C(=O)C1([H])N(C(=O)C([H])(N([H])C(=O)C([H])(N([H])C([H])([H])[H])C([H])([H])[H])C(C([H])([H])[H])(C([H])([H])[H])C([H])([H])[H])C([H])([H])c2c([H])c(OC3([H])C(=O)N(c4c([H])c([H])c(C(N([H])C(=O)N5C([H])([H])C([H])([H])C([H])([H])C([H])(n6nc(-c7c([H])c([H])c(Oc8c([H])c([H])c(F)c([H])c8F)c([H])c7[H])c(C(=O)N([H])[H])c6N([H])[H])C5([H])[H])=[N+]([H])[H])c([H])c4[H])C([H])([H])C(=O)N([H])C3([H])[H])c([H])c([H])c2C1([H])[H]

$$$$
13:0:0
     RDKit          3D

 92101  0  0  1  0  0  0  0  0999 V2000
  -28.5250  -23.6620   20.3990 C   0  0  0  0  0  0  0  0  0  0  0  0
  -28.1030  -22.3290   20.8960 C   0  0  0  0  0  0  0  0  0  0  0  0
  -27.9510  -24.9400   20.5920 C   0  0  0  0  0  3  0  0  0  0  0  0
  -29.7120  -22.9490   19.6980 C   0  0  0  0  0  2  0  0  0  0  0  0
  -29.1740  -21.6510   20.2430 N   0  0  0  0  0  0  0  0  0  0  0  0
  -27.1740  -22.0120   21.6090 O   0  0  0  0  0  0  0  0  0  0  0  0
  -29.4620  -18.8750   20.4120 C   0  0  0  0  0  3  0  0  0  0  0  0
  -30.9930  -20.3030   19.2480 C   0  0  0  0  0  3  0  0  0  0  0  0
  -31.3710  -17.8800   19.2910 C   0  0  0  0  0  3  0  0  0  0  0  0
  -29.8030  -20.2730   20.0170 C   0  0  0  0  0  0  0  0  0  0  0  0
  -30.2270  -17.6380   20.0830 C   0  0  0  0  0  0  0  0  0  0  0  0
  -31.7440  -19.1690   18.8900 C   0  0  0  0  0  0  0  0  0  0  0  0
  -32.8550  -19.3270   18.1310 F   0  0  0  0  0  0  0  0  0  0  0  0
  -30.6460  -14.9810   20.2800 C   0  0  0  0  0  0  0  0  0  0  0  0
  -30.4650  -12.6560   19.3340 C   0  0  0  0  0  2  0  0  0  0  0  0
  -29.5290  -12.6620   18.1050 C   0  0  0  0  0  2  0  0  0  0  0  0
  -28.0650  -12.4690   18.5420 C   0  0  0  0  0  2  0  0  0  0  0  0
  -27.6760  -13.3740   19.7430 C   0  0  0  0  0  3  0  0  0  0  0  0
  -28.7410  -13.3590   20.8610 C   0  0  0  0  0  2  0  0  0  0  0  0
  -30.0160  -13.7450   20.2450 N   0  0  0  0  0  0  0  0  0  0  0  0
  -31.8490  -14.9990   20.0090 O   0  0  0  0  0  0  0  0  0  0  0  0
  -29.9070  -16.1840   20.4360 N   0  0  0  0  0  0  0  0  0  0  0  0
  -28.9640  -16.0290   20.7590 H   0  0  0  0  0  0  0  0  0  0  0  0
  -25.2990  -13.9380   20.5080 C   0  0  0  0  0  0  0  0  0  0  0  0
  -24.2400  -13.1550   20.8780 C   0  0  0  0  0  0  0  0  0  0  0  0
  -24.7090  -11.8060   20.8290 C   0  0  0  0  0  0  0  0  0  0  0  0
  -26.3430  -13.0660   20.2490 N   0  0  0  0  0  0  0  0  0  0  0  0
  -25.9980  -11.7780   20.5090 N   0  0  0  0  0  0  0  0  0  0  0  0
  -23.9880  -10.5400   21.0100 C   0  0  0  0  0  0  0  0  0  0  0  0
  -24.4030   -9.5800   21.9590 C   0  0  0  0  0  3  0  0  0  0  0  0
  -23.6800   -8.3790   22.1290 C   0  0  0  0  0  3  0  0  0  0  0  0
  -22.5250   -8.1300   21.3480 C   0  0  0  0  0  0  0  0  0  0  0  0
  -22.1300   -9.0790   20.3890 C   0  0  0  0  0  3  0  0  0  0  0  0
  -22.8540  -10.2710   20.2180 C   0  0  0  0  0  3  0  0  0  0  0  0
  -21.7750   -6.9830   21.4270 O   0  0  0  0  0  0  0  0  0  0  0  0
  -21.6760   -6.2650   22.5910 C   0  0  0  0  0  0  0  0  0  0  0  0
  -21.1570   -6.8340   23.7760 C   0  0  0  0  0  3  0  0  0  0  0  0
  -21.0080   -6.0420   24.9310 C   0  0  0  0  0  3  0  0  0  0  0  0
  -21.3660   -4.6810   24.9040 C   0  0  0  0  0  0  0  0  0  0  0  0
  -21.8770   -4.1110   23.7240 C   0  0  0  0  0  3  0  0  0  0  0  0
  -22.0290   -4.9010   22.5710 C   0  0  0  0  0  0  0  0  0  0  0  0
  -22.5010   -4.3410   21.4320 F   0  0  0  0  0  0  0  0  0  0  0  0
  -21.2160   -3.9170   26.0110 F   0  0  0  0  0  0  0  0  0  0  0  0
  -22.8440  -13.6250   21.1610 C   0  0  0  0  0  0  0  0  0  0  0  0
  -22.1220  -12.9150   22.0220 N   0  0  0  0  0  0  0  0  0  0  0  0
  -22.4010  -14.6550   20.6560 O   0  0  0  0  0  0  0  0  0  0  0  0
  -22.4940  -12.0820   22.4530 H   0  0  0  0  0  0  0  0  0  0  0  0
  -21.1850  -13.2110   22.2550 H   0  0  0  0  0  0  0  0  0  0  0  0
  -25.4540  -15.3120   20.3430 N   0  0  0  0  0  0  0  0  0  0  0  0
  -24.6830  -15.9580   20.4760 H   0  0  0  0  0  0  0  0  0  0  0  0
  -26.2880  -15.7610   19.9890 H   0  0  0  0  0  0  0  0  0  0  0  0
  -28.2670  -26.3010   20.1920 O   0  0  0  0  0  0  0  0  0  0  0  0
  -24.6060  -31.9080   23.2230 C   0  0  0  0  0  0  0  0  0  0  0  0
  -27.2200  -27.2740   20.1610 C   0  0  0  0  0  0  0  0  0  0  0  0
  -23.4130  -30.5100   21.5800 C   0  0  0  0  0  3  0  0  0  0  0  0
  -24.8730  -28.9640   20.1420 C   0  0  0  0  0  0  0  0  0  0  0  0
  -25.9610  -30.8110   21.4080 C   0  0  0  0  0  2  0  0  0  0  0  0
  -26.0460  -29.4260   20.7530 C   0  0  0  0  0  0  0  0  0  0  0  0
  -27.2240  -28.5950   20.7510 C   0  0  0  0  0  3  0  0  0  0  0  0
  -26.0250  -26.9060   19.5060 C   0  0  0  0  0  3  0  0  0  0  0  0
  -24.8710  -27.7140   19.5060 C   0  0  0  0  0  3  0  0  0  0  0  0
  -23.6370  -29.8450   20.1960 C   0  0  0  0  0  2  0  0  0  0  0  0
  -24.6800  -31.0970   22.1250 N   0  0  0  0  0  0  0  0  0  0  0  0
  -23.5200  -32.1790   23.7560 O   0  0  0  0  0  0  0  0  0  0  0  0
  -22.7500  -29.4890   22.5370 C   0  0  0  0  0  0  0  0  0  0  0  0
  -21.4230  -29.3060   22.4130 N   0  0  0  0  0  0  0  0  0  0  0  0
  -23.4300  -28.8630   23.3550 O   0  0  0  0  0  0  0  0  0  0  0  0
  -20.9310  -29.8630   21.7290 H   0  0  0  0  0  0  0  0  0  0  0  0
  -18.0520  -28.0840   22.9210 C   0  0  0  0  0  0  0  0  0  0  0  0
  -20.6100  -28.3600   23.1810 C   0  0  0  0  0  3  0  0  0  0  0  0
  -20.7180  -26.9310   22.5990 C   0  0  0  0  0  2  0  0  0  0  0  0
  -19.6150  -26.6060   21.5870 C   0  0  0  0  0  2  0  0  0  0  0  0
  -18.2340  -26.7400   22.2370 C   0  0  0  0  0  2  0  0  0  0  0  0
  -19.1670  -28.8510   23.3500 C   0  0  0  0  0  0  0  0  0  0  0  0
  -18.9410  -30.1090   23.9520 C   0  0  0  0  0  3  0  0  0  0  0  0
  -17.6340  -30.5990   24.1280 C   0  0  0  0  0  3  0  0  0  0  0  0
  -16.5330  -29.8290   23.7130 C   0  0  0  0  0  3  0  0  0  0  0  0
  -16.7440  -28.5740   23.1160 C   0  0  0  0  0  3  0  0  0  0  0  0
  -25.8820  -32.5500   23.8490 C   0  0  0  0  0  3  0  0  0  0  0  0
  -25.5610  -33.9470   24.1820 N   0  0  0  0  0  0  0  0  0  0  0  0
  -25.8790  -35.0050   23.4240 C   0  0  0  0  0  0  0  0  0  0  0  0
  -26.5390  -34.9090   22.3870 O   0  0  0  0  0  0  0  0  0  0  0  0
  -24.9720  -34.0940   24.9880 H   0  0  0  0  0  0  0  0  0  0  0  0
  -24.1360  -36.7910   23.0930 C   0  0  0  0  0  1  0  0  0  0  0  0
  -25.3870  -36.3890   23.8920 C   0  0  0  0  0  3  0  0  0  0  0  0
  -27.5180  -37.2910   24.7120 C   0  0  0  0  0  1  0  0  0  0  0  0
  -26.4110  -37.4500   23.7740 N   0  0  0  0  0  0  0  0  0  0  0  0
  -25.9990  -38.3660   23.9220 H   0  0  0  0  0  0  0  0  0  0  0  0
  -26.3990  -31.7830   25.1280 C   0  0  1  0  0  0  0  0  0  0  0  0
  -25.3030  -31.5400   26.1930 C   0  0  0  0  0  1  0  0  0  0  0  0
  -26.9910  -30.4080   24.7420 C   0  0  0  0  0  1  0  0  0  0  0  0
  -27.5400  -32.5850   25.7940 C   0  0  0  0  0  1  0  0  0  0  0  0
  1  3  2  0
  1  2  1  0
  2  6  2  0
  4  5  1  0
  4  1  1  0
  5  2  1  0
  8 10  1  0
  9 11  2  0
 10  5  1  0
 10  7  2  0
 11  7  1  0
 11 22  1  0
 12  8  2  0
 12  9  1  0
 13 12  1  0
 14 22  1  0
 15 20  1  0
 16 17  1  0
 16 15  1  0
 18 17  1  0
 18 27  1  0
 18 19  1  0
 20 14  1  0
 20 19  1  0
 21 14  2  0
 22 23  1  0
 24 25  2  0
 25 44  1  0
 26 25  1  0
 26 29  1  0
 27 24  1  0
 27 28  1  0
 28 26  2  0
 29 30  1  0
 30 31  2  0
 32 35  1  0
 32 31  1  0
 33 32  2  0
 34 33  1  0
 34 29  2  0
 35 36  1  0
 36 37  1  0
 37 38  2  0
 39 38  1  0
 39 43  1  0
 40 39  2  0
 41 36  2  0
 41 40  1  0
 42 41  1  0
 44 45  1  0
 45 48  1  0
 45 47  1  0
 46 44  2  0
 49 50  1  0
 49 24  1  0
 51 49  1  0
 52  3  1  0
 53 64  2  0
 54 52  1  0
 54 59  1  0
 55 63  1  0
 55 65  1  0
 56 62  1  0
 56 58  1  0
 57 63  1  0
 58 57  1  0
 59 58  2  0
 60 61  1  0
 60 54  2  0
 61 56  2  0
 62 55  1  0
 63 53  1  0
 65 67  2  0
 66 65  1  0
 68 66  1  0
 69 78  2  0
 69 74  1  0
 70 66  1  0
 70 74  1  0
 71 70  1  0
 72 73  1  0
 72 71  1  0
 73 69  1  0
 74 75  2  0
 75 76  1  0
 77 76  2  0
 78 77  1  0
 79 53  1  0
 79 80  1  0
 79 89  1  0
 80 83  1  0
 81 85  1  0
 81 80  1  0
 82 81  2  0
 85 84  1  0
 87 85  1  0
 87 88  1  0
 87 86  1  0
 89 92  1  1
 89 90  1  0
 91 89  1  0
M  ISO  4   3 101  14 100  22 100  52 101
M  END
>  <TORSDO>  (14) 
F 17

>  <SCORE>  (14) 
-14.984

>  <name>  (14) 
13

>  <ligand_id>  (14) 
13

>  <original_smiles>  (14) 
[H]C(Oc1c([H])c([H])c2c(c1[H])C([H])([H])N(C(=O)C([H])(N([H])C(=O)C([H])(N([H])C([H])([H])[H])C([H])([H])[H])C(C([H])([H])[H])(C([H])([H])[H])C([H])([H])[H])C([H])(C(=O)N([H])C1([H])c3c([H])c([H])c([H])c([H])c3C([H])([H])C([H])([H])C1([H])[H])C2([H])[H])=C1C(=O)N(c2c([H])c(F)c([H])c(N([H])C(=O)N3C([H])([H])C([H])([H])C([H])([H])C([H])(n4nc(-c5c([H])c([H])c(Oc6c([H])c([H])c(F)c([H])c6F)c([H])c5[H])c(C(=O)N([H])[H])c4N([H])[H])C3([H])[H])c2[H])C1([H])[H]

>  <smiles>  (14) 
[H]C(Oc1c([H])c([H])c2c(c1[H])C([H])([H])N(C(=O)C([H])(N([H])C(=O)C([H])(N([H])C([H])([H])[H])C([H])([H])[H])C(C([H])([H])[H])(C([H])([H])[H])C([H])([H])[H])C([H])(C(=O)N([H])C1([H])c3c([H])c([H])c([H])c([H])c3C([H])([H])C([H])([H])C1([H])[H])C2([H])[H])=C1C(=O)N(c2c([H])c(F)c([H])c(N([H])C(=O)N3C([H])([H])C([H])([H])C([H])([H])C([H])(n4nc(-c5c([H])c([H])c(Oc6c([H])c([H])c(F)c([H])c6F)c([H])c5[H])c(C(=O)N([H])[H])c4N([H])[H])C3([H])[H])c2[H])C1([H])[H]

$$$$
14:0:0
     RDKit          3D

 92100  0  0  1  0  0  0  0  0999 V2000
  -29.1250  -21.2300   19.9570 C   0  0  0  0  0  0  0  0  0  0  0  0
  -27.8930  -21.6930   17.8240 C   0  0  0  0  0  1  0  0  0  0  0  0
  -28.9590  -21.1140   18.6690 N   0  0  0  0  0  0  0  0  0  0  0  0
  -29.4320  -20.3360   18.2040 H   0  0  0  0  0  0  0  0  0  0  0  0
  -31.2770  -18.9080   22.1760 C   0  0  0  0  0  3  0  0  0  0  0  0
  -30.6200  -20.0360   21.6360 C   0  0  0  0  0  3  0  0  0  0  0  0
  -31.0410  -17.6010   21.6940 C   0  0  0  0  0  3  0  0  0  0  0  0
  -29.4370  -18.5410   20.1270 C   0  0  0  0  0  3  0  0  0  0  0  0
  -29.6960  -19.9100   20.5790 C   0  0  0  0  0  0  0  0  0  0  0  0
  -30.1080  -17.3550   20.6620 C   0  0  0  0  0  0  0  0  0  0  0  0
  -30.6090  -14.8020   20.2130 C   0  0  0  0  0  0  0  0  0  0  0  0
  -30.3880  -12.5320   19.1720 C   0  0  0  0  0  2  0  0  0  0  0  0
  -29.4180  -12.5970   17.9710 C   0  0  0  0  0  2  0  0  0  0  0  0
  -27.9570  -12.4290   18.4350 C   0  0  0  0  0  2  0  0  0  0  0  0
  -27.6120  -13.3200   19.6590 C   0  0  0  0  0  3  0  0  0  0  0  0
  -28.6960  -13.2300   20.7550 C   0  0  0  0  0  2  0  0  0  0  0  0
  -29.9740  -13.5840   20.1260 N   0  0  0  0  0  0  0  0  0  0  0  0
  -31.8070  -14.8930   19.9320 O   0  0  0  0  0  0  0  0  0  0  0  0
  -29.8070  -15.9380   20.3080 N   0  0  0  0  0  0  0  0  0  0  0  0
  -28.8270  -15.7290   20.2010 H   0  0  0  0  0  0  0  0  0  0  0  0
  -25.2510  -13.9320   20.4530 C   0  0  0  0  0  0  0  0  0  0  0  0
  -24.1860  -13.1670   20.8420 C   0  0  0  0  0  0  0  0  0  0  0  0
  -24.6320  -11.8110   20.7850 C   0  0  0  0  0  0  0  0  0  0  0  0
  -26.2790  -13.0440   20.1810 N   0  0  0  0  0  0  0  0  0  0  0  0
  -25.9150  -11.7620   20.4450 N   0  0  0  0  0  0  0  0  0  0  0  0
  -23.8960  -10.5550   20.9740 C   0  0  0  0  0  0  0  0  0  0  0  0
  -24.3200   -9.5830   21.9070 C   0  0  0  0  0  3  0  0  0  0  0  0
  -23.5820   -8.3920   22.0850 C   0  0  0  0  0  3  0  0  0  0  0  0
  -22.4070   -8.1650   21.3310 C   0  0  0  0  0  0  0  0  0  0  0  0
  -22.0020   -9.1260   20.3870 C   0  0  0  0  0  3  0  0  0  0  0  0
  -22.7400  -10.3070   20.2070 C   0  0  0  0  0  3  0  0  0  0  0  0
  -21.6430   -7.0270   21.4170 O   0  0  0  0  0  0  0  0  0  0  0  0
  -21.5660   -6.2980   22.5780 C   0  0  0  0  0  0  0  0  0  0  0  0
  -21.0920   -6.8610   23.7830 C   0  0  0  0  0  3  0  0  0  0  0  0
  -20.9660   -6.0590   24.9340 C   0  0  0  0  0  3  0  0  0  0  0  0
  -21.3030   -4.6930   24.8810 C   0  0  0  0  0  0  0  0  0  0  0  0
  -21.7710   -4.1290   23.6810 C   0  0  0  0  0  3  0  0  0  0  0  0
  -21.8980   -4.9290   22.5320 C   0  0  0  0  0  0  0  0  0  0  0  0
  -22.3300   -4.3760   21.3730 F   0  0  0  0  0  0  0  0  0  0  0  0
  -21.1740   -3.9200   25.9840 F   0  0  0  0  0  0  0  0  0  0  0  0
  -22.7990  -13.6560   21.1480 C   0  0  0  0  0  0  0  0  0  0  0  0
  -22.0800  -12.9520   22.0140 N   0  0  0  0  0  0  0  0  0  0  0  0
  -22.3660  -14.6970   20.6550 O   0  0  0  0  0  0  0  0  0  0  0  0
  -22.4440  -12.1090   22.4300 H   0  0  0  0  0  0  0  0  0  0  0  0
  -21.1500  -13.2600   22.2640 H   0  0  0  0  0  0  0  0  0  0  0  0
  -25.4260  -15.3040   20.2820 N   0  0  0  0  0  0  0  0  0  0  0  0
  -24.6580  -15.9570   20.3990 H   0  0  0  0  0  0  0  0  0  0  0  0
  -26.2480  -15.7300   19.8780 H   0  0  0  0  0  0  0  0  0  0  0  0
  -28.6700  -23.6890   20.1200 C   0  0  0  0  0  2  0  0  0  0  0  0
  -28.8650  -22.4680   20.6180 N   0  0  0  0  0  0  0  0  0  0  0  0
  -28.1440  -25.0080   20.8840 C   0  0  0  0  0  2  0  0  0  0  0  0
  -28.3800  -26.4030   20.3520 O   0  0  0  0  0  0  0  0  0  0  0  0
  -24.6120  -31.9070   23.2680 C   0  0  0  0  0  0  0  0  0  0  0  0
  -27.2850  -27.2970   20.3060 C   0  0  0  0  0  0  0  0  0  0  0  0
  -23.4390  -30.4850   21.6240 C   0  0  0  0  0  3  0  0  0  0  0  0
  -24.9200  -28.9280   20.2290 C   0  0  0  0  0  0  0  0  0  0  0  0
  -25.9800  -30.8110   21.4720 C   0  0  0  0  0  2  0  0  0  0  0  0
  -26.0800  -29.4220   20.8400 C   0  0  0  0  0  0  0  0  0  0  0  0
  -27.2700  -28.6220   20.8630 C   0  0  0  0  0  3  0  0  0  0  0  0
  -26.1040  -26.8690   19.6640 C   0  0  0  0  0  3  0  0  0  0  0  0
  -24.9380  -27.6590   19.6270 C   0  0  0  0  0  3  0  0  0  0  0  0
  -23.6770  -29.7980   20.2520 C   0  0  0  0  0  2  0  0  0  0  0  0
  -24.6950  -31.0870   22.1770 N   0  0  0  0  0  0  0  0  0  0  0  0
  -23.5190  -32.1810   23.7850 O   0  0  0  0  0  0  0  0  0  0  0  0
  -22.7690  -29.4730   22.5880 C   0  0  0  0  0  0  0  0  0  0  0  0
  -21.4460  -29.2890   22.4500 N   0  0  0  0  0  0  0  0  0  0  0  0
  -23.4430  -28.8580   23.4190 O   0  0  0  0  0  0  0  0  0  0  0  0
  -20.9610  -29.8370   21.7530 H   0  0  0  0  0  0  0  0  0  0  0  0
  -18.0690  -28.0820   22.9350 C   0  0  0  0  0  0  0  0  0  0  0  0
  -20.6250  -28.3510   23.2190 C   0  0  0  0  0  3  0  0  0  0  0  0
  -20.7340  -26.9180   22.6500 C   0  0  0  0  0  2  0  0  0  0  0  0
  -19.6400  -26.5880   21.6300 C   0  0  0  0  0  2  0  0  0  0  0  0
  -18.2530  -26.7310   22.2650 C   0  0  0  0  0  2  0  0  0  0  0  0
  -19.1830  -28.8500   23.3680 C   0  0  0  0  0  0  0  0  0  0  0  0
  -18.9560  -30.1130   23.9560 C   0  0  0  0  0  3  0  0  0  0  0  0
  -17.6490  -30.6100   24.1140 C   0  0  0  0  0  3  0  0  0  0  0  0
  -16.5490  -29.8410   23.6950 C   0  0  0  0  0  3  0  0  0  0  0  0
  -16.7600  -28.5790   23.1120 C   0  0  0  0  0  3  0  0  0  0  0  0
  -25.8800  -32.5550   23.9020 C   0  0  0  0  0  3  0  0  0  0  0  0
  -26.3780  -31.8070   25.1990 C   0  0  1  0  0  0  0  0  0  0  0  0
  -25.2680  -31.5750   26.2500 C   0  0  0  0  0  1  0  0  0  0  0  0
  -26.9780  -30.4270   24.8380 C   0  0  0  0  0  1  0  0  0  0  0  0
  -27.5100  -32.6180   25.8690 C   0  0  0  0  0  1  0  0  0  0  0  0
  -25.5570  -33.9560   24.2070 N   0  0  0  0  0  0  0  0  0  0  0  0
  -25.8950  -35.0030   23.4400 C   0  0  0  0  0  0  0  0  0  0  0  0
  -26.5790  -34.8890   22.4200 O   0  0  0  0  0  0  0  0  0  0  0  0
  -24.9480  -34.1180   24.9970 H   0  0  0  0  0  0  0  0  0  0  0  0
  -24.1720  -36.7910   23.0290 C   0  0  0  0  0  1  0  0  0  0  0  0
  -25.3950  -36.3940   23.8730 C   0  0  0  0  0  3  0  0  0  0  0  0
  -27.5040  -37.2960   24.7500 C   0  0  0  0  0  1  0  0  0  0  0  0
  -26.4280  -37.4480   23.7750 N   0  0  0  0  0  0  0  0  0  0  0  0
  -26.0170  -38.3700   23.8970 H   0  0  0  0  0  0  0  0  0  0  0  0
  1  9  1  0
  1 50  2  0
  2  3  1  0
  3  1  1  0
  4  3  1  0
  6  5  2  0
  7  5  1  0
  8  9  2  0
  8 10  1  0
  9  6  1  0
 10  7  2  0
 11 19  1  0
 12 17  1  0
 13 14  1  0
 13 12  1  0
 15 14  1  0
 15 24  1  0
 15 16  1  0
 17 11  1  0
 17 16  1  0
 18 11  2  0
 19 10  1  0
 20 19  1  0
 21 22  2  0
 22 41  1  0
 23 22  1  0
 23 26  1  0
 24 25  1  0
 24 21  1  0
 25 23  2  0
 26 27  1  0
 27 28  2  0
 29 32  1  0
 29 28  1  0
 30 29  2  0
 31 30  1  0
 31 26  2  0
 32 33  1  0
 33 34  1  0
 34 35  2  0
 36 35  1  0
 36 40  1  0
 37 36  2  0
 38 33  2  0
 38 37  1  0
 39 38  1  0
 41 42  1  0
 42 45  1  0
 42 44  1  0
 43 41  2  0
 46 47  1  0
 46 21  1  0
 48 46  1  0
 49 50  1  0
 49 51  1  0
 52 51  1  0
 53 64  2  0
 54 52  1  0
 54 59  1  0
 55 63  1  0
 55 65  1  0
 56 62  1  0
 56 58  1  0
 57 63  1  0
 58 59  2  0
 58 57  1  0
 60 54  2  0
 61 60  1  0
 61 56  2  0
 62 55  1  0
 63 53  1  0
 65 67  2  0
 66 65  1  0
 68 66  1  0
 69 78  2  0
 69 74  1  0
 70 66  1  0
 70 74  1  0
 71 70  1  0
 72 73  1  0
 72 71  1  0
 73 69  1  0
 74 75  2  0
 75 76  1  0
 77 76  2  0
 78 77  1  0
 79 53  1  0
 79 84  1  0
 79 80  1  0
 80 83  1  1
 80 81  1  0
 82 80  1  0
 84 87  1  0
 85 89  1  0
 85 84  1  0
 86 85  2  0
 89 88  1  0
 91 89  1  0
 91 92  1  0
 91 90  1  0
M  ISO  4  11 100  19 100  51 101  52 101
M  END
>  <TORSDO>  (15) 
F 19

>  <SCORE>  (15) 
-14.423

>  <name>  (15) 
14

>  <ligand_id>  (15) 
14

>  <original_smiles>  (15) 
[H]C(=NC(c1c([H])c([H])c([H])c(N([H])C(=O)N2C([H])([H])C([H])([H])C([H])([H])C([H])(n3nc(-c4c([H])c([H])c(Oc5c([H])c([H])c(F)c([H])c5F)c([H])c4[H])c(C(=O)N([H])[H])c3N([H])[H])C2([H])[H])c1[H])=[N+]([H])C([H])([H])[H])C([H])([H])Oc1c([H])c([H])c2c(c1[H])C([H])([H])N(C(=O)C([H])(N([H])C(=O)C([H])(N([H])C([H])([H])[H])C([H])([H])[H])C(C([H])([H])[H])(C([H])([H])[H])C([H])([H])[H])C([H])(C(=O)N([H])C1([H])c3c([H])c([H])c([H])c([H])c3C([H])([H])C([H])([H])C1([H])[H])C2([H])[H]

>  <smiles>  (15) 
[H]C(=NC(c1c([H])c([H])c([H])c(N([H])C(=O)N2C([H])([H])C([H])([H])C([H])([H])C([H])(n3nc(-c4c([H])c([H])c(Oc5c([H])c([H])c(F)c([H])c5F)c([H])c4[H])c(C(=O)N([H])[H])c3N([H])[H])C2([H])[H])c1[H])=[N+]([H])C([H])([H])[H])C([H])([H])Oc1c([H])c([H])c2c(c1[H])C([H])([H])N(C(=O)C([H])(N([H])C(=O)C([H])(N([H])C([H])([H])[H])C([H])([H])[H])C(C([H])([H])[H])(C([H])([H])[H])C([H])([H])[H])C([H])(C(=O)N([H])C1([H])c3c([H])c([H])c([H])c([H])c3C([H])([H])C([H])([H])C1([H])[H])C2([H])[H]

$$$$
15:0:0
     RDKit          3D

 93102  0  0  1  0  0  0  0  0999 V2000
  -28.9020  -23.9880   20.1660 C   0  0  0  0  0  0  0  0  0  0  0  0
  -28.5770  -22.5820   20.5310 C   0  0  0  0  0  0  0  0  0  0  0  0
  -28.1250  -25.0880   20.4780 C   0  0  0  0  0  3  0  0  0  0  0  0
  -30.1920  -23.9860   19.4110 C   0  0  0  0  0  3  0  0  0  0  0  0
  -30.5900  -22.4940   19.3800 C   0  0  0  0  0  3  0  0  0  0  0  0
  -29.5480  -21.7100   20.0710 N   0  0  0  0  0  0  0  0  0  0  0  0
  -27.5730  -22.2420   21.1640 O   0  0  0  0  0  0  0  0  0  0  0  0
  -28.6390  -19.3970   20.7820 C   0  0  0  0  0  3  0  0  0  0  0  0
  -28.7370  -17.9730   20.8730 C   0  0  0  0  0  3  0  0  0  0  0  0
  -30.8590  -18.0280   19.7870 C   0  0  0  0  0  3  0  0  0  0  0  0
  -29.6450  -20.2150   20.1850 C   0  0  0  0  0  0  0  0  0  0  0  0
  -29.8430  -17.2310   20.3790 C   0  0  0  0  0  0  0  0  0  0  0  0
  -30.7660  -19.4580   19.6930 C   0  0  0  0  0  0  0  0  0  0  0  0
  -31.8080  -20.0880   19.1010 F   0  0  0  0  0  0  0  0  0  0  0  0
  -30.6200  -14.7310   20.0260 C   0  0  0  0  0  0  0  0  0  0  0  0
  -30.3820  -12.5030   18.9270 C   0  0  0  0  0  2  0  0  0  0  0  0
  -29.3600  -12.6420   17.7740 C   0  0  0  0  0  2  0  0  0  0  0  0
  -27.9180  -12.4580   18.2880 C   0  0  0  0  0  2  0  0  0  0  0  0
  -27.6320  -13.2890   19.5660 C   0  0  0  0  0  3  0  0  0  0  0  0
  -28.7580  -13.1150   20.6110 C   0  0  0  0  0  2  0  0  0  0  0  0
  -30.0250  -13.4930   19.9650 N   0  0  0  0  0  0  0  0  0  0  0  0
  -31.7490  -14.9130   19.5590 O   0  0  0  0  0  0  0  0  0  0  0  0
  -29.8270  -15.7570   20.4940 N   0  0  0  0  0  0  0  0  0  0  0  0
  -28.9830  -15.3960   20.9110 H   0  0  0  0  0  0  0  0  0  0  0  0
  -25.2900  -13.8660   20.4520 C   0  0  0  0  0  0  0  0  0  0  0  0
  -24.2460  -13.0820   20.8630 C   0  0  0  0  0  0  0  0  0  0  0  0
  -24.7030  -11.7330   20.7610 C   0  0  0  0  0  0  0  0  0  0  0  0
  -26.3160  -12.9930   20.1250 N   0  0  0  0  0  0  0  0  0  0  0  0
  -25.9710  -11.7020   20.3710 N   0  0  0  0  0  0  0  0  0  0  0  0
  -23.9870  -10.4650   20.9570 C   0  0  0  0  0  0  0  0  0  0  0  0
  -24.4380   -9.4970   21.8790 C   0  0  0  0  0  3  0  0  0  0  0  0
  -23.7210   -8.2940   22.0630 C   0  0  0  0  0  3  0  0  0  0  0  0
  -22.5400   -8.0520   21.3220 C   0  0  0  0  0  0  0  0  0  0  0  0
  -22.1080   -9.0090   20.3890 C   0  0  0  0  0  3  0  0  0  0  0  0
  -22.8250  -10.2030   20.2030 C   0  0  0  0  0  3  0  0  0  0  0  0
  -21.7940   -6.9020   21.4160 O   0  0  0  0  0  0  0  0  0  0  0  0
  -21.7110   -6.1910   22.5860 C   0  0  0  0  0  0  0  0  0  0  0  0
  -21.2280   -6.7720   23.7790 C   0  0  0  0  0  3  0  0  0  0  0  0
  -21.0950   -5.9850   24.9420 C   0  0  0  0  0  3  0  0  0  0  0  0
  -21.4340   -4.6200   24.9120 C   0  0  0  0  0  0  0  0  0  0  0  0
  -21.9090   -4.0380   23.7230 C   0  0  0  0  0  3  0  0  0  0  0  0
  -22.0440   -4.8210   22.5630 C   0  0  0  0  0  0  0  0  0  0  0  0
  -22.4830   -4.2510   21.4150 F   0  0  0  0  0  0  0  0  0  0  0  0
  -21.2980   -3.8620   26.0250 F   0  0  0  0  0  0  0  0  0  0  0  0
  -22.8700  -13.5520   21.2370 C   0  0  0  0  0  0  0  0  0  0  0  0
  -22.1970  -12.8300   22.1270 N   0  0  0  0  0  0  0  0  0  0  0  0
  -22.4020  -14.5920   20.7750 O   0  0  0  0  0  0  0  0  0  0  0  0
  -22.5900  -11.9890   22.5220 H   0  0  0  0  0  0  0  0  0  0  0  0
  -21.2760  -13.1260   22.4190 H   0  0  0  0  0  0  0  0  0  0  0  0
  -25.4450  -15.2420   20.3060 N   0  0  0  0  0  0  0  0  0  0  0  0
  -24.6820  -15.8880   20.4720 H   0  0  0  0  0  0  0  0  0  0  0  0
  -26.2570  -15.6880   19.8970 H   0  0  0  0  0  0  0  0  0  0  0  0
  -28.3530  -26.4570   20.1800 O   0  0  0  0  0  0  0  0  0  0  0  0
  -24.6180  -31.8770   23.2210 C   0  0  0  0  0  0  0  0  0  0  0  0
  -27.2500  -27.3310   20.1570 C   0  0  0  0  0  0  0  0  0  0  0  0
  -23.4210  -30.4780   21.5760 C   0  0  0  0  0  3  0  0  0  0  0  0
  -24.8790  -28.9370   20.1450 C   0  0  0  0  0  0  0  0  0  0  0  0
  -25.9590  -30.8070   21.3960 C   0  0  0  0  0  2  0  0  0  0  0  0
  -26.0460  -29.4280   20.7480 C   0  0  0  0  0  0  0  0  0  0  0  0
  -27.2360  -28.6350   20.7460 C   0  0  0  0  0  3  0  0  0  0  0  0
  -26.0640  -26.9000   19.5240 C   0  0  0  0  0  3  0  0  0  0  0  0
  -24.8910  -27.6790   19.5250 C   0  0  0  0  0  3  0  0  0  0  0  0
  -23.6390  -29.8070   20.1950 C   0  0  0  0  0  2  0  0  0  0  0  0
  -24.6850  -31.0720   22.1210 N   0  0  0  0  0  0  0  0  0  0  0  0
  -23.5330  -32.1490   23.7560 O   0  0  0  0  0  0  0  0  0  0  0  0
  -22.7610  -29.4570   22.5330 C   0  0  0  0  0  0  0  0  0  0  0  0
  -21.4340  -29.2800   22.4100 N   0  0  0  0  0  0  0  0  0  0  0  0
  -23.4420  -28.8270   23.3470 O   0  0  0  0  0  0  0  0  0  0  0  0
  -20.9440  -29.8390   21.7260 H   0  0  0  0  0  0  0  0  0  0  0  0
  -18.0560  -28.0940   22.9280 C   0  0  0  0  0  0  0  0  0  0  0  0
  -20.6180  -28.3380   23.1780 C   0  0  0  0  0  3  0  0  0  0  0  0
  -20.7080  -26.9120   22.5880 C   0  0  0  0  0  2  0  0  0  0  0  0
  -19.5950  -26.6050   21.5800 C   0  0  0  0  0  2  0  0  0  0  0  0
  -18.2200  -26.7500   22.2370 C   0  0  0  0  0  2  0  0  0  0  0  0
  -19.1820  -28.8470   23.3560 C   0  0  0  0  0  0  0  0  0  0  0  0
  -18.9730  -30.1040   23.9620 C   0  0  0  0  0  3  0  0  0  0  0  0
  -17.6720  -30.6090   24.1440 C   0  0  0  0  0  3  0  0  0  0  0  0
  -16.5610  -29.8540   23.7330 C   0  0  0  0  0  3  0  0  0  0  0  0
  -16.7540  -28.5970   23.1300 C   0  0  0  0  0  3  0  0  0  0  0  0
  -25.8980  -32.5130   23.8460 C   0  0  0  0  0  3  0  0  0  0  0  0
  -25.5810  -33.9070   24.1870 N   0  0  0  0  0  0  0  0  0  0  0  0
  -25.8900  -34.9670   23.4290 C   0  0  0  0  0  0  0  0  0  0  0  0
  -26.5420  -34.8750   22.3860 O   0  0  0  0  0  0  0  0  0  0  0  0
  -24.9990  -34.0520   25.0000 H   0  0  0  0  0  0  0  0  0  0  0  0
  -24.1330  -36.7410   23.1220 C   0  0  0  0  0  1  0  0  0  0  0  0
  -25.3990  -36.3490   23.9020 C   0  0  0  0  0  3  0  0  0  0  0  0
  -27.5410  -37.2580   24.6860 C   0  0  0  0  0  1  0  0  0  0  0  0
  -26.4160  -37.4130   23.7670 N   0  0  0  0  0  0  0  0  0  0  0  0
  -26.0030  -38.3290   23.9230 H   0  0  0  0  0  0  0  0  0  0  0  0
  -26.4210  -31.7360   25.1160 C   0  0  1  0  0  0  0  0  0  0  0  0
  -25.3300  -31.4830   26.1840 C   0  0  0  0  0  1  0  0  0  0  0  0
  -27.0120  -30.3650   24.7150 C   0  0  0  0  0  1  0  0  0  0  0  0
  -27.5660  -32.5320   25.7830 C   0  0  0  0  0  1  0  0  0  0  0  0
  1  3  2  0
  1  2  1  0
  2  7  2  0
  4  1  1  0
  5  4  2  0
  5  6  1  0
  6 11  1  0
  6  2  1  0
  8  9  1  0
 10 12  1  0
 11  8  2  0
 12 23  1  0
 12  9  2  0
 13 10  2  0
 13 11  1  0
 14 13  1  0
 15 23  1  0
 16 21  1  0
 17 18  1  0
 17 16  1  0
 19 18  1  0
 19 28  1  0
 19 20  1  0
 21 15  1  0
 21 20  1  0
 22 15  2  0
 23 24  1  0
 25 26  2  0
 26 45  1  0
 27 26  1  0
 27 30  1  0
 28 29  1  0
 28 25  1  0
 29 27  2  0
 30 31  1  0
 31 32  2  0
 33 36  1  0
 33 32  1  0
 34 33  2  0
 35 34  1  0
 35 30  2  0
 36 37  1  0
 37 38  1  0
 38 39  2  0
 40 39  1  0
 40 44  1  0
 41 40  2  0
 42 37  2  0
 42 41  1  0
 43 42  1  0
 45 46  1  0
 46 49  1  0
 46 48  1  0
 47 45  2  0
 50 25  1  0
 50 51  1  0
 52 50  1  0
 53  3  1  0
 54 65  2  0
 55 53  1  0
 55 60  1  0
 56 64  1  0
 56 66  1  0
 57 63  1  0
 57 59  1  0
 58 64  1  0
 59 58  1  0
 60 59  2  0
 61 62  1  0
 61 55  2  0
 62 57  2  0
 63 56  1  0
 64 54  1  0
 66 68  2  0
 67 66  1  0
 69 67  1  0
 70 79  2  0
 70 75  1  0
 71 67  1  0
 71 75  1  0
 72 71  1  0
 73 74  1  0
 73 72  1  0
 74 70  1  0
 75 76  2  0
 76 77  1  0
 78 77  2  0
 79 78  1  0
 80 54  1  0
 80 81  1  0
 80 90  1  0
 81 84  1  0
 82 86  1  0
 82 81  1  0
 83 82  2  0
 86 85  1  0
 88 86  1  0
 88 89  1  0
 88 87  1  0
 90 93  1  1
 90 91  1  0
 92 90  1  0
M  ISO  4   3 101  15 100  23 100  53 101
M  END
>  <TORSDO>  (16) 
F 17

>  <SCORE>  (16) 
-14.864

>  <name>  (16) 
15

>  <ligand_id>  (16) 
15

>  <original_smiles>  (16) 
[H]C(Oc1c([H])c([H])c2c(c1[H])C([H])([H])N(C(=O)C([H])(N([H])C(=O)C([H])(N([H])C([H])([H])[H])C([H])([H])[H])C(C([H])([H])[H])(C([H])([H])[H])C([H])([H])[H])C([H])(C(=O)N([H])C1([H])c3c([H])c([H])c([H])c([H])c3C([H])([H])C([H])([H])C1([H])[H])C2([H])[H])=C1C(=O)N(c2c([H])c([H])c(N([H])C(=O)N3C([H])([H])C([H])([H])C([H])([H])C([H])(n4nc(-c5c([H])c([H])c(Oc6c([H])c([H])c(F)c([H])c6F)c([H])c5[H])c(C(=O)N([H])[H])c4N([H])[H])C3([H])[H])c([H])c2F)C([H])([H])C1([H])[H]

>  <smiles>  (16) 
[H]C(Oc1c([H])c([H])c2c(c1[H])C([H])([H])N(C(=O)C([H])(N([H])C(=O)C([H])(N([H])C([H])([H])[H])C([H])([H])[H])C(C([H])([H])[H])(C([H])([H])[H])C([H])([H])[H])C([H])(C(=O)N([H])C1([H])c3c([H])c([H])c([H])c([H])c3C([H])([H])C([H])([H])C1([H])[H])C2([H])[H])=C1C(=O)N(c2c([H])c([H])c(N([H])C(=O)N3C([H])([H])C([H])([H])C([H])([H])C([H])(n4nc(-c5c([H])c([H])c(Oc6c([H])c([H])c(F)c([H])c6F)c([H])c5[H])c(C(=O)N([H])[H])c4N([H])[H])C3([H])[H])c([H])c2F)C([H])([H])C1([H])[H]

$$$$
16:0:0
     RDKit          3D

 95104  0  0  1  0  0  0  0  0999 V2000
  -29.5220  -23.7780   19.0710 C   0  0  0  0  0  3  0  0  0  0  0  0
  -28.8490  -23.9150   20.3150 C   0  0  0  0  0  0  0  0  0  0  0  0
  -28.8480  -22.6320   20.8660 C   0  0  0  0  0  0  0  0  0  0  0  0
  -29.8840  -22.4660   18.9190 C   0  0  0  0  0  0  0  0  0  0  0  0
  -28.2720  -22.2040   22.1830 C   0  0  0  0  0  1  0  0  0  0  0  0
  -29.5000  -21.7010   20.0120 N   0  0  0  0  0  0  0  0  0  0  0  0
  -31.1420  -18.1830   20.1350 C   0  0  0  0  0  3  0  0  0  0  0  0
  -28.7980  -17.9780   20.5770 C   0  0  0  0  0  3  0  0  0  0  0  0
  -30.9750  -19.6050   19.9990 C   0  0  0  0  0  3  0  0  0  0  0  0
  -28.6300  -19.3880   20.4490 C   0  0  0  0  0  3  0  0  0  0  0  0
  -30.0530  -17.3150   20.4360 C   0  0  0  0  0  0  0  0  0  0  0  0
  -29.7110  -20.2540   20.1650 C   0  0  0  0  0  0  0  0  0  0  0  0
  -30.1480  -15.8120   20.8080 C   0  0  0  0  0  0  0  0  0  0  0  0
  -29.6890  -15.5170   21.9530 N   0  0  0  0  0  0  0  0  0  0  0  0
  -29.3190  -16.3280   22.4340 H   0  0  0  0  0  0  0  0  0  0  0  0
  -30.7740  -14.6900   19.8630 C   0  0  0  0  0  0  0  0  0  0  0  0
  -30.4500  -12.5310   18.6430 C   0  0  0  0  0  2  0  0  0  0  0  0
  -29.3860  -12.7170   17.5320 C   0  0  0  0  0  2  0  0  0  0  0  0
  -27.9560  -12.5340   18.0850 C   0  0  0  0  0  2  0  0  0  0  0  0
  -27.7380  -13.3250   19.4030 C   0  0  0  0  0  3  0  0  0  0  0  0
  -28.8840  -13.0110   20.3820 C   0  0  0  0  0  2  0  0  0  0  0  0
  -30.1400  -13.4630   19.7510 N   0  0  0  0  0  0  0  0  0  0  0  0
  -31.8110  -14.9130   19.2240 O   0  0  0  0  0  0  0  0  0  0  0  0
  -25.4450  -13.9510   20.3850 C   0  0  0  0  0  0  0  0  0  0  0  0
  -24.4000  -13.1880   20.8260 C   0  0  0  0  0  0  0  0  0  0  0  0
  -24.8160  -11.8280   20.6780 C   0  0  0  0  0  0  0  0  0  0  0  0
  -26.4330  -13.0580   19.9960 N   0  0  0  0  0  0  0  0  0  0  0  0
  -26.0630  -11.7730   20.2290 N   0  0  0  0  0  0  0  0  0  0  0  0
  -24.0780  -10.5760   20.8780 C   0  0  0  0  0  0  0  0  0  0  0  0
  -24.5430   -9.5820   21.7660 C   0  0  0  0  0  3  0  0  0  0  0  0
  -23.8080   -8.3930   21.9540 C   0  0  0  0  0  3  0  0  0  0  0  0
  -22.5950   -8.1890   21.2550 C   0  0  0  0  0  0  0  0  0  0  0  0
  -22.1480   -9.1730   20.3570 C   0  0  0  0  0  3  0  0  0  0  0  0
  -22.8830  -10.3550   20.1650 C   0  0  0  0  0  3  0  0  0  0  0  0
  -21.8260   -7.0550   21.3560 O   0  0  0  0  0  0  0  0  0  0  0  0
  -21.7720   -6.3220   22.5150 C   0  0  0  0  0  0  0  0  0  0  0  0
  -21.3680   -6.8960   23.7410 C   0  0  0  0  0  3  0  0  0  0  0  0
  -21.2600   -6.0930   24.8920 C   0  0  0  0  0  3  0  0  0  0  0  0
  -21.5450   -4.7160   24.8210 C   0  0  0  0  0  0  0  0  0  0  0  0
  -21.9410   -4.1410   23.6000 C   0  0  0  0  0  3  0  0  0  0  0  0
  -22.0510   -4.9430   22.4490 C   0  0  0  0  0  0  0  0  0  0  0  0
  -22.4150   -4.3800   21.2710 F   0  0  0  0  0  0  0  0  0  0  0  0
  -21.4330   -3.9410   25.9250 F   0  0  0  0  0  0  0  0  0  0  0  0
  -23.0540  -13.6820   21.2680 C   0  0  0  0  0  0  0  0  0  0  0  0
  -22.4050  -12.9610   22.1750 N   0  0  0  0  0  0  0  0  0  0  0  0
  -22.5910  -14.7410   20.8460 O   0  0  0  0  0  0  0  0  0  0  0  0
  -22.7950  -12.1030   22.5370 H   0  0  0  0  0  0  0  0  0  0  0  0
  -21.5050  -13.2720   22.5150 H   0  0  0  0  0  0  0  0  0  0  0  0
  -25.6300  -15.3250   20.2620 N   0  0  0  0  0  0  0  0  0  0  0  0
  -24.9020  -15.9900   20.4980 H   0  0  0  0  0  0  0  0  0  0  0  0
  -26.4520  -15.7610   19.8650 H   0  0  0  0  0  0  0  0  0  0  0  0
  -30.5310  -21.8940   17.8710 O   0  0  0  0  0  0  0  0  0  0  0  0
  -30.7400  -22.5930   17.2620 H   0  0  0  0  0  0  0  0  0  0  0  0
  -28.2540  -25.2310   20.9110 C   0  0  0  0  0  2  0  0  0  0  0  0
  -28.4320  -26.5020   20.1900 O   0  0  0  0  0  0  0  0  0  0  0  0
  -24.5400  -31.7700   23.1590 C   0  0  0  0  0  0  0  0  0  0  0  0
  -27.3050  -27.3210   20.1490 C   0  0  0  0  0  0  0  0  0  0  0  0
  -23.3860  -30.3500   21.4960 C   0  0  0  0  0  3  0  0  0  0  0  0
  -24.8970  -28.8400   20.0840 C   0  0  0  0  0  0  0  0  0  0  0  0
  -25.9100  -30.7480   21.3310 C   0  0  0  0  0  2  0  0  0  0  0  0
  -26.0390  -29.3710   20.7000 C   0  0  0  0  0  0  0  0  0  0  0  0
  -27.2540  -28.6260   20.7170 C   0  0  0  0  0  3  0  0  0  0  0  0
  -26.1500  -26.8300   19.5100 C   0  0  0  0  0  3  0  0  0  0  0  0
  -24.9580  -27.5790   19.4690 C   0  0  0  0  0  3  0  0  0  0  0  0
  -23.6320  -29.6800   20.1170 C   0  0  0  0  0  2  0  0  0  0  0  0
  -24.6300  -30.9740   22.0550 N   0  0  0  0  0  0  0  0  0  0  0  0
  -23.4460  -32.0190   23.6830 O   0  0  0  0  0  0  0  0  0  0  0  0
  -22.7390  -29.3160   22.4490 C   0  0  0  0  0  0  0  0  0  0  0  0
  -21.4160  -29.1240   22.3160 N   0  0  0  0  0  0  0  0  0  0  0  0
  -23.4220  -28.6920   23.2650 O   0  0  0  0  0  0  0  0  0  0  0  0
  -20.9280  -29.6900   21.6360 H   0  0  0  0  0  0  0  0  0  0  0  0
  -18.0500  -27.8790   22.7800 C   0  0  0  0  0  0  0  0  0  0  0  0
  -20.6010  -28.1710   23.0710 C   0  0  0  0  0  3  0  0  0  0  0  0
  -20.7250  -26.7460   22.4840 C   0  0  0  0  0  2  0  0  0  0  0  0
  -19.6350  -26.4160   21.4600 C   0  0  0  0  0  2  0  0  0  0  0  0
  -18.2470  -26.5360   22.0950 C   0  0  0  0  0  2  0  0  0  0  0  0
  -19.1550  -28.6520   23.2230 C   0  0  0  0  0  0  0  0  0  0  0  0
  -18.9160  -29.9060   23.8260 C   0  0  0  0  0  3  0  0  0  0  0  0
  -17.6030  -30.3890   23.9860 C   0  0  0  0  0  3  0  0  0  0  0  0
  -16.5120  -29.6130   23.5580 C   0  0  0  0  0  3  0  0  0  0  0  0
  -16.7360  -28.3580   22.9640 C   0  0  0  0  0  3  0  0  0  0  0  0
  -25.8010  -32.4270   23.8020 C   0  0  0  0  0  3  0  0  0  0  0  0
  -26.3270  -31.6500   25.0720 C   0  0  1  0  0  0  0  0  0  0  0  0
  -25.2320  -31.3660   26.1260 C   0  0  0  0  0  1  0  0  0  0  0  0
  -26.9460  -30.2960   24.6580 C   0  0  0  0  0  1  0  0  0  0  0  0
  -27.4600  -32.4610   25.7460 C   0  0  0  0  0  1  0  0  0  0  0  0
  -25.4570  -33.8120   24.1470 N   0  0  0  0  0  0  0  0  0  0  0  0
  -25.7670  -34.8830   23.4020 C   0  0  0  0  0  0  0  0  0  0  0  0
  -26.4460  -34.8070   22.3730 O   0  0  0  0  0  0  0  0  0  0  0  0
  -24.8600  -33.9430   24.9520 H   0  0  0  0  0  0  0  0  0  0  0  0
  -23.9960  -36.6330   23.0470 C   0  0  0  0  0  1  0  0  0  0  0  0
  -25.2390  -36.2530   23.8680 C   0  0  0  0  0  3  0  0  0  0  0  0
  -27.3480  -37.1730   24.7290 C   0  0  0  0  0  1  0  0  0  0  0  0
  -26.2460  -37.3350   23.7830 N   0  0  0  0  0  0  0  0  0  0  0  0
  -25.8170  -38.2420   23.9530 H   0  0  0  0  0  0  0  0  0  0  0  0
  1  2  1  0
  2  3  2  0
  2 54  1  0
  3  5  1  0
  4  1  2  0
  4  6  1  0
  6 12  1  0
  6  3  1  0
  7 11  1  0
  9  7  2  0
  9 12  1  0
 10  8  1  0
 11  8  2  0
 11 13  1  0
 12 10  2  0
 13 14  2  0
 14 15  1  0
 16 13  1  0
 17 22  1  0
 18 19  1  0
 18 17  1  0
 20 19  1  0
 20 27  1  0
 20 21  1  0
 22 16  1  0
 22 21  1  0
 23 16  2  0
 24 25  2  0
 25 44  1  0
 26 25  1  0
 26 29  1  0
 27 28  1  0
 27 24  1  0
 28 26  2  0
 29 30  1  0
 30 31  2  0
 32 35  1  0
 32 31  1  0
 33 32  2  0
 34 33  1  0
 34 29  2  0
 35 36  1  0
 36 37  1  0
 37 38  2  0
 39 38  1  0
 39 43  1  0
 40 39  2  0
 41 36  2  0
 41 40  1  0
 42 41  1  0
 44 45  1  0
 45 48  1  0
 45 47  1  0
 46 44  2  0
 49 24  1  0
 49 50  1  0
 51 49  1  0
 52  4  1  0
 53 52  1  0
 55 54  1  0
 56 67  2  0
 57 55  1  0
 57 62  1  0
 58 66  1  0
 58 68  1  0
 59 65  1  0
 59 61  1  0
 60 66  1  0
 61 62  2  0
 61 60  1  0
 63 57  2  0
 64 63  1  0
 64 59  2  0
 65 58  1  0
 66 56  1  0
 68 70  2  0
 69 68  1  0
 71 69  1  0
 72 81  2  0
 72 77  1  0
 73 69  1  0
 73 77  1  0
 74 73  1  0
 75 76  1  0
 75 74  1  0
 76 72  1  0
 77 78  2  0
 78 79  1  0
 80 79  2  0
 81 80  1  0
 82 56  1  0
 82 87  1  0
 82 83  1  0
 83 86  1  1
 83 84  1  0
 85 83  1  0
 87 90  1  0
 88 92  1  0
 88 87  1  0
 89 88  2  0
 92 91  1  0
 94 92  1  0
 94 95  1  0
 94 93  1  0
M  ISO  4  13 100  16 100  54 101  55 101
M  END
>  <TORSDO>  (17) 
F 20

>  <SCORE>  (17) 
-13.423

>  <name>  (17) 
16

>  <ligand_id>  (17) 
16

>  <original_smiles>  (17) 
[H]N=C(C(=O)N1C([H])([H])C([H])([H])C([H])([H])C([H])(n2nc(-c3c([H])c([H])c(Oc4c([H])c([H])c(F)c([H])c4F)c([H])c3[H])c(C(=O)N([H])[H])c2N([H])[H])C1([H])[H])c1c([H])c([H])c(-n2c(O[H])c([H])c(C([H])([H])Oc3c([H])c([H])c4c(c3[H])C([H])([H])N(C(=O)C([H])(N([H])C(=O)C([H])(N([H])C([H])([H])[H])C([H])([H])[H])C(C([H])([H])[H])(C([H])([H])[H])C([H])([H])[H])C([H])(C(=O)N([H])C3([H])c5c([H])c([H])c([H])c([H])c5C([H])([H])C([H])([H])C3([H])[H])C4([H])[H])c2C([H])([H])[H])c([H])c1[H]

>  <smiles>  (17) 
[H]N=C(C(=O)N1C([H])([H])C([H])([H])C([H])([H])C([H])(n2nc(-c3c([H])c([H])c(Oc4c([H])c([H])c(F)c([H])c4F)c([H])c3[H])c(C(=O)N([H])[H])c2N([H])[H])C1([H])[H])c1c([H])c([H])c(-n2c(O[H])c([H])c(C([H])([H])Oc3c([H])c([H])c4c(c3[H])C([H])([H])N(C(=O)C([H])(N([H])C(=O)C([H])(N([H])C([H])([H])[H])C([H])([H])[H])C(C([H])([H])[H])(C([H])([H])[H])C([H])([H])[H])C([H])(C(=O)N([H])C3([H])c5c([H])c([H])c([H])c([H])c5C([H])([H])C([H])([H])C3([H])[H])C4([H])[H])c2C([H])([H])[H])c([H])c1[H]

$$$$
17:0:0
     RDKit          3D

 92100  0  0  1  0  0  0  0  0999 V2000
  -29.3890  -18.4810   20.7870 C   0  0  0  0  0  3  0  0  0  0  0  0
  -29.9320  -20.0930   19.0930 C   0  0  0  0  0  3  0  0  0  0  0  0
  -29.3730  -19.9150   20.2970 C   0  0  0  0  0  0  0  0  0  0  0  0
  -29.9450  -17.3990   20.1080 C   0  0  0  0  0  0  0  0  0  0  0  0
  -30.5040  -17.7080   18.7710 C   0  0  0  0  0  0  0  0  0  0  0  0
  -30.4790  -19.0080   18.3800 N   0  0  0  0  0  0  0  0  0  0  0  0
  -30.9410  -16.8650   17.9840 O   0  0  0  0  0  0  0  0  0  0  0  0
  -30.8610  -19.2110   17.4680 H   0  0  0  0  0  0  0  0  0  0  0  0
  -30.6630  -14.8790   20.3410 C   0  0  0  0  0  0  0  0  0  0  0  0
  -30.5470  -12.5450   19.4360 C   0  0  0  0  0  2  0  0  0  0  0  0
  -29.6360  -12.5430   18.1850 C   0  0  0  0  0  2  0  0  0  0  0  0
  -28.1550  -12.3740   18.5850 C   0  0  0  0  0  2  0  0  0  0  0  0
  -27.7430  -13.3000   19.7610 C   0  0  0  0  0  3  0  0  0  0  0  0
  -28.7760  -13.2650   20.9090 C   0  0  0  0  0  2  0  0  0  0  0  0
  -30.0780  -13.6270   20.3350 N   0  0  0  0  0  0  0  0  0  0  0  0
  -31.8520  -14.9820   20.0210 O   0  0  0  0  0  0  0  0  0  0  0  0
  -29.8450  -15.9930   20.5510 N   0  0  0  0  0  0  0  0  0  0  0  0
  -28.9560  -15.7650   20.9660 H   0  0  0  0  0  0  0  0  0  0  0  0
  -25.3390  -13.8920   20.4350 C   0  0  0  0  0  0  0  0  0  0  0  0
  -24.2690  -13.1200   20.7980 C   0  0  0  0  0  0  0  0  0  0  0  0
  -24.7390  -11.7700   20.7980 C   0  0  0  0  0  0  0  0  0  0  0  0
  -26.3900  -13.0140   20.2310 N   0  0  0  0  0  0  0  0  0  0  0  0
  -26.0350  -11.7340   20.5130 N   0  0  0  0  0  0  0  0  0  0  0  0
  -24.0150  -10.5070   20.9940 C   0  0  0  0  0  0  0  0  0  0  0  0
  -24.4320   -9.5570   21.9530 C   0  0  0  0  0  3  0  0  0  0  0  0
  -23.7040   -8.3600   22.1350 C   0  0  0  0  0  3  0  0  0  0  0  0
  -22.5480   -8.1060   21.3600 C   0  0  0  0  0  0  0  0  0  0  0  0
  -22.1520   -9.0440   20.3910 C   0  0  0  0  0  3  0  0  0  0  0  0
  -22.8790  -10.2310   20.2060 C   0  0  0  0  0  3  0  0  0  0  0  0
  -21.7970   -6.9580   21.4500 O   0  0  0  0  0  0  0  0  0  0  0  0
  -21.7290   -6.2340   22.6140 C   0  0  0  0  0  0  0  0  0  0  0  0
  -21.2560   -6.8000   23.8180 C   0  0  0  0  0  3  0  0  0  0  0  0
  -21.1330   -6.0000   24.9710 C   0  0  0  0  0  3  0  0  0  0  0  0
  -21.4740   -4.6360   24.9220 C   0  0  0  0  0  0  0  0  0  0  0  0
  -21.9440   -4.0700   23.7240 C   0  0  0  0  0  3  0  0  0  0  0  0
  -22.0660   -4.8660   22.5710 C   0  0  0  0  0  0  0  0  0  0  0  0
  -22.4960   -4.3110   21.4120 F   0  0  0  0  0  0  0  0  0  0  0  0
  -21.3520   -3.8650   26.0290 F   0  0  0  0  0  0  0  0  0  0  0  0
  -22.8650  -13.5950   21.0320 C   0  0  0  0  0  0  0  0  0  0  0  0
  -22.1230  -12.9120   21.8970 N   0  0  0  0  0  0  0  0  0  0  0  0
  -22.4350  -14.6090   20.4850 O   0  0  0  0  0  0  0  0  0  0  0  0
  -22.4850  -12.0950   22.3660 H   0  0  0  0  0  0  0  0  0  0  0  0
  -21.1800  -13.2160   22.0950 H   0  0  0  0  0  0  0  0  0  0  0  0
  -25.5020  -15.2600   20.2400 N   0  0  0  0  0  0  0  0  0  0  0  0
  -24.7320  -15.9120   20.3300 H   0  0  0  0  0  0  0  0  0  0  0  0
  -26.3420  -15.6910   19.8740 H   0  0  0  0  0  0  0  0  0  0  0  0
  -28.5440  -22.2880   21.0700 C   0  0  0  0  0  0  0  0  0  0  0  0
  -27.9320  -22.7320   22.3910 C   0  0  0  0  0  1  0  0  0  0  0  0
  -28.8030  -20.9800   21.0930 N   0  0  0  0  0  0  0  0  0  0  0  0
  -28.7050  -23.5580   20.0630 C   0  0  0  0  0  3  0  0  0  0  0  0
  -28.1140  -25.0310   20.5400 C   0  0  0  0  0  3  0  0  0  0  0  0
  -28.2750  -26.3730   19.8560 O   0  0  0  0  0  0  0  0  0  0  0  0
  -24.5430  -31.7420   23.0940 C   0  0  0  0  0  0  0  0  0  0  0  0
  -27.1850  -27.2790   19.8770 C   0  0  0  0  0  0  0  0  0  0  0  0
  -23.3560  -30.4090   21.3890 C   0  0  0  0  0  3  0  0  0  0  0  0
  -24.8240  -28.9210   19.9050 C   0  0  0  0  0  0  0  0  0  0  0  0
  -25.8990  -30.7350   21.2350 C   0  0  0  0  0  2  0  0  0  0  0  0
  -25.9920  -29.3810   20.5270 C   0  0  0  0  0  0  0  0  0  0  0  0
  -27.1780  -28.5770   20.4970 C   0  0  0  0  0  3  0  0  0  0  0  0
  -25.9950  -26.8870   19.2290 C   0  0  0  0  0  3  0  0  0  0  0  0
  -24.8300  -27.6810   19.2460 C   0  0  0  0  0  3  0  0  0  0  0  0
  -23.5840  -29.7910   19.9840 C   0  0  0  0  0  2  0  0  0  0  0  0
  -24.6180  -30.9790   21.9630 N   0  0  0  0  0  0  0  0  0  0  0  0
  -23.4560  -31.9920   23.6350 O   0  0  0  0  0  0  0  0  0  0  0  0
  -22.6910  -29.3520   22.3040 C   0  0  0  0  0  0  0  0  0  0  0  0
  -21.3650  -29.1790   22.1710 N   0  0  0  0  0  0  0  0  0  0  0  0
  -23.3710  -28.6880   23.0930 O   0  0  0  0  0  0  0  0  0  0  0  0
  -20.8750  -29.7670   21.5120 H   0  0  0  0  0  0  0  0  0  0  0  0
  -17.9860  -27.9690   22.6410 C   0  0  0  0  0  0  0  0  0  0  0  0
  -20.5480  -28.2050   22.8980 C   0  0  0  0  0  3  0  0  0  0  0  0
  -20.6390  -26.8050   22.2460 C   0  0  0  0  0  2  0  0  0  0  0  0
  -19.5260  -26.5410   21.2280 C   0  0  0  0  0  2  0  0  0  0  0  0
  -18.1510  -26.6560   21.8920 C   0  0  0  0  0  2  0  0  0  0  0  0
  -19.1120  -28.7030   23.1000 C   0  0  0  0  0  0  0  0  0  0  0  0
  -18.9030  -29.9330   23.7610 C   0  0  0  0  0  3  0  0  0  0  0  0
  -17.6020  -30.4280   23.9680 C   0  0  0  0  0  3  0  0  0  0  0  0
  -16.4900  -29.6900   23.5260 C   0  0  0  0  0  3  0  0  0  0  0  0
  -16.6830  -28.4620   22.8660 C   0  0  0  0  0  3  0  0  0  0  0  0
  -25.8180  -32.3560   23.7490 C   0  0  0  0  0  3  0  0  0  0  0  0
  -26.3070  -31.5600   25.0220 C   0  0  1  0  0  0  0  0  0  0  0  0
  -25.1950  -31.3150   26.0680 C   0  0  0  0  0  1  0  0  0  0  0  0
  -26.8860  -30.1840   24.6190 C   0  0  0  0  0  1  0  0  0  0  0  0
  -27.4530  -32.3340   25.7150 C   0  0  0  0  0  1  0  0  0  0  0  0
  -25.5120  -33.7510   24.1030 N   0  0  0  0  0  0  0  0  0  0  0  0
  -25.8630  -34.8170   23.3730 C   0  0  0  0  0  0  0  0  0  0  0  0
  -26.5450  -34.7310   22.3490 O   0  0  0  0  0  0  0  0  0  0  0  0
  -24.9130  -33.8940   24.9030 H   0  0  0  0  0  0  0  0  0  0  0  0
  -24.1690  -36.6420   23.0140 C   0  0  0  0  0  1  0  0  0  0  0  0
  -25.3780  -36.2010   23.8540 C   0  0  0  0  0  3  0  0  0  0  0  0
  -27.4930  -37.0400   24.7790 C   0  0  0  0  0  1  0  0  0  0  0  0
  -26.4270  -37.2420   23.8010 N   0  0  0  0  0  0  0  0  0  0  0  0
  -26.0280  -38.1640   23.9530 H   0  0  0  0  0  0  0  0  0  0  0  0
  2  3  2  0
  3  1  1  0
  3 49  1  0
  4 17  1  0
  4  1  2  0
  5  4  1  0
  6  5  1  0
  6  2  1  0
  7  5  2  0
  8  6  1  0
  9 17  1  0
 10 15  1  0
 11 12  1  0
 11 10  1  0
 13 12  1  0
 13 22  1  0
 13 14  1  0
 15  9  1  0
 15 14  1  0
 16  9  2  0
 17 18  1  0
 19 20  2  0
 20 21  1  0
 20 39  1  0
 21 24  1  0
 22 19  1  0
 22 23  1  0
 23 21  2  0
 24 25  1  0
 25 26  2  0
 27 30  1  0
 27 26  1  0
 28 27  2  0
 29 28  1  0
 29 24  2  0
 30 31  1  0
 31 32  1  0
 32 33  2  0
 34 33  1  0
 34 38  1  0
 35 34  2  0
 36 31  2  0
 36 35  1  0
 37 36  1  0
 39 40  1  0
 40 43  1  0
 40 42  1  0
 41 39  2  0
 44 45  1  0
 44 19  1  0
 46 44  1  0
 47 49  2  0
 47 48  1  0
 50 51  2  0
 50 47  1  0
 52 54  1  0
 52 51  1  0
 53 64  2  0
 54 59  1  0
 55 63  1  0
 55 65  1  0
 56 62  1  0
 56 58  1  0
 57 63  1  0
 58 57  1  0
 59 58  2  0
 60 61  1  0
 60 54  2  0
 61 56  2  0
 62 55  1  0
 63 53  1  0
 65 67  2  0
 66 65  1  0
 68 66  1  0
 69 78  2  0
 69 74  1  0
 70 66  1  0
 70 74  1  0
 71 70  1  0
 72 73  1  0
 72 71  1  0
 73 69  1  0
 74 75  2  0
 75 76  1  0
 77 76  2  0
 78 77  1  0
 79 53  1  0
 79 84  1  0
 79 80  1  0
 80 83  1  1
 80 81  1  0
 82 80  1  0
 84 87  1  0
 85 89  1  0
 85 84  1  0
 86 85  2  0
 89 88  1  0
 91 89  1  0
 91 92  1  0
 91 90  1  0
M  ISO  4   9 100  17 100  51 101  52 101
M  END
>  <TORSDO>  (18) 
F 19

>  <SCORE>  (18) 
-13.629

>  <name>  (18) 
17

>  <ligand_id>  (18) 
17

>  <original_smiles>  (18) 
[H]c1c([H])c([H])c2c(c1[H])C([H])([H])C([H])([H])C([H])([H])C2([H])N([H])C(=O)C1([H])N(C(=O)C([H])(N([H])C(=O)C([H])(N([H])C([H])([H])[H])C([H])([H])[H])C(C([H])([H])[H])(C([H])([H])[H])C([H])([H])[H])C([H])([H])c2c([H])c(OC([H])([H])C([H])([H])C(=Nc3c([H])c(N([H])C(=O)N4C([H])([H])C([H])([H])C([H])([H])C([H])(n5nc(-c6c([H])c([H])c(Oc7c([H])c([H])c(F)c([H])c7F)c([H])c6[H])c(C(=O)N([H])[H])c5N([H])[H])C4([H])[H])c(=O)n([H])c3[H])C([H])([H])[H])c([H])c([H])c2C1([H])[H]

>  <smiles>  (18) 
[H]c1c([H])c([H])c2c(c1[H])C([H])([H])C([H])([H])C([H])([H])C2([H])N([H])C(=O)C1([H])N(C(=O)C([H])(N([H])C(=O)C([H])(N([H])C([H])([H])[H])C([H])([H])[H])C(C([H])([H])[H])(C([H])([H])[H])C([H])([H])[H])C([H])([H])c2c([H])c(OC([H])([H])C([H])([H])C(=Nc3c([H])c(N([H])C(=O)N4C([H])([H])C([H])([H])C([H])([H])C([H])(n5nc(-c6c([H])c([H])c(Oc7c([H])c([H])c(F)c([H])c7F)c([H])c6[H])c(C(=O)N([H])[H])c5N([H])[H])C4([H])[H])c(=O)n([H])c3[H])C([H])([H])[H])c([H])c([H])c2C1([H])[H]

$$$$
18:0:0
     RDKit          3D

 91 99  0  0  1  0  0  0  0  0999 V2000
  -29.3210  -21.2450   20.9200 C   0  0  0  0  0  0  0  0  0  0  0  0
  -28.8660  -23.7410   20.7020 C   0  0  0  0  0  0  0  0  0  0  0  0
  -28.9140  -22.4100   20.2610 N   0  0  0  0  0  0  0  0  0  0  0  0
  -29.5070  -21.2300   22.1420 O   0  0  0  0  0  0  0  0  0  0  0  0
  -29.4120  -24.0940   21.7550 O   0  0  0  0  0  0  0  0  0  0  0  0
  -28.5910  -22.2620   19.3180 H   0  0  0  0  0  0  0  0  0  0  0  0
  -30.2750  -18.7030   18.1450 C   0  0  0  0  0  3  0  0  0  0  0  0
  -29.9400  -19.8940   18.8230 C   0  0  0  0  0  3  0  0  0  0  0  0
  -30.2460  -17.4450   18.7840 C   0  0  0  0  0  3  0  0  0  0  0  0
  -29.5390  -18.5580   20.8170 C   0  0  0  0  0  3  0  0  0  0  0  0
  -29.5550  -19.8800   20.1810 C   0  0  0  0  0  0  0  0  0  0  0  0
  -29.8790  -17.3030   20.1430 C   0  0  0  0  0  0  0  0  0  0  0  0
  -29.7920  -15.9820   20.7110 O   0  0  0  0  0  0  0  0  0  0  0  0
  -30.6400  -14.8300   20.3530 C   0  0  0  0  0  0  0  0  0  0  0  0
  -30.4110  -12.5250   19.3540 C   0  0  0  0  0  2  0  0  0  0  0  0
  -29.4850  -12.6350   18.1210 C   0  0  0  0  0  2  0  0  0  0  0  0
  -28.0120  -12.4670   18.5360 C   0  0  0  0  0  2  0  0  0  0  0  0
  -27.6320  -13.3460   19.7580 C   0  0  0  0  0  3  0  0  0  0  0  0
  -28.6760  -13.2560   20.8910 C   0  0  0  0  0  2  0  0  0  0  0  0
  -29.9880  -13.5630   20.3220 N   0  0  0  0  0  0  0  0  0  0  0  0
  -31.8010  -14.9630   19.9550 O   0  0  0  0  0  0  0  0  0  0  0  0
  -25.2420  -13.9290   20.4760 C   0  0  0  0  0  0  0  0  0  0  0  0
  -24.1760  -13.1540   20.8430 C   0  0  0  0  0  0  0  0  0  0  0  0
  -24.6430  -11.8030   20.8180 C   0  0  0  0  0  0  0  0  0  0  0  0
  -26.2870  -13.0520   20.2430 N   0  0  0  0  0  0  0  0  0  0  0  0
  -25.9340  -11.7680   20.5130 N   0  0  0  0  0  0  0  0  0  0  0  0
  -23.9170  -10.5390   21.0100 C   0  0  0  0  0  0  0  0  0  0  0  0
  -24.3390   -9.5790   21.9550 C   0  0  0  0  0  3  0  0  0  0  0  0
  -23.6120   -8.3830   22.1340 C   0  0  0  0  0  3  0  0  0  0  0  0
  -22.4480   -8.1370   21.3670 C   0  0  0  0  0  0  0  0  0  0  0  0
  -22.0450   -9.0860   20.4120 C   0  0  0  0  0  3  0  0  0  0  0  0
  -22.7730  -10.2740   20.2310 C   0  0  0  0  0  3  0  0  0  0  0  0
  -21.6950   -6.9910   21.4550 O   0  0  0  0  0  0  0  0  0  0  0  0
  -21.6250   -6.2620   22.6140 C   0  0  0  0  0  0  0  0  0  0  0  0
  -21.1570   -6.8250   23.8220 C   0  0  0  0  0  3  0  0  0  0  0  0
  -21.0350   -6.0200   24.9730 C   0  0  0  0  0  3  0  0  0  0  0  0
  -21.3720   -4.6550   24.9170 C   0  0  0  0  0  0  0  0  0  0  0  0
  -21.8320   -4.0910   23.7140 C   0  0  0  0  0  3  0  0  0  0  0  0
  -21.9560   -4.8930   22.5650 C   0  0  0  0  0  0  0  0  0  0  0  0
  -22.3790   -4.3390   21.4040 F   0  0  0  0  0  0  0  0  0  0  0  0
  -21.2480   -3.8800   26.0210 F   0  0  0  0  0  0  0  0  0  0  0  0
  -22.7780  -13.6290   21.1080 C   0  0  0  0  0  0  0  0  0  0  0  0
  -22.0450  -12.9300   21.9670 N   0  0  0  0  0  0  0  0  0  0  0  0
  -22.3430  -14.6560   20.5880 O   0  0  0  0  0  0  0  0  0  0  0  0
  -22.4090  -12.0990   22.4100 H   0  0  0  0  0  0  0  0  0  0  0  0
  -21.1050  -13.2300   22.1860 H   0  0  0  0  0  0  0  0  0  0  0  0
  -25.4070  -15.2990   20.3000 N   0  0  0  0  0  0  0  0  0  0  0  0
  -24.6450  -15.9590   20.4150 H   0  0  0  0  0  0  0  0  0  0  0  0
  -26.2690  -15.7390   20.0020 H   0  0  0  0  0  0  0  0  0  0  0  0
  -28.0790  -24.8930   19.8960 C   0  0  0  0  0  2  0  0  0  0  0  0
  -28.2670  -26.3570   20.2790 O   0  0  0  0  0  0  0  0  0  0  0  0
  -24.5900  -31.9140   23.2150 C   0  0  0  0  0  0  0  0  0  0  0  0
  -27.1870  -27.2800   20.1770 C   0  0  0  0  0  0  0  0  0  0  0  0
  -23.3910  -30.5160   21.5740 C   0  0  0  0  0  3  0  0  0  0  0  0
  -24.8430  -28.9610   20.1470 C   0  0  0  0  0  0  0  0  0  0  0  0
  -25.9380  -30.8090   21.4070 C   0  0  0  0  0  2  0  0  0  0  0  0
  -26.0140  -29.4250   20.7580 C   0  0  0  0  0  0  0  0  0  0  0  0
  -27.1860  -28.5950   20.7670 C   0  0  0  0  0  3  0  0  0  0  0  0
  -25.9980  -26.9100   19.5070 C   0  0  0  0  0  3  0  0  0  0  0  0
  -24.8430  -27.7130   19.5090 C   0  0  0  0  0  3  0  0  0  0  0  0
  -23.6100  -29.8430   20.1950 C   0  0  0  0  0  2  0  0  0  0  0  0
  -24.6590  -31.1000   22.1210 N   0  0  0  0  0  0  0  0  0  0  0  0
  -23.5050  -32.1960   23.7440 O   0  0  0  0  0  0  0  0  0  0  0  0
  -22.7200  -29.5030   22.5340 C   0  0  0  0  0  0  0  0  0  0  0  0
  -21.3920  -29.3330   22.4080 N   0  0  0  0  0  0  0  0  0  0  0  0
  -23.3940  -28.8740   23.3530 O   0  0  0  0  0  0  0  0  0  0  0  0
  -20.9060  -29.8920   21.7200 H   0  0  0  0  0  0  0  0  0  0  0  0
  -18.0060  -28.1630   22.9280 C   0  0  0  0  0  0  0  0  0  0  0  0
  -20.5690  -28.3980   23.1790 C   0  0  0  0  0  3  0  0  0  0  0  0
  -20.6530  -26.9690   22.5950 C   0  0  0  0  0  2  0  0  0  0  0  0
  -19.5400  -26.6630   21.5870 C   0  0  0  0  0  2  0  0  0  0  0  0
  -18.1660  -26.8170   22.2420 C   0  0  0  0  0  2  0  0  0  0  0  0
  -19.1350  -28.9130   23.3530 C   0  0  0  0  0  0  0  0  0  0  0  0
  -18.9320  -30.1730   23.9550 C   0  0  0  0  0  3  0  0  0  0  0  0
  -17.6330  -30.6840   24.1360 C   0  0  0  0  0  3  0  0  0  0  0  0
  -16.5180  -29.9310   23.7250 C   0  0  0  0  0  3  0  0  0  0  0  0
  -16.7060  -28.6730   23.1270 C   0  0  0  0  0  3  0  0  0  0  0  0
  -25.8710  -32.5480   23.8400 C   0  0  0  0  0  3  0  0  0  0  0  0
  -26.3780  -31.7820   25.1230 C   0  0  1  0  0  0  0  0  0  0  0  0
  -25.2790  -31.5500   26.1850 C   0  0  0  0  0  1  0  0  0  0  0  0
  -26.9640  -30.4020   24.7450 C   0  0  0  0  0  1  0  0  0  0  0  0
  -27.5250  -32.5800   25.7880 C   0  0  0  0  0  1  0  0  0  0  0  0
  -25.5600  -33.9490   24.1650 N   0  0  0  0  0  0  0  0  0  0  0  0
  -25.8960  -35.0000   23.4080 C   0  0  0  0  0  0  0  0  0  0  0  0
  -26.5700  -34.8950   22.3790 O   0  0  0  0  0  0  0  0  0  0  0  0
  -24.9630  -34.1050   24.9640 H   0  0  0  0  0  0  0  0  0  0  0  0
  -24.1820  -36.8060   23.0370 C   0  0  0  0  0  1  0  0  0  0  0  0
  -25.4110  -36.3910   23.8630 C   0  0  0  0  0  3  0  0  0  0  0  0
  -27.5370  -37.2660   24.7260 C   0  0  0  0  0  1  0  0  0  0  0  0
  -26.4510  -37.4400   23.7660 N   0  0  0  0  0  0  0  0  0  0  0  0
  -26.0470  -38.3610   23.9060 H   0  0  0  0  0  0  0  0  0  0  0  0
  1  4  2  0
  2  5  2  0
  3  2  1  0
  3  1  1  0
  6  3  1  0
  7  9  2  0
  7  8  1  0
  8 11  2  0
  9 12  1  0
 11 10  1  0
 11  1  1  0
 12 13  1  0
 12 10  2  0
 14 13  1  0
 15 20  1  0
 16 17  1  0
 16 15  1  0
 18 17  1  0
 18 25  1  0
 18 19  1  0
 20 14  1  0
 20 19  1  0
 21 14  2  0
 22 23  2  0
 23 42  1  0
 24 23  1  0
 24 27  1  0
 25 22  1  0
 25 26  1  0
 26 24  2  0
 27 28  1  0
 28 29  2  0
 30 33  1  0
 30 29  1  0
 31 30  2  0
 32 31  1  0
 32 27  2  0
 33 34  1  0
 34 35  1  0
 35 36  2  0
 37 36  1  0
 37 41  1  0
 38 37  2  0
 39 34  2  0
 39 38  1  0
 40 39  1  0
 42 43  1  0
 43 46  1  0
 43 45  1  0
 44 42  2  0
 47 48  1  0
 47 22  1  0
 49 47  1  0
 50 51  1  0
 50  2  1  0
 52 63  2  0
 53 51  1  0
 53 58  1  0
 54 62  1  0
 54 64  1  0
 55 61  1  0
 55 57  1  0
 56 62  1  0
 57 58  2  0
 57 56  1  0
 59 60  1  0
 59 53  2  0
 60 55  2  0
 61 54  1  0
 62 52  1  0
 64 66  2  0
 65 64  1  0
 67 65  1  0
 68 77  2  0
 68 73  1  0
 69 65  1  0
 69 73  1  0
 70 69  1  0
 71 72  1  0
 71 70  1  0
 72 68  1  0
 73 74  2  0
 74 75  1  0
 76 75  2  0
 77 76  1  0
 78 52  1  0
 78 83  1  0
 78 79  1  0
 79 82  1  1
 79 80  1  0
 81 79  1  0
 83 86  1  0
 84 88  1  0
 84 83  1  0
 85 84  2  0
 88 87  1  0
 90 88  1  0
 90 91  1  0
 90 89  1  0
M  ISO  4  13 100  14 100  50 101  51 101
M  END
>  <TORSDO>  (19) 
F 19

>  <SCORE>  (19) 
-14.410

>  <name>  (19) 
18

>  <ligand_id>  (19) 
18

>  <original_smiles>  (19) 
[H]c1c([H])c(OC(=O)N2C([H])([H])C([H])([H])C([H])([H])C([H])(n3nc(-c4c([H])c([H])c(Oc5c([H])c([H])c(F)c([H])c5F)c([H])c4[H])c(C(=O)N([H])[H])c3N([H])[H])C2([H])[H])c([H])c(C(=O)N([H])C(=O)C([H])([H])Oc2c([H])c([H])c3c(c2[H])C([H])([H])N(C(=O)C([H])(N([H])C(=O)C([H])(N([H])C([H])([H])[H])C([H])([H])[H])C(C([H])([H])[H])(C([H])([H])[H])C([H])([H])[H])C([H])(C(=O)N([H])C2([H])c4c([H])c([H])c([H])c([H])c4C([H])([H])C([H])([H])C2([H])[H])C3([H])[H])c1[H]

>  <smiles>  (19) 
[H]c1c([H])c(OC(=O)N2C([H])([H])C([H])([H])C([H])([H])C([H])(n3nc(-c4c([H])c([H])c(Oc5c([H])c([H])c(F)c([H])c5F)c([H])c4[H])c(C(=O)N([H])[H])c3N([H])[H])C2([H])[H])c([H])c(C(=O)N([H])C(=O)C([H])([H])Oc2c([H])c([H])c3c(c2[H])C([H])([H])N(C(=O)C([H])(N([H])C(=O)C([H])(N([H])C([H])([H])[H])C([H])([H])[H])C(C([H])([H])[H])(C([H])([H])[H])C([H])([H])[H])C([H])(C(=O)N([H])C2([H])c4c([H])c([H])c([H])c([H])c4C([H])([H])C([H])([H])C2([H])[H])C3([H])[H])c1[H]

$$$$
19:0:0
     RDKit          3D

 96101  0  0  1  0  0  0  0  0999 V2000
  -25.4810  -22.6960   20.1580 C   0  0  0  0  0  0  0  0  0  0  0  0
  -24.6100  -23.6280   19.3900 N   0  0  0  0  0  2  0  0  0  0  0  0
  -25.0390  -22.4210   21.4330 N   0  0  0  0  0  4  0  0  0  0  0  0
  -25.5130  -21.7990   22.0760 H   0  0  0  0  0  0  0  0  0  0  0  0
  -24.2990  -22.9220   21.9100 H   0  0  0  0  0  0  0  0  0  0  0  0
  -29.3490  -21.5530   18.8460 C   0  0  0  0  0  3  0  0  0  0  0  0
  -28.0620  -22.1420   19.1010 C   0  0  0  0  0  3  0  0  0  0  0  0
  -29.9570  -20.4180   19.4870 C   0  0  0  0  0  3  0  0  0  0  0  0
  -27.8970  -20.3740   20.7020 C   0  0  0  0  0  3  0  0  0  0  0  0
  -27.1230  -21.6800   20.0560 C   0  0  0  0  0  0  0  0  0  0  0  0
  -29.3560  -19.6310   20.5020 C   0  0  0  0  0  0  0  0  0  0  0  0
  -31.6070  -17.2810   20.9800 C   0  0  0  0  0  0  0  0  0  0  0  0
  -32.6570  -14.7800   20.6430 C   0  0  0  0  0  2  0  0  0  0  0  0
  -32.1700  -14.0710   19.3300 C   0  0  0  0  0  2  0  0  0  0  0  0
  -30.6950  -13.6430   19.4410 C   0  0  0  0  0  2  0  0  0  0  0  0
  -29.8970  -14.7300   20.1880 C   0  0  0  0  0  3  0  0  0  0  0  0
  -30.5120  -15.0790   21.5380 C   0  0  0  0  0  2  0  0  0  0  0  0
  -31.6490  -15.8440   21.1420 N   0  0  0  0  0  0  0  0  0  0  0  0
  -32.8260  -17.5890   20.8050 O   0  0  0  0  0  0  0  0  0  0  0  0
  -30.2800  -18.1990   21.0260 N   0  0  0  0  0  0  0  0  0  0  0  0
  -29.6200  -17.6210   21.5280 H   0  0  0  0  0  0  0  0  0  0  0  0
  -27.4830  -15.3380   20.4640 C   0  0  0  0  0  0  0  0  0  0  0  0
  -26.3790  -14.5770   20.6860 C   0  0  0  0  0  0  0  0  0  0  0  0
  -26.8410  -13.2270   20.7870 C   0  0  0  0  0  0  0  0  0  0  0  0
  -28.5230  -14.4380   20.4030 N   0  0  0  0  0  0  0  0  0  0  0  0
  -28.1550  -13.1710   20.6830 N   0  0  0  0  0  0  0  0  0  0  0  0
  -26.1040  -11.9740   20.8990 C   0  0  0  0  0  0  0  0  0  0  0  0
  -26.2290  -11.1400   22.0310 C   0  0  0  0  0  3  0  0  0  0  0  0
  -25.4910   -9.9420   22.1130 C   0  0  0  0  0  3  0  0  0  0  0  0
  -24.6200   -9.5750   21.0600 C   0  0  0  0  0  0  0  0  0  0  0  0
  -24.5220  -10.3980   19.9260 C   0  0  0  0  0  3  0  0  0  0  0  0
  -25.2610  -11.5860   19.8410 C   0  0  0  0  0  3  0  0  0  0  0  0
  -23.8770   -8.4220   21.0430 O   0  0  0  0  0  0  0  0  0  0  0  0
  -23.2270   -7.9710   22.1630 C   0  0  0  0  0  0  0  0  0  0  0  0
  -22.2570   -8.7520   22.8260 C   0  0  0  0  0  3  0  0  0  0  0  0
  -21.5630   -8.2210   23.9320 C   0  0  0  0  0  3  0  0  0  0  0  0
  -21.8320   -6.9090   24.3680 C   0  0  0  0  0  0  0  0  0  0  0  0
  -22.7960   -6.1300   23.7050 C   0  0  0  0  0  3  0  0  0  0  0  0
  -23.4890   -6.6590   22.6030 C   0  0  0  0  0  0  0  0  0  0  0  0
  -24.4030   -5.8980   21.9530 F   0  0  0  0  0  0  0  0  0  0  0  0
  -21.1600   -6.3940   25.4240 F   0  0  0  0  0  0  0  0  0  0  0  0
  -24.9650  -15.0640   20.6890 C   0  0  0  0  0  0  0  0  0  0  0  0
  -24.0990  -14.4090   21.4490 N   0  0  0  0  0  0  0  0  0  0  0  0
  -24.6350  -16.0610   20.0470 O   0  0  0  0  0  0  0  0  0  0  0  0
  -24.3820  -13.6070   21.9930 H   0  0  0  0  0  0  0  0  0  0  0  0
  -23.1350  -14.7090   21.4870 H   0  0  0  0  0  0  0  0  0  0  0  0
  -27.6800  -16.7050   20.2860 N   0  0  0  0  0  0  0  0  0  0  0  0
  -26.8850  -17.3330   20.2690 H   0  0  0  0  0  0  0  0  0  0  0  0
  -28.5240  -17.1320   19.9220 H   0  0  0  0  0  0  0  0  0  0  0  0
  -21.8630  -23.4040   19.9610 O   0  0  0  0  0  1  0  0  0  0  0  0
  -22.9780  -25.4260   20.8310 O   0  0  0  0  0  1  0  0  0  0  0  0
  -22.7320  -24.5570   19.6680 S   0  0  0  0  0  3  0  0  0  0  0  0
  -21.1040  -26.0020   18.3330 C   0  0  0  0  0  2  0  0  0  0  0  0
  -22.2620  -27.2460   16.0020 C   0  0  0  0  0  1  0  0  0  0  0  0
  -24.2970  -27.1300   15.7990 C   0  0  0  0  0  1  0  0  0  0  0  0
  -25.8820  -26.7780   16.6480 O   0  0  0  0  0  0  0  0  0  0  0  0
  -25.9300  -29.2710   21.5590 C   0  0  0  0  0  0  0  0  0  0  0  0
  -27.2980  -27.0530   16.4680 C   0  0  0  0  0  3  0  0  0  0  0  0
  -24.8830  -29.4850   19.3660 C   0  0  0  0  0  3  0  0  0  0  0  0
  -26.4220  -29.3160   17.2820 C   0  0  0  0  0  3  0  0  0  0  0  0
  -27.4100  -29.2170   19.5540 C   0  0  0  0  0  2  0  0  0  0  0  0
  -27.3180  -28.6880   18.1450 C   0  0  0  0  0  3  0  0  0  0  0  0
  -27.9560  -27.5380   17.6450 C   0  0  0  0  0  2  0  0  0  0  0  0
  -27.2840  -27.9530   15.4430 C   0  0  0  0  0  2  0  0  0  0  0  0
  -26.5890  -29.0960   15.8810 C   0  0  0  0  0  2  0  0  0  0  0  0
  -25.2550  -30.0290   17.9350 C   0  0  0  0  0  2  0  0  0  0  0  0
  -26.0940  -29.3600   20.2150 N   0  0  0  0  0  0  0  0  0  0  0  0
  -24.8120  -29.3850   22.0840 O   0  0  0  0  0  0  0  0  0  0  0  0
  -24.1780  -28.1020   19.4350 C   0  0  0  0  0  0  0  0  0  0  0  0
  -22.9980  -27.9740   19.9770 N   0  0  0  0  0  0  0  0  0  0  0  0
  -24.7190  -27.0700   19.0720 O   0  0  0  0  0  0  0  0  0  0  0  0
  -22.5740  -28.7670   20.4380 H   0  0  0  0  0  0  0  0  0  0  0  0
  -19.4020  -27.8570   20.1680 C   0  0  0  0  0  0  0  0  0  0  0  0
  -22.0960  -26.8450   19.6210 C   0  0  0  0  0  3  0  0  0  0  0  0
  -21.9770  -26.3880   17.5820 C   0  0  0  0  0  2  0  0  0  0  0  0
  -19.8850  -27.2130   16.8310 C   0  0  0  0  0 15  0  0  0  0  0  0
  -18.8480  -27.8860   18.4690 C   0  0  0  0  0  1  0  0  0  0  0  0
  -20.7900  -27.4650   20.6150 C   0  0  0  0  0  0  0  0  0  0  0  0
  -21.1150  -27.7460   22.0200 C   0  0  0  0  0  3  0  0  0  0  0  0
  -20.2280  -28.2180   23.0260 C   0  0  0  0  0  3  0  0  0  0  0  0
  -18.8880  -28.4000   22.6670 C   0  0  0  0  0  3  0  0  0  0  0  0
  -18.5120  -28.2240   21.2900 C   0  0  0  0  0  3  0  0  0  0  0  0
  -27.1480  -29.0370   22.4870 C   0  0  0  0  0  3  0  0  0  0  0  0
  -26.9480  -29.9050   23.6510 N   0  0  0  0  0  0  0  0  0  0  0  0
  -27.5350  -31.0960   23.8120 C   0  0  0  0  0  0  0  0  0  0  0  0
  -28.3800  -31.5380   23.0280 O   0  0  0  0  0  0  0  0  0  0  0  0
  -26.2290  -29.6290   24.3050 H   0  0  0  0  0  0  0  0  0  0  0  0
  -26.1560  -33.0370   24.6190 C   0  0  0  0  0  1  0  0  0  0  0  0
  -27.1270  -31.9230   25.0440 C   0  0  0  0  0  3  0  0  0  0  0  0
  -29.1240  -31.5060   26.4080 C   0  0  0  0  0  1  0  0  0  0  0  0
  -28.2790  -32.5080   25.7640 N   0  0  0  0  0  0  0  0  0  0  0  0
  -27.9640  -33.1630   26.4760 H   0  0  0  0  0  0  0  0  0  0  0  0
  -27.3210  -27.5330   22.9250 C   0  0  1  0  0  0  0  0  0  0  0  0
  -26.0220  -26.8840   23.4590 C   0  0  0  0  0  1  0  0  0  0  0  0
  -27.8300  -26.6660   21.7520 C   0  0  0  0  0  1  0  0  0  0  0  0
  -28.3960  -27.4470   24.0300 C   0  0  0  0  0  1  0  0  0  0  0  0
  1  3  2  0
  2 52  1  0
  2  1  1  0
  3  5  1  0
  3  4  1  0
  6  7  2  0
  6  8  1  0
  7 10  1  0
  8 11  2  0
 10  1  1  0
 10  9  2  0
 11  9  1  0
 11 20  1  0
 12 20  1  0
 12 18  1  0
 13 18  1  0
 14 15  1  0
 14 13  1  0
 16 15  1  0
 16 25  1  0
 16 17  1  0
 18 17  1  0
 19 12  2  0
 20 21  1  0
 22 23  2  0
 23 42  1  0
 23 24  1  0
 24 27  1  0
 25 22  1  0
 25 26  1  0
 26 24  2  0
 27 28  1  0
 28 29  2  0
 30 29  1  0
 31 30  2  0
 32 31  1  0
 32 27  2  0
 33 30  1  0
 33 34  1  0
 34 39  2  0
 34 35  1  0
 35 36  2  0
 36 37  1  0
 37 41  1  0
 38 37  2  0
 39 38  1  0
 40 39  1  0
 42 43  1  0
 43 46  1  0
 43 45  1  0
 44 42  2  0
 47 22  1  0
 48 47  1  0
 49 47  1  0
 52 50  1  1
 52 51  1  0
 54 75  1  0
 55 56  1  0
 57 68  2  0
 58 56  1  0
 58 63  1  0
 59 69  1  0
 59 67  1  0
 60 65  1  0
 60 66  1  0
 60 62  1  0
 61 67  1  0
 62 63  1  0
 62 61  1  0
 64 65  1  0
 64 58  1  0
 66 59  1  0
 67 57  1  0
 69 70  1  0
 70 72  1  0
 71 69  2  0
 73 78  2  0
 73 82  1  0
 74 53  1  0
 74 70  1  0
 74 78  1  0
 75 53  1  0
 77 73  1  0
 78 79  1  0
 79 80  2  0
 81 80  1  0
 82 81  2  0
 83 57  1  0
 83 93  1  0
 83 84  1  0
 84 85  1  0
 84 87  1  0
 85 89  1  0
 86 85  2  0
 89 88  1  0
 89 91  1  0
 91 90  1  0
 91 92  1  0
 93 94  1  1
 93 96  1  0
 95 93  1  0
M  ISO  4  12 100  20 100  55 101  56 101
M  END
>  <TORSDO>  (20) 
F 21

>  <SCORE>  (20) 
-0.969

>  <name>  (20) 
19

>  <ligand_id>  (20) 
19

>  <original_smiles>  (20) 
[H]c1c([H])c(C(=NS(=O)(=O)C([H])([H])C([H])([H])C([H])([H])Oc2c([H])c([H])c3c(c2[H])C([H])([H])N(C(=O)C([H])(N([H])C(=O)C([H])(N([H])C([H])([H])[H])C([H])([H])[H])C(C([H])([H])[H])(C([H])([H])[H])C([H])([H])[H])C([H])(C(=O)N([H])C2([H])c4c([H])c([H])c([H])c([H])c4C([H])([H])C([H])([H])C2([H])[H])C3([H])[H])N([H])[H])c([H])c(N([H])C(=O)N2C([H])([H])C([H])([H])C([H])([H])C([H])(n3nc(-c4c([H])c([H])c(Oc5c([H])c([H])c(F)c([H])c5F)c([H])c4[H])c(C(=O)N([H])[H])c3N([H])[H])C2([H])[H])c1[H]

>  <smiles>  (20) 
[H]c1c([H])c(C(=NS(=O)(=O)C([H])([H])C([H])([H])C([H])([H])Oc2c([H])c([H])c3c(c2[H])C([H])([H])N(C(=O)C([H])(N([H])C(=O)C([H])(N([H])C([H])([H])[H])C([H])([H])[H])C(C([H])([H])[H])(C([H])([H])[H])C([H])([H])[H])C([H])(C(=O)N([H])C2([H])c4c([H])c([H])c([H])c([H])c4C([H])([H])C([H])([H])C2([H])[H])C3([H])[H])N([H])[H])c([H])c(N([H])C(=O)N2C([H])([H])C([H])([H])C([H])([H])C([H])(n3nc(-c4c([H])c([H])c(Oc5c([H])c([H])c(F)c([H])c5F)c([H])c4[H])c(C(=O)N([H])[H])c3N([H])[H])C2([H])[H])c1[H]

$$$$
20:0:0
     RDKit          3D

 93102  0  0  1  0  0  0  0  0999 V2000
  -28.4400  -24.2450   20.7050 C   0  0  0  0  0  0  0  0  0  0  0  0
  -28.1530  -23.0770   21.5060 C   0  0  0  0  0  0  0  0  0  0  0  0
  -28.1920  -25.5550   20.9630 C   0  0  0  0  0  3  0  0  0  0  0  0
  -29.0660  -23.3840   19.6260 C   0  0  0  0  0  2  0  0  0  0  0  0
  -28.5930  -22.2560   20.4640 N   0  0  0  0  0  0  0  0  0  0  0  0
  -27.8090  -22.9520   22.6630 O   0  0  0  0  0  0  0  0  0  0  0  0
  -31.0580  -19.3770   20.0640 C   0  0  0  0  0  3  0  0  0  0  0  0
  -28.9450  -18.4530   20.7730 C   0  0  0  0  0  3  0  0  0  0  0  0
  -30.4960  -20.6730   20.0340 C   0  0  0  0  0  3  0  0  0  0  0  0
  -28.4010  -19.7690   20.7690 C   0  0  0  0  0  3  0  0  0  0  0  0
  -30.3010  -18.2390   20.4310 C   0  0  0  0  0  0  0  0  0  0  0  0
  -29.1520  -20.9280   20.4100 C   0  0  0  0  0  0  0  0  0  0  0  0
  -30.9900  -14.6140   19.8070 C   0  0  0  0  0  0  0  0  0  0  0  0
  -30.5540  -12.4320   18.7180 C   0  0  0  0  0  2  0  0  0  0  0  0
  -29.5200  -12.5900   17.5880 C   0  0  0  0  0  2  0  0  0  0  0  0
  -28.0900  -12.4520   18.1450 C   0  0  0  0  0  2  0  0  0  0  0  0
  -27.8520  -13.3150   19.4140 C   0  0  0  0  0  3  0  0  0  0  0  0
  -29.0030  -13.1650   20.4330 C   0  0  0  0  0  2  0  0  0  0  0  0
  -30.2580  -13.4650   19.7310 N   0  0  0  0  0  0  0  0  0  0  0  0
  -32.1010  -14.6720   19.2720 O   0  0  0  0  0  0  0  0  0  0  0  0
  -31.0230  -16.9050   20.5610 C   0  0  0  0  0  0  0  0  0  0  0  0
  -30.3850  -15.7300   20.3060 N   0  0  0  0  0  0  0  0  0  0  0  0
  -32.2270  -16.9640   20.8480 O   0  0  0  0  0  0  0  0  0  0  0  0
  -29.3820  -15.7180   20.3890 H   0  0  0  0  0  0  0  0  0  0  0  0
  -25.5620  -13.9170   20.4100 C   0  0  0  0  0  0  0  0  0  0  0  0
  -24.5220  -13.1450   20.8490 C   0  0  0  0  0  0  0  0  0  0  0  0
  -24.9450  -11.7870   20.7020 C   0  0  0  0  0  0  0  0  0  0  0  0
  -26.5550  -13.0320   20.0220 N   0  0  0  0  0  0  0  0  0  0  0  0
  -26.1950  -11.7430   20.2550 N   0  0  0  0  0  0  0  0  0  0  0  0
  -24.2130  -10.5300   20.9000 C   0  0  0  0  0  0  0  0  0  0  0  0
  -24.6470   -9.5570   21.8270 C   0  0  0  0  0  3  0  0  0  0  0  0
  -23.9120   -8.3680   22.0150 C   0  0  0  0  0  3  0  0  0  0  0  0
  -22.7280   -8.1410   21.2740 C   0  0  0  0  0  0  0  0  0  0  0  0
  -22.3120   -9.1010   20.3350 C   0  0  0  0  0  3  0  0  0  0  0  0
  -23.0480  -10.2820   20.1460 C   0  0  0  0  0  3  0  0  0  0  0  0
  -21.9660   -7.0020   21.3710 O   0  0  0  0  0  0  0  0  0  0  0  0
  -21.8310   -6.3230   22.5540 C   0  0  0  0  0  0  0  0  0  0  0  0
  -21.3210   -6.9420   23.7160 C   0  0  0  0  0  3  0  0  0  0  0  0
  -21.1340   -6.1880   24.8920 C   0  0  0  0  0  3  0  0  0  0  0  0
  -21.4490   -4.8170   24.9060 C   0  0  0  0  0  0  0  0  0  0  0  0
  -21.9540   -4.1970   23.7500 C   0  0  0  0  0  3  0  0  0  0  0  0
  -22.1400   -4.9480   22.5750 C   0  0  0  0  0  0  0  0  0  0  0  0
  -22.6060   -4.3410   21.4570 F   0  0  0  0  0  0  0  0  0  0  0  0
  -21.2630   -4.0900   26.0330 F   0  0  0  0  0  0  0  0  0  0  0  0
  -23.1720  -13.6310   21.2930 C   0  0  0  0  0  0  0  0  0  0  0  0
  -22.5230  -12.9040   22.1950 N   0  0  0  0  0  0  0  0  0  0  0  0
  -22.7050  -14.6880   20.8700 O   0  0  0  0  0  0  0  0  0  0  0  0
  -22.9140  -12.0500   22.5620 H   0  0  0  0  0  0  0  0  0  0  0  0
  -21.6190  -13.2090   22.5250 H   0  0  0  0  0  0  0  0  0  0  0  0
  -25.7390  -15.2920   20.2880 N   0  0  0  0  0  0  0  0  0  0  0  0
  -24.9960  -15.9510   20.5000 H   0  0  0  0  0  0  0  0  0  0  0  0
  -26.5460  -15.7390   19.8740 H   0  0  0  0  0  0  0  0  0  0  0  0
  -28.4350  -26.6520   20.1450 O   0  0  0  0  0  0  0  0  0  0  0  0
  -24.6580  -31.8800   23.1850 C   0  0  0  0  0  0  0  0  0  0  0  0
  -27.3500  -27.5010   20.0560 C   0  0  0  0  0  0  0  0  0  0  0  0
  -23.4800  -30.5030   21.5060 C   0  0  0  0  0  3  0  0  0  0  0  0
  -24.9620  -29.0160   20.0500 C   0  0  0  0  0  0  0  0  0  0  0  0
  -26.0060  -30.8860   21.3390 C   0  0  0  0  0  2  0  0  0  0  0  0
  -26.1140  -29.5300   20.6630 C   0  0  0  0  0  0  0  0  0  0  0  0
  -27.3170  -28.7820   20.6620 C   0  0  0  0  0  3  0  0  0  0  0  0
  -26.1900  -27.0170   19.4180 C   0  0  0  0  0  3  0  0  0  0  0  0
  -24.9990  -27.7630   19.4170 C   0  0  0  0  0  3  0  0  0  0  0  0
  -23.7070  -29.8590   20.1120 C   0  0  0  0  0  2  0  0  0  0  0  0
  -24.7320  -31.1030   22.0680 N   0  0  0  0  0  0  0  0  0  0  0  0
  -23.5690  -32.1320   23.7190 O   0  0  0  0  0  0  0  0  0  0  0  0
  -22.8300  -29.4530   22.4360 C   0  0  0  0  0  0  0  0  0  0  0  0
  -21.5080  -29.2570   22.2930 N   0  0  0  0  0  0  0  0  0  0  0  0
  -23.5140  -28.8180   23.2450 O   0  0  0  0  0  0  0  0  0  0  0  0
  -21.0180  -29.8230   21.6150 H   0  0  0  0  0  0  0  0  0  0  0  0
  -18.1490  -28.0010   22.7110 C   0  0  0  0  0  0  0  0  0  0  0  0
  -20.6950  -28.2960   23.0370 C   0  0  0  0  0  3  0  0  0  0  0  0
  -20.8320  -26.8750   22.4440 C   0  0  0  0  0  2  0  0  0  0  0  0
  -19.7550  -26.5470   21.4050 C   0  0  0  0  0  2  0  0  0  0  0  0
  -18.3590  -26.6630   22.0240 C   0  0  0  0  0  2  0  0  0  0  0  0
  -19.2460  -28.7750   23.1740 C   0  0  0  0  0  0  0  0  0  0  0  0
  -18.9940  -30.0280   23.7750 C   0  0  0  0  0  3  0  0  0  0  0  0
  -17.6780  -30.5050   23.9200 C   0  0  0  0  0  3  0  0  0  0  0  0
  -16.5950  -29.7270   23.4750 C   0  0  0  0  0  3  0  0  0  0  0  0
  -16.8310  -28.4760   22.8760 C   0  0  0  0  0  3  0  0  0  0  0  0
  -25.9330  -32.5100   23.8280 C   0  0  0  0  0  3  0  0  0  0  0  0
  -25.6110  -33.9010   24.1700 N   0  0  0  0  0  0  0  0  0  0  0  0
  -25.9380  -34.9630   23.4200 C   0  0  0  0  0  0  0  0  0  0  0  0
  -26.6100  -34.8740   22.3900 O   0  0  0  0  0  0  0  0  0  0  0  0
  -25.0130  -34.0440   24.9690 H   0  0  0  0  0  0  0  0  0  0  0  0
  -24.1920  -36.7400   23.0810 C   0  0  0  0  0  1  0  0  0  0  0  0
  -25.4380  -36.3420   23.8880 C   0  0  0  0  0  3  0  0  0  0  0  0
  -27.5650  -37.2440   24.7220 C   0  0  0  0  0  1  0  0  0  0  0  0
  -26.4600  -37.4060   23.7810 N   0  0  0  0  0  0  0  0  0  0  0  0
  -26.0450  -38.3210   23.9340 H   0  0  0  0  0  0  0  0  0  0  0  0
  -26.4370  -31.7250   25.1000 C   0  0  1  0  0  0  0  0  0  0  0  0
  -25.3320  -31.4720   26.1500 C   0  0  0  0  0  1  0  0  0  0  0  0
  -27.0310  -30.3530   24.6970 C   0  0  0  0  0  1  0  0  0  0  0  0
  -27.5750  -32.5160   25.7860 C   0  0  0  0  0  1  0  0  0  0  0  0
  1  3  2  0
  1  2  1  0
  2  6  2  0
  4  5  1  0
  4  1  1  0
  5  2  1  0
  7 11  1  0
  9  7  2  0
  9 12  1  0
 10  8  1  0
 11 21  1  0
 11  8  2  0
 12  5  1  0
 12 10  2  0
 13 22  1  0
 14 19  1  0
 15 16  1  0
 15 14  1  0
 17 16  1  0
 17 28  1  0
 17 18  1  0
 19 13  1  0
 19 18  1  0
 20 13  2  0
 21 23  2  0
 22 24  1  0
 22 21  1  0
 25 26  2  0
 26 45  1  0
 27 26  1  0
 27 30  1  0
 28 29  1  0
 28 25  1  0
 29 27  2  0
 30 31  1  0
 31 32  2  0
 33 36  1  0
 33 32  1  0
 34 33  2  0
 35 34  1  0
 35 30  2  0
 36 37  1  0
 37 42  2  0
 37 38  1  0
 38 39  2  0
 39 40  1  0
 40 44  1  0
 41 40  2  0
 42 41  1  0
 43 42  1  0
 45 46  1  0
 46 49  1  0
 46 48  1  0
 47 45  2  0
 50 25  1  0
 50 51  1  0
 52 50  1  0
 53  3  1  0
 54 65  2  0
 55 53  1  0
 55 60  1  0
 56 64  1  0
 56 66  1  0
 57 63  1  0
 57 59  1  0
 58 64  1  0
 59 58  1  0
 60 59  2  0
 61 55  2  0
 62 61  1  0
 62 57  2  0
 63 56  1  0
 64 54  1  0
 66 68  2  0
 67 66  1  0
 69 67  1  0
 70 79  2  0
 70 75  1  0
 71 67  1  0
 71 75  1  0
 72 71  1  0
 73 74  1  0
 73 72  1  0
 74 70  1  0
 75 76  2  0
 76 77  1  0
 78 77  2  0
 79 78  1  0
 80 54  1  0
 80 81  1  0
 80 90  1  0
 81 84  1  0
 82 86  1  0
 82 81  1  0
 83 82  2  0
 86 85  1  0
 88 86  1  0
 88 89  1  0
 88 87  1  0
 90 93  1  1
 90 91  1  0
 92 90  1  0
M  ISO  4   3 101  13 100  22 100  53 101
M  END
>  <TORSDO>  (21) 
F 17

>  <SCORE>  (21) 
-14.036

>  <name>  (21) 
20

>  <ligand_id>  (21) 
20

>  <original_smiles>  (21) 
[H]C(Oc1c([H])c([H])c2c(c1[H])C([H])([H])N(C(=O)C([H])(N([H])C(=O)C([H])(N([H])C([H])([H])[H])C([H])([H])[H])C(C([H])([H])[H])(C([H])([H])[H])C([H])([H])[H])C([H])(C(=O)N([H])C1([H])c3c([H])c([H])c([H])c([H])c3C([H])([H])C([H])([H])C1([H])[H])C2([H])[H])=C1C(=O)N(c2c([H])c([H])c(C(=O)N([H])C(=O)N3C([H])([H])C([H])([H])C([H])([H])C([H])(n4nc(-c5c([H])c([H])c(Oc6c([H])c([H])c(F)c([H])c6F)c([H])c5[H])c(C(=O)N([H])[H])c4N([H])[H])C3([H])[H])c([H])c2[H])C1([H])[H]

>  <smiles>  (21) 
[H]C(Oc1c([H])c([H])c2c(c1[H])C([H])([H])N(C(=O)C([H])(N([H])C(=O)C([H])(N([H])C([H])([H])[H])C([H])([H])[H])C(C([H])([H])[H])(C([H])([H])[H])C([H])([H])[H])C([H])(C(=O)N([H])C1([H])c3c([H])c([H])c([H])c([H])c3C([H])([H])C([H])([H])C1([H])[H])C2([H])[H])=C1C(=O)N(c2c([H])c([H])c(C(=O)N([H])C(=O)N3C([H])([H])C([H])([H])C([H])([H])C([H])(n4nc(-c5c([H])c([H])c(Oc6c([H])c([H])c(F)c([H])c6F)c([H])c5[H])c(C(=O)N([H])[H])c4N([H])[H])C3([H])[H])c([H])c2[H])C1([H])[H]

$$$$
21:0:0
     RDKit          3D

 87 95  0  0  1  0  0  0  0  0999 V2000
  -29.2700  -19.0110   18.8320 C   0  0  0  0  0  3  0  0  0  0  0  0
  -28.9230  -20.5050   18.8140 C   0  0  0  0  0  0  0  0  0  0  0  0
  -29.0170  -21.3140   19.9750 C   0  0  0  0  0  0  0  0  0  0  0  0
  -29.6650  -18.3100   19.9930 C   0  0  0  0  0  0  0  0  0  0  0  0
  -28.4900  -21.1390   17.5250 C   0  0  0  0  0  1  0  0  0  0  0  0
  -29.5750  -19.8770   21.1010 S   0  0  0  0  0  0  0  0  0  0  0  0
  -30.5500  -15.5400   19.8390 C   0  0  0  0  0  0  0  0  0  0  0  0
  -30.5300  -13.0630   18.9330 C   0  0  0  0  0  2  0  0  0  0  0  0
  -29.5260  -12.8050   17.7750 C   0  0  0  0  0  2  0  0  0  0  0  0
  -28.1300  -12.4720   18.3220 C   0  0  0  0  0  2  0  0  0  0  0  0
  -27.7440  -13.4110   19.4880 C   0  0  0  0  0  3  0  0  0  0  0  0
  -28.8710  -13.5880   20.5270 C   0  0  0  0  0  2  0  0  0  0  0  0
  -30.0240  -14.1910   19.8240 N   0  0  0  0  0  0  0  0  0  0  0  0
  -31.6990  -15.5520   19.3620 O   0  0  0  0  0  0  0  0  0  0  0  0
  -29.5720  -16.6450   21.7680 C   0  0  0  0  0  1  0  0  0  0  0  0
  -29.8800  -16.8190   20.3420 N   0  0  0  0  0  0  0  0  0  0  0  0
  -25.4650  -13.9160   20.5010 C   0  0  0  0  0  0  0  0  0  0  0  0
  -24.4380  -13.1180   20.9210 C   0  0  0  0  0  0  0  0  0  0  0  0
  -24.8920  -11.7720   20.7640 C   0  0  0  0  0  0  0  0  0  0  0  0
  -26.4720  -13.0570   20.1020 N   0  0  0  0  0  0  0  0  0  0  0  0
  -26.1480  -11.7560   20.3270 N   0  0  0  0  0  0  0  0  0  0  0  0
  -24.1780  -10.5010   20.9480 C   0  0  0  0  0  0  0  0  0  0  0  0
  -24.6230   -9.5270   21.8680 C   0  0  0  0  0  3  0  0  0  0  0  0
  -23.9040   -8.3240   22.0410 C   0  0  0  0  0  3  0  0  0  0  0  0
  -22.7250   -8.0880   21.2960 C   0  0  0  0  0  0  0  0  0  0  0  0
  -22.2980   -9.0510   20.3650 C   0  0  0  0  0  3  0  0  0  0  0  0
  -23.0180  -10.2440   20.1890 C   0  0  0  0  0  3  0  0  0  0  0  0
  -21.9790   -6.9370   21.3790 O   0  0  0  0  0  0  0  0  0  0  0  0
  -21.8430   -6.2500   22.5590 C   0  0  0  0  0  0  0  0  0  0  0  0
  -21.2630   -6.8410   23.7020 C   0  0  0  0  0  3  0  0  0  0  0  0
  -21.0780   -6.0780   24.8730 C   0  0  0  0  0  3  0  0  0  0  0  0
  -21.4650   -4.7240   24.9000 C   0  0  0  0  0  0  0  0  0  0  0  0
  -22.0380   -4.1330   23.7610 C   0  0  0  0  0  3  0  0  0  0  0  0
  -22.2230   -4.8930   22.5930 C   0  0  0  0  0  0  0  0  0  0  0  0
  -22.7560   -4.3120   21.4900 F   0  0  0  0  0  0  0  0  0  0  0  0
  -21.2820   -3.9890   26.0220 F   0  0  0  0  0  0  0  0  0  0  0  0
  -23.0770  -13.5800   21.3480 C   0  0  0  0  0  0  0  0  0  0  0  0
  -22.4350  -12.8440   22.2480 N   0  0  0  0  0  0  0  0  0  0  0  0
  -22.5960  -14.6280   20.9200 O   0  0  0  0  0  0  0  0  0  0  0  0
  -22.8410  -11.9950   22.6130 H   0  0  0  0  0  0  0  0  0  0  0  0
  -21.5260  -13.1350   22.5770 H   0  0  0  0  0  0  0  0  0  0  0  0
  -25.6210  -15.2960   20.3970 N   0  0  0  0  0  0  0  0  0  0  0  0
  -24.8780  -15.9430   20.6330 H   0  0  0  0  0  0  0  0  0  0  0  0
  -26.4500  -15.7550   20.0420 H   0  0  0  0  0  0  0  0  0  0  0  0
  -28.8400  -23.0100   20.2890 C   0  0  0  0  0  3  0  0  0  0  0  0
  -28.0580  -24.1620   19.9170 N   0  0  0  0  0  0  0  0  0  0  0  0
  -28.2960  -25.7860   20.2640 O   0  0  0  0  0  0  0  0  0  0  0  0
  -24.7360  -31.8450   23.2510 C   0  0  0  0  0  0  0  0  0  0  0  0
  -27.2840  -26.9170   20.1890 C   0  0  0  0  0  0  0  0  0  0  0  0
  -23.5490  -30.4750   21.5850 C   0  0  0  0  0  3  0  0  0  0  0  0
  -25.0010  -28.8660   20.1480 C   0  0  0  0  0  0  0  0  0  0  0  0
  -26.1210  -30.6500   21.4680 C   0  0  0  0  0  2  0  0  0  0  0  0
  -26.1860  -29.2380   20.7940 C   0  0  0  0  0  0  0  0  0  0  0  0
  -27.3120  -28.2840   20.7930 C   0  0  0  0  0  3  0  0  0  0  0  0
  -26.0720  -26.7240   19.4840 C   0  0  0  0  0  3  0  0  0  0  0  0
  -24.9750  -27.6330   19.4720 C   0  0  0  0  0  3  0  0  0  0  0  0
  -23.7890  -29.8030   20.2010 C   0  0  0  0  0  2  0  0  0  0  0  0
  -24.8240  -31.0190   22.1550 N   0  0  0  0  0  0  0  0  0  0  0  0
  -23.6430  -32.1360   23.7660 O   0  0  0  0  0  0  0  0  0  0  0  0
  -22.8370  -29.4760   22.5350 C   0  0  0  0  0  0  0  0  0  0  0  0
  -21.5080  -29.3140   22.3920 N   0  0  0  0  0  0  0  0  0  0  0  0
  -23.4880  -28.8480   23.3730 O   0  0  0  0  0  0  0  0  0  0  0  0
  -21.0340  -29.8720   21.6950 H   0  0  0  0  0  0  0  0  0  0  0  0
  -18.1210  -28.0910   22.8520 C   0  0  0  0  0  0  0  0  0  0  0  0
  -20.6770  -28.3670   23.1450 C   0  0  0  0  0  3  0  0  0  0  0  0
  -20.7900  -26.9410   22.5570 C   0  0  0  0  0  2  0  0  0  0  0  0
  -19.7000  -26.6250   21.5270 C   0  0  0  0  0  2  0  0  0  0  0  0
  -18.3110  -26.7530   22.1580 C   0  0  0  0  0  2  0  0  0  0  0  0
  -19.2310  -28.8570   23.3010 C   0  0  0  0  0  0  0  0  0  0  0  0
  -18.9950  -30.1070   23.9120 C   0  0  0  0  0  3  0  0  0  0  0  0
  -17.6850  -30.5930   24.0780 C   0  0  0  0  0  3  0  0  0  0  0  0
  -16.5900  -29.8260   23.6420 C   0  0  0  0  0  3  0  0  0  0  0  0
  -16.8090  -28.5770   23.0360 C   0  0  0  0  0  3  0  0  0  0  0  0
  -26.0020  -32.4780   23.9040 C   0  0  0  0  0  3  0  0  0  0  0  0
  -25.6970  -33.8850   24.2230 N   0  0  0  0  0  0  0  0  0  0  0  0
  -26.0190  -34.9360   23.4560 C   0  0  0  0  0  0  0  0  0  0  0  0
  -26.6650  -34.8230   22.4120 O   0  0  0  0  0  0  0  0  0  0  0  0
  -25.1220  -34.0470   25.0360 H   0  0  0  0  0  0  0  0  0  0  0  0
  -24.2760  -36.7330   23.1670 C   0  0  0  0  0  1  0  0  0  0  0  0
  -25.5560  -36.3340   23.9200 C   0  0  0  0  0  3  0  0  0  0  0  0
  -27.7210  -37.2440   24.6430 C   0  0  0  0  0  1  0  0  0  0  0  0
  -26.5810  -37.3860   23.7420 N   0  0  0  0  0  0  0  0  0  0  0  0
  -26.1780  -38.3090   23.8820 H   0  0  0  0  0  0  0  0  0  0  0  0
  -26.4690  -31.7210   25.2100 C   0  0  1  0  0  0  0  0  0  0  0  0
  -25.3420  -31.5170   26.2490 C   0  0  0  0  0  1  0  0  0  0  0  0
  -27.0430  -30.3280   24.8650 C   0  0  0  0  0  1  0  0  0  0  0  0
  -27.6110  -32.5090   25.8910 C   0  0  0  0  0  1  0  0  0  0  0  0
  1  4  2  0
  2  1  1  0
  2  3  2  0
  3 45  1  0
  3  6  1  0
  4 16  1  0
  4  6  1  0
  5  2  1  0
  7 16  1  0
  8 13  1  0
  9 10  1  0
  9  8  1  0
 11 10  1  0
 11 20  1  0
 11 12  1  0
 13  7  1  0
 13 12  1  0
 14  7  2  0
 16 15  1  0
 17 18  2  0
 18 37  1  0
 19 18  1  0
 19 22  1  0
 20 21  1  0
 20 17  1  0
 21 19  2  0
 22 23  1  0
 23 24  2  0
 25 28  1  0
 25 24  1  0
 26 25  2  0
 27 26  1  0
 27 22  2  0
 28 29  1  0
 29 34  2  0
 29 30  1  0
 30 31  2  0
 31 32  1  0
 32 36  1  0
 33 32  2  0
 34 33  1  0
 35 34  1  0
 37 38  1  0
 38 41  1  0
 38 40  1  0
 39 37  2  0
 42 17  1  0
 42 43  1  0
 44 42  1  0
 46 47  1  0
 46 45  2  0
 48 59  2  0
 49 47  1  0
 49 54  1  0
 50 58  1  0
 50 60  1  0
 51 57  1  0
 51 53  1  0
 52 58  1  0
 53 52  1  0
 54 53  2  0
 55 49  2  0
 56 55  1  0
 56 51  2  0
 57 50  1  0
 58 48  1  0
 60 62  2  0
 61 60  1  0
 63 61  1  0
 64 73  2  0
 64 69  1  0
 65 61  1  0
 65 69  1  0
 66 65  1  0
 67 68  1  0
 67 66  1  0
 68 64  1  0
 69 70  2  0
 70 71  1  0
 72 71  2  0
 73 72  1  0
 74 48  1  0
 74 75  1  0
 74 84  1  0
 75 78  1  0
 76 80  1  0
 76 75  1  0
 77 76  2  0
 80 79  1  0
 82 83  1  0
 82 80  1  0
 82 81  1  0
 84 87  1  1
 84 85  1  0
 86 84  1  0
M  ISO  4   7 100  16 100  46 101  47 101
M  END
>  <TORSDO>  (22) 
F 17

>  <SCORE>  (22) 
-15.289

>  <name>  (22) 
21

>  <ligand_id>  (22) 
21

>  <original_smiles>  (22) 
[H]C(=NOc1c([H])c([H])c2c(c1[H])C([H])([H])N(C(=O)C([H])(N([H])C(=O)C([H])(N([H])C([H])([H])[H])C([H])([H])[H])C(C([H])([H])[H])(C([H])([H])[H])C([H])([H])[H])C([H])(C(=O)N([H])C1([H])c3c([H])c([H])c([H])c([H])c3C([H])([H])C([H])([H])C1([H])[H])C2([H])[H])c1sc(N(C(=O)N2C([H])([H])C([H])([H])C([H])([H])C([H])(n3nc(-c4c([H])c([H])c(Oc5c([H])c([H])c(F)c([H])c5F)c([H])c4[H])c(C(=O)N([H])[H])c3N([H])[H])C2([H])[H])C([H])([H])[H])c([H])c1C([H])([H])[H]

>  <smiles>  (22) 
[H]C(=NOc1c([H])c([H])c2c(c1[H])C([H])([H])N(C(=O)C([H])(N([H])C(=O)C([H])(N([H])C([H])([H])[H])C([H])([H])[H])C(C([H])([H])[H])(C([H])([H])[H])C([H])([H])[H])C([H])(C(=O)N([H])C1([H])c3c([H])c([H])c([H])c([H])c3C([H])([H])C([H])([H])C1([H])[H])C2([H])[H])c1sc(N(C(=O)N2C([H])([H])C([H])([H])C([H])([H])C([H])(n3nc(-c4c([H])c([H])c(Oc5c([H])c([H])c(F)c([H])c5F)c([H])c4[H])c(C(=O)N([H])[H])c3N([H])[H])C2([H])[H])C([H])([H])[H])c([H])c1C([H])([H])[H]

$$$$
22:0:0
     RDKit          3D

 92101  0  0  1  0  0  0  0  0999 V2000
  -28.5210  -23.8520   20.5960 C   0  0  0  0  0  0  0  0  0  0  0  0
  -28.0400  -22.6180   21.2070 C   0  0  0  0  0  0  0  0  0  0  0  0
  -27.9930  -25.1360   20.7430 C   0  0  0  0  0  3  0  0  0  0  0  0
  -29.6120  -23.0130   19.8750 C   0  0  0  0  0  2  0  0  0  0  0  0
  -29.1440  -21.8770   20.7290 N   0  0  0  0  0  0  0  0  0  0  0  0
  -27.0130  -22.3790   21.8080 O   0  0  0  0  0  0  0  0  0  0  0  0
  -30.4810  -19.6950   21.1590 C   0  0  0  0  0  3  0  0  0  0  0  0
  -30.6360  -18.2610   21.1200 C   0  0  0  0  0  3  0  0  0  0  0  0
  -28.6080  -19.5580   19.7480 C   0  0  0  0  0  3  0  0  0  0  0  0
  -28.7530  -18.1320   19.6670 C   0  0  0  0  0  0  0  0  0  0  0  0
  -29.4290  -20.4300   20.5210 C   0  0  0  0  0  0  0  0  0  0  0  0
  -29.7510  -17.4100   20.4000 C   0  0  0  0  0  0  0  0  0  0  0  0
  -27.7770  -17.4060   18.7590 C   0  0  0  0  0  1  0  0  0  0  0  0
  -30.5650  -14.8590   20.3830 C   0  0  0  0  0  0  0  0  0  0  0  0
  -30.4180  -12.5650   19.3860 C   0  0  0  0  0  2  0  0  0  0  0  0
  -29.4730  -12.6300   18.1640 C   0  0  0  0  0  2  0  0  0  0  0  0
  -28.0010  -12.4520   18.5910 C   0  0  0  0  0  2  0  0  0  0  0  0
  -27.6240  -13.3350   19.8100 C   0  0  0  0  0  3  0  0  0  0  0  0
  -28.6860  -13.2410   20.9280 C   0  0  0  0  0  2  0  0  0  0  0  0
  -29.9820  -13.6100   20.3370 N   0  0  0  0  0  0  0  0  0  0  0  0
  -31.7570  -15.0020   20.0950 O   0  0  0  0  0  0  0  0  0  0  0  0
  -29.6900  -15.9250   20.5250 N   0  0  0  0  0  0  0  0  0  0  0  0
  -28.7470  -15.5830   20.6240 H   0  0  0  0  0  0  0  0  0  0  0  0
  -25.2370  -13.9380   20.5380 C   0  0  0  0  0  0  0  0  0  0  0  0
  -24.1660  -13.1680   20.8970 C   0  0  0  0  0  0  0  0  0  0  0  0
  -24.6240  -11.8160   20.8630 C   0  0  0  0  0  0  0  0  0  0  0  0
  -26.2770  -13.0540   20.2970 N   0  0  0  0  0  0  0  0  0  0  0  0
  -25.9160  -11.7720   20.5580 N   0  0  0  0  0  0  0  0  0  0  0  0
  -23.8920  -10.5570   21.0450 C   0  0  0  0  0  0  0  0  0  0  0  0
  -24.3120   -9.5910   21.9850 C   0  0  0  0  0  3  0  0  0  0  0  0
  -23.5800   -8.3950   22.1570 C   0  0  0  0  0  3  0  0  0  0  0  0
  -22.4170   -8.1590   21.3870 C   0  0  0  0  0  0  0  0  0  0  0  0
  -22.0170   -9.1150   20.4360 C   0  0  0  0  0  3  0  0  0  0  0  0
  -22.7490  -10.3010   20.2630 C   0  0  0  0  0  3  0  0  0  0  0  0
  -21.6590   -7.0160   21.4670 O   0  0  0  0  0  0  0  0  0  0  0  0
  -21.5810   -6.2840   22.6230 C   0  0  0  0  0  0  0  0  0  0  0  0
  -21.0960   -6.8410   23.8270 C   0  0  0  0  0  3  0  0  0  0  0  0
  -20.9680   -6.0350   24.9750 C   0  0  0  0  0  3  0  0  0  0  0  0
  -21.3130   -4.6710   24.9200 C   0  0  0  0  0  0  0  0  0  0  0  0
  -21.7900   -4.1130   23.7220 C   0  0  0  0  0  3  0  0  0  0  0  0
  -21.9200   -4.9160   22.5760 C   0  0  0  0  0  0  0  0  0  0  0  0
  -22.3610   -4.3690   21.4170 F   0  0  0  0  0  0  0  0  0  0  0  0
  -21.1820   -3.8920   26.0210 F   0  0  0  0  0  0  0  0  0  0  0  0
  -22.7690  -13.6510   21.1630 C   0  0  0  0  0  0  0  0  0  0  0  0
  -22.0360  -12.9570   22.0250 N   0  0  0  0  0  0  0  0  0  0  0  0
  -22.3380  -14.6780   20.6410 O   0  0  0  0  0  0  0  0  0  0  0  0
  -22.3970  -12.1250   22.4680 H   0  0  0  0  0  0  0  0  0  0  0  0
  -21.0990  -13.2610   22.2450 H   0  0  0  0  0  0  0  0  0  0  0  0
  -25.4050  -15.3080   20.3730 N   0  0  0  0  0  0  0  0  0  0  0  0
  -24.6410  -15.9640   20.4960 H   0  0  0  0  0  0  0  0  0  0  0  0
  -26.2540  -15.7490   20.0480 H   0  0  0  0  0  0  0  0  0  0  0  0
  -28.2990  -26.4270   20.2190 O   0  0  0  0  0  0  0  0  0  0  0  0
  -24.5950  -31.9210   23.2380 C   0  0  0  0  0  0  0  0  0  0  0  0
  -27.2320  -27.3550   20.1730 C   0  0  0  0  0  0  0  0  0  0  0  0
  -23.4020  -30.5190   21.5930 C   0  0  0  0  0  3  0  0  0  0  0  0
  -24.8640  -28.9810   20.1600 C   0  0  0  0  0  0  0  0  0  0  0  0
  -25.9430  -30.8440   21.4150 C   0  0  0  0  0  2  0  0  0  0  0  0
  -26.0330  -29.4650   20.7640 C   0  0  0  0  0  0  0  0  0  0  0  0
  -27.2220  -28.6630   20.7640 C   0  0  0  0  0  3  0  0  0  0  0  0
  -26.0420  -26.9400   19.5350 C   0  0  0  0  0  3  0  0  0  0  0  0
  -24.8720  -27.7250   19.5350 C   0  0  0  0  0  3  0  0  0  0  0  0
  -23.6230  -29.8510   20.2110 C   0  0  0  0  0  2  0  0  0  0  0  0
  -24.6660  -31.1120   22.1390 N   0  0  0  0  0  0  0  0  0  0  0  0
  -23.5090  -32.1910   23.7720 O   0  0  0  0  0  0  0  0  0  0  0  0
  -22.7410  -29.4980   22.5510 C   0  0  0  0  0  0  0  0  0  0  0  0
  -21.4170  -29.3070   22.4170 N   0  0  0  0  0  0  0  0  0  0  0  0
  -23.4200  -28.8810   23.3750 O   0  0  0  0  0  0  0  0  0  0  0  0
  -20.9270  -29.8580   21.7270 H   0  0  0  0  0  0  0  0  0  0  0  0
  -18.0460  -28.0850   22.9110 C   0  0  0  0  0  0  0  0  0  0  0  0
  -20.6030  -28.3630   23.1850 C   0  0  0  0  0  3  0  0  0  0  0  0
  -20.7160  -26.9330   22.6080 C   0  0  0  0  0  2  0  0  0  0  0  0
  -19.6180  -26.6040   21.5910 C   0  0  0  0  0  2  0  0  0  0  0  0
  -18.2350  -26.7380   22.2330 C   0  0  0  0  0  2  0  0  0  0  0  0
  -19.1590  -28.8550   23.3450 C   0  0  0  0  0  0  0  0  0  0  0  0
  -18.9290  -30.1140   23.9400 C   0  0  0  0  0  3  0  0  0  0  0  0
  -17.6200  -30.6050   24.1050 C   0  0  0  0  0  3  0  0  0  0  0  0
  -16.5230  -29.8310   23.6880 C   0  0  0  0  0  3  0  0  0  0  0  0
  -16.7370  -28.5740   23.0970 C   0  0  0  0  0  3  0  0  0  0  0  0
  -25.8730  -32.5600   23.8620 C   0  0  0  0  0  3  0  0  0  0  0  0
  -25.5580  -33.9600   24.1840 N   0  0  0  0  0  0  0  0  0  0  0  0
  -25.8820  -35.0100   23.4180 C   0  0  0  0  0  0  0  0  0  0  0  0
  -26.5460  -34.9020   22.3830 O   0  0  0  0  0  0  0  0  0  0  0  0
  -24.9680  -34.1160   24.9870 H   0  0  0  0  0  0  0  0  0  0  0  0
  -24.1460  -36.7960   23.0660 C   0  0  0  0  0  1  0  0  0  0  0  0
  -25.3940  -36.3990   23.8710 C   0  0  0  0  0  3  0  0  0  0  0  0
  -27.5280  -37.2990   24.6860 C   0  0  0  0  0  1  0  0  0  0  0  0
  -26.4230  -37.4540   23.7450 N   0  0  0  0  0  0  0  0  0  0  0  0
  -26.0130  -38.3740   23.8860 H   0  0  0  0  0  0  0  0  0  0  0  0
  -26.3840  -31.7970   25.1460 C   0  0  1  0  0  0  0  0  0  0  0  0
  -25.2860  -31.5630   26.2090 C   0  0  0  0  0  1  0  0  0  0  0  0
  -26.9730  -30.4180   24.7660 C   0  0  0  0  0  1  0  0  0  0  0  0
  -27.5290  -32.5980   25.8100 C   0  0  0  0  0  1  0  0  0  0  0  0
  1  3  2  0
  1  2  1  0
  2  6  2  0
  4  1  1  0
  4  5  1  0
  5  2  1  0
  8  7  1  0
  9 11  1  0
 10  9  2  0
 10 12  1  0
 11  5  1  0
 11  7  2  0
 12 22  1  0
 12  8  2  0
 13 10  1  0
 14 22  1  0
 15 20  1  0
 16 17  1  0
 16 15  1  0
 18 17  1  0
 18 27  1  0
 18 19  1  0
 20 14  1  0
 20 19  1  0
 21 14  2  0
 22 23  1  0
 24 25  2  0
 25 44  1  0
 26 25  1  0
 26 29  1  0
 27 24  1  0
 27 28  1  0
 28 26  2  0
 29 30  1  0
 30 31  2  0
 32 35  1  0
 32 31  1  0
 33 32  2  0
 34 33  1  0
 34 29  2  0
 35 36  1  0
 36 37  1  0
 37 38  2  0
 39 38  1  0
 39 43  1  0
 40 39  2  0
 41 36  2  0
 41 40  1  0
 42 41  1  0
 44 45  1  0
 45 48  1  0
 45 47  1  0
 46 44  2  0
 49 50  1  0
 49 24  1  0
 51 49  1  0
 52  3  1  0
 53 64  2  0
 54 52  1  0
 54 59  1  0
 55 63  1  0
 55 65  1  0
 56 62  1  0
 56 58  1  0
 57 63  1  0
 58 59  2  0
 58 57  1  0
 60 61  1  0
 60 54  2  0
 61 56  2  0
 62 55  1  0
 63 53  1  0
 65 67  2  0
 66 65  1  0
 68 66  1  0
 69 78  2  0
 69 74  1  0
 70 66  1  0
 70 74  1  0
 71 70  1  0
 72 73  1  0
 72 71  1  0
 73 69  1  0
 74 75  2  0
 75 76  1  0
 77 76  2  0
 78 77  1  0
 79 53  1  0
 79 80  1  0
 79 89  1  0
 80 83  1  0
 81 85  1  0
 81 80  1  0
 82 81  2  0
 85 84  1  0
 87 85  1  0
 87 88  1  0
 87 86  1  0
 89 92  1  1
 89 90  1  0
 91 89  1  0
M  ISO  4   3 101  14 100  22 100  52 101
M  END
>  <TORSDO>  (23) 
F 17

>  <SCORE>  (23) 
-15.397

>  <name>  (23) 
22

>  <ligand_id>  (23) 
22

>  <original_smiles>  (23) 
[H]C(Oc1c([H])c([H])c2c(c1[H])C([H])([H])N(C(=O)C([H])(N([H])C(=O)C([H])(N([H])C([H])([H])[H])C([H])([H])[H])C(C([H])([H])[H])(C([H])([H])[H])C([H])([H])[H])C([H])(C(=O)N([H])C1([H])c3c([H])c([H])c([H])c([H])c3C([H])([H])C([H])([H])C1([H])[H])C2([H])[H])=C1C(=O)N(c2c([H])c([H])c(N([H])C(=O)N3C([H])([H])C([H])([H])C([H])([H])C([H])(n4nc(-c5c([H])c([H])c(Oc6c([H])c([H])c(F)c([H])c6F)c([H])c5[H])c(C(=O)N([H])[H])c4N([H])[H])C3([H])[H])c(C([H])([H])[H])c2[H])C1([H])[H]

>  <smiles>  (23) 
[H]C(Oc1c([H])c([H])c2c(c1[H])C([H])([H])N(C(=O)C([H])(N([H])C(=O)C([H])(N([H])C([H])([H])[H])C([H])([H])[H])C(C([H])([H])[H])(C([H])([H])[H])C([H])([H])[H])C([H])(C(=O)N([H])C1([H])c3c([H])c([H])c([H])c([H])c3C([H])([H])C([H])([H])C1([H])[H])C2([H])[H])=C1C(=O)N(c2c([H])c([H])c(N([H])C(=O)N3C([H])([H])C([H])([H])C([H])([H])C([H])(n4nc(-c5c([H])c([H])c(Oc6c([H])c([H])c(F)c([H])c6F)c([H])c5[H])c(C(=O)N([H])[H])c4N([H])[H])C3([H])[H])c(C([H])([H])[H])c2[H])C1([H])[H]

$$$$
23:0:0
     RDKit          3D

 93102  0  0  1  0  0  0  0  0999 V2000
  -29.9350  -23.8710   21.5200 C   0  0  0  0  0  3  0  0  0  0  0  0
  -28.7910  -22.5170   20.1860 C   0  0  0  0  0  3  0  0  0  0  0  0
  -28.9180  -23.8640   20.5220 C   0  0  0  0  0  0  0  0  0  0  0  0
  -30.3450  -22.5780   21.7420 C   0  0  0  0  0  0  0  0  0  0  0  0
  -29.6500  -21.6780   20.9270 N   0  0  0  0  0  0  0  0  0  0  0  0
  -28.6770  -19.4070   20.4020 C   0  0  0  0  0  3  0  0  0  0  0  0
  -30.9420  -19.4790   21.1810 C   0  0  0  0  0  3  0  0  0  0  0  0
  -28.7860  -17.9930   20.2490 C   0  0  0  0  0  3  0  0  0  0  0  0
  -31.0530  -18.0580   21.0350 C   0  0  0  0  0  3  0  0  0  0  0  0
  -29.7590  -20.2090   20.8500 C   0  0  0  0  0  0  0  0  0  0  0  0
  -29.9790  -17.2700   20.5360 C   0  0  0  0  0  0  0  0  0  0  0  0
  -30.8140  -14.8100   20.5780 C   0  0  0  0  0  0  0  0  0  0  0  0
  -30.6610  -12.4970   19.6700 C   0  0  0  0  0  2  0  0  0  0  0  0
  -29.7690  -12.4580   18.4090 C   0  0  0  0  0  2  0  0  0  0  0  0
  -28.2760  -12.3510   18.7780 C   0  0  0  0  0  2  0  0  0  0  0  0
  -27.8420  -13.2870   19.9400 C   0  0  0  0  0  3  0  0  0  0  0  0
  -28.8600  -13.2710   21.1000 C   0  0  0  0  0  2  0  0  0  0  0  0
  -30.1750  -13.5930   20.5310 N   0  0  0  0  0  0  0  0  0  0  0  0
  -32.0470  -14.8640   20.5220 O   0  0  0  0  0  0  0  0  0  0  0  0
  -30.0350  -15.8640   18.5800 C   0  0  0  0  0  1  0  0  0  0  0  0
  -30.1010  -15.8830   20.0540 N   0  0  0  0  0  0  0  0  0  0  0  0
  -25.4160  -13.8690   20.5430 C   0  0  0  0  0  0  0  0  0  0  0  0
  -24.3410  -13.0910   20.8720 C   0  0  0  0  0  0  0  0  0  0  0  0
  -24.8190  -11.7450   20.8960 C   0  0  0  0  0  0  0  0  0  0  0  0
  -26.4820  -12.9970   20.3820 N   0  0  0  0  0  0  0  0  0  0  0  0
  -26.1250  -11.7170   20.6610 N   0  0  0  0  0  0  0  0  0  0  0  0
  -24.0990  -10.4790   21.0730 C   0  0  0  0  0  0  0  0  0  0  0  0
  -24.5020   -9.5290   22.0380 C   0  0  0  0  0  3  0  0  0  0  0  0
  -23.7810   -8.3260   22.2020 C   0  0  0  0  0  3  0  0  0  0  0  0
  -22.6440   -8.0670   21.4020 C   0  0  0  0  0  0  0  0  0  0  0  0
  -22.2610   -9.0040   20.4270 C   0  0  0  0  0  3  0  0  0  0  0  0
  -22.9820  -10.1980   20.2610 C   0  0  0  0  0  3  0  0  0  0  0  0
  -21.8970   -6.9140   21.4750 O   0  0  0  0  0  0  0  0  0  0  0  0
  -21.8080   -6.1880   22.6360 C   0  0  0  0  0  0  0  0  0  0  0  0
  -21.3150   -6.7530   23.8320 C   0  0  0  0  0  3  0  0  0  0  0  0
  -21.1730   -5.9520   24.9820 C   0  0  0  0  0  3  0  0  0  0  0  0
  -21.5160   -4.5880   24.9370 C   0  0  0  0  0  0  0  0  0  0  0  0
  -22.0020   -4.0220   23.7460 C   0  0  0  0  0  3  0  0  0  0  0  0
  -22.1450   -4.8200   22.5970 C   0  0  0  0  0  0  0  0  0  0  0  0
  -22.5950   -4.2650   21.4460 F   0  0  0  0  0  0  0  0  0  0  0  0
  -21.3730   -3.8160   26.0400 F   0  0  0  0  0  0  0  0  0  0  0  0
  -22.9250  -13.5570   21.0570 C   0  0  0  0  0  0  0  0  0  0  0  0
  -22.1590  -12.8720   21.8970 N   0  0  0  0  0  0  0  0  0  0  0  0
  -22.5050  -14.5650   20.4900 O   0  0  0  0  0  0  0  0  0  0  0  0
  -22.5100  -12.0550   22.3750 H   0  0  0  0  0  0  0  0  0  0  0  0
  -21.2090  -13.1700   22.0650 H   0  0  0  0  0  0  0  0  0  0  0  0
  -25.5750  -15.2380   20.3440 N   0  0  0  0  0  0  0  0  0  0  0  0
  -24.7990  -15.8880   20.3950 H   0  0  0  0  0  0  0  0  0  0  0  0
  -26.4480  -15.6760   20.0820 H   0  0  0  0  0  0  0  0  0  0  0  0
  -31.2730  -22.1530   22.6420 O   0  0  0  0  0  0  0  0  0  0  0  0
  -31.6130  -22.9220   23.0910 H   0  0  0  0  0  0  0  0  0  0  0  0
  -28.0470  -25.0390   19.9670 C   0  0  0  0  0  2  0  0  0  0  0  0
  -28.3290  -26.4710   20.2450 O   0  0  0  0  0  0  0  0  0  0  0  0
  -24.5790  -31.8880   23.2020 C   0  0  0  0  0  0  0  0  0  0  0  0
  -27.2350  -27.3570   20.1410 C   0  0  0  0  0  0  0  0  0  0  0  0
  -23.3980  -30.4980   21.5410 C   0  0  0  0  0  3  0  0  0  0  0  0
  -24.8690  -28.9780   20.1100 C   0  0  0  0  0  0  0  0  0  0  0  0
  -25.9390  -30.8270   21.3870 C   0  0  0  0  0  2  0  0  0  0  0  0
  -26.0300  -29.4550   20.7310 C   0  0  0  0  0  0  0  0  0  0  0  0
  -27.2130  -28.6540   20.7440 C   0  0  0  0  0  3  0  0  0  0  0  0
  -26.0550  -26.9600   19.4610 C   0  0  0  0  0  3  0  0  0  0  0  0
  -24.8850  -27.7360   19.4630 C   0  0  0  0  0  3  0  0  0  0  0  0
  -23.6280  -29.8430   20.1550 C   0  0  0  0  0  2  0  0  0  0  0  0
  -24.6570  -31.0880   22.1000 N   0  0  0  0  0  0  0  0  0  0  0  0
  -23.4890  -32.1570   23.7260 O   0  0  0  0  0  0  0  0  0  0  0  0
  -22.7330  -29.4650   22.4820 C   0  0  0  0  0  0  0  0  0  0  0  0
  -21.4070  -29.2960   22.3560 N   0  0  0  0  0  0  0  0  0  0  0  0
  -23.4110  -28.8210   23.2890 O   0  0  0  0  0  0  0  0  0  0  0  0
  -20.9190  -29.8710   21.6820 H   0  0  0  0  0  0  0  0  0  0  0  0
  -18.0170  -28.1340   22.8630 C   0  0  0  0  0  0  0  0  0  0  0  0
  -20.5820  -28.3520   23.1130 C   0  0  0  0  0  3  0  0  0  0  0  0
  -20.6570  -26.9310   22.5070 C   0  0  0  0  0  2  0  0  0  0  0  0
  -19.5410  -26.6470   21.4980 C   0  0  0  0  0  2  0  0  0  0  0  0
  -18.1660  -26.7990   22.1570 C   0  0  0  0  0  2  0  0  0  0  0  0
  -19.1500  -28.8710   23.2990 C   0  0  0  0  0  0  0  0  0  0  0  0
  -18.9550  -30.1230   23.9190 C   0  0  0  0  0  3  0  0  0  0  0  0
  -17.6590  -30.6390   24.1090 C   0  0  0  0  0  3  0  0  0  0  0  0
  -16.5400  -29.8970   23.6910 C   0  0  0  0  0  3  0  0  0  0  0  0
  -16.7200  -28.6480   23.0720 C   0  0  0  0  0  3  0  0  0  0  0  0
  -25.8530  -32.5210   23.8410 C   0  0  0  0  0  3  0  0  0  0  0  0
  -26.3580  -31.7420   25.1180 C   0  0  1  0  0  0  0  0  0  0  0  0
  -25.2560  -31.4950   26.1750 C   0  0  0  0  0  1  0  0  0  0  0  0
  -26.9500  -30.3700   24.7230 C   0  0  0  0  0  1  0  0  0  0  0  0
  -27.4980  -32.5370   25.7970 C   0  0  0  0  0  1  0  0  0  0  0  0
  -25.5360  -33.9150   24.1770 N   0  0  0  0  0  0  0  0  0  0  0  0
  -25.8830  -34.9760   23.4370 C   0  0  0  0  0  0  0  0  0  0  0  0
  -26.5770  -34.8830   22.4210 O   0  0  0  0  0  0  0  0  0  0  0  0
  -24.9240  -34.0610   24.9670 H   0  0  0  0  0  0  0  0  0  0  0  0
  -24.1790  -36.7830   23.0410 C   0  0  0  0  0  1  0  0  0  0  0  0
  -25.3820  -36.3580   23.8970 C   0  0  0  0  0  3  0  0  0  0  0  0
  -27.4800  -37.2220   24.8350 C   0  0  0  0  0  1  0  0  0  0  0  0
  -26.4230  -37.4090   23.8460 N   0  0  0  0  0  0  0  0  0  0  0  0
  -26.0150  -38.3290   23.9880 H   0  0  0  0  0  0  0  0  0  0  0  0
  1  4  2  0
  2  3  2  0
  2  5  1  0
  3  1  1  0
  4 50  1  0
  5  4  1  0
  6 10  1  0
  8  6  2  0
  8 11  1  0
  9  7  1  0
 10  5  1  0
 10  7  2  0
 11  9  2  0
 13 18  1  0
 14 15  1  0
 14 13  1  0
 16 15  1  0
 16 25  1  0
 16 17  1  0
 18 12  1  0
 18 17  1  0
 19 12  2  0
 20 21  1  0
 21 11  1  0
 21 12  1  0
 22 23  2  0
 23 24  1  0
 23 42  1  0
 24 27  1  0
 25 22  1  0
 25 26  1  0
 26 24  2  0
 27 28  1  0
 28 29  2  0
 30 33  1  0
 30 29  1  0
 31 30  2  0
 32 31  1  0
 32 27  2  0
 33 34  1  0
 34 35  1  0
 35 36  2  0
 37 36  1  0
 37 41  1  0
 38 37  2  0
 39 34  2  0
 39 38  1  0
 40 39  1  0
 42 43  1  0
 43 46  1  0
 43 45  1  0
 44 42  2  0
 47 48  1  0
 47 22  1  0
 49 47  1  0
 50 51  1  0
 52 53  1  0
 52  3  1  0
 54 65  2  0
 55 53  1  0
 55 60  1  0
 56 64  1  0
 56 66  1  0
 57 63  1  0
 57 59  1  0
 58 64  1  0
 59 60  2  0
 59 58  1  0
 61 62  1  0
 61 55  2  0
 62 57  2  0
 63 56  1  0
 64 54  1  0
 66 68  2  0
 67 66  1  0
 69 67  1  0
 70 79  2  0
 70 75  1  0
 71 67  1  0
 71 75  1  0
 72 71  1  0
 73 74  1  0
 73 72  1  0
 74 70  1  0
 75 76  2  0
 76 77  1  0
 78 77  2  0
 79 78  1  0
 80 54  1  0
 80 85  1  0
 80 81  1  0
 81 84  1  1
 81 82  1  0
 83 81  1  0
 85 88  1  0
 86 90  1  0
 86 85  1  0
 87 86  2  0
 90 89  1  0
 92 90  1  0
 92 93  1  0
 92 91  1  0
M  ISO  4  12 100  21 100  52 101  53 101
M  END
>  <TORSDO>  (24) 
F 19

>  <SCORE>  (24) 
-14.654

>  <name>  (24) 
23

>  <ligand_id>  (24) 
23

>  <original_smiles>  (24) 
[H]Oc1c([H])c(C([H])([H])Oc2c([H])c([H])c3c(c2[H])C([H])([H])N(C(=O)C([H])(N([H])C(=O)C([H])(N([H])C([H])([H])[H])C([H])([H])[H])C(C([H])([H])[H])(C([H])([H])[H])C([H])([H])[H])C([H])(C(=O)N([H])C2([H])c4c([H])c([H])c([H])c([H])c4C([H])([H])C([H])([H])C2([H])[H])C3([H])[H])c([H])n1-c1c([H])c([H])c(N(C(=O)N2C([H])([H])C([H])([H])C([H])([H])C([H])(n3nc(-c4c([H])c([H])c(Oc5c([H])c([H])c(F)c([H])c5F)c([H])c4[H])c(C(=O)N([H])[H])c3N([H])[H])C2([H])[H])C([H])([H])[H])c([H])c1[H]

>  <smiles>  (24) 
[H]Oc1c([H])c(C([H])([H])Oc2c([H])c([H])c3c(c2[H])C([H])([H])N(C(=O)C([H])(N([H])C(=O)C([H])(N([H])C([H])([H])[H])C([H])([H])[H])C(C([H])([H])[H])(C([H])([H])[H])C([H])([H])[H])C([H])(C(=O)N([H])C2([H])c4c([H])c([H])c([H])c([H])c4C([H])([H])C([H])([H])C2([H])[H])C3([H])[H])c([H])n1-c1c([H])c([H])c(N(C(=O)N2C([H])([H])C([H])([H])C([H])([H])C([H])(n3nc(-c4c([H])c([H])c(Oc5c([H])c([H])c(F)c([H])c5F)c([H])c4[H])c(C(=O)N([H])[H])c3N([H])[H])C2([H])[H])C([H])([H])[H])c([H])c1[H]

$$$$
24:0:0
     RDKit          3D

 91100  0  0  1  0  0  0  0  0999 V2000
  -29.1450  -23.6360   21.1250 C   0  0  0  0  0  0  0  0  0  0  0  0
  -28.0350  -23.3710   19.4930 C   0  0  0  0  0  0  0  0  0  0  0  0
  -27.9520  -24.5730   20.5640 C   0  0  0  0  0  3  0  0  0  0  0  0
  -28.7120  -22.4590   20.4010 N   0  0  0  0  0  0  0  0  0  0  0  0
  -30.0730  -23.7830   21.8990 O   0  0  0  0  0  0  0  0  0  0  0  0
  -27.6530  -23.2010   18.3500 O   0  0  0  0  0  0  0  0  0  0  0  0
  -30.0220  -20.1660   21.1820 C   0  0  0  0  0  3  0  0  0  0  0  0
  -28.3190  -19.9200   19.6670 C   0  0  0  0  0  3  0  0  0  0  0  0
  -30.2910  -18.7130   21.1590 C   0  0  0  0  0  3  0  0  0  0  0  0
  -28.5590  -18.4820   19.6410 C   0  0  0  0  0  3  0  0  0  0  0  0
  -29.0260  -20.9220   20.4250 C   0  0  0  0  0  0  0  0  0  0  0  0
  -29.5820  -17.7470   20.3530 C   0  0  0  0  0  0  0  0  0  0  0  0
  -30.5180  -15.0810   20.6500 C   0  0  0  0  0  0  0  0  0  0  0  0
  -30.4970  -12.6570   19.8360 C   0  0  0  0  0  2  0  0  0  0  0  0
  -29.6340  -12.4460   18.5670 C   0  0  0  0  0  2  0  0  0  0  0  0
  -28.1470  -12.2700   18.9250 C   0  0  0  0  0  2  0  0  0  0  0  0
  -27.6570  -13.2600   20.0130 C   0  0  0  0  0  3  0  0  0  0  0  0
  -28.6490  -13.3870   21.1850 C   0  0  0  0  0  2  0  0  0  0  0  0
  -29.9290  -13.8070   20.6000 N   0  0  0  0  0  0  0  0  0  0  0  0
  -31.7560  -15.0920   20.6700 O   0  0  0  0  0  0  0  0  0  0  0  0
  -29.7100  -15.9910   18.6160 C   0  0  0  0  0  1  0  0  0  0  0  0
  -29.8200  -16.2170   20.0750 N   0  0  0  0  0  0  0  0  0  0  0  0
  -25.2420  -13.8560   20.5980 C   0  0  0  0  0  0  0  0  0  0  0  0
  -24.1550  -13.0870   20.9130 C   0  0  0  0  0  0  0  0  0  0  0  0
  -24.6210  -11.7370   20.9460 C   0  0  0  0  0  0  0  0  0  0  0  0
  -26.2970  -12.9720   20.4490 N   0  0  0  0  0  0  0  0  0  0  0  0
  -25.9300  -11.6950   20.7270 N   0  0  0  0  0  0  0  0  0  0  0  0
  -23.8840  -10.4790   21.1130 C   0  0  0  0  0  0  0  0  0  0  0  0
  -24.2730   -9.5180   22.0730 C   0  0  0  0  0  3  0  0  0  0  0  0
  -23.5360   -8.3240   22.2300 C   0  0  0  0  0  3  0  0  0  0  0  0
  -22.3970   -8.0830   21.4260 C   0  0  0  0  0  0  0  0  0  0  0  0
  -22.0280   -9.0320   20.4560 C   0  0  0  0  0  3  0  0  0  0  0  0
  -22.7650  -10.2170   20.2980 C   0  0  0  0  0  3  0  0  0  0  0  0
  -21.6350   -6.9410   21.4920 O   0  0  0  0  0  0  0  0  0  0  0  0
  -21.5520   -6.1970   22.6410 C   0  0  0  0  0  0  0  0  0  0  0  0
  -21.1090   -6.7550   23.8600 C   0  0  0  0  0  3  0  0  0  0  0  0
  -20.9730   -5.9370   25.0000 C   0  0  0  0  0  3  0  0  0  0  0  0
  -21.2690   -4.5640   24.9220 C   0  0  0  0  0  0  0  0  0  0  0  0
  -21.7050   -4.0050   23.7080 C   0  0  0  0  0  3  0  0  0  0  0  0
  -21.8430   -4.8200   22.5690 C   0  0  0  0  0  0  0  0  0  0  0  0
  -22.2440   -4.2730   21.3960 F   0  0  0  0  0  0  0  0  0  0  0  0
  -21.1310   -3.7770   26.0140 F   0  0  0  0  0  0  0  0  0  0  0  0
  -22.7420  -13.5680   21.0740 C   0  0  0  0  0  0  0  0  0  0  0  0
  -21.9590  -12.8970   21.9100 N   0  0  0  0  0  0  0  0  0  0  0  0
  -22.3400  -14.5760   20.4930 O   0  0  0  0  0  0  0  0  0  0  0  0
  -22.2960  -12.0840   22.4020 H   0  0  0  0  0  0  0  0  0  0  0  0
  -21.0080  -13.2040   22.0620 H   0  0  0  0  0  0  0  0  0  0  0  0
  -25.4180  -15.2230   20.4020 N   0  0  0  0  0  0  0  0  0  0  0  0
  -24.6500  -15.8830   20.4600 H   0  0  0  0  0  0  0  0  0  0  0  0
  -26.2970  -15.6580   20.1550 H   0  0  0  0  0  0  0  0  0  0  0  0
  -28.2330  -26.0890   20.1900 O   0  0  0  0  0  0  0  0  0  0  0  0
  -24.6480  -31.8670   23.1660 C   0  0  0  0  0  0  0  0  0  0  0  0
  -27.1830  -27.0910   20.1590 C   0  0  0  0  0  0  0  0  0  0  0  0
  -23.4280  -30.4580   21.5520 C   0  0  0  0  0  3  0  0  0  0  0  0
  -24.8590  -28.8600   20.1300 C   0  0  0  0  0  0  0  0  0  0  0  0
  -25.9830  -30.7110   21.3570 C   0  0  0  0  0  2  0  0  0  0  0  0
  -26.0480  -29.3080   20.7180 C   0  0  0  0  0  0  0  0  0  0  0  0
  -27.2120  -28.4430   20.7090 C   0  0  0  0  0  3  0  0  0  0  0  0
  -25.9650  -26.7490   19.5350 C   0  0  0  0  0  3  0  0  0  0  0  0
  -24.8330  -27.5960   19.5200 C   0  0  0  0  0  3  0  0  0  0  0  0
  -23.6340  -29.7640   20.1800 C   0  0  0  0  0  2  0  0  0  0  0  0
  -24.7070  -31.0350   22.0790 N   0  0  0  0  0  0  0  0  0  0  0  0
  -23.5670  -32.1590   23.7020 O   0  0  0  0  0  0  0  0  0  0  0  0
  -22.7560  -29.4640   22.5340 C   0  0  0  0  0  0  0  0  0  0  0  0
  -21.4260  -29.2990   22.4260 N   0  0  0  0  0  0  0  0  0  0  0  0
  -23.4350  -28.8430   23.3540 O   0  0  0  0  0  0  0  0  0  0  0  0
  -20.9330  -29.8500   21.7380 H   0  0  0  0  0  0  0  0  0  0  0  0
  -18.0480  -28.1090   22.9810 C   0  0  0  0  0  0  0  0  0  0  0  0
  -20.6100  -28.3710   23.2160 C   0  0  0  0  0  3  0  0  0  0  0  0
  -20.7030  -26.9330   22.6550 C   0  0  0  0  0  2  0  0  0  0  0  0
  -19.5900  -26.6010   21.6550 C   0  0  0  0  0  2  0  0  0  0  0  0
  -18.2160  -26.7540   22.3130 C   0  0  0  0  0  2  0  0  0  0  0  0
  -19.1720  -28.8740   23.3890 C   0  0  0  0  0  0  0  0  0  0  0  0
  -18.9590  -30.1410   23.9760 C   0  0  0  0  0  3  0  0  0  0  0  0
  -17.6570  -30.6420   24.1550 C   0  0  0  0  0  3  0  0  0  0  0  0
  -16.5470  -29.8740   23.7610 C   0  0  0  0  0  3  0  0  0  0  0  0
  -16.7440  -28.6090   23.1790 C   0  0  0  0  0  3  0  0  0  0  0  0
  -25.9310  -32.5090   23.7740 C   0  0  0  0  0  3  0  0  0  0  0  0
  -25.6120  -33.9000   24.1350 N   0  0  0  0  0  0  0  0  0  0  0  0
  -25.9210  -34.9720   23.3930 C   0  0  0  0  0  0  0  0  0  0  0  0
  -26.5680  -34.8950   22.3460 O   0  0  0  0  0  0  0  0  0  0  0  0
  -25.0340  -34.0320   24.9500 H   0  0  0  0  0  0  0  0  0  0  0  0
  -24.1710  -36.7610   23.1180 C   0  0  0  0  0  1  0  0  0  0  0  0
  -25.4350  -36.3490   23.8900 C   0  0  0  0  0  3  0  0  0  0  0  0
  -27.5840  -37.2350   24.6850 C   0  0  0  0  0  1  0  0  0  0  0  0
  -26.4570  -37.4130   23.7730 N   0  0  0  0  0  0  0  0  0  0  0  0
  -26.0480  -38.3260   23.9480 H   0  0  0  0  0  0  0  0  0  0  0  0
  -26.4770  -31.7290   25.0330 C   0  0  1  0  0  0  0  0  0  0  0  0
  -25.4060  -31.4750   26.1220 C   0  0  0  0  0  1  0  0  0  0  0  0
  -27.0590  -30.3570   24.6230 C   0  0  0  0  0  1  0  0  0  0  0  0
  -27.6370  -32.5230   25.6810 C   0  0  0  0  0  1  0  0  0  0  0  0
  1  5  2  0
  2  4  1  0
  2  3  1  0
  3 51  1  0
  3  1  1  0
  4 11  1  0
  4  1  1  0
  6  2  2  0
  8 11  1  0
  9  7  1  0
 10  8  2  0
 10 12  1  0
 11  7  2  0
 12  9  2  0
 13 20  2  0
 14 19  1  0
 15 16  1  0
 15 14  1  0
 17 16  1  0
 17 26  1  0
 17 18  1  0
 19 13  1  0
 19 18  1  0
 21 22  1  0
 22 12  1  0
 22 13  1  0
 23 24  2  0
 24 25  1  0
 24 43  1  0
 25 28  1  0
 26 23  1  0
 26 27  1  0
 27 25  2  0
 28 29  1  0
 29 30  2  0
 31 34  1  0
 31 30  1  0
 32 31  2  0
 33 32  1  0
 33 28  2  0
 34 35  1  0
 35 36  1  0
 36 37  2  0
 38 37  1  0
 38 42  1  0
 39 38  2  0
 40 35  2  0
 40 39  1  0
 41 40  1  0
 43 44  1  0
 44 47  1  0
 44 46  1  0
 45 43  2  0
 48 49  1  0
 48 23  1  0
 50 48  1  0
 52 63  2  0
 53 51  1  0
 53 58  1  0
 54 62  1  0
 54 64  1  0
 55 61  1  0
 55 57  1  0
 56 62  1  0
 57 56  1  0
 58 57  2  0
 59 53  2  0
 60 59  1  0
 60 55  2  0
 61 54  1  0
 62 52  1  0
 64 66  2  0
 65 64  1  0
 67 65  1  0
 68 77  2  0
 68 73  1  0
 69 65  1  0
 69 73  1  0
 70 69  1  0
 71 72  1  0
 71 70  1  0
 72 68  1  0
 73 74  2  0
 74 75  1  0
 76 75  2  0
 77 76  1  0
 78 52  1  0
 78 79  1  0
 78 88  1  0
 79 82  1  0
 80 84  1  0
 80 79  1  0
 81 80  2  0
 84 83  1  0
 86 84  1  0
 86 87  1  0
 86 85  1  0
 88 91  1  1
 88 89  1  0
 90 88  1  0
M  ISO  4   3 101  13 100  22 100  51 101
M  END
>  <TORSDO>  (25) 
F 17

>  <SCORE>  (25) 
-14.680

>  <name>  (25) 
24

>  <ligand_id>  (25) 
24

>  <original_smiles>  (25) 
[H]c1c([H])c([H])c2c(c1[H])C([H])([H])C([H])([H])C([H])([H])C2([H])N([H])C(=O)C1([H])N(C(=O)C([H])(N([H])C(=O)C([H])(N([H])C([H])([H])[H])C([H])([H])[H])C(C([H])([H])[H])(C([H])([H])[H])C([H])([H])[H])C([H])([H])c2c([H])c(OC3([H])C(=O)N(c4c([H])c([H])c(N(C(=O)N5C([H])([H])C([H])([H])C([H])([H])C([H])(n6nc(-c7c([H])c([H])c(Oc8c([H])c([H])c(F)c([H])c8F)c([H])c7[H])c(C(=O)N([H])[H])c6N([H])[H])C5([H])[H])C([H])([H])[H])c([H])c4[H])C3=O)c([H])c([H])c2C1([H])[H]

>  <smiles>  (25) 
[H]c1c([H])c([H])c2c(c1[H])C([H])([H])C([H])([H])C([H])([H])C2([H])N([H])C(=O)C1([H])N(C(=O)C([H])(N([H])C(=O)C([H])(N([H])C([H])([H])[H])C([H])([H])[H])C(C([H])([H])[H])(C([H])([H])[H])C([H])([H])[H])C([H])([H])c2c([H])c(OC3([H])C(=O)N(c4c([H])c([H])c(N(C(=O)N5C([H])([H])C([H])([H])C([H])([H])C([H])(n6nc(-c7c([H])c([H])c(Oc8c([H])c([H])c(F)c([H])c8F)c([H])c7[H])c(C(=O)N([H])[H])c6N([H])[H])C5([H])[H])C([H])([H])[H])c([H])c4[H])C3=O)c([H])c([H])c2C1([H])[H]

$$$$
25:0:0
     RDKit          3D

 92100  0  0  1  0  0  0  0  0999 V2000
  -30.1520  -21.3190   21.2330 C   0  0  0  0  0  0  0  0  0  0  0  0
  -30.8110  -21.5670   22.2460 O   0  0  0  0  0  0  0  0  0  0  0  0
  -28.9300  -19.0840   21.1480 C   0  0  0  0  0  3  0  0  0  0  0  0
  -31.2400  -19.1600   20.4270 C   0  0  0  0  0  3  0  0  0  0  0  0
  -28.9620  -17.6690   21.0760 C   0  0  0  0  0  3  0  0  0  0  0  0
  -31.2770  -17.7410   20.3600 C   0  0  0  0  0  3  0  0  0  0  0  0
  -30.0790  -19.8510   20.8580 C   0  0  0  0  0  0  0  0  0  0  0  0
  -30.1410  -16.9680   20.7140 C   0  0  0  0  0  0  0  0  0  0  0  0
  -30.7940  -14.5640   20.1020 C   0  0  0  0  0  0  0  0  0  0  0  0
  -30.4670  -12.4110   18.9210 C   0  0  0  0  0  2  0  0  0  0  0  0
  -29.4540  -12.6220   17.7730 C   0  0  0  0  0  2  0  0  0  0  0  0
  -28.0010  -12.4940   18.2780 C   0  0  0  0  0  2  0  0  0  0  0  0
  -27.7430  -13.3080   19.5750 C   0  0  0  0  0  3  0  0  0  0  0  0
  -28.8520  -13.0370   20.6160 C   0  0  0  0  0  2  0  0  0  0  0  0
  -30.1460  -13.3680   19.9930 N   0  0  0  0  0  0  0  0  0  0  0  0
  -31.8920  -14.7670   19.5720 O   0  0  0  0  0  0  0  0  0  0  0  0
  -30.0900  -15.5250   20.7500 N   0  0  0  0  0  0  0  0  0  0  0  0
  -29.2810  -15.1510   21.2220 H   0  0  0  0  0  0  0  0  0  0  0  0
  -25.4010  -13.9450   20.4380 C   0  0  0  0  0  0  0  0  0  0  0  0
  -24.3390  -13.1850   20.8440 C   0  0  0  0  0  0  0  0  0  0  0  0
  -24.7660  -11.8250   20.7490 C   0  0  0  0  0  0  0  0  0  0  0  0
  -26.4110  -13.0480   20.1200 N   0  0  0  0  0  0  0  0  0  0  0  0
  -26.0350  -11.7680   20.3670 N   0  0  0  0  0  0  0  0  0  0  0  0
  -24.0240  -10.5730   20.9480 C   0  0  0  0  0  0  0  0  0  0  0  0
  -24.4460   -9.6070   21.8870 C   0  0  0  0  0  3  0  0  0  0  0  0
  -23.7070   -8.4180   22.0710 C   0  0  0  0  0  3  0  0  0  0  0  0
  -22.5330   -8.1880   21.3170 C   0  0  0  0  0  0  0  0  0  0  0  0
  -22.1300   -9.1440   20.3690 C   0  0  0  0  0  3  0  0  0  0  0  0
  -22.8680  -10.3240   20.1820 C   0  0  0  0  0  3  0  0  0  0  0  0
  -21.7700   -7.0480   21.4070 O   0  0  0  0  0  0  0  0  0  0  0  0
  -21.6510   -6.3550   22.5850 C   0  0  0  0  0  0  0  0  0  0  0  0
  -21.1330   -6.9530   23.7520 C   0  0  0  0  0  3  0  0  0  0  0  0
  -20.9590   -6.1850   24.9210 C   0  0  0  0  0  3  0  0  0  0  0  0
  -21.2960   -4.8180   24.9220 C   0  0  0  0  0  0  0  0  0  0  0  0
  -21.8080   -4.2190   23.7590 C   0  0  0  0  0  3  0  0  0  0  0  0
  -21.9820   -4.9850   22.5920 C   0  0  0  0  0  0  0  0  0  0  0  0
  -22.4540   -4.3970   21.4680 F   0  0  0  0  0  0  0  0  0  0  0  0
  -21.1230   -4.0790   26.0420 F   0  0  0  0  0  0  0  0  0  0  0  0
  -22.9690  -13.6840   21.2090 C   0  0  0  0  0  0  0  0  0  0  0  0
  -22.2770  -12.9820   22.0990 N   0  0  0  0  0  0  0  0  0  0  0  0
  -22.5240  -14.7320   20.7420 O   0  0  0  0  0  0  0  0  0  0  0  0
  -22.6500  -12.1360   22.5020 H   0  0  0  0  0  0  0  0  0  0  0  0
  -21.3600  -13.2990   22.3830 H   0  0  0  0  0  0  0  0  0  0  0  0
  -25.5890  -15.3160   20.2890 N   0  0  0  0  0  0  0  0  0  0  0  0
  -24.8430  -15.9820   20.4510 H   0  0  0  0  0  0  0  0  0  0  0  0
  -26.4190  -15.7430   19.8940 H   0  0  0  0  0  0  0  0  0  0  0  0
  -30.2650  -23.3070   20.0640 C   0  0  0  0  0  3  0  0  0  0  0  0
  -31.8000  -23.2210   19.9160 C   0  0  0  0  0  1  0  0  0  0  0  0
  -29.5320  -22.3140   20.4580 N   0  0  0  0  0  2  0  0  0  0  0  0
  -29.7330  -24.6650   19.6830 C   0  0  0  0  0  3  0  0  0  0  0  0
  -28.7200  -25.3880   20.2310 C   0  0  0  0  0  3  0  0  0  0  0  0
  -28.5500  -26.7240   19.8880 O   0  0  0  0  0  0  0  0  0  0  0  0
  -24.7000  -31.8290   23.1650 C   0  0  0  0  0  0  0  0  0  0  0  0
  -27.3480  -27.3970   20.0260 C   0  0  0  0  0  0  0  0  0  0  0  0
  -23.4850  -30.4220   21.5330 C   0  0  0  0  0  3  0  0  0  0  0  0
  -24.9340  -28.8930   20.0880 C   0  0  0  0  0  0  0  0  0  0  0  0
  -26.0050  -30.7960   21.3030 C   0  0  0  0  0  2  0  0  0  0  0  0
  -26.0950  -29.4240   20.6600 C   0  0  0  0  0  0  0  0  0  0  0  0
  -27.3040  -28.6840   20.6210 C   0  0  0  0  0  3  0  0  0  0  0  0
  -26.1630  -26.8780   19.4600 C   0  0  0  0  0  3  0  0  0  0  0  0
  -24.9630  -27.6190   19.4870 C   0  0  0  0  0  3  0  0  0  0  0  0
  -23.6820  -29.7420   20.1500 C   0  0  0  0  0  2  0  0  0  0  0  0
  -24.7490  -31.0330   22.0580 N   0  0  0  0  0  0  0  0  0  0  0  0
  -23.6230  -32.0870   23.7220 O   0  0  0  0  0  0  0  0  0  0  0  0
  -22.8540  -29.3940   22.4990 C   0  0  0  0  0  0  0  0  0  0  0  0
  -21.5300  -29.2010   22.3880 N   0  0  0  0  0  0  0  0  0  0  0  0
  -23.5520  -28.7720   23.3050 O   0  0  0  0  0  0  0  0  0  0  0  0
  -21.0270  -29.7510   21.7060 H   0  0  0  0  0  0  0  0  0  0  0  0
  -18.1700  -27.9860   22.9310 C   0  0  0  0  0  0  0  0  0  0  0  0
  -20.7310  -28.2500   23.1600 C   0  0  0  0  0  3  0  0  0  0  0  0
  -20.8290  -26.8270   22.5630 C   0  0  0  0  0  2  0  0  0  0  0  0
  -19.7100  -26.5140   21.5650 C   0  0  0  0  0  2  0  0  0  0  0  0
  -18.3400  -26.6450   22.2360 C   0  0  0  0  0  2  0  0  0  0  0  0
  -19.2930  -28.7470   23.3500 C   0  0  0  0  0  0  0  0  0  0  0  0
  -19.0790  -30.0030   23.9590 C   0  0  0  0  0  3  0  0  0  0  0  0
  -17.7750  -30.4960   24.1540 C   0  0  0  0  0  3  0  0  0  0  0  0
  -16.6670  -29.7300   23.7530 C   0  0  0  0  0  3  0  0  0  0  0  0
  -16.8660  -28.4770   23.1470 C   0  0  0  0  0  3  0  0  0  0  0  0
  -25.9880  -32.4700   23.7690 C   0  0  0  0  0  3  0  0  0  0  0  0
  -26.5430  -31.6870   25.0230 C   0  0  1  0  0  0  0  0  0  0  0  0
  -25.4740  -31.4130   26.1050 C   0  0  0  0  0  1  0  0  0  0  0  0
  -27.1460  -30.3290   24.5930 C   0  0  0  0  0  1  0  0  0  0  0  0
  -27.6880  -32.4940   25.6790 C   0  0  0  0  0  1  0  0  0  0  0  0
  -25.6650  -33.8570   24.1290 N   0  0  0  0  0  0  0  0  0  0  0  0
  -25.9700  -34.9280   23.3840 C   0  0  0  0  0  0  0  0  0  0  0  0
  -26.6230  -34.8540   22.3400 O   0  0  0  0  0  0  0  0  0  0  0  0
  -25.0770  -33.9880   24.9390 H   0  0  0  0  0  0  0  0  0  0  0  0
  -24.2100  -36.7030   23.0940 C   0  0  0  0  0  1  0  0  0  0  0  0
  -25.4700  -36.3000   23.8790 C   0  0  0  0  0  3  0  0  0  0  0  0
  -27.6130  -37.1870   24.6860 C   0  0  0  0  0  1  0  0  0  0  0  0
  -26.4800  -37.3760   23.7840 N   0  0  0  0  0  0  0  0  0  0  0  0
  -26.0580  -38.2760   23.9950 H   0  0  0  0  0  0  0  0  0  0  0  0
  1  2  2  0
  4  7  1  0
  5  3  1  0
  6  4  2  0
  6  8  1  0
  7  3  2  0
  7  1  1  0
  8 17  1  0
  8  5  2  0
  9 17  1  0
 10 15  1  0
 11 12  1  0
 11 10  1  0
 13 12  1  0
 13 22  1  0
 13 14  1  0
 15  9  1  0
 15 14  1  0
 16  9  2  0
 17 18  1  0
 19 20  2  0
 20 39  1  0
 21 20  1  0
 21 24  1  0
 22 23  1  0
 22 19  1  0
 23 21  2  0
 24 25  1  0
 25 26  2  0
 27 30  1  0
 27 26  1  0
 28 27  2  0
 29 28  1  0
 29 24  2  0
 30 31  1  0
 31 36  2  0
 31 32  1  0
 32 33  2  0
 33 34  1  0
 34 38  1  0
 35 34  2  0
 36 35  1  0
 37 36  1  0
 39 40  1  0
 40 43  1  0
 40 42  1  0
 41 39  2  0
 44 19  1  0
 44 45  1  0
 46 44  1  0
 47 48  1  0
 47 49  1  0
 49  1  1  0
 50 47  1  0
 50 51  2  0
 52 54  1  0
 52 51  1  0
 53 64  2  0
 54 59  1  0
 55 63  1  0
 55 65  1  0
 56 62  1  0
 56 58  1  0
 57 63  1  0
 58 57  1  0
 59 58  2  0
 60 61  1  0
 60 54  2  0
 61 56  2  0
 62 55  1  0
 63 53  1  0
 65 67  2  0
 66 65  1  0
 68 66  1  0
 69 78  2  0
 69 74  1  0
 70 66  1  0
 70 74  1  0
 71 70  1  0
 72 73  1  0
 72 71  1  0
 73 69  1  0
 74 75  2  0
 75 76  1  0
 77 76  2  0
 78 77  1  0
 79 53  1  0
 79 84  1  0
 79 80  1  0
 80 83  1  1
 80 81  1  0
 82 80  1  0
 84 87  1  0
 85 89  1  0
 85 84  1  0
 86 85  2  0
 89 88  1  0
 91 89  1  0
 91 92  1  0
 91 90  1  0
M  ISO  4   9 100  17 100  51 101  52 101
M  END
>  <TORSDO>  (26) 
F 19

>  <SCORE>  (26) 
-13.523

>  <name>  (26) 
25

>  <ligand_id>  (26) 
25

>  <original_smiles>  (26) 
[H]C(Oc1c([H])c([H])c2c(c1[H])C([H])([H])N(C(=O)C([H])(N([H])C(=O)C([H])(N([H])C([H])([H])[H])C([H])([H])[H])C(C([H])([H])[H])(C([H])([H])[H])C([H])([H])[H])C([H])(C(=O)N([H])C1([H])c3c([H])c([H])c([H])c([H])c3C([H])([H])C([H])([H])C1([H])[H])C2([H])[H])=C([H])C(=NC(=O)c1c([H])c([H])c(N([H])C(=O)N2C([H])([H])C([H])([H])C([H])([H])C([H])(n3nc(-c4c([H])c([H])c(Oc5c([H])c([H])c(F)c([H])c5F)c([H])c4[H])c(C(=O)N([H])[H])c3N([H])[H])C2([H])[H])c([H])c1[H])C([H])([H])[H]

>  <smiles>  (26) 
[H]C(Oc1c([H])c([H])c2c(c1[H])C([H])([H])N(C(=O)C([H])(N([H])C(=O)C([H])(N([H])C([H])([H])[H])C([H])([H])[H])C(C([H])([H])[H])(C([H])([H])[H])C([H])([H])[H])C([H])(C(=O)N([H])C1([H])c3c([H])c([H])c([H])c([H])c3C([H])([H])C([H])([H])C1([H])[H])C2([H])[H])=C([H])C(=NC(=O)c1c([H])c([H])c(N([H])C(=O)N2C([H])([H])C([H])([H])C([H])([H])C([H])(n3nc(-c4c([H])c([H])c(Oc5c([H])c([H])c(F)c([H])c5F)c([H])c4[H])c(C(=O)N([H])[H])c3N([H])[H])C2([H])[H])c([H])c1[H])C([H])([H])[H]

$$$$
26:0:0
     RDKit          3D

 91100  0  0  1  0  0  0  0  0999 V2000
  -28.5100  -23.7750   19.4550 C   0  0  0  0  0  0  0  0  0  0  0  0
  -28.4730  -21.4780   18.5490 C   0  0  0  0  0  0  0  0  0  0  0  0
  -28.2310  -25.1510   19.3860 C   0  0  0  0  0  3  0  0  0  0  0  0
  -28.2120  -22.9450   18.2320 C   0  0  0  0  0  2  0  0  0  0  0  0
  -29.0400  -22.6690   20.4640 C   0  0  0  0  0  2  0  0  0  0  0  0
  -28.9590  -21.2830   19.7940 N   0  0  0  0  0  0  0  0  0  0  0  0
  -28.2600  -20.6060   17.7030 O   0  0  0  0  0  0  0  0  0  0  0  0
  -30.6180  -19.6230   20.7880 C   0  0  0  0  0  3  0  0  0  0  0  0
  -30.8660  -18.1850   20.9200 C   0  0  0  0  0  3  0  0  0  0  0  0
  -29.4200  -20.0010   20.2070 C   0  0  0  0  0  0  0  0  0  0  0  0
  -29.8540  -17.3350   20.5060 C   0  0  0  0  0  0  0  0  0  0  0  0
  -28.5570  -18.4380   19.9360 S   0  0  0  0  0  0  0  0  0  0  0  0
  -30.5650  -14.8350   20.4130 C   0  0  0  0  0  0  0  0  0  0  0  0
  -30.4390  -12.5330   19.4200 C   0  0  0  0  0  2  0  0  0  0  0  0
  -29.5040  -12.5670   18.1890 C   0  0  0  0  0  2  0  0  0  0  0  0
  -28.0320  -12.3760   18.6090 C   0  0  0  0  0  2  0  0  0  0  0  0
  -27.6360  -13.2730   19.8100 C   0  0  0  0  0  3  0  0  0  0  0  0
  -28.6860  -13.2070   20.9400 C   0  0  0  0  0  2  0  0  0  0  0  0
  -29.9800  -13.5860   20.3560 N   0  0  0  0  0  0  0  0  0  0  0  0
  -31.7600  -14.9630   20.1270 O   0  0  0  0  0  0  0  0  0  0  0  0
  -29.7120  -15.9280   20.5580 N   0  0  0  0  0  0  0  0  0  0  0  0
  -28.7520  -15.6270   20.6360 H   0  0  0  0  0  0  0  0  0  0  0  0
  -25.2390  -13.8560   20.5120 C   0  0  0  0  0  0  0  0  0  0  0  0
  -24.1740  -13.0790   20.8760 C   0  0  0  0  0  0  0  0  0  0  0  0
  -24.6450  -11.7300   20.8580 C   0  0  0  0  0  0  0  0  0  0  0  0
  -26.2900  -12.9810   20.2900 N   0  0  0  0  0  0  0  0  0  0  0  0
  -25.9390  -11.6970   20.5620 N   0  0  0  0  0  0  0  0  0  0  0  0
  -23.9230  -10.4650   21.0470 C   0  0  0  0  0  0  0  0  0  0  0  0
  -24.3530   -9.5010   21.9850 C   0  0  0  0  0  3  0  0  0  0  0  0
  -23.6320   -8.3020   22.1610 C   0  0  0  0  0  3  0  0  0  0  0  0
  -22.4650   -8.0570   21.3990 C   0  0  0  0  0  0  0  0  0  0  0  0
  -22.0540   -9.0080   20.4500 C   0  0  0  0  0  3  0  0  0  0  0  0
  -22.7760  -10.2010   20.2710 C   0  0  0  0  0  3  0  0  0  0  0  0
  -21.7140   -6.9090   21.4850 O   0  0  0  0  0  0  0  0  0  0  0  0
  -21.6620   -6.1680   22.6390 C   0  0  0  0  0  0  0  0  0  0  0  0
  -21.2180   -6.7220   23.8610 C   0  0  0  0  0  3  0  0  0  0  0  0
  -21.1140   -5.9070   25.0050 C   0  0  0  0  0  3  0  0  0  0  0  0
  -21.4430   -4.5400   24.9300 C   0  0  0  0  0  0  0  0  0  0  0  0
  -21.8810   -3.9860   23.7140 C   0  0  0  0  0  3  0  0  0  0  0  0
  -21.9870   -4.7990   22.5710 C   0  0  0  0  0  0  0  0  0  0  0  0
  -22.3890   -4.2560   21.3960 F   0  0  0  0  0  0  0  0  0  0  0  0
  -21.3360   -3.7540   26.0280 F   0  0  0  0  0  0  0  0  0  0  0  0
  -22.7710  -13.5500   21.1290 C   0  0  0  0  0  0  0  0  0  0  0  0
  -22.0350  -12.8530   21.9870 N   0  0  0  0  0  0  0  0  0  0  0  0
  -22.3370  -14.5720   20.6010 O   0  0  0  0  0  0  0  0  0  0  0  0
  -22.4000  -12.0260   22.4380 H   0  0  0  0  0  0  0  0  0  0  0  0
  -21.0940  -13.1510   22.1990 H   0  0  0  0  0  0  0  0  0  0  0  0
  -25.3940  -15.2270   20.3260 N   0  0  0  0  0  0  0  0  0  0  0  0
  -24.6110  -15.8660   20.4130 H   0  0  0  0  0  0  0  0  0  0  0  0
  -26.2210  -15.6690   19.9450 H   0  0  0  0  0  0  0  0  0  0  0  0
  -28.2610  -26.3100   20.2230 O   0  0  0  0  0  0  0  0  0  0  0  0
  -24.5950  -31.8680   23.2490 C   0  0  0  0  0  0  0  0  0  0  0  0
  -27.1900  -27.2550   20.1590 C   0  0  0  0  0  0  0  0  0  0  0  0
  -23.3880  -30.4750   21.6130 C   0  0  0  0  0  3  0  0  0  0  0  0
  -24.8340  -28.9300   20.1720 C   0  0  0  0  0  0  0  0  0  0  0  0
  -25.9350  -30.7760   21.4250 C   0  0  0  0  0  2  0  0  0  0  0  0
  -26.0140  -29.3960   20.7650 C   0  0  0  0  0  0  0  0  0  0  0  0
  -27.1930  -28.5710   20.7490 C   0  0  0  0  0  3  0  0  0  0  0  0
  -25.9670  -26.8640   19.5590 C   0  0  0  0  0  3  0  0  0  0  0  0
  -24.8170  -27.6740   19.5580 C   0  0  0  0  0  3  0  0  0  0  0  0
  -23.6000  -29.8120   20.2280 C   0  0  0  0  0  2  0  0  0  0  0  0
  -24.6600  -31.0580   22.1510 N   0  0  0  0  0  0  0  0  0  0  0  0
  -23.5110  -32.1440   23.7870 O   0  0  0  0  0  0  0  0  0  0  0  0
  -22.7270  -29.4540   22.5720 C   0  0  0  0  0  0  0  0  0  0  0  0
  -21.4000  -29.2720   22.4500 N   0  0  0  0  0  0  0  0  0  0  0  0
  -23.4080  -28.8290   23.3880 O   0  0  0  0  0  0  0  0  0  0  0  0
  -20.9080  -29.8300   21.7660 H   0  0  0  0  0  0  0  0  0  0  0  0
  -18.0280  -28.0540   22.9580 C   0  0  0  0  0  0  0  0  0  0  0  0
  -20.5860  -28.3300   23.2220 C   0  0  0  0  0  3  0  0  0  0  0  0
  -20.6950  -26.8990   22.6480 C   0  0  0  0  0  2  0  0  0  0  0  0
  -19.5930  -26.5680   21.6360 C   0  0  0  0  0  2  0  0  0  0  0  0
  -18.2130  -26.7050   22.2830 C   0  0  0  0  0  2  0  0  0  0  0  0
  -19.1430  -28.8240   23.3850 C   0  0  0  0  0  0  0  0  0  0  0  0
  -18.9170  -30.0850   23.9790 C   0  0  0  0  0  3  0  0  0  0  0  0
  -17.6090  -30.5760   24.1480 C   0  0  0  0  0  3  0  0  0  0  0  0
  -16.5090  -29.8050   23.7350 C   0  0  0  0  0  3  0  0  0  0  0  0
  -16.7200  -28.5450   23.1460 C   0  0  0  0  0  3  0  0  0  0  0  0
  -25.8750  -32.5060   23.8680 C   0  0  0  0  0  3  0  0  0  0  0  0
  -25.5640  -33.9050   24.1930 N   0  0  0  0  0  0  0  0  0  0  0  0
  -25.8910  -34.9570   23.4320 C   0  0  0  0  0  0  0  0  0  0  0  0
  -26.5560  -34.8520   22.3970 O   0  0  0  0  0  0  0  0  0  0  0  0
  -24.9720  -34.0600   24.9970 H   0  0  0  0  0  0  0  0  0  0  0  0
  -24.1640  -36.7520   23.0820 C   0  0  0  0  0  1  0  0  0  0  0  0
  -25.4070  -36.3470   23.8890 C   0  0  0  0  0  3  0  0  0  0  0  0
  -27.5430  -37.2330   24.7150 C   0  0  0  0  0  1  0  0  0  0  0  0
  -26.4400  -37.3990   23.7730 N   0  0  0  0  0  0  0  0  0  0  0  0
  -26.0340  -38.3200   23.9180 H   0  0  0  0  0  0  0  0  0  0  0  0
  -26.3910  -31.7400   25.1480 C   0  0  1  0  0  0  0  0  0  0  0  0
  -25.2980  -31.5100   26.2190 C   0  0  0  0  0  1  0  0  0  0  0  0
  -26.9740  -30.3600   24.7670 C   0  0  0  0  0  1  0  0  0  0  0  0
  -27.5420  -32.5380   25.8060 C   0  0  0  0  0  1  0  0  0  0  0  0
  1  5  1  0
  2  6  1  0
  3  1  2  0
  3 51  1  0
  4  2  1  0
  4  1  1  0
  6 10  1  0
  6  5  1  0
  7  2  2  0
  8  9  1  0
 10  8  2  0
 11 21  1  0
 11  9  2  0
 12 10  1  0
 12 11  1  0
 13 21  1  0
 14 19  1  0
 15 16  1  0
 15 14  1  0
 17 16  1  0
 17 26  1  0
 17 18  1  0
 19 13  1  0
 19 18  1  0
 20 13  2  0
 21 22  1  0
 23 24  2  0
 24 43  1  0
 25 24  1  0
 25 28  1  0
 26 23  1  0
 26 27  1  0
 27 25  2  0
 28 29  1  0
 29 30  2  0
 31 34  1  0
 31 30  1  0
 32 31  2  0
 33 32  1  0
 33 28  2  0
 34 35  1  0
 35 36  1  0
 36 37  2  0
 38 37  1  0
 38 42  1  0
 39 38  2  0
 40 35  2  0
 40 39  1  0
 41 40  1  0
 43 44  1  0
 44 47  1  0
 44 46  1  0
 45 43  2  0
 48 49  1  0
 48 23  1  0
 50 48  1  0
 52 63  2  0
 53 51  1  0
 53 58  1  0
 54 62  1  0
 54 64  1  0
 55 61  1  0
 55 57  1  0
 56 62  1  0
 57 56  1  0
 58 57  2  0
 59 53  2  0
 60 59  1  0
 60 55  2  0
 61 54  1  0
 62 52  1  0
 64 66  2  0
 65 64  1  0
 67 65  1  0
 68 77  2  0
 68 73  1  0
 69 65  1  0
 69 73  1  0
 70 69  1  0
 71 72  1  0
 71 70  1  0
 72 68  1  0
 73 74  2  0
 74 75  1  0
 76 75  2  0
 77 76  1  0
 78 52  1  0
 78 79  1  0
 78 88  1  0
 79 82  1  0
 80 84  1  0
 80 79  1  0
 81 80  2  0
 84 83  1  0
 86 84  1  0
 86 87  1  0
 86 85  1  0
 88 91  1  1
 88 89  1  0
 90 88  1  0
M  ISO  4   3 101  13 100  21 100  51 101
M  END
>  <TORSDO>  (27) 
F 17

>  <SCORE>  (27) 
-15.231

>  <name>  (27) 
26

>  <ligand_id>  (27) 
26

>  <original_smiles>  (27) 
[H]C(Oc1c([H])c([H])c2c(c1[H])C([H])([H])N(C(=O)C([H])(N([H])C(=O)C([H])(N([H])C([H])([H])[H])C([H])([H])[H])C(C([H])([H])[H])(C([H])([H])[H])C([H])([H])[H])C([H])(C(=O)N([H])C1([H])c3c([H])c([H])c([H])c([H])c3C([H])([H])C([H])([H])C1([H])[H])C2([H])[H])=C1C([H])([H])C(=O)N(c2sc(N([H])C(=O)N3C([H])([H])C([H])([H])C([H])([H])C([H])(n4nc(-c5c([H])c([H])c(Oc6c([H])c([H])c(F)c([H])c6F)c([H])c5[H])c(C(=O)N([H])[H])c4N([H])[H])C3([H])[H])c([H])c2[H])C1([H])[H]

>  <smiles>  (27) 
[H]C(Oc1c([H])c([H])c2c(c1[H])C([H])([H])N(C(=O)C([H])(N([H])C(=O)C([H])(N([H])C([H])([H])[H])C([H])([H])[H])C(C([H])([H])[H])(C([H])([H])[H])C([H])([H])[H])C([H])(C(=O)N([H])C1([H])c3c([H])c([H])c([H])c([H])c3C([H])([H])C([H])([H])C1([H])[H])C2([H])[H])=C1C([H])([H])C(=O)N(c2sc(N([H])C(=O)N3C([H])([H])C([H])([H])C([H])([H])C([H])(n4nc(-c5c([H])c([H])c(Oc6c([H])c([H])c(F)c([H])c6F)c([H])c5[H])c(C(=O)N([H])[H])c4N([H])[H])C3([H])[H])c([H])c2[H])C1([H])[H]

$$$$
27:0:0
     RDKit          3D

 93102  0  0  1  0  0  0  0  0999 V2000
  -29.3940  -23.0630   20.0680 C   0  0  0  0  0  2  0  0  0  0  0  0
  -28.5690  -24.1860   20.1000 C   0  0  0  0  0  3  0  0  0  0  0  0
  -26.7210  -22.7350   20.8670 C   0  0  0  0  0  0  0  0  0  0  0  0
  -27.0840  -23.9170   19.9540 C   0  0  0  0  0  2  0  0  0  0  0  0
  -27.5970  -21.4670   20.7440 C   0  0  0  0  0  2  0  0  0  0  0  0
  -28.9140  -21.6860   20.1190 N   0  0  0  0  0  0  0  0  0  0  0  0
  -25.7820  -22.8070   21.6640 O   0  0  0  0  0  0  0  0  0  0  0  0
  -30.5110  -19.2540   17.7060 C   0  0  0  0  0  3  0  0  0  0  0  0
  -30.0500  -20.4420   18.3250 C   0  0  0  0  0  3  0  0  0  0  0  0
  -30.4950  -18.0010   18.3690 C   0  0  0  0  0  3  0  0  0  0  0  0
  -29.4510  -19.1000   20.2600 C   0  0  0  0  0  3  0  0  0  0  0  0
  -29.4810  -20.4260   19.6130 C   0  0  0  0  0  0  0  0  0  0  0  0
  -30.0010  -17.8540   19.6950 C   0  0  0  0  0  0  0  0  0  0  0  0
  -30.7910  -15.3260   20.1890 C   0  0  0  0  0  0  0  0  0  0  0  0
  -30.6890  -12.9210   19.4380 C   0  0  0  0  0  2  0  0  0  0  0  0
  -29.8040  -12.9170   18.1700 C   0  0  0  0  0  2  0  0  0  0  0  0
  -28.3120  -12.7730   18.5440 C   0  0  0  0  0  2  0  0  0  0  0  0
  -27.8970  -13.6860   19.7310 C   0  0  0  0  0  3  0  0  0  0  0  0
  -28.9380  -13.7000   20.8760 C   0  0  0  0  0  2  0  0  0  0  0  0
  -30.2300  -14.0620   20.2790 N   0  0  0  0  0  0  0  0  0  0  0  0
  -31.9780  -15.4160   19.8530 O   0  0  0  0  0  0  0  0  0  0  0  0
  -29.9890  -16.4810   20.3460 N   0  0  0  0  0  0  0  0  0  0  0  0
  -29.1910  -16.3100   20.9400 H   0  0  0  0  0  0  0  0  0  0  0  0
  -25.4980  -14.2530   20.4250 C   0  0  0  0  0  0  0  0  0  0  0  0
  -24.4280  -13.4790   20.7760 C   0  0  0  0  0  0  0  0  0  0  0  0
  -24.8940  -12.1310   20.7630 C   0  0  0  0  0  0  0  0  0  0  0  0
  -26.5520  -13.3800   20.2090 N   0  0  0  0  0  0  0  0  0  0  0  0
  -26.1920  -12.0950   20.4730 N   0  0  0  0  0  0  0  0  0  0  0  0
  -24.1600  -10.8680   20.9400 C   0  0  0  0  0  0  0  0  0  0  0  0
  -24.5650   -9.9070   21.8960 C   0  0  0  0  0  3  0  0  0  0  0  0
  -23.8270   -8.7150   22.0690 C   0  0  0  0  0  3  0  0  0  0  0  0
  -22.6720   -8.4730   21.2880 C   0  0  0  0  0  0  0  0  0  0  0  0
  -22.2870   -9.4190   20.3250 C   0  0  0  0  0  3  0  0  0  0  0  0
  -23.0240  -10.6030   20.1490 C   0  0  0  0  0  3  0  0  0  0  0  0
  -21.9160   -7.3290   21.3630 O   0  0  0  0  0  0  0  0  0  0  0  0
  -21.8340   -6.5980   22.5210 C   0  0  0  0  0  0  0  0  0  0  0  0
  -21.3570   -7.1590   23.7260 C   0  0  0  0  0  3  0  0  0  0  0  0
  -21.2260   -6.3530   24.8760 C   0  0  0  0  0  3  0  0  0  0  0  0
  -21.5590   -4.9860   24.8180 C   0  0  0  0  0  0  0  0  0  0  0  0
  -22.0290   -4.4230   23.6190 C   0  0  0  0  0  3  0  0  0  0  0  0
  -22.1640   -5.2290   22.4720 C   0  0  0  0  0  0  0  0  0  0  0  0
  -22.5980   -4.6770   21.3130 F   0  0  0  0  0  0  0  0  0  0  0  0
  -21.4270   -4.2090   25.9190 F   0  0  0  0  0  0  0  0  0  0  0  0
  -23.0290  -13.9590   21.0260 C   0  0  0  0  0  0  0  0  0  0  0  0
  -22.2900  -13.2580   21.8790 N   0  0  0  0  0  0  0  0  0  0  0  0
  -22.5990  -14.9860   20.5010 O   0  0  0  0  0  0  0  0  0  0  0  0
  -22.6540  -12.4250   22.3180 H   0  0  0  0  0  0  0  0  0  0  0  0
  -21.3540  -13.5630   22.1110 H   0  0  0  0  0  0  0  0  0  0  0  0
  -25.6540  -15.6220   20.2500 N   0  0  0  0  0  0  0  0  0  0  0  0
  -24.8600  -16.2460   20.3410 H   0  0  0  0  0  0  0  0  0  0  0  0
  -26.4620  -16.0700   19.8330 H   0  0  0  0  0  0  0  0  0  0  0  0
  -28.9090  -25.6670   20.6180 C   0  0  0  0  0  2  0  0  0  0  0  0
  -28.6800  -26.9210   19.8420 O   0  0  0  0  0  0  0  0  0  0  0  0
  -24.6890  -31.9600   23.3330 C   0  0  0  0  0  0  0  0  0  0  0  0
  -27.5250  -27.7100   20.0030 C   0  0  0  0  0  0  0  0  0  0  0  0
  -23.5690  -30.6480   21.5650 C   0  0  0  0  0  3  0  0  0  0  0  0
  -25.1050  -29.2430   20.0740 C   0  0  0  0  0  0  0  0  0  0  0  0
  -26.1020  -31.0600   21.4620 C   0  0  0  0  0  2  0  0  0  0  0  0
  -26.2470  -29.7260   20.7290 C   0  0  0  0  0  0  0  0  0  0  0  0
  -27.4650  -28.9730   20.6820 C   0  0  0  0  0  3  0  0  0  0  0  0
  -26.3620  -27.2870   19.3360 C   0  0  0  0  0  3  0  0  0  0  0  0
  -25.1630  -28.0300   19.3700 C   0  0  0  0  0  3  0  0  0  0  0  0
  -23.8410  -30.0790   20.1450 C   0  0  0  0  0  2  0  0  0  0  0  0
  -24.8040  -31.2400   22.1780 N   0  0  0  0  0  0  0  0  0  0  0  0
  -23.5860  -32.1600   23.8590 O   0  0  0  0  0  0  0  0  0  0  0  0
  -22.9240  -29.5390   22.4340 C   0  0  0  0  0  0  0  0  0  0  0  0
  -21.6020  -29.3540   22.2990 N   0  0  0  0  0  0  0  0  0  0  0  0
  -23.6200  -28.8570   23.1880 O   0  0  0  0  0  0  0  0  0  0  0  0
  -21.1000  -29.9780   21.6810 H   0  0  0  0  0  0  0  0  0  0  0  0
  -18.2400  -28.0740   22.7160 C   0  0  0  0  0  0  0  0  0  0  0  0
  -20.8020  -28.3230   22.9700 C   0  0  0  0  0  3  0  0  0  0  0  0
  -20.9060  -26.9610   22.2470 C   0  0  0  0  0  2  0  0  0  0  0  0
  -19.7880  -26.7370   21.2260 C   0  0  0  0  0  2  0  0  0  0  0  0
  -18.4160  -26.7980   21.9090 C   0  0  0  0  0  2  0  0  0  0  0  0
  -19.3610  -28.7930   23.2050 C   0  0  0  0  0  0  0  0  0  0  0  0
  -19.1420  -29.9880   23.9250 C   0  0  0  0  0  3  0  0  0  0  0  0
  -17.8370  -30.4660   24.1500 C   0  0  0  0  0  3  0  0  0  0  0  0
  -16.7320  -29.7340   23.6820 C   0  0  0  0  0  3  0  0  0  0  0  0
  -16.9320  -28.5400   22.9770 C   0  0  0  0  0  3  0  0  0  0  0  0
  -25.9330  -32.5870   24.0300 C   0  0  0  0  0  3  0  0  0  0  0  0
  -25.5960  -33.9720   24.3800 N   0  0  0  0  0  0  0  0  0  0  0  0
  -25.9370  -35.0460   23.6510 C   0  0  0  0  0  0  0  0  0  0  0  0
  -26.6300  -34.9710   22.6340 O   0  0  0  0  0  0  0  0  0  0  0  0
  -24.9790  -34.1040   25.1660 H   0  0  0  0  0  0  0  0  0  0  0  0
  -24.1780  -36.8180   23.3010 C   0  0  0  0  0  1  0  0  0  0  0  0
  -25.4180  -36.4170   24.1200 C   0  0  0  0  0  3  0  0  0  0  0  0
  -27.5240  -37.3340   24.9930 C   0  0  0  0  0  1  0  0  0  0  0  0
  -26.4310  -37.4930   24.0370 N   0  0  0  0  0  0  0  0  0  0  0  0
  -26.0050  -38.4020   24.1900 H   0  0  0  0  0  0  0  0  0  0  0  0
  -26.3960  -31.7880   25.3130 C   0  0  1  0  0  0  0  0  0  0  0  0
  -25.2560  -31.5190   26.3230 C   0  0  0  0  0  1  0  0  0  0  0  0
  -27.0070  -30.4230   24.9160 C   0  0  0  0  0  1  0  0  0  0  0  0
  -27.5060  -32.5750   26.0500 C   0  0  0  0  0  1  0  0  0  0  0  0
  1  2  1  0
  1  6  1  0
  2 52  1  0
  3  7  2  0
  4  2  1  0
  4  3  1  0
  5  3  1  0
  6  5  1  0
  8  9  2  0
  8 10  1  0
  9 12  1  0
 10 13  2  0
 12  6  1  0
 12 11  2  0
 13 11  1  0
 13 22  1  0
 14 20  1  0
 14 22  1  0
 15 20  1  0
 16 17  1  0
 16 15  1  0
 18 17  1  0
 18 27  1  0
 18 19  1  0
 20 19  1  0
 21 14  2  0
 22 23  1  0
 24 25  2  0
 25 44  1  0
 26 25  1  0
 26 29  1  0
 27 24  1  0
 27 28  1  0
 28 26  2  0
 29 30  1  0
 30 31  2  0
 32 35  1  0
 32 31  1  0
 33 32  2  0
 34 33  1  0
 34 29  2  0
 35 36  1  0
 36 37  1  0
 37 38  2  0
 39 38  1  0
 39 43  1  0
 40 39  2  0
 41 36  2  0
 41 40  1  0
 42 41  1  0
 44 45  1  0
 45 48  1  0
 45 47  1  0
 46 44  2  0
 49 50  1  0
 49 24  1  0
 51 49  1  0
 53 55  1  0
 53 52  1  0
 54 65  2  0
 55 60  1  0
 56 64  1  0
 56 66  1  0
 57 63  1  0
 57 59  1  0
 58 64  1  0
 59 58  1  0
 60 59  2  0
 61 62  1  0
 61 55  2  0
 62 57  2  0
 63 56  1  0
 64 54  1  0
 66 68  2  0
 67 66  1  0
 69 67  1  0
 70 79  2  0
 70 75  1  0
 71 67  1  0
 71 75  1  0
 72 71  1  0
 73 74  1  0
 73 72  1  0
 74 70  1  0
 75 76  2  0
 76 77  1  0
 78 77  2  0
 79 78  1  0
 80 54  1  0
 80 81  1  0
 80 90  1  0
 81 84  1  0
 82 86  1  0
 82 81  1  0
 83 82  2  0
 86 85  1  0
 88 86  1  0
 88 89  1  0
 88 87  1  0
 90 93  1  1
 90 91  1  0
 92 90  1  0
M  ISO  4  14 100  22 100  52 101  53 101
M  END
>  <TORSDO>  (28) 
F 18

>  <SCORE>  (28) 
-13.775

>  <name>  (28) 
27

>  <ligand_id>  (28) 
27

>  <original_smiles>  (28) 
[H]C1=C(C([H])([H])Oc2c([H])c([H])c3c(c2[H])C([H])([H])N(C(=O)C([H])(N([H])C(=O)C([H])(N([H])C([H])([H])[H])C([H])([H])[H])C(C([H])([H])[H])(C([H])([H])[H])C([H])([H])[H])C([H])(C(=O)N([H])C2([H])c4c([H])c([H])c([H])c([H])c4C([H])([H])C([H])([H])C2([H])[H])C3([H])[H])C([H])([H])C(=O)C([H])([H])N1c1c([H])c([H])c([H])c(N([H])C(=O)N2C([H])([H])C([H])([H])C([H])([H])C([H])(n3nc(-c4c([H])c([H])c(Oc5c([H])c([H])c(F)c([H])c5F)c([H])c4[H])c(C(=O)N([H])[H])c3N([H])[H])C2([H])[H])c1[H]

>  <smiles>  (28) 
[H]C1=C(C([H])([H])Oc2c([H])c([H])c3c(c2[H])C([H])([H])N(C(=O)C([H])(N([H])C(=O)C([H])(N([H])C([H])([H])[H])C([H])([H])[H])C(C([H])([H])[H])(C([H])([H])[H])C([H])([H])[H])C([H])(C(=O)N([H])C2([H])c4c([H])c([H])c([H])c([H])c4C([H])([H])C([H])([H])C2([H])[H])C3([H])[H])C([H])([H])C(=O)C([H])([H])N1c1c([H])c([H])c([H])c(N([H])C(=O)N2C([H])([H])C([H])([H])C([H])([H])C([H])(n3nc(-c4c([H])c([H])c(Oc5c([H])c([H])c(F)c([H])c5F)c([H])c4[H])c(C(=O)N([H])[H])c3N([H])[H])C2([H])[H])c1[H]

$$$$
28:0:0
     RDKit          3D

 91100  0  0  1  0  0  0  0  0999 V2000
  -28.4710  -23.6530   20.4080 C   0  0  0  0  0  0  0  0  0  0  0  0
  -28.1030  -22.3390   20.9930 C   0  0  0  0  0  0  0  0  0  0  0  0
  -27.9620  -24.9500   20.6530 C   0  0  0  0  0  3  0  0  0  0  0  0
  -29.5210  -22.9000   19.5520 C   0  0  0  0  0  2  0  0  0  0  0  0
  -29.0620  -21.6250   20.2130 N   0  0  0  0  0  0  0  0  0  0  0  0
  -27.2780  -22.0560   21.8370 O   0  0  0  0  0  0  0  0  0  0  0  0
  -31.4240  -19.0970   18.6050 C   0  0  0  0  0  3  0  0  0  0  0  0
  -30.7210  -20.2400   19.0180 C   0  0  0  0  0  3  0  0  0  0  0  0
  -31.1210  -17.8170   19.0920 C   0  0  0  0  0  3  0  0  0  0  0  0
  -29.3770  -18.8510   20.4310 C   0  0  0  0  0  3  0  0  0  0  0  0
  -29.6510  -20.2370   19.9500 C   0  0  0  0  0  0  0  0  0  0  0  0
  -30.1010  -17.6060   20.0440 C   0  0  0  0  0  0  0  0  0  0  0  0
  -30.6030  -14.9750   20.3220 C   0  0  0  0  0  0  0  0  0  0  0  0
  -30.4450  -12.6430   19.3890 C   0  0  0  0  0  2  0  0  0  0  0  0
  -29.5180  -12.6490   18.1520 C   0  0  0  0  0  2  0  0  0  0  0  0
  -28.0510  -12.4530   18.5750 C   0  0  0  0  0  2  0  0  0  0  0  0
  -27.6530  -13.3600   19.7710 C   0  0  0  0  0  3  0  0  0  0  0  0
  -28.7050  -13.3480   20.9000 C   0  0  0  0  0  2  0  0  0  0  0  0
  -29.9870  -13.7300   20.2980 N   0  0  0  0  0  0  0  0  0  0  0  0
  -31.8060  -15.0090   20.0490 O   0  0  0  0  0  0  0  0  0  0  0  0
  -29.8450  -16.1650   20.4780 N   0  0  0  0  0  0  0  0  0  0  0  0
  -28.9170  -16.0010   20.8420 H   0  0  0  0  0  0  0  0  0  0  0  0
  -25.2750  -13.9340   20.5170 C   0  0  0  0  0  0  0  0  0  0  0  0
  -24.2090  -13.1570   20.8770 C   0  0  0  0  0  0  0  0  0  0  0  0
  -24.6730  -11.8060   20.8380 C   0  0  0  0  0  0  0  0  0  0  0  0
  -26.3160  -13.0580   20.2670 N   0  0  0  0  0  0  0  0  0  0  0  0
  -25.9650  -11.7710   20.5270 N   0  0  0  0  0  0  0  0  0  0  0  0
  -23.9470  -10.5420   21.0150 C   0  0  0  0  0  0  0  0  0  0  0  0
  -24.3550   -9.5810   21.9660 C   0  0  0  0  0  3  0  0  0  0  0  0
  -23.6270   -8.3830   22.1300 C   0  0  0  0  0  3  0  0  0  0  0  0
  -22.4760   -8.1370   21.3430 C   0  0  0  0  0  0  0  0  0  0  0  0
  -22.0900   -9.0850   20.3800 C   0  0  0  0  0  3  0  0  0  0  0  0
  -22.8180  -10.2750   20.2140 C   0  0  0  0  0  3  0  0  0  0  0  0
  -21.7210   -6.9910   21.4170 O   0  0  0  0  0  0  0  0  0  0  0  0
  -21.6090   -6.2760   22.5840 C   0  0  0  0  0  0  0  0  0  0  0  0
  -21.0810   -6.8500   23.7620 C   0  0  0  0  0  3  0  0  0  0  0  0
  -20.9180   -6.0600   24.9170 C   0  0  0  0  0  3  0  0  0  0  0  0
  -21.2760   -4.6980   24.8960 C   0  0  0  0  0  0  0  0  0  0  0  0
  -21.7960   -4.1250   23.7220 C   0  0  0  0  0  3  0  0  0  0  0  0
  -21.9600   -4.9110   22.5690 C   0  0  0  0  0  0  0  0  0  0  0  0
  -22.4410   -4.3490   21.4340 F   0  0  0  0  0  0  0  0  0  0  0  0
  -21.1120   -3.9360   26.0020 F   0  0  0  0  0  0  0  0  0  0  0  0
  -22.8120  -13.6310   21.1500 C   0  0  0  0  0  0  0  0  0  0  0  0
  -22.0780  -12.9230   22.0010 N   0  0  0  0  0  0  0  0  0  0  0  0
  -22.3790  -14.6640   20.6420 O   0  0  0  0  0  0  0  0  0  0  0  0
  -22.4410  -12.0850   22.4330 H   0  0  0  0  0  0  0  0  0  0  0  0
  -21.1410  -13.2240   22.2280 H   0  0  0  0  0  0  0  0  0  0  0  0
  -25.4410  -15.3070   20.3550 N   0  0  0  0  0  0  0  0  0  0  0  0
  -24.6840  -15.9690   20.4860 H   0  0  0  0  0  0  0  0  0  0  0  0
  -26.2900  -15.7420   20.0190 H   0  0  0  0  0  0  0  0  0  0  0  0
  -28.2610  -26.2930   20.1840 O   0  0  0  0  0  0  0  0  0  0  0  0
  -24.6200  -31.9030   23.2330 C   0  0  0  0  0  0  0  0  0  0  0  0
  -27.2150  -27.2690   20.1660 C   0  0  0  0  0  0  0  0  0  0  0  0
  -23.4190  -30.5110   21.5900 C   0  0  0  0  0  3  0  0  0  0  0  0
  -24.8750  -28.9650   20.1470 C   0  0  0  0  0  0  0  0  0  0  0  0
  -25.9690  -30.8080   21.4130 C   0  0  0  0  0  2  0  0  0  0  0  0
  -26.0520  -29.4230   20.7580 C   0  0  0  0  0  0  0  0  0  0  0  0
  -27.2270  -28.5900   20.7560 C   0  0  0  0  0  3  0  0  0  0  0  0
  -26.0220  -26.9020   19.5120 C   0  0  0  0  0  3  0  0  0  0  0  0
  -24.8720  -27.7160   19.5060 C   0  0  0  0  0  3  0  0  0  0  0  0
  -23.6380  -29.8450   20.2050 C   0  0  0  0  0  2  0  0  0  0  0  0
  -24.6890  -31.0940   22.1350 N   0  0  0  0  0  0  0  0  0  0  0  0
  -23.5340  -32.1770   23.7670 O   0  0  0  0  0  0  0  0  0  0  0  0
  -22.7580  -29.4890   22.5480 C   0  0  0  0  0  0  0  0  0  0  0  0
  -21.4310  -29.3030   22.4220 N   0  0  0  0  0  0  0  0  0  0  0  0
  -23.4370  -28.8670   23.3670 O   0  0  0  0  0  0  0  0  0  0  0  0
  -20.9380  -29.8600   21.7380 H   0  0  0  0  0  0  0  0  0  0  0  0
  -18.0610  -28.0780   22.9330 C   0  0  0  0  0  0  0  0  0  0  0  0
  -20.6190  -28.3560   23.1920 C   0  0  0  0  0  3  0  0  0  0  0  0
  -20.7280  -26.9270   22.6100 C   0  0  0  0  0  2  0  0  0  0  0  0
  -19.6240  -26.6010   21.5990 C   0  0  0  0  0  2  0  0  0  0  0  0
  -18.2440  -26.7340   22.2490 C   0  0  0  0  0  2  0  0  0  0  0  0
  -19.1760  -28.8460   23.3620 C   0  0  0  0  0  0  0  0  0  0  0  0
  -18.9510  -30.1030   23.9650 C   0  0  0  0  0  3  0  0  0  0  0  0
  -17.6420  -30.5920   24.1410 C   0  0  0  0  0  3  0  0  0  0  0  0
  -16.5420  -29.8240   23.7250 C   0  0  0  0  0  3  0  0  0  0  0  0
  -16.7520  -28.5680   23.1280 C   0  0  0  0  0  3  0  0  0  0  0  0
  -25.8970  -32.5400   23.8570 C   0  0  0  0  0  3  0  0  0  0  0  0
  -25.5840  -33.9410   24.1830 N   0  0  0  0  0  0  0  0  0  0  0  0
  -25.9130  -34.9940   23.4230 C   0  0  0  0  0  0  0  0  0  0  0  0
  -26.5810  -34.8900   22.3910 O   0  0  0  0  0  0  0  0  0  0  0  0
  -24.9920  -34.0960   24.9850 H   0  0  0  0  0  0  0  0  0  0  0  0
  -24.1900  -36.7930   23.0650 C   0  0  0  0  0  1  0  0  0  0  0  0
  -25.4280  -36.3840   23.8800 C   0  0  0  0  0  3  0  0  0  0  0  0
  -27.5590  -37.2720   24.7180 C   0  0  0  0  0  1  0  0  0  0  0  0
  -26.4630  -37.4360   23.7660 N   0  0  0  0  0  0  0  0  0  0  0  0
  -26.0590  -38.3580   23.9040 H   0  0  0  0  0  0  0  0  0  0  0  0
  -26.4100  -31.7760   25.1400 C   0  0  1  0  0  0  0  0  0  0  0  0
  -25.3110  -31.5450   26.2040 C   0  0  0  0  0  1  0  0  0  0  0  0
  -26.9950  -30.3960   24.7620 C   0  0  0  0  0  1  0  0  0  0  0  0
  -27.5570  -32.5740   25.8030 C   0  0  0  0  0  1  0  0  0  0  0  0
  1  3  2  0
  1  2  1  0
  2  6  2  0
  4  5  1  0
  4  1  1  0
  5  2  1  0
  7  8  2  0
  7  9  1  0
  8 11  1  0
  9 12  2  0
 11  5  1  0
 11 10  2  0
 12 10  1  0
 12 21  1  0
 13 21  1  0
 14 19  1  0
 15 16  1  0
 15 14  1  0
 17 16  1  0
 17 26  1  0
 17 18  1  0
 19 13  1  0
 19 18  1  0
 20 13  2  0
 21 22  1  0
 23 24  2  0
 24 43  1  0
 25 24  1  0
 25 28  1  0
 26 23  1  0
 26 27  1  0
 27 25  2  0
 28 29  1  0
 29 30  2  0
 31 34  1  0
 31 30  1  0
 32 31  2  0
 33 32  1  0
 33 28  2  0
 34 35  1  0
 35 36  1  0
 36 37  2  0
 38 37  1  0
 38 42  1  0
 39 38  2  0
 40 35  2  0
 40 39  1  0
 41 40  1  0
 43 44  1  0
 44 47  1  0
 44 46  1  0
 45 43  2  0
 48 49  1  0
 48 23  1  0
 50 48  1  0
 51  3  1  0
 52 63  2  0
 53 51  1  0
 53 58  1  0
 54 62  1  0
 54 64  1  0
 55 61  1  0
 55 57  1  0
 56 62  1  0
 57 56  1  0
 58 57  2  0
 59 53  2  0
 60 59  1  0
 60 55  2  0
 61 54  1  0
 62 52  1  0
 64 66  2  0
 65 64  1  0
 67 65  1  0
 68 77  2  0
 68 73  1  0
 69 65  1  0
 69 73  1  0
 70 69  1  0
 71 72  1  0
 71 70  1  0
 72 68  1  0
 73 74  2  0
 74 75  1  0
 76 75  2  0
 77 76  1  0
 78 52  1  0
 78 79  1  0
 78 88  1  0
 79 82  1  0
 80 84  1  0
 80 79  1  0
 81 80  2  0
 84 83  1  0
 86 84  1  0
 86 87  1  0
 86 85  1  0
 88 91  1  1
 88 89  1  0
 90 88  1  0
M  ISO  4   3 101  13 100  21 100  51 101
M  END
>  <TORSDO>  (29) 
F 17

>  <SCORE>  (29) 
-14.926

>  <name>  (29) 
28

>  <ligand_id>  (29) 
28

>  <original_smiles>  (29) 
[H]C(Oc1c([H])c([H])c2c(c1[H])C([H])([H])N(C(=O)C([H])(N([H])C(=O)C([H])(N([H])C([H])([H])[H])C([H])([H])[H])C(C([H])([H])[H])(C([H])([H])[H])C([H])([H])[H])C([H])(C(=O)N([H])C1([H])c3c([H])c([H])c([H])c([H])c3C([H])([H])C([H])([H])C1([H])[H])C2([H])[H])=C1C(=O)N(c2c([H])c([H])c([H])c(N([H])C(=O)N3C([H])([H])C([H])([H])C([H])([H])C([H])(n4nc(-c5c([H])c([H])c(Oc6c([H])c([H])c(F)c([H])c6F)c([H])c5[H])c(C(=O)N([H])[H])c4N([H])[H])C3([H])[H])c2[H])C1([H])[H]

>  <smiles>  (29) 
[H]C(Oc1c([H])c([H])c2c(c1[H])C([H])([H])N(C(=O)C([H])(N([H])C(=O)C([H])(N([H])C([H])([H])[H])C([H])([H])[H])C(C([H])([H])[H])(C([H])([H])[H])C([H])([H])[H])C([H])(C(=O)N([H])C1([H])c3c([H])c([H])c([H])c([H])c3C([H])([H])C([H])([H])C1([H])[H])C2([H])[H])=C1C(=O)N(c2c([H])c([H])c([H])c(N([H])C(=O)N3C([H])([H])C([H])([H])C([H])([H])C([H])(n4nc(-c5c([H])c([H])c(Oc6c([H])c([H])c(F)c([H])c6F)c([H])c5[H])c(C(=O)N([H])[H])c4N([H])[H])C3([H])[H])c2[H])C1([H])[H]

$$$$
29:0:0
     RDKit          3D

 94104  0  0  1  0  0  0  0  0999 V2000
  -30.5040  -22.2710   18.2010 C   0  0  0  0  0  2  0  0  0  0  0  0
  -30.3940  -22.1830   19.5330 C   0  0  0  0  0  3  0  0  0  0  0  0
  -28.6270  -22.0620   20.4480 C   0  0  0  0  0  0  0  0  0  0  0  0
  -29.3460  -23.2630   18.1320 C   0  0  0  0  0  2  0  0  0  0  0  0
  -29.3300  -23.2350   19.6880 C   0  0  2  0  0  0  0  0  0  0  0  0
  -29.7330  -21.2040   20.2430 N   0  0  0  0  0  0  0  0  0  0  0  0
  -27.5550  -21.8930   20.9950 O   0  0  0  0  0  0  0  0  0  0  0  0
  -31.0360  -19.0910   19.9830 C   0  0  0  0  0  3  0  0  0  0  0  0
  -28.8870  -18.9720   21.0280 C   0  0  0  0  0  3  0  0  0  0  0  0
  -31.1890  -17.6890   20.1070 C   0  0  0  0  0  3  0  0  0  0  0  0
  -29.0230  -17.5730   21.1620 C   0  0  0  0  0  3  0  0  0  0  0  0
  -29.8780  -19.7850   20.4220 C   0  0  0  0  0  0  0  0  0  0  0  0
  -30.1680  -16.9010   20.6900 C   0  0  0  0  0  0  0  0  0  0  0  0
  -30.8680  -14.5370   20.1250 C   0  0  0  0  0  0  0  0  0  0  0  0
  -30.5320  -12.4090   18.9160 C   0  0  0  0  0  2  0  0  0  0  0  0
  -29.5280  -12.6510   17.7690 C   0  0  0  0  0  2  0  0  0  0  0  0
  -28.0750  -12.5040   18.2650 C   0  0  0  0  0  2  0  0  0  0  0  0
  -27.8050  -13.2990   19.5700 C   0  0  0  0  0  3  0  0  0  0  0  0
  -28.9100  -13.0190   20.6150 C   0  0  0  0  0  2  0  0  0  0  0  0
  -30.2110  -13.3490   20.0020 N   0  0  0  0  0  0  0  0  0  0  0  0
  -31.9520  -14.7560   19.5770 O   0  0  0  0  0  0  0  0  0  0  0  0
  -30.1960  -15.4730   20.8270 N   0  0  0  0  0  0  0  0  0  0  0  0
  -29.4070  -15.0870   21.3230 H   0  0  0  0  0  0  0  0  0  0  0  0
  -25.4450  -13.9000   20.4060 C   0  0  0  0  0  0  0  0  0  0  0  0
  -24.3900  -13.1240   20.8050 C   0  0  0  0  0  0  0  0  0  0  0  0
  -24.8410  -11.7710   20.7140 C   0  0  0  0  0  0  0  0  0  0  0  0
  -26.4720  -13.0200   20.1030 N   0  0  0  0  0  0  0  0  0  0  0  0
  -26.1140  -11.7330   20.3430 N   0  0  0  0  0  0  0  0  0  0  0  0
  -24.1170  -10.5080   20.9060 C   0  0  0  0  0  0  0  0  0  0  0  0
  -24.5120   -9.5710   21.8860 C   0  0  0  0  0  3  0  0  0  0  0  0
  -23.7900   -8.3720   22.0620 C   0  0  0  0  0  3  0  0  0  0  0  0
  -22.6570   -8.1000   21.2570 C   0  0  0  0  0  0  0  0  0  0  0  0
  -22.2810   -9.0250   20.2690 C   0  0  0  0  0  3  0  0  0  0  0  0
  -23.0050  -10.2160   20.0900 C   0  0  0  0  0  3  0  0  0  0  0  0
  -21.9110   -6.9500   21.3410 O   0  0  0  0  0  0  0  0  0  0  0  0
  -21.7180   -6.3020   22.5340 C   0  0  0  0  0  0  0  0  0  0  0  0
  -21.0800   -6.9260   23.6270 C   0  0  0  0  0  3  0  0  0  0  0  0
  -20.8400   -6.2010   24.8110 C   0  0  0  0  0  3  0  0  0  0  0  0
  -21.2270   -4.8510   24.9020 C   0  0  0  0  0  0  0  0  0  0  0  0
  -21.8580   -4.2250   23.8120 C   0  0  0  0  0  3  0  0  0  0  0  0
  -22.1000   -4.9470   22.6300 C   0  0  0  0  0  0  0  0  0  0  0  0
  -22.6880   -4.3340   21.5760 F   0  0  0  0  0  0  0  0  0  0  0  0
  -20.9910   -4.1510   26.0360 F   0  0  0  0  0  0  0  0  0  0  0  0
  -23.0110  -13.6000   21.1580 C   0  0  0  0  0  0  0  0  0  0  0  0
  -22.3210  -12.8840   22.0390 N   0  0  0  0  0  0  0  0  0  0  0  0
  -22.5530  -14.6410   20.6870 O   0  0  0  0  0  0  0  0  0  0  0  0
  -22.7050  -12.0410   22.4410 H   0  0  0  0  0  0  0  0  0  0  0  0
  -21.3970  -13.1840   22.3170 H   0  0  0  0  0  0  0  0  0  0  0  0
  -25.6110  -15.2750   20.2580 N   0  0  0  0  0  0  0  0  0  0  0  0
  -24.8540  -15.9300   20.4160 H   0  0  0  0  0  0  0  0  0  0  0  0
  -26.4450  -15.7150   19.8900 H   0  0  0  0  0  0  0  0  0  0  0  0
  -29.7060  -24.4750   20.5300 C   0  0  0  0  0  2  0  0  0  0  0  0
  -28.5240  -25.4430   20.7960 C   0  0  0  0  0  2  0  0  0  0  0  0
  -28.6370  -26.7200   20.1360 O   0  0  0  0  0  0  0  0  0  0  0  0
  -24.5520  -31.7510   23.1200 C   0  0  0  0  0  0  0  0  0  0  0  0
  -27.4590  -27.4360   20.0930 C   0  0  0  0  0  0  0  0  0  0  0  0
  -23.4520  -30.3200   21.4290 C   0  0  0  0  0  3  0  0  0  0  0  0
  -25.0090  -28.8530   20.0370 C   0  0  0  0  0  0  0  0  0  0  0  0
  -25.9680  -30.7770   21.3120 C   0  0  0  0  0  2  0  0  0  0  0  0
  -26.1280  -29.4170   20.6640 C   0  0  0  0  0  0  0  0  0  0  0  0
  -27.3590  -28.7170   20.6870 C   0  0  0  0  0  3  0  0  0  0  0  0
  -26.3250  -26.8950   19.4490 C   0  0  0  0  0  3  0  0  0  0  0  0
  -25.1020  -27.5920   19.4250 C   0  0  0  0  0  3  0  0  0  0  0  0
  -23.7300  -29.6620   20.0520 C   0  0  0  0  0  2  0  0  0  0  0  0
  -24.6730  -30.9650   22.0130 N   0  0  0  0  0  0  0  0  0  0  0  0
  -23.4450  -31.9750   23.6290 O   0  0  0  0  0  0  0  0  0  0  0  0
  -22.8110  -29.2650   22.3610 C   0  0  0  0  0  0  0  0  0  0  0  0
  -21.4900  -29.0660   22.2220 N   0  0  0  0  0  0  0  0  0  0  0  0
  -23.4990  -28.6300   23.1630 O   0  0  0  0  0  0  0  0  0  0  0  0
  -20.9950  -29.6330   21.5470 H   0  0  0  0  0  0  0  0  0  0  0  0
  -18.1210  -27.8640   22.7290 C   0  0  0  0  0  0  0  0  0  0  0  0
  -20.6840  -28.0980   22.9640 C   0  0  0  0  0  3  0  0  0  0  0  0
  -20.7690  -26.6940   22.3200 C   0  0  0  0  0  2  0  0  0  0  0  0
  -19.6460  -26.4230   21.3140 C   0  0  0  0  0  2  0  0  0  0  0  0
  -18.2780  -26.5460   21.9900 C   0  0  0  0  0  2  0  0  0  0  0  0
  -19.2510  -28.6000   23.1720 C   0  0  0  0  0  0  0  0  0  0  0  0
  -19.0490  -29.8360   23.8240 C   0  0  0  0  0  3  0  0  0  0  0  0
  -17.7500  -30.3360   24.0350 C   0  0  0  0  0  3  0  0  0  0  0  0
  -16.6350  -29.5960   23.6070 C   0  0  0  0  0  3  0  0  0  0  0  0
  -16.8210  -28.3610   22.9600 C   0  0  0  0  0  3  0  0  0  0  0  0
  -25.7920  -32.4250   23.7850 C   0  0  0  0  0  3  0  0  0  0  0  0
  -26.3100  -31.6540   25.0610 C   0  0  1  0  0  0  0  0  0  0  0  0
  -25.2020  -31.3490   26.0950 C   0  0  0  0  0  1  0  0  0  0  0  0
  -26.9640  -30.3110   24.6590 C   0  0  0  0  0  1  0  0  0  0  0  0
  -27.4070  -32.4850   25.7660 C   0  0  0  0  0  1  0  0  0  0  0  0
  -25.4170  -33.8030   24.1260 N   0  0  0  0  0  0  0  0  0  0  0  0
  -25.7220  -34.8790   23.3870 C   0  0  0  0  0  0  0  0  0  0  0  0
  -26.4190  -34.8180   22.3710 O   0  0  0  0  0  0  0  0  0  0  0  0
  -24.7990  -33.9220   24.9140 H   0  0  0  0  0  0  0  0  0  0  0  0
  -23.9340  -36.6060   23.0070 C   0  0  0  0  0  1  0  0  0  0  0  0
  -25.1660  -36.2380   23.8500 C   0  0  0  0  0  3  0  0  0  0  0  0
  -27.2300  -37.2000   24.7680 C   0  0  0  0  0  1  0  0  0  0  0  0
  -26.1570  -37.3330   23.7850 N   0  0  0  0  0  0  0  0  0  0  0  0
  -25.7080  -38.2350   23.9250 H   0  0  0  0  0  0  0  0  0  0  0  0
  2  1  1  0
  2  5  1  0
  2  6  1  0
  3  7  2  0
  4  1  1  0
  4  5  1  0
  5  3  1  0
  5 52  1  1
  6 12  1  0
  6  3  1  0
  8 10  2  0
  8 12  1  0
  9 11  1  0
 10 13  1  0
 12  9  2  0
 13 22  1  0
 13 11  2  0
 14 22  1  0
 15 20  1  0
 16 17  1  0
 16 15  1  0
 18 17  1  0
 18 27  1  0
 18 19  1  0
 20 14  1  0
 20 19  1  0
 21 14  2  0
 22 23  1  0
 24 25  2  0
 25 44  1  0
 26 25  1  0
 26 29  1  0
 27 28  1  0
 27 24  1  0
 28 26  2  0
 29 30  1  0
 30 31  2  0
 32 35  1  0
 32 31  1  0
 33 32  2  0
 34 33  1  0
 34 29  2  0
 35 36  1  0
 36 41  2  0
 36 37  1  0
 37 38  2  0
 38 39  1  0
 39 43  1  0
 40 39  2  0
 41 40  1  0
 42 41  1  0
 44 45  1  0
 45 48  1  0
 45 47  1  0
 46 44  2  0
 49 24  1  0
 49 50  1  0
 51 49  1  0
 52 53  1  0
 54 53  1  0
 55 66  2  0
 56 54  1  0
 56 61  1  0
 57 65  1  0
 57 67  1  0
 58 64  1  0
 58 60  1  0
 59 65  1  0
 60 61  2  0
 60 59  1  0
 62 56  2  0
 63 62  1  0
 63 58  2  0
 64 57  1  0
 65 55  1  0
 67 69  2  0
 68 67  1  0
 70 68  1  0
 71 80  2  0
 71 76  1  0
 72 68  1  0
 72 76  1  0
 73 72  1  0
 74 75  1  0
 74 73  1  0
 75 71  1  0
 76 77  2  0
 77 78  1  0
 79 78  2  0
 80 79  1  0
 81 55  1  0
 81 86  1  0
 81 82  1  0
 82 85  1  1
 82 83  1  0
 84 82  1  0
 86 89  1  0
 87 91  1  0
 87 86  1  0
 88 87  2  0
 91 90  1  0
 93 91  1  0
 93 94  1  0
 93 92  1  0
M  ISO  4  14 100  22 100  53 101  54 101
M  END
>  <TORSDO>  (30) 
F 19

>  <SCORE>  (30) 
-13.482

>  <name>  (30) 
29

>  <ligand_id>  (30) 
29

>  <original_smiles>  (30) 
[H]C1=C2N(c3c([H])c([H])c(N([H])C(=O)N4C([H])([H])C([H])([H])C([H])([H])C([H])(n5nc(-c6c([H])c([H])c(Oc7c([H])c([H])c(F)c([H])c7F)c([H])c6[H])c(C(=O)N([H])[H])c5N([H])[H])C4([H])[H])c([H])c3[H])C(=O)C2(C([H])([H])C([H])([H])Oc2c([H])c([H])c3c(c2[H])C([H])([H])N(C(=O)C([H])(N([H])C(=O)C([H])(N([H])C([H])([H])[H])C([H])([H])[H])C(C([H])([H])[H])(C([H])([H])[H])C([H])([H])[H])C([H])(C(=O)N([H])C2([H])c4c([H])c([H])c([H])c([H])c4C([H])([H])C([H])([H])C2([H])[H])C3([H])[H])C1([H])[H]

>  <smiles>  (30) 
[H]C1=C2N(c3c([H])c([H])c(N([H])C(=O)N4C([H])([H])C([H])([H])C([H])([H])C([H])(n5nc(-c6c([H])c([H])c(Oc7c([H])c([H])c(F)c([H])c7F)c([H])c6[H])c(C(=O)N([H])[H])c5N([H])[H])C4([H])[H])c([H])c3[H])C(=O)C2(C([H])([H])C([H])([H])Oc2c([H])c([H])c3c(c2[H])C([H])([H])N(C(=O)C([H])(N([H])C(=O)C([H])(N([H])C([H])([H])[H])C([H])([H])[H])C(C([H])([H])[H])(C([H])([H])[H])C([H])([H])[H])C([H])(C(=O)N([H])C2([H])c4c([H])c([H])c([H])c([H])c4C([H])([H])C([H])([H])C2([H])[H])C3([H])[H])C1([H])[H]

$$$$
30:0:0
     RDKit          3D

 93102  0  0  1  0  0  0  0  0999 V2000
  -28.3280  -23.6910   20.7630 C   0  0  0  0  0  0  0  0  0  0  0  0
  -29.1400  -22.7640   19.8940 C   0  0  0  0  0  0  0  0  0  0  0  0
  -28.0370  -25.0730   20.8240 C   0  0  0  0  0  3  0  0  0  0  0  0
  -27.6990  -22.7920   21.7980 C   0  0  0  0  0  3  0  0  0  0  0  0
  -28.2220  -21.3730   21.5270 C   0  0  0  0  0  3  0  0  0  0  0  0
  -29.0440  -21.4150   20.3180 N   0  0  0  0  0  0  0  0  0  0  0  0
  -29.8180  -23.1410   18.9330 O   0  0  0  0  0  0  0  0  0  0  0  0
  -30.5920  -18.9210   17.8240 C   0  0  0  0  0  3  0  0  0  0  0  0
  -30.1170  -20.0990   18.4380 C   0  0  0  0  0  3  0  0  0  0  0  0
  -30.5810  -17.6700   18.4730 C   0  0  0  0  0  3  0  0  0  0  0  0
  -29.5860  -20.1030   19.7490 C   0  0  0  0  0  0  0  0  0  0  0  0
  -30.1100  -17.5140   19.7970 C   0  0  0  0  0  0  0  0  0  0  0  0
  -29.5920  -18.7720   20.4010 C   0  0  0  0  0  0  0  0  0  0  0  0
  -29.0730  -18.7020   21.6490 F   0  0  0  0  0  0  0  0  0  0  0  0
  -30.7970  -14.9520   19.9180 C   0  0  0  0  0  0  0  0  0  0  0  0
  -30.5240  -12.6780   18.8530 C   0  0  0  0  0  2  0  0  0  0  0  0
  -29.5040  -12.7290   17.6940 C   0  0  0  0  0  2  0  0  0  0  0  0
  -28.0700  -12.5210   18.2180 C   0  0  0  0  0  2  0  0  0  0  0  0
  -27.7720  -13.3870   19.4700 C   0  0  0  0  0  3  0  0  0  0  0  0
  -28.9030  -13.2960   20.5110 C   0  0  0  0  0  2  0  0  0  0  0  0
  -30.1460  -13.7220   19.8480 N   0  0  0  0  0  0  0  0  0  0  0  0
  -31.9260  -15.0250   19.4170 O   0  0  0  0  0  0  0  0  0  0  0  0
  -29.9260  -16.0750   21.8710 C   0  0  0  0  0  1  0  0  0  0  0  0
  -30.1690  -16.1190   20.4240 N   0  0  0  0  0  0  0  0  0  0  0  0
  -25.4530  -13.9530   20.3960 C   0  0  0  0  0  0  0  0  0  0  0  0
  -24.4140  -13.1690   20.8180 C   0  0  0  0  0  0  0  0  0  0  0  0
  -24.8680  -11.8190   20.7130 C   0  0  0  0  0  0  0  0  0  0  0  0
  -26.4700  -13.0800   20.0510 N   0  0  0  0  0  0  0  0  0  0  0  0
  -26.1330  -11.7880   20.3060 N   0  0  0  0  0  0  0  0  0  0  0  0
  -24.1520  -10.5530   20.9160 C   0  0  0  0  0  0  0  0  0  0  0  0
  -24.6120   -9.5820   21.8340 C   0  0  0  0  0  3  0  0  0  0  0  0
  -23.8950   -8.3830   22.0280 C   0  0  0  0  0  3  0  0  0  0  0  0
  -22.7040   -8.1430   21.3030 C   0  0  0  0  0  0  0  0  0  0  0  0
  -22.2620   -9.1020   20.3740 C   0  0  0  0  0  3  0  0  0  0  0  0
  -22.9800  -10.2930   20.1790 C   0  0  0  0  0  3  0  0  0  0  0  0
  -21.9550   -6.9960   21.4060 O   0  0  0  0  0  0  0  0  0  0  0  0
  -21.8880   -6.2830   22.5770 C   0  0  0  0  0  0  0  0  0  0  0  0
  -21.4500   -6.8710   23.7830 C   0  0  0  0  0  3  0  0  0  0  0  0
  -21.3290   -6.0850   24.9460 C   0  0  0  0  0  3  0  0  0  0  0  0
  -21.6360   -4.7120   24.9050 C   0  0  0  0  0  0  0  0  0  0  0  0
  -22.0660   -4.1240   23.7030 C   0  0  0  0  0  3  0  0  0  0  0  0
  -22.1890   -4.9060   22.5410 C   0  0  0  0  0  0  0  0  0  0  0  0
  -22.5830   -4.3300   21.3800 F   0  0  0  0  0  0  0  0  0  0  0  0
  -21.5130   -3.9550   26.0190 F   0  0  0  0  0  0  0  0  0  0  0  0
  -23.0430  -13.6410   21.2070 C   0  0  0  0  0  0  0  0  0  0  0  0
  -22.3840  -12.9280   22.1140 N   0  0  0  0  0  0  0  0  0  0  0  0
  -22.5670  -14.6760   20.7420 O   0  0  0  0  0  0  0  0  0  0  0  0
  -22.7830  -12.0910   22.5110 H   0  0  0  0  0  0  0  0  0  0  0  0
  -21.4680  -13.2250   22.4170 H   0  0  0  0  0  0  0  0  0  0  0  0
  -25.6110  -15.3290   20.2530 N   0  0  0  0  0  0  0  0  0  0  0  0
  -24.8660  -15.9870   20.4530 H   0  0  0  0  0  0  0  0  0  0  0  0
  -26.4520  -15.7750   19.9090 H   0  0  0  0  0  0  0  0  0  0  0  0
  -28.3480  -26.3100   20.1630 O   0  0  0  0  0  0  0  0  0  0  0  0
  -24.7460  -31.9130   23.2360 C   0  0  0  0  0  0  0  0  0  0  0  0
  -27.3160  -27.2950   20.1380 C   0  0  0  0  0  0  0  0  0  0  0  0
  -23.5300  -30.5180   21.6070 C   0  0  0  0  0  3  0  0  0  0  0  0
  -24.9690  -28.9700   20.1520 C   0  0  0  0  0  0  0  0  0  0  0  0
  -26.0740  -30.8200   21.4010 C   0  0  0  0  0  2  0  0  0  0  0  0
  -26.1510  -29.4370   20.7440 C   0  0  0  0  0  0  0  0  0  0  0  0
  -27.3300  -28.6120   20.7280 C   0  0  0  0  0  3  0  0  0  0  0  0
  -26.1140  -26.9110   19.5110 C   0  0  0  0  0  3  0  0  0  0  0  0
  -24.9570  -27.7160   19.5230 C   0  0  0  0  0  3  0  0  0  0  0  0
  -23.7330  -29.8490   20.2220 C   0  0  0  0  0  2  0  0  0  0  0  0
  -24.8040  -31.1030   22.1360 N   0  0  0  0  0  0  0  0  0  0  0  0
  -23.6670  -32.1870   23.7840 O   0  0  0  0  0  0  0  0  0  0  0  0
  -22.8750  -29.5000   22.5730 C   0  0  0  0  0  0  0  0  0  0  0  0
  -21.5480  -29.3160   22.4590 N   0  0  0  0  0  0  0  0  0  0  0  0
  -23.5620  -28.8770   23.3870 O   0  0  0  0  0  0  0  0  0  0  0  0
  -21.0500  -29.8710   21.7760 H   0  0  0  0  0  0  0  0  0  0  0  0
  -18.1880  -28.0630   22.9650 C   0  0  0  0  0  0  0  0  0  0  0  0
  -20.7420  -28.3730   23.2370 C   0  0  0  0  0  3  0  0  0  0  0  0
  -20.8690  -26.9360   22.6780 C   0  0  0  0  0  2  0  0  0  0  0  0
  -19.7760  -26.5850   21.6630 C   0  0  0  0  0  2  0  0  0  0  0  0
  -18.3900  -26.7110   22.3000 C   0  0  0  0  0  2  0  0  0  0  0  0
  -19.2920  -28.8490   23.3900 C   0  0  0  0  0  0  0  0  0  0  0  0
  -19.0480  -30.1130   23.9710 C   0  0  0  0  0  3  0  0  0  0  0  0
  -17.7340  -30.5900   24.1320 C   0  0  0  0  0  3  0  0  0  0  0  0
  -16.6450  -29.8020   23.7220 C   0  0  0  0  0  3  0  0  0  0  0  0
  -16.8730  -28.5400   23.1450 C   0  0  0  0  0  3  0  0  0  0  0  0
  -26.0320  -32.5500   23.8460 C   0  0  0  0  0  3  0  0  0  0  0  0
  -25.7210  -33.9480   24.1830 N   0  0  0  0  0  0  0  0  0  0  0  0
  -26.0480  -35.0060   23.4290 C   0  0  0  0  0  0  0  0  0  0  0  0
  -26.7120  -34.9090   22.3930 O   0  0  0  0  0  0  0  0  0  0  0  0
  -25.1320  -34.0970   24.9880 H   0  0  0  0  0  0  0  0  0  0  0  0
  -24.3180  -36.8030   23.0970 C   0  0  0  0  0  1  0  0  0  0  0  0
  -25.5650  -36.3930   23.8990 C   0  0  0  0  0  3  0  0  0  0  0  0
  -27.7070  -37.2700   24.7190 C   0  0  0  0  0  1  0  0  0  0  0  0
  -26.5960  -37.4470   23.7860 N   0  0  0  0  0  0  0  0  0  0  0  0
  -26.1920  -38.3650   23.9470 H   0  0  0  0  0  0  0  0  0  0  0  0
  -26.5620  -31.7820   25.1190 C   0  0  1  0  0  0  0  0  0  0  0  0
  -25.4780  -31.5460   26.1980 C   0  0  0  0  0  1  0  0  0  0  0  0
  -27.1420  -30.4040   24.7260 C   0  0  0  0  0  1  0  0  0  0  0  0
  -27.7180  -32.5780   25.7670 C   0  0  0  0  0  1  0  0  0  0  0  0
  1  3  2  0
  1  4  1  0
  2  6  1  0
  2  1  1  0
  5  4  2  0
  6  5  1  0
  7  2  2  0
  8  9  2  0
  8 10  1  0
  9 11  1  0
 10 12  2  0
 11  6  1  0
 11 13  2  0
 12 13  1  0
 12 24  1  0
 13 14  1  0
 15 24  1  0
 16 21  1  0
 17 18  1  0
 17 16  1  0
 19 18  1  0
 19 28  1  0
 19 20  1  0
 21 15  1  0
 21 20  1  0
 22 15  2  0
 24 23  1  0
 25 26  2  0
 26 45  1  0
 27 26  1  0
 27 30  1  0
 28 29  1  0
 28 25  1  0
 29 27  2  0
 30 31  1  0
 31 32  2  0
 33 36  1  0
 33 32  1  0
 34 33  2  0
 35 34  1  0
 35 30  2  0
 36 37  1  0
 37 38  1  0
 38 39  2  0
 40 39  1  0
 40 44  1  0
 41 40  2  0
 42 37  2  0
 42 41  1  0
 43 42  1  0
 45 46  1  0
 46 49  1  0
 46 48  1  0
 47 45  2  0
 50 25  1  0
 50 51  1  0
 52 50  1  0
 53  3  1  0
 54 65  2  0
 55 53  1  0
 55 60  1  0
 56 64  1  0
 56 66  1  0
 57 63  1  0
 57 59  1  0
 58 64  1  0
 59 58  1  0
 60 59  2  0
 61 62  1  0
 61 55  2  0
 62 57  2  0
 63 56  1  0
 64 54  1  0
 66 68  2  0
 67 66  1  0
 69 67  1  0
 70 79  2  0
 70 75  1  0
 71 67  1  0
 71 75  1  0
 72 71  1  0
 73 74  1  0
 73 72  1  0
 74 70  1  0
 75 76  2  0
 76 77  1  0
 78 77  2  0
 79 78  1  0
 80 54  1  0
 80 81  1  0
 80 90  1  0
 81 84  1  0
 82 86  1  0
 82 81  1  0
 83 82  2  0
 86 85  1  0
 88 86  1  0
 88 89  1  0
 88 87  1  0
 90 93  1  1
 90 91  1  0
 92 90  1  0
M  ISO  4   3 101  15 100  24 100  53 101
M  END
>  <TORSDO>  (31) 
F 17

>  <SCORE>  (31) 
-14.122

>  <name>  (31) 
30

>  <ligand_id>  (31) 
30

>  <original_smiles>  (31) 
[H]C(Oc1c([H])c([H])c2c(c1[H])C([H])([H])N(C(=O)C([H])(N([H])C(=O)C([H])(N([H])C([H])([H])[H])C([H])([H])[H])C(C([H])([H])[H])(C([H])([H])[H])C([H])([H])[H])C([H])(C(=O)N([H])C1([H])c3c([H])c([H])c([H])c([H])c3C([H])([H])C([H])([H])C1([H])[H])C2([H])[H])=C1C(=O)N(c2c([H])c([H])c([H])c(N(C(=O)N3C([H])([H])C([H])([H])C([H])([H])C([H])(n4nc(-c5c([H])c([H])c(Oc6c([H])c([H])c(F)c([H])c6F)c([H])c5[H])c(C(=O)N([H])[H])c4N([H])[H])C3([H])[H])C([H])([H])[H])c2F)C([H])([H])C1([H])[H]

>  <smiles>  (31) 
[H]C(Oc1c([H])c([H])c2c(c1[H])C([H])([H])N(C(=O)C([H])(N([H])C(=O)C([H])(N([H])C([H])([H])[H])C([H])([H])[H])C(C([H])([H])[H])(C([H])([H])[H])C([H])([H])[H])C([H])(C(=O)N([H])C1([H])c3c([H])c([H])c([H])c([H])c3C([H])([H])C([H])([H])C1([H])[H])C2([H])[H])=C1C(=O)N(c2c([H])c([H])c([H])c(N(C(=O)N3C([H])([H])C([H])([H])C([H])([H])C([H])(n4nc(-c5c([H])c([H])c(Oc6c([H])c([H])c(F)c([H])c6F)c([H])c5[H])c(C(=O)N([H])[H])c4N([H])[H])C3([H])[H])C([H])([H])[H])c2F)C([H])([H])C1([H])[H]

$$$$
31:0:0
     RDKit          3D

 94103  0  0  1  0  0  0  0  0999 V2000
  -27.9980  -23.1180   18.8730 C   0  0  0  0  0  0  0  0  0  0  0  0
  -28.5200  -23.5760   20.0190 C   0  0  0  0  0  0  0  0  0  0  0  0
  -28.3230  -21.7040   18.6940 C   0  0  0  0  0  0  0  0  0  0  0  0
  -29.2370  -22.3840   20.5770 C   0  0  0  0  0  0  0  0  0  0  0  0
  -27.1000  -23.8610   17.9000 C   0  0  0  0  0  1  0  0  0  0  0  0
  -29.0590  -21.2880   19.7500 N   0  0  0  0  0  0  0  0  0  0  0  0
  -27.9670  -20.9850   17.7520 O   0  0  0  0  0  0  0  0  0  0  0  0
  -29.8780  -22.3470   21.6340 O   0  0  0  0  0  0  0  0  0  0  0  0
  -31.7800  -18.9640   18.5650 C   0  0  0  0  0  3  0  0  0  0  0  0
  -31.0260  -20.1000   18.9010 C   0  0  0  0  0  3  0  0  0  0  0  0
  -31.4220  -17.6780   19.0100 C   0  0  0  0  0  3  0  0  0  0  0  0
  -29.5130  -18.6560   20.1440 C   0  0  0  0  0  3  0  0  0  0  0  0
  -29.8470  -20.0070   19.6710 C   0  0  0  0  0  0  0  0  0  0  0  0
  -30.3080  -17.4420   19.8560 C   0  0  0  0  0  0  0  0  0  0  0  0
  -30.6960  -14.8220   20.0430 C   0  0  0  0  0  0  0  0  0  0  0  0
  -30.4010  -12.5820   18.9320 C   0  0  0  0  0  2  0  0  0  0  0  0
  -29.3840  -12.6640   17.7720 C   0  0  0  0  0  2  0  0  0  0  0  0
  -27.9410  -12.4750   18.2840 C   0  0  0  0  0  2  0  0  0  0  0  0
  -27.6530  -13.3120   19.5580 C   0  0  0  0  0  3  0  0  0  0  0  0
  -28.7790  -13.1470   20.5930 C   0  0  0  0  0  2  0  0  0  0  0  0
  -30.0210  -13.6070   19.9440 N   0  0  0  0  0  0  0  0  0  0  0  0
  -31.8630  -14.8270   19.6360 O   0  0  0  0  0  0  0  0  0  0  0  0
  -29.2840  -16.0460   21.6460 C   0  0  0  0  0  1  0  0  0  0  0  0
  -30.0460  -16.0430   20.3910 N   0  0  0  0  0  0  0  0  0  0  0  0
  -25.3190  -13.8900   20.4430 C   0  0  0  0  0  0  0  0  0  0  0  0
  -24.2770  -13.1100   20.8610 C   0  0  0  0  0  0  0  0  0  0  0  0
  -24.7340  -11.7590   20.7770 C   0  0  0  0  0  0  0  0  0  0  0  0
  -26.3430  -13.0140   20.1240 N   0  0  0  0  0  0  0  0  0  0  0  0
  -26.0030  -11.7260   20.3880 N   0  0  0  0  0  0  0  0  0  0  0  0
  -24.0170  -10.4960   20.9870 C   0  0  0  0  0  0  0  0  0  0  0  0
  -24.4830   -9.5230   21.9000 C   0  0  0  0  0  3  0  0  0  0  0  0
  -23.7650   -8.3240   22.0960 C   0  0  0  0  0  3  0  0  0  0  0  0
  -22.5680   -8.0870   21.3800 C   0  0  0  0  0  0  0  0  0  0  0  0
  -22.1210   -9.0480   20.4550 C   0  0  0  0  0  3  0  0  0  0  0  0
  -22.8390  -10.2390   20.2570 C   0  0  0  0  0  3  0  0  0  0  0  0
  -21.8190   -6.9400   21.4870 O   0  0  0  0  0  0  0  0  0  0  0  0
  -21.7810   -6.2110   22.6480 C   0  0  0  0  0  0  0  0  0  0  0  0
  -21.3670   -6.7810   23.8720 C   0  0  0  0  0  3  0  0  0  0  0  0
  -21.2760   -5.9790   25.0280 C   0  0  0  0  0  3  0  0  0  0  0  0
  -21.5900   -4.6070   24.9590 C   0  0  0  0  0  0  0  0  0  0  0  0
  -21.9960   -4.0370   23.7400 C   0  0  0  0  0  3  0  0  0  0  0  0
  -22.0880   -4.8370   22.5880 C   0  0  0  0  0  0  0  0  0  0  0  0
  -22.4600   -4.2780   21.4100 F   0  0  0  0  0  0  0  0  0  0  0  0
  -21.4940   -3.8350   26.0660 F   0  0  0  0  0  0  0  0  0  0  0  0
  -22.9000  -13.5840   21.2260 C   0  0  0  0  0  0  0  0  0  0  0  0
  -22.2250  -12.8740   22.1240 N   0  0  0  0  0  0  0  0  0  0  0  0
  -22.4320  -14.6180   20.7500 O   0  0  0  0  0  0  0  0  0  0  0  0
  -22.6170  -12.0360   22.5270 H   0  0  0  0  0  0  0  0  0  0  0  0
  -21.3040  -13.1730   22.4110 H   0  0  0  0  0  0  0  0  0  0  0  0
  -25.4750  -15.2630   20.2800 N   0  0  0  0  0  0  0  0  0  0  0  0
  -24.7190  -15.9190   20.4420 H   0  0  0  0  0  0  0  0  0  0  0  0
  -26.3070  -15.7030   19.9050 H   0  0  0  0  0  0  0  0  0  0  0  0
  -28.2120  -24.9710   20.7650 C   0  0  0  0  0  2  0  0  0  0  0  0
  -28.3820  -26.3450   20.1540 O   0  0  0  0  0  0  0  0  0  0  0  0
  -24.6010  -31.8170   23.1980 C   0  0  0  0  0  0  0  0  0  0  0  0
  -27.2840  -27.2420   20.1660 C   0  0  0  0  0  0  0  0  0  0  0  0
  -23.4350  -30.4180   21.5360 C   0  0  0  0  0  3  0  0  0  0  0  0
  -24.9180  -28.8780   20.1270 C   0  0  0  0  0  0  0  0  0  0  0  0
  -25.9800  -30.7460   21.3870 C   0  0  0  0  0  2  0  0  0  0  0  0
  -26.0820  -29.3650   20.7360 C   0  0  0  0  0  0  0  0  0  0  0  0
  -27.2750  -28.5660   20.7320 C   0  0  0  0  0  3  0  0  0  0  0  0
  -26.0880  -26.8180   19.5550 C   0  0  0  0  0  3  0  0  0  0  0  0
  -24.9270  -27.6120   19.5250 C   0  0  0  0  0  3  0  0  0  0  0  0
  -23.6780  -29.7520   20.1570 C   0  0  0  0  0  2  0  0  0  0  0  0
  -24.6910  -31.0120   22.0990 N   0  0  0  0  0  0  0  0  0  0  0  0
  -23.5070  -32.0810   23.7170 O   0  0  0  0  0  0  0  0  0  0  0  0
  -22.7630  -29.3930   22.4810 C   0  0  0  0  0  0  0  0  0  0  0  0
  -21.4390  -29.2080   22.3370 N   0  0  0  0  0  0  0  0  0  0  0  0
  -23.4340  -28.7640   23.3050 O   0  0  0  0  0  0  0  0  0  0  0  0
  -20.9550  -29.7690   21.6500 H   0  0  0  0  0  0  0  0  0  0  0  0
  -18.0660  -27.9690   22.7820 C   0  0  0  0  0  0  0  0  0  0  0  0
  -20.6180  -28.2580   23.0900 C   0  0  0  0  0  3  0  0  0  0  0  0
  -20.7450  -26.8290   22.5110 C   0  0  0  0  0  2  0  0  0  0  0  0
  -19.6610  -26.4970   21.4800 C   0  0  0  0  0  2  0  0  0  0  0  0
  -18.2690  -26.6240   22.1030 C   0  0  0  0  0  2  0  0  0  0  0  0
  -19.1690  -28.7430   23.2310 C   0  0  0  0  0  0  0  0  0  0  0  0
  -18.9280  -30.0000   23.8250 C   0  0  0  0  0  3  0  0  0  0  0  0
  -17.6150  -30.4860   23.9740 C   0  0  0  0  0  3  0  0  0  0  0  0
  -16.5260  -29.7110   23.5390 C   0  0  0  0  0  3  0  0  0  0  0  0
  -16.7530  -28.4540   22.9490 C   0  0  0  0  0  3  0  0  0  0  0  0
  -25.8670  -32.4600   23.8440 C   0  0  0  0  0  3  0  0  0  0  0  0
  -25.5390  -33.8550   24.1750 N   0  0  0  0  0  0  0  0  0  0  0  0
  -25.8650  -34.9120   23.4220 C   0  0  0  0  0  0  0  0  0  0  0  0
  -26.5410  -34.8190   22.3940 O   0  0  0  0  0  0  0  0  0  0  0  0
  -24.9480  -34.0010   24.9790 H   0  0  0  0  0  0  0  0  0  0  0  0
  -24.1180  -36.6870   23.0650 C   0  0  0  0  0  1  0  0  0  0  0  0
  -25.3600  -36.2960   23.8800 C   0  0  0  0  0  3  0  0  0  0  0  0
  -27.4830  -37.2030   24.7190 C   0  0  0  0  0  1  0  0  0  0  0  0
  -26.3820  -37.3610   23.7730 N   0  0  0  0  0  0  0  0  0  0  0  0
  -25.9640  -38.2760   23.9220 H   0  0  0  0  0  0  0  0  0  0  0  0
  -26.3670  -31.6900   25.1290 C   0  0  1  0  0  0  0  0  0  0  0  0
  -25.2580  -31.4450   26.1790 C   0  0  0  0  0  1  0  0  0  0  0  0
  -26.9670  -30.3170   24.7450 C   0  0  0  0  0  1  0  0  0  0  0  0
  -27.4990  -32.4940   25.8110 C   0  0  0  0  0  1  0  0  0  0  0  0
  1  2  2  0
  2  4  1  0
  2 53  1  0
  3  1  1  0
  3  6  1  0
  4  8  2  0
  5  1  1  0
  6  4  1  0
  7  3  2  0
  9 10  2  0
  9 11  1  0
 10 13  1  0
 11 14  2  0
 13  6  1  0
 13 12  2  0
 14 12  1  0
 14 24  1  0
 15 24  1  0
 16 21  1  0
 17 18  1  0
 17 16  1  0
 19 18  1  0
 19 28  1  0
 19 20  1  0
 21 15  1  0
 21 20  1  0
 22 15  2  0
 24 23  1  0
 25 26  2  0
 26 45  1  0
 27 26  1  0
 27 30  1  0
 28 29  1  0
 28 25  1  0
 29 27  2  0
 30 31  1  0
 31 32  2  0
 33 36  1  0
 33 32  1  0
 34 33  2  0
 35 34  1  0
 35 30  2  0
 36 37  1  0
 37 38  1  0
 38 39  2  0
 40 39  1  0
 40 44  1  0
 41 40  2  0
 42 37  2  0
 42 41  1  0
 43 42  1  0
 45 46  1  0
 46 49  1  0
 46 48  1  0
 47 45  2  0
 50 51  1  0
 50 25  1  0
 52 50  1  0
 54 56  1  0
 54 53  1  0
 55 66  2  0
 56 61  1  0
 57 65  1  0
 57 67  1  0
 58 64  1  0
 58 60  1  0
 59 65  1  0
 60 59  1  0
 61 60  2  0
 62 56  2  0
 63 62  1  0
 63 58  2  0
 64 57  1  0
 65 55  1  0
 67 69  2  0
 68 67  1  0
 70 68  1  0
 71 80  2  0
 71 76  1  0
 72 68  1  0
 72 76  1  0
 73 72  1  0
 74 75  1  0
 74 73  1  0
 75 71  1  0
 76 77  2  0
 77 78  1  0
 79 78  2  0
 80 79  1  0
 81 55  1  0
 81 82  1  0
 81 91  1  0
 82 85  1  0
 83 87  1  0
 83 82  1  0
 84 83  2  0
 87 86  1  0
 89 87  1  0
 89 90  1  0
 89 88  1  0
 91 94  1  1
 91 92  1  0
 93 91  1  0
M  ISO  4  15 100  24 100  53 101  54 101
M  END
>  <TORSDO>  (32) 
F 18

>  <SCORE>  (32) 
-14.388

>  <name>  (32) 
31

>  <ligand_id>  (32) 
31

>  <original_smiles>  (32) 
[H]c1c([H])c(N2C(=O)C(C([H])([H])[H])=C(C([H])([H])Oc3c([H])c([H])c4c(c3[H])C([H])([H])N(C(=O)C([H])(N([H])C(=O)C([H])(N([H])C([H])([H])[H])C([H])([H])[H])C(C([H])([H])[H])(C([H])([H])[H])C([H])([H])[H])C([H])(C(=O)N([H])C3([H])c5c([H])c([H])c([H])c([H])c5C([H])([H])C([H])([H])C3([H])[H])C4([H])[H])C2=O)c([H])c(N(C(=O)N2C([H])([H])C([H])([H])C([H])([H])C([H])(n3nc(-c4c([H])c([H])c(Oc5c([H])c([H])c(F)c([H])c5F)c([H])c4[H])c(C(=O)N([H])[H])c3N([H])[H])C2([H])[H])C([H])([H])[H])c1[H]

>  <smiles>  (32) 
[H]c1c([H])c(N2C(=O)C(C([H])([H])[H])=C(C([H])([H])Oc3c([H])c([H])c4c(c3[H])C([H])([H])N(C(=O)C([H])(N([H])C(=O)C([H])(N([H])C([H])([H])[H])C([H])([H])[H])C(C([H])([H])[H])(C([H])([H])[H])C([H])([H])[H])C([H])(C(=O)N([H])C3([H])c5c([H])c([H])c([H])c([H])c5C([H])([H])C([H])([H])C3([H])[H])C4([H])[H])C2=O)c([H])c(N(C(=O)N2C([H])([H])C([H])([H])C([H])([H])C([H])(n3nc(-c4c([H])c([H])c(Oc5c([H])c([H])c(F)c([H])c5F)c([H])c4[H])c(C(=O)N([H])[H])c3N([H])[H])C2([H])[H])C([H])([H])[H])c1[H]

$$$$
32:0:0
     RDKit          3D

 94103  0  0  1  0  0  0  0  0999 V2000
  -28.9430  -23.7310   21.7820 C   0  0  0  0  0  3  0  0  0  0  0  0
  -28.9590  -22.5710   19.8920 C   0  0  0  0  0  3  0  0  0  0  0  0
  -28.7610  -23.8700   20.3710 C   0  0  0  0  0  0  0  0  0  0  0  0
  -29.2070  -22.4100   22.0720 C   0  0  0  0  0  0  0  0  0  0  0  0
  -29.2410  -21.6360   20.9140 N   0  0  0  0  0  0  0  0  0  0  0  0
  -28.7590  -19.3950   19.8720 C   0  0  0  0  0  3  0  0  0  0  0  0
  -30.4580  -19.4670   21.5570 C   0  0  0  0  0  3  0  0  0  0  0  0
  -29.0080  -18.0030   19.7030 C   0  0  0  0  0  3  0  0  0  0  0  0
  -30.7150  -18.0630   21.3890 C   0  0  0  0  0  3  0  0  0  0  0  0
  -29.4900  -20.1860   20.7900 C   0  0  0  0  0  0  0  0  0  0  0  0
  -30.0210  -17.2820   20.4220 C   0  0  0  0  0  0  0  0  0  0  0  0
  -30.9600  -14.8590   20.7820 C   0  0  0  0  0  0  0  0  0  0  0  0
  -30.8440  -12.5190   19.9440 C   0  0  0  0  0  2  0  0  0  0  0  0
  -29.9990  -12.4520   18.6500 C   0  0  0  0  0  2  0  0  0  0  0  0
  -28.4860  -12.4160   18.9460 C   0  0  0  0  0  2  0  0  0  0  0  0
  -28.0310  -13.3630   20.0910 C   0  0  0  0  0  3  0  0  0  0  0  0
  -29.0020  -13.3330   21.2880 C   0  0  0  0  0  2  0  0  0  0  0  0
  -30.3340  -13.6360   20.7620 N   0  0  0  0  0  0  0  0  0  0  0  0
  -32.1900  -14.9190   20.8760 O   0  0  0  0  0  0  0  0  0  0  0  0
  -30.3090  -15.8640   20.0700 N   0  0  0  0  0  0  0  0  0  0  0  0
  -25.5990  -13.9980   20.6120 C   0  0  0  0  0  0  0  0  0  0  0  0
  -24.4950  -13.2400   20.8980 C   0  0  0  0  0  0  0  0  0  0  0  0
  -24.9470  -11.8850   20.9390 C   0  0  0  0  0  0  0  0  0  0  0  0
  -26.6510  -13.1050   20.4890 N   0  0  0  0  0  0  0  0  0  0  0  0
  -26.2590  -11.8320   20.7540 N   0  0  0  0  0  0  0  0  0  0  0  0
  -24.1960  -10.6330   21.0870 C   0  0  0  0  0  0  0  0  0  0  0  0
  -24.5570   -9.6630   22.0470 C   0  0  0  0  0  3  0  0  0  0  0  0
  -23.8080   -8.4740   22.1830 C   0  0  0  0  0  3  0  0  0  0  0  0
  -22.6830   -8.2480   21.3570 C   0  0  0  0  0  0  0  0  0  0  0  0
  -22.3390   -9.2060   20.3870 C   0  0  0  0  0  3  0  0  0  0  0  0
  -23.0890  -10.3860   20.2500 C   0  0  0  0  0  3  0  0  0  0  0  0
  -21.9100   -7.1100   21.4020 O   0  0  0  0  0  0  0  0  0  0  0  0
  -21.7660   -6.3850   22.5570 C   0  0  0  0  0  0  0  0  0  0  0  0
  -21.1970   -6.9430   23.7220 C   0  0  0  0  0  3  0  0  0  0  0  0
  -21.0010   -6.1400   24.8640 C   0  0  0  0  0  3  0  0  0  0  0  0
  -21.3670   -4.7810   24.8420 C   0  0  0  0  0  0  0  0  0  0  0  0
  -21.9260   -4.2220   23.6810 C   0  0  0  0  0  3  0  0  0  0  0  0
  -22.1220   -5.0200   22.5390 C   0  0  0  0  0  0  0  0  0  0  0  0
  -22.6430   -4.4700   21.4170 F   0  0  0  0  0  0  0  0  0  0  0  0
  -21.1730   -4.0080   25.9350 F   0  0  0  0  0  0  0  0  0  0  0  0
  -23.0840  -13.7330   21.0310 C   0  0  0  0  0  0  0  0  0  0  0  0
  -22.2880  -13.0810   21.8690 N   0  0  0  0  0  0  0  0  0  0  0  0
  -22.6940  -14.7330   20.4270 O   0  0  0  0  0  0  0  0  0  0  0  0
  -22.6160  -12.2690   22.3710 H   0  0  0  0  0  0  0  0  0  0  0  0
  -21.3380  -13.3970   22.0090 H   0  0  0  0  0  0  0  0  0  0  0  0
  -25.7920  -15.3640   20.4200 N   0  0  0  0  0  0  0  0  0  0  0  0
  -25.0310  -16.0310   20.4640 H   0  0  0  0  0  0  0  0  0  0  0  0
  -26.6820  -15.7920   20.1970 H   0  0  0  0  0  0  0  0  0  0  0  0
  -31.5090  -15.8570   17.9410 C   0  0  0  0  0  2  0  0  0  0  0  0
  -30.3870  -15.7030   18.6740 C   0  0  0  0  0  3  0  0  0  0  0  0
  -29.3980  -21.8450   23.2940 O   0  0  0  0  0  0  0  0  0  0  0  0
  -29.2270  -22.5050   23.9570 H   0  0  0  0  0  0  0  0  0  0  0  0
  -28.4170  -25.1560   19.5210 C   0  0  0  0  0  2  0  0  0  0  0  0
  -28.3470  -26.5170   20.1240 O   0  0  0  0  0  0  0  0  0  0  0  0
  -24.5600  -31.8180   23.2240 C   0  0  0  0  0  0  0  0  0  0  0  0
  -27.2140  -27.3530   20.0460 C   0  0  0  0  0  0  0  0  0  0  0  0
  -23.3760  -30.4760   21.5210 C   0  0  0  0  0  3  0  0  0  0  0  0
  -24.8450  -28.9810   20.0560 C   0  0  0  0  0  0  0  0  0  0  0  0
  -25.9180  -30.8040   21.3780 C   0  0  0  0  0  2  0  0  0  0  0  0
  -26.0050  -29.4460   20.6850 C   0  0  0  0  0  0  0  0  0  0  0  0
  -27.1860  -28.6420   20.6740 C   0  0  0  0  0  3  0  0  0  0  0  0
  -26.0200  -26.9420   19.4070 C   0  0  0  0  0  3  0  0  0  0  0  0
  -24.8560  -27.7370   19.4080 C   0  0  0  0  0  3  0  0  0  0  0  0
  -23.6090  -29.8550   20.1190 C   0  0  0  0  0  2  0  0  0  0  0  0
  -24.6360  -31.0480   22.0990 N   0  0  0  0  0  0  0  0  0  0  0  0
  -23.4680  -32.0730   23.7550 O   0  0  0  0  0  0  0  0  0  0  0  0
  -22.7070  -29.4220   22.4380 C   0  0  0  0  0  0  0  0  0  0  0  0
  -21.3780  -29.2720   22.3200 N   0  0  0  0  0  0  0  0  0  0  0  0
  -23.3840  -28.7450   23.2140 O   0  0  0  0  0  0  0  0  0  0  0  0
  -20.8890  -29.8750   21.6720 H   0  0  0  0  0  0  0  0  0  0  0  0
  -17.9830  -28.1270   22.8220 C   0  0  0  0  0  0  0  0  0  0  0  0
  -20.5510  -28.3120   23.0560 C   0  0  0  0  0  3  0  0  0  0  0  0
  -20.6090  -26.9120   22.4020 C   0  0  0  0  0  2  0  0  0  0  0  0
  -19.4790  -26.6690   21.3940 C   0  0  0  0  0  2  0  0  0  0  0  0
  -18.1130  -26.8120   22.0710 C   0  0  0  0  0  2  0  0  0  0  0  0
  -19.1270  -28.8370   23.2730 C   0  0  0  0  0  0  0  0  0  0  0  0
  -18.9490  -30.0690   23.9380 C   0  0  0  0  0  3  0  0  0  0  0  0
  -17.6590  -30.5910   24.1530 C   0  0  0  0  0  3  0  0  0  0  0  0
  -16.5300  -29.8750   23.7200 C   0  0  0  0  0  3  0  0  0  0  0  0
  -16.6920  -28.6450   23.0600 C   0  0  0  0  0  3  0  0  0  0  0  0
  -25.8340  -32.4310   23.8820 C   0  0  0  0  0  3  0  0  0  0  0  0
  -26.3260  -31.6310   25.1490 C   0  0  1  0  0  0  0  0  0  0  0  0
  -25.2160  -31.3890   26.2000 C   0  0  0  0  0  1  0  0  0  0  0  0
  -26.8950  -30.2540   24.7380 C   0  0  0  0  0  1  0  0  0  0  0  0
  -27.4800  -32.3970   25.8400 C   0  0  0  0  0  1  0  0  0  0  0  0
  -25.5260  -33.8230   24.2370 N   0  0  0  0  0  0  0  0  0  0  0  0
  -25.8890  -34.8900   23.5130 C   0  0  0  0  0  0  0  0  0  0  0  0
  -26.5870  -34.8060   22.5000 O   0  0  0  0  0  0  0  0  0  0  0  0
  -24.9170  -33.9680   25.0280 H   0  0  0  0  0  0  0  0  0  0  0  0
  -24.1890  -36.7080   23.1540 C   0  0  0  0  0  1  0  0  0  0  0  0
  -25.4000  -36.2690   23.9920 C   0  0  0  0  0  3  0  0  0  0  0  0
  -27.5040  -37.1220   24.9240 C   0  0  0  0  0  1  0  0  0  0  0  0
  -26.4430  -37.3170   23.9410 N   0  0  0  0  0  0  0  0  0  0  0  0
  -26.0360  -38.2360   24.0910 H   0  0  0  0  0  0  0  0  0  0  0  0
  1  4  2  0
  2  3  2  0
  2  5  1  0
  3  1  1  0
  4 51  1  0
  5  4  1  0
  6 10  1  0
  8  6  2  0
  8 11  1  0
  9  7  1  0
 10  5  1  0
 10  7  2  0
 11  9  2  0
 12 19  2  0
 13 18  1  0
 14 15  1  0
 14 13  1  0
 16 15  1  0
 16 24  1  0
 16 17  1  0
 18 12  1  0
 18 17  1  0
 20 11  1  0
 20 12  1  0
 21 22  2  0
 22 23  1  0
 22 41  1  0
 23 26  1  0
 24 21  1  0
 24 25  1  0
 25 23  2  0
 26 27  1  0
 27 28  2  0
 29 32  1  0
 29 28  1  0
 30 29  2  0
 31 30  1  0
 31 26  2  0
 32 33  1  0
 33 34  1  0
 34 35  2  0
 36 35  1  0
 36 40  1  0
 37 36  2  0
 38 33  2  0
 38 37  1  0
 39 38  1  0
 41 42  1  0
 42 45  1  0
 42 44  1  0
 43 41  2  0
 46 47  1  0
 46 21  1  0
 48 46  1  0
 49 50  2  0
 50 20  1  0
 51 52  1  0
 53 54  1  0
 53  3  1  0
 55 66  2  0
 56 54  1  0
 56 61  1  0
 57 65  1  0
 57 67  1  0
 58 64  1  0
 58 60  1  0
 59 65  1  0
 60 59  1  0
 61 60  2  0
 62 63  1  0
 62 56  2  0
 63 58  2  0
 64 57  1  0
 65 55  1  0
 67 69  2  0
 68 67  1  0
 70 68  1  0
 71 80  2  0
 71 76  1  0
 72 68  1  0
 72 76  1  0
 73 72  1  0
 74 75  1  0
 74 73  1  0
 75 71  1  0
 76 77  2  0
 77 78  1  0
 79 78  2  0
 80 79  1  0
 81 55  1  0
 81 86  1  0
 81 82  1  0
 82 85  1  1
 82 83  1  0
 84 82  1  0
 86 89  1  0
 87 91  1  0
 87 86  1  0
 88 87  2  0
 91 90  1  0
 93 91  1  0
 93 94  1  0
 93 92  1  0
M  ISO  4  12 100  20 100  53 101  54 101
M  END
>  <TORSDO>  (33) 
F 20

>  <SCORE>  (33) 
-14.070

>  <name>  (33) 
32

>  <ligand_id>  (33) 
32

>  <original_smiles>  (33) 
[H]Oc1c([H])c(C([H])([H])Oc2c([H])c([H])c3c(c2[H])C([H])([H])N(C(=O)C([H])(N([H])C(=O)C([H])(N([H])C([H])([H])[H])C([H])([H])[H])C(C([H])([H])[H])(C([H])([H])[H])C([H])([H])[H])C([H])(C(=O)N([H])C2([H])c4c([H])c([H])c([H])c([H])c4C([H])([H])C([H])([H])C2([H])[H])C3([H])[H])c([H])n1-c1c([H])c([H])c(N(C(=O)N2C([H])([H])C([H])([H])C([H])([H])C([H])(n3nc(-c4c([H])c([H])c(Oc5c([H])c([H])c(F)c([H])c5F)c([H])c4[H])c(C(=O)N([H])[H])c3N([H])[H])C2([H])[H])C([H])=C([H])[H])c([H])c1[H]

>  <smiles>  (33) 
[H]Oc1c([H])c(C([H])([H])Oc2c([H])c([H])c3c(c2[H])C([H])([H])N(C(=O)C([H])(N([H])C(=O)C([H])(N([H])C([H])([H])[H])C([H])([H])[H])C(C([H])([H])[H])(C([H])([H])[H])C([H])([H])[H])C([H])(C(=O)N([H])C2([H])c4c([H])c([H])c([H])c([H])c4C([H])([H])C([H])([H])C2([H])[H])C3([H])[H])c([H])n1-c1c([H])c([H])c(N(C(=O)N2C([H])([H])C([H])([H])C([H])([H])C([H])(n3nc(-c4c([H])c([H])c(Oc5c([H])c([H])c(F)c([H])c5F)c([H])c4[H])c(C(=O)N([H])[H])c3N([H])[H])C2([H])[H])C([H])=C([H])[H])c([H])c1[H]

$$$$
33:0:0
     RDKit          3D

 96105  0  0  1  0  0  0  0  0999 V2000
  -31.1110  -20.3090   19.5630 C   0  0  0  0  0  3  0  0  0  0  0  0
  -31.5550  -17.8890   19.5340 C   0  0  0  0  0  3  0  0  0  0  0  0
  -29.8270  -20.1490   20.1350 C   0  0  0  0  0  0  0  0  0  0  0  0
  -31.9470  -19.2160   19.2670 C   0  0  0  0  0  0  0  0  0  0  0  0
  -30.3050  -17.5680   20.1180 C   0  0  0  0  0  0  0  0  0  0  0  0
  -29.4540  -18.7390   20.4040 C   0  0  0  0  0  0  0  0  0  0  0  0
  -28.2410  -18.4830   20.9490 F   0  0  0  0  0  0  0  0  0  0  0  0
  -30.6570  -14.9100   20.1490 C   0  0  0  0  0  0  0  0  0  0  0  0
  -30.4120  -12.6220   19.1440 C   0  0  0  0  0  2  0  0  0  0  0  0
  -29.4570  -12.6800   17.9320 C   0  0  0  0  0  2  0  0  0  0  0  0
  -27.9980  -12.4950   18.3890 C   0  0  0  0  0  2  0  0  0  0  0  0
  -27.6410  -13.3780   19.6140 C   0  0  0  0  0  3  0  0  0  0  0  0
  -28.7220  -13.3220   20.7150 C   0  0  0  0  0  2  0  0  0  0  0  0
  -29.9980  -13.6920   20.0900 N   0  0  0  0  0  0  0  0  0  0  0  0
  -31.8510  -14.9170   19.8460 O   0  0  0  0  0  0  0  0  0  0  0  0
  -29.9450  -16.1100   20.3580 N   0  0  0  0  0  0  0  0  0  0  0  0
  -28.9920  -15.9700   20.6550 H   0  0  0  0  0  0  0  0  0  0  0  0
  -25.2630  -13.9460   20.3750 C   0  0  0  0  0  0  0  0  0  0  0  0
  -24.2100  -13.1660   20.7650 C   0  0  0  0  0  0  0  0  0  0  0  0
  -24.6850  -11.8190   20.7430 C   0  0  0  0  0  0  0  0  0  0  0  0
  -26.3110  -13.0750   20.1320 N   0  0  0  0  0  0  0  0  0  0  0  0
  -25.9730  -11.7910   20.4190 N   0  0  0  0  0  0  0  0  0  0  0  0
  -23.9710  -10.5520   20.9530 C   0  0  0  0  0  0  0  0  0  0  0  0
  -24.4130   -9.6020   21.9010 C   0  0  0  0  0  3  0  0  0  0  0  0
  -23.6970   -8.4020   22.0990 C   0  0  0  0  0  3  0  0  0  0  0  0
  -22.5240   -8.1430   21.3500 C   0  0  0  0  0  0  0  0  0  0  0  0
  -22.1020   -9.0810   20.3910 C   0  0  0  0  0  3  0  0  0  0  0  0
  -22.8190  -10.2730   20.1920 C   0  0  0  0  0  3  0  0  0  0  0  0
  -21.7800   -6.9930   21.4560 O   0  0  0  0  0  0  0  0  0  0  0  0
  -21.7340   -6.2700   22.6220 C   0  0  0  0  0  0  0  0  0  0  0  0
  -21.2890   -6.8390   23.8340 C   0  0  0  0  0  3  0  0  0  0  0  0
  -21.1920   -6.0420   24.9930 C   0  0  0  0  0  3  0  0  0  0  0  0
  -21.5300   -4.6770   24.9380 C   0  0  0  0  0  0  0  0  0  0  0  0
  -21.9680   -4.1070   23.7300 C   0  0  0  0  0  3  0  0  0  0  0  0
  -22.0670   -4.9020   22.5740 C   0  0  0  0  0  0  0  0  0  0  0  0
  -22.4690   -4.3420   21.4080 F   0  0  0  0  0  0  0  0  0  0  0  0
  -21.4300   -3.9090   26.0490 F   0  0  0  0  0  0  0  0  0  0  0  0
  -22.8110  -13.6340   21.0470 C   0  0  0  0  0  0  0  0  0  0  0  0
  -22.0990  -12.9410   21.9270 N   0  0  0  0  0  0  0  0  0  0  0  0
  -22.3600  -14.6510   20.5220 O   0  0  0  0  0  0  0  0  0  0  0  0
  -22.4770  -12.1180   22.3730 H   0  0  0  0  0  0  0  0  0  0  0  0
  -21.1610  -13.2370   22.1590 H   0  0  0  0  0  0  0  0  0  0  0  0
  -25.4120  -15.3160   20.1810 N   0  0  0  0  0  0  0  0  0  0  0  0
  -24.6400  -15.9640   20.2990 H   0  0  0  0  0  0  0  0  0  0  0  0
  -26.2480  -15.7620   19.8280 H   0  0  0  0  0  0  0  0  0  0  0  0
  -28.1860  -23.6590   20.7280 C   0  0  0  0  0  0  0  0  0  0  0  0
  -29.1700  -22.7580   20.0360 C   0  0  0  0  0  0  0  0  0  0  0  0
  -27.8620  -25.0340   20.7280 C   0  0  0  0  0  3  0  0  0  0  0  0
  -27.3870  -22.7430   21.6230 C   0  0  0  0  0  3  0  0  0  0  0  0
  -27.8810  -21.3130   21.3450 C   0  0  0  0  0  3  0  0  0  0  0  0
  -29.0230  -21.4090   20.4400 N   0  0  0  0  0  0  0  0  0  0  0  0
  -29.9890  -23.1520   19.2020 O   0  0  0  0  0  0  0  0  0  0  0  0
  -28.2520  -26.2780   20.1150 O   0  0  0  0  0  0  0  0  0  0  0  0
  -24.6200  -31.8550   23.1730 C   0  0  0  0  0  0  0  0  0  0  0  0
  -27.2340  -27.2770   20.0570 C   0  0  0  0  0  0  0  0  0  0  0  0
  -23.4270  -30.4780   21.5100 C   0  0  0  0  0  3  0  0  0  0  0  0
  -24.8890  -28.9540   20.0540 C   0  0  0  0  0  0  0  0  0  0  0  0
  -25.9740  -30.7850   21.3450 C   0  0  0  0  0  2  0  0  0  0  0  0
  -26.0610  -29.4110   20.6720 C   0  0  0  0  0  0  0  0  0  0  0  0
  -27.2400  -28.5850   20.6660 C   0  0  0  0  0  3  0  0  0  0  0  0
  -26.0440  -26.9100   19.3940 C   0  0  0  0  0  3  0  0  0  0  0  0
  -24.8880  -27.7130   19.4010 C   0  0  0  0  0  3  0  0  0  0  0  0
  -23.6500  -29.8300   20.1190 C   0  0  0  0  0  2  0  0  0  0  0  0
  -24.6930  -31.0580   22.0650 N   0  0  0  0  0  0  0  0  0  0  0  0
  -23.5330  -32.1210   23.7080 O   0  0  0  0  0  0  0  0  0  0  0  0
  -22.7610  -29.4470   22.4540 C   0  0  0  0  0  0  0  0  0  0  0  0
  -21.4310  -29.2850   22.3410 N   0  0  0  0  0  0  0  0  0  0  0  0
  -23.4410  -28.7960   23.2510 O   0  0  0  0  0  0  0  0  0  0  0  0
  -20.9390  -29.8630   21.6730 H   0  0  0  0  0  0  0  0  0  0  0  0
  -18.0440  -28.1260   22.8870 C   0  0  0  0  0  0  0  0  0  0  0  0
  -20.6130  -28.3360   23.0990 C   0  0  0  0  0  3  0  0  0  0  0  0
  -20.6760  -26.9230   22.4740 C   0  0  0  0  0  2  0  0  0  0  0  0
  -19.5430  -26.6530   21.4780 C   0  0  0  0  0  2  0  0  0  0  0  0
  -18.1800  -26.7990   22.1600 C   0  0  0  0  0  2  0  0  0  0  0  0
  -19.1850  -28.8550   23.3140 C   0  0  0  0  0  0  0  0  0  0  0  0
  -19.0020  -30.0990   23.9560 C   0  0  0  0  0  3  0  0  0  0  0  0
  -17.7100  -30.6140   24.1730 C   0  0  0  0  0  3  0  0  0  0  0  0
  -16.5830  -29.8820   23.7610 C   0  0  0  0  0  3  0  0  0  0  0  0
  -16.7510  -28.6400   23.1240 C   0  0  0  0  0  3  0  0  0  0  0  0
  -25.8960  -32.4860   23.8090 C   0  0  0  0  0  3  0  0  0  0  0  0
  -25.5800  -33.8800   24.1560 N   0  0  0  0  0  0  0  0  0  0  0  0
  -25.8960  -34.9450   23.4080 C   0  0  0  0  0  0  0  0  0  0  0  0
  -26.5540  -34.8580   22.3670 O   0  0  0  0  0  0  0  0  0  0  0  0
  -24.9950  -34.0210   24.9670 H   0  0  0  0  0  0  0  0  0  0  0  0
  -24.1550  -36.7350   23.0950 C   0  0  0  0  0  1  0  0  0  0  0  0
  -25.4070  -36.3260   23.8880 C   0  0  0  0  0  3  0  0  0  0  0  0
  -27.5430  -37.2130   24.7120 C   0  0  0  0  0  1  0  0  0  0  0  0
  -26.4330  -37.3850   23.7790 N   0  0  0  0  0  0  0  0  0  0  0  0
  -26.0230  -38.3010   23.9410 H   0  0  0  0  0  0  0  0  0  0  0  0
  -26.4080  -31.7030   25.0790 C   0  0  1  0  0  0  0  0  0  0  0  0
  -25.3120  -31.4510   26.1400 C   0  0  0  0  0  1  0  0  0  0  0  0
  -26.9980  -30.3320   24.6780 C   0  0  0  0  0  1  0  0  0  0  0  0
  -27.5530  -32.4940   25.7550 C   0  0  0  0  0  1  0  0  0  0  0  0
  -33.2000  -19.4570   18.7040 N   0  0  0  0  0  0  0  0  0  0  0  0
  -33.3960  -20.3610   18.2850 H   0  0  0  0  0  0  0  0  0  0  0  0
  -33.7100  -18.6940   18.2680 H   0  0  0  0  0  0  0  0  0  0  0  0
  1  3  1  0
  2  5  2  0
  3  6  2  0
  3 51  1  0
  4  2  1  0
  4  1  2  0
  5 16  1  0
  5  6  1  0
  6  7  1  0
  8 16  1  0
  9 14  1  0
 10 11  1  0
 10  9  1  0
 12 11  1  0
 12 21  1  0
 12 13  1  0
 14  8  1  0
 14 13  1  0
 15  8  2  0
 16 17  1  0
 18 19  2  0
 19 38  1  0
 20 19  1  0
 20 23  1  0
 21 18  1  0
 21 22  1  0
 22 20  2  0
 23 24  1  0
 24 25  2  0
 26 29  1  0
 26 25  1  0
 27 26  2  0
 28 27  1  0
 28 23  2  0
 29 30  1  0
 30 31  1  0
 31 32  2  0
 33 32  1  0
 33 37  1  0
 34 33  2  0
 35 30  2  0
 35 34  1  0
 36 35  1  0
 38 39  1  0
 39 42  1  0
 39 41  1  0
 40 38  2  0
 43 44  1  0
 43 18  1  0
 45 43  1  0
 46 48  2  0
 46 49  1  0
 47 51  1  0
 47 46  1  0
 50 49  2  0
 51 50  1  0
 52 47  2  0
 53 48  1  0
 54 65  2  0
 55 53  1  0
 55 60  1  0
 56 64  1  0
 56 66  1  0
 57 63  1  0
 57 59  1  0
 58 64  1  0
 59 58  1  0
 60 59  2  0
 61 62  1  0
 61 55  2  0
 62 57  2  0
 63 56  1  0
 64 54  1  0
 66 68  2  0
 67 66  1  0
 69 67  1  0
 70 79  2  0
 70 75  1  0
 71 67  1  0
 71 75  1  0
 72 71  1  0
 73 74  1  0
 73 72  1  0
 74 70  1  0
 75 76  2  0
 76 77  1  0
 78 77  2  0
 79 78  1  0
 80 54  1  0
 80 81  1  0
 80 90  1  0
 81 84  1  0
 82 86  1  0
 82 81  1  0
 83 82  2  0
 86 85  1  0
 88 86  1  0
 88 89  1  0
 88 87  1  0
 90 93  1  1
 90 91  1  0
 92 90  1  0
 94  4  1  0
 95 94  1  0
 96 94  1  0
M  ISO  4   8 100  16 100  48 101  53 101
M  END
>  <TORSDO>  (34) 
F 18

>  <SCORE>  (34) 
-14.762

>  <name>  (34) 
33

>  <ligand_id>  (34) 
33

>  <original_smiles>  (34) 
[H]C(Oc1c([H])c([H])c2c(c1[H])C([H])([H])N(C(=O)C([H])(N([H])C(=O)C([H])(N([H])C([H])([H])[H])C([H])([H])[H])C(C([H])([H])[H])(C([H])([H])[H])C([H])([H])[H])C([H])(C(=O)N([H])C1([H])c3c([H])c([H])c([H])c([H])c3C([H])([H])C([H])([H])C1([H])[H])C2([H])[H])=C1C(=O)N(c2c([H])c(N([H])[H])c([H])c(N([H])C(=O)N3C([H])([H])C([H])([H])C([H])([H])C([H])(n4nc(-c5c([H])c([H])c(Oc6c([H])c([H])c(F)c([H])c6F)c([H])c5[H])c(C(=O)N([H])[H])c4N([H])[H])C3([H])[H])c2F)C([H])([H])C1([H])[H]

>  <smiles>  (34) 
[H]C(Oc1c([H])c([H])c2c(c1[H])C([H])([H])N(C(=O)C([H])(N([H])C(=O)C([H])(N([H])C([H])([H])[H])C([H])([H])[H])C(C([H])([H])[H])(C([H])([H])[H])C([H])([H])[H])C([H])(C(=O)N([H])C1([H])c3c([H])c([H])c([H])c([H])c3C([H])([H])C([H])([H])C1([H])[H])C2([H])[H])=C1C(=O)N(c2c([H])c(N([H])[H])c([H])c(N([H])C(=O)N3C([H])([H])C([H])([H])C([H])([H])C([H])(n4nc(-c5c([H])c([H])c(Oc6c([H])c([H])c(F)c([H])c6F)c([H])c5[H])c(C(=O)N([H])[H])c4N([H])[H])C3([H])[H])c2F)C([H])([H])C1([H])[H]

$$$$
34:0:0
     RDKit          3D

 93101  0  0  1  0  0  0  0  0999 V2000
  -29.9670  -21.2930   19.4160 C   0  0  0  0  0  0  0  0  0  0  0  0
  -29.2070  -23.5610   19.9640 C   0  0  0  0  0  0  0  0  0  0  0  0
  -29.3690  -22.2260   20.1980 N   0  0  0  0  0  0  0  0  0  0  0  0
  -30.5400  -21.5580   18.3510 O   0  0  0  0  0  0  0  0  0  0  0  0
  -29.5330  -24.1310   18.9160 O   0  0  0  0  0  0  0  0  0  0  0  0
  -29.0180  -21.8810   21.0770 H   0  0  0  0  0  0  0  0  0  0  0  0
  -31.1270  -19.0360   19.5980 C   0  0  0  0  0  3  0  0  0  0  0  0
  -28.8870  -19.2000   20.4880 C   0  0  0  0  0  3  0  0  0  0  0  0
  -31.1500  -17.6470   19.8690 C   0  0  0  0  0  3  0  0  0  0  0  0
  -28.9080  -17.8040   20.7590 C   0  0  0  0  0  3  0  0  0  0  0  0
  -29.9970  -19.8400   19.8820 C   0  0  0  0  0  0  0  0  0  0  0  0
  -30.0250  -16.9920   20.4320 C   0  0  0  0  0  0  0  0  0  0  0  0
  -30.6500  -14.5410   20.1220 C   0  0  0  0  0  0  0  0  0  0  0  0
  -30.3060  -12.3910   18.9560 C   0  0  0  0  0  2  0  0  0  0  0  0
  -29.3060  -12.6270   17.8030 C   0  0  0  0  0  2  0  0  0  0  0  0
  -27.8550  -12.4790   18.3020 C   0  0  0  0  0  2  0  0  0  0  0  0
  -27.5840  -13.2830   19.6020 C   0  0  0  0  0  3  0  0  0  0  0  0
  -28.6930  -13.0290   20.6490 C   0  0  0  0  0  2  0  0  0  0  0  0
  -29.9860  -13.3520   20.0250 N   0  0  0  0  0  0  0  0  0  0  0  0
  -31.7740  -14.6960   19.6380 O   0  0  0  0  0  0  0  0  0  0  0  0
  -29.9350  -15.5650   20.6570 N   0  0  0  0  0  0  0  0  0  0  0  0
  -29.0800  -15.2590   21.0960 H   0  0  0  0  0  0  0  0  0  0  0  0
  -25.2260  -13.8840   20.4390 C   0  0  0  0  0  0  0  0  0  0  0  0
  -24.1730  -13.1090   20.8430 C   0  0  0  0  0  0  0  0  0  0  0  0
  -24.6270  -11.7560   20.7650 C   0  0  0  0  0  0  0  0  0  0  0  0
  -26.2550  -13.0040   20.1400 N   0  0  0  0  0  0  0  0  0  0  0  0
  -25.9010  -11.7180   20.3950 N   0  0  0  0  0  0  0  0  0  0  0  0
  -23.9060  -10.4930   20.9670 C   0  0  0  0  0  0  0  0  0  0  0  0
  -24.3520   -9.5260   21.8950 C   0  0  0  0  0  3  0  0  0  0  0  0
  -23.6300   -8.3280   22.0830 C   0  0  0  0  0  3  0  0  0  0  0  0
  -22.4480   -8.0880   21.3420 C   0  0  0  0  0  0  0  0  0  0  0  0
  -22.0220   -9.0430   20.4020 C   0  0  0  0  0  3  0  0  0  0  0  0
  -22.7450  -10.2320   20.2120 C   0  0  0  0  0  3  0  0  0  0  0  0
  -21.6970   -6.9410   21.4400 O   0  0  0  0  0  0  0  0  0  0  0  0
  -21.6390   -6.2170   22.6040 C   0  0  0  0  0  0  0  0  0  0  0  0
  -21.1550   -6.7780   23.8080 C   0  0  0  0  0  3  0  0  0  0  0  0
  -21.0460   -5.9770   24.9620 C   0  0  0  0  0  3  0  0  0  0  0  0
  -21.4110   -4.6170   24.9150 C   0  0  0  0  0  0  0  0  0  0  0  0
  -21.8870   -4.0580   23.7160 C   0  0  0  0  0  3  0  0  0  0  0  0
  -21.9980   -4.8550   22.5640 C   0  0  0  0  0  0  0  0  0  0  0  0
  -22.4370   -4.3050   21.4070 F   0  0  0  0  0  0  0  0  0  0  0  0
  -21.2980   -3.8460   26.0210 F   0  0  0  0  0  0  0  0  0  0  0  0
  -22.7930  -13.5850   21.1880 C   0  0  0  0  0  0  0  0  0  0  0  0
  -22.0950  -12.8660   22.0600 N   0  0  0  0  0  0  0  0  0  0  0  0
  -22.3420  -14.6320   20.7230 O   0  0  0  0  0  0  0  0  0  0  0  0
  -22.4700  -12.0180   22.4570 H   0  0  0  0  0  0  0  0  0  0  0  0
  -21.1700  -13.1680   22.3340 H   0  0  0  0  0  0  0  0  0  0  0  0
  -25.3920  -15.2570   20.2820 N   0  0  0  0  0  0  0  0  0  0  0  0
  -24.6390  -15.9150   20.4520 H   0  0  0  0  0  0  0  0  0  0  0  0
  -26.2310  -15.6980   19.9270 H   0  0  0  0  0  0  0  0  0  0  0  0
  -28.6020  -24.2530   21.1020 C   0  0  0  0  0  3  0  0  0  0  0  0
  -28.2670  -25.5720   21.1910 C   0  0  0  0  0  3  0  0  0  0  0  0
  -28.3940  -26.5880   20.2570 O   0  0  0  0  0  0  0  0  0  0  0  0
  -24.5590  -31.8610   23.2030 C   0  0  0  0  0  0  0  0  0  0  0  0
  -27.2870  -27.4130   20.1830 C   0  0  0  0  0  0  0  0  0  0  0  0
  -23.3970  -30.4530   21.5370 C   0  0  0  0  0  3  0  0  0  0  0  0
  -24.8920  -28.9240   20.1380 C   0  0  0  0  0  0  0  0  0  0  0  0
  -25.9260  -30.8230   21.3920 C   0  0  0  0  0  2  0  0  0  0  0  0
  -26.0370  -29.4500   20.7520 C   0  0  0  0  0  0  0  0  0  0  0  0
  -27.2420  -28.7020   20.7740 C   0  0  0  0  0  3  0  0  0  0  0  0
  -26.1300  -26.9120   19.5560 C   0  0  0  0  0  3  0  0  0  0  0  0
  -24.9350  -27.6540   19.5350 C   0  0  0  0  0  3  0  0  0  0  0  0
  -23.6410  -29.7750   20.1610 C   0  0  0  0  0  2  0  0  0  0  0  0
  -24.6450  -31.0600   22.1030 N   0  0  0  0  0  0  0  0  0  0  0  0
  -23.4650  -32.1270   23.7200 O   0  0  0  0  0  0  0  0  0  0  0  0
  -22.7310  -29.4290   22.4850 C   0  0  0  0  0  0  0  0  0  0  0  0
  -21.4040  -29.2590   22.3510 N   0  0  0  0  0  0  0  0  0  0  0  0
  -23.4050  -28.7890   23.2970 O   0  0  0  0  0  0  0  0  0  0  0  0
  -20.9220  -29.8290   21.6710 H   0  0  0  0  0  0  0  0  0  0  0  0
  -18.0100  -28.1240   22.8610 C   0  0  0  0  0  0  0  0  0  0  0  0
  -20.5760  -28.3190   23.1090 C   0  0  0  0  0  3  0  0  0  0  0  0
  -20.6390  -26.9010   22.4950 C   0  0  0  0  0  2  0  0  0  0  0  0
  -19.5190  -26.6300   21.4880 C   0  0  0  0  0  2  0  0  0  0  0  0
  -18.1470  -26.7880   22.1510 C   0  0  0  0  0  2  0  0  0  0  0  0
  -19.1500  -28.8500   23.2970 C   0  0  0  0  0  0  0  0  0  0  0  0
  -18.9670  -30.1030   23.9210 C   0  0  0  0  0  3  0  0  0  0  0  0
  -17.6760  -30.6300   24.1160 C   0  0  0  0  0  3  0  0  0  0  0  0
  -16.5500  -29.8990   23.6980 C   0  0  0  0  0  3  0  0  0  0  0  0
  -16.7180  -28.6490   23.0760 C   0  0  0  0  0  3  0  0  0  0  0  0
  -25.8280  -32.5020   23.8490 C   0  0  0  0  0  3  0  0  0  0  0  0
  -25.5040  -33.8970   24.1730 N   0  0  0  0  0  0  0  0  0  0  0  0
  -25.8390  -34.9530   23.4160 C   0  0  0  0  0  0  0  0  0  0  0  0
  -26.5250  -34.8530   22.3950 O   0  0  0  0  0  0  0  0  0  0  0  0
  -24.8990  -34.0480   24.9660 H   0  0  0  0  0  0  0  0  0  0  0  0
  -24.1070  -36.7330   23.0250 C   0  0  0  0  0  1  0  0  0  0  0  0
  -25.3310  -36.3360   23.8630 C   0  0  0  0  0  3  0  0  0  0  0  0
  -27.4370  -37.2390   24.7470 C   0  0  0  0  0  1  0  0  0  0  0  0
  -26.3580  -37.3980   23.7750 N   0  0  0  0  0  0  0  0  0  0  0  0
  -25.9410  -38.3150   23.9100 H   0  0  0  0  0  0  0  0  0  0  0  0
  -26.3260  -31.7320   25.1330 C   0  0  1  0  0  0  0  0  0  0  0  0
  -25.2150  -31.4810   26.1810 C   0  0  0  0  0  1  0  0  0  0  0  0
  -26.9280  -30.3610   24.7480 C   0  0  0  0  0  1  0  0  0  0  0  0
  -27.4550  -32.5360   25.8190 C   0  0  0  0  0  1  0  0  0  0  0  0
  1 11  1  0
  1  3  1  0
  2  3  1  0
  2 51  1  0
  3  6  1  0
  4  1  2  0
  5  2  2  0
  7  9  2  0
  7 11  1  0
  8 10  1  0
  9 12  1  0
 11  8  2  0
 12 21  1  0
 12 10  2  0
 13 21  1  0
 14 19  1  0
 15 16  1  0
 15 14  1  0
 17 16  1  0
 17 26  1  0
 17 18  1  0
 19 13  1  0
 19 18  1  0
 20 13  2  0
 21 22  1  0
 23 24  2  0
 24 43  1  0
 25 24  1  0
 25 28  1  0
 26 27  1  0
 26 23  1  0
 27 25  2  0
 28 29  1  0
 29 30  2  0
 31 34  1  0
 31 30  1  0
 32 31  2  0
 33 32  1  0
 33 28  2  0
 34 35  1  0
 35 36  1  0
 36 37  2  0
 38 37  1  0
 38 42  1  0
 39 38  2  0
 40 35  2  0
 40 39  1  0
 41 40  1  0
 43 44  1  0
 44 47  1  0
 44 46  1  0
 45 43  2  0
 48 23  1  0
 48 49  1  0
 50 48  1  0
 51 52  2  0
 53 52  1  0
 54 65  2  0
 55 53  1  0
 55 60  1  0
 56 64  1  0
 56 66  1  0
 57 63  1  0
 57 59  1  0
 58 64  1  0
 59 60  2  0
 59 58  1  0
 61 55  2  0
 62 61  1  0
 62 57  2  0
 63 56  1  0
 64 54  1  0
 66 68  2  0
 67 66  1  0
 69 67  1  0
 70 79  2  0
 70 75  1  0
 71 67  1  0
 71 75  1  0
 72 71  1  0
 73 74  1  0
 73 72  1  0
 74 70  1  0
 75 76  2  0
 76 77  1  0
 78 77  2  0
 79 78  1  0
 80 54  1  0
 80 81  1  0
 80 90  1  0
 81 84  1  0
 82 86  1  0
 82 81  1  0
 83 82  2  0
 86 85  1  0
 88 86  1  0
 88 89  1  0
 88 87  1  0
 90 93  1  1
 90 91  1  0
 92 90  1  0
M  ISO  4  13 100  21 100  52 101  53 101
M  END
>  <TORSDO>  (35) 
F 18

>  <SCORE>  (35) 
-14.706

>  <name>  (35) 
34

>  <ligand_id>  (35) 
34

>  <original_smiles>  (35) 
[H]C(Oc1c([H])c([H])c2c(c1[H])C([H])([H])N(C(=O)C([H])(N([H])C(=O)C([H])(N([H])C([H])([H])[H])C([H])([H])[H])C(C([H])([H])[H])(C([H])([H])[H])C([H])([H])[H])C([H])(C(=O)N([H])C1([H])c3c([H])c([H])c([H])c([H])c3C([H])([H])C([H])([H])C1([H])[H])C2([H])[H])=C([H])C(=O)N([H])C(=O)c1c([H])c([H])c(N([H])C(=O)N2C([H])([H])C([H])([H])C([H])([H])C([H])(n3nc(-c4c([H])c([H])c(Oc5c([H])c([H])c(F)c([H])c5F)c([H])c4[H])c(C(=O)N([H])[H])c3N([H])[H])C2([H])[H])c([H])c1[H]

>  <smiles>  (35) 
[H]C(Oc1c([H])c([H])c2c(c1[H])C([H])([H])N(C(=O)C([H])(N([H])C(=O)C([H])(N([H])C([H])([H])[H])C([H])([H])[H])C(C([H])([H])[H])(C([H])([H])[H])C([H])([H])[H])C([H])(C(=O)N([H])C1([H])c3c([H])c([H])c([H])c([H])c3C([H])([H])C([H])([H])C1([H])[H])C2([H])[H])=C([H])C(=O)N([H])C(=O)c1c([H])c([H])c(N([H])C(=O)N2C([H])([H])C([H])([H])C([H])([H])C([H])(n3nc(-c4c([H])c([H])c(Oc5c([H])c([H])c(F)c([H])c5F)c([H])c4[H])c(C(=O)N([H])[H])c3N([H])[H])C2([H])[H])c([H])c1[H]

$$$$
35:0:0
     RDKit          3D

 90 98  0  0  1  0  0  0  0  0999 V2000
  -29.4240  -21.4650   19.9170 C   0  0  0  0  0  3  0  0  0  0  0  0
  -30.8780  -21.7130   19.5630 C   0  0  0  0  0  1  0  0  0  0  0  0
  -28.5870  -22.5320   19.9920 N   0  0  0  0  0  2  0  0  0  0  0  0
  -29.9340  -18.7400   20.5580 C   0  0  0  0  0  3  0  0  0  0  0  0
  -28.3310  -19.3090   18.9910 C   0  0  0  0  0  3  0  0  0  0  0  0
  -29.1960  -19.8690   19.9010 C   0  0  0  0  0  0  0  0  0  0  0  0
  -29.6710  -17.3910   20.1420 C   0  0  0  0  0  0  0  0  0  0  0  0
  -28.4570  -17.5390   18.8820 S   0  0  0  0  0  0  0  0  0  0  0  0
  -30.6520  -14.9800   20.0040 C   0  0  0  0  0  0  0  0  0  0  0  0
  -30.4090  -12.6900   18.9590 C   0  0  0  0  0  2  0  0  0  0  0  0
  -29.4020  -12.7370   17.7880 C   0  0  0  0  0  2  0  0  0  0  0  0
  -27.9750  -12.4950   18.3080 C   0  0  0  0  0  2  0  0  0  0  0  0
  -27.6530  -13.3710   19.5490 C   0  0  0  0  0  3  0  0  0  0  0  0
  -28.7750  -13.3220   20.6070 C   0  0  0  0  0  2  0  0  0  0  0  0
  -30.0170  -13.7410   19.9430 N   0  0  0  0  0  0  0  0  0  0  0  0
  -31.7720  -15.0640   19.4880 O   0  0  0  0  0  0  0  0  0  0  0  0
  -30.4750  -16.1650   22.0660 C   0  0  0  0  0  1  0  0  0  0  0  0
  -30.0900  -16.1150   20.6530 N   0  0  0  0  0  0  0  0  0  0  0  0
  -25.3230  -13.9170   20.4510 C   0  0  0  0  0  0  0  0  0  0  0  0
  -24.2840  -13.1280   20.8630 C   0  0  0  0  0  0  0  0  0  0  0  0
  -24.7480  -11.7800   20.7630 C   0  0  0  0  0  0  0  0  0  0  0  0
  -26.3500  -13.0510   20.1190 N   0  0  0  0  0  0  0  0  0  0  0  0
  -26.0170  -11.7570   20.3690 N   0  0  0  0  0  0  0  0  0  0  0  0
  -24.0330  -10.5110   20.9580 C   0  0  0  0  0  0  0  0  0  0  0  0
  -24.4790   -9.5490   21.8910 C   0  0  0  0  0  3  0  0  0  0  0  0
  -23.7640   -8.3460   22.0760 C   0  0  0  0  0  3  0  0  0  0  0  0
  -22.5880   -8.0980   21.3300 C   0  0  0  0  0  0  0  0  0  0  0  0
  -22.1600   -9.0490   20.3860 C   0  0  0  0  0  3  0  0  0  0  0  0
  -22.8780  -10.2420   20.1990 C   0  0  0  0  0  3  0  0  0  0  0  0
  -21.8450   -6.9450   21.4260 O   0  0  0  0  0  0  0  0  0  0  0  0
  -21.7550   -6.2410   22.6010 C   0  0  0  0  0  0  0  0  0  0  0  0
  -21.2370   -6.8190   23.7800 C   0  0  0  0  0  3  0  0  0  0  0  0
  -21.0950   -6.0380   24.9450 C   0  0  0  0  0  3  0  0  0  0  0  0
  -21.4640   -4.6790   24.9320 C   0  0  0  0  0  0  0  0  0  0  0  0
  -21.9790   -4.1020   23.7580 C   0  0  0  0  0  3  0  0  0  0  0  0
  -22.1220   -4.8800   22.5950 C   0  0  0  0  0  0  0  0  0  0  0  0
  -22.5970   -4.3110   21.4620 F   0  0  0  0  0  0  0  0  0  0  0  0
  -21.3230   -3.9280   26.0480 F   0  0  0  0  0  0  0  0  0  0  0  0
  -22.9070  -13.5960   21.2330 C   0  0  0  0  0  0  0  0  0  0  0  0
  -22.2320  -12.8740   22.1220 N   0  0  0  0  0  0  0  0  0  0  0  0
  -22.4390  -14.6360   20.7710 O   0  0  0  0  0  0  0  0  0  0  0  0
  -22.6250  -12.0370   22.5240 H   0  0  0  0  0  0  0  0  0  0  0  0
  -21.3090  -13.1670   22.4080 H   0  0  0  0  0  0  0  0  0  0  0  0
  -25.4660  -15.2920   20.3040 N   0  0  0  0  0  0  0  0  0  0  0  0
  -24.6860  -15.9200   20.4610 H   0  0  0  0  0  0  0  0  0  0  0  0
  -26.2890  -15.7600   19.9460 H   0  0  0  0  0  0  0  0  0  0  0  0
  -28.4790  -25.1910   19.3340 C   0  0  0  0  0  3  0  0  0  0  0  0
  -28.6640  -23.7810   19.1810 C   0  0  0  0  0  0  0  0  0  0  0  0
  -28.9570  -23.4270   17.7200 C   0  0  0  0  0  1  0  0  0  0  0  0
  -28.2180  -26.2160   20.3150 O   0  0  0  0  0  0  0  0  0  0  0  0
  -24.6240  -31.9220   23.2130 C   0  0  0  0  0  0  0  0  0  0  0  0
  -27.2060  -27.2270   20.1640 C   0  0  0  0  0  0  0  0  0  0  0  0
  -23.4170  -30.5160   21.5860 C   0  0  0  0  0  3  0  0  0  0  0  0
  -24.8650  -28.9490   20.1480 C   0  0  0  0  0  0  0  0  0  0  0  0
  -25.9680  -30.7970   21.4010 C   0  0  0  0  0  2  0  0  0  0  0  0
  -26.0450  -29.4050   20.7510 C   0  0  0  0  0  0  0  0  0  0  0  0
  -27.2120  -28.5550   20.7530 C   0  0  0  0  0  3  0  0  0  0  0  0
  -26.0010  -26.8680   19.5220 C   0  0  0  0  0  3  0  0  0  0  0  0
  -24.8550  -27.6930   19.5200 C   0  0  0  0  0  3  0  0  0  0  0  0
  -23.6310  -29.8350   20.2080 C   0  0  0  0  0  2  0  0  0  0  0  0
  -24.6900  -31.1000   22.1220 N   0  0  0  0  0  0  0  0  0  0  0  0
  -23.5410  -32.2040   23.7480 O   0  0  0  0  0  0  0  0  0  0  0  0
  -22.7460  -29.5130   22.5560 C   0  0  0  0  0  0  0  0  0  0  0  0
  -21.4190  -29.3350   22.4330 N   0  0  0  0  0  0  0  0  0  0  0  0
  -23.4240  -28.8940   23.3810 O   0  0  0  0  0  0  0  0  0  0  0  0
  -20.9310  -29.8820   21.7390 H   0  0  0  0  0  0  0  0  0  0  0  0
  -18.0390  -28.1420   22.9640 C   0  0  0  0  0  0  0  0  0  0  0  0
  -20.6020  -28.4020   23.2130 C   0  0  0  0  0  3  0  0  0  0  0  0
  -20.6980  -26.9700   22.6380 C   0  0  0  0  0  2  0  0  0  0  0  0
  -19.5870  -26.6470   21.6330 C   0  0  0  0  0  2  0  0  0  0  0  0
  -18.2100  -26.7930   22.2860 C   0  0  0  0  0  2  0  0  0  0  0  0
  -19.1620  -28.9040   23.3850 C   0  0  0  0  0  0  0  0  0  0  0  0
  -18.9460  -30.1660   23.9800 C   0  0  0  0  0  3  0  0  0  0  0  0
  -17.6430  -30.6650   24.1580 C   0  0  0  0  0  3  0  0  0  0  0  0
  -16.5350  -29.9010   23.7520 C   0  0  0  0  0  3  0  0  0  0  0  0
  -16.7350  -28.6410   23.1600 C   0  0  0  0  0  3  0  0  0  0  0  0
  -25.9060  -32.5620   23.8310 C   0  0  0  0  0  3  0  0  0  0  0  0
  -25.5910  -33.9600   24.1670 N   0  0  0  0  0  0  0  0  0  0  0  0
  -25.9160  -35.0180   23.4120 C   0  0  0  0  0  0  0  0  0  0  0  0
  -26.5780  -34.9200   22.3750 O   0  0  0  0  0  0  0  0  0  0  0  0
  -25.0050  -34.1090   24.9760 H   0  0  0  0  0  0  0  0  0  0  0  0
  -24.1880  -36.8150   23.0690 C   0  0  0  0  0  1  0  0  0  0  0  0
  -25.4290  -36.4050   23.8780 C   0  0  0  0  0  3  0  0  0  0  0  0
  -27.5610  -37.2880   24.7210 C   0  0  0  0  0  1  0  0  0  0  0  0
  -26.4620  -37.4580   23.7730 N   0  0  0  0  0  0  0  0  0  0  0  0
  -26.0560  -38.3790   23.9190 H   0  0  0  0  0  0  0  0  0  0  0  0
  -26.4250  -31.7930   25.1070 C   0  0  1  0  0  0  0  0  0  0  0  0
  -25.3330  -31.5560   26.1760 C   0  0  0  0  0  1  0  0  0  0  0  0
  -27.0100  -30.4150   24.7210 C   0  0  0  0  0  1  0  0  0  0  0  0
  -27.5740  -32.5920   25.7680 C   0  0  0  0  0  1  0  0  0  0  0  0
  1  2  1  0
  1  3  1  0
  5  6  2  0
  6  1  1  0
  6  4  1  0
  7  4  2  0
  7 18  1  0
  8  5  1  0
  8  7  1  0
  9 18  1  0
 10 15  1  0
 11 12  1  0
 11 10  1  0
 13 12  1  0
 13 22  1  0
 13 14  1  0
 15  9  1  0
 15 14  1  0
 16  9  2  0
 18 17  1  0
 19 20  2  0
 20 39  1  0
 21 20  1  0
 21 24  1  0
 22 23  1  0
 22 19  1  0
 23 21  2  0
 24 25  1  0
 25 26  2  0
 27 30  1  0
 27 26  1  0
 28 27  2  0
 29 28  1  0
 29 24  2  0
 30 31  1  0
 31 32  1  0
 32 33  2  0
 34 33  1  0
 34 38  1  0
 35 34  2  0
 36 31  2  0
 36 35  1  0
 37 36  1  0
 39 40  1  0
 40 43  1  0
 40 42  1  0
 41 39  2  0
 44 19  1  0
 44 45  1  0
 46 44  1  0
 47 50  1  0
 48 47  2  0
 48  3  1  0
 49 48  1  0
 51 62  2  0
 52 50  1  0
 52 57  1  0
 53 61  1  0
 53 63  1  0
 54 60  1  0
 54 56  1  0
 55 61  1  0
 56 57  2  0
 56 55  1  0
 58 52  2  0
 59 58  1  0
 59 54  2  0
 60 53  1  0
 61 51  1  0
 63 65  2  0
 64 63  1  0
 66 64  1  0
 67 76  2  0
 67 72  1  0
 68 64  1  0
 68 72  1  0
 69 68  1  0
 70 71  1  0
 70 69  1  0
 71 67  1  0
 72 73  2  0
 73 74  1  0
 75 74  2  0
 76 75  1  0
 77 51  1  0
 77 78  1  0
 77 87  1  0
 78 81  1  0
 79 83  1  0
 79 78  1  0
 80 79  2  0
 83 82  1  0
 85 83  1  0
 85 86  1  0
 85 84  1  0
 87 90  1  1
 87 88  1  0
 89 87  1  0
M  ISO  4   9 100  18 100  47 101  50 101
M  END
>  <TORSDO>  (36) 
F 18

>  <SCORE>  (36) 
-14.592

>  <name>  (36) 
35

>  <ligand_id>  (36) 
35

>  <original_smiles>  (36) 
[H]C(Oc1c([H])c([H])c2c(c1[H])C([H])([H])N(C(=O)C([H])(N([H])C(=O)C([H])(N([H])C([H])([H])[H])C([H])([H])[H])C(C([H])([H])[H])(C([H])([H])[H])C([H])([H])[H])C([H])(C(=O)N([H])C1([H])c3c([H])c([H])c([H])c([H])c3C([H])([H])C([H])([H])C1([H])[H])C2([H])[H])=C(N=C(c1c([H])sc(N(C(=O)N2C([H])([H])C([H])([H])C([H])([H])C([H])(n3nc(-c4c([H])c([H])c(Oc5c([H])c([H])c(F)c([H])c5F)c([H])c4[H])c(C(=O)N([H])[H])c3N([H])[H])C2([H])[H])C([H])([H])[H])c1[H])C([H])([H])[H])C([H])([H])[H]

>  <smiles>  (36) 
[H]C(Oc1c([H])c([H])c2c(c1[H])C([H])([H])N(C(=O)C([H])(N([H])C(=O)C([H])(N([H])C([H])([H])[H])C([H])([H])[H])C(C([H])([H])[H])(C([H])([H])[H])C([H])([H])[H])C([H])(C(=O)N([H])C1([H])c3c([H])c([H])c([H])c([H])c3C([H])([H])C([H])([H])C1([H])[H])C2([H])[H])=C(N=C(c1c([H])sc(N(C(=O)N2C([H])([H])C([H])([H])C([H])([H])C([H])(n3nc(-c4c([H])c([H])c(Oc5c([H])c([H])c(F)c([H])c5F)c([H])c4[H])c(C(=O)N([H])[H])c3N([H])[H])C2([H])[H])C([H])([H])[H])c1[H])C([H])([H])[H])C([H])([H])[H]

$$$$
36:0:0
     RDKit          3D

 96105  0  0  1  0  0  0  0  0999 V2000
  -31.3990  -24.1020   19.7990 C   0  0  0  0  0  0  0  0  0  0  0  0
  -30.7100  -22.7660   20.2310 C   0  0  0  0  0  0  0  0  0  0  0  0
  -30.9750  -24.7380   18.4670 C   0  0  0  0  0  2  0  0  0  0  0  0
  -29.5630  -24.3320   18.0010 C   0  0  0  0  0  2  0  0  0  0  0  0
  -28.7120  -23.7470   19.1410 C   0  0  0  0  0  3  0  0  0  0  0  0
  -29.4850  -22.5170   19.6790 N   0  0  0  0  0  0  0  0  0  0  0  0
  -32.2870  -24.6320   20.4780 O   0  0  0  0  0  0  0  0  0  0  0  0
  -31.2750  -22.0200   21.0430 O   0  0  0  0  0  0  0  0  0  0  0  0
  -27.2290  -19.4430   19.2380 C   0  0  0  0  0  3  0  0  0  0  0  0
  -28.1080  -18.3350   19.2850 C   0  0  0  0  0  3  0  0  0  0  0  0
  -27.6840  -20.7780   19.3530 C   0  0  0  0  0  3  0  0  0  0  0  0
  -29.9340  -19.9080   19.5470 C   0  0  0  0  0  3  0  0  0  0  0  0
  -29.4990  -18.5190   19.4380 C   0  0  0  0  0  0  0  0  0  0  0  0
  -29.0550  -21.0810   19.5240 C   0  0  0  0  0  0  0  0  0  0  0  0
  -30.8360  -14.8150   19.7420 C   0  0  0  0  0  0  0  0  0  0  0  0
  -30.6120  -12.4170   19.0720 C   0  0  0  0  0  2  0  0  0  0  0  0
  -29.6460  -12.3100   17.8720 C   0  0  0  0  0  2  0  0  0  0  0  0
  -28.1910  -12.1840   18.3640 C   0  0  0  0  0  2  0  0  0  0  0  0
  -27.8370  -13.2250   19.4600 C   0  0  0  0  0  3  0  0  0  0  0  0
  -28.9280  -13.3230   20.5480 C   0  0  0  0  0  2  0  0  0  0  0  0
  -30.1980  -13.5980   19.8670 N   0  0  0  0  0  0  0  0  0  0  0  0
  -32.0270  -14.8060   19.4170 O   0  0  0  0  0  0  0  0  0  0  0  0
  -30.4830  -17.2990   19.4910 C   0  0  0  0  0  0  0  0  0  0  0  0
  -30.0810  -15.9900   19.7670 N   0  0  0  0  0  0  0  0  0  0  0  0
  -31.6640  -17.5720   19.2550 O   0  0  0  0  0  0  0  0  0  0  0  0
  -29.1020  -15.8770   19.9650 H   0  0  0  0  0  0  0  0  0  0  0  0
  -25.5300  -13.9080   20.3410 C   0  0  0  0  0  0  0  0  0  0  0  0
  -24.4540  -13.1770   20.7640 C   0  0  0  0  0  0  0  0  0  0  0  0
  -24.8510  -11.8070   20.6830 C   0  0  0  0  0  0  0  0  0  0  0  0
  -26.5150  -12.9870   20.0280 N   0  0  0  0  0  0  0  0  0  0  0  0
  -26.1170  -11.7160   20.2960 N   0  0  0  0  0  0  0  0  0  0  0  0
  -24.0770  -10.5760   20.8940 C   0  0  0  0  0  0  0  0  0  0  0  0
  -24.4890   -9.5930   21.8200 C   0  0  0  0  0  3  0  0  0  0  0  0
  -23.7190   -8.4270   22.0210 C   0  0  0  0  0  3  0  0  0  0  0  0
  -22.5190   -8.2370   21.2950 C   0  0  0  0  0  0  0  0  0  0  0  0
  -22.1230   -9.2080   20.3580 C   0  0  0  0  0  3  0  0  0  0  0  0
  -22.8950  -10.3650   20.1560 C   0  0  0  0  0  3  0  0  0  0  0  0
  -21.7210   -7.1240   21.4060 O   0  0  0  0  0  0  0  0  0  0  0  0
  -21.6280   -6.4180   22.5780 C   0  0  0  0  0  0  0  0  0  0  0  0
  -21.1740   -7.0140   23.7740 C   0  0  0  0  0  3  0  0  0  0  0  0
  -21.0280   -6.2330   24.9380 C   0  0  0  0  0  3  0  0  0  0  0  0
  -21.3260   -4.8590   24.9070 C   0  0  0  0  0  0  0  0  0  0  0  0
  -21.7720   -4.2620   23.7150 C   0  0  0  0  0  3  0  0  0  0  0  0
  -21.9210   -5.0390   22.5530 C   0  0  0  0  0  0  0  0  0  0  0  0
  -22.3320   -4.4550   21.4020 F   0  0  0  0  0  0  0  0  0  0  0  0
  -21.1790   -4.1070   26.0230 F   0  0  0  0  0  0  0  0  0  0  0  0
  -23.0970  -13.7130   21.1200 C   0  0  0  0  0  0  0  0  0  0  0  0
  -22.3920  -13.0450   22.0250 N   0  0  0  0  0  0  0  0  0  0  0  0
  -22.6750  -14.7610   20.6310 O   0  0  0  0  0  0  0  0  0  0  0  0
  -22.7460  -12.1970   22.4420 H   0  0  0  0  0  0  0  0  0  0  0  0
  -21.4830  -13.3860   22.3030 H   0  0  0  0  0  0  0  0  0  0  0  0
  -25.7430  -15.2730   20.1680 N   0  0  0  0  0  0  0  0  0  0  0  0
  -24.9950  -15.9420   20.3070 H   0  0  0  0  0  0  0  0  0  0  0  0
  -26.5310  -15.6630   19.6690 H   0  0  0  0  0  0  0  0  0  0  0  0
  -28.2670  -24.9490   20.1560 C   0  0  0  0  0  2  0  0  0  0  0  0
  -28.4020  -26.4140   19.8340 O   0  0  0  0  0  0  0  0  0  0  0  0
  -24.5610  -31.6290   23.1450 C   0  0  0  0  0  0  0  0  0  0  0  0
  -27.2730  -27.2580   19.8770 C   0  0  0  0  0  0  0  0  0  0  0  0
  -23.3960  -30.2980   21.4230 C   0  0  0  0  0  3  0  0  0  0  0  0
  -24.8850  -28.8460   19.9280 C   0  0  0  0  0  0  0  0  0  0  0  0
  -25.9310  -30.6680   21.2730 C   0  0  0  0  0  2  0  0  0  0  0  0
  -26.0440  -29.3230   20.5550 C   0  0  0  0  0  0  0  0  0  0  0  0
  -27.2440  -28.5460   20.5100 C   0  0  0  0  0  3  0  0  0  0  0  0
  -26.0920  -26.8360   19.2350 C   0  0  0  0  0  3  0  0  0  0  0  0
  -24.9140  -27.6110   19.2580 C   0  0  0  0  0  3  0  0  0  0  0  0
  -23.6330  -29.6980   20.0100 C   0  0  0  0  0  2  0  0  0  0  0  0
  -24.6480  -30.8810   22.0040 N   0  0  0  0  0  0  0  0  0  0  0  0
  -23.4690  -31.8560   23.6850 O   0  0  0  0  0  0  0  0  0  0  0  0
  -22.7460  -29.2210   22.3240 C   0  0  0  0  0  0  0  0  0  0  0  0
  -21.4220  -29.0290   22.1830 N   0  0  0  0  0  0  0  0  0  0  0  0
  -23.4320  -28.5630   23.1100 O   0  0  0  0  0  0  0  0  0  0  0  0
  -20.9270  -29.6150   21.5270 H   0  0  0  0  0  0  0  0  0  0  0  0
  -18.0600  -27.7680   22.6270 C   0  0  0  0  0  0  0  0  0  0  0  0
  -20.6180  -28.0370   22.8980 C   0  0  0  0  0  3  0  0  0  0  0  0
  -20.7300  -26.6460   22.2330 C   0  0  0  0  0  2  0  0  0  0  0  0
  -19.6250  -26.3770   21.2060 C   0  0  0  0  0  2  0  0  0  0  0  0
  -18.2460  -26.4660   21.8660 C   0  0  0  0  0  2  0  0  0  0  0  0
  -19.1740  -28.5130   23.0990 C   0  0  0  0  0  0  0  0  0  0  0  0
  -18.9460  -29.7330   23.7720 C   0  0  0  0  0  3  0  0  0  0  0  0
  -17.6360  -30.2080   23.9770 C   0  0  0  0  0  3  0  0  0  0  0  0
  -16.5380  -29.4600   23.5210 C   0  0  0  0  0  3  0  0  0  0  0  0
  -16.7510  -28.2420   22.8520 C   0  0  0  0  0  3  0  0  0  0  0  0
  -25.8270  -32.2530   23.8090 C   0  0  0  0  0  3  0  0  0  0  0  0
  -25.5130  -33.6500   24.1410 N   0  0  0  0  0  0  0  0  0  0  0  0
  -25.8620  -34.7080   23.3970 C   0  0  0  0  0  0  0  0  0  0  0  0
  -26.5530  -34.6110   22.3790 O   0  0  0  0  0  0  0  0  0  0  0  0
  -24.9020  -33.8000   24.9310 H   0  0  0  0  0  0  0  0  0  0  0  0
  -24.1460  -36.5100   23.0210 C   0  0  0  0  0  1  0  0  0  0  0  0
  -25.3690  -36.0950   23.8540 C   0  0  0  0  0  3  0  0  0  0  0  0
  -27.4840  -36.9750   24.7430 C   0  0  0  0  0  1  0  0  0  0  0  0
  -26.4070  -37.1470   23.7700 N   0  0  0  0  0  0  0  0  0  0  0  0
  -25.9980  -38.0670   23.9090 H   0  0  0  0  0  0  0  0  0  0  0  0
  -26.3010  -31.4730   25.0970 C   0  0  1  0  0  0  0  0  0  0  0  0
  -25.1750  -31.2350   26.1300 C   0  0  0  0  0  1  0  0  0  0  0  0
  -26.8880  -30.0940   24.7160 C   0  0  0  0  0  1  0  0  0  0  0  0
  -27.4340  -32.2580   25.7990 C   0  0  0  0  0  1  0  0  0  0  0  0
  1  2  1  0
  1  7  2  0
  2  8  2  0
  3  1  1  0
  4  3  1  0
  4  5  1  0
  5  6  1  0
  5 55  1  0
  6  2  1  0
  9 10  2  0
  9 11  1  0
 10 13  1  0
 11 14  2  0
 13 23  1  0
 13 12  2  0
 14 12  1  0
 14  6  1  0
 15 24  1  0
 15 21  1  0
 16 21  1  0
 17 18  1  0
 17 16  1  0
 19 18  1  0
 19 30  1  0
 19 20  1  0
 21 20  1  0
 22 15  2  0
 23 24  1  0
 24 26  1  0
 25 23  2  0
 27 28  2  0
 28 47  1  0
 29 28  1  0
 29 32  1  0
 30 31  1  0
 30 27  1  0
 31 29  2  0
 32 33  1  0
 33 34  2  0
 35 38  1  0
 35 34  1  0
 36 35  2  0
 37 36  1  0
 37 32  2  0
 38 39  1  0
 39 40  1  0
 40 41  2  0
 42 41  1  0
 42 46  1  0
 43 42  2  0
 44 39  2  0
 44 43  1  0
 45 44  1  0
 47 48  1  0
 48 51  1  0
 48 50  1  0
 49 47  2  0
 52 53  1  0
 52 27  1  0
 54 52  1  0
 56 58  1  0
 56 55  1  0
 57 68  2  0
 58 63  1  0
 59 67  1  0
 59 69  1  0
 60 66  1  0
 60 62  1  0
 61 67  1  0
 62 61  1  0
 63 62  2  0
 64 65  1  0
 64 58  2  0
 65 60  2  0
 66 59  1  0
 67 57  1  0
 69 71  2  0
 70 69  1  0
 72 70  1  0
 73 82  2  0
 73 78  1  0
 74 70  1  0
 74 78  1  0
 75 74  1  0
 76 77  1  0
 76 75  1  0
 77 73  1  0
 78 79  2  0
 79 80  1  0
 81 80  2  0
 82 81  1  0
 83 57  1  0
 83 84  1  0
 83 93  1  0
 84 87  1  0
 85 89  1  0
 85 84  1  0
 86 85  2  0
 89 88  1  0
 91 89  1  0
 91 92  1  0
 91 90  1  0
 93 96  1  1
 93 94  1  0
 95 93  1  0
M  ISO  4  15 100  24 100  55 101  56 101
M  END
>  <TORSDO>  (37) 
F 18

>  <SCORE>  (37) 
-14.346

>  <name>  (37) 
36

>  <ligand_id>  (37) 
36

>  <original_smiles>  (37) 
[H]c1c([H])c(C(=O)N([H])C(=O)N2C([H])([H])C([H])([H])C([H])([H])C([H])(n3nc(-c4c([H])c([H])c(Oc5c([H])c([H])c(F)c([H])c5F)c([H])c4[H])c(C(=O)N([H])[H])c3N([H])[H])C2([H])[H])c([H])c(N2C(=O)C(=O)C([H])([H])C([H])([H])C2([H])C([H])([H])Oc2c([H])c([H])c3c(c2[H])C([H])([H])N(C(=O)C([H])(N([H])C(=O)C([H])(N([H])C([H])([H])[H])C([H])([H])[H])C(C([H])([H])[H])(C([H])([H])[H])C([H])([H])[H])C([H])(C(=O)N([H])C2([H])c4c([H])c([H])c([H])c([H])c4C([H])([H])C([H])([H])C2([H])[H])C3([H])[H])c1[H]

>  <smiles>  (37) 
[H]c1c([H])c(C(=O)N([H])C(=O)N2C([H])([H])C([H])([H])C([H])([H])C([H])(n3nc(-c4c([H])c([H])c(Oc5c([H])c([H])c(F)c([H])c5F)c([H])c4[H])c(C(=O)N([H])[H])c3N([H])[H])C2([H])[H])c([H])c(N2C(=O)C(=O)C([H])([H])C([H])([H])C2([H])C([H])([H])Oc2c([H])c([H])c3c(c2[H])C([H])([H])N(C(=O)C([H])(N([H])C(=O)C([H])(N([H])C([H])([H])[H])C([H])([H])[H])C(C([H])([H])[H])(C([H])([H])[H])C([H])([H])[H])C([H])(C(=O)N([H])C2([H])c4c([H])c([H])c([H])c([H])c4C([H])([H])C([H])([H])C2([H])[H])C3([H])[H])c1[H]

$$$$
37:0:0
     RDKit          3D

 93102  0  0  1  0  0  0  0  0999 V2000
  -27.9500  -23.5940   20.9860 C   0  0  0  0  0  2  0  0  0  0  0  0
  -28.9600  -23.9440   20.1540 C   0  0  0  0  0  3  0  0  0  0  0  0
  -27.7900  -22.2220   21.5360 C   0  0  0  0  0  0  0  0  0  0  0  0
  -28.9730  -21.2290   21.4890 C   0  0  0  0  0  2  0  0  0  0  0  0
  -29.9480  -22.6650   19.7240 C   0  0  0  0  0  3  0  0  0  0  0  0
  -30.3830  -22.8040   18.2550 C   0  0  0  0  0  1  0  0  0  0  0  0
  -29.4850  -21.1650   20.1060 N   0  0  1  0  0  4  0  0  0  0  0  0
  -26.7460  -21.8750   22.0950 O   0  0  0  0  0  0  0  0  0  0  0  0
  -28.6010  -21.1780   19.6210 H   0  0  0  0  0  0  0  0  0  0  0  0
  -31.1520  -15.8160   20.3240 C   0  0  0  0  0  0  0  0  0  0  0  0
  -31.1420  -13.3710   19.5880 C   0  0  0  0  0  2  0  0  0  0  0  0
  -30.2780  -13.1230   18.3290 C   0  0  0  0  0  2  0  0  0  0  0  0
  -28.7960  -12.9180   18.7160 C   0  0  0  0  0  2  0  0  0  0  0  0
  -28.3010  -13.9300   19.7810 C   0  0  0  0  0  3  0  0  0  0  0  0
  -29.3050  -14.1250   20.9340 C   0  0  0  0  0  2  0  0  0  0  0  0
  -30.5720  -14.5380   20.3190 N   0  0  0  0  0  0  0  0  0  0  0  0
  -32.3890  -15.8390   20.3480 O   0  0  0  0  0  0  0  0  0  0  0  0
  -30.3910  -18.4470   20.4210 C   0  0  0  0  0  2  0  0  0  0  0  0
  -30.0510  -19.6300   19.6780 C   0  0  0  0  0  3  0  0  0  0  0  0
  -29.8550  -19.4710   18.1710 C   0  0  0  0  0  2  0  0  0  0  0  0
  -30.2940  -18.0820   17.6630 C   0  0  0  0  0  2  0  0  0  0  0  0
  -29.8210  -16.9320   18.5800 C   0  0  0  0  0  2  0  0  0  0  0  0
  -30.4020  -17.0010   19.9380 N   0  0  0  0  0  0  0  0  0  0  0  0
  -25.9150  -14.5300   20.4760 C   0  0  0  0  0  0  0  0  0  0  0  0
  -24.8210  -13.7680   20.7890 C   0  0  0  0  0  0  0  0  0  0  0  0
  -25.2690  -12.4130   20.7520 C   0  0  0  0  0  0  0  0  0  0  0  0
  -26.9480  -13.6390   20.2490 N   0  0  0  0  0  0  0  0  0  0  0  0
  -26.5700  -12.3590   20.4890 N   0  0  0  0  0  0  0  0  0  0  0  0
  -24.5230  -11.1550   20.8930 C   0  0  0  0  0  0  0  0  0  0  0  0
  -24.8530  -10.2030   21.8840 C   0  0  0  0  0  3  0  0  0  0  0  0
  -24.1030   -9.0140   22.0110 C   0  0  0  0  0  3  0  0  0  0  0  0
  -23.0120   -8.7670   21.1430 C   0  0  0  0  0  0  0  0  0  0  0  0
  -22.7050   -9.7030   20.1400 C   0  0  0  0  0  3  0  0  0  0  0  0
  -23.4550  -10.8850   20.0100 C   0  0  0  0  0  3  0  0  0  0  0  0
  -22.2500   -7.6240   21.1720 O   0  0  0  0  0  0  0  0  0  0  0  0
  -21.9550   -6.9870   22.3500 C   0  0  0  0  0  0  0  0  0  0  0  0
  -21.2540   -7.6320   23.3930 C   0  0  0  0  0  3  0  0  0  0  0  0
  -20.9170   -6.9200   24.5630 C   0  0  0  0  0  3  0  0  0  0  0  0
  -21.2640   -5.5600   24.6830 C   0  0  0  0  0  0  0  0  0  0  0  0
  -21.9550   -4.9150   23.6430 C   0  0  0  0  0  3  0  0  0  0  0  0
  -22.2960   -5.6250   22.4810 C   0  0  0  0  0  0  0  0  0  0  0  0
  -22.9440   -4.9920   21.4730 F   0  0  0  0  0  0  0  0  0  0  0  0
  -20.9320   -4.8740   25.8020 F   0  0  0  0  0  0  0  0  0  0  0  0
  -23.4220  -14.2620   21.0200 C   0  0  0  0  0  0  0  0  0  0  0  0
  -22.6590  -13.5640   21.8570 N   0  0  0  0  0  0  0  0  0  0  0  0
  -23.0120  -15.2940   20.4920 O   0  0  0  0  0  0  0  0  0  0  0  0
  -23.0010  -12.7220   22.2940 H   0  0  0  0  0  0  0  0  0  0  0  0
  -21.7150  -13.8660   22.0590 H   0  0  0  0  0  0  0  0  0  0  0  0
  -26.1240  -15.9020   20.3400 N   0  0  0  0  0  0  0  0  0  0  0  0
  -25.4000  -16.5980   20.4710 H   0  0  0  0  0  0  0  0  0  0  0  0
  -27.0350  -16.3030   20.1630 H   0  0  0  0  0  0  0  0  0  0  0  0
  -29.2870  -25.5940   20.1990 C   0  0  0  0  0  2  0  0  0  0  0  0
  -28.6760  -26.8550   19.4860 O   0  0  0  0  0  0  0  0  0  0  0  0
  -24.6040  -31.9290   23.2140 C   0  0  0  0  0  0  0  0  0  0  0  0
  -27.5190  -27.6790   19.7780 C   0  0  0  0  0  0  0  0  0  0  0  0
  -23.5000  -30.6020   21.4570 C   0  0  0  0  0  3  0  0  0  0  0  0
  -25.0530  -29.2510   19.9140 C   0  0  0  0  0  0  0  0  0  0  0  0
  -26.0280  -31.0610   21.3150 C   0  0  0  0  0  2  0  0  0  0  0  0
  -26.2070  -29.7300   20.5550 C   0  0  0  0  0  0  0  0  0  0  0  0
  -27.4390  -28.9650   20.4610 C   0  0  0  0  0  3  0  0  0  0  0  0
  -26.3250  -27.3050   19.1280 C   0  0  0  0  0  3  0  0  0  0  0  0
  -25.1250  -28.0500   19.1890 C   0  0  0  0  0  3  0  0  0  0  0  0
  -23.7640  -30.0580   20.0290 C   0  0  0  0  0  2  0  0  0  0  0  0
  -24.7280  -31.2190   22.0500 N   0  0  0  0  0  0  0  0  0  0  0  0
  -23.5030  -32.0830   23.7690 O   0  0  0  0  0  0  0  0  0  0  0  0
  -22.9060  -29.4670   22.3290 C   0  0  0  0  0  0  0  0  0  0  0  0
  -21.5930  -29.2050   22.1900 N   0  0  0  0  0  0  0  0  0  0  0  0
  -23.6300  -28.8270   23.0970 O   0  0  0  0  0  0  0  0  0  0  0  0
  -21.0570  -29.7860   21.5610 H   0  0  0  0  0  0  0  0  0  0  0  0
  -18.3210  -27.7100   22.5970 C   0  0  0  0  0  0  0  0  0  0  0  0
  -20.8570  -28.1400   22.8780 C   0  0  0  0  0  3  0  0  0  0  0  0
  -21.0630  -26.7820   22.1690 C   0  0  0  0  0  2  0  0  0  0  0  0
  -19.9720  -26.4700   21.1370 C   0  0  0  0  0  2  0  0  0  0  0  0
  -18.5920  -26.4470   21.7960 C   0  0  0  0  0  2  0  0  0  0  0  0
  -19.3840  -28.5120   23.0920 C   0  0  0  0  0  0  0  0  0  0  0  0
  -19.0800  -29.6930   23.7980 C   0  0  0  0  0  3  0  0  0  0  0  0
  -17.7450  -30.0750   24.0200 C   0  0  0  0  0  3  0  0  0  0  0  0
  -16.6950  -29.2690   23.5440 C   0  0  0  0  0  3  0  0  0  0  0  0
  -16.9840  -28.0870   22.8370 C   0  0  0  0  0  3  0  0  0  0  0  0
  -25.8360  -32.5990   23.8960 C   0  0  0  0  0  3  0  0  0  0  0  0
  -25.4750  -33.9940   24.1960 N   0  0  0  0  0  0  0  0  0  0  0  0
  -25.8130  -35.0500   23.4460 C   0  0  0  0  0  0  0  0  0  0  0  0
  -26.5260  -34.9550   22.4430 O   0  0  0  0  0  0  0  0  0  0  0  0
  -24.8370  -34.1380   24.9670 H   0  0  0  0  0  0  0  0  0  0  0  0
  -24.0500  -36.7960   23.0190 C   0  0  0  0  0  1  0  0  0  0  0  0
  -25.2770  -36.4310   23.8710 C   0  0  0  0  0  3  0  0  0  0  0  0
  -27.3560  -37.3900   24.7560 C   0  0  0  0  0  1  0  0  0  0  0  0
  -26.2840  -37.5090   23.7710 N   0  0  0  0  0  0  0  0  0  0  0  0
  -25.8500  -38.4210   23.8820 H   0  0  0  0  0  0  0  0  0  0  0  0
  -26.2970  -31.8570   25.2100 C   0  0  1  0  0  0  0  0  0  0  0  0
  -25.1500  -31.5930   26.2130 C   0  0  0  0  0  1  0  0  0  0  0  0
  -26.9550  -30.4990   24.8760 C   0  0  0  0  0  1  0  0  0  0  0  0
  -27.3790  -32.6970   25.9310 C   0  0  0  0  0  1  0  0  0  0  0  0
  1  3  1  0
  2 52  1  0
  2  1  1  0
  3  8  2  0
  4  3  1  0
  5  6  1  0
  5  7  1  0
  5  2  1  0
  7  9  1  6
  7  4  1  0
 10 17  2  0
 11 16  1  0
 12 13  1  0
 12 11  1  0
 14 13  1  0
 14 27  1  0
 14 15  1  0
 16 10  1  0
 16 15  1  0
 19 20  1  0
 19  7  1  0
 19 18  1  0
 21 20  1  0
 21 22  1  0
 22 23  1  0
 23 10  1  0
 23 18  1  0
 24 25  2  0
 25 44  1  0
 26 25  1  0
 26 29  1  0
 27 24  1  0
 27 28  1  0
 28 26  2  0
 29 30  1  0
 30 31  2  0
 32 35  1  0
 32 31  1  0
 33 32  2  0
 34 33  1  0
 34 29  2  0
 35 36  1  0
 36 41  2  0
 36 37  1  0
 37 38  2  0
 38 39  1  0
 39 43  1  0
 40 39  2  0
 41 40  1  0
 42 41  1  0
 44 45  1  0
 45 48  1  0
 45 47  1  0
 46 44  2  0
 49 50  1  0
 49 24  1  0
 51 49  1  0
 53 55  1  0
 53 52  1  0
 54 65  2  0
 55 60  1  0
 56 64  1  0
 56 66  1  0
 57 63  1  0
 57 59  1  0
 58 64  1  0
 59 58  1  0
 60 59  2  0
 61 62  1  0
 61 55  2  0
 62 57  2  0
 63 56  1  0
 64 54  1  0
 66 68  2  0
 67 66  1  0
 69 67  1  0
 70 79  2  0
 70 75  1  0
 71 67  1  0
 71 75  1  0
 72 71  1  0
 73 74  1  0
 73 72  1  0
 74 70  1  0
 75 76  2  0
 76 77  1  0
 78 77  2  0
 79 78  1  0
 80 54  1  0
 80 81  1  0
 80 90  1  0
 81 84  1  0
 82 86  1  0
 82 81  1  0
 83 82  2  0
 86 85  1  0
 88 86  1  0
 88 89  1  0
 88 87  1  0
 90 93  1  1
 90 91  1  0
 92 90  1  0
M  ISO  4  10 100  23 100  52 101  53 101
M  END
>  <TORSDO>  (38) 
F 17

>  <SCORE>  (38) 
-12.599

>  <name>  (38) 
37

>  <ligand_id>  (38) 
37

>  <original_smiles>  (38) 
[H]C1=C(C([H])([H])Oc2c([H])c([H])c3c(c2[H])C([H])([H])N(C(=O)C([H])(N([H])C(=O)C([H])(N([H])C([H])([H])[H])C([H])([H])[H])C(C([H])([H])[H])(C([H])([H])[H])C([H])([H])[H])C([H])(C(=O)N([H])C2([H])c4c([H])c([H])c([H])c([H])c4C([H])([H])C([H])([H])C2([H])[H])C3([H])[H])C([H])(C([H])([H])[H])[N+]([H])(C2=C([H])N(C(=O)N3C([H])([H])C([H])([H])C([H])([H])C([H])(n4nc(-c5c([H])c([H])c(Oc6c([H])c([H])c(F)c([H])c6F)c([H])c5[H])c(C(=O)N([H])[H])c4N([H])[H])C3([H])[H])C([H])([H])C([H])([H])C2([H])[H])C([H])([H])C1=O

>  <smiles>  (38) 
[H]C1=C(C([H])([H])Oc2c([H])c([H])c3c(c2[H])C([H])([H])N(C(=O)C([H])(N([H])C(=O)C([H])(N([H])C([H])([H])[H])C([H])([H])[H])C(C([H])([H])[H])(C([H])([H])[H])C([H])([H])[H])C([H])(C(=O)N([H])C2([H])c4c([H])c([H])c([H])c([H])c4C([H])([H])C([H])([H])C2([H])[H])C3([H])[H])C([H])(C([H])([H])[H])[N+]([H])(C2=C([H])N(C(=O)N3C([H])([H])C([H])([H])C([H])([H])C([H])(n4nc(-c5c([H])c([H])c(Oc6c([H])c([H])c(F)c([H])c6F)c([H])c5[H])c(C(=O)N([H])[H])c4N([H])[H])C3([H])[H])C([H])([H])C([H])([H])C2([H])[H])C([H])([H])C1=O

$$$$
38:0:0
     RDKit          3D

 95104  0  0  1  0  0  0  0  0999 V2000
  -28.8390  -24.5320   21.1770 C   0  0  0  0  0  0  0  0  0  0  0  0
  -29.0440  -23.7180   19.9920 C   0  0  0  0  0  0  0  0  0  0  0  0
  -28.5320  -25.8520   21.2000 C   0  0  0  0  0  3  0  0  0  0  0  0
  -29.0590  -23.6790   22.3960 C   0  0  0  0  0  2  0  0  0  0  0  0
  -29.7610  -22.4350   21.8340 C   0  0  0  0  0  2  0  0  0  0  0  0
  -29.4660  -22.4320   20.3920 N   0  0  0  0  0  0  0  0  0  0  0  0
  -28.9520  -24.0750   18.8140 O   0  0  0  0  0  0  0  0  0  0  0  0
  -31.8070  -21.7930   19.5040 O   0  0  0  0  0  0  0  0  0  0  0  0
  -29.7770  -21.3630   18.0380 O   0  0  0  0  0  0  0  0  0  0  0  0
  -30.4010  -21.3730   19.3730 S   0  0  2  0  0  0  0  0  0  0  0  0
  -28.9120  -17.7100   20.5940 C   0  0  0  0  0  3  0  0  0  0  0  0
  -31.3380  -17.5630   20.5980 C   0  0  0  0  0  3  0  0  0  0  0  0
  -28.9900  -19.0810   20.2410 C   0  0  0  0  0  3  0  0  0  0  0  0
  -31.4180  -18.9280   20.2500 C   0  0  0  0  0  3  0  0  0  0  0  0
  -30.0820  -16.9210   20.7310 C   0  0  0  0  0  0  0  0  0  0  0  0
  -30.2460  -19.6870   20.0370 C   0  0  0  0  0  0  0  0  0  0  0  0
  -30.6670  -14.5050   20.4600 C   0  0  0  0  0  0  0  0  0  0  0  0
  -30.3790  -12.3430   19.3070 C   0  0  0  0  0  2  0  0  0  0  0  0
  -29.4450  -12.5650   18.0970 C   0  0  0  0  0  2  0  0  0  0  0  0
  -27.9680  -12.4300   18.5150 C   0  0  0  0  0  2  0  0  0  0  0  0
  -27.6260  -13.2570   19.7840 C   0  0  0  0  0  3  0  0  0  0  0  0
  -28.6740  -13.0190   20.8970 C   0  0  0  0  0  2  0  0  0  0  0  0
  -30.0030  -13.3210   20.3420 N   0  0  0  0  0  0  0  0  0  0  0  0
  -31.7990  -14.6710   19.9980 O   0  0  0  0  0  0  0  0  0  0  0  0
  -29.9450  -15.5180   20.9910 N   0  0  0  0  0  0  0  0  0  0  0  0
  -29.0450  -15.2250   21.3400 H   0  0  0  0  0  0  0  0  0  0  0  0
  -25.2180  -13.8670   20.4610 C   0  0  0  0  0  0  0  0  0  0  0  0
  -24.1500  -13.0970   20.8340 C   0  0  0  0  0  0  0  0  0  0  0  0
  -24.6140  -11.7460   20.8220 C   0  0  0  0  0  0  0  0  0  0  0  0
  -26.2680  -12.9860   20.2510 N   0  0  0  0  0  0  0  0  0  0  0  0
  -25.9060  -11.7060   20.5250 N   0  0  0  0  0  0  0  0  0  0  0  0
  -23.8880  -10.4840   21.0220 C   0  0  0  0  0  0  0  0  0  0  0  0
  -24.3180   -9.5270   21.9660 C   0  0  0  0  0  3  0  0  0  0  0  0
  -23.5940   -8.3290   22.1520 C   0  0  0  0  0  3  0  0  0  0  0  0
  -22.4260   -8.0820   21.3930 C   0  0  0  0  0  0  0  0  0  0  0  0
  -22.0150   -9.0280   20.4380 C   0  0  0  0  0  3  0  0  0  0  0  0
  -22.7400  -10.2170   20.2510 C   0  0  0  0  0  3  0  0  0  0  0  0
  -21.6730   -6.9360   21.4880 O   0  0  0  0  0  0  0  0  0  0  0  0
  -21.6220   -6.2020   22.6460 C   0  0  0  0  0  0  0  0  0  0  0  0
  -21.1900   -6.7650   23.8660 C   0  0  0  0  0  3  0  0  0  0  0  0
  -21.0860   -5.9570   25.0160 C   0  0  0  0  0  3  0  0  0  0  0  0
  -21.4040   -4.5870   24.9460 C   0  0  0  0  0  0  0  0  0  0  0  0
  -21.8300   -4.0240   23.7310 C   0  0  0  0  0  3  0  0  0  0  0  0
  -21.9350   -4.8290   22.5830 C   0  0  0  0  0  0  0  0  0  0  0  0
  -22.3250   -4.2760   21.4090 F   0  0  0  0  0  0  0  0  0  0  0  0
  -21.2980   -3.8100   26.0490 F   0  0  0  0  0  0  0  0  0  0  0  0
  -22.7500  -13.5750   21.0890 C   0  0  0  0  0  0  0  0  0  0  0  0
  -22.0160  -12.8880   21.9580 N   0  0  0  0  0  0  0  0  0  0  0  0
  -22.3130  -14.5920   20.5520 O   0  0  0  0  0  0  0  0  0  0  0  0
  -22.3810  -12.0650   22.4140 H   0  0  0  0  0  0  0  0  0  0  0  0
  -21.0760  -13.1900   22.1710 H   0  0  0  0  0  0  0  0  0  0  0  0
  -25.3830  -15.2350   20.2630 N   0  0  0  0  0  0  0  0  0  0  0  0
  -24.6050  -15.8820   20.3320 H   0  0  0  0  0  0  0  0  0  0  0  0
  -26.2160  -15.6580   19.8750 H   0  0  0  0  0  0  0  0  0  0  0  0
  -28.3770  -26.6760   20.1100 O   0  0  0  0  0  0  0  0  0  0  0  0
  -24.5740  -31.8760   23.1960 C   0  0  0  0  0  0  0  0  0  0  0  0
  -27.2420  -27.4510   20.1170 C   0  0  0  0  0  0  0  0  0  0  0  0
  -23.3780  -30.4710   21.5480 C   0  0  0  0  0  3  0  0  0  0  0  0
  -24.8440  -28.9420   20.1230 C   0  0  0  0  0  0  0  0  0  0  0  0
  -25.9030  -30.8410   21.3580 C   0  0  0  0  0  2  0  0  0  0  0  0
  -25.9980  -29.4720   20.7170 C   0  0  0  0  0  0  0  0  0  0  0  0
  -27.2030  -28.7320   20.7150 C   0  0  0  0  0  3  0  0  0  0  0  0
  -26.0780  -26.9350   19.5170 C   0  0  0  0  0  3  0  0  0  0  0  0
  -24.8780  -27.6730   19.5210 C   0  0  0  0  0  3  0  0  0  0  0  0
  -23.5940  -29.7930   20.1680 C   0  0  0  0  0  2  0  0  0  0  0  0
  -24.6360  -31.0790   22.0930 N   0  0  0  0  0  0  0  0  0  0  0  0
  -23.4900  -32.1430   23.7350 O   0  0  0  0  0  0  0  0  0  0  0  0
  -22.7290  -29.4470   22.5060 C   0  0  0  0  0  0  0  0  0  0  0  0
  -21.4010  -29.2740   22.3880 N   0  0  0  0  0  0  0  0  0  0  0  0
  -23.4150  -28.8100   23.3080 O   0  0  0  0  0  0  0  0  0  0  0  0
  -20.9100  -29.8390   21.7090 H   0  0  0  0  0  0  0  0  0  0  0  0
  -18.0200  -28.1150   22.9160 C   0  0  0  0  0  0  0  0  0  0  0  0
  -20.5840  -28.3360   23.1560 C   0  0  0  0  0  3  0  0  0  0  0  0
  -20.6600  -26.9120   22.5550 C   0  0  0  0  0  2  0  0  0  0  0  0
  -19.5380  -26.6200   21.5530 C   0  0  0  0  0  2  0  0  0  0  0  0
  -18.1690  -26.7740   22.2190 C   0  0  0  0  0  2  0  0  0  0  0  0
  -19.1540  -28.8560   23.3420 C   0  0  0  0  0  0  0  0  0  0  0  0
  -18.9610  -30.1140   23.9540 C   0  0  0  0  0  3  0  0  0  0  0  0
  -17.6650  -30.6300   24.1450 C   0  0  0  0  0  3  0  0  0  0  0  0
  -16.5450  -29.8860   23.7370 C   0  0  0  0  0  3  0  0  0  0  0  0
  -16.7230  -28.6300   23.1280 C   0  0  0  0  0  3  0  0  0  0  0  0
  -25.8570  -32.5090   23.8210 C   0  0  0  0  0  3  0  0  0  0  0  0
  -25.5440  -33.9050   24.1540 N   0  0  0  0  0  0  0  0  0  0  0  0
  -25.8800  -34.9610   23.3990 C   0  0  0  0  0  0  0  0  0  0  0  0
  -26.5590  -34.8610   22.3730 O   0  0  0  0  0  0  0  0  0  0  0  0
  -24.9430  -34.0560   24.9510 H   0  0  0  0  0  0  0  0  0  0  0  0
  -24.1570  -36.7530   23.0270 C   0  0  0  0  0  1  0  0  0  0  0  0
  -25.3860  -36.3460   23.8560 C   0  0  0  0  0  3  0  0  0  0  0  0
  -27.5100  -37.2240   24.7210 C   0  0  0  0  0  1  0  0  0  0  0  0
  -26.4200  -37.4000   23.7650 N   0  0  0  0  0  0  0  0  0  0  0  0
  -26.0120  -38.3180   23.9160 H   0  0  0  0  0  0  0  0  0  0  0  0
  -26.3780  -31.7350   25.0930 C   0  0  1  0  0  0  0  0  0  0  0  0
  -25.2870  -31.4910   26.1610 C   0  0  0  0  0  1  0  0  0  0  0  0
  -26.9650  -30.3610   24.6940 C   0  0  0  0  0  1  0  0  0  0  0  0
  -27.5270  -32.5300   25.7570 C   0  0  0  0  0  1  0  0  0  0  0  0
  1  3  2  0
  1  4  1  0
  2  6  1  0
  2  1  1  0
  5  4  1  0
  6  5  1  0
  7  2  2  0
  9 10  2  0
 10  8  2  0
 10 16  1  0
 10  6  1  1
 11 15  1  0
 12 15  2  0
 13 11  2  0
 14 12  1  0
 15 25  1  0
 16 13  1  0
 16 14  2  0
 17 25  1  0
 18 23  1  0
 19 20  1  0
 19 18  1  0
 21 20  1  0
 21 30  1  0
 21 22  1  0
 23 17  1  0
 23 22  1  0
 24 17  2  0
 25 26  1  0
 27 28  2  0
 28 47  1  0
 29 28  1  0
 29 32  1  0
 30 27  1  0
 30 31  1  0
 31 29  2  0
 32 33  1  0
 33 34  2  0
 35 38  1  0
 35 34  1  0
 36 35  2  0
 37 36  1  0
 37 32  2  0
 38 39  1  0
 39 40  1  0
 40 41  2  0
 42 41  1  0
 42 46  1  0
 43 42  2  0
 44 39  2  0
 44 43  1  0
 45 44  1  0
 47 48  1  0
 48 51  1  0
 48 50  1  0
 49 47  2  0
 52 53  1  0
 52 27  1  0
 54 52  1  0
 55 57  1  0
 55  3  1  0
 56 67  2  0
 57 62  1  0
 58 66  1  0
 58 68  1  0
 59 65  1  0
 59 61  1  0
 60 66  1  0
 61 60  1  0
 62 61  2  0
 63 64  1  0
 63 57  2  0
 64 59  2  0
 65 58  1  0
 66 56  1  0
 68 70  2  0
 69 68  1  0
 71 69  1  0
 72 81  2  0
 72 77  1  0
 73 69  1  0
 73 77  1  0
 74 73  1  0
 75 76  1  0
 75 74  1  0
 76 72  1  0
 77 78  2  0
 78 79  1  0
 80 79  2  0
 81 80  1  0
 82 56  1  0
 82 83  1  0
 82 92  1  0
 83 86  1  0
 84 88  1  0
 84 83  1  0
 85 84  2  0
 88 87  1  0
 90 88  1  0
 90 91  1  0
 90 89  1  0
 92 95  1  1
 92 93  1  0
 94 92  1  0
M  ISO  4   3 101  17 100  25 100  55 101
M  END
>  <TORSDO>  (39) 
F 18

>  <SCORE>  (39) 
-15.027

>  <name>  (39) 
38

>  <ligand_id>  (39) 
38

>  <original_smiles>  (39) 
[H]C(Oc1c([H])c([H])c2c(c1[H])C([H])([H])N(C(=O)C([H])(N([H])C(=O)C([H])(N([H])C([H])([H])[H])C([H])([H])[H])C(C([H])([H])[H])(C([H])([H])[H])C([H])([H])[H])C([H])(C(=O)N([H])C1([H])c3c([H])c([H])c([H])c([H])c3C([H])([H])C([H])([H])C1([H])[H])C2([H])[H])=C1C(=O)N(S(=O)(=O)c2c([H])c([H])c(N([H])C(=O)N3C([H])([H])C([H])([H])C([H])([H])C([H])(n4nc(-c5c([H])c([H])c(Oc6c([H])c([H])c(F)c([H])c6F)c([H])c5[H])c(C(=O)N([H])[H])c4N([H])[H])C3([H])[H])c([H])c2[H])C([H])([H])C1([H])[H]

>  <smiles>  (39) 
[H]C(Oc1c([H])c([H])c2c(c1[H])C([H])([H])N(C(=O)C([H])(N([H])C(=O)C([H])(N([H])C([H])([H])[H])C([H])([H])[H])C(C([H])([H])[H])(C([H])([H])[H])C([H])([H])[H])C([H])(C(=O)N([H])C1([H])c3c([H])c([H])c([H])c([H])c3C([H])([H])C([H])([H])C1([H])[H])C2([H])[H])=C1C(=O)N(S(=O)(=O)c2c([H])c([H])c(N([H])C(=O)N3C([H])([H])C([H])([H])C([H])([H])C([H])(n4nc(-c5c([H])c([H])c(Oc6c([H])c([H])c(F)c([H])c6F)c([H])c5[H])c(C(=O)N([H])[H])c4N([H])[H])C3([H])[H])c([H])c2[H])C([H])([H])C1([H])[H]

$$$$
39:0:0
     RDKit          3D

 91100  0  0  1  0  0  0  0  0999 V2000
  -28.5110  -23.7990   20.4680 C   0  0  0  0  0  0  0  0  0  0  0  0
  -28.0130  -22.5840   21.1040 C   0  0  0  0  0  0  0  0  0  0  0  0
  -28.0210  -25.0950   20.6360 C   0  0  0  0  0  3  0  0  0  0  0  0
  -29.5720  -22.9310   19.7250 C   0  0  0  0  0  2  0  0  0  0  0  0
  -28.9690  -21.7740   20.4560 N   0  0  0  0  0  0  0  0  0  0  0  0
  -27.0990  -22.4150   21.8830 O   0  0  0  0  0  0  0  0  0  0  0  0
  -28.5080  -19.3680   21.0940 C   0  0  0  0  0  3  0  0  0  0  0  0
  -30.3780  -19.6550   19.7010 C   0  0  0  0  0  3  0  0  0  0  0  0
  -28.7190  -17.9550   21.1100 C   0  0  0  0  0  3  0  0  0  0  0  0
  -30.6160  -18.2250   19.7090 C   0  0  0  0  0  3  0  0  0  0  0  0
  -29.3070  -20.3190   20.3910 C   0  0  0  0  0  0  0  0  0  0  0  0
  -29.7800  -17.3120   20.4200 C   0  0  0  0  0  0  0  0  0  0  0  0
  -30.6570  -14.8130   20.0010 C   0  0  0  0  0  0  0  0  0  0  0  0
  -30.4620  -12.5560   18.9300 C   0  0  0  0  0  2  0  0  0  0  0  0
  -29.4400  -12.6530   17.7730 C   0  0  0  0  0  2  0  0  0  0  0  0
  -27.9980  -12.4580   18.2880 C   0  0  0  0  0  2  0  0  0  0  0  0
  -27.7000  -13.3050   19.5530 C   0  0  0  0  0  3  0  0  0  0  0  0
  -28.8270  -13.1590   20.6010 C   0  0  0  0  0  2  0  0  0  0  0  0
  -30.0860  -13.5580   19.9540 N   0  0  0  0  0  0  0  0  0  0  0  0
  -31.7810  -15.0070   19.5300 O   0  0  0  0  0  0  0  0  0  0  0  0
  -29.8440  -15.8270   20.4830 N   0  0  0  0  0  0  0  0  0  0  0  0
  -29.0310  -15.4240   20.9240 H   0  0  0  0  0  0  0  0  0  0  0  0
  -25.3600  -13.8760   20.4420 C   0  0  0  0  0  0  0  0  0  0  0  0
  -24.3180  -13.0920   20.8540 C   0  0  0  0  0  0  0  0  0  0  0  0
  -24.7750  -11.7420   20.7490 C   0  0  0  0  0  0  0  0  0  0  0  0
  -26.3850  -13.0050   20.1130 N   0  0  0  0  0  0  0  0  0  0  0  0
  -26.0430  -11.7140   20.3570 N   0  0  0  0  0  0  0  0  0  0  0  0
  -24.0600  -10.4730   20.9440 C   0  0  0  0  0  0  0  0  0  0  0  0
  -24.5080   -9.5080   21.8710 C   0  0  0  0  0  3  0  0  0  0  0  0
  -23.7920   -8.3040   22.0530 C   0  0  0  0  0  3  0  0  0  0  0  0
  -22.6140   -8.0580   21.3070 C   0  0  0  0  0  0  0  0  0  0  0  0
  -22.1860   -9.0140   20.3690 C   0  0  0  0  0  3  0  0  0  0  0  0
  -22.9020  -10.2080   20.1850 C   0  0  0  0  0  3  0  0  0  0  0  0
  -21.8700   -6.9080   21.3990 O   0  0  0  0  0  0  0  0  0  0  0  0
  -21.7770   -6.2020   22.5720 C   0  0  0  0  0  0  0  0  0  0  0  0
  -21.2940   -6.7920   23.7600 C   0  0  0  0  0  3  0  0  0  0  0  0
  -21.1510   -6.0110   24.9260 C   0  0  0  0  0  3  0  0  0  0  0  0
  -21.4780   -4.6430   24.9030 C   0  0  0  0  0  0  0  0  0  0  0  0
  -21.9540   -4.0530   23.7180 C   0  0  0  0  0  3  0  0  0  0  0  0
  -22.1000   -4.8290   22.5560 C   0  0  0  0  0  0  0  0  0  0  0  0
  -22.5390   -4.2510   21.4120 F   0  0  0  0  0  0  0  0  0  0  0  0
  -21.3330   -3.8910   26.0190 F   0  0  0  0  0  0  0  0  0  0  0  0
  -22.9410  -13.5590   21.2300 C   0  0  0  0  0  0  0  0  0  0  0  0
  -22.2700  -12.8360   22.1200 N   0  0  0  0  0  0  0  0  0  0  0  0
  -22.4720  -14.5980   20.7700 O   0  0  0  0  0  0  0  0  0  0  0  0
  -22.6640  -11.9940   22.5130 H   0  0  0  0  0  0  0  0  0  0  0  0
  -21.3490  -13.1290   22.4130 H   0  0  0  0  0  0  0  0  0  0  0  0
  -25.5150  -15.2530   20.2980 N   0  0  0  0  0  0  0  0  0  0  0  0
  -24.7520  -15.8990   20.4690 H   0  0  0  0  0  0  0  0  0  0  0  0
  -26.3280  -15.7000   19.8940 H   0  0  0  0  0  0  0  0  0  0  0  0
  -28.3410  -26.3870   20.1200 O   0  0  0  0  0  0  0  0  0  0  0  0
  -24.6780  -31.8800   23.1900 C   0  0  0  0  0  0  0  0  0  0  0  0
  -27.2810  -27.3220   20.0840 C   0  0  0  0  0  0  0  0  0  0  0  0
  -23.4700  -30.4900   21.5480 C   0  0  0  0  0  3  0  0  0  0  0  0
  -24.9190  -28.9560   20.0960 C   0  0  0  0  0  0  0  0  0  0  0  0
  -26.0100  -30.8090   21.3540 C   0  0  0  0  0  2  0  0  0  0  0  0
  -26.0920  -29.4330   20.6940 C   0  0  0  0  0  0  0  0  0  0  0  0
  -27.2790  -28.6280   20.6800 C   0  0  0  0  0  3  0  0  0  0  0  0
  -26.0860  -26.9160   19.4500 C   0  0  0  0  0  3  0  0  0  0  0  0
  -24.9200  -27.7040   19.4620 C   0  0  0  0  0  3  0  0  0  0  0  0
  -23.6790  -29.8280   20.1610 C   0  0  0  0  0  2  0  0  0  0  0  0
  -24.7390  -31.0780   22.0870 N   0  0  0  0  0  0  0  0  0  0  0  0
  -23.5970  -32.1500   23.7330 O   0  0  0  0  0  0  0  0  0  0  0  0
  -22.8140  -29.4650   22.5060 C   0  0  0  0  0  0  0  0  0  0  0  0
  -21.4870  -29.2850   22.3870 N   0  0  0  0  0  0  0  0  0  0  0  0
  -23.4990  -28.8360   23.3160 O   0  0  0  0  0  0  0  0  0  0  0  0
  -20.9920  -29.8440   21.7070 H   0  0  0  0  0  0  0  0  0  0  0  0
  -18.1180  -28.0670   22.9030 C   0  0  0  0  0  0  0  0  0  0  0  0
  -20.6770  -28.3380   23.1560 C   0  0  0  0  0  3  0  0  0  0  0  0
  -20.7820  -26.9110   22.5720 C   0  0  0  0  0  2  0  0  0  0  0  0
  -19.6740  -26.5890   21.5620 C   0  0  0  0  0  2  0  0  0  0  0  0
  -18.2970  -26.7230   22.2160 C   0  0  0  0  0  2  0  0  0  0  0  0
  -19.2360  -28.8320   23.3300 C   0  0  0  0  0  0  0  0  0  0  0  0
  -19.0150  -30.0900   23.9330 C   0  0  0  0  0  3  0  0  0  0  0  0
  -17.7090  -30.5830   24.1110 C   0  0  0  0  0  3  0  0  0  0  0  0
  -16.6050  -29.8150   23.6990 C   0  0  0  0  0  3  0  0  0  0  0  0
  -16.8110  -28.5590   23.1000 C   0  0  0  0  0  3  0  0  0  0  0  0
  -25.9610  -32.5140   23.8090 C   0  0  0  0  0  3  0  0  0  0  0  0
  -25.6480  -33.9090   24.1520 N   0  0  0  0  0  0  0  0  0  0  0  0
  -25.9720  -34.9700   23.4020 C   0  0  0  0  0  0  0  0  0  0  0  0
  -26.6350  -34.8790   22.3660 O   0  0  0  0  0  0  0  0  0  0  0  0
  -25.0570  -34.0530   24.9580 H   0  0  0  0  0  0  0  0  0  0  0  0
  -24.2380  -36.7640   23.0750 C   0  0  0  0  0  1  0  0  0  0  0  0
  -25.4850  -36.3530   23.8750 C   0  0  0  0  0  3  0  0  0  0  0  0
  -27.6210  -37.2360   24.7050 C   0  0  0  0  0  1  0  0  0  0  0  0
  -26.5140  -37.4100   23.7680 N   0  0  0  0  0  0  0  0  0  0  0  0
  -26.1070  -38.3280   23.9230 H   0  0  0  0  0  0  0  0  0  0  0  0
  -26.4880  -31.7360   25.0770 C   0  0  1  0  0  0  0  0  0  0  0  0
  -25.4020  -31.4890   26.1510 C   0  0  0  0  0  1  0  0  0  0  0  0
  -27.0730  -30.3620   24.6750 C   0  0  0  0  0  1  0  0  0  0  0  0
  -27.6400  -32.5300   25.7370 C   0  0  0  0  0  1  0  0  0  0  0  0
  1  3  2  0
  1  2  1  0
  2  6  2  0
  4  5  1  0
  4  1  1  0
  5  2  1  0
  7  9  1  0
  8 10  2  0
  8 11  1  0
 10 12  1  0
 11  5  1  0
 11  7  2  0
 12 21  1  0
 12  9  2  0
 13 21  1  0
 14 19  1  0
 15 16  1  0
 15 14  1  0
 17 16  1  0
 17 26  1  0
 17 18  1  0
 19 13  1  0
 19 18  1  0
 20 13  2  0
 21 22  1  0
 23 24  2  0
 24 43  1  0
 25 24  1  0
 25 28  1  0
 26 27  1  0
 26 23  1  0
 27 25  2  0
 28 29  1  0
 29 30  2  0
 31 34  1  0
 31 30  1  0
 32 31  2  0
 33 32  1  0
 33 28  2  0
 34 35  1  0
 35 36  1  0
 36 37  2  0
 38 37  1  0
 38 42  1  0
 39 38  2  0
 40 35  2  0
 40 39  1  0
 41 40  1  0
 43 44  1  0
 44 47  1  0
 44 46  1  0
 45 43  2  0
 48 23  1  0
 48 49  1  0
 50 48  1  0
 51  3  1  0
 52 63  2  0
 53 51  1  0
 53 58  1  0
 54 62  1  0
 54 64  1  0
 55 61  1  0
 55 57  1  0
 56 62  1  0
 57 56  1  0
 58 57  2  0
 59 60  1  0
 59 53  2  0
 60 55  2  0
 61 54  1  0
 62 52  1  0
 64 66  2  0
 65 64  1  0
 67 65  1  0
 68 77  2  0
 68 73  1  0
 69 65  1  0
 69 73  1  0
 70 69  1  0
 71 72  1  0
 71 70  1  0
 72 68  1  0
 73 74  2  0
 74 75  1  0
 76 75  2  0
 77 76  1  0
 78 52  1  0
 78 79  1  0
 78 88  1  0
 79 82  1  0
 80 84  1  0
 80 79  1  0
 81 80  2  0
 84 83  1  0
 86 84  1  0
 86 87  1  0
 86 85  1  0
 88 91  1  1
 88 89  1  0
 90 88  1  0
M  ISO  4   3 101  13 100  21 100  51 101
M  END
>  <TORSDO>  (40) 
F 17

>  <SCORE>  (40) 
-13.947

>  <name>  (40) 
39

>  <ligand_id>  (40) 
39

>  <original_smiles>  (40) 
[H]C(Oc1c([H])c([H])c2c(c1[H])C([H])([H])N(C(=O)C([H])(N([H])C(=O)C([H])(N([H])C([H])([H])[H])C([H])([H])[H])C(C([H])([H])[H])(C([H])([H])[H])C([H])([H])[H])C([H])(C(=O)N([H])C1([H])c3c([H])c([H])c([H])c([H])c3C([H])([H])C([H])([H])C1([H])[H])C2([H])[H])=C1C(=O)N(c2c([H])c([H])c(N([H])C(=O)N3C([H])([H])C([H])([H])C([H])([H])C([H])(n4nc(-c5c([H])c([H])c(Oc6c([H])c([H])c(F)c([H])c6F)c([H])c5[H])c(C(=O)N([H])[H])c4N([H])[H])C3([H])[H])c([H])c2[H])C1([H])[H]

>  <smiles>  (40) 
[H]C(Oc1c([H])c([H])c2c(c1[H])C([H])([H])N(C(=O)C([H])(N([H])C(=O)C([H])(N([H])C([H])([H])[H])C([H])([H])[H])C(C([H])([H])[H])(C([H])([H])[H])C([H])([H])[H])C([H])(C(=O)N([H])C1([H])c3c([H])c([H])c([H])c([H])c3C([H])([H])C([H])([H])C1([H])[H])C2([H])[H])=C1C(=O)N(c2c([H])c([H])c(N([H])C(=O)N3C([H])([H])C([H])([H])C([H])([H])C([H])(n4nc(-c5c([H])c([H])c(Oc6c([H])c([H])c(F)c([H])c6F)c([H])c5[H])c(C(=O)N([H])[H])c4N([H])[H])C3([H])[H])c([H])c2[H])C1([H])[H]

$$$$
40:0:0
     RDKit          3D

 95104  0  0  1  0  0  0  0  0999 V2000
  -28.3660  -19.4160   20.1280 C   0  0  0  0  0  3  0  0  0  0  0  0
  -30.7950  -18.2670   20.8120 C   0  0  0  0  0  3  0  0  0  0  0  0
  -29.3620  -20.3580   20.5190 C   0  0  0  0  0  0  0  0  0  0  0  0
  -28.5480  -17.9990   20.0780 C   0  0  0  0  0  0  0  0  0  0  0  0
  -29.7510  -17.3580   20.4710 C   0  0  0  0  0  0  0  0  0  0  0  0
  -30.6050  -19.7010   20.8180 C   0  0  0  0  0  0  0  0  0  0  0  0
  -31.6530  -20.4750   21.1930 F   0  0  0  0  0  0  0  0  0  0  0  0
  -30.5690  -14.8150   20.3900 C   0  0  0  0  0  0  0  0  0  0  0  0
  -30.3920  -12.5410   19.3640 C   0  0  0  0  0  2  0  0  0  0  0  0
  -29.4400  -12.6290   18.1490 C   0  0  0  0  0  2  0  0  0  0  0  0
  -27.9690  -12.4590   18.5840 C   0  0  0  0  0  2  0  0  0  0  0  0
  -27.6040  -13.3340   19.8110 C   0  0  0  0  0  3  0  0  0  0  0  0
  -28.6710  -13.2140   20.9230 C   0  0  0  0  0  2  0  0  0  0  0  0
  -29.9710  -13.5750   20.3320 N   0  0  0  0  0  0  0  0  0  0  0  0
  -31.7530  -14.9600   20.0740 O   0  0  0  0  0  0  0  0  0  0  0  0
  -29.7150  -15.8790   20.5970 N   0  0  0  0  0  0  0  0  0  0  0  0
  -28.7650  -15.5610   20.7220 H   0  0  0  0  0  0  0  0  0  0  0  0
  -25.2150  -13.9320   20.5480 C   0  0  0  0  0  0  0  0  0  0  0  0
  -24.1450  -13.1610   20.9060 C   0  0  0  0  0  0  0  0  0  0  0  0
  -24.6020  -11.8100   20.8620 C   0  0  0  0  0  0  0  0  0  0  0  0
  -26.2570  -13.0530   20.3030 N   0  0  0  0  0  0  0  0  0  0  0  0
  -25.8930  -11.7680   20.5540 N   0  0  0  0  0  0  0  0  0  0  0  0
  -23.8680  -10.5510   21.0410 C   0  0  0  0  0  0  0  0  0  0  0  0
  -24.2890   -9.5770   21.9730 C   0  0  0  0  0  3  0  0  0  0  0  0
  -23.5540   -8.3830   22.1420 C   0  0  0  0  0  3  0  0  0  0  0  0
  -22.3850   -8.1570   21.3780 C   0  0  0  0  0  0  0  0  0  0  0  0
  -21.9830   -9.1200   20.4360 C   0  0  0  0  0  3  0  0  0  0  0  0
  -22.7170  -10.3050   20.2660 C   0  0  0  0  0  3  0  0  0  0  0  0
  -21.6230   -7.0160   21.4550 O   0  0  0  0  0  0  0  0  0  0  0  0
  -21.5560   -6.2730   22.6060 C   0  0  0  0  0  0  0  0  0  0  0  0
  -21.0960   -6.8220   23.8230 C   0  0  0  0  0  3  0  0  0  0  0  0
  -20.9770   -6.0040   24.9650 C   0  0  0  0  0  3  0  0  0  0  0  0
  -21.3100   -4.6380   24.8900 C   0  0  0  0  0  0  0  0  0  0  0  0
  -21.7630   -4.0880   23.6780 C   0  0  0  0  0  3  0  0  0  0  0  0
  -21.8830   -4.9030   22.5380 C   0  0  0  0  0  0  0  0  0  0  0  0
  -22.3000   -4.3640   21.3680 F   0  0  0  0  0  0  0  0  0  0  0  0
  -21.1880   -3.8500   25.9840 F   0  0  0  0  0  0  0  0  0  0  0  0
  -22.7500  -13.6450   21.1810 C   0  0  0  0  0  0  0  0  0  0  0  0
  -22.0170  -12.9450   22.0400 N   0  0  0  0  0  0  0  0  0  0  0  0
  -22.3200  -14.6800   20.6740 O   0  0  0  0  0  0  0  0  0  0  0  0
  -22.3780  -12.1090   22.4740 H   0  0  0  0  0  0  0  0  0  0  0  0
  -21.0820  -13.2510   22.2680 H   0  0  0  0  0  0  0  0  0  0  0  0
  -25.3670  -15.3050   20.4000 N   0  0  0  0  0  0  0  0  0  0  0  0
  -24.5880  -15.9350   20.5530 H   0  0  0  0  0  0  0  0  0  0  0  0
  -26.2220  -15.8130   20.1680 H   0  0  0  0  0  0  0  0  0  0  0  0
  -28.5060  -23.8080   20.5930 C   0  0  0  0  0  0  0  0  0  0  0  0
  -27.8980  -22.5550   21.0270 C   0  0  0  0  0  0  0  0  0  0  0  0
  -27.9470  -25.0800   20.6940 C   0  0  0  0  0  3  0  0  0  0  0  0
  -29.7320  -22.9940   20.0840 C   0  0  0  0  0  2  0  0  0  0  0  0
  -29.0310  -21.8070   20.6610 N   0  0  0  0  0  0  0  0  0  0  0  0
  -26.7940  -22.3180   21.4710 O   0  0  0  0  0  0  0  0  0  0  0  0
  -28.3120  -26.4040   20.2980 O   0  0  0  0  0  0  0  0  0  0  0  0
  -24.5990  -31.9350   23.2290 C   0  0  0  0  0  0  0  0  0  0  0  0
  -27.2530  -27.3410   20.2180 C   0  0  0  0  0  0  0  0  0  0  0  0
  -23.4160  -30.5200   21.5890 C   0  0  0  0  0  3  0  0  0  0  0  0
  -24.8870  -28.9730   20.1740 C   0  0  0  0  0  0  0  0  0  0  0  0
  -25.9580  -30.8400   21.4270 C   0  0  0  0  0  2  0  0  0  0  0  0
  -26.0520  -29.4560   20.7870 C   0  0  0  0  0  0  0  0  0  0  0  0
  -27.2380  -28.6510   20.8040 C   0  0  0  0  0  3  0  0  0  0  0  0
  -26.0720  -26.9370   19.5550 C   0  0  0  0  0  3  0  0  0  0  0  0
  -24.9010  -27.7180   19.5470 C   0  0  0  0  0  3  0  0  0  0  0  0
  -23.6450  -29.8410   20.2130 C   0  0  0  0  0  2  0  0  0  0  0  0
  -24.6760  -31.1170   22.1380 N   0  0  0  0  0  0  0  0  0  0  0  0
  -23.5100  -32.2110   23.7530 O   0  0  0  0  0  0  0  0  0  0  0  0
  -22.7490  -29.5070   22.5510 C   0  0  0  0  0  0  0  0  0  0  0  0
  -21.4230  -29.3280   22.4220 N   0  0  0  0  0  0  0  0  0  0  0  0
  -23.4250  -28.8850   23.3730 O   0  0  0  0  0  0  0  0  0  0  0  0
  -20.9360  -29.8810   21.7300 H   0  0  0  0  0  0  0  0  0  0  0  0
  -18.0390  -28.1520   22.9450 C   0  0  0  0  0  0  0  0  0  0  0  0
  -20.6020  -28.3920   23.1940 C   0  0  0  0  0  3  0  0  0  0  0  0
  -20.6890  -26.9630   22.6120 C   0  0  0  0  0  2  0  0  0  0  0  0
  -19.5770  -26.6530   21.6040 C   0  0  0  0  0  2  0  0  0  0  0  0
  -18.2010  -26.8050   22.2610 C   0  0  0  0  0  2  0  0  0  0  0  0
  -19.1670  -28.9040   23.3690 C   0  0  0  0  0  0  0  0  0  0  0  0
  -18.9620  -30.1650   23.9710 C   0  0  0  0  0  3  0  0  0  0  0  0
  -17.6620  -30.6740   24.1500 C   0  0  0  0  0  3  0  0  0  0  0  0
  -16.5490  -29.9190   23.7410 C   0  0  0  0  0  3  0  0  0  0  0  0
  -16.7390  -28.6590   23.1440 C   0  0  0  0  0  3  0  0  0  0  0  0
  -25.8730  -32.5790   23.8550 C   0  0  0  0  0  3  0  0  0  0  0  0
  -25.5490  -33.9740   24.1860 N   0  0  0  0  0  0  0  0  0  0  0  0
  -25.8670  -35.0310   23.4280 C   0  0  0  0  0  0  0  0  0  0  0  0
  -26.5320  -34.9360   22.3930 O   0  0  0  0  0  0  0  0  0  0  0  0
  -24.9580  -34.1220   24.9910 H   0  0  0  0  0  0  0  0  0  0  0  0
  -24.1210  -36.8110   23.0810 C   0  0  0  0  0  1  0  0  0  0  0  0
  -25.3680  -36.4150   23.8890 C   0  0  0  0  0  3  0  0  0  0  0  0
  -27.4930  -37.3220   24.7210 C   0  0  0  0  0  1  0  0  0  0  0  0
  -26.3910  -37.4770   23.7750 N   0  0  0  0  0  0  0  0  0  0  0  0
  -25.9760  -38.3950   23.9200 H   0  0  0  0  0  0  0  0  0  0  0  0
  -26.3920  -31.8120   25.1330 C   0  0  1  0  0  0  0  0  0  0  0  0
  -25.2950  -31.5610   26.1960 C   0  0  0  0  0  1  0  0  0  0  0  0
  -26.9920  -30.4410   24.7460 C   0  0  0  0  0  1  0  0  0  0  0  0
  -27.5300  -32.6180   25.8020 C   0  0  0  0  0  1  0  0  0  0  0  0
  -27.5080  -17.2000   19.6080 N   0  0  0  0  0  0  0  0  0  0  0  0
  -26.7350  -17.7210   19.2050 H   0  0  0  0  0  0  0  0  0  0  0  0
  -27.8230  -16.5070   18.9380 H   0  0  0  0  0  0  0  0  0  0  0  0
  1  3  1  0
  2  6  1  0
  3 50  1  0
  3  6  2  0
  4  1  2  0
  4  5  1  0
  5 16  1  0
  5  2  2  0
  6  7  1  0
  8 16  1  0
  9 14  1  0
 10 11  1  0
 10  9  1  0
 12 11  1  0
 12 21  1  0
 12 13  1  0
 14  8  1  0
 14 13  1  0
 15  8  2  0
 16 17  1  0
 18 19  2  0
 19 38  1  0
 20 19  1  0
 20 23  1  0
 21 18  1  0
 21 22  1  0
 22 20  2  0
 23 24  1  0
 24 25  2  0
 26 29  1  0
 26 25  1  0
 27 26  2  0
 28 27  1  0
 28 23  2  0
 29 30  1  0
 30 31  1  0
 31 32  2  0
 33 32  1  0
 33 37  1  0
 34 33  2  0
 35 30  2  0
 35 34  1  0
 36 35  1  0
 38 39  1  0
 39 42  1  0
 39 41  1  0
 40 38  2  0
 43 18  1  0
 43 44  1  0
 45 43  1  0
 46 48  2  0
 46 47  1  0
 47 51  2  0
 49 46  1  0
 49 50  1  0
 50 47  1  0
 52 48  1  0
 53 64  2  0
 54 52  1  0
 54 59  1  0
 55 63  1  0
 55 65  1  0
 56 62  1  0
 56 58  1  0
 57 63  1  0
 58 59  2  0
 58 57  1  0
 60 54  2  0
 61 60  1  0
 61 56  2  0
 62 55  1  0
 63 53  1  0
 65 67  2  0
 66 65  1  0
 68 66  1  0
 69 78  2  0
 69 74  1  0
 70 66  1  0
 70 74  1  0
 71 70  1  0
 72 73  1  0
 72 71  1  0
 73 69  1  0
 74 75  2  0
 75 76  1  0
 77 76  2  0
 78 77  1  0
 79 53  1  0
 79 80  1  0
 79 89  1  0
 80 83  1  0
 81 85  1  0
 81 80  1  0
 82 81  2  0
 85 84  1  0
 87 85  1  0
 87 88  1  0
 87 86  1  0
 89 92  1  1
 89 90  1  0
 91 89  1  0
 93  4  1  0
 94 93  1  0
 95 93  1  0
M  ISO  4   8 100  16 100  48 101  52 101
M  END
>  <TORSDO>  (41) 
F 18

>  <SCORE>  (41) 
-15.276

>  <name>  (41) 
40

>  <ligand_id>  (41) 
40

>  <original_smiles>  (41) 
[H]C(Oc1c([H])c([H])c2c(c1[H])C([H])([H])N(C(=O)C([H])(N([H])C(=O)C([H])(N([H])C([H])([H])[H])C([H])([H])[H])C(C([H])([H])[H])(C([H])([H])[H])C([H])([H])[H])C([H])(C(=O)N([H])C1([H])c3c([H])c([H])c([H])c([H])c3C([H])([H])C([H])([H])C1([H])[H])C2([H])[H])=C1C(=O)N(c2c([H])c(N([H])[H])c(N([H])C(=O)N3C([H])([H])C([H])([H])C([H])([H])C([H])(n4nc(-c5c([H])c([H])c(Oc6c([H])c([H])c(F)c([H])c6F)c([H])c5[H])c(C(=O)N([H])[H])c4N([H])[H])C3([H])[H])c([H])c2F)C1([H])[H]

>  <smiles>  (41) 
[H]C(Oc1c([H])c([H])c2c(c1[H])C([H])([H])N(C(=O)C([H])(N([H])C(=O)C([H])(N([H])C([H])([H])[H])C([H])([H])[H])C(C([H])([H])[H])(C([H])([H])[H])C([H])([H])[H])C([H])(C(=O)N([H])C1([H])c3c([H])c([H])c([H])c([H])c3C([H])([H])C([H])([H])C1([H])[H])C2([H])[H])=C1C(=O)N(c2c([H])c(N([H])[H])c(N([H])C(=O)N3C([H])([H])C([H])([H])C([H])([H])C([H])(n4nc(-c5c([H])c([H])c(Oc6c([H])c([H])c(F)c([H])c6F)c([H])c5[H])c(C(=O)N([H])[H])c4N([H])[H])C3([H])[H])c([H])c2F)C1([H])[H]

$$$$
41:0:0
     RDKit          3D

 95103  0  0  1  0  0  0  0  0999 V2000
  -28.7890  -20.5860   20.7940 C   0  0  0  0  0  0  0  0  0  0  0  0
  -28.3260  -22.9870   20.8420 C   0  0  0  0  0  0  0  0  0  0  0  0
  -29.0850  -21.8950   20.5550 N   0  0  0  0  0  0  0  0  0  0  0  0
  -27.6710  -20.1840   21.1370 O   0  0  0  0  0  0  0  0  0  0  0  0
  -27.2540  -22.9180   21.4570 O   0  0  0  0  0  0  0  0  0  0  0  0
  -29.9760  -22.1030   20.1320 H   0  0  0  0  0  0  0  0  0  0  0  0
  -32.2510  -18.9320   20.5580 C   0  0  0  0  0  3  0  0  0  0  0  0
  -31.2420  -19.9140   20.6040 C   0  0  0  0  0  3  0  0  0  0  0  0
  -31.9230  -17.5630   20.5250 C   0  0  0  0  0  3  0  0  0  0  0  0
  -29.5650  -18.1430   20.5730 C   0  0  0  0  0  3  0  0  0  0  0  0
  -29.8800  -19.5390   20.6150 C   0  0  0  0  0  0  0  0  0  0  0  0
  -30.5730  -17.1350   20.5170 C   0  0  0  0  0  0  0  0  0  0  0  0
  -30.8970  -14.6690   20.0150 C   0  0  0  0  0  0  0  0  0  0  0  0
  -30.5630  -12.4670   18.9380 C   0  0  0  0  0  2  0  0  0  0  0  0
  -29.5620  -12.6230   17.7750 C   0  0  0  0  0  2  0  0  0  0  0  0
  -28.1160  -12.4660   18.2810 C   0  0  0  0  0  2  0  0  0  0  0  0
  -27.8250  -13.3270   19.5400 C   0  0  0  0  0  3  0  0  0  0  0  0
  -28.9410  -13.1720   20.6000 C   0  0  0  0  0  2  0  0  0  0  0  0
  -30.2240  -13.4830   19.9530 N   0  0  0  0  0  0  0  0  0  0  0  0
  -32.0110  -14.7990   19.5030 O   0  0  0  0  0  0  0  0  0  0  0  0
  -30.2050  -15.7330   20.5040 N   0  0  0  0  0  0  0  0  0  0  0  0
  -29.2670  -15.5170   20.8010 H   0  0  0  0  0  0  0  0  0  0  0  0
  -25.4790  -13.9140   20.4140 C   0  0  0  0  0  0  0  0  0  0  0  0
  -24.4320  -13.1330   20.8230 C   0  0  0  0  0  0  0  0  0  0  0  0
  -24.8840  -11.7810   20.7210 C   0  0  0  0  0  0  0  0  0  0  0  0
  -26.5040  -13.0370   20.0940 N   0  0  0  0  0  0  0  0  0  0  0  0
  -26.1530  -11.7480   20.3360 N   0  0  0  0  0  0  0  0  0  0  0  0
  -24.1640  -10.5160   20.9120 C   0  0  0  0  0  0  0  0  0  0  0  0
  -24.5780   -9.5690   21.8750 C   0  0  0  0  0  3  0  0  0  0  0  0
  -23.8580   -8.3670   22.0550 C   0  0  0  0  0  3  0  0  0  0  0  0
  -22.7100   -8.1050   21.2700 C   0  0  0  0  0  0  0  0  0  0  0  0
  -22.3150   -9.0410   20.2980 C   0  0  0  0  0  3  0  0  0  0  0  0
  -23.0350  -10.2330   20.1180 C   0  0  0  0  0  3  0  0  0  0  0  0
  -21.9640   -6.9540   21.3570 O   0  0  0  0  0  0  0  0  0  0  0  0
  -21.7970   -6.2920   22.5470 C   0  0  0  0  0  0  0  0  0  0  0  0
  -21.1640   -6.8980   23.6540 C   0  0  0  0  0  3  0  0  0  0  0  0
  -20.9510   -6.1570   24.8340 C   0  0  0  0  0  3  0  0  0  0  0  0
  -21.3620   -4.8130   24.9070 C   0  0  0  0  0  0  0  0  0  0  0  0
  -21.9890   -4.2070   23.8040 C   0  0  0  0  0  3  0  0  0  0  0  0
  -22.2030   -4.9450   22.6250 C   0  0  0  0  0  0  0  0  0  0  0  0
  -22.7880   -4.3500   21.5580 F   0  0  0  0  0  0  0  0  0  0  0  0
  -21.1520   -4.0990   26.0370 F   0  0  0  0  0  0  0  0  0  0  0  0
  -23.0560  -13.6050   21.1930 C   0  0  0  0  0  0  0  0  0  0  0  0
  -22.3760  -12.8820   22.0770 N   0  0  0  0  0  0  0  0  0  0  0  0
  -22.5930  -14.6490   20.7330 O   0  0  0  0  0  0  0  0  0  0  0  0
  -22.7650  -12.0380   22.4680 H   0  0  0  0  0  0  0  0  0  0  0  0
  -21.4560  -13.1790   22.3670 H   0  0  0  0  0  0  0  0  0  0  0  0
  -25.6400  -15.2880   20.2680 N   0  0  0  0  0  0  0  0  0  0  0  0
  -24.8810  -15.9400   20.4370 H   0  0  0  0  0  0  0  0  0  0  0  0
  -26.4610  -15.7340   19.8790 H   0  0  0  0  0  0  0  0  0  0  0  0
  -28.1890  -25.4190   20.6290 C   0  0  0  0  0  3  0  0  0  0  0  0
  -28.8780  -24.2750   20.3640 C   0  0  0  0  0  0  0  0  0  0  0  0
  -30.0240  -24.3040   19.6690 O   0  0  0  0  0  0  0  0  0  0  0  0
  -30.1880  -25.2150   19.4570 H   0  0  0  0  0  0  0  0  0  0  0  0
  -28.4870  -26.7150   20.2120 O   0  0  0  0  0  0  0  0  0  0  0  0
  -24.6290  -31.9280   23.2430 C   0  0  0  0  0  0  0  0  0  0  0  0
  -27.3830  -27.5520   20.1330 C   0  0  0  0  0  0  0  0  0  0  0  0
  -23.4820  -30.5560   21.5370 C   0  0  0  0  0  3  0  0  0  0  0  0
  -24.9890  -29.0740   20.1060 C   0  0  0  0  0  0  0  0  0  0  0  0
  -26.0140  -30.9330   21.4190 C   0  0  0  0  0  2  0  0  0  0  0  0
  -26.1300  -29.5790   20.7440 C   0  0  0  0  0  0  0  0  0  0  0  0
  -27.3340  -28.8240   20.7570 C   0  0  0  0  0  3  0  0  0  0  0  0
  -26.2300  -27.0880   19.4610 C   0  0  0  0  0  3  0  0  0  0  0  0
  -25.0370  -27.8300   19.4570 C   0  0  0  0  0  3  0  0  0  0  0  0
  -23.7350  -29.9190   20.1460 C   0  0  0  0  0  2  0  0  0  0  0  0
  -24.7250  -31.1530   22.1250 N   0  0  0  0  0  0  0  0  0  0  0  0
  -23.5320  -32.1760   23.7610 O   0  0  0  0  0  0  0  0  0  0  0  0
  -22.8160  -29.5040   22.4540 C   0  0  0  0  0  0  0  0  0  0  0  0
  -21.4950  -29.3160   22.2940 N   0  0  0  0  0  0  0  0  0  0  0  0
  -23.4840  -28.8620   23.2690 O   0  0  0  0  0  0  0  0  0  0  0  0
  -21.0160  -29.8880   21.6130 H   0  0  0  0  0  0  0  0  0  0  0  0
  -18.1060  -28.1430   22.7470 C   0  0  0  0  0  0  0  0  0  0  0  0
  -20.6680  -28.3530   23.0210 C   0  0  0  0  0  3  0  0  0  0  0  0
  -20.7490  -26.9520   22.3750 C   0  0  0  0  0  2  0  0  0  0  0  0
  -19.6400  -26.6940   21.3510 C   0  0  0  0  0  2  0  0  0  0  0  0
  -18.2620  -26.8250   22.0070 C   0  0  0  0  0  2  0  0  0  0  0  0
  -19.2360  -28.8680   23.2090 C   0  0  0  0  0  0  0  0  0  0  0  0
  -19.0360  -30.1050   23.8620 C   0  0  0  0  0  3  0  0  0  0  0  0
  -17.7390  -30.6140   24.0560 C   0  0  0  0  0  3  0  0  0  0  0  0
  -16.6230  -29.8860   23.6100 C   0  0  0  0  0  3  0  0  0  0  0  0
  -16.8070  -28.6520   22.9610 C   0  0  0  0  0  3  0  0  0  0  0  0
  -25.8910  -32.5570   23.9100 C   0  0  0  0  0  3  0  0  0  0  0  0
  -26.3560  -31.7890   25.2090 C   0  0  1  0  0  0  0  0  0  0  0  0
  -25.2170  -31.5430   26.2260 C   0  0  0  0  0  1  0  0  0  0  0  0
  -26.9660  -30.4170   24.8410 C   0  0  0  0  0  1  0  0  0  0  0  0
  -27.4700  -32.5910   25.9210 C   0  0  0  0  0  1  0  0  0  0  0  0
  -25.5760  -33.9590   24.2210 N   0  0  0  0  0  0  0  0  0  0  0  0
  -25.9220  -35.0030   23.4560 C   0  0  0  0  0  0  0  0  0  0  0  0
  -26.6090  -34.8880   22.4380 O   0  0  0  0  0  0  0  0  0  0  0  0
  -24.9670  -34.1210   25.0090 H   0  0  0  0  0  0  0  0  0  0  0  0
  -24.1980  -36.7880   23.0510 C   0  0  0  0  0  1  0  0  0  0  0  0
  -25.4250  -36.3950   23.8890 C   0  0  0  0  0  3  0  0  0  0  0  0
  -27.5370  -37.3000   24.7570 C   0  0  0  0  0  1  0  0  0  0  0  0
  -26.4590  -37.4480   23.7810 N   0  0  0  0  0  0  0  0  0  0  0  0
  -26.0480  -38.3700   23.8990 H   0  0  0  0  0  0  0  0  0  0  0  0
  1  4  2  0
  2  5  2  0
  3  1  1  0
  3  2  1  0
  6  3  1  0
  7  8  1  0
  8 11  2  0
  9  7  2  0
 10 11  1  0
 11  1  1  0
 12  9  1  0
 12 10  2  0
 13 21  1  0
 14 19  1  0
 15 16  1  0
 15 14  1  0
 17 16  1  0
 17 26  1  0
 17 18  1  0
 19 13  1  0
 19 18  1  0
 20 13  2  0
 21 12  1  0
 21 22  1  0
 23 24  2  0
 24 43  1  0
 25 24  1  0
 25 28  1  0
 26 27  1  0
 26 23  1  0
 27 25  2  0
 28 29  1  0
 29 30  2  0
 31 34  1  0
 31 30  1  0
 32 31  2  0
 33 32  1  0
 33 28  2  0
 34 35  1  0
 35 40  2  0
 35 36  1  0
 36 37  2  0
 37 38  1  0
 38 42  1  0
 39 38  2  0
 40 39  1  0
 41 40  1  0
 43 44  1  0
 44 47  1  0
 44 46  1  0
 45 43  2  0
 48 23  1  0
 48 49  1  0
 50 48  1  0
 52 51  2  0
 52  2  1  0
 53 52  1  0
 54 53  1  0
 55 51  1  0
 56 67  2  0
 57 55  1  0
 57 62  1  0
 58 66  1  0
 58 68  1  0
 59 65  1  0
 59 61  1  0
 60 66  1  0
 61 62  2  0
 61 60  1  0
 63 57  2  0
 64 63  1  0
 64 59  2  0
 65 58  1  0
 66 56  1  0
 68 70  2  0
 69 68  1  0
 71 69  1  0
 72 81  2  0
 72 77  1  0
 73 69  1  0
 73 77  1  0
 74 73  1  0
 75 76  1  0
 75 74  1  0
 76 72  1  0
 77 78  2  0
 78 79  1  0
 80 79  2  0
 81 80  1  0
 82 56  1  0
 82 87  1  0
 82 83  1  0
 83 86  1  1
 83 84  1  0
 85 83  1  0
 87 90  1  0
 88 92  1  0
 88 87  1  0
 89 88  2  0
 92 91  1  0
 94 92  1  0
 94 95  1  0
 94 93  1  0
M  ISO  4  13 100  21 100  51 101  55 101
M  END
>  <TORSDO>  (42) 
F 19

>  <SCORE>  (42) 
-14.055

>  <name>  (42) 
41

>  <ligand_id>  (42) 
41

>  <original_smiles>  (42) 
[H]OC(C(=O)N([H])C(=O)c1c([H])c([H])c([H])c(N([H])C(=O)N2C([H])([H])C([H])([H])C([H])([H])C([H])(n3nc(-c4c([H])c([H])c(Oc5c([H])c([H])c(F)c([H])c5F)c([H])c4[H])c(C(=O)N([H])[H])c3N([H])[H])C2([H])[H])c1[H])=C([H])Oc1c([H])c([H])c2c(c1[H])C([H])([H])N(C(=O)C([H])(N([H])C(=O)C([H])(N([H])C([H])([H])[H])C([H])([H])[H])C(C([H])([H])[H])(C([H])([H])[H])C([H])([H])[H])C([H])(C(=O)N([H])C1([H])c3c([H])c([H])c([H])c([H])c3C([H])([H])C([H])([H])C1([H])[H])C2([H])[H]

>  <smiles>  (42) 
[H]OC(C(=O)N([H])C(=O)c1c([H])c([H])c([H])c(N([H])C(=O)N2C([H])([H])C([H])([H])C([H])([H])C([H])(n3nc(-c4c([H])c([H])c(Oc5c([H])c([H])c(F)c([H])c5F)c([H])c4[H])c(C(=O)N([H])[H])c3N([H])[H])C2([H])[H])c1[H])=C([H])Oc1c([H])c([H])c2c(c1[H])C([H])([H])N(C(=O)C([H])(N([H])C(=O)C([H])(N([H])C([H])([H])[H])C([H])([H])[H])C(C([H])([H])[H])(C([H])([H])[H])C([H])([H])[H])C([H])(C(=O)N([H])C1([H])c3c([H])c([H])c([H])c([H])c3C([H])([H])C([H])([H])C1([H])[H])C2([H])[H]

$$$$
42:0:0
     RDKit          3D

 97106  0  0  1  0  0  0  0  0999 V2000
  -28.6900  -24.6450   17.8770 C   0  0  0  0  0  3  0  0  0  0  0  0
  -28.8240  -24.4010   19.1940 C   0  0  0  0  0  0  0  0  0  0  0  0
  -29.3290  -23.1220   19.6630 C   0  0  0  0  0  0  0  0  0  0  0  0
  -28.9850  -23.6250   16.8060 C   0  0  0  0  0  2  0  0  0  0  0  0
  -28.9790  -22.1860   17.3590 C   0  0  0  0  0  2  0  0  0  0  0  0
  -29.1960  -22.0670   18.8130 N   0  0  0  0  0  0  0  0  0  0  0  0
  -29.8300  -22.9950   20.7880 O   0  0  0  0  0  0  0  0  0  0  0  0
  -30.5890  -18.7610   19.8910 C   0  0  0  0  0  3  0  0  0  0  0  0
  -28.4930  -19.1780   21.0420 C   0  0  0  0  0  3  0  0  0  0  0  0
  -30.4110  -19.9380   19.1310 C   0  0  0  0  0  3  0  0  0  0  0  0
  -28.3010  -20.3440   20.2880 C   0  0  0  0  0  3  0  0  0  0  0  0
  -29.6560  -18.4000   20.8960 C   0  0  0  0  0  0  0  0  0  0  0  0
  -29.2930  -20.7640   19.3740 C   0  0  0  0  0  0  0  0  0  0  0  0
  -29.8200  -17.3230   21.8940 C   0  0  0  0  0  3  0  0  0  0  0  0
  -30.6050  -16.2280   21.9370 C   0  0  0  0  0  3  0  0  0  0  0  0
  -31.4520  -13.8990   19.3990 C   0  0  0  0  0  0  0  0  0  0  0  0
  -30.8190  -11.8230   18.2240 C   0  0  0  0  0  2  0  0  0  0  0  0
  -29.6440  -12.0500   17.2520 C   0  0  0  0  0  2  0  0  0  0  0  0
  -28.2820  -11.9820   17.9700 C   0  0  0  0  0  2  0  0  0  0  0  0
  -28.2460  -12.8430   19.2580 C   0  0  0  0  0  3  0  0  0  0  0  0
  -29.4750  -12.5140   20.1300 C   0  0  0  0  0  2  0  0  0  0  0  0
  -30.6920  -12.7770   19.3270 N   0  0  0  0  0  0  0  0  0  0  0  0
  -32.3610  -14.1660   18.6030 O   0  0  0  0  0  0  0  0  0  0  0  0
  -31.5270  -15.8180   20.9020 C   0  0  0  0  0  0  0  0  0  0  0  0
  -31.0750  -14.6630   20.4220 N   0  0  0  0  0  0  0  0  0  0  0  0
  -32.5370  -16.4230   20.5340 O   0  0  0  0  0  0  0  0  0  0  0  0
  -30.2670  -14.3110   20.9010 H   0  0  0  0  0  0  0  0  0  0  0  0
  -26.1630  -13.6020   20.5710 C   0  0  0  0  0  0  0  0  0  0  0  0
  -25.0990  -12.8970   21.0710 C   0  0  0  0  0  0  0  0  0  0  0  0
  -25.3520  -11.5260   20.7580 C   0  0  0  0  0  0  0  0  0  0  0  0
  -26.9990  -12.6570   19.9920 N   0  0  0  0  0  0  0  0  0  0  0  0
  -26.5240  -11.3970   20.1560 N   0  0  0  0  0  0  0  0  0  0  0  0
  -24.5180  -10.3320   20.9410 C   0  0  0  0  0  0  0  0  0  0  0  0
  -24.8970   -9.2960   21.8220 C   0  0  0  0  0  3  0  0  0  0  0  0
  -24.0690   -8.1660   21.9940 C   0  0  0  0  0  3  0  0  0  0  0  0
  -22.8490   -8.0640   21.2840 C   0  0  0  0  0  0  0  0  0  0  0  0
  -22.4880   -9.0880   20.3910 C   0  0  0  0  0  3  0  0  0  0  0  0
  -23.3160  -10.2110   20.2170 C   0  0  0  0  0  3  0  0  0  0  0  0
  -21.9930   -6.9940   21.3700 O   0  0  0  0  0  0  0  0  0  0  0  0
  -21.7750   -6.3360   22.5550 C   0  0  0  0  0  0  0  0  0  0  0  0
  -21.2940   -7.0070   23.7020 C   0  0  0  0  0  3  0  0  0  0  0  0
  -21.0210   -6.2810   24.8770 C   0  0  0  0  0  3  0  0  0  0  0  0
  -21.2200   -4.8880   24.9070 C   0  0  0  0  0  0  0  0  0  0  0  0
  -21.6950   -4.2190   23.7660 C   0  0  0  0  0  3  0  0  0  0  0  0
  -21.9710   -4.9410   22.5920 C   0  0  0  0  0  0  0  0  0  0  0  0
  -22.4070   -4.2890   21.4870 F   0  0  0  0  0  0  0  0  0  0  0  0
  -20.9500   -4.1890   26.0350 F   0  0  0  0  0  0  0  0  0  0  0  0
  -23.8730  -13.4690   21.7210 C   0  0  0  0  0  0  0  0  0  0  0  0
  -23.3200  -12.7650   22.7050 N   0  0  0  0  0  0  0  0  0  0  0  0
  -23.4290  -14.5690   21.3960 O   0  0  0  0  0  0  0  0  0  0  0  0
  -23.6910  -11.8690   22.9810 H   0  0  0  0  0  0  0  0  0  0  0  0
  -22.5120  -13.1280   23.1870 H   0  0  0  0  0  0  0  0  0  0  0  0
  -26.4790  -14.9580   20.5390 N   0  0  0  0  0  0  0  0  0  0  0  0
  -25.8720  -15.6670   20.9320 H   0  0  0  0  0  0  0  0  0  0  0  0
  -27.3080  -15.3460   20.1070 H   0  0  0  0  0  0  0  0  0  0  0  0
  -28.4390  -25.3920   20.2820 C   0  0  0  0  0  2  0  0  0  0  0  0
  -28.4600  -26.7360   19.8450 O   0  0  0  0  0  0  0  0  0  0  0  0
  -24.4950  -31.7250   22.9550 C   0  0  0  0  0  0  0  0  0  0  0  0
  -27.2520  -27.3810   19.8760 C   0  0  0  0  0  0  0  0  0  0  0  0
  -23.3360  -30.3340   21.2670 C   0  0  0  0  0  3  0  0  0  0  0  0
  -24.8320  -28.8150   19.8690 C   0  0  0  0  0  0  0  0  0  0  0  0
  -25.8560  -30.7170   21.1310 C   0  0  0  0  0  2  0  0  0  0  0  0
  -25.9670  -29.3550   20.4900 C   0  0  0  0  0  0  0  0  0  0  0  0
  -27.1790  -28.6410   20.4930 C   0  0  0  0  0  3  0  0  0  0  0  0
  -26.1000  -26.8320   19.2690 C   0  0  0  0  0  3  0  0  0  0  0  0
  -24.8910  -27.5530   19.2540 C   0  0  0  0  0  3  0  0  0  0  0  0
  -23.5810  -29.6610   19.8900 C   0  0  0  0  0  2  0  0  0  0  0  0
  -24.5800  -30.9380   21.8450 N   0  0  0  0  0  0  0  0  0  0  0  0
  -23.4000  -31.9840   23.4710 O   0  0  0  0  0  0  0  0  0  0  0  0
  -22.6680  -29.3000   22.2010 C   0  0  0  0  0  0  0  0  0  0  0  0
  -21.3320  -29.1990   22.1130 N   0  0  0  0  0  0  0  0  0  0  0  0
  -23.3420  -28.5950   22.9590 O   0  0  0  0  0  0  0  0  0  0  0  0
  -20.8520  -29.8200   21.4750 H   0  0  0  0  0  0  0  0  0  0  0  0
  -17.9030  -28.2590   22.7600 C   0  0  0  0  0  0  0  0  0  0  0  0
  -20.4870  -28.2670   22.8590 C   0  0  0  0  0  3  0  0  0  0  0  0
  -20.4170  -26.8920   22.1570 C   0  0  0  0  0  2  0  0  0  0  0  0
  -19.2230  -26.7580   21.2070 C   0  0  0  0  0  2  0  0  0  0  0  0
  -17.9080  -26.9640   21.9640 C   0  0  0  0  0  2  0  0  0  0  0  0
  -19.1140  -28.8770   23.1670 C   0  0  0  0  0  0  0  0  0  0  0  0
  -19.0530  -30.0980   23.8740 C   0  0  0  0  0  3  0  0  0  0  0  0
  -17.8150  -30.6960   24.1740 C   0  0  0  0  0  3  0  0  0  0  0  0
  -16.6190  -30.0710   23.7810 C   0  0  0  0  0  3  0  0  0  0  0  0
  -16.6650  -28.8530   23.0820 C   0  0  0  0  0  3  0  0  0  0  0  0
  -25.7630  -32.3500   23.6170 C   0  0  0  0  0  3  0  0  0  0  0  0
  -26.2940  -31.5160   24.8450 C   0  0  1  0  0  0  0  0  0  0  0  0
  -25.2040  -31.1920   25.8960 C   0  0  0  0  0  1  0  0  0  0  0  0
  -26.9060  -30.1810   24.3650 C   0  0  0  0  0  1  0  0  0  0  0  0
  -27.4320  -32.2910   25.5510 C   0  0  0  0  0  1  0  0  0  0  0  0
  -25.4220  -33.7190   24.0260 N   0  0  0  0  0  0  0  0  0  0  0  0
  -25.7280  -34.8190   23.3230 C   0  0  0  0  0  0  0  0  0  0  0  0
  -26.3970  -34.7850   22.2870 O   0  0  0  0  0  0  0  0  0  0  0  0
  -24.8250  -33.8140   24.8350 H   0  0  0  0  0  0  0  0  0  0  0  0
  -23.9530  -36.5780   23.0630 C   0  0  0  0  0  1  0  0  0  0  0  0
  -25.2060  -36.1670   23.8520 C   0  0  0  0  0  3  0  0  0  0  0  0
  -27.3160  -37.0630   24.7330 C   0  0  0  0  0  1  0  0  0  0  0  0
  -26.2140  -37.2500   23.7920 N   0  0  0  0  0  0  0  0  0  0  0  0
  -25.7870  -38.1540   23.9780 H   0  0  0  0  0  0  0  0  0  0  0  0
  1  2  2  0
  2  3  1  0
  2 56  1  0
  3  7  2  0
  4  5  1  0
  4  1  1  0
  5  6  1  0
  6 13  1  0
  6  3  1  0
  8 12  1  0
 10 13  1  0
 10  8  2  0
 11  9  1  0
 12  9  2  0
 12 14  1  0
 13 11  2  0
 14 15  2  0
 16 25  1  0
 17 22  1  0
 18 19  1  0
 18 17  1  0
 20 19  1  0
 20 31  1  0
 20 21  1  0
 22 16  1  0
 22 21  1  0
 23 16  2  0
 24 15  1  0
 25 27  1  0
 25 24  1  0
 26 24  2  0
 28 29  2  0
 29 48  1  0
 30 33  1  0
 30 29  1  0
 31 32  1  0
 31 28  1  0
 32 30  2  0
 33 34  1  0
 34 35  2  0
 36 39  1  0
 36 35  1  0
 37 36  2  0
 38 37  1  0
 38 33  2  0
 39 40  1  0
 40 45  2  0
 40 41  1  0
 41 42  2  0
 42 43  1  0
 43 47  1  0
 44 43  2  0
 45 44  1  0
 46 45  1  0
 48 49  1  0
 49 51  1  0
 49 52  1  0
 50 48  2  0
 53 28  1  0
 53 54  1  0
 55 53  1  0
 57 59  1  0
 57 56  1  0
 58 69  2  0
 59 64  1  0
 60 68  1  0
 60 70  1  0
 61 67  1  0
 61 63  1  0
 62 68  1  0
 63 64  2  0
 63 62  1  0
 65 59  2  0
 66 65  1  0
 66 61  2  0
 67 60  1  0
 68 58  1  0
 70 72  2  0
 71 70  1  0
 73 71  1  0
 74 83  2  0
 74 79  1  0
 75 71  1  0
 75 79  1  0
 76 75  1  0
 77 78  1  0
 77 76  1  0
 78 74  1  0
 79 80  2  0
 80 81  1  0
 82 81  2  0
 83 82  1  0
 84 58  1  0
 84 89  1  0
 84 85  1  0
 85 88  1  1
 85 86  1  0
 87 85  1  0
 89 92  1  0
 90 94  1  0
 90 89  1  0
 91 90  2  0
 94 93  1  0
 96 94  1  0
 96 97  1  0
 96 95  1  0
M  ISO  4  16 100  25 100  56 101  57 101
M  END
>  <TORSDO>  (43) 
F 19

>  <SCORE>  (43) 
-11.466

>  <name>  (43) 
42

>  <ligand_id>  (43) 
42

>  <original_smiles>  (43) 
[H]C(C(=O)N([H])C(=O)N1C([H])([H])C([H])([H])C([H])([H])C([H])(n2nc(-c3c([H])c([H])c(Oc4c([H])c([H])c(F)c([H])c4F)c([H])c3[H])c(C(=O)N([H])[H])c2N([H])[H])C1([H])[H])=C([H])c1c([H])c([H])c(N2C(=O)C(C([H])([H])Oc3c([H])c([H])c4c(c3[H])C([H])([H])N(C(=O)C([H])(N([H])C(=O)C([H])(N([H])C([H])([H])[H])C([H])([H])[H])C(C([H])([H])[H])(C([H])([H])[H])C([H])([H])[H])C([H])(C(=O)N([H])C3([H])c5c([H])c([H])c([H])c([H])c5C([H])([H])C([H])([H])C3([H])[H])C4([H])[H])=C([H])C([H])([H])C2([H])[H])c([H])c1[H]

>  <smiles>  (43) 
[H]C(C(=O)N([H])C(=O)N1C([H])([H])C([H])([H])C([H])([H])C([H])(n2nc(-c3c([H])c([H])c(Oc4c([H])c([H])c(F)c([H])c4F)c([H])c3[H])c(C(=O)N([H])[H])c2N([H])[H])C1([H])[H])=C([H])c1c([H])c([H])c(N2C(=O)C(C([H])([H])Oc3c([H])c([H])c4c(c3[H])C([H])([H])N(C(=O)C([H])(N([H])C(=O)C([H])(N([H])C([H])([H])[H])C([H])([H])[H])C(C([H])([H])[H])(C([H])([H])[H])C([H])([H])[H])C([H])(C(=O)N([H])C3([H])c5c([H])c([H])c([H])c([H])c5C([H])([H])C([H])([H])C3([H])[H])C4([H])[H])=C([H])C([H])([H])C2([H])[H])c([H])c1[H]

$$$$
43:0:0
     RDKit          3D

 93102  0  0  1  0  0  0  0  0999 V2000
  -28.4140  -23.5720   19.7200 C   0  0  0  0  0  0  0  0  0  0  0  0
  -27.7820  -22.6000   18.8210 C   0  0  0  0  0  0  0  0  0  0  0  0
  -29.3030  -22.6960   20.5740 C   0  0  0  0  0  0  0  0  0  0  0  0
  -28.0370  -24.9380   19.5730 C   0  0  0  0  0  3  0  0  0  0  0  0
  -28.2630  -21.1900   19.1120 C   0  0  0  0  0  2  0  0  0  0  0  0
  -29.1890  -21.3240   20.2250 N   0  0  0  0  0  0  0  0  0  0  0  0
  -26.9210  -22.8250   17.9610 O   0  0  0  0  0  0  0  0  0  0  0  0
  -30.0720  -23.1180   21.4440 O   0  0  0  0  0  0  0  0  0  0  0  0
  -31.7150  -18.9610   21.9350 C   0  0  0  0  0  3  0  0  0  0  0  0
  -31.0110  -20.1180   21.5310 C   0  0  0  0  0  3  0  0  0  0  0  0
  -31.3140  -17.6620   21.5650 C   0  0  0  0  0  3  0  0  0  0  0  0
  -29.4640  -18.6670   20.3550 C   0  0  0  0  0  3  0  0  0  0  0  0
  -29.8630  -20.0450   20.7040 C   0  0  0  0  0  0  0  0  0  0  0  0
  -30.1740  -17.4450   20.7690 C   0  0  0  0  0  0  0  0  0  0  0  0
  -30.5390  -14.8660   20.2920 C   0  0  0  0  0  0  0  0  0  0  0  0
  -30.3280  -12.5770   19.2580 C   0  0  0  0  0  2  0  0  0  0  0  0
  -29.3760  -12.6400   18.0450 C   0  0  0  0  0  2  0  0  0  0  0  0
  -27.9140  -12.4460   18.4940 C   0  0  0  0  0  2  0  0  0  0  0  0
  -27.5480  -13.3240   19.7240 C   0  0  0  0  0  3  0  0  0  0  0  0
  -28.6290  -13.2530   20.8240 C   0  0  0  0  0  2  0  0  0  0  0  0
  -29.9040  -13.6380   20.2060 N   0  0  0  0  0  0  0  0  0  0  0  0
  -31.7260  -14.9460   19.9540 O   0  0  0  0  0  0  0  0  0  0  0  0
  -29.7750  -16.0200   20.4990 N   0  0  0  0  0  0  0  0  0  0  0  0
  -28.7820  -15.8410   20.5170 H   0  0  0  0  0  0  0  0  0  0  0  0
  -25.1760  -13.8920   20.5100 C   0  0  0  0  0  0  0  0  0  0  0  0
  -24.1190  -13.1100   20.8920 C   0  0  0  0  0  0  0  0  0  0  0  0
  -24.5870  -11.7610   20.8310 C   0  0  0  0  0  0  0  0  0  0  0  0
  -26.2160  -13.0200   20.2380 N   0  0  0  0  0  0  0  0  0  0  0  0
  -25.8720  -11.7320   20.4970 N   0  0  0  0  0  0  0  0  0  0  0  0
  -23.8680  -10.4930   21.0150 C   0  0  0  0  0  0  0  0  0  0  0  0
  -24.2960   -9.5300   21.9550 C   0  0  0  0  0  3  0  0  0  0  0  0
  -23.5750   -8.3280   22.1280 C   0  0  0  0  0  3  0  0  0  0  0  0
  -22.4130   -8.0800   21.3600 C   0  0  0  0  0  0  0  0  0  0  0  0
  -22.0050   -9.0320   20.4080 C   0  0  0  0  0  3  0  0  0  0  0  0
  -22.7260  -10.2250   20.2340 C   0  0  0  0  0  3  0  0  0  0  0  0
  -21.6660   -6.9290   21.4390 O   0  0  0  0  0  0  0  0  0  0  0  0
  -21.5830   -6.2040   22.6010 C   0  0  0  0  0  0  0  0  0  0  0  0
  -21.0560   -6.7570   23.7870 C   0  0  0  0  0  3  0  0  0  0  0  0
  -20.9250   -5.9550   24.9390 C   0  0  0  0  0  3  0  0  0  0  0  0
  -21.3090   -4.6010   24.9030 C   0  0  0  0  0  0  0  0  0  0  0  0
  -21.8300   -4.0480   23.7180 C   0  0  0  0  0  3  0  0  0  0  0  0
  -21.9610   -4.8460   22.5700 C   0  0  0  0  0  0  0  0  0  0  0  0
  -22.4420   -4.3020   21.4270 F   0  0  0  0  0  0  0  0  0  0  0  0
  -21.1790   -3.8270   26.0070 F   0  0  0  0  0  0  0  0  0  0  0  0
  -22.7240  -13.5780   21.1880 C   0  0  0  0  0  0  0  0  0  0  0  0
  -22.0030  -12.8620   22.0450 N   0  0  0  0  0  0  0  0  0  0  0  0
  -22.2820  -14.6160   20.6990 O   0  0  0  0  0  0  0  0  0  0  0  0
  -22.3740  -12.0230   22.4680 H   0  0  0  0  0  0  0  0  0  0  0  0
  -21.0670  -13.1620   22.2780 H   0  0  0  0  0  0  0  0  0  0  0  0
  -25.3320  -15.2670   20.3560 N   0  0  0  0  0  0  0  0  0  0  0  0
  -24.5720  -15.9230   20.5100 H   0  0  0  0  0  0  0  0  0  0  0  0
  -26.1720  -15.7120   20.0070 H   0  0  0  0  0  0  0  0  0  0  0  0
  -28.2100  -26.2510   20.1720 O   0  0  0  0  0  0  0  0  0  0  0  0
  -24.5780  -31.9150   23.2180 C   0  0  0  0  0  0  0  0  0  0  0  0
  -27.1430  -27.2280   20.1210 C   0  0  0  0  0  0  0  0  0  0  0  0
  -23.3700  -30.5260   21.5830 C   0  0  0  0  0  3  0  0  0  0  0  0
  -24.8070  -28.9730   20.1380 C   0  0  0  0  0  0  0  0  0  0  0  0
  -25.9270  -30.7870   21.4120 C   0  0  0  0  0  2  0  0  0  0  0  0
  -25.9920  -29.4050   20.7430 C   0  0  0  0  0  0  0  0  0  0  0  0
  -27.1560  -28.5490   20.7260 C   0  0  0  0  0  3  0  0  0  0  0  0
  -25.9090  -26.8960   19.5020 C   0  0  0  0  0  3  0  0  0  0  0  0
  -24.7760  -27.7270   19.5040 C   0  0  0  0  0  3  0  0  0  0  0  0
  -23.5800  -29.8650   20.2000 C   0  0  0  0  0  2  0  0  0  0  0  0
  -24.6450  -31.0960   22.1230 N   0  0  0  0  0  0  0  0  0  0  0  0
  -23.4950  -32.1970   23.7510 O   0  0  0  0  0  0  0  0  0  0  0  0
  -22.6990  -29.5090   22.5410 C   0  0  0  0  0  0  0  0  0  0  0  0
  -21.3730  -29.3280   22.4130 N   0  0  0  0  0  0  0  0  0  0  0  0
  -23.3760  -28.8870   23.3640 O   0  0  0  0  0  0  0  0  0  0  0  0
  -20.8860  -29.8800   21.7200 H   0  0  0  0  0  0  0  0  0  0  0  0
  -17.9950  -28.1260   22.9420 C   0  0  0  0  0  0  0  0  0  0  0  0
  -20.5570  -28.3880   23.1880 C   0  0  0  0  0  3  0  0  0  0  0  0
  -20.6530  -26.9590   22.6050 C   0  0  0  0  0  2  0  0  0  0  0  0
  -19.5430  -26.6390   21.6000 C   0  0  0  0  0  2  0  0  0  0  0  0
  -18.1660  -26.7820   22.2560 C   0  0  0  0  0  2  0  0  0  0  0  0
  -19.1160  -28.8880   23.3650 C   0  0  0  0  0  0  0  0  0  0  0  0
  -18.9000  -30.1460   23.9680 C   0  0  0  0  0  3  0  0  0  0  0  0
  -17.5970  -30.6440   24.1500 C   0  0  0  0  0  3  0  0  0  0  0  0
  -16.4890  -29.8800   23.7420 C   0  0  0  0  0  3  0  0  0  0  0  0
  -16.6900  -28.6220   23.1440 C   0  0  0  0  0  3  0  0  0  0  0  0
  -25.8600  -32.5470   23.8400 C   0  0  0  0  0  3  0  0  0  0  0  0
  -25.5460  -33.9450   24.1710 N   0  0  0  0  0  0  0  0  0  0  0  0
  -25.8580  -35.0020   23.4100 C   0  0  0  0  0  0  0  0  0  0  0  0
  -26.5040  -34.9020   22.3630 O   0  0  0  0  0  0  0  0  0  0  0  0
  -24.9660  -34.0950   24.9830 H   0  0  0  0  0  0  0  0  0  0  0  0
  -24.1250  -36.7990   23.0830 C   0  0  0  0  0  1  0  0  0  0  0  0
  -25.3760  -36.3900   23.8770 C   0  0  0  0  0  3  0  0  0  0  0  0
  -27.5160  -37.2780   24.6940 C   0  0  0  0  0  1  0  0  0  0  0  0
  -26.4080  -37.4450   23.7540 N   0  0  0  0  0  0  0  0  0  0  0  0
  -26.0050  -38.3660   23.8970 H   0  0  0  0  0  0  0  0  0  0  0  0
  -26.3710  -31.7810   25.1200 C   0  0  1  0  0  0  0  0  0  0  0  0
  -25.2700  -31.5420   26.1800 C   0  0  0  0  0  1  0  0  0  0  0  0
  -26.9620  -30.4040   24.7410 C   0  0  0  0  0  1  0  0  0  0  0  0
  -27.5200  -32.5760   25.7810 C   0  0  0  0  0  1  0  0  0  0  0  0
  1  3  1  0
  2  5  1  0
  2  1  1  0
  3  8  2  0
  4  1  2  0
  4 53  1  0
  5  6  1  0
  6  3  1  0
  6 13  1  0
  7  2  2  0
 10  9  2  0
 11  9  1  0
 12 13  2  0
 12 14  1  0
 13 10  1  0
 14 11  2  0
 15 23  1  0
 16 21  1  0
 17 18  1  0
 17 16  1  0
 19 18  1  0
 19 28  1  0
 19 20  1  0
 21 15  1  0
 21 20  1  0
 22 15  2  0
 23 24  1  0
 23 14  1  0
 25 26  2  0
 26 45  1  0
 27 26  1  0
 27 30  1  0
 28 29  1  0
 28 25  1  0
 29 27  2  0
 30 31  1  0
 31 32  2  0
 33 36  1  0
 33 32  1  0
 34 33  2  0
 35 34  1  0
 35 30  2  0
 36 37  1  0
 37 38  1  0
 38 39  2  0
 40 39  1  0
 40 44  1  0
 41 40  2  0
 42 37  2  0
 42 41  1  0
 43 42  1  0
 45 46  1  0
 46 49  1  0
 46 48  1  0
 47 45  2  0
 50 25  1  0
 50 51  1  0
 52 50  1  0
 54 65  2  0
 55 53  1  0
 55 60  1  0
 56 64  1  0
 56 66  1  0
 57 63  1  0
 57 59  1  0
 58 64  1  0
 59 58  1  0
 60 59  2  0
 61 62  1  0
 61 55  2  0
 62 57  2  0
 63 56  1  0
 64 54  1  0
 66 68  2  0
 67 66  1  0
 69 67  1  0
 70 79  2  0
 70 75  1  0
 71 67  1  0
 71 75  1  0
 72 71  1  0
 73 74  1  0
 73 72  1  0
 74 70  1  0
 75 76  2  0
 76 77  1  0
 78 77  2  0
 79 78  1  0
 80 54  1  0
 80 81  1  0
 80 90  1  0
 81 84  1  0
 82 86  1  0
 82 81  1  0
 83 82  2  0
 86 85  1  0
 88 86  1  0
 88 89  1  0
 88 87  1  0
 90 93  1  1
 90 91  1  0
 92 90  1  0
M  ISO  4   4 101  15 100  23 100  53 101
M  END
>  <TORSDO>  (44) 
F 17

>  <SCORE>  (44) 
-15.585

>  <name>  (44) 
43

>  <ligand_id>  (44) 
43

>  <original_smiles>  (44) 
[H]C(Oc1c([H])c([H])c2c(c1[H])C([H])([H])N(C(=O)C([H])(N([H])C(=O)C([H])(N([H])C([H])([H])[H])C([H])([H])[H])C(C([H])([H])[H])(C([H])([H])[H])C([H])([H])[H])C([H])(C(=O)N([H])C1([H])c3c([H])c([H])c([H])c([H])c3C([H])([H])C([H])([H])C1([H])[H])C2([H])[H])=C1C(=O)N(c2c([H])c([H])c([H])c(N([H])C(=O)N3C([H])([H])C([H])([H])C([H])([H])C([H])(n4nc(-c5c([H])c([H])c(Oc6c([H])c([H])c(F)c([H])c6F)c([H])c5[H])c(C(=O)N([H])[H])c4N([H])[H])C3([H])[H])c2[H])C([H])([H])C1=O

>  <smiles>  (44) 
[H]C(Oc1c([H])c([H])c2c(c1[H])C([H])([H])N(C(=O)C([H])(N([H])C(=O)C([H])(N([H])C([H])([H])[H])C([H])([H])[H])C(C([H])([H])[H])(C([H])([H])[H])C([H])([H])[H])C([H])(C(=O)N([H])C1([H])c3c([H])c([H])c([H])c([H])c3C([H])([H])C([H])([H])C1([H])[H])C2([H])[H])=C1C(=O)N(c2c([H])c([H])c([H])c(N([H])C(=O)N3C([H])([H])C([H])([H])C([H])([H])C([H])(n4nc(-c5c([H])c([H])c(Oc6c([H])c([H])c(F)c([H])c6F)c([H])c5[H])c(C(=O)N([H])[H])c4N([H])[H])C3([H])[H])c2[H])C([H])([H])C1=O

$$$$
44:0:0
     RDKit          3D

 98107  0  0  1  0  0  0  0  0999 V2000
  -29.2290  -19.5520   19.4610 C   0  0  0  0  0  3  0  0  0  0  0  0
  -31.9080  -20.1340   19.1830 C   0  0  0  0  0  3  0  0  0  0  0  0
  -30.1580  -18.4170   19.3800 C   0  0  0  0  0  0  0  0  0  0  0  0
  -30.9940  -21.2140   19.2120 C   0  0  0  0  0  0  0  0  0  0  0  0
  -29.6000  -20.9790   19.4160 C   0  0  0  0  0  0  0  0  0  0  0  0
  -31.5190  -18.7800   19.2660 C   0  0  0  0  0  0  0  0  0  0  0  0
  -32.4770  -17.8220   19.1730 F   0  0  0  0  0  0  0  0  0  0  0  0
  -30.6780  -14.6390   19.7710 C   0  0  0  0  0  0  0  0  0  0  0  0
  -30.3820  -12.2340   19.0980 C   0  0  0  0  0  2  0  0  0  0  0  0
  -29.3950  -12.0800   17.9150 C   0  0  0  0  0  2  0  0  0  0  0  0
  -27.9600  -11.9640   18.4470 C   0  0  0  0  0  2  0  0  0  0  0  0
  -27.6230  -13.0150   19.5370 C   0  0  0  0  0  3  0  0  0  0  0  0
  -28.7390  -13.1560   20.6010 C   0  0  0  0  0  2  0  0  0  0  0  0
  -29.9900  -13.4370   19.8860 N   0  0  0  0  0  0  0  0  0  0  0  0
  -31.8100  -14.6090   19.2920 O   0  0  0  0  0  0  0  0  0  0  0  0
  -29.7520  -16.8960   19.2240 C   0  0  0  0  0  0  0  0  0  0  0  0
  -30.1420  -15.8810   20.1010 N   0  0  0  0  0  0  0  0  0  0  0  0
  -29.0360  -16.6170   18.2540 O   0  0  0  0  0  0  0  0  0  0  0  0
  -30.7220  -16.2960   20.8150 H   0  0  0  0  0  0  0  0  0  0  0  0
  -25.3240  -13.6750   20.4750 C   0  0  0  0  0  0  0  0  0  0  0  0
  -24.2620  -12.9250   20.9160 C   0  0  0  0  0  0  0  0  0  0  0  0
  -24.6690  -11.5610   20.8220 C   0  0  0  0  0  0  0  0  0  0  0  0
  -26.3110  -12.7650   20.1340 N   0  0  0  0  0  0  0  0  0  0  0  0
  -25.9300  -11.4880   20.4090 N   0  0  0  0  0  0  0  0  0  0  0  0
  -23.9020  -10.3200   21.0460 C   0  0  0  0  0  0  0  0  0  0  0  0
  -24.3450   -9.3300   21.9490 C   0  0  0  0  0  3  0  0  0  0  0  0
  -23.5880   -8.1550   22.1560 C   0  0  0  0  0  3  0  0  0  0  0  0
  -22.3690   -7.9680   21.4610 C   0  0  0  0  0  0  0  0  0  0  0  0
  -21.9380   -8.9470   20.5490 C   0  0  0  0  0  3  0  0  0  0  0  0
  -22.7010  -10.1090   20.3410 C   0  0  0  0  0  3  0  0  0  0  0  0
  -21.5770   -6.8520   21.5860 O   0  0  0  0  0  0  0  0  0  0  0  0
  -21.5730   -6.0900   22.7270 C   0  0  0  0  0  0  0  0  0  0  0  0
  -21.1950   -6.6240   23.9780 C   0  0  0  0  0  3  0  0  0  0  0  0
  -21.1400   -5.7930   25.1120 C   0  0  0  0  0  3  0  0  0  0  0  0
  -21.4600   -4.4260   25.0000 C   0  0  0  0  0  0  0  0  0  0  0  0
  -21.8300   -3.8890   23.7540 C   0  0  0  0  0  3  0  0  0  0  0  0
  -21.8840   -4.7170   22.6210 C   0  0  0  0  0  0  0  0  0  0  0  0
  -22.2220   -4.1900   21.4180 F   0  0  0  0  0  0  0  0  0  0  0  0
  -21.3970   -3.6280   26.0890 F   0  0  0  0  0  0  0  0  0  0  0  0
  -22.9060  -13.4430   21.2980 C   0  0  0  0  0  0  0  0  0  0  0  0
  -22.2270  -12.7560   22.2160 N   0  0  0  0  0  0  0  0  0  0  0  0
  -22.4600  -14.4850   20.8240 O   0  0  0  0  0  0  0  0  0  0  0  0
  -22.6220  -11.9280   22.6330 H   0  0  0  0  0  0  0  0  0  0  0  0
  -21.3110  -13.0650   22.5100 H   0  0  0  0  0  0  0  0  0  0  0  0
  -25.5150  -15.0430   20.3090 N   0  0  0  0  0  0  0  0  0  0  0  0
  -24.8080  -15.7290   20.5710 H   0  0  0  0  0  0  0  0  0  0  0  0
  -26.3210  -15.4650   19.8580 H   0  0  0  0  0  0  0  0  0  0  0  0
  -32.4040  -23.1990   19.6390 C   0  0  0  0  0  0  0  0  0  0  0  0
  -32.9030  -24.4280   18.8990 C   0  0  0  0  0  2  0  0  0  0  0  0
  -32.3710  -24.2420   17.4790 C   0  0  0  0  0  3  0  0  0  0  0  0
  -31.4500  -23.0110   17.5240 C   0  0  0  0  0  3  0  0  0  0  0  0
  -31.5390  -22.4900   18.8860 N   0  0  0  0  0  0  0  0  0  0  0  0
  -32.7700  -22.9340   20.7900 O   0  0  0  0  0  0  0  0  0  0  0  0
  -28.6200  -22.0430   19.5040 O   0  0  0  0  0  0  0  0  0  0  0  0
  -28.8530  -23.4900   19.9260 C   0  0  0  0  0  2  0  0  0  0  0  0
  -27.7360  -24.5690   19.4800 C   0  0  0  0  0  0  0  0  0  0  0  0
  -26.8510  -24.1460   18.7340 O   0  0  0  0  0  0  0  0  0  0  0  0
  -27.8240  -26.0080   19.9190 O   0  0  0  0  0  0  0  0  0  0  0  0
  -24.4820  -31.6590   23.1300 C   0  0  0  0  0  0  0  0  0  0  0  0
  -26.7680  -26.9790   19.8830 C   0  0  0  0  0  0  0  0  0  0  0  0
  -23.1570  -30.3460   21.5160 C   0  0  0  0  0  3  0  0  0  0  0  0
  -24.4850  -28.7610   20.0010 C   0  0  0  0  0  0  0  0  0  0  0  0
  -25.7070  -30.5320   21.2520 C   0  0  0  0  0  2  0  0  0  0  0  0
  -25.6980  -29.1590   20.5740 C   0  0  0  0  0  0  0  0  0  0  0  0
  -26.8350  -28.2810   20.5080 C   0  0  0  0  0  3  0  0  0  0  0  0
  -25.5200  -26.6730   19.2900 C   0  0  0  0  0  3  0  0  0  0  0  0
  -24.4040  -27.5270   19.3460 C   0  0  0  0  0  3  0  0  0  0  0  0
  -23.2860  -29.6870   20.1190 C   0  0  0  0  0  2  0  0  0  0  0  0
  -24.4710  -30.8630   22.0200 N   0  0  0  0  0  0  0  0  0  0  0  0
  -23.4280  -31.9830   23.6970 O   0  0  0  0  0  0  0  0  0  0  0  0
  -22.4700  -29.3520   22.4860 C   0  0  0  0  0  0  0  0  0  0  0  0
  -21.1390  -29.2050   22.3650 N   0  0  0  0  0  0  0  0  0  0  0  0
  -23.1360  -28.7180   23.3070 O   0  0  0  0  0  0  0  0  0  0  0  0
  -20.6580  -29.7790   21.6860 H   0  0  0  0  0  0  0  0  0  0  0  0
  -17.7420  -28.0350   22.8370 C   0  0  0  0  0  0  0  0  0  0  0  0
  -20.2980  -28.2860   23.1350 C   0  0  0  0  0  3  0  0  0  0  0  0
  -20.3970  -26.8440   22.5850 C   0  0  0  0  0  2  0  0  0  0  0  0
  -19.3060  -26.5120   21.5590 C   0  0  0  0  0  2  0  0  0  0  0  0
  -17.9190  -26.6730   22.1860 C   0  0  0  0  0  2  0  0  0  0  0  0
  -18.8600  -28.7980   23.2690 C   0  0  0  0  0  0  0  0  0  0  0  0
  -18.6440  -30.0730   23.8360 C   0  0  0  0  0  3  0  0  0  0  0  0
  -17.3400  -30.5880   23.9690 C   0  0  0  0  0  3  0  0  0  0  0  0
  -16.2360  -29.8220   23.5510 C   0  0  0  0  0  3  0  0  0  0  0  0
  -16.4370  -28.5460   22.9960 C   0  0  0  0  0  3  0  0  0  0  0  0
  -25.8080  -32.2180   23.7270 C   0  0  0  0  0  3  0  0  0  0  0  0
  -26.3160  -31.3980   24.9760 C   0  0  1  0  0  0  0  0  0  0  0  0
  -25.2420  -31.2030   26.0730 C   0  0  0  0  0  1  0  0  0  0  0  0
  -26.8050  -29.9950   24.5480 C   0  0  0  0  0  1  0  0  0  0  0  0
  -27.5390  -32.1100   25.6000 C   0  0  0  0  0  1  0  0  0  0  0  0
  -25.5760  -33.6240   24.0890 N   0  0  0  0  0  0  0  0  0  0  0  0
  -25.9780  -34.6750   23.3600 C   0  0  0  0  0  0  0  0  0  0  0  0
  -26.6470  -34.5570   22.3290 O   0  0  0  0  0  0  0  0  0  0  0  0
  -24.9620  -33.7940   24.8710 H   0  0  0  0  0  0  0  0  0  0  0  0
  -24.3520  -36.5720   23.0600 C   0  0  0  0  0  1  0  0  0  0  0  0
  -25.5760  -36.0830   23.8500 C   0  0  0  0  0  3  0  0  0  0  0  0
  -27.7620  -36.8260   24.6820 C   0  0  0  0  0  1  0  0  0  0  0  0
  -26.6700  -37.0740   23.7450 N   0  0  0  0  0  0  0  0  0  0  0  0
  -26.3210  -38.0170   23.8980 H   0  0  0  0  0  0  0  0  0  0  0  0
  2  4  1  0
  2  6  2  0
  3  1  2  0
  4  5  2  0
  5  1  1  0
  5 54  1  0
  6  3  1  0
  7  6  1  0
  8 14  1  0
  8 17  1  0
  9 14  1  0
 10 11  1  0
 10  9  1  0
 12 11  1  0
 12 23  1  0
 12 13  1  0
 14 13  1  0
 15  8  2  0
 16  3  1  0
 16 17  1  0
 17 19  1  0
 18 16  2  0
 20 21  2  0
 21 40  1  0
 22 21  1  0
 22 25  1  0
 23 24  1  0
 23 20  1  0
 24 22  2  0
 25 26  1  0
 26 27  2  0
 28 31  1  0
 28 27  1  0
 29 28  2  0
 30 29  1  0
 30 25  2  0
 31 32  1  0
 32 33  1  0
 33 34  2  0
 35 34  1  0
 35 39  1  0
 36 35  2  0
 37 32  2  0
 37 36  1  0
 38 37  1  0
 40 41  1  0
 41 44  1  0
 41 43  1  0
 42 40  2  0
 45 20  1  0
 45 46  1  0
 47 45  1  0
 48 53  2  0
 49 48  1  0
 50 51  2  0
 50 49  1  0
 51 52  1  0
 52  4  1  0
 52 48  1  0
 54 55  1  0
 56 58  1  0
 56 55  1  0
 57 56  2  0
 59 70  2  0
 60 58  1  0
 60 65  1  0
 61 69  1  0
 61 71  1  0
 62 68  1  0
 62 64  1  0
 63 69  1  0
 64 63  1  0
 65 64  2  0
 66 67  1  0
 66 60  2  0
 67 62  2  0
 68 61  1  0
 69 59  1  0
 71 73  2  0
 72 71  1  0
 74 72  1  0
 75 84  2  0
 75 80  1  0
 76 72  1  0
 76 80  1  0
 77 76  1  0
 78 79  1  0
 78 77  1  0
 79 75  1  0
 80 81  2  0
 81 82  1  0
 83 82  2  0
 84 83  1  0
 85 59  1  0
 85 90  1  0
 85 86  1  0
 86 89  1  1
 86 87  1  0
 88 86  1  0
 90 93  1  0
 91 95  1  0
 91 90  1  0
 92 91  2  0
 95 94  1  0
 97 95  1  0
 97 98  1  0
 97 96  1  0
M  ISO  4   8 100  17 100  56 101  58 101
M  END
>  <TORSDO>  (45) 
F 20

>  <SCORE>  (45) 
-12.691

>  <name>  (45) 
44

>  <ligand_id>  (45) 
44

>  <original_smiles>  (45) 
[H]c1c([H])c([H])c2c(c1[H])C([H])([H])C([H])([H])C([H])([H])C2([H])N([H])C(=O)C1([H])N(C(=O)C([H])(N([H])C(=O)C([H])(N([H])C([H])([H])[H])C([H])([H])[H])C(C([H])([H])[H])(C([H])([H])[H])C([H])([H])[H])C([H])([H])c2c([H])c(OC(=O)C([H])([H])Oc3c([H])c(C(=O)N([H])C(=O)N4C([H])([H])C([H])([H])C([H])([H])C([H])(n5nc(-c6c([H])c([H])c(Oc7c([H])c([H])c(F)c([H])c7F)c([H])c6[H])c(C(=O)N([H])[H])c5N([H])[H])C4([H])[H])c(F)c([H])c3N3C(=O)C([H])([H])C([H])([H])C3([H])[H])c([H])c([H])c2C1([H])[H]

>  <smiles>  (45) 
[H]c1c([H])c([H])c2c(c1[H])C([H])([H])C([H])([H])C([H])([H])C2([H])N([H])C(=O)C1([H])N(C(=O)C([H])(N([H])C(=O)C([H])(N([H])C([H])([H])[H])C([H])([H])[H])C(C([H])([H])[H])(C([H])([H])[H])C([H])([H])[H])C([H])([H])c2c([H])c(OC(=O)C([H])([H])Oc3c([H])c(C(=O)N([H])C(=O)N4C([H])([H])C([H])([H])C([H])([H])C([H])(n5nc(-c6c([H])c([H])c(Oc7c([H])c([H])c(F)c([H])c7F)c([H])c6[H])c(C(=O)N([H])[H])c5N([H])[H])C4([H])[H])c(F)c([H])c3N3C(=O)C([H])([H])C([H])([H])C3([H])[H])c([H])c([H])c2C1([H])[H]

$$$$
45:0:0
     RDKit          3D

 97106  0  0  1  0  0  0  0  0999 V2000
  -26.9030  -24.6560   21.4600 C   0  0  0  0  0  3  0  0  0  0  0  0
  -26.9320  -22.2760   21.2610 C   0  0  0  0  0  3  0  0  0  0  0  0
  -28.1660  -24.7620   20.9900 C   0  0  0  0  0  0  0  0  0  0  0  0
  -26.2410  -23.3780   21.5840 C   0  0  0  0  0  0  0  0  0  0  0  0
  -28.9150  -23.5290   20.6170 C   0  0  0  0  0  0  0  0  0  0  0  0
  -28.2530  -22.3270   20.7820 N   0  0  0  0  0  0  0  0  0  0  0  0
  -30.0800  -23.5700   20.2010 O   0  0  0  0  0  0  0  0  0  0  0  0
  -29.5970  -18.8200   21.3030 C   0  0  0  0  0  3  0  0  0  0  0  0
  -29.8720  -19.4370   18.9690 C   0  0  0  0  0  3  0  0  0  0  0  0
  -29.0080  -20.0850   21.5500 C   0  0  0  0  0  3  0  0  0  0  0  0
  -29.2720  -20.6930   19.2110 C   0  0  0  0  0  3  0  0  0  0  0  0
  -30.0530  -18.4890   20.0060 C   0  0  0  0  0  0  0  0  0  0  0  0
  -28.8580  -21.0470   20.5160 C   0  0  0  0  0  0  0  0  0  0  0  0
  -31.1110  -14.8630   19.8770 C   0  0  0  0  0  0  0  0  0  0  0  0
  -30.6930  -12.6490   18.8980 C   0  0  0  0  0  2  0  0  0  0  0  0
  -29.6870  -12.7910   17.7380 C   0  0  0  0  0  2  0  0  0  0  0  0
  -28.2610  -12.6160   18.2790 C   0  0  0  0  0  2  0  0  0  0  0  0
  -27.9760  -13.5110   19.5150 C   0  0  0  0  0  3  0  0  0  0  0  0
  -29.1120  -13.4580   20.5650 C   0  0  0  0  0  2  0  0  0  0  0  0
  -30.3860  -13.7080   19.8810 N   0  0  0  0  0  0  0  0  0  0  0  0
  -32.2740  -14.8520   19.4700 O   0  0  0  0  0  0  0  0  0  0  0  0
  -30.8970  -17.2640   19.7290 C   0  0  0  0  0  0  0  0  0  0  0  0
  -30.4560  -16.0320   20.1130 N   0  0  0  0  0  0  0  0  0  0  0  0
  -31.9370  -17.4760   19.0930 O   0  0  0  0  0  0  0  0  0  0  0  0
  -29.5330  -15.9860   20.5070 H   0  0  0  0  0  0  0  0  0  0  0  0
  -25.6570  -14.0680   20.4690 C   0  0  0  0  0  0  0  0  0  0  0  0
  -24.6170  -13.2740   20.8710 C   0  0  0  0  0  0  0  0  0  0  0  0
  -25.0660  -11.9260   20.7200 C   0  0  0  0  0  0  0  0  0  0  0  0
  -26.6730  -13.2010   20.0980 N   0  0  0  0  0  0  0  0  0  0  0  0
  -26.3300  -11.9060   20.3140 N   0  0  0  0  0  0  0  0  0  0  0  0
  -24.3500  -10.6540   20.8860 C   0  0  0  0  0  0  0  0  0  0  0  0
  -24.7580   -9.6930   21.8370 C   0  0  0  0  0  3  0  0  0  0  0  0
  -24.0380   -8.4880   21.9910 C   0  0  0  0  0  3  0  0  0  0  0  0
  -22.8950   -8.2370   21.1940 C   0  0  0  0  0  0  0  0  0  0  0  0
  -22.5090   -9.1850   20.2310 C   0  0  0  0  0  3  0  0  0  0  0  0
  -23.2300  -10.3810   20.0750 C   0  0  0  0  0  3  0  0  0  0  0  0
  -22.1490   -7.0850   21.2570 O   0  0  0  0  0  0  0  0  0  0  0  0
  -21.9520   -6.4180   22.4380 C   0  0  0  0  0  0  0  0  0  0  0  0
  -21.3390   -7.0380   23.5490 C   0  0  0  0  0  3  0  0  0  0  0  0
  -21.0920   -6.2960   24.7210 C   0  0  0  0  0  3  0  0  0  0  0  0
  -21.4470   -4.9350   24.7830 C   0  0  0  0  0  0  0  0  0  0  0  0
  -22.0510   -4.3150   23.6750 C   0  0  0  0  0  3  0  0  0  0  0  0
  -22.2980   -5.0530   22.5050 C   0  0  0  0  0  0  0  0  0  0  0  0
  -22.8610   -4.4470   21.4320 F   0  0  0  0  0  0  0  0  0  0  0  0
  -21.2050   -4.2170   25.9050 F   0  0  0  0  0  0  0  0  0  0  0  0
  -23.2480  -13.7340   21.2770 C   0  0  0  0  0  0  0  0  0  0  0  0
  -22.6010  -12.9960   22.1730 N   0  0  0  0  0  0  0  0  0  0  0  0
  -22.7630  -14.7740   20.8350 O   0  0  0  0  0  0  0  0  0  0  0  0
  -23.0080  -12.1490   22.5400 H   0  0  0  0  0  0  0  0  0  0  0  0
  -21.6850  -13.2790   22.4920 H   0  0  0  0  0  0  0  0  0  0  0  0
  -25.8180  -15.4460   20.3560 N   0  0  0  0  0  0  0  0  0  0  0  0
  -25.0710  -16.0990   20.5640 H   0  0  0  0  0  0  0  0  0  0  0  0
  -26.6260  -15.8960   19.9450 H   0  0  0  0  0  0  0  0  0  0  0  0
  -24.9720  -23.2970   21.9950 O   0  0  0  0  0  0  0  0  0  0  0  0
  -24.6870  -22.3970   21.8870 H   0  0  0  0  0  0  0  0  0  0  0  0
  -28.8760  -26.1310   20.9930 C   0  0  0  0  0  2  0  0  0  0  0  0
  -28.5740  -26.9730   19.8680 O   0  0  0  0  0  0  0  0  0  0  0  0
  -24.7020  -31.9690   23.2220 C   0  0  0  0  0  0  0  0  0  0  0  0
  -27.4120  -27.7070   19.9540 C   0  0  0  0  0  0  0  0  0  0  0  0
  -23.5160  -30.6150   21.5260 C   0  0  0  0  0  3  0  0  0  0  0  0
  -24.9940  -29.1650   20.0340 C   0  0  0  0  0  0  0  0  0  0  0  0
  -26.0320  -31.0280   21.3350 C   0  0  0  0  0  2  0  0  0  0  0  0
  -26.1420  -29.6820   20.6480 C   0  0  0  0  0  0  0  0  0  0  0  0
  -27.3570  -28.9580   20.6120 C   0  0  0  0  0  3  0  0  0  0  0  0
  -26.2550  -27.2080   19.3250 C   0  0  0  0  0  3  0  0  0  0  0  0
  -25.0440  -27.9240   19.3740 C   0  0  0  0  0  3  0  0  0  0  0  0
  -23.7330  -29.9960   20.1180 C   0  0  0  0  0  2  0  0  0  0  0  0
  -24.7680  -31.2190   22.0870 N   0  0  0  0  0  0  0  0  0  0  0  0
  -23.6200  -32.1970   23.7790 O   0  0  0  0  0  0  0  0  0  0  0  0
  -22.8900  -29.5410   22.4460 C   0  0  0  0  0  0  0  0  0  0  0  0
  -21.5680  -29.3400   22.3170 N   0  0  0  0  0  0  0  0  0  0  0  0
  -23.5890  -28.8930   23.2290 O   0  0  0  0  0  0  0  0  0  0  0  0
  -21.0660  -29.9150   21.6550 H   0  0  0  0  0  0  0  0  0  0  0  0
  -18.2150  -28.0820   22.8010 C   0  0  0  0  0  0  0  0  0  0  0  0
  -20.7730  -28.3520   23.0470 C   0  0  0  0  0  3  0  0  0  0  0  0
  -20.8840  -26.9540   22.3960 C   0  0  0  0  0  2  0  0  0  0  0  0
  -19.7690  -26.6720   21.3850 C   0  0  0  0  0  2  0  0  0  0  0  0
  -18.3960  -26.7710   22.0540 C   0  0  0  0  0  2  0  0  0  0  0  0
  -19.3320  -28.8310   23.2530 C   0  0  0  0  0  0  0  0  0  0  0  0
  -19.1100  -30.0610   23.9090 C   0  0  0  0  0  3  0  0  0  0  0  0
  -17.8030  -30.5400   24.1190 C   0  0  0  0  0  3  0  0  0  0  0  0
  -16.6990  -29.7860   23.6810 C   0  0  0  0  0  3  0  0  0  0  0  0
  -16.9070  -28.5580   23.0270 C   0  0  0  0  0  3  0  0  0  0  0  0
  -25.9790  -32.5980   23.8630 C   0  0  0  0  0  3  0  0  0  0  0  0
  -26.4810  -31.8190   25.1400 C   0  0  1  0  0  0  0  0  0  0  0  0
  -25.3740  -31.5730   26.1920 C   0  0  0  0  0  1  0  0  0  0  0  0
  -27.0710  -30.4460   24.7450 C   0  0  0  0  0  1  0  0  0  0  0  0
  -27.6220  -32.6120   25.8220 C   0  0  0  0  0  1  0  0  0  0  0  0
  -25.6660  -33.9940   24.1930 N   0  0  0  0  0  0  0  0  0  0  0  0
  -26.0120  -35.0480   23.4410 C   0  0  0  0  0  0  0  0  0  0  0  0
  -26.7000  -34.9470   22.4210 O   0  0  0  0  0  0  0  0  0  0  0  0
  -25.0560  -34.1480   24.9820 H   0  0  0  0  0  0  0  0  0  0  0  0
  -24.2910  -36.8410   23.0560 C   0  0  0  0  0  1  0  0  0  0  0  0
  -25.5160  -36.4350   23.8910 C   0  0  0  0  0  3  0  0  0  0  0  0
  -27.6330  -37.3210   24.7660 C   0  0  0  0  0  1  0  0  0  0  0  0
  -26.5510  -37.4890   23.7990 N   0  0  0  0  0  0  0  0  0  0  0  0
  -26.1430  -38.4100   23.9340 H   0  0  0  0  0  0  0  0  0  0  0  0
  1  4  1  0
  2  4  2  0
  3 56  1  0
  3  1  2  0
  4 54  1  0
  5  6  1  0
  5  3  1  0
  6  2  1  0
  7  5  2  0
  8 10  1  0
  9 11  2  0
  9 12  1  0
 11 13  1  0
 12  8  2  0
 13  6  1  0
 13 10  2  0
 14 20  1  0
 14 23  1  0
 15 20  1  0
 16 17  1  0
 16 15  1  0
 18 17  1  0
 18 29  1  0
 18 19  1  0
 20 19  1  0
 21 14  2  0
 22 12  1  0
 22 23  1  0
 23 25  1  0
 24 22  2  0
 26 27  2  0
 27 46  1  0
 28 27  1  0
 28 31  1  0
 29 30  1  0
 29 26  1  0
 30 28  2  0
 31 32  1  0
 32 33  2  0
 34 37  1  0
 34 33  1  0
 35 34  2  0
 36 35  1  0
 36 31  2  0
 37 38  1  0
 38 43  2  0
 38 39  1  0
 39 40  2  0
 40 41  1  0
 41 45  1  0
 42 41  2  0
 43 42  1  0
 44 43  1  0
 46 47  1  0
 47 50  1  0
 47 49  1  0
 48 46  2  0
 51 26  1  0
 51 52  1  0
 53 51  1  0
 55 54  1  0
 57 59  1  0
 57 56  1  0
 58 69  2  0
 59 64  1  0
 60 68  1  0
 60 70  1  0
 61 67  1  0
 61 63  1  0
 62 68  1  0
 63 62  1  0
 64 63  2  0
 65 66  1  0
 65 59  2  0
 66 61  2  0
 67 60  1  0
 68 58  1  0
 70 72  2  0
 71 70  1  0
 73 71  1  0
 74 83  2  0
 74 79  1  0
 75 71  1  0
 75 79  1  0
 76 75  1  0
 77 78  1  0
 77 76  1  0
 78 74  1  0
 79 80  2  0
 80 81  1  0
 82 81  2  0
 83 82  1  0
 84 58  1  0
 84 89  1  0
 84 85  1  0
 85 88  1  1
 85 86  1  0
 87 85  1  0
 89 92  1  0
 90 94  1  0
 90 89  1  0
 91 90  2  0
 94 93  1  0
 96 94  1  0
 96 97  1  0
 96 95  1  0
M  ISO  4  14 100  23 100  56 101  57 101
M  END
>  <TORSDO>  (46) 
F 19

>  <SCORE>  (46) 
-13.064

>  <name>  (46) 
45

>  <ligand_id>  (46) 
45

>  <original_smiles>  (46) 
[H]Oc1c([H])c(C([H])([H])Oc2c([H])c([H])c3c(c2[H])C([H])([H])N(C(=O)C([H])(N([H])C(=O)C([H])(N([H])C([H])([H])[H])C([H])([H])[H])C(C([H])([H])[H])(C([H])([H])[H])C([H])([H])[H])C([H])(C(=O)N([H])C2([H])c4c([H])c([H])c([H])c([H])c4C([H])([H])C([H])([H])C2([H])[H])C3([H])[H])c(=O)n(-c2c([H])c([H])c(C(=O)N([H])C(=O)N3C([H])([H])C([H])([H])C([H])([H])C([H])(n4nc(-c5c([H])c([H])c(Oc6c([H])c([H])c(F)c([H])c6F)c([H])c5[H])c(C(=O)N([H])[H])c4N([H])[H])C3([H])[H])c([H])c2[H])c1[H]

>  <smiles>  (46) 
[H]Oc1c([H])c(C([H])([H])Oc2c([H])c([H])c3c(c2[H])C([H])([H])N(C(=O)C([H])(N([H])C(=O)C([H])(N([H])C([H])([H])[H])C([H])([H])[H])C(C([H])([H])[H])(C([H])([H])[H])C([H])([H])[H])C([H])(C(=O)N([H])C2([H])c4c([H])c([H])c([H])c([H])c4C([H])([H])C([H])([H])C2([H])[H])C3([H])[H])c(=O)n(-c2c([H])c([H])c(C(=O)N([H])C(=O)N3C([H])([H])C([H])([H])C([H])([H])C([H])(n4nc(-c5c([H])c([H])c(Oc6c([H])c([H])c(F)c([H])c6F)c([H])c5[H])c(C(=O)N([H])[H])c4N([H])[H])C3([H])[H])c([H])c2[H])c1[H]

$$$$
46:0:0
     RDKit          3D

 92100  0  0  1  0  0  0  0  0999 V2000
  -30.8810  -19.6710   20.7490 C   0  0  0  0  0  3  0  0  0  0  0  0
  -30.3150  -20.9790   20.7420 C   0  0  0  0  0  3  0  0  0  0  0  0
  -29.0100  -18.7960   19.5390 C   0  0  0  0  0  3  0  0  0  0  0  0
  -30.2590  -18.5270   20.1600 C   0  0  0  0  0  0  0  0  0  0  0  0
  -29.0700  -21.2510   20.1240 C   0  0  0  0  0  0  0  0  0  0  0  0
  -28.4330  -20.1210   19.5100 C   0  0  0  0  0  0  0  0  0  0  0  0
  -30.9650  -14.6930   19.8930 C   0  0  0  0  0  0  0  0  0  0  0  0
  -30.5920  -12.4090   18.9600 C   0  0  0  0  0  2  0  0  0  0  0  0
  -29.5970  -12.4620   17.7830 C   0  0  0  0  0  2  0  0  0  0  0  0
  -28.1540  -12.3320   18.3030 C   0  0  0  0  0  2  0  0  0  0  0  0
  -27.8610  -13.2720   19.5040 C   0  0  0  0  0  3  0  0  0  0  0  0
  -28.9830  -13.2310   20.5660 C   0  0  0  0  0  2  0  0  0  0  0  0
  -30.2440  -13.5220   19.8760 N   0  0  0  0  0  0  0  0  0  0  0  0
  -32.1300  -14.6580   19.4870 O   0  0  0  0  0  0  0  0  0  0  0  0
  -30.9530  -17.1340   20.2700 C   0  0  0  0  0  0  0  0  0  0  0  0
  -30.3280  -15.9050   20.1370 N   0  0  0  0  0  0  0  0  0  0  0  0
  -32.1690  -17.1940   20.4910 O   0  0  0  0  0  0  0  0  0  0  0  0
  -29.3250  -15.8930   20.1820 H   0  0  0  0  0  0  0  0  0  0  0  0
  -25.5580  -13.9130   20.4310 C   0  0  0  0  0  0  0  0  0  0  0  0
  -24.4960  -13.1630   20.8550 C   0  0  0  0  0  0  0  0  0  0  0  0
  -24.9050  -11.7990   20.7420 C   0  0  0  0  0  0  0  0  0  0  0  0
  -26.5490  -13.0100   20.0870 N   0  0  0  0  0  0  0  0  0  0  0  0
  -26.1680  -11.7290   20.3360 N   0  0  0  0  0  0  0  0  0  0  0  0
  -24.1470  -10.5560   20.9410 C   0  0  0  0  0  0  0  0  0  0  0  0
  -24.5790   -9.5650   21.8500 C   0  0  0  0  0  3  0  0  0  0  0  0
  -23.8240   -8.3880   22.0380 C   0  0  0  0  0  3  0  0  0  0  0  0
  -22.6210   -8.1930   21.3170 C   0  0  0  0  0  0  0  0  0  0  0  0
  -22.2070   -9.1720   20.3970 C   0  0  0  0  0  3  0  0  0  0  0  0
  -22.9630  -10.3410   20.2070 C   0  0  0  0  0  3  0  0  0  0  0  0
  -21.8350   -7.0710   21.4180 O   0  0  0  0  0  0  0  0  0  0  0  0
  -21.7450   -6.3560   22.5850 C   0  0  0  0  0  0  0  0  0  0  0  0
  -21.2730   -6.9400   23.7810 C   0  0  0  0  0  3  0  0  0  0  0  0
  -21.1310   -6.1510   24.9410 C   0  0  0  0  0  3  0  0  0  0  0  0
  -21.4520   -4.7800   24.9050 C   0  0  0  0  0  0  0  0  0  0  0  0
  -21.9160   -4.1960   23.7130 C   0  0  0  0  0  3  0  0  0  0  0  0
  -22.0590   -4.9820   22.5550 C   0  0  0  0  0  0  0  0  0  0  0  0
  -22.4880   -4.4100   21.4040 F   0  0  0  0  0  0  0  0  0  0  0  0
  -21.3080   -4.0210   26.0150 F   0  0  0  0  0  0  0  0  0  0  0  0
  -23.1410  -13.6780   21.2420 C   0  0  0  0  0  0  0  0  0  0  0  0
  -22.4590  -12.9870   22.1490 N   0  0  0  0  0  0  0  0  0  0  0  0
  -22.7000  -14.7280   20.7780 O   0  0  0  0  0  0  0  0  0  0  0  0
  -22.8290  -12.1360   22.5460 H   0  0  0  0  0  0  0  0  0  0  0  0
  -21.5530  -13.3150   22.4530 H   0  0  0  0  0  0  0  0  0  0  0  0
  -25.7570  -15.2830   20.2850 N   0  0  0  0  0  0  0  0  0  0  0  0
  -25.0050  -15.9440   20.4470 H   0  0  0  0  0  0  0  0  0  0  0  0
  -26.5570  -15.6930   19.8250 H   0  0  0  0  0  0  0  0  0  0  0  0
  -28.8900  -23.7340   20.3510 C   0  0  0  0  0  3  0  0  0  0  0  0
  -28.4020  -22.5360   20.1480 N   0  0  0  0  0  0  0  0  0  0  0  0
  -27.9720  -25.0140   20.5290 C   0  0  0  0  0  2  0  0  0  0  0  0
  -28.3700  -26.3690   20.0370 O   0  0  0  0  0  0  0  0  0  0  0  0
  -24.6140  -31.6930   23.1550 C   0  0  0  0  0  0  0  0  0  0  0  0
  -27.3080  -27.2850   19.9680 C   0  0  0  0  0  0  0  0  0  0  0  0
  -23.4570  -30.3630   21.4300 C   0  0  0  0  0  3  0  0  0  0  0  0
  -24.9500  -28.8970   19.9600 C   0  0  0  0  0  0  0  0  0  0  0  0
  -25.9990  -30.7060   21.3170 C   0  0  0  0  0  2  0  0  0  0  0  0
  -26.1030  -29.3600   20.6090 C   0  0  0  0  0  0  0  0  0  0  0  0
  -27.2910  -28.5660   20.6050 C   0  0  0  0  0  3  0  0  0  0  0  0
  -26.1480  -26.9010   19.2620 C   0  0  0  0  0  3  0  0  0  0  0  0
  -24.9760  -27.6760   19.2720 C   0  0  0  0  0  3  0  0  0  0  0  0
  -23.7060  -29.7580   20.0240 C   0  0  0  0  0  2  0  0  0  0  0  0
  -24.7070  -30.9360   22.0240 N   0  0  0  0  0  0  0  0  0  0  0  0
  -23.5160  -31.9370   23.6780 O   0  0  0  0  0  0  0  0  0  0  0  0
  -22.7840  -29.2960   22.3280 C   0  0  0  0  0  0  0  0  0  0  0  0
  -21.4550  -29.1420   22.1960 N   0  0  0  0  0  0  0  0  0  0  0  0
  -23.4560  -28.6120   23.1050 O   0  0  0  0  0  0  0  0  0  0  0  0
  -20.9730  -29.7470   21.5460 H   0  0  0  0  0  0  0  0  0  0  0  0
  -18.0480  -28.0420   22.7250 C   0  0  0  0  0  0  0  0  0  0  0  0
  -20.6240  -28.1730   22.9130 C   0  0  0  0  0  3  0  0  0  0  0  0
  -20.6410  -26.7960   22.2090 C   0  0  0  0  0  2  0  0  0  0  0  0
  -19.4890  -26.6110   21.2160 C   0  0  0  0  0  2  0  0  0  0  0  0
  -18.1400  -26.7540   21.9260 C   0  0  0  0  0  2  0  0  0  0  0  0
  -19.2150  -28.7180   23.1750 C   0  0  0  0  0  0  0  0  0  0  0  0
  -19.0720  -29.9300   23.8840 C   0  0  0  0  0  3  0  0  0  0  0  0
  -17.7970  -30.4650   24.1460 C   0  0  0  0  0  3  0  0  0  0  0  0
  -16.6460  -29.7850   23.7100 C   0  0  0  0  0  3  0  0  0  0  0  0
  -16.7730  -28.5750   23.0070 C   0  0  0  0  0  3  0  0  0  0  0  0
  -25.8770  -32.3090   23.8320 C   0  0  0  0  0  3  0  0  0  0  0  0
  -26.3340  -31.5240   25.1240 C   0  0  1  0  0  0  0  0  0  0  0  0
  -25.1980  -31.2970   26.1490 C   0  0  0  0  0  1  0  0  0  0  0  0
  -26.9090  -30.1390   24.7480 C   0  0  0  0  0  1  0  0  0  0  0  0
  -27.4710  -32.2970   25.8290 C   0  0  0  0  0  1  0  0  0  0  0  0
  -25.5700  -33.7080   24.1590 N   0  0  0  0  0  0  0  0  0  0  0  0
  -25.9280  -34.7610   23.4110 C   0  0  0  0  0  0  0  0  0  0  0  0
  -26.6220  -34.6550   22.3960 O   0  0  0  0  0  0  0  0  0  0  0  0
  -24.9610  -33.8660   24.9490 H   0  0  0  0  0  0  0  0  0  0  0  0
  -24.2190  -36.5650   23.0250 C   0  0  0  0  0  1  0  0  0  0  0  0
  -25.4410  -36.1530   23.8610 C   0  0  0  0  0  3  0  0  0  0  0  0
  -27.5590  -37.0290   24.7430 C   0  0  0  0  0  1  0  0  0  0  0  0
  -26.4820  -37.2000   23.7710 N   0  0  0  0  0  0  0  0  0  0  0  0
  -26.0760  -38.1230   23.9050 H   0  0  0  0  0  0  0  0  0  0  0  0
  -26.7550  -19.4640   17.9130 C   0  0  0  0  0  1  0  0  0  0  0  0
  -27.2230  -20.3780   18.8970 O   0  0  0  0  0  0  0  0  0  0  0  0
  2  1  1  0
  3  4  1  0
  4 15  1  0
  4  1  2  0
  5 48  1  0
  5  2  2  0
  6  3  2  0
  6  5  1  0
  7 16  1  0
  8 13  1  0
  9 10  1  0
  9  8  1  0
 11 10  1  0
 11 22  1  0
 11 12  1  0
 13  7  1  0
 13 12  1  0
 14  7  2  0
 15 17  2  0
 16 18  1  0
 16 15  1  0
 19 20  2  0
 20 39  1  0
 21 20  1  0
 21 24  1  0
 22 23  1  0
 22 19  1  0
 23 21  2  0
 24 25  1  0
 25 26  2  0
 27 30  1  0
 27 26  1  0
 28 27  2  0
 29 28  1  0
 29 24  2  0
 30 31  1  0
 31 32  1  0
 32 33  2  0
 34 33  1  0
 34 38  1  0
 35 34  2  0
 36 31  2  0
 36 35  1  0
 37 36  1  0
 39 40  1  0
 40 43  1  0
 40 42  1  0
 41 39  2  0
 44 19  1  0
 44 45  1  0
 46 44  1  0
 47 49  1  0
 48 47  2  0
 50 49  1  0
 51 62  2  0
 52 50  1  0
 52 57  1  0
 53 61  1  0
 53 63  1  0
 54 60  1  0
 54 56  1  0
 55 61  1  0
 56 55  1  0
 57 56  2  0
 58 59  1  0
 58 52  2  0
 59 54  2  0
 60 53  1  0
 61 51  1  0
 63 65  2  0
 64 63  1  0
 66 64  1  0
 67 76  2  0
 67 72  1  0
 68 64  1  0
 68 72  1  0
 69 68  1  0
 70 71  1  0
 70 69  1  0
 71 67  1  0
 72 73  2  0
 73 74  1  0
 75 74  2  0
 76 75  1  0
 77 51  1  0
 77 82  1  0
 77 78  1  0
 78 81  1  1
 78 79  1  0
 80 78  1  0
 82 85  1  0
 83 87  1  0
 83 82  1  0
 84 83  2  0
 87 86  1  0
 89 87  1  0
 89 90  1  0
 89 88  1  0
 91 92  1  0
 92  6  1  0
M  ISO  4   7 100  16 100  49 101  50 101
M  END
>  <TORSDO>  (47) 
F 19

>  <SCORE>  (47) 
-13.913

>  <name>  (47) 
46

>  <ligand_id>  (47) 
46

>  <original_smiles>  (47) 
[H]C(=Nc1c([H])c([H])c(C(=O)N([H])C(=O)N2C([H])([H])C([H])([H])C([H])([H])C([H])(n3nc(-c4c([H])c([H])c(Oc5c([H])c([H])c(F)c([H])c5F)c([H])c4[H])c(C(=O)N([H])[H])c3N([H])[H])C2([H])[H])c([H])c1OC([H])([H])[H])C([H])([H])Oc1c([H])c([H])c2c(c1[H])C([H])([H])N(C(=O)C([H])(N([H])C(=O)C([H])(N([H])C([H])([H])[H])C([H])([H])[H])C(C([H])([H])[H])(C([H])([H])[H])C([H])([H])[H])C([H])(C(=O)N([H])C1([H])c3c([H])c([H])c([H])c([H])c3C([H])([H])C([H])([H])C1([H])[H])C2([H])[H]

>  <smiles>  (47) 
[H]C(=Nc1c([H])c([H])c(C(=O)N([H])C(=O)N2C([H])([H])C([H])([H])C([H])([H])C([H])(n3nc(-c4c([H])c([H])c(Oc5c([H])c([H])c(F)c([H])c5F)c([H])c4[H])c(C(=O)N([H])[H])c3N([H])[H])C2([H])[H])c([H])c1OC([H])([H])[H])C([H])([H])Oc1c([H])c([H])c2c(c1[H])C([H])([H])N(C(=O)C([H])(N([H])C(=O)C([H])(N([H])C([H])([H])[H])C([H])([H])[H])C(C([H])([H])[H])(C([H])([H])[H])C([H])([H])[H])C([H])(C(=O)N([H])C1([H])c3c([H])c([H])c([H])c([H])c3C([H])([H])C([H])([H])C1([H])[H])C2([H])[H]

$$$$
47:0:0
     RDKit          3D

 89 98  0  0  1  0  0  0  0  0999 V2000
  -30.3420  -23.3940   19.4150 C   0  0  0  0  0  3  0  0  0  0  0  0
  -30.6540  -22.0450   19.5210 C   0  0  0  0  0  3  0  0  0  0  0  0
  -28.4660  -22.3400   19.9520 C   0  0  0  0  0  3  0  0  0  0  0  0
  -28.9390  -23.6260   19.6580 C   0  0  0  0  0  0  0  0  0  0  0  0
  -29.4950  -21.3710   19.8500 N   0  0  0  0  0  0  0  0  0  0  0  0
  -28.3730  -19.4480   20.8350 C   0  0  0  0  0  3  0  0  0  0  0  0
  -29.3770  -19.9020   20.0570 C   0  0  0  0  0  0  0  0  0  0  0  0
  -29.5560  -17.0740   20.1810 C   0  0  0  0  0  0  0  0  0  0  0  0
  -29.6550  -15.7530   20.1890 N   0  0  0  0  0  0  0  0  0  0  0  0
  -28.1820  -17.7010   21.1510 S   0  0  0  0  0  0  0  0  0  0  0  0
  -30.4440  -18.5220   19.4130 S   0  0  0  0  0  0  0  0  0  0  0  0
  -30.5160  -14.8090   19.5500 C   0  0  0  0  0  0  0  0  0  0  0  0
  -30.4100  -12.4800   18.5890 C   0  0  0  0  0  2  0  0  0  0  0  0
  -29.3110  -12.4410   17.5010 C   0  0  0  0  0  2  0  0  0  0  0  0
  -27.9150  -12.1980   18.1150 C   0  0  0  0  0  2  0  0  0  0  0  0
  -27.6450  -13.1020   19.3450 C   0  0  0  0  0  3  0  0  0  0  0  0
  -28.8400  -13.0630   20.3220 C   0  0  0  0  0  2  0  0  0  0  0  0
  -30.0340  -13.5130   19.5810 N   0  0  0  0  0  0  0  0  0  0  0  0
  -31.5560  -15.0550   18.9380 O   0  0  0  0  0  0  0  0  0  0  0  0
  -25.3950  -13.6260   20.4710 C   0  0  0  0  0  0  0  0  0  0  0  0
  -24.3890  -12.8200   20.9290 C   0  0  0  0  0  0  0  0  0  0  0  0
  -24.8260  -11.4780   20.7070 C   0  0  0  0  0  0  0  0  0  0  0  0
  -26.3830  -12.7730   20.0030 N   0  0  0  0  0  0  0  0  0  0  0  0
  -26.0530  -11.4710   20.2000 N   0  0  0  0  0  0  0  0  0  0  0  0
  -24.1240  -10.2020   20.8950 C   0  0  0  0  0  0  0  0  0  0  0  0
  -24.5970   -9.2240   21.7980 C   0  0  0  0  0  3  0  0  0  0  0  0
  -23.8940   -8.0130   21.9740 C   0  0  0  0  0  3  0  0  0  0  0  0
  -22.7040   -7.7700   21.2460 C   0  0  0  0  0  0  0  0  0  0  0  0
  -22.2510   -8.7360   20.3310 C   0  0  0  0  0  3  0  0  0  0  0  0
  -22.9540   -9.9400   20.1540 C   0  0  0  0  0  3  0  0  0  0  0  0
  -21.9710   -6.6120   21.3330 O   0  0  0  0  0  0  0  0  0  0  0  0
  -21.8250   -5.9380   22.5200 C   0  0  0  0  0  0  0  0  0  0  0  0
  -21.2260   -6.5390   23.6490 C   0  0  0  0  0  3  0  0  0  0  0  0
  -21.0350   -5.7890   24.8260 C   0  0  0  0  0  3  0  0  0  0  0  0
  -21.4320   -4.4400   24.8750 C   0  0  0  0  0  0  0  0  0  0  0  0
  -22.0230   -3.8380   23.7500 C   0  0  0  0  0  3  0  0  0  0  0  0
  -22.2170   -4.5850   22.5750 C   0  0  0  0  0  0  0  0  0  0  0  0
  -22.7680   -3.9960   21.4870 F   0  0  0  0  0  0  0  0  0  0  0  0
  -21.2400   -3.7160   26.0030 F   0  0  0  0  0  0  0  0  0  0  0  0
  -23.0550  -13.2670   21.4570 C   0  0  0  0  0  0  0  0  0  0  0  0
  -22.4660  -12.4960   22.3640 N   0  0  0  0  0  0  0  0  0  0  0  0
  -22.5500  -14.3300   21.1010 O   0  0  0  0  0  0  0  0  0  0  0  0
  -22.8910  -11.6330   22.6710 H   0  0  0  0  0  0  0  0  0  0  0  0
  -21.5790  -12.7730   22.7590 H   0  0  0  0  0  0  0  0  0  0  0  0
  -25.5470  -15.0070   20.3950 N   0  0  0  0  0  0  0  0  0  0  0  0
  -24.8250  -15.6560   20.6890 H   0  0  0  0  0  0  0  0  0  0  0  0
  -26.3680  -15.4660   20.0190 H   0  0  0  0  0  0  0  0  0  0  0  0
  -28.0450  -24.9400   19.4370 C   0  0  0  0  0  2  0  0  0  0  0  0
  -28.3810  -26.3750   19.7770 O   0  0  0  0  0  0  0  0  0  0  0  0
  -24.6110  -31.6900   23.0830 C   0  0  0  0  0  0  0  0  0  0  0  0
  -27.2890  -27.2980   19.7660 C   0  0  0  0  0  0  0  0  0  0  0  0
  -23.4350  -30.3720   21.3640 C   0  0  0  0  0  3  0  0  0  0  0  0
  -24.9110  -28.9350   19.8510 C   0  0  0  0  0  0  0  0  0  0  0  0
  -25.9780  -30.7200   21.2130 C   0  0  0  0  0  2  0  0  0  0  0  0
  -26.0800  -29.3810   20.4810 C   0  0  0  0  0  0  0  0  0  0  0  0
  -27.2710  -28.5770   20.4290 C   0  0  0  0  0  3  0  0  0  0  0  0
  -26.0860  -26.9420   19.1040 C   0  0  0  0  0  3  0  0  0  0  0  0
  -24.9210  -27.7230   19.1530 C   0  0  0  0  0  3  0  0  0  0  0  0
  -23.6640  -29.7910   19.9480 C   0  0  0  0  0  2  0  0  0  0  0  0
  -24.6930  -30.9420   21.9430 N   0  0  0  0  0  0  0  0  0  0  0  0
  -23.5200  -31.9210   23.6270 O   0  0  0  0  0  0  0  0  0  0  0  0
  -22.7820  -29.2900   22.2600 C   0  0  0  0  0  0  0  0  0  0  0  0
  -21.4560  -29.1100   22.1290 N   0  0  0  0  0  0  0  0  0  0  0  0
  -23.4680  -28.6190   23.0340 O   0  0  0  0  0  0  0  0  0  0  0  0
  -20.9590  -29.7060   21.4810 H   0  0  0  0  0  0  0  0  0  0  0  0
  -18.0800  -27.9060   22.6350 C   0  0  0  0  0  0  0  0  0  0  0  0
  -20.6480  -28.1200   22.8440 C   0  0  0  0  0  3  0  0  0  0  0  0
  -20.7150  -26.7400   22.1490 C   0  0  0  0  0  2  0  0  0  0  0  0
  -19.5790  -26.5120   21.1470 C   0  0  0  0  0  2  0  0  0  0  0  0
  -18.2200  -26.6160   21.8440 C   0  0  0  0  0  2  0  0  0  0  0  0
  -19.2200  -28.6190   23.0910 C   0  0  0  0  0  0  0  0  0  0  0  0
  -19.0330  -29.8290   23.7930 C   0  0  0  0  0  3  0  0  0  0  0  0
  -17.7400  -30.3260   24.0430 C   0  0  0  0  0  3  0  0  0  0  0  0
  -16.6150  -29.6090   23.6020 C   0  0  0  0  0  3  0  0  0  0  0  0
  -16.7850  -28.3990   22.9040 C   0  0  0  0  0  3  0  0  0  0  0  0
  -25.8800  -32.3070   23.7450 C   0  0  0  0  0  3  0  0  0  0  0  0
  -25.5650  -33.7010   24.0950 N   0  0  0  0  0  0  0  0  0  0  0  0
  -25.8850  -34.7660   23.3480 C   0  0  0  0  0  0  0  0  0  0  0  0
  -26.5470  -34.6800   22.3100 O   0  0  0  0  0  0  0  0  0  0  0  0
  -24.9750  -33.8410   24.9020 H   0  0  0  0  0  0  0  0  0  0  0  0
  -24.1280  -36.5430   23.0580 C   0  0  0  0  0  1  0  0  0  0  0  0
  -25.3970  -36.1450   23.8290 C   0  0  0  0  0  3  0  0  0  0  0  0
  -27.5370  -37.0570   24.6150 C   0  0  0  0  0  1  0  0  0  0  0  0
  -26.4140  -37.2110   23.6940 N   0  0  0  0  0  0  0  0  0  0  0  0
  -26.0000  -38.1260   23.8510 H   0  0  0  0  0  0  0  0  0  0  0  0
  -26.3620  -31.5130   25.0190 C   0  0  1  0  0  0  0  0  0  0  0  0
  -25.2420  -31.2570   26.0540 C   0  0  0  0  0  1  0  0  0  0  0  0
  -26.9570  -30.1410   24.6210 C   0  0  0  0  0  1  0  0  0  0  0  0
  -27.4950  -32.2950   25.7250 C   0  0  0  0  0  1  0  0  0  0  0  0
  1  2  2  0
  1  4  1  0
  2  5  1  0
  4  3  2  0
  5  3  1  0
  5  7  1  0
  6 10  1  0
  7  6  2  0
  8  9  2  0
  8 10  1  0
 11  7  1  0
 11  8  1  0
 12 18  1  0
 12  9  1  0
 13 18  1  0
 14 15  1  0
 14 13  1  0
 16 15  1  0
 16 23  1  0
 16 17  1  0
 18 17  1  0
 19 12  2  0
 20 21  2  0
 21 40  1  0
 22 25  1  0
 22 21  1  0
 23 24  1  0
 23 20  1  0
 24 22  2  0
 25 26  1  0
 26 27  2  0
 28 31  1  0
 28 27  1  0
 29 28  2  0
 30 29  1  0
 30 25  2  0
 31 32  1  0
 32 37  2  0
 32 33  1  0
 33 34  2  0
 34 35  1  0
 35 39  1  0
 36 35  2  0
 37 36  1  0
 38 37  1  0
 40 41  1  0
 41 43  1  0
 41 44  1  0
 42 40  2  0
 45 20  1  0
 45 46  1  0
 47 45  1  0
 48  4  1  0
 48 49  1  0
 50 61  2  0
 51 49  1  0
 51 56  1  0
 52 60  1  0
 52 62  1  0
 53 59  1  0
 53 55  1  0
 54 60  1  0
 55 54  1  0
 56 55  2  0
 57 58  1  0
 57 51  2  0
 58 53  2  0
 59 52  1  0
 60 50  1  0
 62 64  2  0
 63 62  1  0
 65 63  1  0
 66 75  2  0
 66 71  1  0
 67 63  1  0
 67 71  1  0
 68 67  1  0
 69 70  1  0
 69 68  1  0
 70 66  1  0
 71 72  2  0
 72 73  1  0
 74 73  2  0
 75 74  1  0
 76 50  1  0
 76 77  1  0
 76 86  1  0
 77 80  1  0
 78 82  1  0
 78 77  1  0
 79 78  2  0
 82 81  1  0
 84 82  1  0
 84 85  1  0
 84 83  1  0
 86 89  1  1
 86 87  1  0
 88 86  1  0
M  ISO  4   9 100  12 100  48 101  49 101
M  END
>  <TORSDO>  (48) 
F 18

>  <SCORE>  (48) 
-11.911

>  <name>  (48) 
47

>  <ligand_id>  (48) 
47

>  <original_smiles>  (48) 
[H]c1sc(=NC(=O)N2C([H])([H])C([H])([H])C([H])([H])C([H])(n3nc(-c4c([H])c([H])c(Oc5c([H])c([H])c(F)c([H])c5F)c([H])c4[H])c(C(=O)N([H])[H])c3N([H])[H])C2([H])[H])sc1-n1c([H])c([H])c(C([H])([H])Oc2c([H])c([H])c3c(c2[H])C([H])([H])N(C(=O)C([H])(N([H])C(=O)C([H])(N([H])C([H])([H])[H])C([H])([H])[H])C(C([H])([H])[H])(C([H])([H])[H])C([H])([H])[H])C([H])(C(=O)N([H])C2([H])c4c([H])c([H])c([H])c([H])c4C([H])([H])C([H])([H])C2([H])[H])C3([H])[H])c1[H]

>  <smiles>  (48) 
[H]c1sc(=NC(=O)N2C([H])([H])C([H])([H])C([H])([H])C([H])(n3nc(-c4c([H])c([H])c(Oc5c([H])c([H])c(F)c([H])c5F)c([H])c4[H])c(C(=O)N([H])[H])c3N([H])[H])C2([H])[H])sc1-n1c([H])c([H])c(C([H])([H])Oc2c([H])c([H])c3c(c2[H])C([H])([H])N(C(=O)C([H])(N([H])C(=O)C([H])(N([H])C([H])([H])[H])C([H])([H])[H])C(C([H])([H])[H])(C([H])([H])[H])C([H])([H])[H])C([H])(C(=O)N([H])C2([H])c4c([H])c([H])c([H])c([H])c4C([H])([H])C([H])([H])C2([H])[H])C3([H])[H])c1[H]

$$$$
48:0:0
     RDKit          3D

 92101  0  0  1  0  0  0  0  0999 V2000
  -30.3080  -23.8460   20.2880 C   0  0  0  0  0  3  0  0  0  0  0  0
  -28.9910  -23.8480   20.0850 C   0  0  0  0  0  0  0  0  0  0  0  0
  -28.5690  -22.4290   20.0540 C   0  0  0  0  0  0  0  0  0  0  0  0
  -30.8520  -22.4360   20.3950 C   0  0  0  0  0  2  0  0  0  0  0  0
  -29.6520  -21.5990   20.2520 N   0  0  0  0  0  0  0  0  0  0  0  0
  -27.4130  -22.0410   19.8550 O   0  0  0  0  0  0  0  0  0  0  0  0
  -28.5750  -19.3150   20.6220 C   0  0  0  0  0  3  0  0  0  0  0  0
  -30.9080  -19.3880   20.0760 C   0  0  0  0  0  3  0  0  0  0  0  0
  -28.6480  -17.8940   20.7020 C   0  0  0  0  0  3  0  0  0  0  0  0
  -30.9800  -17.9590   20.1400 C   0  0  0  0  0  3  0  0  0  0  0  0
  -29.7040  -20.1200   20.3050 C   0  0  0  0  0  0  0  0  0  0  0  0
  -29.8430  -17.1680   20.4610 C   0  0  0  0  0  0  0  0  0  0  0  0
  -30.5790  -14.6810   20.1240 C   0  0  0  0  0  0  0  0  0  0  0  0
  -30.3150  -12.4690   19.0180 C   0  0  0  0  0  2  0  0  0  0  0  0
  -29.3130  -12.6290   17.8530 C   0  0  0  0  0  2  0  0  0  0  0  0
  -27.8600  -12.4680   18.3460 C   0  0  0  0  0  2  0  0  0  0  0  0
  -27.5650  -13.3030   19.6190 C   0  0  0  0  0  3  0  0  0  0  0  0
  -28.6740  -13.1070   20.6800 C   0  0  0  0  0  2  0  0  0  0  0  0
  -29.9600  -13.4590   20.0530 N   0  0  0  0  0  0  0  0  0  0  0  0
  -31.7160  -14.8540   19.6740 O   0  0  0  0  0  0  0  0  0  0  0  0
  -29.7920  -15.7080   20.5740 N   0  0  0  0  0  0  0  0  0  0  0  0
  -28.9190  -15.3620   20.9430 H   0  0  0  0  0  0  0  0  0  0  0  0
  -25.2090  -13.9040   20.4560 C   0  0  0  0  0  0  0  0  0  0  0  0
  -24.1540  -13.1300   20.8560 C   0  0  0  0  0  0  0  0  0  0  0  0
  -24.6040  -11.7770   20.7760 C   0  0  0  0  0  0  0  0  0  0  0  0
  -26.2360  -13.0210   20.1570 N   0  0  0  0  0  0  0  0  0  0  0  0
  -25.8790  -11.7360   20.4090 N   0  0  0  0  0  0  0  0  0  0  0  0
  -23.8780  -10.5160   20.9720 C   0  0  0  0  0  0  0  0  0  0  0  0
  -24.3190   -9.5450   21.8980 C   0  0  0  0  0  3  0  0  0  0  0  0
  -23.5930   -8.3480   22.0810 C   0  0  0  0  0  3  0  0  0  0  0  0
  -22.4120   -8.1130   21.3390 C   0  0  0  0  0  0  0  0  0  0  0  0
  -21.9910   -9.0720   20.4000 C   0  0  0  0  0  3  0  0  0  0  0  0
  -22.7170  -10.2600   20.2150 C   0  0  0  0  0  3  0  0  0  0  0  0
  -21.6580   -6.9680   21.4310 O   0  0  0  0  0  0  0  0  0  0  0  0
  -21.5830   -6.2480   22.5970 C   0  0  0  0  0  0  0  0  0  0  0  0
  -21.1180   -6.8240   23.7990 C   0  0  0  0  0  3  0  0  0  0  0  0
  -20.9920   -6.0290   24.9560 C   0  0  0  0  0  3  0  0  0  0  0  0
  -21.3190   -4.6600   24.9120 C   0  0  0  0  0  0  0  0  0  0  0  0
  -21.7760   -4.0850   23.7130 C   0  0  0  0  0  3  0  0  0  0  0  0
  -21.9050   -4.8760   22.5580 C   0  0  0  0  0  0  0  0  0  0  0  0
  -22.3250   -4.3120   21.4010 F   0  0  0  0  0  0  0  0  0  0  0  0
  -21.1900   -3.8960   26.0210 F   0  0  0  0  0  0  0  0  0  0  0  0
  -22.7720  -13.6100   21.1980 C   0  0  0  0  0  0  0  0  0  0  0  0
  -22.0790  -12.9040   22.0840 N   0  0  0  0  0  0  0  0  0  0  0  0
  -22.3180  -14.6460   20.7160 O   0  0  0  0  0  0  0  0  0  0  0  0
  -22.4590  -12.0660   22.4980 H   0  0  0  0  0  0  0  0  0  0  0  0
  -21.1540  -13.2080   22.3550 H   0  0  0  0  0  0  0  0  0  0  0  0
  -25.3750  -15.2770   20.2990 N   0  0  0  0  0  0  0  0  0  0  0  0
  -24.6140  -15.9290   20.4490 H   0  0  0  0  0  0  0  0  0  0  0  0
  -26.1940  -15.7130   19.8960 H   0  0  0  0  0  0  0  0  0  0  0  0
  -28.0060  -25.0360   19.8110 C   0  0  0  0  0  2  0  0  0  0  0  0
  -28.3290  -26.4620   20.1010 O   0  0  0  0  0  0  0  0  0  0  0  0
  -24.6430  -31.8630   23.2280 C   0  0  0  0  0  0  0  0  0  0  0  0
  -27.2290  -27.3480   20.0660 C   0  0  0  0  0  0  0  0  0  0  0  0
  -23.4300  -30.4960   21.5750 C   0  0  0  0  0  3  0  0  0  0  0  0
  -24.8690  -28.9810   20.1110 C   0  0  0  0  0  0  0  0  0  0  0  0
  -25.9720  -30.8120   21.3820 C   0  0  0  0  0  2  0  0  0  0  0  0
  -26.0470  -29.4470   20.7090 C   0  0  0  0  0  0  0  0  0  0  0  0
  -27.2300  -28.6440   20.6790 C   0  0  0  0  0  3  0  0  0  0  0  0
  -26.0200  -26.9530   19.4410 C   0  0  0  0  0  3  0  0  0  0  0  0
  -24.8580  -27.7380   19.4690 C   0  0  0  0  0  3  0  0  0  0  0  0
  -23.6350  -29.8540   20.1810 C   0  0  0  0  0  2  0  0  0  0  0  0
  -24.7020  -31.0730   22.1180 N   0  0  0  0  0  0  0  0  0  0  0  0
  -23.5630  -32.1330   23.7720 O   0  0  0  0  0  0  0  0  0  0  0  0
  -22.7740  -29.4590   22.5180 C   0  0  0  0  0  0  0  0  0  0  0  0
  -21.4470  -29.2830   22.3970 N   0  0  0  0  0  0  0  0  0  0  0  0
  -23.4570  -28.8170   23.3210 O   0  0  0  0  0  0  0  0  0  0  0  0
  -20.9540  -29.8530   21.7240 H   0  0  0  0  0  0  0  0  0  0  0  0
  -18.0690  -28.0900   22.9060 C   0  0  0  0  0  0  0  0  0  0  0  0
  -20.6310  -28.3340   23.1580 C   0  0  0  0  0  3  0  0  0  0  0  0
  -20.7210  -26.9140   22.5550 C   0  0  0  0  0  2  0  0  0  0  0  0
  -19.6080  -26.6140   21.5460 C   0  0  0  0  0  2  0  0  0  0  0  0
  -18.2320  -26.7530   22.2060 C   0  0  0  0  0  2  0  0  0  0  0  0
  -19.1940  -28.8400   23.3410 C   0  0  0  0  0  0  0  0  0  0  0  0
  -18.9850  -30.0930   23.9570 C   0  0  0  0  0  3  0  0  0  0  0  0
  -17.6830  -30.5960   24.1440 C   0  0  0  0  0  3  0  0  0  0  0  0
  -16.5720  -29.8420   23.7260 C   0  0  0  0  0  3  0  0  0  0  0  0
  -16.7660  -28.5910   23.1130 C   0  0  0  0  0  3  0  0  0  0  0  0
  -25.9300  -32.4860   23.8520 C   0  0  0  0  0  3  0  0  0  0  0  0
  -25.6240  -33.8810   24.1990 N   0  0  0  0  0  0  0  0  0  0  0  0
  -25.9310  -34.9390   23.4380 C   0  0  0  0  0  0  0  0  0  0  0  0
  -26.5730  -34.8440   22.3890 O   0  0  0  0  0  0  0  0  0  0  0  0
  -25.0480  -34.0290   25.0150 H   0  0  0  0  0  0  0  0  0  0  0  0
  -24.1780  -36.7200   23.1550 C   0  0  0  0  0  1  0  0  0  0  0  0
  -25.4510  -36.3230   23.9170 C   0  0  0  0  0  3  0  0  0  0  0  0
  -27.6110  -37.2210   24.6670 C   0  0  0  0  0  1  0  0  0  0  0  0
  -26.4700  -37.3850   23.7690 N   0  0  0  0  0  0  0  0  0  0  0  0
  -26.0630  -38.3010   23.9380 H   0  0  0  0  0  0  0  0  0  0  0  0
  -26.4470  -31.6990   25.1200 C   0  0  1  0  0  0  0  0  0  0  0  0
  -25.3550  -31.4530   26.1860 C   0  0  0  0  0  1  0  0  0  0  0  0
  -27.0240  -30.3230   24.7120 C   0  0  0  0  0  1  0  0  0  0  0  0
  -27.6010  -32.4820   25.7870 C   0  0  0  0  0  1  0  0  0  0  0  0
  1  4  1  0
  2  1  2  0
  3  2  1  0
  3  5  1  0
  5 11  1  0
  5  4  1  0
  6  3  2  0
  7  9  1  0
  8 10  2  0
  8 11  1  0
 10 12  1  0
 11  7  2  0
 12 21  1  0
 12  9  2  0
 13 21  1  0
 14 19  1  0
 15 16  1  0
 15 14  1  0
 17 16  1  0
 17 26  1  0
 17 18  1  0
 19 13  1  0
 19 18  1  0
 20 13  2  0
 21 22  1  0
 23 24  2  0
 24 43  1  0
 25 24  1  0
 25 28  1  0
 26 27  1  0
 26 23  1  0
 27 25  2  0
 28 29  1  0
 29 30  2  0
 31 34  1  0
 31 30  1  0
 32 31  2  0
 33 32  1  0
 33 28  2  0
 34 35  1  0
 35 36  1  0
 36 37  2  0
 38 37  1  0
 38 42  1  0
 39 38  2  0
 40 35  2  0
 40 39  1  0
 41 40  1  0
 43 44  1  0
 44 47  1  0
 44 46  1  0
 45 43  2  0
 48 49  1  0
 48 23  1  0
 50 48  1  0
 51  2  1  0
 51 52  1  0
 53 64  2  0
 54 52  1  0
 54 59  1  0
 55 63  1  0
 55 65  1  0
 56 62  1  0
 56 58  1  0
 57 63  1  0
 58 57  1  0
 59 58  2  0
 60 61  1  0
 60 54  2  0
 61 56  2  0
 62 55  1  0
 63 53  1  0
 65 67  2  0
 66 65  1  0
 68 66  1  0
 69 78  2  0
 69 74  1  0
 70 66  1  0
 70 74  1  0
 71 70  1  0
 72 73  1  0
 72 71  1  0
 73 69  1  0
 74 75  2  0
 75 76  1  0
 77 76  2  0
 78 77  1  0
 79 53  1  0
 79 80  1  0
 79 89  1  0
 80 83  1  0
 81 85  1  0
 81 80  1  0
 82 81  2  0
 85 84  1  0
 87 85  1  0
 87 88  1  0
 87 86  1  0
 89 92  1  1
 89 90  1  0
 91 89  1  0
M  ISO  4  13 100  21 100  51 101  52 101
M  END
>  <TORSDO>  (49) 
F 18

>  <SCORE>  (49) 
-14.678

>  <name>  (49) 
48

>  <ligand_id>  (49) 
48

>  <original_smiles>  (49) 
[H]C1=C(C([H])([H])Oc2c([H])c([H])c3c(c2[H])C([H])([H])N(C(=O)C([H])(N([H])C(=O)C([H])(N([H])C([H])([H])[H])C([H])([H])[H])C(C([H])([H])[H])(C([H])([H])[H])C([H])([H])[H])C([H])(C(=O)N([H])C2([H])c4c([H])c([H])c([H])c([H])c4C([H])([H])C([H])([H])C2([H])[H])C3([H])[H])C(=O)N(c2c([H])c([H])c(N([H])C(=O)N3C([H])([H])C([H])([H])C([H])([H])C([H])(n4nc(-c5c([H])c([H])c(Oc6c([H])c([H])c(F)c([H])c6F)c([H])c5[H])c(C(=O)N([H])[H])c4N([H])[H])C3([H])[H])c([H])c2[H])C1([H])[H]

>  <smiles>  (49) 
[H]C1=C(C([H])([H])Oc2c([H])c([H])c3c(c2[H])C([H])([H])N(C(=O)C([H])(N([H])C(=O)C([H])(N([H])C([H])([H])[H])C([H])([H])[H])C(C([H])([H])[H])(C([H])([H])[H])C([H])([H])[H])C([H])(C(=O)N([H])C2([H])c4c([H])c([H])c([H])c([H])c4C([H])([H])C([H])([H])C2([H])[H])C3([H])[H])C(=O)N(c2c([H])c([H])c(N([H])C(=O)N3C([H])([H])C([H])([H])C([H])([H])C([H])(n4nc(-c5c([H])c([H])c(Oc6c([H])c([H])c(F)c([H])c6F)c([H])c5[H])c(C(=O)N([H])[H])c4N([H])[H])C3([H])[H])c([H])c2[H])C1([H])[H]

$$$$
49:0:0
     RDKit          3D

 96105  0  0  1  0  0  0  0  0999 V2000
  -28.9120  -23.5780   18.7910 C   0  0  0  0  0  0  0  0  0  0  0  0
  -28.6910  -23.8250   20.0900 C   0  0  0  0  0  0  0  0  0  0  0  0
  -29.2750  -22.1760   18.6240 C   0  0  0  0  0  0  0  0  0  0  0  0
  -28.9190  -22.5380   20.7750 C   0  0  0  0  0  0  0  0  0  0  0  0
  -28.7770  -24.5230   17.6080 C   0  0  0  0  0  1  0  0  0  0  0  0
  -29.2480  -21.5900   19.8430 N   0  0  0  0  0  0  0  0  0  0  0  0
  -29.5640  -21.6160   17.5600 O   0  0  0  0  0  0  0  0  0  0  0  0
  -28.8210  -22.3270   21.9900 O   0  0  0  0  0  0  0  0  0  0  0  0
  -29.1730  -17.7260   19.5580 C   0  0  0  0  0  3  0  0  0  0  0  0
  -28.9190  -19.1120   19.3170 C   0  0  0  0  0  3  0  0  0  0  0  0
  -30.4530  -19.7010   21.0610 C   0  0  0  0  0  3  0  0  0  0  0  0
  -30.0570  -17.2690   20.5720 C   0  0  0  0  0  0  0  0  0  0  0  0
  -30.7170  -18.3140   21.3020 C   0  0  0  0  0  0  0  0  0  0  0  0
  -29.5310  -20.1520   20.0780 C   0  0  0  0  0  0  0  0  0  0  0  0
  -31.7180  -17.9790   22.4000 C   0  0  0  0  0  1  0  0  0  0  0  0
  -30.0990  -15.7860   21.0100 C   0  0  0  0  0  0  0  0  0  0  0  0
  -29.6840  -15.5410   22.1830 N   0  0  0  0  0  0  0  0  0  0  0  0
  -29.3640  -16.3910   22.6280 H   0  0  0  0  0  0  0  0  0  0  0  0
  -30.6990  -14.6410   20.0970 C   0  0  0  0  0  0  0  0  0  0  0  0
  -30.3850  -12.4620   18.9170 C   0  0  0  0  0  2  0  0  0  0  0  0
  -29.3720  -12.6450   17.7620 C   0  0  0  0  0  2  0  0  0  0  0  0
  -27.9200  -12.4800   18.2590 C   0  0  0  0  0  2  0  0  0  0  0  0
  -27.6500  -13.2840   19.5580 C   0  0  0  0  0  3  0  0  0  0  0  0
  -28.7610  -13.0210   20.5930 C   0  0  0  0  0  2  0  0  0  0  0  0
  -30.0460  -13.4260   19.9910 N   0  0  0  0  0  0  0  0  0  0  0  0
  -31.7560  -14.8400   19.4860 O   0  0  0  0  0  0  0  0  0  0  0  0
  -25.3040  -13.8930   20.4140 C   0  0  0  0  0  0  0  0  0  0  0  0
  -24.2520  -13.1220   20.8270 C   0  0  0  0  0  0  0  0  0  0  0  0
  -24.6970  -11.7680   20.7430 C   0  0  0  0  0  0  0  0  0  0  0  0
  -26.3240  -13.0070   20.1050 N   0  0  0  0  0  0  0  0  0  0  0  0
  -25.9660  -11.7230   20.3590 N   0  0  0  0  0  0  0  0  0  0  0  0
  -23.9700  -10.5090   20.9500 C   0  0  0  0  0  0  0  0  0  0  0  0
  -24.4260   -9.5340   21.8650 C   0  0  0  0  0  3  0  0  0  0  0  0
  -23.7000   -8.3390   22.0590 C   0  0  0  0  0  3  0  0  0  0  0  0
  -22.5030   -8.1110   21.3390 C   0  0  0  0  0  0  0  0  0  0  0  0
  -22.0660   -9.0750   20.4130 C   0  0  0  0  0  3  0  0  0  0  0  0
  -22.7920  -10.2610   20.2180 C   0  0  0  0  0  3  0  0  0  0  0  0
  -21.7460   -6.9700   21.4430 O   0  0  0  0  0  0  0  0  0  0  0  0
  -21.7010   -6.2400   22.6040 C   0  0  0  0  0  0  0  0  0  0  0  0
  -21.2970   -6.8120   23.8290 C   0  0  0  0  0  3  0  0  0  0  0  0
  -21.1990   -6.0080   24.9840 C   0  0  0  0  0  3  0  0  0  0  0  0
  -21.4940   -4.6340   24.9120 C   0  0  0  0  0  0  0  0  0  0  0  0
  -21.8900   -4.0610   23.6910 C   0  0  0  0  0  3  0  0  0  0  0  0
  -21.9900   -4.8610   22.5390 C   0  0  0  0  0  0  0  0  0  0  0  0
  -22.3520   -4.3000   21.3610 F   0  0  0  0  0  0  0  0  0  0  0  0
  -21.3910   -3.8600   26.0180 F   0  0  0  0  0  0  0  0  0  0  0  0
  -22.8770  -13.6070   21.1890 C   0  0  0  0  0  0  0  0  0  0  0  0
  -22.1940  -12.9010   22.0850 N   0  0  0  0  0  0  0  0  0  0  0  0
  -22.4180  -14.6440   20.7140 O   0  0  0  0  0  0  0  0  0  0  0  0
  -22.5770  -12.0600   22.4910 H   0  0  0  0  0  0  0  0  0  0  0  0
  -21.2740  -13.2060   22.3690 H   0  0  0  0  0  0  0  0  0  0  0  0
  -25.4720  -15.2650   20.2570 N   0  0  0  0  0  0  0  0  0  0  0  0
  -24.7250  -15.9270   20.4350 H   0  0  0  0  0  0  0  0  0  0  0  0
  -26.3220  -15.7070   19.9310 H   0  0  0  0  0  0  0  0  0  0  0  0
  -28.2020  -25.1370   20.8100 C   0  0  0  0  0  2  0  0  0  0  0  0
  -28.3830  -26.4720   20.1910 O   0  0  0  0  0  0  0  0  0  0  0  0
  -24.5960  -31.8380   23.2070 C   0  0  0  0  0  0  0  0  0  0  0  0
  -27.2620  -27.3090   20.1750 C   0  0  0  0  0  0  0  0  0  0  0  0
  -23.4100  -30.4240   21.5660 C   0  0  0  0  0  3  0  0  0  0  0  0
  -24.8790  -28.8800   20.1520 C   0  0  0  0  0  0  0  0  0  0  0  0
  -25.9440  -30.7710   21.3860 C   0  0  0  0  0  2  0  0  0  0  0  0
  -26.0410  -29.3910   20.7460 C   0  0  0  0  0  0  0  0  0  0  0  0
  -27.2380  -28.6190   20.7450 C   0  0  0  0  0  3  0  0  0  0  0  0
  -26.0820  -26.8430   19.5610 C   0  0  0  0  0  3  0  0  0  0  0  0
  -24.9000  -27.6110   19.5500 C   0  0  0  0  0  3  0  0  0  0  0  0
  -23.6330  -29.7430   20.1910 C   0  0  0  0  0  2  0  0  0  0  0  0
  -24.6690  -31.0280   22.1100 N   0  0  0  0  0  0  0  0  0  0  0  0
  -23.5090  -32.1080   23.7380 O   0  0  0  0  0  0  0  0  0  0  0  0
  -22.7520  -29.4060   22.5280 C   0  0  0  0  0  0  0  0  0  0  0  0
  -21.4270  -29.2230   22.4020 N   0  0  0  0  0  0  0  0  0  0  0  0
  -23.4330  -28.7840   23.3470 O   0  0  0  0  0  0  0  0  0  0  0  0
  -20.9360  -29.7780   21.7150 H   0  0  0  0  0  0  0  0  0  0  0  0
  -18.0560  -28.0060   22.8940 C   0  0  0  0  0  0  0  0  0  0  0  0
  -20.6110  -28.2840   23.1730 C   0  0  0  0  0  3  0  0  0  0  0  0
  -20.7250  -26.8500   22.6030 C   0  0  0  0  0  2  0  0  0  0  0  0
  -19.6290  -26.5170   21.5860 C   0  0  0  0  0  2  0  0  0  0  0  0
  -18.2440  -26.6560   22.2240 C   0  0  0  0  0  2  0  0  0  0  0  0
  -19.1680  -28.7770   23.3250 C   0  0  0  0  0  0  0  0  0  0  0  0
  -18.9390  -30.0410   23.9120 C   0  0  0  0  0  3  0  0  0  0  0  0
  -17.6300  -30.5350   24.0700 C   0  0  0  0  0  3  0  0  0  0  0  0
  -16.5320  -29.7610   23.6550 C   0  0  0  0  0  3  0  0  0  0  0  0
  -16.7460  -28.4990   23.0730 C   0  0  0  0  0  3  0  0  0  0  0  0
  -25.8720  -32.4820   23.8320 C   0  0  0  0  0  3  0  0  0  0  0  0
  -26.3960  -31.7130   25.1070 C   0  0  1  0  0  0  0  0  0  0  0  0
  -25.3050  -31.4610   26.1750 C   0  0  0  0  0  1  0  0  0  0  0  0
  -26.9930  -30.3430   24.7110 C   0  0  0  0  0  1  0  0  0  0  0  0
  -27.5390  -32.5160   25.7700 C   0  0  0  0  0  1  0  0  0  0  0  0
  -25.5480  -33.8770   24.1670 N   0  0  0  0  0  0  0  0  0  0  0  0
  -25.8710  -34.9360   23.4120 C   0  0  0  0  0  0  0  0  0  0  0  0
  -26.5440  -34.8430   22.3820 O   0  0  0  0  0  0  0  0  0  0  0  0
  -24.9520  -34.0230   24.9680 H   0  0  0  0  0  0  0  0  0  0  0  0
  -24.1240  -36.7110   23.0650 C   0  0  0  0  0  1  0  0  0  0  0  0
  -25.3700  -36.3180   23.8750 C   0  0  0  0  0  3  0  0  0  0  0  0
  -27.4960  -37.2200   24.7080 C   0  0  0  0  0  1  0  0  0  0  0  0
  -26.3920  -37.3820   23.7660 N   0  0  0  0  0  0  0  0  0  0  0  0
  -25.9770  -38.2970   23.9190 H   0  0  0  0  0  0  0  0  0  0  0  0
  1  2  2  0
  2  4  1  0
  2 55  1  0
  3  1  1  0
  3  6  1  0
  4  8  2  0
  5  1  1  0
  6 14  1  0
  6  4  1  0
  7  3  2  0
  9 12  1  0
 10  9  2  0
 10 14  1  0
 11 13  1  0
 12 16  1  0
 12 13  2  0
 13 15  1  0
 14 11  2  0
 16 17  2  0
 17 18  1  0
 19 16  1  0
 20 25  1  0
 21 22  1  0
 21 20  1  0
 23 22  1  0
 23 30  1  0
 23 24  1  0
 25 19  1  0
 25 24  1  0
 26 19  2  0
 27 28  2  0
 28 47  1  0
 29 28  1  0
 29 32  1  0
 30 31  1  0
 30 27  1  0
 31 29  2  0
 32 33  1  0
 33 34  2  0
 35 38  1  0
 35 34  1  0
 36 35  2  0
 37 36  1  0
 37 32  2  0
 38 39  1  0
 39 40  1  0
 40 41  2  0
 42 41  1  0
 42 46  1  0
 43 42  2  0
 44 39  2  0
 44 43  1  0
 45 44  1  0
 47 48  1  0
 48 51  1  0
 48 50  1  0
 49 47  2  0
 52 27  1  0
 52 53  1  0
 54 52  1  0
 56 55  1  0
 57 68  2  0
 58 56  1  0
 58 63  1  0
 59 67  1  0
 59 69  1  0
 60 66  1  0
 60 62  1  0
 61 67  1  0
 62 61  1  0
 63 62  2  0
 64 58  2  0
 65 64  1  0
 65 60  2  0
 66 59  1  0
 67 57  1  0
 69 71  2  0
 70 69  1  0
 72 70  1  0
 73 82  2  0
 73 78  1  0
 74 70  1  0
 74 78  1  0
 75 74  1  0
 76 77  1  0
 76 75  1  0
 77 73  1  0
 78 79  2  0
 79 80  1  0
 81 80  2  0
 82 81  1  0
 83 57  1  0
 83 88  1  0
 83 84  1  0
 84 87  1  1
 84 85  1  0
 86 84  1  0
 88 91  1  0
 89 93  1  0
 89 88  1  0
 90 89  2  0
 93 92  1  0
 95 93  1  0
 95 96  1  0
 95 94  1  0
M  ISO  4  16 100  19 100  55 101  56 101
M  END
>  <TORSDO>  (50) 
F 19

>  <SCORE>  (50) 
-13.633

>  <name>  (50) 
49

>  <ligand_id>  (50) 
49

>  <original_smiles>  (50) 
[H]N=C(C(=O)N1C([H])([H])C([H])([H])C([H])([H])C([H])(n2nc(-c3c([H])c([H])c(Oc4c([H])c([H])c(F)c([H])c4F)c([H])c3[H])c(C(=O)N([H])[H])c2N([H])[H])C1([H])[H])c1c([H])c([H])c(N2C(=O)C(C([H])([H])[H])=C(C([H])([H])Oc3c([H])c([H])c4c(c3[H])C([H])([H])N(C(=O)C([H])(N([H])C(=O)C([H])(N([H])C([H])([H])[H])C([H])([H])[H])C(C([H])([H])[H])(C([H])([H])[H])C([H])([H])[H])C([H])(C(=O)N([H])C3([H])c5c([H])c([H])c([H])c([H])c5C([H])([H])C([H])([H])C3([H])[H])C4([H])[H])C2=O)c([H])c1C([H])([H])[H]

>  <smiles>  (50) 
[H]N=C(C(=O)N1C([H])([H])C([H])([H])C([H])([H])C([H])(n2nc(-c3c([H])c([H])c(Oc4c([H])c([H])c(F)c([H])c4F)c([H])c3[H])c(C(=O)N([H])[H])c2N([H])[H])C1([H])[H])c1c([H])c([H])c(N2C(=O)C(C([H])([H])[H])=C(C([H])([H])Oc3c([H])c([H])c4c(c3[H])C([H])([H])N(C(=O)C([H])(N([H])C(=O)C([H])(N([H])C([H])([H])[H])C([H])([H])[H])C(C([H])([H])[H])(C([H])([H])[H])C([H])([H])[H])C([H])(C(=O)N([H])C3([H])c5c([H])c([H])c([H])c([H])c5C([H])([H])C([H])([H])C3([H])[H])C4([H])[H])C2=O)c([H])c1C([H])([H])[H]

$$$$
50:0:0
     RDKit          3D

 94103  0  0  1  0  0  0  0  0999 V2000
  -30.2630  -23.7890   20.5270 C   0  0  0  0  0  3  0  0  0  0  0  0
  -29.0300  -23.7910   20.0200 C   0  0  0  0  0  0  0  0  0  0  0  0
  -30.7110  -22.4160   20.6930 C   0  0  0  0  0  0  0  0  0  0  0  0
  -28.6690  -22.3700   19.8570 C   0  0  0  0  0  0  0  0  0  0  0  0
  -29.7190  -21.5940   20.2680 N   0  0  0  0  0  0  0  0  0  0  0  0
  -31.8030  -22.0580   21.1520 O   0  0  0  0  0  0  0  0  0  0  0  0
  -27.6010  -21.9350   19.4090 O   0  0  0  0  0  0  0  0  0  0  0  0
  -30.9930  -19.3760   20.0380 C   0  0  0  0  0  3  0  0  0  0  0  0
  -31.0740  -17.9480   20.1060 C   0  0  0  0  0  3  0  0  0  0  0  0
  -28.6620  -19.2890   20.5980 C   0  0  0  0  0  3  0  0  0  0  0  0
  -29.7880  -20.1050   20.2900 C   0  0  0  0  0  0  0  0  0  0  0  0
  -29.9430  -17.1520   20.4320 C   0  0  0  0  0  0  0  0  0  0  0  0
  -28.7410  -17.8650   20.6690 C   0  0  0  0  0  0  0  0  0  0  0  0
  -27.6250  -17.1590   20.9760 F   0  0  0  0  0  0  0  0  0  0  0  0
  -30.6480  -14.6650   20.0420 C   0  0  0  0  0  0  0  0  0  0  0  0
  -30.3590  -12.4610   18.9240 C   0  0  0  0  0  2  0  0  0  0  0  0
  -29.3400  -12.6330   17.7750 C   0  0  0  0  0  2  0  0  0  0  0  0
  -27.8940  -12.4740   18.2870 C   0  0  0  0  0  2  0  0  0  0  0  0
  -27.6230  -13.3000   19.5730 C   0  0  0  0  0  3  0  0  0  0  0  0
  -28.7460  -13.0910   20.6140 C   0  0  0  0  0  2  0  0  0  0  0  0
  -30.0230  -13.4450   19.9720 N   0  0  0  0  0  0  0  0  0  0  0  0
  -31.7720  -14.8380   19.5620 O   0  0  0  0  0  0  0  0  0  0  0  0
  -29.8890  -15.6910   20.5370 N   0  0  0  0  0  0  0  0  0  0  0  0
  -29.0330  -15.3660   20.9610 H   0  0  0  0  0  0  0  0  0  0  0  0
  -25.2810  -13.9000   20.4470 C   0  0  0  0  0  0  0  0  0  0  0  0
  -24.2290  -13.1270   20.8560 C   0  0  0  0  0  0  0  0  0  0  0  0
  -24.6740  -11.7730   20.7630 C   0  0  0  0  0  0  0  0  0  0  0  0
  -26.3010  -13.0170   20.1290 N   0  0  0  0  0  0  0  0  0  0  0  0
  -25.9440  -11.7310   20.3790 N   0  0  0  0  0  0  0  0  0  0  0  0
  -23.9480  -10.5130   20.9630 C   0  0  0  0  0  0  0  0  0  0  0  0
  -24.3820   -9.5490   21.8990 C   0  0  0  0  0  3  0  0  0  0  0  0
  -23.6550   -8.3550   22.0860 C   0  0  0  0  0  3  0  0  0  0  0  0
  -22.4780   -8.1140   21.3370 C   0  0  0  0  0  0  0  0  0  0  0  0
  -22.0630   -9.0670   20.3900 C   0  0  0  0  0  3  0  0  0  0  0  0
  -22.7910  -10.2530   20.2010 C   0  0  0  0  0  3  0  0  0  0  0  0
  -21.7220   -6.9720   21.4330 O   0  0  0  0  0  0  0  0  0  0  0  0
  -21.6200   -6.2730   22.6090 C   0  0  0  0  0  0  0  0  0  0  0  0
  -21.1360   -6.8710   23.7940 C   0  0  0  0  0  3  0  0  0  0  0  0
  -20.9830   -6.0980   24.9610 C   0  0  0  0  0  3  0  0  0  0  0  0
  -21.3030   -4.7270   24.9460 C   0  0  0  0  0  0  0  0  0  0  0  0
  -21.7810   -4.1280   23.7650 C   0  0  0  0  0  3  0  0  0  0  0  0
  -21.9360   -4.8990   22.6010 C   0  0  0  0  0  0  0  0  0  0  0  0
  -22.3760   -4.3130   21.4610 F   0  0  0  0  0  0  0  0  0  0  0  0
  -21.1500   -3.9810   26.0640 F   0  0  0  0  0  0  0  0  0  0  0  0
  -22.8550  -13.6100   21.2250 C   0  0  0  0  0  0  0  0  0  0  0  0
  -22.1780  -12.9060   22.1250 N   0  0  0  0  0  0  0  0  0  0  0  0
  -22.3940  -14.6480   20.7500 O   0  0  0  0  0  0  0  0  0  0  0  0
  -22.5650  -12.0670   22.5300 H   0  0  0  0  0  0  0  0  0  0  0  0
  -21.2590  -13.2140   22.4130 H   0  0  0  0  0  0  0  0  0  0  0  0
  -25.4470  -15.2740   20.3030 N   0  0  0  0  0  0  0  0  0  0  0  0
  -24.7040  -15.9300   20.5160 H   0  0  0  0  0  0  0  0  0  0  0  0
  -26.3140  -15.7340   20.0520 H   0  0  0  0  0  0  0  0  0  0  0  0
  -28.1010  -24.9830   19.5980 C   0  0  0  0  0  2  0  0  0  0  0  0
  -28.3850  -26.4130   19.9270 O   0  0  0  0  0  0  0  0  0  0  0  0
  -24.5580  -31.6880   23.0940 C   0  0  0  0  0  0  0  0  0  0  0  0
  -27.2730  -27.2850   19.8850 C   0  0  0  0  0  0  0  0  0  0  0  0
  -23.3900  -30.3240   21.4040 C   0  0  0  0  0  3  0  0  0  0  0  0
  -24.8780  -28.8670   19.9250 C   0  0  0  0  0  0  0  0  0  0  0  0
  -25.9250  -30.7000   21.2420 C   0  0  0  0  0  2  0  0  0  0  0  0
  -26.0370  -29.3480   20.5460 C   0  0  0  0  0  0  0  0  0  0  0  0
  -27.2370  -28.5680   20.5200 C   0  0  0  0  0  3  0  0  0  0  0  0
  -26.0850  -26.8800   19.2240 C   0  0  0  0  0  3  0  0  0  0  0  0
  -24.9040  -27.6390   19.2540 C   0  0  0  0  0  3  0  0  0  0  0  0
  -23.6240  -29.7120   19.9990 C   0  0  0  0  0  2  0  0  0  0  0  0
  -24.6430  -30.9200   21.9700 N   0  0  0  0  0  0  0  0  0  0  0  0
  -23.4660  -31.9220   23.6340 O   0  0  0  0  0  0  0  0  0  0  0  0
  -22.7480  -29.2560   22.3230 C   0  0  0  0  0  0  0  0  0  0  0  0
  -21.4260  -29.0550   22.1890 N   0  0  0  0  0  0  0  0  0  0  0  0
  -23.4410  -28.6150   23.1190 O   0  0  0  0  0  0  0  0  0  0  0  0
  -20.9260  -29.6260   21.5220 H   0  0  0  0  0  0  0  0  0  0  0  0
  -18.0690  -27.7980   22.6800 C   0  0  0  0  0  0  0  0  0  0  0  0
  -20.6280  -28.0750   22.9270 C   0  0  0  0  0  3  0  0  0  0  0  0
  -20.7390  -26.6720   22.2880 C   0  0  0  0  0  2  0  0  0  0  0  0
  -19.6260  -26.3810   21.2750 C   0  0  0  0  0  2  0  0  0  0  0  0
  -18.2510  -26.4820   21.9410 C   0  0  0  0  0  2  0  0  0  0  0  0
  -19.1840  -28.5530   23.1290 C   0  0  0  0  0  0  0  0  0  0  0  0
  -18.9590  -29.7840   23.7810 C   0  0  0  0  0  3  0  0  0  0  0  0
  -17.6510  -30.2640   23.9860 C   0  0  0  0  0  3  0  0  0  0  0  0
  -16.5500  -29.5060   23.5490 C   0  0  0  0  0  3  0  0  0  0  0  0
  -16.7600  -28.2750   22.9030 C   0  0  0  0  0  3  0  0  0  0  0  0
  -25.8240  -32.3270   23.7400 C   0  0  0  0  0  3  0  0  0  0  0  0
  -25.4880  -33.7140   24.0980 N   0  0  0  0  0  0  0  0  0  0  0  0
  -25.7890  -34.7860   23.3540 C   0  0  0  0  0  0  0  0  0  0  0  0
  -26.4510  -34.7150   22.3150 O   0  0  0  0  0  0  0  0  0  0  0  0
  -24.9000  -33.8400   24.9080 H   0  0  0  0  0  0  0  0  0  0  0  0
  -24.0100  -36.5390   23.0570 C   0  0  0  0  0  1  0  0  0  0  0  0
  -25.2760  -36.1550   23.8400 C   0  0  0  0  0  3  0  0  0  0  0  0
  -27.4040  -37.0840   24.6430 C   0  0  0  0  0  1  0  0  0  0  0  0
  -26.2790  -37.2360   23.7230 N   0  0  0  0  0  0  0  0  0  0  0  0
  -25.8510  -38.1430   23.8930 H   0  0  0  0  0  0  0  0  0  0  0  0
  -26.3410  -31.5370   25.0050 C   0  0  1  0  0  0  0  0  0  0  0  0
  -25.2410  -31.2600   26.0560 C   0  0  0  0  0  1  0  0  0  0  0  0
  -26.9490  -30.1760   24.5900 C   0  0  0  0  0  1  0  0  0  0  0  0
  -27.4720  -32.3340   25.6930 C   0  0  0  0  0  1  0  0  0  0  0  0
  1  3  1  0
  2  1  2  0
  3  6  2  0
  4  2  1  0
  4  5  1  0
  5 11  1  0
  5  3  1  0
  7  4  2  0
  8  9  2  0
  8 11  1  0
  9 12  1  0
 10 13  1  0
 11 10  2  0
 12 23  1  0
 12 13  2  0
 13 14  1  0
 15 23  1  0
 16 21  1  0
 17 18  1  0
 17 16  1  0
 19 18  1  0
 19 28  1  0
 19 20  1  0
 21 15  1  0
 21 20  1  0
 22 15  2  0
 23 24  1  0
 25 26  2  0
 26 45  1  0
 27 26  1  0
 27 30  1  0
 28 29  1  0
 28 25  1  0
 29 27  2  0
 30 31  1  0
 31 32  2  0
 33 36  1  0
 33 32  1  0
 34 33  2  0
 35 34  1  0
 35 30  2  0
 36 37  1  0
 37 38  1  0
 38 39  2  0
 40 39  1  0
 40 44  1  0
 41 40  2  0
 42 37  2  0
 42 41  1  0
 43 42  1  0
 45 46  1  0
 46 49  1  0
 46 48  1  0
 47 45  2  0
 50 25  1  0
 50 51  1  0
 52 50  1  0
 53 54  1  0
 53  2  1  0
 55 66  2  0
 56 54  1  0
 56 61  1  0
 57 65  1  0
 57 67  1  0
 58 64  1  0
 58 60  1  0
 59 65  1  0
 60 59  1  0
 61 60  2  0
 62 63  1  0
 62 56  2  0
 63 58  2  0
 64 57  1  0
 65 55  1  0
 67 69  2  0
 68 67  1  0
 70 68  1  0
 71 80  2  0
 71 76  1  0
 72 68  1  0
 72 76  1  0
 73 72  1  0
 74 75  1  0
 74 73  1  0
 75 71  1  0
 76 77  2  0
 77 78  1  0
 79 78  2  0
 80 79  1  0
 81 55  1  0
 81 82  1  0
 81 91  1  0
 82 85  1  0
 83 87  1  0
 83 82  1  0
 84 83  2  0
 87 86  1  0
 89 87  1  0
 89 90  1  0
 89 88  1  0
 91 94  1  1
 91 92  1  0
 93 91  1  0
M  ISO  4  15 100  23 100  53 101  54 101
M  END
>  <TORSDO>  (51) 
F 18

>  <SCORE>  (51) 
-14.406

>  <name>  (51) 
50

>  <ligand_id>  (51) 
50

>  <original_smiles>  (51) 
[H]C1=C(C([H])([H])Oc2c([H])c([H])c3c(c2[H])C([H])([H])N(C(=O)C([H])(N([H])C(=O)C([H])(N([H])C([H])([H])[H])C([H])([H])[H])C(C([H])([H])[H])(C([H])([H])[H])C([H])([H])[H])C([H])(C(=O)N([H])C2([H])c4c([H])c([H])c([H])c([H])c4C([H])([H])C([H])([H])C2([H])[H])C3([H])[H])C(=O)N(c2c([H])c([H])c(N([H])C(=O)N3C([H])([H])C([H])([H])C([H])([H])C([H])(n4nc(-c5c([H])c([H])c(Oc6c([H])c([H])c(F)c([H])c6F)c([H])c5[H])c(C(=O)N([H])[H])c4N([H])[H])C3([H])[H])c(F)c2[H])C1=O

>  <smiles>  (51) 
[H]C1=C(C([H])([H])Oc2c([H])c([H])c3c(c2[H])C([H])([H])N(C(=O)C([H])(N([H])C(=O)C([H])(N([H])C([H])([H])[H])C([H])([H])[H])C(C([H])([H])[H])(C([H])([H])[H])C([H])([H])[H])C([H])(C(=O)N([H])C2([H])c4c([H])c([H])c([H])c([H])c4C([H])([H])C([H])([H])C2([H])[H])C3([H])[H])C(=O)N(c2c([H])c([H])c(N([H])C(=O)N3C([H])([H])C([H])([H])C([H])([H])C([H])(n4nc(-c5c([H])c([H])c(Oc6c([H])c([H])c(F)c([H])c6F)c([H])c5[H])c(C(=O)N([H])[H])c4N([H])[H])C3([H])[H])c(F)c2[H])C1=O

$$$$
51:0:0
     RDKit          3D

 94103  0  0  1  0  0  0  0  0999 V2000
  -29.0870  -23.7400   21.7080 C   0  0  0  0  0  3  0  0  0  0  0  0
  -28.8350  -23.8160   20.4000 C   0  0  0  0  0  0  0  0  0  0  0  0
  -29.3900  -22.3620   22.0680 C   0  0  0  0  0  0  0  0  0  0  0  0
  -28.9780  -22.4360   19.8970 C   0  0  0  0  0  0  0  0  0  0  0  0
  -29.3140  -21.6130   20.9410 N   0  0  0  0  0  0  0  0  0  0  0  0
  -29.6560  -21.9390   23.1990 O   0  0  0  0  0  0  0  0  0  0  0  0
  -28.8360  -22.0670   18.7260 O   0  0  0  0  0  0  0  0  0  0  0  0
  -30.6220  -19.4630   21.5130 C   0  0  0  0  0  3  0  0  0  0  0  0
  -28.6100  -19.2860   20.2240 C   0  0  0  0  0  3  0  0  0  0  0  0
  -30.8250  -18.0430   21.4200 C   0  0  0  0  0  3  0  0  0  0  0  0
  -28.8090  -17.8790   20.1370 C   0  0  0  0  0  3  0  0  0  0  0  0
  -29.5240  -20.1410   20.8920 C   0  0  0  0  0  0  0  0  0  0  0  0
  -29.9360  -17.2010   20.6950 C   0  0  0  0  0  0  0  0  0  0  0  0
  -30.8460  -14.7580   20.9910 C   0  0  0  0  0  0  0  0  0  0  0  0
  -30.7720  -12.4070   20.1770 C   0  0  0  0  0  2  0  0  0  0  0  0
  -29.9660  -12.3310   18.8600 C   0  0  0  0  0  2  0  0  0  0  0  0
  -28.4480  -12.2410   19.1300 C   0  0  0  0  0  2  0  0  0  0  0  0
  -27.9420  -13.2060   20.2410 C   0  0  0  0  0  3  0  0  0  0  0  0
  -28.8830  -13.2250   21.4630 C   0  0  0  0  0  2  0  0  0  0  0  0
  -30.2310  -13.5280   20.9690 N   0  0  0  0  0  0  0  0  0  0  0  0
  -32.0780  -14.8300   21.0540 O   0  0  0  0  0  0  0  0  0  0  0  0
  -30.1590  -15.7780   20.3350 N   0  0  0  0  0  0  0  0  0  0  0  0
  -25.4920  -13.8210   20.6930 C   0  0  0  0  0  0  0  0  0  0  0  0
  -24.3910  -13.0560   20.9670 C   0  0  0  0  0  0  0  0  0  0  0  0
  -24.8550  -11.7080   21.0350 C   0  0  0  0  0  0  0  0  0  0  0  0
  -26.5550  -12.9360   20.6040 N   0  0  0  0  0  0  0  0  0  0  0  0
  -26.1720  -11.6630   20.8760 N   0  0  0  0  0  0  0  0  0  0  0  0
  -24.1140  -10.4490   21.1850 C   0  0  0  0  0  0  0  0  0  0  0  0
  -24.4710   -9.4940   22.1620 C   0  0  0  0  0  3  0  0  0  0  0  0
  -23.7310   -8.3000   22.3000 C   0  0  0  0  0  3  0  0  0  0  0  0
  -22.6210   -8.0530   21.4590 C   0  0  0  0  0  0  0  0  0  0  0  0
  -22.2840   -8.9960   20.4720 C   0  0  0  0  0  3  0  0  0  0  0  0
  -23.0240  -10.1820   20.3330 C   0  0  0  0  0  3  0  0  0  0  0  0
  -21.8590   -6.9100   21.5030 O   0  0  0  0  0  0  0  0  0  0  0  0
  -21.7390   -6.1700   22.6520 C   0  0  0  0  0  0  0  0  0  0  0  0
  -21.2480   -6.7310   23.8520 C   0  0  0  0  0  3  0  0  0  0  0  0
  -21.0760   -5.9170   24.9890 C   0  0  0  0  0  3  0  0  0  0  0  0
  -21.3850   -4.5450   24.9280 C   0  0  0  0  0  0  0  0  0  0  0  0
  -21.8680   -3.9850   23.7330 C   0  0  0  0  0  3  0  0  0  0  0  0
  -22.0420   -4.7950   22.5970 C   0  0  0  0  0  0  0  0  0  0  0  0
  -22.4890   -4.2460   21.4420 F   0  0  0  0  0  0  0  0  0  0  0  0
  -21.2130   -3.7620   26.0190 F   0  0  0  0  0  0  0  0  0  0  0  0
  -22.9720  -13.5370   21.0680 C   0  0  0  0  0  0  0  0  0  0  0  0
  -22.1590  -12.8770   21.8840 N   0  0  0  0  0  0  0  0  0  0  0  0
  -22.5890  -14.5340   20.4570 O   0  0  0  0  0  0  0  0  0  0  0  0
  -22.4800  -12.0720   22.4020 H   0  0  0  0  0  0  0  0  0  0  0  0
  -21.2020  -13.1810   21.9960 H   0  0  0  0  0  0  0  0  0  0  0  0
  -25.6770  -15.1860   20.4910 N   0  0  0  0  0  0  0  0  0  0  0  0
  -24.9110  -15.8490   20.5090 H   0  0  0  0  0  0  0  0  0  0  0  0
  -26.5720  -15.6190   20.3020 H   0  0  0  0  0  0  0  0  0  0  0  0
  -31.2340  -15.9830   18.1620 C   0  0  0  0  0  2  0  0  0  0  0  0
  -30.1800  -15.6600   18.9350 C   0  0  0  0  0  3  0  0  0  0  0  0
  -28.5040  -25.0710   19.5070 C   0  0  0  0  0  2  0  0  0  0  0  0
  -28.4270  -26.4340   20.1010 O   0  0  0  0  0  0  0  0  0  0  0  0
  -24.6430  -31.8110   23.0790 C   0  0  0  0  0  0  0  0  0  0  0  0
  -27.2830  -27.2560   20.0170 C   0  0  0  0  0  0  0  0  0  0  0  0
  -23.4490  -30.4100   21.4350 C   0  0  0  0  0  3  0  0  0  0  0  0
  -24.9060  -28.8690   20.0080 C   0  0  0  0  0  0  0  0  0  0  0  0
  -25.9880  -30.7360   21.2570 C   0  0  0  0  0  2  0  0  0  0  0  0
  -26.0730  -29.3590   20.6060 C   0  0  0  0  0  0  0  0  0  0  0  0
  -27.2590  -28.5640   20.6010 C   0  0  0  0  0  3  0  0  0  0  0  0
  -26.0820  -26.8180   19.4090 C   0  0  0  0  0  3  0  0  0  0  0  0
  -24.9150  -27.6040   19.4030 C   0  0  0  0  0  3  0  0  0  0  0  0
  -23.6680  -29.7390   20.0540 C   0  0  0  0  0  2  0  0  0  0  0  0
  -24.7130  -31.0030   21.9800 N   0  0  0  0  0  0  0  0  0  0  0  0
  -23.5580  -32.0830   23.6120 O   0  0  0  0  0  0  0  0  0  0  0  0
  -22.7890  -29.3880   22.3910 C   0  0  0  0  0  0  0  0  0  0  0  0
  -21.4610  -29.2210   22.2780 N   0  0  0  0  0  0  0  0  0  0  0  0
  -23.4730  -28.7460   23.1950 O   0  0  0  0  0  0  0  0  0  0  0  0
  -20.9700  -29.7900   21.6020 H   0  0  0  0  0  0  0  0  0  0  0  0
  -18.0770  -28.0580   22.8080 C   0  0  0  0  0  0  0  0  0  0  0  0
  -20.6420  -28.2840   23.0470 C   0  0  0  0  0  3  0  0  0  0  0  0
  -20.7180  -26.8580   22.4530 C   0  0  0  0  0  2  0  0  0  0  0  0
  -19.5990  -26.5610   21.4500 C   0  0  0  0  0  2  0  0  0  0  0  0
  -18.2290  -26.7150   22.1140 C   0  0  0  0  0  2  0  0  0  0  0  0
  -19.2100  -28.8010   23.2310 C   0  0  0  0  0  0  0  0  0  0  0  0
  -19.0120  -30.0600   23.8420 C   0  0  0  0  0  3  0  0  0  0  0  0
  -17.7150  -30.5730   24.0320 C   0  0  0  0  0  3  0  0  0  0  0  0
  -16.5970  -29.8250   23.6240 C   0  0  0  0  0  3  0  0  0  0  0  0
  -16.7790  -28.5700   23.0180 C   0  0  0  0  0  3  0  0  0  0  0  0
  -25.9230  -32.4470   23.7060 C   0  0  0  0  0  3  0  0  0  0  0  0
  -26.4610  -31.6540   24.9600 C   0  0  1  0  0  0  0  0  0  0  0  0
  -25.3860  -31.3830   26.0370 C   0  0  0  0  0  1  0  0  0  0  0  0
  -27.0520  -30.2900   24.5330 C   0  0  0  0  0  1  0  0  0  0  0  0
  -27.6140  -32.4440   25.6250 C   0  0  0  0  0  1  0  0  0  0  0  0
  -25.5950  -33.8320   24.0740 N   0  0  0  0  0  0  0  0  0  0  0  0
  -25.9240  -34.9100   23.3510 C   0  0  0  0  0  0  0  0  0  0  0  0
  -26.6070  -34.8440   22.3250 O   0  0  0  0  0  0  0  0  0  0  0  0
  -24.9930  -33.9570   24.8750 H   0  0  0  0  0  0  0  0  0  0  0  0
  -24.1850  -36.6980   23.0260 C   0  0  0  0  0  1  0  0  0  0  0  0
  -25.4180  -36.2790   23.8440 C   0  0  0  0  0  3  0  0  0  0  0  0
  -27.5330  -37.1530   24.7340 C   0  0  0  0  0  1  0  0  0  0  0  0
  -26.4420  -37.3440   23.7820 N   0  0  0  0  0  0  0  0  0  0  0  0
  -26.0260  -38.2550   23.9560 H   0  0  0  0  0  0  0  0  0  0  0  0
  1  3  1  0
  2  1  2  0
  3  6  2  0
  4  2  1  0
  4  5  1  0
  5  3  1  0
  7  4  2  0
  9 12  1  0
 10  8  1  0
 11  9  2  0
 11 13  1  0
 12  5  1  0
 12  8  2  0
 13 10  2  0
 14 21  2  0
 15 20  1  0
 16 17  1  0
 16 15  1  0
 18 17  1  0
 18 26  1  0
 18 19  1  0
 20 14  1  0
 20 19  1  0
 22 13  1  0
 22 14  1  0
 23 24  2  0
 24 25  1  0
 24 43  1  0
 25 28  1  0
 26 23  1  0
 26 27  1  0
 27 25  2  0
 28 29  1  0
 29 30  2  0
 31 34  1  0
 31 30  1  0
 32 31  2  0
 33 32  1  0
 33 28  2  0
 34 35  1  0
 35 36  1  0
 36 37  2  0
 38 37  1  0
 38 42  1  0
 39 38  2  0
 40 35  2  0
 40 39  1  0
 41 40  1  0
 43 44  1  0
 44 47  1  0
 44 46  1  0
 45 43  2  0
 48 49  1  0
 48 23  1  0
 50 48  1  0
 51 52  2  0
 52 22  1  0
 53 54  1  0
 53  2  1  0
 55 66  2  0
 56 54  1  0
 56 61  1  0
 57 65  1  0
 57 67  1  0
 58 64  1  0
 58 60  1  0
 59 65  1  0
 60 59  1  0
 61 60  2  0
 62 56  2  0
 63 62  1  0
 63 58  2  0
 64 57  1  0
 65 55  1  0
 67 69  2  0
 68 67  1  0
 70 68  1  0
 71 80  2  0
 71 76  1  0
 72 68  1  0
 72 76  1  0
 73 72  1  0
 74 75  1  0
 74 73  1  0
 75 71  1  0
 76 77  2  0
 77 78  1  0
 79 78  2  0
 80 79  1  0
 81 55  1  0
 81 86  1  0
 81 82  1  0
 82 85  1  1
 82 83  1  0
 84 82  1  0
 86 89  1  0
 87 91  1  0
 87 86  1  0
 88 87  2  0
 91 90  1  0
 93 91  1  0
 93 94  1  0
 93 92  1  0
M  ISO  4  14 100  22 100  53 101  54 101
M  END
>  <TORSDO>  (52) 
F 19

>  <SCORE>  (52) 
-14.214

>  <name>  (52) 
51

>  <ligand_id>  (52) 
51

>  <original_smiles>  (52) 
[H]C([H])=C([H])N(C(=O)N1C([H])([H])C([H])([H])C([H])([H])C([H])(n2nc(-c3c([H])c([H])c(Oc4c([H])c([H])c(F)c([H])c4F)c([H])c3[H])c(C(=O)N([H])[H])c2N([H])[H])C1([H])[H])c1c([H])c([H])c(N2C(=O)C([H])=C(C([H])([H])Oc3c([H])c([H])c4c(c3[H])C([H])([H])N(C(=O)C([H])(N([H])C(=O)C([H])(N([H])C([H])([H])[H])C([H])([H])[H])C(C([H])([H])[H])(C([H])([H])[H])C([H])([H])[H])C([H])(C(=O)N([H])C3([H])c5c([H])c([H])c([H])c([H])c5C([H])([H])C([H])([H])C3([H])[H])C4([H])[H])C2=O)c([H])c1[H]

>  <smiles>  (52) 
[H]C([H])=C([H])N(C(=O)N1C([H])([H])C([H])([H])C([H])([H])C([H])(n2nc(-c3c([H])c([H])c(Oc4c([H])c([H])c(F)c([H])c4F)c([H])c3[H])c(C(=O)N([H])[H])c2N([H])[H])C1([H])[H])c1c([H])c([H])c(N2C(=O)C([H])=C(C([H])([H])Oc3c([H])c([H])c4c(c3[H])C([H])([H])N(C(=O)C([H])(N([H])C(=O)C([H])(N([H])C([H])([H])[H])C([H])([H])[H])C(C([H])([H])[H])(C([H])([H])[H])C([H])([H])[H])C([H])(C(=O)N([H])C3([H])c5c([H])c([H])c([H])c([H])c5C([H])([H])C([H])([H])C3([H])[H])C4([H])[H])C2=O)c([H])c1[H]

$$$$
52:0:0
     RDKit          3D

 98107  0  0  1  0  0  0  0  0999 V2000
  -28.6100  -23.7240   18.5750 C   0  0  0  0  0  3  0  0  0  0  0  0
  -29.2220  -21.3820   18.5240 C   0  0  0  0  0  3  0  0  0  0  0  0
  -28.5330  -23.7530   19.9210 C   0  0  0  0  0  0  0  0  0  0  0  0
  -28.9560  -22.5150   17.8480 C   0  0  0  0  0  0  0  0  0  0  0  0
  -28.8320  -22.4510   20.6590 C   0  0  0  0  0  0  0  0  0  0  0  0
  -29.2040  -21.2950   19.9300 N   0  0  0  0  0  0  0  0  0  0  0  0
  -28.7160  -22.3980   21.8870 O   0  0  0  0  0  0  0  0  0  0  0  0
  -30.6360  -20.0650   21.5710 C   0  0  0  0  0  3  0  0  0  0  0  0
  -29.4450  -18.6380   20.0060 C   0  0  0  0  0  3  0  0  0  0  0  0
  -30.9840  -17.6300   21.6040 C   0  0  0  0  0  3  0  0  0  0  0  0
  -29.7140  -19.9950   20.4990 C   0  0  0  0  0  0  0  0  0  0  0  0
  -31.2540  -18.9190   22.1100 C   0  0  0  0  0  0  0  0  0  0  0  0
  -30.0740  -17.4300   20.5450 C   0  0  0  0  0  0  0  0  0  0  0  0
  -30.5650  -14.8900   20.0540 C   0  0  0  0  0  0  0  0  0  0  0  0
  -30.3520  -12.6170   19.0200 C   0  0  0  0  0  2  0  0  0  0  0  0
  -29.3490  -12.6670   17.8470 C   0  0  0  0  0  2  0  0  0  0  0  0
  -27.9040  -12.4730   18.3530 C   0  0  0  0  0  2  0  0  0  0  0  0
  -27.5780  -13.3590   19.5850 C   0  0  0  0  0  3  0  0  0  0  0  0
  -28.6930  -13.2850   20.6490 C   0  0  0  0  0  2  0  0  0  0  0  0
  -29.9470  -13.6610   19.9850 N   0  0  0  0  0  0  0  0  0  0  0  0
  -31.7560  -14.9890   19.7440 O   0  0  0  0  0  0  0  0  0  0  0  0
  -29.7590  -16.0200   20.1720 N   0  0  0  0  0  0  0  0  0  0  0  0
  -28.7740  -15.8200   20.1000 H   0  0  0  0  0  0  0  0  0  0  0  0
  -25.2370  -13.9340   20.4640 C   0  0  0  0  0  0  0  0  0  0  0  0
  -24.1910  -13.1510   20.8700 C   0  0  0  0  0  0  0  0  0  0  0  0
  -24.6510  -11.8010   20.7820 C   0  0  0  0  0  0  0  0  0  0  0  0
  -26.2640  -13.0600   20.1480 N   0  0  0  0  0  0  0  0  0  0  0  0
  -25.9230  -11.7700   20.4040 N   0  0  0  0  0  0  0  0  0  0  0  0
  -23.9330  -10.5350   20.9790 C   0  0  0  0  0  0  0  0  0  0  0  0
  -24.3850   -9.5660   21.9010 C   0  0  0  0  0  3  0  0  0  0  0  0
  -23.6690   -8.3640   22.0850 C   0  0  0  0  0  3  0  0  0  0  0  0
  -22.4840   -8.1250   21.3500 C   0  0  0  0  0  0  0  0  0  0  0  0
  -22.0500   -9.0830   20.4170 C   0  0  0  0  0  3  0  0  0  0  0  0
  -22.7680  -10.2770   20.2310 C   0  0  0  0  0  3  0  0  0  0  0  0
  -21.7350   -6.9760   21.4460 O   0  0  0  0  0  0  0  0  0  0  0  0
  -21.6830   -6.2470   22.6060 C   0  0  0  0  0  0  0  0  0  0  0  0
  -21.1990   -6.7980   23.8130 C   0  0  0  0  0  3  0  0  0  0  0  0
  -21.0980   -5.9910   24.9640 C   0  0  0  0  0  3  0  0  0  0  0  0
  -21.4690   -4.6340   24.9100 C   0  0  0  0  0  0  0  0  0  0  0  0
  -21.9460   -4.0830   23.7070 C   0  0  0  0  0  3  0  0  0  0  0  0
  -22.0490   -4.8870   22.5590 C   0  0  0  0  0  0  0  0  0  0  0  0
  -22.4900   -4.3460   21.3970 F   0  0  0  0  0  0  0  0  0  0  0  0
  -21.3650   -3.8570   26.0130 F   0  0  0  0  0  0  0  0  0  0  0  0
  -22.8110  -13.6220   21.2240 C   0  0  0  0  0  0  0  0  0  0  0  0
  -22.1230  -12.9030   22.1020 N   0  0  0  0  0  0  0  0  0  0  0  0
  -22.3520  -14.6630   20.7550 O   0  0  0  0  0  0  0  0  0  0  0  0
  -22.5060  -12.0600   22.5070 H   0  0  0  0  0  0  0  0  0  0  0  0
  -21.1980  -13.2000   22.3790 H   0  0  0  0  0  0  0  0  0  0  0  0
  -25.3910  -15.3100   20.3120 N   0  0  0  0  0  0  0  0  0  0  0  0
  -24.6270  -15.9550   20.4830 H   0  0  0  0  0  0  0  0  0  0  0  0
  -26.2100  -15.7620   19.9280 H   0  0  0  0  0  0  0  0  0  0  0  0
  -32.1460  -19.0610   23.1720 N   0  0  0  0  0  0  0  0  0  0  0  0
  -32.4790  -19.9800   23.4480 H   0  0  0  0  0  0  0  0  0  0  0  0
  -32.7770  -18.3030   23.4170 H   0  0  0  0  0  0  0  0  0  0  0  0
  -29.0210  -22.5220   16.5120 O   0  0  0  0  0  0  0  0  0  0  0  0
  -28.8020  -23.3950   16.2100 H   0  0  0  0  0  0  0  0  0  0  0  0
  -28.0610  -25.0760   20.6890 C   0  0  0  0  0  2  0  0  0  0  0  0
  -28.2510  -26.4630   20.1250 O   0  0  0  0  0  0  0  0  0  0  0  0
  -24.5440  -31.9030   23.2610 C   0  0  0  0  0  0  0  0  0  0  0  0
  -27.1550  -27.3550   20.1430 C   0  0  0  0  0  0  0  0  0  0  0  0
  -23.3430  -30.5240   21.6040 C   0  0  0  0  0  3  0  0  0  0  0  0
  -24.7950  -28.9910   20.1570 C   0  0  0  0  0  0  0  0  0  0  0  0
  -25.8840  -30.8430   21.4220 C   0  0  0  0  0  2  0  0  0  0  0  0
  -25.9680  -29.4690   20.7550 C   0  0  0  0  0  0  0  0  0  0  0  0
  -27.1550  -28.6640   20.7320 C   0  0  0  0  0  3  0  0  0  0  0  0
  -25.9570  -26.9400   19.5250 C   0  0  0  0  0  3  0  0  0  0  0  0
  -24.7940  -27.7350   19.5300 C   0  0  0  0  0  3  0  0  0  0  0  0
  -23.5580  -29.8670   20.2160 C   0  0  0  0  0  2  0  0  0  0  0  0
  -24.6100  -31.1070   22.1530 N   0  0  0  0  0  0  0  0  0  0  0  0
  -23.4590  -32.1710   23.7990 O   0  0  0  0  0  0  0  0  0  0  0  0
  -22.6800  -29.4960   22.5530 C   0  0  0  0  0  0  0  0  0  0  0  0
  -21.3540  -29.3170   22.4260 N   0  0  0  0  0  0  0  0  0  0  0  0
  -23.3620  -28.8610   23.3630 O   0  0  0  0  0  0  0  0  0  0  0  0
  -20.8640  -29.8770   21.7440 H   0  0  0  0  0  0  0  0  0  0  0  0
  -17.9810  -28.1060   22.9230 C   0  0  0  0  0  0  0  0  0  0  0  0
  -20.5390  -28.3670   23.1870 C   0  0  0  0  0  3  0  0  0  0  0  0
  -20.6430  -26.9450   22.5910 C   0  0  0  0  0  2  0  0  0  0  0  0
  -19.5370  -26.6340   21.5760 C   0  0  0  0  0  2  0  0  0  0  0  0
  -18.1570  -26.7670   22.2260 C   0  0  0  0  0  2  0  0  0  0  0  0
  -19.0990  -28.8630   23.3610 C   0  0  0  0  0  0  0  0  0  0  0  0
  -18.8790  -30.1160   23.9740 C   0  0  0  0  0  3  0  0  0  0  0  0
  -17.5730  -30.6120   24.1500 C   0  0  0  0  0  3  0  0  0  0  0  0
  -16.4700  -29.8500   23.7280 C   0  0  0  0  0  3  0  0  0  0  0  0
  -16.6750  -28.5980   23.1220 C   0  0  0  0  0  3  0  0  0  0  0  0
  -25.8230  -32.5320   23.8920 C   0  0  0  0  0  3  0  0  0  0  0  0
  -26.3150  -31.7720   25.1860 C   0  0  1  0  0  0  0  0  0  0  0  0
  -25.2040  -31.5570   26.2390 C   0  0  0  0  0  1  0  0  0  0  0  0
  -26.8920  -30.3850   24.8200 C   0  0  0  0  0  1  0  0  0  0  0  0
  -27.4640  -32.5660   25.8540 C   0  0  0  0  0  1  0  0  0  0  0  0
  -25.5220  -33.9370   24.2030 N   0  0  0  0  0  0  0  0  0  0  0  0
  -25.8670  -34.9790   23.4340 C   0  0  0  0  0  0  0  0  0  0  0  0
  -26.5410  -34.8580   22.4070 O   0  0  0  0  0  0  0  0  0  0  0  0
  -24.9220  -34.1050   24.9970 H   0  0  0  0  0  0  0  0  0  0  0  0
  -24.1710  -36.7930   23.0360 C   0  0  0  0  0  1  0  0  0  0  0  0
  -25.3900  -36.3780   23.8730 C   0  0  0  0  0  3  0  0  0  0  0  0
  -27.5170  -37.2440   24.7430 C   0  0  0  0  0  1  0  0  0  0  0  0
  -26.4390  -37.4150   23.7720 N   0  0  0  0  0  0  0  0  0  0  0  0
  -26.0420  -38.3430   23.9000 H   0  0  0  0  0  0  0  0  0  0  0  0
  1  3  2  0
  2  6  1  0
  3  5  1  0
  3 57  1  0
  4  2  2  0
  4  1  1  0
  5  7  2  0
  6 11  1  0
  6  5  1  0
  8 12  1  0
  9 11  1  0
  9 13  2  0
 10 12  2  0
 11  8  2  0
 12 52  1  0
 13 10  1  0
 14 22  1  0
 15 20  1  0
 16 17  1  0
 16 15  1  0
 18 17  1  0
 18 27  1  0
 18 19  1  0
 20 14  1  0
 20 19  1  0
 21 14  2  0
 22 13  1  0
 23 22  1  0
 24 25  2  0
 25 44  1  0
 26 25  1  0
 26 29  1  0
 27 28  1  0
 27 24  1  0
 28 26  2  0
 29 30  1  0
 30 31  2  0
 32 35  1  0
 32 31  1  0
 33 32  2  0
 34 33  1  0
 34 29  2  0
 35 36  1  0
 36 37  1  0
 37 38  2  0
 39 38  1  0
 39 43  1  0
 40 39  2  0
 41 36  2  0
 41 40  1  0
 42 41  1  0
 44 45  1  0
 45 48  1  0
 45 47  1  0
 46 44  2  0
 49 24  1  0
 49 50  1  0
 51 49  1  0
 52 54  1  0
 52 53  1  0
 55  4  1  0
 56 55  1  0
 58 60  1  0
 58 57  1  0
 59 70  2  0
 60 65  1  0
 61 69  1  0
 61 71  1  0
 62 68  1  0
 62 64  1  0
 63 69  1  0
 64 63  1  0
 65 64  2  0
 66 67  1  0
 66 60  2  0
 67 62  2  0
 68 61  1  0
 69 59  1  0
 71 73  2  0
 72 71  1  0
 74 72  1  0
 75 84  2  0
 75 80  1  0
 76 72  1  0
 76 80  1  0
 77 76  1  0
 78 79  1  0
 78 77  1  0
 79 75  1  0
 80 81  2  0
 81 82  1  0
 83 82  2  0
 84 83  1  0
 85 59  1  0
 85 90  1  0
 85 86  1  0
 86 89  1  1
 86 87  1  0
 88 86  1  0
 90 93  1  0
 91 95  1  0
 91 90  1  0
 92 91  2  0
 95 94  1  0
 97 95  1  0
 97 98  1  0
 97 96  1  0
M  ISO  4  14 100  22 100  57 101  58 101
M  END
>  <TORSDO>  (53) 
F 20

>  <SCORE>  (53) 
-14.344

>  <name>  (53) 
52

>  <ligand_id>  (53) 
52

>  <original_smiles>  (53) 
[H]Oc1c([H])c(C([H])([H])Oc2c([H])c([H])c3c(c2[H])C([H])([H])N(C(=O)C([H])(N([H])C(=O)C([H])(N([H])C([H])([H])[H])C([H])([H])[H])C(C([H])([H])[H])(C([H])([H])[H])C([H])([H])[H])C([H])(C(=O)N([H])C2([H])c4c([H])c([H])c([H])c([H])c4C([H])([H])C([H])([H])C2([H])[H])C3([H])[H])c(=O)n(-c2c([H])c(N([H])[H])c([H])c(N([H])C(=O)N3C([H])([H])C([H])([H])C([H])([H])C([H])(n4nc(-c5c([H])c([H])c(Oc6c([H])c([H])c(F)c([H])c6F)c([H])c5[H])c(C(=O)N([H])[H])c4N([H])[H])C3([H])[H])c2[H])c1[H]

>  <smiles>  (53) 
[H]Oc1c([H])c(C([H])([H])Oc2c([H])c([H])c3c(c2[H])C([H])([H])N(C(=O)C([H])(N([H])C(=O)C([H])(N([H])C([H])([H])[H])C([H])([H])[H])C(C([H])([H])[H])(C([H])([H])[H])C([H])([H])[H])C([H])(C(=O)N([H])C2([H])c4c([H])c([H])c([H])c([H])c4C([H])([H])C([H])([H])C2([H])[H])C3([H])[H])c(=O)n(-c2c([H])c(N([H])[H])c([H])c(N([H])C(=O)N3C([H])([H])C([H])([H])C([H])([H])C([H])(n4nc(-c5c([H])c([H])c(Oc6c([H])c([H])c(F)c([H])c6F)c([H])c5[H])c(C(=O)N([H])[H])c4N([H])[H])C3([H])[H])c2[H])c1[H]

$$$$
53:0:0
     RDKit          3D

 94103  0  0  1  0  0  0  0  0999 V2000
  -28.9070  -23.9910   20.3020 C   0  0  0  0  0  0  0  0  0  0  0  0
  -30.0770  -23.9870   21.1500 C   0  0  0  0  0  0  0  0  0  0  0  0
  -28.6460  -22.5770   19.9350 C   0  0  0  0  0  0  0  0  0  0  0  0
  -28.1590  -25.0770   19.8850 C   0  0  0  0  0  3  0  0  0  0  0  0
  -30.5830  -22.5460   21.2400 C   0  0  0  0  0  2  0  0  0  0  0  0
  -29.5860  -21.7390   20.5050 N   0  0  0  0  0  0  0  0  0  0  0  0
  -30.6170  -24.9480   21.7100 O   0  0  0  0  0  0  0  0  0  0  0  0
  -27.7230  -22.1870   19.2090 O   0  0  0  0  0  0  0  0  0  0  0  0
  -28.4990  -19.4270   20.3890 C   0  0  0  0  0  3  0  0  0  0  0  0
  -28.5590  -17.9990   20.4220 C   0  0  0  0  0  3  0  0  0  0  0  0
  -30.9470  -18.0800   20.5420 C   0  0  0  0  0  3  0  0  0  0  0  0
  -29.6590  -20.2490   20.4570 C   0  0  0  0  0  0  0  0  0  0  0  0
  -29.7780  -17.2700   20.5010 C   0  0  0  0  0  0  0  0  0  0  0  0
  -30.8900  -19.5160   20.5310 C   0  0  0  0  0  0  0  0  0  0  0  0
  -32.0640  -20.1890   20.5880 F   0  0  0  0  0  0  0  0  0  0  0  0
  -30.5420  -14.7580   20.2210 C   0  0  0  0  0  0  0  0  0  0  0  0
  -30.3230  -12.5200   19.1380 C   0  0  0  0  0  2  0  0  0  0  0  0
  -29.3300  -12.6410   17.9590 C   0  0  0  0  0  2  0  0  0  0  0  0
  -27.8760  -12.4620   18.4420 C   0  0  0  0  0  2  0  0  0  0  0  0
  -27.5580  -13.3130   19.7000 C   0  0  0  0  0  3  0  0  0  0  0  0
  -28.6600  -13.1550   20.7730 C   0  0  0  0  0  2  0  0  0  0  0  0
  -29.9410  -13.5240   20.1520 N   0  0  0  0  0  0  0  0  0  0  0  0
  -31.6960  -14.9290   19.8140 O   0  0  0  0  0  0  0  0  0  0  0  0
  -29.7160  -15.7980   20.5860 N   0  0  0  0  0  0  0  0  0  0  0  0
  -28.8090  -15.4500   20.8570 H   0  0  0  0  0  0  0  0  0  0  0  0
  -25.1980  -13.9030   20.5260 C   0  0  0  0  0  0  0  0  0  0  0  0
  -24.1420  -13.1260   20.9180 C   0  0  0  0  0  0  0  0  0  0  0  0
  -24.5950  -11.7730   20.8330 C   0  0  0  0  0  0  0  0  0  0  0  0
  -26.2280  -13.0240   20.2290 N   0  0  0  0  0  0  0  0  0  0  0  0
  -25.8730  -11.7370   20.4730 N   0  0  0  0  0  0  0  0  0  0  0  0
  -23.8690  -10.5110   21.0140 C   0  0  0  0  0  0  0  0  0  0  0  0
  -24.3070   -9.5330   21.9350 C   0  0  0  0  0  3  0  0  0  0  0  0
  -23.5820   -8.3350   22.1060 C   0  0  0  0  0  3  0  0  0  0  0  0
  -22.4040   -8.1050   21.3560 C   0  0  0  0  0  0  0  0  0  0  0  0
  -21.9840   -9.0720   20.4240 C   0  0  0  0  0  3  0  0  0  0  0  0
  -22.7110  -10.2620   20.2510 C   0  0  0  0  0  3  0  0  0  0  0  0
  -21.6480   -6.9600   21.4380 O   0  0  0  0  0  0  0  0  0  0  0  0
  -21.5720   -6.2300   22.5960 C   0  0  0  0  0  0  0  0  0  0  0  0
  -21.0730   -6.7840   23.7950 C   0  0  0  0  0  3  0  0  0  0  0  0
  -20.9470   -5.9780   24.9440 C   0  0  0  0  0  3  0  0  0  0  0  0
  -21.3090   -4.6190   24.8950 C   0  0  0  0  0  0  0  0  0  0  0  0
  -21.8000   -4.0630   23.7000 C   0  0  0  0  0  3  0  0  0  0  0  0
  -21.9280   -4.8670   22.5530 C   0  0  0  0  0  0  0  0  0  0  0  0
  -22.3820   -4.3210   21.3990 F   0  0  0  0  0  0  0  0  0  0  0  0
  -21.1810   -3.8420   25.9950 F   0  0  0  0  0  0  0  0  0  0  0  0
  -22.7590  -13.6030   21.2540 C   0  0  0  0  0  0  0  0  0  0  0  0
  -22.0610  -12.8870   22.1290 N   0  0  0  0  0  0  0  0  0  0  0  0
  -22.3080  -14.6440   20.7780 O   0  0  0  0  0  0  0  0  0  0  0  0
  -22.4400  -12.0450   22.5350 H   0  0  0  0  0  0  0  0  0  0  0  0
  -21.1330  -13.1860   22.3950 H   0  0  0  0  0  0  0  0  0  0  0  0
  -25.3630  -15.2770   20.3740 N   0  0  0  0  0  0  0  0  0  0  0  0
  -24.5930  -15.9230   20.5090 H   0  0  0  0  0  0  0  0  0  0  0  0
  -26.1680  -15.7070   19.9400 H   0  0  0  0  0  0  0  0  0  0  0  0
  -28.2970  -26.4760   20.1400 O   0  0  0  0  0  0  0  0  0  0  0  0
  -24.6220  -31.9110   23.2550 C   0  0  0  0  0  0  0  0  0  0  0  0
  -27.1770  -27.3450   20.1150 C   0  0  0  0  0  0  0  0  0  0  0  0
  -23.3920  -30.5290   21.6250 C   0  0  0  0  0  3  0  0  0  0  0  0
  -24.8180  -28.9920   20.1650 C   0  0  0  0  0  0  0  0  0  0  0  0
  -25.9340  -30.8320   21.4120 C   0  0  0  0  0  2  0  0  0  0  0  0
  -26.0000  -29.4580   20.7540 C   0  0  0  0  0  0  0  0  0  0  0  0
  -27.1770  -28.6440   20.7270 C   0  0  0  0  0  3  0  0  0  0  0  0
  -25.9650  -26.9580   19.4890 C   0  0  0  0  0  3  0  0  0  0  0  0
  -24.8040  -27.7480   19.5270 C   0  0  0  0  0  3  0  0  0  0  0  0
  -23.5850  -29.8700   20.2360 C   0  0  0  0  0  2  0  0  0  0  0  0
  -24.6700  -31.1080   22.1530 N   0  0  0  0  0  0  0  0  0  0  0  0
  -23.5450  -32.1880   23.8060 O   0  0  0  0  0  0  0  0  0  0  0  0
  -22.7420  -29.5040   22.5850 C   0  0  0  0  0  0  0  0  0  0  0  0
  -21.4180  -29.3120   22.4610 N   0  0  0  0  0  0  0  0  0  0  0  0
  -23.4290  -28.8840   23.4030 O   0  0  0  0  0  0  0  0  0  0  0  0
  -20.9220  -29.8620   21.7730 H   0  0  0  0  0  0  0  0  0  0  0  0
  -18.0530  -28.0780   22.9660 C   0  0  0  0  0  0  0  0  0  0  0  0
  -20.6090  -28.3680   23.2360 C   0  0  0  0  0  3  0  0  0  0  0  0
  -20.7280  -26.9360   22.6660 C   0  0  0  0  0  2  0  0  0  0  0  0
  -19.6300  -26.5950   21.6540 C   0  0  0  0  0  2  0  0  0  0  0  0
  -18.2460  -26.7280   22.2970 C   0  0  0  0  0  2  0  0  0  0  0  0
  -19.1640  -28.8540   23.3930 C   0  0  0  0  0  0  0  0  0  0  0  0
  -18.9300  -30.1170   23.9810 C   0  0  0  0  0  3  0  0  0  0  0  0
  -17.6190  -30.6020   24.1470 C   0  0  0  0  0  3  0  0  0  0  0  0
  -16.5240  -29.8230   23.7360 C   0  0  0  0  0  3  0  0  0  0  0  0
  -16.7420  -28.5620   23.1500 C   0  0  0  0  0  3  0  0  0  0  0  0
  -25.9140  -32.5380   23.8620 C   0  0  0  0  0  3  0  0  0  0  0  0
  -25.6090  -33.9340   24.2080 N   0  0  0  0  0  0  0  0  0  0  0  0
  -25.9060  -34.9910   23.4400 C   0  0  0  0  0  0  0  0  0  0  0  0
  -26.5360  -34.8940   22.3830 O   0  0  0  0  0  0  0  0  0  0  0  0
  -25.0450  -34.0830   25.0310 H   0  0  0  0  0  0  0  0  0  0  0  0
  -24.1530  -36.7740   23.1640 C   0  0  0  0  0  1  0  0  0  0  0  0
  -25.4300  -36.3760   23.9200 C   0  0  0  0  0  3  0  0  0  0  0  0
  -27.5900  -37.2770   24.6660 C   0  0  0  0  0  1  0  0  0  0  0  0
  -26.4510  -37.4360   23.7660 N   0  0  0  0  0  0  0  0  0  0  0  0
  -26.0430  -38.3530   23.9290 H   0  0  0  0  0  0  0  0  0  0  0  0
  -26.4480  -31.7570   25.1250 C   0  0  1  0  0  0  0  0  0  0  0  0
  -25.3680  -31.5090   26.2050 C   0  0  0  0  0  1  0  0  0  0  0  0
  -27.0280  -30.3820   24.7170 C   0  0  0  0  0  1  0  0  0  0  0  0
  -27.6060  -32.5470   25.7780 C   0  0  0  0  0  1  0  0  0  0  0  0
  1  2  1  0
  2  5  1  0
  2  7  2  0
  3  1  1  0
  3  6  1  0
  4 54  1  0
  4  1  2  0
  6  5  1  0
  8  3  2  0
  9 10  2  0
  9 12  1  0
 10 13  1  0
 12  6  1  0
 12 14  2  0
 13 11  2  0
 13 24  1  0
 14 11  1  0
 14 15  1  0
 16 24  1  0
 17 22  1  0
 18 19  1  0
 18 17  1  0
 20 19  1  0
 20 29  1  0
 20 21  1  0
 22 16  1  0
 22 21  1  0
 23 16  2  0
 24 25  1  0
 26 27  2  0
 27 46  1  0
 28 27  1  0
 28 31  1  0
 29 30  1  0
 29 26  1  0
 30 28  2  0
 31 32  1  0
 32 33  2  0
 34 37  1  0
 34 33  1  0
 35 34  2  0
 36 35  1  0
 36 31  2  0
 37 38  1  0
 38 39  1  0
 39 40  2  0
 41 40  1  0
 41 45  1  0
 42 41  2  0
 43 38  2  0
 43 42  1  0
 44 43  1  0
 46 47  1  0
 47 50  1  0
 47 49  1  0
 48 46  2  0
 51 52  1  0
 51 26  1  0
 53 51  1  0
 55 66  2  0
 56 54  1  0
 56 61  1  0
 57 65  1  0
 57 67  1  0
 58 64  1  0
 58 60  1  0
 59 65  1  0
 60 59  1  0
 61 60  2  0
 62 63  1  0
 62 56  2  0
 63 58  2  0
 64 57  1  0
 65 55  1  0
 67 69  2  0
 68 67  1  0
 70 68  1  0
 71 80  2  0
 71 76  1  0
 72 68  1  0
 72 76  1  0
 73 72  1  0
 74 75  1  0
 74 73  1  0
 75 71  1  0
 76 77  2  0
 77 78  1  0
 79 78  2  0
 80 79  1  0
 81 55  1  0
 81 82  1  0
 81 91  1  0
 82 85  1  0
 83 87  1  0
 83 82  1  0
 84 83  2  0
 87 86  1  0
 89 87  1  0
 89 90  1  0
 89 88  1  0
 91 94  1  1
 91 92  1  0
 93 91  1  0
M  ISO  4   4 101  16 100  24 100  54 101
M  END
>  <TORSDO>  (54) 
F 17

>  <SCORE>  (54) 
-15.579

>  <name>  (54) 
53

>  <ligand_id>  (54) 
53

>  <original_smiles>  (54) 
[H]C(Oc1c([H])c([H])c2c(c1[H])C([H])([H])N(C(=O)C([H])(N([H])C(=O)C([H])(N([H])C([H])([H])[H])C([H])([H])[H])C(C([H])([H])[H])(C([H])([H])[H])C([H])([H])[H])C([H])(C(=O)N([H])C1([H])c3c([H])c([H])c([H])c([H])c3C([H])([H])C([H])([H])C1([H])[H])C2([H])[H])=C1C(=O)N(c2c([H])c([H])c(N([H])C(=O)N3C([H])([H])C([H])([H])C([H])([H])C([H])(n4nc(-c5c([H])c([H])c(Oc6c([H])c([H])c(F)c([H])c6F)c([H])c5[H])c(C(=O)N([H])[H])c4N([H])[H])C3([H])[H])c([H])c2F)C([H])([H])C1=O

>  <smiles>  (54) 
[H]C(Oc1c([H])c([H])c2c(c1[H])C([H])([H])N(C(=O)C([H])(N([H])C(=O)C([H])(N([H])C([H])([H])[H])C([H])([H])[H])C(C([H])([H])[H])(C([H])([H])[H])C([H])([H])[H])C([H])(C(=O)N([H])C1([H])c3c([H])c([H])c([H])c([H])c3C([H])([H])C([H])([H])C1([H])[H])C2([H])[H])=C1C(=O)N(c2c([H])c([H])c(N([H])C(=O)N3C([H])([H])C([H])([H])C([H])([H])C([H])(n4nc(-c5c([H])c([H])c(Oc6c([H])c([H])c(F)c([H])c6F)c([H])c5[H])c(C(=O)N([H])[H])c4N([H])[H])C3([H])[H])c([H])c2F)C([H])([H])C1=O

$$$$
54:0:0
     RDKit          3D

 94103  0  0  1  0  0  0  0  0999 V2000
  -28.9300  -23.9720   20.1430 C   0  0  0  0  0  0  0  0  0  0  0  0
  -28.6400  -22.5900   20.6090 C   0  0  0  0  0  0  0  0  0  0  0  0
  -28.1800  -25.0880   20.4690 C   0  0  0  0  0  3  0  0  0  0  0  0
  -30.1590  -23.9240   19.2880 C   0  0  0  0  0  3  0  0  0  0  0  0
  -30.5560  -22.4290   19.3020 C   0  0  0  0  0  3  0  0  0  0  0  0
  -29.5370  -21.6870   20.0670 N   0  0  0  0  0  0  0  0  0  0  0  0
  -27.7470  -22.3020   21.4100 O   0  0  0  0  0  0  0  0  0  0  0  0
  -30.8830  -19.5090   20.0900 C   0  0  0  0  0  3  0  0  0  0  0  0
  -31.0260  -18.0820   20.1740 C   0  0  0  0  0  3  0  0  0  0  0  0
  -29.6280  -20.1970   20.1940 C   0  0  0  0  0  0  0  0  0  0  0  0
  -29.9070  -17.2260   20.3690 C   0  0  0  0  0  0  0  0  0  0  0  0
  -28.5130  -19.3190   20.3680 C   0  0  0  0  0  0  0  0  0  0  0  0
  -28.6590  -17.8980   20.4640 C   0  0  0  0  0  0  0  0  0  0  0  0
  -27.2530  -19.8120   20.4030 F   0  0  0  0  0  0  0  0  0  0  0  0
  -27.5450  -17.1450   20.6370 F   0  0  0  0  0  0  0  0  0  0  0  0
  -30.7110  -14.7310   20.0290 C   0  0  0  0  0  0  0  0  0  0  0  0
  -30.4800  -12.5060   18.9230 C   0  0  0  0  0  2  0  0  0  0  0  0
  -29.4570  -12.6450   17.7720 C   0  0  0  0  0  2  0  0  0  0  0  0
  -28.0160  -12.4510   18.2870 C   0  0  0  0  0  2  0  0  0  0  0  0
  -27.7260  -13.2760   19.5680 C   0  0  0  0  0  3  0  0  0  0  0  0
  -28.8550  -13.1040   20.6110 C   0  0  0  0  0  2  0  0  0  0  0  0
  -30.1190  -13.4910   19.9640 N   0  0  0  0  0  0  0  0  0  0  0  0
  -31.8440  -14.9170   19.5730 O   0  0  0  0  0  0  0  0  0  0  0  0
  -29.9060  -15.7530   20.4770 N   0  0  0  0  0  0  0  0  0  0  0  0
  -29.0400  -15.3970   20.8500 H   0  0  0  0  0  0  0  0  0  0  0  0
  -25.3790  -13.8360   20.4540 C   0  0  0  0  0  0  0  0  0  0  0  0
  -24.3390  -13.0470   20.8610 C   0  0  0  0  0  0  0  0  0  0  0  0
  -24.8010  -11.7000   20.7520 C   0  0  0  0  0  0  0  0  0  0  0  0
  -26.4100  -12.9700   20.1260 N   0  0  0  0  0  0  0  0  0  0  0  0
  -26.0710  -11.6760   20.3630 N   0  0  0  0  0  0  0  0  0  0  0  0
  -24.0890  -10.4290   20.9390 C   0  0  0  0  0  0  0  0  0  0  0  0
  -24.5200   -9.4730   21.8860 C   0  0  0  0  0  3  0  0  0  0  0  0
  -23.8070   -8.2680   22.0610 C   0  0  0  0  0  3  0  0  0  0  0  0
  -22.6490   -8.0100   21.2890 C   0  0  0  0  0  0  0  0  0  0  0  0
  -22.2370   -8.9540   20.3330 C   0  0  0  0  0  3  0  0  0  0  0  0
  -22.9510  -10.1510   20.1560 C   0  0  0  0  0  3  0  0  0  0  0  0
  -21.9090   -6.8550   21.3730 O   0  0  0  0  0  0  0  0  0  0  0  0
  -21.7690   -6.1740   22.5550 C   0  0  0  0  0  0  0  0  0  0  0  0
  -21.2240   -6.7820   23.7070 C   0  0  0  0  0  3  0  0  0  0  0  0
  -21.0350   -6.0250   24.8800 C   0  0  0  0  0  3  0  0  0  0  0  0
  -21.3810   -4.6620   24.9030 C   0  0  0  0  0  0  0  0  0  0  0  0
  -21.9190   -4.0520   23.7550 C   0  0  0  0  0  3  0  0  0  0  0  0
  -22.1090   -4.8060   22.5840 C   0  0  0  0  0  0  0  0  0  0  0  0
  -22.6090   -4.2090   21.4750 F   0  0  0  0  0  0  0  0  0  0  0  0
  -21.1910   -3.9320   26.0270 F   0  0  0  0  0  0  0  0  0  0  0  0
  -22.9610  -13.5100   21.2370 C   0  0  0  0  0  0  0  0  0  0  0  0
  -22.2930  -12.7880   22.1290 N   0  0  0  0  0  0  0  0  0  0  0  0
  -22.4880  -14.5490   20.7770 O   0  0  0  0  0  0  0  0  0  0  0  0
  -22.6900  -11.9480   22.5230 H   0  0  0  0  0  0  0  0  0  0  0  0
  -21.3720  -13.0790   22.4220 H   0  0  0  0  0  0  0  0  0  0  0  0
  -25.5270  -15.2120   20.3150 N   0  0  0  0  0  0  0  0  0  0  0  0
  -24.7680  -15.8540   20.5140 H   0  0  0  0  0  0  0  0  0  0  0  0
  -26.3650  -15.6820   20.0010 H   0  0  0  0  0  0  0  0  0  0  0  0
  -28.3870  -26.4440   20.1060 O   0  0  0  0  0  0  0  0  0  0  0  0
  -24.6200  -31.8270   23.1790 C   0  0  0  0  0  0  0  0  0  0  0  0
  -27.2800  -27.3120   20.0930 C   0  0  0  0  0  0  0  0  0  0  0  0
  -23.4360  -30.4430   21.5090 C   0  0  0  0  0  3  0  0  0  0  0  0
  -24.9070  -28.9150   20.0760 C   0  0  0  0  0  0  0  0  0  0  0  0
  -25.9750  -30.7740   21.3510 C   0  0  0  0  0  2  0  0  0  0  0  0
  -26.0680  -29.4030   20.6920 C   0  0  0  0  0  0  0  0  0  0  0  0
  -27.2600  -28.6130   20.6900 C   0  0  0  0  0  3  0  0  0  0  0  0
  -26.0980  -26.8810   19.4510 C   0  0  0  0  0  3  0  0  0  0  0  0
  -24.9250  -27.6600   19.4470 C   0  0  0  0  0  3  0  0  0  0  0  0
  -23.6660  -29.7840   20.1230 C   0  0  0  0  0  2  0  0  0  0  0  0
  -24.6950  -31.0320   22.0710 N   0  0  0  0  0  0  0  0  0  0  0  0
  -23.5310  -32.0930   23.7070 O   0  0  0  0  0  0  0  0  0  0  0  0
  -22.7670  -29.4150   22.4520 C   0  0  0  0  0  0  0  0  0  0  0  0
  -21.4470  -29.2180   22.2950 N   0  0  0  0  0  0  0  0  0  0  0  0
  -23.4370  -28.7960   23.2840 O   0  0  0  0  0  0  0  0  0  0  0  0
  -20.9660  -29.7700   21.5990 H   0  0  0  0  0  0  0  0  0  0  0  0
  -18.0770  -27.9740   22.7230 C   0  0  0  0  0  0  0  0  0  0  0  0
  -20.6260  -28.2640   23.0440 C   0  0  0  0  0  3  0  0  0  0  0  0
  -20.7580  -26.8380   22.4620 C   0  0  0  0  0  2  0  0  0  0  0  0
  -19.6790  -26.5080   21.4250 C   0  0  0  0  0  2  0  0  0  0  0  0
  -18.2830  -26.6310   22.0420 C   0  0  0  0  0  2  0  0  0  0  0  0
  -19.1770  -28.7480   23.1790 C   0  0  0  0  0  0  0  0  0  0  0  0
  -18.9290  -30.0040   23.7760 C   0  0  0  0  0  3  0  0  0  0  0  0
  -17.6150  -30.4860   23.9200 C   0  0  0  0  0  3  0  0  0  0  0  0
  -16.5290  -29.7090   23.4800 C   0  0  0  0  0  3  0  0  0  0  0  0
  -16.7600  -28.4550   22.8870 C   0  0  0  0  0  3  0  0  0  0  0  0
  -25.8960  -32.4560   23.8200 C   0  0  0  0  0  3  0  0  0  0  0  0
  -25.5820  -33.8520   24.1570 N   0  0  0  0  0  0  0  0  0  0  0  0
  -25.9150  -34.9090   23.4060 C   0  0  0  0  0  0  0  0  0  0  0  0
  -26.5900  -34.8120   22.3760 O   0  0  0  0  0  0  0  0  0  0  0  0
  -24.9860  -34.0020   24.9570 H   0  0  0  0  0  0  0  0  0  0  0  0
  -24.1850  -36.7010   23.0560 C   0  0  0  0  0  1  0  0  0  0  0  0
  -25.4250  -36.2950   23.8690 C   0  0  0  0  0  3  0  0  0  0  0  0
  -27.5530  -37.1810   24.7130 C   0  0  0  0  0  1  0  0  0  0  0  0
  -26.4560  -37.3500   23.7640 N   0  0  0  0  0  0  0  0  0  0  0  0
  -26.0470  -38.2690   23.9130 H   0  0  0  0  0  0  0  0  0  0  0  0
  -26.3960  -31.6760   25.0970 C   0  0  1  0  0  0  0  0  0  0  0  0
  -25.2900  -31.4290   26.1500 C   0  0  0  0  0  1  0  0  0  0  0  0
  -26.9840  -30.3010   24.7050 C   0  0  0  0  0  1  0  0  0  0  0  0
  -27.5400  -32.4650   25.7780 C   0  0  0  0  0  1  0  0  0  0  0  0
  1  3  2  0
  1  2  1  0
  2  7  2  0
  4  5  2  0
  4  1  1  0
  5  6  1  0
  6 10  1  0
  6  2  1  0
  8  9  2  0
  8 10  1  0
  9 11  1  0
 10 12  2  0
 11 13  2  0
 11 24  1  0
 12 14  1  0
 12 13  1  0
 13 15  1  0
 16 24  1  0
 17 22  1  0
 18 19  1  0
 18 17  1  0
 20 19  1  0
 20 29  1  0
 20 21  1  0
 22 16  1  0
 22 21  1  0
 23 16  2  0
 24 25  1  0
 26 27  2  0
 27 46  1  0
 28 27  1  0
 28 31  1  0
 29 30  1  0
 29 26  1  0
 30 28  2  0
 31 32  1  0
 32 33  2  0
 34 37  1  0
 34 33  1  0
 35 34  2  0
 36 35  1  0
 36 31  2  0
 37 38  1  0
 38 43  2  0
 38 39  1  0
 39 40  2  0
 40 41  1  0
 41 45  1  0
 42 41  2  0
 43 42  1  0
 44 43  1  0
 46 47  1  0
 47 50  1  0
 47 49  1  0
 48 46  2  0
 51 26  1  0
 51 52  1  0
 53 51  1  0
 54  3  1  0
 55 66  2  0
 56 54  1  0
 56 61  1  0
 57 65  1  0
 57 67  1  0
 58 64  1  0
 58 60  1  0
 59 65  1  0
 60 59  1  0
 61 60  2  0
 62 56  2  0
 63 62  1  0
 63 58  2  0
 64 57  1  0
 65 55  1  0
 67 69  2  0
 68 67  1  0
 70 68  1  0
 71 80  2  0
 71 76  1  0
 72 68  1  0
 72 76  1  0
 73 72  1  0
 74 75  1  0
 74 73  1  0
 75 71  1  0
 76 77  2  0
 77 78  1  0
 79 78  2  0
 80 79  1  0
 81 55  1  0
 81 82  1  0
 81 91  1  0
 82 85  1  0
 83 87  1  0
 83 82  1  0
 84 83  2  0
 87 86  1  0
 89 87  1  0
 89 90  1  0
 89 88  1  0
 91 94  1  1
 91 92  1  0
 93 91  1  0
M  ISO  4   3 101  16 100  24 100  54 101
M  END
>  <TORSDO>  (55) 
F 17

>  <SCORE>  (55) 
-15.005

>  <name>  (55) 
54

>  <ligand_id>  (55) 
54

>  <original_smiles>  (55) 
[H]C(Oc1c([H])c([H])c2c(c1[H])C([H])([H])N(C(=O)C([H])(N([H])C(=O)C([H])(N([H])C([H])([H])[H])C([H])([H])[H])C(C([H])([H])[H])(C([H])([H])[H])C([H])([H])[H])C([H])(C(=O)N([H])C1([H])c3c([H])c([H])c([H])c([H])c3C([H])([H])C([H])([H])C1([H])[H])C2([H])[H])=C1C(=O)N(c2c([H])c([H])c(N([H])C(=O)N3C([H])([H])C([H])([H])C([H])([H])C([H])(n4nc(-c5c([H])c([H])c(Oc6c([H])c([H])c(F)c([H])c6F)c([H])c5[H])c(C(=O)N([H])[H])c4N([H])[H])C3([H])[H])c(F)c2F)C([H])([H])C1([H])[H]

>  <smiles>  (55) 
[H]C(Oc1c([H])c([H])c2c(c1[H])C([H])([H])N(C(=O)C([H])(N([H])C(=O)C([H])(N([H])C([H])([H])[H])C([H])([H])[H])C(C([H])([H])[H])(C([H])([H])[H])C([H])([H])[H])C([H])(C(=O)N([H])C1([H])c3c([H])c([H])c([H])c([H])c3C([H])([H])C([H])([H])C1([H])[H])C2([H])[H])=C1C(=O)N(c2c([H])c([H])c(N([H])C(=O)N3C([H])([H])C([H])([H])C([H])([H])C([H])(n4nc(-c5c([H])c([H])c(Oc6c([H])c([H])c(F)c([H])c6F)c([H])c5[H])c(C(=O)N([H])[H])c4N([H])[H])C3([H])[H])c(F)c2F)C([H])([H])C1([H])[H]

$$$$
55:0:0
     RDKit          3D

 93102  0  0  1  0  0  0  0  0999 V2000
  -28.6030  -22.4720   19.8740 C   0  0  0  0  0  0  0  0  0  0  0  0
  -29.2430  -21.3690   20.4600 N   0  0  0  0  0  0  0  0  0  0  0  0
  -27.8520  -22.2980   18.9130 O   0  0  0  0  0  0  0  0  0  0  0  0
  -29.6980  -21.5820   21.3380 H   0  0  0  0  0  0  0  0  0  0  0  0
  -30.5690  -14.8960   20.6210 C   0  0  0  0  0  0  0  0  0  0  0  0
  -30.4920  -12.5360   19.7860 C   0  0  0  0  0  2  0  0  0  0  0  0
  -29.6250  -12.4850   18.5050 C   0  0  0  0  0  2  0  0  0  0  0  0
  -28.1260  -12.3520   18.8490 C   0  0  0  0  0  2  0  0  0  0  0  0
  -27.6670  -13.2890   20.0000 C   0  0  0  0  0  3  0  0  0  0  0  0
  -28.6670  -13.2960   21.1760 C   0  0  0  0  0  2  0  0  0  0  0  0
  -29.9830  -13.6440   20.6260 N   0  0  0  0  0  0  0  0  0  0  0  0
  -31.8000  -14.9830   20.5380 O   0  0  0  0  0  0  0  0  0  0  0  0
  -29.4600  -18.5340   17.8600 C   0  0  0  0  0  3  0  0  0  0  0  0
  -29.3740  -19.7840   18.5230 C   0  0  0  0  0  3  0  0  0  0  0  0
  -29.6100  -18.7390   20.7740 C   0  0  0  0  0  3  0  0  0  0  0  0
  -29.6310  -17.4260   18.6830 C   0  0  0  0  0  0  0  0  0  0  0  0
  -29.7450  -17.4490   20.1080 C   0  0  0  0  0  0  0  0  0  0  0  0
  -29.4000  -19.9580   19.9520 C   0  0  0  0  0  0  0  0  0  0  0  0
  -29.6640  -15.9370   18.6300 C   0  0  0  0  0  2  0  0  0  0  0  0
  -29.7570  -15.9370   20.1420 N   0  0  0  0  0  0  0  0  0  0  0  0
  -25.2490  -13.8950   20.5860 C   0  0  0  0  0  0  0  0  0  0  0  0
  -24.1630  -13.1280   20.9060 C   0  0  0  0  0  0  0  0  0  0  0  0
  -24.6280  -11.7780   20.9340 C   0  0  0  0  0  0  0  0  0  0  0  0
  -26.3030  -13.0100   20.4280 N   0  0  0  0  0  0  0  0  0  0  0  0
  -25.9340  -11.7330   20.7040 N   0  0  0  0  0  0  0  0  0  0  0  0
  -23.8930  -10.5190   21.1070 C   0  0  0  0  0  0  0  0  0  0  0  0
  -24.2910   -9.5590   22.0640 C   0  0  0  0  0  3  0  0  0  0  0  0
  -23.5570   -8.3650   22.2250 C   0  0  0  0  0  3  0  0  0  0  0  0
  -22.4130   -8.1210   21.4290 C   0  0  0  0  0  0  0  0  0  0  0  0
  -22.0360   -9.0680   20.4610 C   0  0  0  0  0  3  0  0  0  0  0  0
  -22.7700  -10.2550   20.2970 C   0  0  0  0  0  3  0  0  0  0  0  0
  -21.6540   -6.9790   21.5000 O   0  0  0  0  0  0  0  0  0  0  0  0
  -21.5740   -6.2370   22.6510 C   0  0  0  0  0  0  0  0  0  0  0  0
  -21.1230   -6.7960   23.8670 C   0  0  0  0  0  3  0  0  0  0  0  0
  -20.9900   -5.9810   25.0090 C   0  0  0  0  0  3  0  0  0  0  0  0
  -21.2980   -4.6100   24.9360 C   0  0  0  0  0  0  0  0  0  0  0  0
  -21.7430   -4.0510   23.7250 C   0  0  0  0  0  3  0  0  0  0  0  0
  -21.8770   -4.8620   22.5840 C   0  0  0  0  0  0  0  0  0  0  0  0
  -22.2860   -4.3150   21.4140 F   0  0  0  0  0  0  0  0  0  0  0  0
  -21.1630   -3.8240   26.0290 F   0  0  0  0  0  0  0  0  0  0  0  0
  -22.7510  -13.6090   21.0820 C   0  0  0  0  0  0  0  0  0  0  0  0
  -21.9720  -12.9280   21.9150 N   0  0  0  0  0  0  0  0  0  0  0  0
  -22.3460  -14.6230   20.5140 O   0  0  0  0  0  0  0  0  0  0  0  0
  -22.3100  -12.1090   22.3970 H   0  0  0  0  0  0  0  0  0  0  0  0
  -21.0220  -13.2320   22.0740 H   0  0  0  0  0  0  0  0  0  0  0  0
  -25.4230  -15.2630   20.3910 N   0  0  0  0  0  0  0  0  0  0  0  0
  -24.6560  -15.9220   20.4610 H   0  0  0  0  0  0  0  0  0  0  0  0
  -26.3030  -15.7020   20.1500 H   0  0  0  0  0  0  0  0  0  0  0  0
  -28.2190  -25.0000   19.8440 C   0  0  0  0  0  3  0  0  0  0  0  0
  -28.7860  -23.8720   20.4420 C   0  0  0  0  0  0  0  0  0  0  0  0
  -29.5220  -24.0180   21.5530 O   0  0  0  0  0  0  0  0  0  0  0  0
  -29.5310  -24.9450   21.7580 H   0  0  0  0  0  0  0  0  0  0  0  0
  -28.2940  -26.3890   20.2060 O   0  0  0  0  0  0  0  0  0  0  0  0
  -24.5270  -31.8840   23.1490 C   0  0  0  0  0  0  0  0  0  0  0  0
  -27.1840  -27.2770   20.1200 C   0  0  0  0  0  0  0  0  0  0  0  0
  -23.3430  -30.4690   21.5120 C   0  0  0  0  0  3  0  0  0  0  0  0
  -24.8110  -28.9230   20.0910 C   0  0  0  0  0  0  0  0  0  0  0  0
  -25.8850  -30.7920   21.3380 C   0  0  0  0  0  2  0  0  0  0  0  0
  -25.9780  -29.4080   20.6920 C   0  0  0  0  0  0  0  0  0  0  0  0
  -27.1630  -28.5970   20.6980 C   0  0  0  0  0  3  0  0  0  0  0  0
  -25.9810  -26.8650   19.4970 C   0  0  0  0  0  3  0  0  0  0  0  0
  -24.8190  -27.6600   19.4850 C   0  0  0  0  0  3  0  0  0  0  0  0
  -23.5680  -29.7920   20.1340 C   0  0  0  0  0  2  0  0  0  0  0  0
  -24.6050  -31.0680   22.0550 N   0  0  0  0  0  0  0  0  0  0  0  0
  -23.4390  -32.1540   23.6780 O   0  0  0  0  0  0  0  0  0  0  0  0
  -22.6840  -29.4500   22.4750 C   0  0  0  0  0  0  0  0  0  0  0  0
  -21.3550  -29.2810   22.3650 N   0  0  0  0  0  0  0  0  0  0  0  0
  -23.3690  -28.8150   23.2800 O   0  0  0  0  0  0  0  0  0  0  0  0
  -20.8590  -29.8460   21.6890 H   0  0  0  0  0  0  0  0  0  0  0  0
  -17.9760  -28.1100   22.9210 C   0  0  0  0  0  0  0  0  0  0  0  0
  -20.5410  -28.3420   23.1410 C   0  0  0  0  0  3  0  0  0  0  0  0
  -20.6170  -26.9160   22.5470 C   0  0  0  0  0  2  0  0  0  0  0  0
  -19.4910  -26.6170   21.5530 C   0  0  0  0  0  2  0  0  0  0  0  0
  -18.1250  -26.7670   22.2270 C   0  0  0  0  0  2  0  0  0  0  0  0
  -19.1100  -28.8570   23.3360 C   0  0  0  0  0  0  0  0  0  0  0  0
  -18.9150  -30.1140   23.9480 C   0  0  0  0  0  3  0  0  0  0  0  0
  -17.6190  -30.6250   24.1480 C   0  0  0  0  0  3  0  0  0  0  0  0
  -16.4990  -29.8750   23.7480 C   0  0  0  0  0  3  0  0  0  0  0  0
  -16.6780  -28.6190   23.1400 C   0  0  0  0  0  3  0  0  0  0  0  0
  -25.8010  -32.5330   23.7720 C   0  0  0  0  0  3  0  0  0  0  0  0
  -25.4680  -33.9230   24.1150 N   0  0  0  0  0  0  0  0  0  0  0  0
  -25.7950  -34.9910   23.3740 C   0  0  0  0  0  0  0  0  0  0  0  0
  -26.4750  -34.9110   22.3480 O   0  0  0  0  0  0  0  0  0  0  0  0
  -24.8640  -34.0610   24.9120 H   0  0  0  0  0  0  0  0  0  0  0  0
  -24.0590  -36.7770   23.0140 C   0  0  0  0  0  1  0  0  0  0  0  0
  -25.2860  -36.3680   23.8450 C   0  0  0  0  0  3  0  0  0  0  0  0
  -27.3960  -37.2550   24.7350 C   0  0  0  0  0  1  0  0  0  0  0  0
  -26.3120  -37.4310   23.7720 N   0  0  0  0  0  0  0  0  0  0  0  0
  -25.8960  -38.3450   23.9260 H   0  0  0  0  0  0  0  0  0  0  0  0
  -26.3320  -31.7610   25.0420 C   0  0  1  0  0  0  0  0  0  0  0  0
  -25.2460  -31.5050   26.1130 C   0  0  0  0  0  1  0  0  0  0  0  0
  -26.9330  -30.3930   24.6420 C   0  0  0  0  0  1  0  0  0  0  0  0
  -27.4720  -32.5690   25.7060 C   0  0  0  0  0  1  0  0  0  0  0  0
  1 50  1  0
  1  2  1  0
  2  4  1  0
  3  1  2  0
  5 11  1  0
  6 11  1  0
  7  8  1  0
  7  6  1  0
  9  8  1  0
  9 24  1  0
  9 10  1  0
 11 10  1  0
 12  5  2  0
 13 14  2  0
 13 16  1  0
 14 18  1  0
 16 17  2  0
 17 20  1  0
 17 15  1  0
 18  2  1  0
 18 15  2  0
 19 16  1  0
 19 20  1  0
 20  5  1  0
 21 22  2  0
 22 23  1  0
 22 41  1  0
 23 26  1  0
 24 21  1  0
 24 25  1  0
 25 23  2  0
 26 27  1  0
 27 28  2  0
 29 32  1  0
 29 28  1  0
 30 29  2  0
 31 30  1  0
 31 26  2  0
 32 33  1  0
 33 34  1  0
 34 35  2  0
 36 35  1  0
 36 40  1  0
 37 36  2  0
 38 33  2  0
 38 37  1  0
 39 38  1  0
 41 42  1  0
 42 45  1  0
 42 44  1  0
 43 41  2  0
 46 47  1  0
 46 21  1  0
 48 46  1  0
 49 53  1  0
 49 50  2  0
 50 51  1  0
 51 52  1  0
 54 65  2  0
 55 53  1  0
 55 60  1  0
 56 64  1  0
 56 66  1  0
 57 63  1  0
 57 59  1  0
 58 64  1  0
 59 60  2  0
 59 58  1  0
 61 55  2  0
 62 61  1  0
 62 57  2  0
 63 56  1  0
 64 54  1  0
 66 68  2  0
 67 66  1  0
 69 67  1  0
 70 79  2  0
 70 75  1  0
 71 67  1  0
 71 75  1  0
 72 71  1  0
 73 74  1  0
 73 72  1  0
 74 70  1  0
 75 76  2  0
 76 77  1  0
 78 77  2  0
 79 78  1  0
 80 54  1  0
 80 81  1  0
 80 90  1  0
 81 84  1  0
 82 86  1  0
 82 81  1  0
 83 82  2  0
 86 85  1  0
 88 86  1  0
 88 89  1  0
 88 87  1  0
 90 93  1  1
 90 91  1  0
 92 90  1  0
M  ISO  4   5 100  20 100  49 101  53 101
M  END
>  <TORSDO>  (56) 
F 18

>  <SCORE>  (56) 
-14.436

>  <name>  (56) 
55

>  <ligand_id>  (56) 
55

>  <original_smiles>  (56) 
[H]OC(C(=O)N([H])c1c([H])c([H])c2c(c1[H])N(C(=O)N1C([H])([H])C([H])([H])C([H])([H])C([H])(n3nc(-c4c([H])c([H])c(Oc5c([H])c([H])c(F)c([H])c5F)c([H])c4[H])c(C(=O)N([H])[H])c3N([H])[H])C1([H])[H])C2([H])[H])=C([H])Oc1c([H])c([H])c2c(c1[H])C([H])([H])N(C(=O)C([H])(N([H])C(=O)C([H])(N([H])C([H])([H])[H])C([H])([H])[H])C(C([H])([H])[H])(C([H])([H])[H])C([H])([H])[H])C([H])(C(=O)N([H])C1([H])c3c([H])c([H])c([H])c([H])c3C([H])([H])C([H])([H])C1([H])[H])C2([H])[H]

>  <smiles>  (56) 
[H]OC(C(=O)N([H])c1c([H])c([H])c2c(c1[H])N(C(=O)N1C([H])([H])C([H])([H])C([H])([H])C([H])(n3nc(-c4c([H])c([H])c(Oc5c([H])c([H])c(F)c([H])c5F)c([H])c4[H])c(C(=O)N([H])[H])c3N([H])[H])C1([H])[H])C2([H])[H])=C([H])Oc1c([H])c([H])c2c(c1[H])C([H])([H])N(C(=O)C([H])(N([H])C(=O)C([H])(N([H])C([H])([H])[H])C([H])([H])[H])C(C([H])([H])[H])(C([H])([H])[H])C([H])([H])[H])C([H])(C(=O)N([H])C1([H])c3c([H])c([H])c([H])c([H])c3C([H])([H])C([H])([H])C1([H])[H])C2([H])[H]

$$$$
56:0:0
     RDKit          3D

 93102  0  0  1  0  0  0  0  0999 V2000
  -28.8850  -24.4180   19.2890 C   0  0  0  0  0  0  0  0  0  0  0  0
  -28.6760  -25.7690   19.1910 C   0  0  0  0  0  3  0  0  0  0  0  0
  -28.9680  -20.8860   20.6350 C   0  0  0  0  0  0  0  0  0  0  0  0
  -29.3990  -23.6040   18.1310 C   0  0  0  0  0  2  0  0  0  0  0  0
  -28.7270  -23.4260   20.4550 C   0  0  0  0  0  2  0  0  0  0  0  0
  -29.9610  -22.3180   18.7530 C   0  0  0  0  0  2  0  0  0  0  0  0
  -29.1860  -22.0810   19.9770 N   0  0  0  0  0  0  0  0  0  0  0  0
  -28.5090  -20.8910   21.7810 O   0  0  0  0  0  0  0  0  0  0  0  0
  -29.1790  -18.0270   18.0340 C   0  0  0  0  0  3  0  0  0  0  0  0
  -28.9810  -19.2890   18.6240 C   0  0  0  0  0  3  0  0  0  0  0  0
  -29.5710  -16.9230   18.8100 C   0  0  0  0  0  3  0  0  0  0  0  0
  -29.5910  -18.3520   20.7830 C   0  0  0  0  0  3  0  0  0  0  0  0
  -29.2400  -19.5090   19.9970 C   0  0  0  0  0  0  0  0  0  0  0  0
  -29.7540  -17.0470   20.2060 C   0  0  0  0  0  0  0  0  0  0  0  0
  -30.7220  -14.7660   20.6390 C   0  0  0  0  0  0  0  0  0  0  0  0
  -30.5520  -12.5170   19.6240 C   0  0  0  0  0  2  0  0  0  0  0  0
  -29.6680  -12.6420   18.3640 C   0  0  0  0  0  2  0  0  0  0  0  0
  -28.1770  -12.4900   18.7250 C   0  0  0  0  0  2  0  0  0  0  0  0
  -27.7610  -13.3640   19.9390 C   0  0  0  0  0  3  0  0  0  0  0  0
  -28.7680  -13.2270   21.1040 C   0  0  0  0  0  2  0  0  0  0  0  0
  -30.1060  -13.5460   20.5850 N   0  0  0  0  0  0  0  0  0  0  0  0
  -31.8830  -14.9230   20.2520 O   0  0  0  0  0  0  0  0  0  0  0  0
  -29.9550  -15.8390   20.9900 N   0  0  0  0  0  0  0  0  0  0  0  0
  -29.1790  -15.6060   21.5920 H   0  0  0  0  0  0  0  0  0  0  0  0
  -25.3280  -13.9440   20.5320 C   0  0  0  0  0  0  0  0  0  0  0  0
  -24.2550  -13.1640   20.8690 C   0  0  0  0  0  0  0  0  0  0  0  0
  -24.7360  -11.8190   20.8900 C   0  0  0  0  0  0  0  0  0  0  0  0
  -26.3930  -13.0750   20.3660 N   0  0  0  0  0  0  0  0  0  0  0  0
  -26.0390  -11.7930   20.6400 N   0  0  0  0  0  0  0  0  0  0  0  0
  -24.0180  -10.5500   21.0750 C   0  0  0  0  0  0  0  0  0  0  0  0
  -24.4200   -9.6090   22.0480 C   0  0  0  0  0  3  0  0  0  0  0  0
  -23.7020   -8.4050   22.2190 C   0  0  0  0  0  3  0  0  0  0  0  0
  -22.5700   -8.1340   21.4150 C   0  0  0  0  0  0  0  0  0  0  0  0
  -22.1870   -9.0650   20.4320 C   0  0  0  0  0  3  0  0  0  0  0  0
  -22.9070  -10.2600   20.2590 C   0  0  0  0  0  3  0  0  0  0  0  0
  -21.8260   -6.9820   21.4940 O   0  0  0  0  0  0  0  0  0  0  0  0
  -21.7310   -6.2640   22.6590 C   0  0  0  0  0  0  0  0  0  0  0  0
  -21.2050   -6.8290   23.8420 C   0  0  0  0  0  3  0  0  0  0  0  0
  -21.0600   -6.0360   24.9970 C   0  0  0  0  0  3  0  0  0  0  0  0
  -21.4330   -4.6790   24.9710 C   0  0  0  0  0  0  0  0  0  0  0  0
  -21.9520   -4.1130   23.7930 C   0  0  0  0  0  3  0  0  0  0  0  0
  -22.0980   -4.9030   22.6400 C   0  0  0  0  0  0  0  0  0  0  0  0
  -22.5790   -4.3480   21.5020 F   0  0  0  0  0  0  0  0  0  0  0  0
  -21.2880   -3.9140   26.0790 F   0  0  0  0  0  0  0  0  0  0  0  0
  -22.8400  -13.6260   21.0660 C   0  0  0  0  0  0  0  0  0  0  0  0
  -22.0800  -12.9370   21.9110 N   0  0  0  0  0  0  0  0  0  0  0  0
  -22.4120  -14.6360   20.5070 O   0  0  0  0  0  0  0  0  0  0  0  0
  -22.4360  -12.1230   22.3880 H   0  0  0  0  0  0  0  0  0  0  0  0
  -21.1300  -13.2320   22.0850 H   0  0  0  0  0  0  0  0  0  0  0  0
  -25.4830  -15.3140   20.3320 N   0  0  0  0  0  0  0  0  0  0  0  0
  -24.7080  -15.9640   20.4010 H   0  0  0  0  0  0  0  0  0  0  0  0
  -26.3450  -15.7570   20.0410 H   0  0  0  0  0  0  0  0  0  0  0  0
  -28.3630  -26.6840   20.1860 O   0  0  0  0  0  0  0  0  0  0  0  0
  -24.5850  -31.9600   23.2090 C   0  0  0  0  0  0  0  0  0  0  0  0
  -27.2440  -27.5060   20.0820 C   0  0  0  0  0  0  0  0  0  0  0  0
  -23.3860  -30.5590   21.5630 C   0  0  0  0  0  3  0  0  0  0  0  0
  -24.8480  -29.0440   20.1090 C   0  0  0  0  0  0  0  0  0  0  0  0
  -25.9140  -30.9250   21.3610 C   0  0  0  0  0  2  0  0  0  0  0  0
  -26.0080  -29.5570   20.7010 C   0  0  0  0  0  0  0  0  0  0  0  0
  -27.2080  -28.7940   20.6870 C   0  0  0  0  0  3  0  0  0  0  0  0
  -26.0620  -27.0260   19.4760 C   0  0  0  0  0  3  0  0  0  0  0  0
  -24.8740  -27.7830   19.4890 C   0  0  0  0  0  3  0  0  0  0  0  0
  -23.5970  -29.8940   20.1750 C   0  0  0  0  0  2  0  0  0  0  0  0
  -24.6470  -31.1640   22.1030 N   0  0  0  0  0  0  0  0  0  0  0  0
  -23.5030  -32.2190   23.7550 O   0  0  0  0  0  0  0  0  0  0  0  0
  -22.7450  -29.5270   22.5210 C   0  0  0  0  0  0  0  0  0  0  0  0
  -21.4220  -29.3240   22.3900 N   0  0  0  0  0  0  0  0  0  0  0  0
  -23.4340  -28.9130   23.3380 O   0  0  0  0  0  0  0  0  0  0  0  0
  -20.9260  -29.8740   21.7030 H   0  0  0  0  0  0  0  0  0  0  0  0
  -18.0680  -28.0620   22.8700 C   0  0  0  0  0  0  0  0  0  0  0  0
  -20.6190  -28.3710   23.1570 C   0  0  0  0  0  3  0  0  0  0  0  0
  -20.7540  -26.9420   22.5820 C   0  0  0  0  0  2  0  0  0  0  0  0
  -19.6650  -26.5980   21.5600 C   0  0  0  0  0  2  0  0  0  0  0  0
  -18.2760  -26.7170   22.1950 C   0  0  0  0  0  2  0  0  0  0  0  0
  -19.1690  -28.8450   23.3070 C   0  0  0  0  0  0  0  0  0  0  0  0
  -18.9220  -30.1050   23.8960 C   0  0  0  0  0  3  0  0  0  0  0  0
  -17.6060  -30.5790   24.0540 C   0  0  0  0  0  3  0  0  0  0  0  0
  -16.5200  -29.7920   23.6330 C   0  0  0  0  0  3  0  0  0  0  0  0
  -16.7520  -28.5360   23.0470 C   0  0  0  0  0  3  0  0  0  0  0  0
  -25.8670  -32.6000   23.8280 C   0  0  0  0  0  3  0  0  0  0  0  0
  -25.5530  -33.9990   24.1510 N   0  0  0  0  0  0  0  0  0  0  0  0
  -25.8860  -35.0490   23.3890 C   0  0  0  0  0  0  0  0  0  0  0  0
  -26.5590  -34.9430   22.3610 O   0  0  0  0  0  0  0  0  0  0  0  0
  -24.9570  -34.1560   24.9510 H   0  0  0  0  0  0  0  0  0  0  0  0
  -24.1650  -36.8440   23.0110 C   0  0  0  0  0  1  0  0  0  0  0  0
  -25.3950  -36.4380   23.8390 C   0  0  0  0  0  3  0  0  0  0  0  0
  -27.5140  -37.3260   24.7050 C   0  0  0  0  0  1  0  0  0  0  0  0
  -26.4300  -37.4900   23.7410 N   0  0  0  0  0  0  0  0  0  0  0  0
  -26.0220  -38.4110   23.8750 H   0  0  0  0  0  0  0  0  0  0  0  0
  -26.3870  -31.8380   25.1080 C   0  0  1  0  0  0  0  0  0  0  0  0
  -25.2940  -31.6000   26.1770 C   0  0  0  0  0  1  0  0  0  0  0  0
  -26.9770  -30.4610   24.7220 C   0  0  0  0  0  1  0  0  0  0  0  0
  -27.5330  -32.6400   25.7660 C   0  0  0  0  0  1  0  0  0  0  0  0
  1  5  1  0
  2  1  2  0
  2 53  1  0
  3  8  2  0
  4  6  1  0
  4  1  1  0
  6  7  1  0
  7  5  1  0
  7  3  1  0
  9 10  2  0
  9 11  1  0
 10 13  1  0
 11 14  2  0
 13  3  1  0
 13 12  2  0
 14 12  1  0
 14 23  1  0
 15 23  1  0
 16 21  1  0
 17 18  1  0
 17 16  1  0
 19 18  1  0
 19 28  1  0
 19 20  1  0
 21 15  1  0
 21 20  1  0
 22 15  2  0
 23 24  1  0
 25 26  2  0
 26 27  1  0
 26 45  1  0
 27 30  1  0
 28 25  1  0
 28 29  1  0
 29 27  2  0
 30 31  1  0
 31 32  2  0
 33 36  1  0
 33 32  1  0
 34 33  2  0
 35 34  1  0
 35 30  2  0
 36 37  1  0
 37 38  1  0
 38 39  2  0
 40 39  1  0
 40 44  1  0
 41 40  2  0
 42 37  2  0
 42 41  1  0
 43 42  1  0
 45 46  1  0
 46 49  1  0
 46 48  1  0
 47 45  2  0
 50 51  1  0
 50 25  1  0
 52 50  1  0
 54 65  2  0
 55 53  1  0
 55 60  1  0
 56 64  1  0
 56 66  1  0
 57 63  1  0
 57 59  1  0
 58 64  1  0
 59 58  1  0
 60 59  2  0
 61 62  1  0
 61 55  2  0
 62 57  2  0
 63 56  1  0
 64 54  1  0
 66 68  2  0
 67 66  1  0
 69 67  1  0
 70 79  2  0
 70 75  1  0
 71 67  1  0
 71 75  1  0
 72 71  1  0
 73 74  1  0
 73 72  1  0
 74 70  1  0
 75 76  2  0
 76 77  1  0
 78 77  2  0
 79 78  1  0
 80 54  1  0
 80 81  1  0
 80 90  1  0
 81 84  1  0
 82 86  1  0
 82 81  1  0
 83 82  2  0
 86 85  1  0
 88 86  1  0
 88 89  1  0
 88 87  1  0
 90 93  1  1
 90 91  1  0
 92 90  1  0
M  ISO  4   2 101  15 100  23 100  53 101
M  END
>  <TORSDO>  (57) 
F 17

>  <SCORE>  (57) 
-14.853

>  <name>  (57) 
56

>  <ligand_id>  (57) 
56

>  <original_smiles>  (57) 
[H]C(Oc1c([H])c([H])c2c(c1[H])C([H])([H])N(C(=O)C([H])(N([H])C(=O)C([H])(N([H])C([H])([H])[H])C([H])([H])[H])C(C([H])([H])[H])(C([H])([H])[H])C([H])([H])[H])C([H])(C(=O)N([H])C1([H])c3c([H])c([H])c([H])c([H])c3C([H])([H])C([H])([H])C1([H])[H])C2([H])[H])=C1C([H])([H])N(C(=O)c2c([H])c([H])c([H])c(N([H])C(=O)N3C([H])([H])C([H])([H])C([H])([H])C([H])(n4nc(-c5c([H])c([H])c(Oc6c([H])c([H])c(F)c([H])c6F)c([H])c5[H])c(C(=O)N([H])[H])c4N([H])[H])C3([H])[H])c2[H])C([H])([H])C1([H])[H]

>  <smiles>  (57) 
[H]C(Oc1c([H])c([H])c2c(c1[H])C([H])([H])N(C(=O)C([H])(N([H])C(=O)C([H])(N([H])C([H])([H])[H])C([H])([H])[H])C(C([H])([H])[H])(C([H])([H])[H])C([H])([H])[H])C([H])(C(=O)N([H])C1([H])c3c([H])c([H])c([H])c([H])c3C([H])([H])C([H])([H])C1([H])[H])C2([H])[H])=C1C([H])([H])N(C(=O)c2c([H])c([H])c([H])c(N([H])C(=O)N3C([H])([H])C([H])([H])C([H])([H])C([H])(n4nc(-c5c([H])c([H])c(Oc6c([H])c([H])c(F)c([H])c6F)c([H])c5[H])c(C(=O)N([H])[H])c4N([H])[H])C3([H])[H])c2[H])C([H])([H])C1([H])[H]

$$$$
57:0:0
     RDKit          3D

 94103  0  0  1  0  0  0  0  0999 V2000
  -28.2340  -23.7180   20.6240 C   0  0  0  0  0  0  0  0  0  0  0  0
  -27.4780  -22.7840   21.4560 C   0  0  0  0  0  0  0  0  0  0  0  0
  -29.2140  -22.8270   19.9130 C   0  0  0  0  0  0  0  0  0  0  0  0
  -27.8910  -25.0900   20.6740 C   0  0  0  0  0  3  0  0  0  0  0  0
  -27.9560  -21.3570   21.2350 C   0  0  0  0  0  2  0  0  0  0  0  0
  -29.0770  -21.4690   20.3010 N   0  0  0  0  0  0  0  0  0  0  0  0
  -26.5640  -23.0570   22.2450 O   0  0  0  0  0  0  0  0  0  0  0  0
  -30.0290  -23.2300   19.0760 O   0  0  0  0  0  0  0  0  0  0  0  0
  -32.0000  -19.3180   19.0660 C   0  0  0  0  0  3  0  0  0  0  0  0
  -31.1550  -20.4000   19.3690 C   0  0  0  0  0  3  0  0  0  0  0  0
  -31.6420  -17.9870   19.3470 C   0  0  0  0  0  3  0  0  0  0  0  0
  -29.8910  -20.2230   19.9760 C   0  0  0  0  0  0  0  0  0  0  0  0
  -30.4140  -17.6490   19.9650 C   0  0  0  0  0  0  0  0  0  0  0  0
  -29.5500  -18.8080   20.2660 C   0  0  0  0  0  0  0  0  0  0  0  0
  -28.3570  -18.5390   20.8490 F   0  0  0  0  0  0  0  0  0  0  0  0
  -30.8090  -15.0010   19.9880 C   0  0  0  0  0  0  0  0  0  0  0  0
  -30.5720  -12.7110   18.9880 C   0  0  0  0  0  2  0  0  0  0  0  0
  -29.5820  -12.7570   17.8020 C   0  0  0  0  0  2  0  0  0  0  0  0
  -28.1420  -12.5410   18.3020 C   0  0  0  0  0  2  0  0  0  0  0  0
  -27.8030  -13.4180   19.5370 C   0  0  0  0  0  3  0  0  0  0  0  0
  -28.9170  -13.3800   20.6070 C   0  0  0  0  0  2  0  0  0  0  0  0
  -30.1690  -13.7740   19.9470 N   0  0  0  0  0  0  0  0  0  0  0  0
  -31.9930  -15.0290   19.6450 O   0  0  0  0  0  0  0  0  0  0  0  0
  -30.0870  -16.1890   20.2240 N   0  0  0  0  0  0  0  0  0  0  0  0
  -29.1510  -16.0350   20.5640 H   0  0  0  0  0  0  0  0  0  0  0  0
  -25.4550  -13.9530   20.4120 C   0  0  0  0  0  0  0  0  0  0  0  0
  -24.4170  -13.1550   20.8100 C   0  0  0  0  0  0  0  0  0  0  0  0
  -24.8910  -11.8110   20.7170 C   0  0  0  0  0  0  0  0  0  0  0  0
  -26.4930  -13.0930   20.0940 N   0  0  0  0  0  0  0  0  0  0  0  0
  -26.1660  -11.7970   20.3410 N   0  0  0  0  0  0  0  0  0  0  0  0
  -24.1860  -10.5360   20.9060 C   0  0  0  0  0  0  0  0  0  0  0  0
  -24.6070   -9.5940   21.8700 C   0  0  0  0  0  3  0  0  0  0  0  0
  -23.8990   -8.3850   22.0470 C   0  0  0  0  0  3  0  0  0  0  0  0
  -22.7580   -8.1090   21.2570 C   0  0  0  0  0  0  0  0  0  0  0  0
  -22.3570   -9.0390   20.2820 C   0  0  0  0  0  3  0  0  0  0  0  0
  -23.0660  -10.2400   20.1040 C   0  0  0  0  0  3  0  0  0  0  0  0
  -22.0270   -6.9490   21.3400 O   0  0  0  0  0  0  0  0  0  0  0  0
  -21.8620   -6.2840   22.5280 C   0  0  0  0  0  0  0  0  0  0  0  0
  -21.2590   -6.8980   23.6480 C   0  0  0  0  0  3  0  0  0  0  0  0
  -21.0440   -6.1580   24.8270 C   0  0  0  0  0  3  0  0  0  0  0  0
  -21.4240   -4.8040   24.8880 C   0  0  0  0  0  0  0  0  0  0  0  0
  -22.0210   -4.1890   23.7740 C   0  0  0  0  0  3  0  0  0  0  0  0
  -22.2350   -4.9260   22.5960 C   0  0  0  0  0  0  0  0  0  0  0  0
  -22.7910   -4.3230   21.5170 F   0  0  0  0  0  0  0  0  0  0  0  0
  -21.2120   -4.0900   26.0180 F   0  0  0  0  0  0  0  0  0  0  0  0
  -23.0310  -13.6110   21.1640 C   0  0  0  0  0  0  0  0  0  0  0  0
  -22.3520  -12.8840   22.0440 N   0  0  0  0  0  0  0  0  0  0  0  0
  -22.5600  -14.6460   20.6950 O   0  0  0  0  0  0  0  0  0  0  0  0
  -22.7470  -12.0480   22.4470 H   0  0  0  0  0  0  0  0  0  0  0  0
  -21.4240  -13.1710   22.3210 H   0  0  0  0  0  0  0  0  0  0  0  0
  -25.5960  -15.3290   20.2680 N   0  0  0  0  0  0  0  0  0  0  0  0
  -24.8300  -15.9720   20.4390 H   0  0  0  0  0  0  0  0  0  0  0  0
  -26.4240  -15.7910   19.9130 H   0  0  0  0  0  0  0  0  0  0  0  0
  -28.2770  -26.3510   20.0980 O   0  0  0  0  0  0  0  0  0  0  0  0
  -24.6450  -31.8810   23.2430 C   0  0  0  0  0  0  0  0  0  0  0  0
  -27.2590  -27.3500   20.0590 C   0  0  0  0  0  0  0  0  0  0  0  0
  -23.4580  -30.5460   21.5440 C   0  0  0  0  0  3  0  0  0  0  0  0
  -24.9220  -29.0390   20.0710 C   0  0  0  0  0  0  0  0  0  0  0  0
  -26.0080  -30.8380   21.4070 C   0  0  0  0  0  2  0  0  0  0  0  0
  -26.0910  -29.4770   20.7060 C   0  0  0  0  0  0  0  0  0  0  0  0
  -27.2670  -28.6460   20.6920 C   0  0  0  0  0  3  0  0  0  0  0  0
  -26.0700  -26.9990   19.3850 C   0  0  0  0  0  3  0  0  0  0  0  0
  -24.9180  -27.8100   19.3970 C   0  0  0  0  0  3  0  0  0  0  0  0
  -23.6890  -29.9230   20.1420 C   0  0  0  0  0  2  0  0  0  0  0  0
  -24.7220  -31.1050   22.1210 N   0  0  0  0  0  0  0  0  0  0  0  0
  -23.5550  -32.1450   23.7740 O   0  0  0  0  0  0  0  0  0  0  0  0
  -22.7750  -29.4990   22.4600 C   0  0  0  0  0  0  0  0  0  0  0  0
  -21.4500  -29.3300   22.3140 N   0  0  0  0  0  0  0  0  0  0  0  0
  -23.4420  -28.8450   23.2670 O   0  0  0  0  0  0  0  0  0  0  0  0
  -20.9690  -29.9130   21.6420 H   0  0  0  0  0  0  0  0  0  0  0  0
  -18.0590  -28.1460   22.7700 C   0  0  0  0  0  0  0  0  0  0  0  0
  -20.6210  -28.3670   23.0430 C   0  0  0  0  0  3  0  0  0  0  0  0
  -20.7050  -26.9620   22.4040 C   0  0  0  0  0  2  0  0  0  0  0  0
  -19.5990  -26.6980   21.3780 C   0  0  0  0  0  2  0  0  0  0  0  0
  -18.2200  -26.8280   22.0320 C   0  0  0  0  0  2  0  0  0  0  0  0
  -19.1860  -28.8770   23.2310 C   0  0  0  0  0  0  0  0  0  0  0  0
  -18.9810  -30.1130   23.8810 C   0  0  0  0  0  3  0  0  0  0  0  0
  -17.6820  -30.6190   24.0740 C   0  0  0  0  0  3  0  0  0  0  0  0
  -16.5690  -29.8840   23.6290 C   0  0  0  0  0  3  0  0  0  0  0  0
  -16.7580  -28.6490   22.9830 C   0  0  0  0  0  3  0  0  0  0  0  0
  -25.9200  -32.4910   23.9010 C   0  0  0  0  0  3  0  0  0  0  0  0
  -25.6130  -33.8830   24.2640 N   0  0  0  0  0  0  0  0  0  0  0  0
  -25.9540  -34.9550   23.5360 C   0  0  0  0  0  0  0  0  0  0  0  0
  -26.6290  -34.8760   22.5060 O   0  0  0  0  0  0  0  0  0  0  0  0
  -25.0170  -34.0180   25.0680 H   0  0  0  0  0  0  0  0  0  0  0  0
  -24.2420  -36.7710   23.2160 C   0  0  0  0  0  1  0  0  0  0  0  0
  -25.4720  -36.3350   24.0270 C   0  0  0  0  0  3  0  0  0  0  0  0
  -27.6000  -37.1870   24.9090 C   0  0  0  0  0  1  0  0  0  0  0  0
  -26.5130  -37.3840   23.9540 N   0  0  0  0  0  0  0  0  0  0  0  0
  -26.1100  -38.3020   24.1160 H   0  0  0  0  0  0  0  0  0  0  0  0
  -26.4100  -31.6860   25.1680 C   0  0  1  0  0  0  0  0  0  0  0  0
  -25.2980  -31.4310   26.2120 C   0  0  0  0  0  1  0  0  0  0  0  0
  -26.9910  -30.3130   24.7560 C   0  0  0  0  0  1  0  0  0  0  0  0
  -27.5530  -32.4570   25.8690 C   0  0  0  0  0  1  0  0  0  0  0  0
  1  4  2  0
  1  2  1  0
  2  7  2  0
  3  6  1  0
  3  1  1  0
  5  2  1  0
  6  5  1  0
  8  3  2  0
  9 11  2  0
  9 10  1  0
 10 12  2  0
 11 13  1  0
 12 14  1  0
 12  6  1  0
 13 24  1  0
 13 14  2  0
 14 15  1  0
 16 24  1  0
 17 22  1  0
 18 19  1  0
 18 17  1  0
 20 19  1  0
 20 29  1  0
 20 21  1  0
 22 16  1  0
 22 21  1  0
 23 16  2  0
 24 25  1  0
 26 27  2  0
 27 46  1  0
 28 27  1  0
 28 31  1  0
 29 30  1  0
 29 26  1  0
 30 28  2  0
 31 32  1  0
 32 33  2  0
 34 37  1  0
 34 33  1  0
 35 34  2  0
 36 35  1  0
 36 31  2  0
 37 38  1  0
 38 43  2  0
 38 39  1  0
 39 40  2  0
 40 41  1  0
 41 45  1  0
 42 41  2  0
 43 42  1  0
 44 43  1  0
 46 47  1  0
 47 50  1  0
 47 49  1  0
 48 46  2  0
 51 26  1  0
 51 52  1  0
 53 51  1  0
 54  4  1  0
 55 66  2  0
 56 54  1  0
 56 61  1  0
 57 65  1  0
 57 67  1  0
 58 64  1  0
 58 60  1  0
 59 65  1  0
 60 59  1  0
 61 60  2  0
 62 63  1  0
 62 56  2  0
 63 58  2  0
 64 57  1  0
 65 55  1  0
 67 69  2  0
 68 67  1  0
 70 68  1  0
 71 80  2  0
 71 76  1  0
 72 68  1  0
 72 76  1  0
 73 72  1  0
 74 75  1  0
 74 73  1  0
 75 71  1  0
 76 77  2  0
 77 78  1  0
 79 78  2  0
 80 79  1  0
 81 55  1  0
 81 82  1  0
 81 91  1  0
 82 85  1  0
 83 87  1  0
 83 82  1  0
 84 83  2  0
 87 86  1  0
 89 87  1  0
 89 90  1  0
 89 88  1  0
 91 94  1  1
 91 92  1  0
 93 91  1  0
M  ISO  4   4 101  16 100  24 100  54 101
M  END
>  <TORSDO>  (58) 
F 17

>  <SCORE>  (58) 
-14.654

>  <name>  (58) 
57

>  <ligand_id>  (58) 
57

>  <original_smiles>  (58) 
[H]C(Oc1c([H])c([H])c2c(c1[H])C([H])([H])N(C(=O)C([H])(N([H])C(=O)C([H])(N([H])C([H])([H])[H])C([H])([H])[H])C(C([H])([H])[H])(C([H])([H])[H])C([H])([H])[H])C([H])(C(=O)N([H])C1([H])c3c([H])c([H])c([H])c([H])c3C([H])([H])C([H])([H])C1([H])[H])C2([H])[H])=C1C(=O)N(c2c([H])c([H])c([H])c(N([H])C(=O)N3C([H])([H])C([H])([H])C([H])([H])C([H])(n4nc(-c5c([H])c([H])c(Oc6c([H])c([H])c(F)c([H])c6F)c([H])c5[H])c(C(=O)N([H])[H])c4N([H])[H])C3([H])[H])c2F)C([H])([H])C1=O

>  <smiles>  (58) 
[H]C(Oc1c([H])c([H])c2c(c1[H])C([H])([H])N(C(=O)C([H])(N([H])C(=O)C([H])(N([H])C([H])([H])[H])C([H])([H])[H])C(C([H])([H])[H])(C([H])([H])[H])C([H])([H])[H])C([H])(C(=O)N([H])C1([H])c3c([H])c([H])c([H])c([H])c3C([H])([H])C([H])([H])C1([H])[H])C2([H])[H])=C1C(=O)N(c2c([H])c([H])c([H])c(N([H])C(=O)N3C([H])([H])C([H])([H])C([H])([H])C([H])(n4nc(-c5c([H])c([H])c(Oc6c([H])c([H])c(F)c([H])c6F)c([H])c5[H])c(C(=O)N([H])[H])c4N([H])[H])C3([H])[H])c2F)C([H])([H])C1=O

$$$$
58:0:0
     RDKit          3D

 97106  0  0  1  0  0  0  0  0999 V2000
  -30.3670  -23.8700   20.6730 C   0  0  0  0  0  3  0  0  0  0  0  0
  -29.1030  -23.8250   20.2470 C   0  0  0  0  0  0  0  0  0  0  0  0
  -30.8440  -22.5130   20.9050 C   0  0  0  0  0  0  0  0  0  0  0  0
  -28.7500  -22.3950   20.2070 C   0  0  0  0  0  0  0  0  0  0  0  0
  -29.8360  -21.6710   20.5920 N   0  0  0  0  0  0  0  0  0  0  0  0
  -31.9610  -22.1840   21.3210 O   0  0  0  0  0  0  0  0  0  0  0  0
  -27.6590  -21.9090   19.8880 O   0  0  0  0  0  0  0  0  0  0  0  0
  -29.8880  -19.3710   21.6850 C   0  0  0  0  0  3  0  0  0  0  0  0
  -30.0040  -17.9400   21.6160 C   0  0  0  0  0  3  0  0  0  0  0  0
  -30.3930  -18.1280   19.2590 C   0  0  0  0  0  3  0  0  0  0  0  0
  -29.9690  -20.2070   20.5340 C   0  0  0  0  0  0  0  0  0  0  0  0
  -30.2360  -17.2560   20.3890 C   0  0  0  0  0  0  0  0  0  0  0  0
  -30.2330  -19.5410   19.3110 C   0  0  0  0  0  0  0  0  0  0  0  0
  -30.8210  -14.7750   20.9790 C   0  0  0  0  0  0  0  0  0  0  0  0
  -30.7410  -12.3830   20.2900 C   0  0  0  0  0  2  0  0  0  0  0  0
  -29.9350  -12.1760   18.9820 C   0  0  0  0  0  2  0  0  0  0  0  0
  -28.4130  -12.1620   19.2310 C   0  0  0  0  0  2  0  0  0  0  0  0
  -27.9040  -13.1690   20.3060 C   0  0  0  0  0  3  0  0  0  0  0  0
  -28.8480  -13.2510   21.5270 C   0  0  0  0  0  2  0  0  0  0  0  0
  -30.1920  -13.5460   21.0110 N   0  0  0  0  0  0  0  0  0  0  0  0
  -32.0420  -14.8470   21.1230 O   0  0  0  0  0  0  0  0  0  0  0  0
  -30.2020  -15.7720   20.2150 N   0  0  0  0  0  0  0  0  0  0  0  0
  -25.4610  -13.8050   20.7810 C   0  0  0  0  0  0  0  0  0  0  0  0
  -24.3540  -13.0410   21.0330 C   0  0  0  0  0  0  0  0  0  0  0  0
  -24.8070  -11.6870   21.0640 C   0  0  0  0  0  0  0  0  0  0  0  0
  -26.5160  -12.9110   20.6710 N   0  0  0  0  0  0  0  0  0  0  0  0
  -26.1230  -11.6360   20.9100 N   0  0  0  0  0  0  0  0  0  0  0  0
  -24.0550  -10.4310   21.1780 C   0  0  0  0  0  0  0  0  0  0  0  0
  -24.4210   -9.4420   22.1170 C   0  0  0  0  0  3  0  0  0  0  0  0
  -23.6740   -8.2490   22.2260 C   0  0  0  0  0  3  0  0  0  0  0  0
  -22.5470   -8.0380   21.3950 C   0  0  0  0  0  0  0  0  0  0  0  0
  -22.2040   -9.0170   20.4440 C   0  0  0  0  0  3  0  0  0  0  0  0
  -22.9520  -10.2020   20.3320 C   0  0  0  0  0  3  0  0  0  0  0  0
  -21.7780   -6.9000   21.4120 O   0  0  0  0  0  0  0  0  0  0  0  0
  -21.7000   -6.1020   22.5250 C   0  0  0  0  0  0  0  0  0  0  0  0
  -21.2680   -6.6040   23.7730 C   0  0  0  0  0  3  0  0  0  0  0  0
  -21.1300   -5.7350   24.8710 C   0  0  0  0  0  3  0  0  0  0  0  0
  -21.4170   -4.3650   24.7270 C   0  0  0  0  0  0  0  0  0  0  0  0
  -21.8410   -3.8600   23.4840 C   0  0  0  0  0  3  0  0  0  0  0  0
  -21.9790   -4.7270   22.3860 C   0  0  0  0  0  0  0  0  0  0  0  0
  -22.3680   -4.2350   21.1840 F   0  0  0  0  0  0  0  0  0  0  0  0
  -21.2750   -3.5240   25.7790 F   0  0  0  0  0  0  0  0  0  0  0  0
  -22.9380  -13.5260   21.1360 C   0  0  0  0  0  0  0  0  0  0  0  0
  -22.1160  -12.8480   21.9290 N   0  0  0  0  0  0  0  0  0  0  0  0
  -22.5610  -14.5400   20.5480 O   0  0  0  0  0  0  0  0  0  0  0  0
  -22.4230  -12.0280   22.4320 H   0  0  0  0  0  0  0  0  0  0  0  0
  -21.1590  -13.1550   22.0360 H   0  0  0  0  0  0  0  0  0  0  0  0
  -25.6480  -15.1750   20.6080 N   0  0  0  0  0  0  0  0  0  0  0  0
  -24.8740  -15.8260   20.6160 H   0  0  0  0  0  0  0  0  0  0  0  0
  -26.5320  -15.6220   20.4060 H   0  0  0  0  0  0  0  0  0  0  0  0
  -28.9060  -15.7500   18.1310 C   0  0  0  0  0  2  0  0  0  0  0  0
  -29.9720  -15.3940   18.8760 C   0  0  0  0  0  3  0  0  0  0  0  0
  -30.3170  -20.2720   18.1240 N   0  0  0  0  0  0  0  0  0  0  0  0
  -30.2950  -19.7340   17.2630 H   0  0  0  0  0  0  0  0  0  0  0  0
  -29.6800  -21.0570   18.0550 H   0  0  0  0  0  0  0  0  0  0  0  0
  -28.1380  -24.9620   19.7670 C   0  0  0  0  0  2  0  0  0  0  0  0
  -28.3590  -26.3970   20.0810 O   0  0  0  0  0  0  0  0  0  0  0  0
  -24.5240  -31.7570   23.0710 C   0  0  0  0  0  0  0  0  0  0  0  0
  -27.2300  -27.2420   20.0130 C   0  0  0  0  0  0  0  0  0  0  0  0
  -23.3480  -30.3310   21.4380 C   0  0  0  0  0  3  0  0  0  0  0  0
  -24.8270  -28.8130   20.0110 C   0  0  0  0  0  0  0  0  0  0  0  0
  -25.8830  -30.6910   21.2560 C   0  0  0  0  0  2  0  0  0  0  0  0
  -25.9890  -29.3150   20.6130 C   0  0  0  0  0  0  0  0  0  0  0  0
  -27.1870  -28.5400   20.6120 C   0  0  0  0  0  3  0  0  0  0  0  0
  -26.0430  -26.8150   19.3610 C   0  0  0  0  0  3  0  0  0  0  0  0
  -24.8560  -27.5660   19.3810 C   0  0  0  0  0  3  0  0  0  0  0  0
  -23.5750  -29.6640   20.0580 C   0  0  0  0  0  2  0  0  0  0  0  0
  -24.6040  -30.9450   21.9770 N   0  0  0  0  0  0  0  0  0  0  0  0
  -23.4350  -32.0150   23.6030 O   0  0  0  0  0  0  0  0  0  0  0  0
  -22.7060  -29.3010   22.3980 C   0  0  0  0  0  0  0  0  0  0  0  0
  -21.3810  -29.1060   22.2730 N   0  0  0  0  0  0  0  0  0  0  0  0
  -23.3960  -28.6870   23.2120 O   0  0  0  0  0  0  0  0  0  0  0  0
  -20.8830  -29.6590   21.5900 H   0  0  0  0  0  0  0  0  0  0  0  0
  -18.0270  -27.8440   22.7650 C   0  0  0  0  0  0  0  0  0  0  0  0
  -20.5780  -28.1550   23.0420 C   0  0  0  0  0  3  0  0  0  0  0  0
  -20.7070  -26.7220   22.4730 C   0  0  0  0  0  2  0  0  0  0  0  0
  -19.6160  -26.3730   21.4600 C   0  0  0  0  0  2  0  0  0  0  0  0
  -18.2310  -26.4940   22.0980 C   0  0  0  0  0  2  0  0  0  0  0  0
  -19.1290  -28.6310   23.1930 C   0  0  0  0  0  0  0  0  0  0  0  0
  -18.8850  -29.8930   23.7760 C   0  0  0  0  0  3  0  0  0  0  0  0
  -17.5690  -30.3670   23.9380 C   0  0  0  0  0  3  0  0  0  0  0  0
  -16.4810  -29.5790   23.5240 C   0  0  0  0  0  3  0  0  0  0  0  0
  -16.7100  -28.3200   22.9410 C   0  0  0  0  0  3  0  0  0  0  0  0
  -25.7920  -32.4130   23.6930 C   0  0  0  0  0  3  0  0  0  0  0  0
  -26.3490  -31.6300   24.9430 C   0  0  1  0  0  0  0  0  0  0  0  0
  -25.2810  -31.3330   26.0220 C   0  0  0  0  0  1  0  0  0  0  0  0
  -26.9650  -30.2800   24.5100 C   0  0  0  0  0  1  0  0  0  0  0  0
  -27.4870  -32.4440   25.6030 C   0  0  0  0  0  1  0  0  0  0  0  0
  -25.4420  -33.7930   24.0600 N   0  0  0  0  0  0  0  0  0  0  0  0
  -25.7650  -34.8780   23.3460 C   0  0  0  0  0  0  0  0  0  0  0  0
  -26.4610  -34.8280   22.3270 O   0  0  0  0  0  0  0  0  0  0  0  0
  -24.8310  -33.9060   24.8560 H   0  0  0  0  0  0  0  0  0  0  0  0
  -24.0090  -36.6470   23.0060 C   0  0  0  0  0  1  0  0  0  0  0  0
  -25.2350  -36.2400   23.8390 C   0  0  0  0  0  3  0  0  0  0  0  0
  -27.3290  -37.1370   24.7590 C   0  0  0  0  0  1  0  0  0  0  0  0
  -26.2500  -37.3180   23.7920 N   0  0  0  0  0  0  0  0  0  0  0  0
  -25.8210  -38.2260   23.9630 H   0  0  0  0  0  0  0  0  0  0  0  0
  1  3  1  0
  2  1  2  0
  3  6  2  0
  4  2  1  0
  4  5  1  0
  5  3  1  0
  7  4  2  0
  9  8  1  0
 10 13  2  0
 10 12  1  0
 11  5  1  0
 11  8  2  0
 12  9  2  0
 13 11  1  0
 14 20  1  0
 14 21  2  0
 15 20  1  0
 16 17  1  0
 16 15  1  0
 18 17  1  0
 18 26  1  0
 18 19  1  0
 20 19  1  0
 22 12  1  0
 22 14  1  0
 23 24  2  0
 24 25  1  0
 24 43  1  0
 25 28  1  0
 26 23  1  0
 26 27  1  0
 27 25  2  0
 28 29  1  0
 29 30  2  0
 31 34  1  0
 31 30  1  0
 32 31  2  0
 33 32  1  0
 33 28  2  0
 34 35  1  0
 35 36  1  0
 36 37  2  0
 38 37  1  0
 38 42  1  0
 39 38  2  0
 40 35  2  0
 40 39  1  0
 41 40  1  0
 43 44  1  0
 44 47  1  0
 44 46  1  0
 45 43  2  0
 48 49  1  0
 48 23  1  0
 50 48  1  0
 51 52  2  0
 52 22  1  0
 53 13  1  0
 54 53  1  0
 55 53  1  0
 56 57  1  0
 56  2  1  0
 58 69  2  0
 59 57  1  0
 59 64  1  0
 60 68  1  0
 60 70  1  0
 61 67  1  0
 61 63  1  0
 62 68  1  0
 63 62  1  0
 64 63  2  0
 65 66  1  0
 65 59  2  0
 66 61  2  0
 67 60  1  0
 68 58  1  0
 70 72  2  0
 71 70  1  0
 73 71  1  0
 74 83  2  0
 74 79  1  0
 75 71  1  0
 75 79  1  0
 76 75  1  0
 77 78  1  0
 77 76  1  0
 78 74  1  0
 79 80  2  0
 80 81  1  0
 82 81  2  0
 83 82  1  0
 84 58  1  0
 84 89  1  0
 84 85  1  0
 85 88  1  1
 85 86  1  0
 87 85  1  0
 89 92  1  0
 90 94  1  0
 90 89  1  0
 91 90  2  0
 94 93  1  0
 96 94  1  0
 96 97  1  0
 96 95  1  0
M  ISO  4  14 100  22 100  56 101  57 101
M  END
>  <TORSDO>  (59) 
F 20

>  <SCORE>  (59) 
-11.939

>  <name>  (59) 
58

>  <ligand_id>  (59) 
58

>  <original_smiles>  (59) 
[H]C([H])=C([H])N(C(=O)N1C([H])([H])C([H])([H])C([H])([H])C([H])(n2nc(-c3c([H])c([H])c(Oc4c([H])c([H])c(F)c([H])c4F)c([H])c3[H])c(C(=O)N([H])[H])c2N([H])[H])C1([H])[H])c1c([H])c([H])c(N2C(=O)C([H])=C(C([H])([H])Oc3c([H])c([H])c4c(c3[H])C([H])([H])N(C(=O)C([H])(N([H])C(=O)C([H])(N([H])C([H])([H])[H])C([H])([H])[H])C(C([H])([H])[H])(C([H])([H])[H])C([H])([H])[H])C([H])(C(=O)N([H])C3([H])c5c([H])c([H])c([H])c([H])c5C([H])([H])C([H])([H])C3([H])[H])C4([H])[H])C2=O)c(N([H])[H])c1[H]

>  <smiles>  (59) 
[H]C([H])=C([H])N(C(=O)N1C([H])([H])C([H])([H])C([H])([H])C([H])(n2nc(-c3c([H])c([H])c(Oc4c([H])c([H])c(F)c([H])c4F)c([H])c3[H])c(C(=O)N([H])[H])c2N([H])[H])C1([H])[H])c1c([H])c([H])c(N2C(=O)C([H])=C(C([H])([H])Oc3c([H])c([H])c4c(c3[H])C([H])([H])N(C(=O)C([H])(N([H])C(=O)C([H])(N([H])C([H])([H])[H])C([H])([H])[H])C(C([H])([H])[H])(C([H])([H])[H])C([H])([H])[H])C([H])(C(=O)N([H])C3([H])c5c([H])c([H])c([H])c([H])c5C([H])([H])C([H])([H])C3([H])[H])C4([H])[H])C2=O)c(N([H])[H])c1[H]

$$$$
59:0:0
     RDKit          3D

 96105  0  0  1  0  0  0  0  0999 V2000
  -30.6460  -19.6310   22.5100 C   0  0  0  0  0  3  0  0  0  0  0  0
  -30.1360  -20.9400   22.6130 C   0  0  0  0  0  3  0  0  0  0  0  0
  -29.7210  -20.9650   20.2510 C   0  0  0  0  0  3  0  0  0  0  0  0
  -30.7180  -18.9750   21.2630 C   0  0  0  0  0  0  0  0  0  0  0  0
  -30.2130  -19.6390   20.1130 C   0  0  0  0  0  0  0  0  0  0  0  0
  -29.6830  -21.6580   21.4830 C   0  0  0  0  0  0  0  0  0  0  0  0
  -29.1140  -24.9720   21.4080 C   0  0  0  0  0  0  0  0  0  0  0  0
  -29.3520  -24.0560   22.4890 C   0  0  0  0  0  0  0  0  0  0  0  0
  -28.9910  -26.3100   21.3880 C   0  0  0  0  0  3  0  0  0  0  0  0
  -29.0890  -23.8550   20.3950 C   0  0  0  0  0  2  0  0  0  0  0  0
  -29.2180  -23.0020   21.5850 N   0  0  0  0  0  0  0  0  0  0  0  0
  -29.6710  -24.2220   23.6480 O   0  0  0  0  0  0  0  0  0  0  0  0
  -28.7650  -27.0150   20.2380 O   0  0  0  0  0  0  0  0  0  0  0  0
  -24.6800  -31.9670   23.2960 C   0  0  0  0  0  0  0  0  0  0  0  0
  -27.5910  -27.7170   20.2220 C   0  0  0  0  0  0  0  0  0  0  0  0
  -23.5740  -30.5310   21.6100 C   0  0  0  0  0  3  0  0  0  0  0  0
  -25.1280  -29.0850   20.1970 C   0  0  0  0  0  0  0  0  0  0  0  0
  -26.0800  -31.0190   21.4690 C   0  0  0  0  0  2  0  0  0  0  0  0
  -26.2430  -29.6630   20.8180 C   0  0  0  0  0  0  0  0  0  0  0  0
  -27.4810  -28.9840   20.8320 C   0  0  0  0  0  3  0  0  0  0  0  0
  -26.4660  -27.1460   19.5950 C   0  0  0  0  0  3  0  0  0  0  0  0
  -25.2320  -27.8240   19.5840 C   0  0  0  0  0  3  0  0  0  0  0  0
  -23.8420  -29.8770   20.2270 C   0  0  0  0  0  2  0  0  0  0  0  0
  -24.7930  -31.1880   22.1840 N   0  0  0  0  0  0  0  0  0  0  0  0
  -23.5770  -32.1800   23.8180 O   0  0  0  0  0  0  0  0  0  0  0  0
  -22.9520  -29.4680   22.5440 C   0  0  0  0  0  0  0  0  0  0  0  0
  -21.6460  -29.2120   22.3680 N   0  0  0  0  0  0  0  0  0  0  0  0
  -23.6440  -28.8780   23.3780 O   0  0  0  0  0  0  0  0  0  0  0  0
  -21.1490  -29.7430   21.6680 H   0  0  0  0  0  0  0  0  0  0  0  0
  -18.3350  -27.8130   22.7210 C   0  0  0  0  0  0  0  0  0  0  0  0
  -20.8580  -28.2260   23.1050 C   0  0  0  0  0  3  0  0  0  0  0  0
  -21.0730  -26.8040   22.5360 C   0  0  0  0  0  2  0  0  0  0  0  0
  -20.0390  -26.4150   21.4750 C   0  0  0  0  0  2  0  0  0  0  0  0
  -18.6240  -26.4760   22.0570 C   0  0  0  0  0  2  0  0  0  0  0  0
  -19.3860  -28.6410   23.1990 C   0  0  0  0  0  0  0  0  0  0  0  0
  -19.0660  -29.8900   23.7750 C   0  0  0  0  0  3  0  0  0  0  0  0
  -17.7270  -30.3120   23.8790 C   0  0  0  0  0  3  0  0  0  0  0  0
  -16.6900  -29.4810   23.4200 C   0  0  0  0  0  3  0  0  0  0  0  0
  -16.9950  -28.2330   22.8480 C   0  0  0  0  0  3  0  0  0  0  0  0
  -25.9230  -32.6460   23.9520 C   0  0  0  0  0  3  0  0  0  0  0  0
  -26.4180  -31.9120   25.2580 C   0  0  1  0  0  0  0  0  0  0  0  0
  -25.2910  -31.6440   26.2820 C   0  0  0  0  0  1  0  0  0  0  0  0
  -27.0710  -30.5550   24.9060 C   0  0  0  0  0  1  0  0  0  0  0  0
  -27.5070  -32.7590   25.9550 C   0  0  0  0  0  1  0  0  0  0  0  0
  -25.5650  -34.0400   24.2420 N   0  0  0  0  0  0  0  0  0  0  0  0
  -25.8960  -35.0850   23.4710 C   0  0  0  0  0  0  0  0  0  0  0  0
  -26.6070  -34.9800   22.4680 O   0  0  0  0  0  0  0  0  0  0  0  0
  -24.9370  -34.1940   25.0160 H   0  0  0  0  0  0  0  0  0  0  0  0
  -24.1290  -36.8140   23.0160 C   0  0  0  0  0  1  0  0  0  0  0  0
  -25.3520  -36.4670   23.8800 C   0  0  0  0  0  3  0  0  0  0  0  0
  -27.4280  -37.4340   24.7660 C   0  0  0  0  0  1  0  0  0  0  0  0
  -26.3560  -37.5490   23.7800 N   0  0  0  0  0  0  0  0  0  0  0  0
  -25.9170  -38.4580   23.8930 H   0  0  0  0  0  0  0  0  0  0  0  0
  -29.2470  -19.1230   18.0680 C   0  0  0  0  0  3  0  0  0  0  0  0
  -29.2310  -18.5160   16.6910 C   0  0  0  0  0  1  0  0  0  0  0  0
  -30.2420  -19.0120   18.8560 N   0  0  0  0  0  0  0  0  0  0  0  0
  -31.3690  -17.6310   21.1920 C   0  0  0  0  0  0  0  0  0  0  0  0
  -32.4030  -17.4680   20.5390 O   0  0  0  0  0  0  0  0  0  0  0  0
  -30.7680  -16.5670   22.0300 C   0  0  0  0  0  3  0  0  0  0  0  0
  -30.5370  -15.2700   21.7030 C   0  0  0  0  0  3  0  0  0  0  0  0
  -30.8280  -14.6070   20.4300 C   0  0  0  0  0  0  0  0  0  0  0  0
  -30.3910  -12.5960   19.0540 C   0  0  0  0  0  2  0  0  0  0  0  0
  -29.3980  -12.8560   17.9070 C   0  0  0  0  0  2  0  0  0  0  0  0
  -27.9520  -12.6580   18.3900 C   0  0  0  0  0  2  0  0  0  0  0  0
  -27.6610  -13.4430   19.6940 C   0  0  0  0  0  3  0  0  0  0  0  0
  -28.7530  -13.1810   20.7550 C   0  0  0  0  0  2  0  0  0  0  0  0
  -30.0720  -13.5030   20.1710 N   0  0  0  0  0  0  0  0  0  0  0  0
  -31.7570  -14.9300   19.6890 O   0  0  0  0  0  0  0  0  0  0  0  0
  -25.2850  -14.0040   20.5190 C   0  0  0  0  0  0  0  0  0  0  0  0
  -24.2390  -13.2080   20.9030 C   0  0  0  0  0  0  0  0  0  0  0  0
  -24.7120  -11.8630   20.8090 C   0  0  0  0  0  0  0  0  0  0  0  0
  -26.3280  -13.1410   20.2150 N   0  0  0  0  0  0  0  0  0  0  0  0
  -25.9880  -11.8470   20.4460 N   0  0  0  0  0  0  0  0  0  0  0  0
  -24.0070  -10.5860   20.9870 C   0  0  0  0  0  0  0  0  0  0  0  0
  -24.4590   -9.6120   21.9050 C   0  0  0  0  0  3  0  0  0  0  0  0
  -23.7510   -8.4020   22.0680 C   0  0  0  0  0  3  0  0  0  0  0  0
  -22.5800   -8.1560   21.3140 C   0  0  0  0  0  0  0  0  0  0  0  0
  -22.1470   -9.1200   20.3860 C   0  0  0  0  0  3  0  0  0  0  0  0
  -22.8540  -10.3220   20.2210 C   0  0  0  0  0  3  0  0  0  0  0  0
  -21.8430   -6.9970   21.3880 O   0  0  0  0  0  0  0  0  0  0  0  0
  -21.7750   -6.2610   22.5430 C   0  0  0  0  0  0  0  0  0  0  0  0
  -21.3000   -6.8140   23.7520 C   0  0  0  0  0  3  0  0  0  0  0  0
  -21.1830   -6.0020   24.8990 C   0  0  0  0  0  3  0  0  0  0  0  0
  -21.5310   -4.6390   24.8360 C   0  0  0  0  0  0  0  0  0  0  0  0
  -22.0000   -4.0860   23.6320 C   0  0  0  0  0  3  0  0  0  0  0  0
  -22.1190   -4.8940   22.4870 C   0  0  0  0  0  0  0  0  0  0  0  0
  -22.5530   -4.3520   21.3240 F   0  0  0  0  0  0  0  0  0  0  0  0
  -21.4090   -3.8580   25.9350 F   0  0  0  0  0  0  0  0  0  0  0  0
  -22.8500  -13.6620   21.2480 C   0  0  0  0  0  0  0  0  0  0  0  0
  -22.1620  -12.9280   22.1150 N   0  0  0  0  0  0  0  0  0  0  0  0
  -22.3830  -14.7020   20.7830 O   0  0  0  0  0  0  0  0  0  0  0  0
  -22.5530  -12.0890   22.5160 H   0  0  0  0  0  0  0  0  0  0  0  0
  -21.2320  -13.2150   22.3850 H   0  0  0  0  0  0  0  0  0  0  0  0
  -25.4310  -15.3820   20.3840 N   0  0  0  0  0  0  0  0  0  0  0  0
  -24.6700  -16.0250   20.5680 H   0  0  0  0  0  0  0  0  0  0  0  0
  -26.2720  -15.8430   20.0630 H   0  0  0  0  0  0  0  0  0  0  0  0
  1  2  1  0
  3  6  1  0
  4  1  2  0
  5  3  2  0
  5  4  1  0
  6 11  1  0
  6  2  2  0
  7  8  1  0
  8 12  2  0
  9  7  2  0
 10  7  1  0
 10 11  1  0
 11  8  1  0
 13  9  1  0
 14 25  2  0
 15 13  1  0
 15 20  1  0
 16 24  1  0
 16 26  1  0
 17 23  1  0
 17 19  1  0
 18 24  1  0
 19 20  2  0
 19 18  1  0
 21 15  2  0
 22 21  1  0
 22 17  2  0
 23 16  1  0
 24 14  1  0
 26 28  2  0
 27 26  1  0
 29 27  1  0
 30 39  2  0
 30 35  1  0
 31 27  1  0
 31 35  1  0
 32 31  1  0
 33 34  1  0
 33 32  1  0
 34 30  1  0
 35 36  2  0
 36 37  1  0
 38 37  2  0
 39 38  1  0
 40 14  1  0
 40 45  1  0
 40 41  1  0
 41 44  1  1
 41 42  1  0
 43 41  1  0
 45 48  1  0
 46 50  1  0
 46 45  1  0
 47 46  2  0
 50 49  1  0
 52 50  1  0
 52 53  1  0
 52 51  1  0
 54 56  2  0
 55 54  1  0
 56  5  1  0
 57  4  1  0
 57 59  1  0
 58 57  2  0
 60 59  2  0
 61 60  1  0
 62 67  1  0
 63 64  1  0
 63 62  1  0
 65 64  1  0
 65 72  1  0
 65 66  1  0
 67 61  1  0
 67 66  1  0
 68 61  2  0
 69 70  2  0
 70 89  1  0
 71 70  1  0
 71 74  1  0
 72 73  1  0
 72 69  1  0
 73 71  2  0
 74 75  1  0
 75 76  2  0
 77 80  1  0
 77 76  1  0
 78 77  2  0
 79 78  1  0
 79 74  2  0
 80 81  1  0
 81 82  1  0
 82 83  2  0
 84 83  1  0
 84 88  1  0
 85 84  2  0
 86 81  2  0
 86 85  1  0
 87 86  1  0
 89 90  1  0
 90 93  1  0
 90 92  1  0
 91 89  2  0
 94 69  1  0
 94 95  1  0
 96 94  1  0
M  ISO  4   9 101  13 101  60 100  61 100
M  END
>  <TORSDO>  (60) 
F 20

>  <SCORE>  (60) 
-13.911

>  <name>  (60) 
59

>  <ligand_id>  (60) 
59

>  <original_smiles>  (60) 
[H]C(=Nc1c([H])c(N2C(=O)C(=C([H])Oc3c([H])c([H])c4c(c3[H])C([H])([H])N(C(=O)C([H])(N([H])C(=O)C([H])(N([H])C([H])([H])[H])C([H])([H])[H])C(C([H])([H])[H])(C([H])([H])[H])C([H])([H])[H])C([H])(C(=O)N([H])C3([H])c5c([H])c([H])c([H])c([H])c5C([H])([H])C([H])([H])C3([H])[H])C4([H])[H])C2([H])[H])c([H])c([H])c1C(=O)C([H])=C([H])C(=O)N1C([H])([H])C([H])([H])C([H])([H])C([H])(n2nc(-c3c([H])c([H])c(Oc4c([H])c([H])c(F)c([H])c4F)c([H])c3[H])c(C(=O)N([H])[H])c2N([H])[H])C1([H])[H])C([H])([H])[H]

>  <smiles>  (60) 
[H]C(=Nc1c([H])c(N2C(=O)C(=C([H])Oc3c([H])c([H])c4c(c3[H])C([H])([H])N(C(=O)C([H])(N([H])C(=O)C([H])(N([H])C([H])([H])[H])C([H])([H])[H])C(C([H])([H])[H])(C([H])([H])[H])C([H])([H])[H])C([H])(C(=O)N([H])C3([H])c5c([H])c([H])c([H])c([H])c5C([H])([H])C([H])([H])C3([H])[H])C4([H])[H])C2([H])[H])c([H])c([H])c1C(=O)C([H])=C([H])C(=O)N1C([H])([H])C([H])([H])C([H])([H])C([H])(n2nc(-c3c([H])c([H])c(Oc4c([H])c([H])c(F)c([H])c4F)c([H])c3[H])c(C(=O)N([H])[H])c2N([H])[H])C1([H])[H])C([H])([H])[H]

$$$$
60:0:0
     RDKit          3D

 92101  0  0  1  0  0  0  0  0999 V2000
  -28.5330  -23.7840   20.4570 C   0  0  0  0  0  0  0  0  0  0  0  0
  -28.0270  -22.5530   21.0520 C   0  0  0  0  0  0  0  0  0  0  0  0
  -28.0250  -25.0730   20.6320 C   0  0  0  0  0  3  0  0  0  0  0  0
  -29.6300  -22.9410   19.7370 C   0  0  0  0  0  2  0  0  0  0  0  0
  -29.0100  -21.7640   20.4190 N   0  0  0  0  0  0  0  0  0  0  0  0
  -27.0890  -22.3590   21.7980 O   0  0  0  0  0  0  0  0  0  0  0  0
  -30.4850  -19.6790   19.6990 C   0  0  0  0  0  3  0  0  0  0  0  0
  -30.7350  -18.2510   19.6760 C   0  0  0  0  0  3  0  0  0  0  0  0
  -28.5160  -19.3290   20.9340 C   0  0  0  0  0  3  0  0  0  0  0  0
  -29.3590  -20.3110   20.3300 C   0  0  0  0  0  0  0  0  0  0  0  0
  -29.8530  -17.3120   20.2900 C   0  0  0  0  0  0  0  0  0  0  0  0
  -28.7360  -17.9170   20.9170 C   0  0  0  0  0  0  0  0  0  0  0  0
  -27.8300  -17.1090   21.5210 F   0  0  0  0  0  0  0  0  0  0  0  0
  -30.7090  -14.8220   19.7990 C   0  0  0  0  0  0  0  0  0  0  0  0
  -30.4900  -12.5900   18.6820 C   0  0  0  0  0  2  0  0  0  0  0  0
  -29.4410  -12.7090   17.5510 C   0  0  0  0  0  2  0  0  0  0  0  0
  -28.0130  -12.5000   18.0940 C   0  0  0  0  0  2  0  0  0  0  0  0
  -27.7410  -13.3180   19.3850 C   0  0  0  0  0  3  0  0  0  0  0  0
  -28.8920  -13.1530   20.4030 C   0  0  0  0  0  2  0  0  0  0  0  0
  -30.1370  -13.5690   19.7350 N   0  0  0  0  0  0  0  0  0  0  0  0
  -31.8230  -15.0270   19.3060 O   0  0  0  0  0  0  0  0  0  0  0  0
  -29.9140  -15.8270   20.3180 N   0  0  0  0  0  0  0  0  0  0  0  0
  -29.1070  -15.4380   20.7840 H   0  0  0  0  0  0  0  0  0  0  0  0
  -25.4210  -13.8610   20.3420 C   0  0  0  0  0  0  0  0  0  0  0  0
  -24.3900  -13.0630   20.7560 C   0  0  0  0  0  0  0  0  0  0  0  0
  -24.8450  -11.7180   20.6050 C   0  0  0  0  0  0  0  0  0  0  0  0
  -26.4410  -13.0000   19.9670 N   0  0  0  0  0  0  0  0  0  0  0  0
  -26.1050  -11.7030   20.1840 N   0  0  0  0  0  0  0  0  0  0  0  0
  -24.1350  -10.4440   20.7810 C   0  0  0  0  0  0  0  0  0  0  0  0
  -24.6290   -9.4360   21.6360 C   0  0  0  0  0  3  0  0  0  0  0  0
  -23.9190   -8.2270   21.8030 C   0  0  0  0  0  3  0  0  0  0  0  0
  -22.7000   -8.0200   21.1160 C   0  0  0  0  0  0  0  0  0  0  0  0
  -22.2240   -9.0190   20.2470 C   0  0  0  0  0  3  0  0  0  0  0  0
  -22.9350  -10.2170   20.0780 C   0  0  0  0  0  3  0  0  0  0  0  0
  -21.9550   -6.8680   21.1960 O   0  0  0  0  0  0  0  0  0  0  0  0
  -21.9620   -6.0830   22.3210 C   0  0  0  0  0  0  0  0  0  0  0  0
  -21.6090   -6.5950   23.5890 C   0  0  0  0  0  3  0  0  0  0  0  0
  -21.5640   -5.7370   24.7070 C   0  0  0  0  0  3  0  0  0  0  0  0
  -21.8610   -4.3690   24.5580 C   0  0  0  0  0  0  0  0  0  0  0  0
  -22.2070   -3.8580   23.2950 C   0  0  0  0  0  3  0  0  0  0  0  0
  -22.2550   -4.7110   22.1790 C   0  0  0  0  0  0  0  0  0  0  0  0
  -22.5680   -4.2080   20.9610 F   0  0  0  0  0  0  0  0  0  0  0  0
  -21.8100   -3.5440   25.6290 F   0  0  0  0  0  0  0  0  0  0  0  0
  -23.0220  -13.5190   21.1780 C   0  0  0  0  0  0  0  0  0  0  0  0
  -22.3790  -12.7800   22.0740 N   0  0  0  0  0  0  0  0  0  0  0  0
  -22.5360  -14.5640   20.7470 O   0  0  0  0  0  0  0  0  0  0  0  0
  -22.7870  -11.9330   22.4420 H   0  0  0  0  0  0  0  0  0  0  0  0
  -21.4660  -13.0660   22.4000 H   0  0  0  0  0  0  0  0  0  0  0  0
  -25.5710  -15.2400   20.2320 N   0  0  0  0  0  0  0  0  0  0  0  0
  -24.8230  -15.8840   20.4630 H   0  0  0  0  0  0  0  0  0  0  0  0
  -26.4030  -15.7070   19.8970 H   0  0  0  0  0  0  0  0  0  0  0  0
  -28.3510  -26.3770   20.1520 O   0  0  0  0  0  0  0  0  0  0  0  0
  -24.6480  -31.8910   23.1380 C   0  0  0  0  0  0  0  0  0  0  0  0
  -27.2830  -27.3060   20.1010 C   0  0  0  0  0  0  0  0  0  0  0  0
  -23.4500  -30.4690   21.5160 C   0  0  0  0  0  3  0  0  0  0  0  0
  -24.9100  -28.9240   20.0870 C   0  0  0  0  0  0  0  0  0  0  0  0
  -25.9890  -30.8020   21.3190 C   0  0  0  0  0  2  0  0  0  0  0  0
  -26.0810  -29.4170   20.6780 C   0  0  0  0  0  0  0  0  0  0  0  0
  -27.2720  -28.6200   20.6780 C   0  0  0  0  0  3  0  0  0  0  0  0
  -26.0930  -26.8820   19.4710 C   0  0  0  0  0  3  0  0  0  0  0  0
  -24.9210  -27.6620   19.4710 C   0  0  0  0  0  3  0  0  0  0  0  0
  -23.6640  -29.7870   20.1400 C   0  0  0  0  0  2  0  0  0  0  0  0
  -24.7150  -31.0730   22.0470 N   0  0  0  0  0  0  0  0  0  0  0  0
  -23.5650  -32.1620   23.6770 O   0  0  0  0  0  0  0  0  0  0  0  0
  -22.8020  -29.4540   22.4890 C   0  0  0  0  0  0  0  0  0  0  0  0
  -21.4720  -29.2780   22.3860 N   0  0  0  0  0  0  0  0  0  0  0  0
  -23.4930  -28.8270   23.2950 O   0  0  0  0  0  0  0  0  0  0  0  0
  -20.9720  -29.8360   21.7080 H   0  0  0  0  0  0  0  0  0  0  0  0
  -18.1030  -28.0850   22.9540 C   0  0  0  0  0  0  0  0  0  0  0  0
  -20.6670  -28.3410   23.1710 C   0  0  0  0  0  3  0  0  0  0  0  0
  -20.7540  -26.9090   22.5920 C   0  0  0  0  0  2  0  0  0  0  0  0
  -19.6310  -26.5910   21.6000 C   0  0  0  0  0  2  0  0  0  0  0  0
  -18.2630  -26.7370   22.2720 C   0  0  0  0  0  2  0  0  0  0  0  0
  -19.2320  -28.8450   23.3620 C   0  0  0  0  0  0  0  0  0  0  0  0
  -19.0260  -30.1070   23.9620 C   0  0  0  0  0  3  0  0  0  0  0  0
  -17.7260  -30.6100   24.1560 C   0  0  0  0  0  3  0  0  0  0  0  0
  -16.6120  -29.8470   23.7630 C   0  0  0  0  0  3  0  0  0  0  0  0
  -16.8020  -28.5870   23.1670 C   0  0  0  0  0  3  0  0  0  0  0  0
  -25.9270  -32.5430   23.7480 C   0  0  0  0  0  3  0  0  0  0  0  0
  -25.6030  -33.9380   24.0780 N   0  0  0  0  0  0  0  0  0  0  0  0
  -25.9140  -34.9940   23.3150 C   0  0  0  0  0  0  0  0  0  0  0  0
  -26.5760  -34.8980   22.2780 O   0  0  0  0  0  0  0  0  0  0  0  0
  -25.0120  -34.0850   24.8840 H   0  0  0  0  0  0  0  0  0  0  0  0
  -24.1600  -36.7660   22.9800 C   0  0  0  0  0  1  0  0  0  0  0  0
  -25.4160  -36.3770   23.7760 C   0  0  0  0  0  3  0  0  0  0  0  0
  -27.5510  -37.2890   24.5790 C   0  0  0  0  0  1  0  0  0  0  0  0
  -26.4340  -37.4430   23.6500 N   0  0  0  0  0  0  0  0  0  0  0  0
  -26.0190  -38.3590   23.8010 H   0  0  0  0  0  0  0  0  0  0  0  0
  -26.4640  -31.7810   25.0230 C   0  0  1  0  0  0  0  0  0  0  0  0
  -25.3820  -31.5370   26.1020 C   0  0  0  0  0  1  0  0  0  0  0  0
  -27.0590  -30.4090   24.6340 C   0  0  0  0  0  1  0  0  0  0  0  0
  -27.6100  -32.5930   25.6730 C   0  0  0  0  0  1  0  0  0  0  0  0
  1  3  2  0
  1  2  1  0
  2  6  2  0
  4  5  1  0
  4  1  1  0
  5  2  1  0
  7 10  1  0
  8  7  2  0
  8 11  1  0
 10  5  1  0
 10  9  2  0
 11 22  1  0
 11 12  2  0
 12  9  1  0
 12 13  1  0
 14 22  1  0
 15 20  1  0
 16 17  1  0
 16 15  1  0
 18 17  1  0
 18 27  1  0
 18 19  1  0
 20 14  1  0
 20 19  1  0
 21 14  2  0
 22 23  1  0
 24 25  2  0
 25 44  1  0
 26 25  1  0
 26 29  1  0
 27 28  1  0
 27 24  1  0
 28 26  2  0
 29 30  1  0
 30 31  2  0
 32 35  1  0
 32 31  1  0
 33 32  2  0
 34 33  1  0
 34 29  2  0
 35 36  1  0
 36 37  1  0
 37 38  2  0
 39 38  1  0
 39 43  1  0
 40 39  2  0
 41 36  2  0
 41 40  1  0
 42 41  1  0
 44 45  1  0
 45 48  1  0
 45 47  1  0
 46 44  2  0
 49 24  1  0
 49 50  1  0
 51 49  1  0
 52  3  1  0
 53 64  2  0
 54 52  1  0
 54 59  1  0
 55 63  1  0
 55 65  1  0
 56 62  1  0
 56 58  1  0
 57 63  1  0
 58 57  1  0
 59 58  2  0
 60 54  2  0
 61 60  1  0
 61 56  2  0
 62 55  1  0
 63 53  1  0
 65 67  2  0
 66 65  1  0
 68 66  1  0
 69 78  2  0
 69 74  1  0
 70 66  1  0
 70 74  1  0
 71 70  1  0
 72 73  1  0
 72 71  1  0
 73 69  1  0
 74 75  2  0
 75 76  1  0
 77 76  2  0
 78 77  1  0
 79 53  1  0
 79 80  1  0
 79 89  1  0
 80 83  1  0
 81 85  1  0
 81 80  1  0
 82 81  2  0
 85 84  1  0
 87 85  1  0
 87 88  1  0
 87 86  1  0
 89 92  1  1
 89 90  1  0
 91 89  1  0
M  ISO  4   3 101  14 100  22 100  52 101
M  END
>  <TORSDO>  (61) 
F 17

>  <SCORE>  (61) 
-12.991

>  <name>  (61) 
60

>  <ligand_id>  (61) 
60

>  <original_smiles>  (61) 
[H]C(Oc1c([H])c([H])c2c(c1[H])C([H])([H])N(C(=O)C([H])(N([H])C(=O)C([H])(N([H])C([H])([H])[H])C([H])([H])[H])C(C([H])([H])[H])(C([H])([H])[H])C([H])([H])[H])C([H])(C(=O)N([H])C1([H])c3c([H])c([H])c([H])c([H])c3C([H])([H])C([H])([H])C1([H])[H])C2([H])[H])=C1C(=O)N(c2c([H])c([H])c(N([H])C(=O)N3C([H])([H])C([H])([H])C([H])([H])C([H])(n4nc(-c5c([H])c([H])c(Oc6c([H])c([H])c(F)c([H])c6F)c([H])c5[H])c(C(=O)N([H])[H])c4N([H])[H])C3([H])[H])c(F)c2[H])C1([H])[H]

>  <smiles>  (61) 
[H]C(Oc1c([H])c([H])c2c(c1[H])C([H])([H])N(C(=O)C([H])(N([H])C(=O)C([H])(N([H])C([H])([H])[H])C([H])([H])[H])C(C([H])([H])[H])(C([H])([H])[H])C([H])([H])[H])C([H])(C(=O)N([H])C1([H])c3c([H])c([H])c([H])c([H])c3C([H])([H])C([H])([H])C1([H])[H])C2([H])[H])=C1C(=O)N(c2c([H])c([H])c(N([H])C(=O)N3C([H])([H])C([H])([H])C([H])([H])C([H])(n4nc(-c5c([H])c([H])c(Oc6c([H])c([H])c(F)c([H])c6F)c([H])c5[H])c(C(=O)N([H])[H])c4N([H])[H])C3([H])[H])c(F)c2[H])C1([H])[H]

$$$$
61:0:0
     RDKit          3D

 98107  0  0  1  0  0  0  0  0999 V2000
  -28.6690  -24.1380   21.6160 C   0  0  0  0  0  3  0  0  0  0  0  0
  -29.2250  -21.8320   22.1160 C   0  0  0  0  0  2  0  0  0  0  0  0
  -29.2340  -24.0940   20.4060 C   0  0  0  0  0  0  0  0  0  0  0  0
  -28.6140  -22.9890   22.4650 C   0  0  0  0  0  3  0  0  0  0  0  0
  -29.9660  -22.7980   20.0120 C   0  0  0  0  0  0  0  0  0  0  0  0
  -29.9010  -21.6660   20.8830 N   0  0  0  0  0  0  0  0  0  0  0  0
  -30.6500  -22.7030   18.9740 O   0  0  0  0  0  0  0  0  0  0  0  0
  -28.7540  -20.1820   19.4650 C   0  0  0  0  0  3  0  0  0  0  0  0
  -28.4110  -18.9680   18.8470 C   0  0  0  0  0  3  0  0  0  0  0  0
  -30.4630  -18.9820   20.7660 C   0  0  0  0  0  3  0  0  0  0  0  0
  -29.8250  -20.2660   20.3800 C   0  0  0  0  0  0  0  0  0  0  0  0
  -29.1280  -17.7700   19.0930 C   0  0  0  0  0  0  0  0  0  0  0  0
  -30.1280  -17.6830   20.1060 C   0  0  0  0  0  0  0  0  0  0  0  0
  -30.9340  -15.0780   19.9390 C   0  0  0  0  0  0  0  0  0  0  0  0
  -30.7030  -12.7380   18.9120 C   0  0  0  0  0  2  0  0  0  0  0  0
  -29.6620  -12.7300   17.7390 C   0  0  0  0  0  2  0  0  0  0  0  0
  -28.2140  -12.5640   18.2530 C   0  0  0  0  0  2  0  0  0  0  0  0
  -27.9340  -13.4510   19.4870 C   0  0  0  0  0  3  0  0  0  0  0  0
  -29.0680  -13.2670   20.5200 C   0  0  0  0  0  2  0  0  0  0  0  0
  -30.3250  -13.8020   19.9170 N   0  0  0  0  0  0  0  0  0  0  0  0
  -32.0100  -15.2000   19.3240 O   0  0  0  0  0  0  0  0  0  0  0  0
  -29.5300  -15.9900   21.7470 C   0  0  0  0  0  1  0  0  0  0  0  0
  -30.3670  -16.2370   20.5770 N   0  0  0  0  0  0  0  0  0  0  0  0
  -25.6170  -14.1000   20.3970 C   0  0  0  0  0  0  0  0  0  0  0  0
  -24.5420  -13.3700   20.8140 C   0  0  0  0  0  0  0  0  0  0  0  0
  -24.9430  -12.0050   20.6960 C   0  0  0  0  0  0  0  0  0  0  0  0
  -26.6070  -13.1890   20.0540 N   0  0  0  0  0  0  0  0  0  0  0  0
  -26.2090  -11.9250   20.2910 N   0  0  0  0  0  0  0  0  0  0  0  0
  -24.1810  -10.7670   20.8830 C   0  0  0  0  0  0  0  0  0  0  0  0
  -24.5960   -9.7860   21.8080 C   0  0  0  0  0  3  0  0  0  0  0  0
  -23.8340   -8.6120   21.9840 C   0  0  0  0  0  3  0  0  0  0  0  0
  -22.6490   -8.4180   21.2370 C   0  0  0  0  0  0  0  0  0  0  0  0
  -22.2550   -9.3930   20.3040 C   0  0  0  0  0  3  0  0  0  0  0  0
  -23.0160  -10.5590   20.1250 C   0  0  0  0  0  3  0  0  0  0  0  0
  -21.8620   -7.3010   21.3240 O   0  0  0  0  0  0  0  0  0  0  0  0
  -21.7300   -6.6010   22.4960 C   0  0  0  0  0  0  0  0  0  0  0  0
  -21.2610   -7.2110   23.6810 C   0  0  0  0  0  3  0  0  0  0  0  0
  -21.0770   -6.4390   24.8440 C   0  0  0  0  0  3  0  0  0  0  0  0
  -21.3530   -5.0590   24.8260 C   0  0  0  0  0  0  0  0  0  0  0  0
  -21.8150   -4.4490   23.6460 C   0  0  0  0  0  3  0  0  0  0  0  0
  -22.0010   -5.2180   22.4840 C   0  0  0  0  0  0  0  0  0  0  0  0
  -22.4290   -4.6210   21.3470 F   0  0  0  0  0  0  0  0  0  0  0  0
  -21.1690   -4.3160   25.9430 F   0  0  0  0  0  0  0  0  0  0  0  0
  -23.1970  -13.9030   21.2020 C   0  0  0  0  0  0  0  0  0  0  0  0
  -22.5190  -13.2090   22.1040 N   0  0  0  0  0  0  0  0  0  0  0  0
  -22.7520  -14.9580   20.7460 O   0  0  0  0  0  0  0  0  0  0  0  0
  -22.8890  -12.3530   22.4870 H   0  0  0  0  0  0  0  0  0  0  0  0
  -21.6170  -13.5400   22.4200 H   0  0  0  0  0  0  0  0  0  0  0  0
  -25.8350  -15.4690   20.2590 N   0  0  0  0  0  0  0  0  0  0  0  0
  -25.1560  -16.1960   20.4360 H   0  0  0  0  0  0  0  0  0  0  0  0
  -26.7400  -15.7870   19.9600 H   0  0  0  0  0  0  0  0  0  0  0  0
  -28.6370  -16.6550   18.4040 N   0  0  0  0  0  0  0  0  0  0  0  0
  -28.6510  -16.8050   17.4090 H   0  0  0  0  0  0  0  0  0  0  0  0
  -27.6440  -16.6060   18.5330 H   0  0  0  0  0  0  0  0  0  0  0  0
  -27.5940  -22.9290   23.3380 O   0  0  0  0  0  0  0  0  0  0  0  0
  -26.8780  -23.4510   22.9470 H   0  0  0  0  0  0  0  0  0  0  0  0
  -28.8690  -25.3030   19.4440 C   0  0  0  0  0  2  0  0  0  0  0  0
  -28.6270  -26.6960   20.0150 O   0  0  0  0  0  0  0  0  0  0  0  0
  -24.4390  -31.7310   23.0790 C   0  0  0  0  0  0  0  0  0  0  0  0
  -27.4380  -27.4550   19.9260 C   0  0  0  0  0  0  0  0  0  0  0  0
  -23.3350  -30.3090   21.3690 C   0  0  0  0  0  3  0  0  0  0  0  0
  -24.9330  -28.9020   19.9170 C   0  0  0  0  0  0  0  0  0  0  0  0
  -25.8460  -30.8180   21.2530 C   0  0  0  0  0  2  0  0  0  0  0  0
  -26.0430  -29.4400   20.5850 C   0  0  0  0  0  0  0  0  0  0  0  0
  -27.2830  -28.7260   20.5710 C   0  0  0  0  0  3  0  0  0  0  0  0
  -26.2760  -26.9650   19.2610 C   0  0  0  0  0  3  0  0  0  0  0  0
  -25.0660  -27.6670   19.2630 C   0  0  0  0  0  3  0  0  0  0  0  0
  -23.6320  -29.6920   19.9480 C   0  0  0  0  0  2  0  0  0  0  0  0
  -24.5560  -30.9770   21.9560 N   0  0  0  0  0  0  0  0  0  0  0  0
  -23.3460  -31.9420   23.5810 O   0  0  0  0  0  0  0  0  0  0  0  0
  -22.6700  -29.2780   22.3040 C   0  0  0  0  0  0  0  0  0  0  0  0
  -21.3490  -29.0370   22.1930 N   0  0  0  0  0  0  0  0  0  0  0  0
  -23.3460  -28.6640   23.1380 O   0  0  0  0  0  0  0  0  0  0  0  0
  -20.7940  -29.6010   21.5790 H   0  0  0  0  0  0  0  0  0  0  0  0
  -18.0330  -27.7100   22.7060 C   0  0  0  0  0  0  0  0  0  0  0  0
  -20.5980  -28.0480   22.9580 C   0  0  0  0  0  3  0  0  0  0  0  0
  -20.7290  -26.6350   22.3310 C   0  0  0  0  0  2  0  0  0  0  0  0
  -19.6250  -26.3200   21.3160 C   0  0  0  0  0  2  0  0  0  0  0  0
  -18.2510  -26.3950   21.9770 C   0  0  0  0  0  2  0  0  0  0  0  0
  -19.1350  -28.4870   23.1600 C   0  0  0  0  0  0  0  0  0  0  0  0
  -18.8870  -29.7270   23.7890 C   0  0  0  0  0  3  0  0  0  0  0  0
  -17.5700  -30.1850   23.9850 C   0  0  0  0  0  3  0  0  0  0  0  0
  -16.4850  -29.3990   23.5490 C   0  0  0  0  0  3  0  0  0  0  0  0
  -16.7210  -28.1630   22.9180 C   0  0  0  0  0  3  0  0  0  0  0  0
  -25.6870  -32.4020   23.7320 C   0  0  0  0  0  3  0  0  0  0  0  0
  -26.2220  -31.6190   24.9920 C   0  0  1  0  0  0  0  0  0  0  0  0
  -25.1430  -31.3420   26.0580 C   0  0  0  0  0  1  0  0  0  0  0  0
  -26.8800  -30.2710   24.5970 C   0  0  0  0  0  1  0  0  0  0  0  0
  -27.3120  -32.4580   25.6820 C   0  0  0  0  0  1  0  0  0  0  0  0
  -25.3290  -33.7760   24.0730 N   0  0  0  0  0  0  0  0  0  0  0  0
  -25.6190  -34.8530   23.3270 C   0  0  0  0  0  0  0  0  0  0  0  0
  -26.2880  -34.7800   22.2870 O   0  0  0  0  0  0  0  0  0  0  0  0
  -24.7670  -33.9260   24.8950 H   0  0  0  0  0  0  0  0  0  0  0  0
  -23.8590  -36.5950   22.9960 C   0  0  0  0  0  1  0  0  0  0  0  0
  -25.0900  -36.2010   23.8200 C   0  0  0  0  0  3  0  0  0  0  0  0
  -27.1690  -37.1680   24.7080 C   0  0  0  0  0  1  0  0  0  0  0  0
  -26.0830  -37.2920   23.7410 N   0  0  0  0  0  0  0  0  0  0  0  0
  -25.6190  -38.1780   23.8910 H   0  0  0  0  0  0  0  0  0  0  0  0
  1  4  1  0
  2  4  1  0
  3  1  2  0
  4 55  1  0
  5  3  1  0
  5  6  1  0
  6  2  1  0
  7  5  2  0
  8 11  1  0
  9 12  1  0
  9  8  2  0
 11 10  2  0
 11  6  1  0
 12 13  2  0
 13 23  1  0
 13 10  1  0
 14 23  1  0
 15 20  1  0
 16 17  1  0
 16 15  1  0
 18 17  1  0
 18 27  1  0
 18 19  1  0
 20 14  1  0
 20 19  1  0
 21 14  2  0
 23 22  1  0
 24 25  2  0
 25 44  1  0
 26 25  1  0
 26 29  1  0
 27 28  1  0
 27 24  1  0
 28 26  2  0
 29 30  1  0
 30 31  2  0
 32 35  1  0
 32 31  1  0
 33 32  2  0
 34 33  1  0
 34 29  2  0
 35 36  1  0
 36 37  1  0
 37 38  2  0
 39 38  1  0
 39 43  1  0
 40 39  2  0
 41 36  2  0
 41 40  1  0
 42 41  1  0
 44 45  1  0
 45 48  1  0
 45 47  1  0
 46 44  2  0
 49 24  1  0
 49 50  1  0
 51 49  1  0
 52 54  1  0
 52 12  1  0
 53 52  1  0
 56 55  1  0
 57 58  1  0
 57  3  1  0
 59 70  2  0
 60 58  1  0
 60 65  1  0
 61 69  1  0
 61 71  1  0
 62 68  1  0
 62 64  1  0
 63 69  1  0
 64 63  1  0
 65 64  2  0
 66 67  1  0
 66 60  2  0
 67 62  2  0
 68 61  1  0
 69 59  1  0
 71 73  2  0
 72 71  1  0
 74 72  1  0
 75 84  2  0
 75 80  1  0
 76 72  1  0
 76 80  1  0
 77 76  1  0
 78 79  1  0
 78 77  1  0
 79 75  1  0
 80 81  2  0
 81 82  1  0
 83 82  2  0
 84 83  1  0
 85 59  1  0
 85 90  1  0
 85 86  1  0
 86 89  1  1
 86 87  1  0
 88 86  1  0
 90 93  1  0
 91 95  1  0
 91 90  1  0
 92 91  2  0
 95 94  1  0
 97 95  1  0
 97 98  1  0
 97 96  1  0
M  ISO  4  14 100  23 100  57 101  58 101
M  END
>  <TORSDO>  (62) 
F 20

>  <SCORE>  (62) 
-11.895

>  <name>  (62) 
61

>  <ligand_id>  (62) 
61

>  <original_smiles>  (62) 
[H]Oc1c([H])c(C([H])([H])Oc2c([H])c([H])c3c(c2[H])C([H])([H])N(C(=O)C([H])(N([H])C(=O)C([H])(N([H])C([H])([H])[H])C([H])([H])[H])C(C([H])([H])[H])(C([H])([H])[H])C([H])([H])[H])C([H])(C(=O)N([H])C2([H])c4c([H])c([H])c([H])c([H])c4C([H])([H])C([H])([H])C2([H])[H])C3([H])[H])c(=O)n(-c2c([H])c([H])c(N([H])[H])c(N(C(=O)N3C([H])([H])C([H])([H])C([H])([H])C([H])(n4nc(-c5c([H])c([H])c(Oc6c([H])c([H])c(F)c([H])c6F)c([H])c5[H])c(C(=O)N([H])[H])c4N([H])[H])C3([H])[H])C([H])([H])[H])c2[H])c1[H]

>  <smiles>  (62) 
[H]Oc1c([H])c(C([H])([H])Oc2c([H])c([H])c3c(c2[H])C([H])([H])N(C(=O)C([H])(N([H])C(=O)C([H])(N([H])C([H])([H])[H])C([H])([H])[H])C(C([H])([H])[H])(C([H])([H])[H])C([H])([H])[H])C([H])(C(=O)N([H])C2([H])c4c([H])c([H])c([H])c([H])c4C([H])([H])C([H])([H])C2([H])[H])C3([H])[H])c(=O)n(-c2c([H])c([H])c(N([H])[H])c(N(C(=O)N3C([H])([H])C([H])([H])C([H])([H])C([H])(n4nc(-c5c([H])c([H])c(Oc6c([H])c([H])c(F)c([H])c6F)c([H])c5[H])c(C(=O)N([H])[H])c4N([H])[H])C3([H])[H])C([H])([H])[H])c2[H])c1[H]

$$$$
62:0:0
     RDKit          3D

 95104  0  0  1  0  0  0  0  0999 V2000
  -30.5940  -24.5720   20.7510 C   0  0  0  0  0  0  0  0  0  0  0  0
  -29.2680  -24.6190   20.9020 C   0  0  0  0  0  0  0  0  0  0  0  0
  -30.9700  -23.1970   20.5370 C   0  0  0  0  0  0  0  0  0  0  0  0
  -28.7550  -23.2670   20.8030 C   0  0  0  0  0  0  0  0  0  0  0  0
  -31.5940  -25.7150   20.8010 C   0  0  0  0  0  1  0  0  0  0  0  0
  -29.8270  -22.4790   20.5810 N   0  0  0  0  0  0  0  0  0  0  0  0
  -32.1110  -22.7520   20.3620 O   0  0  0  0  0  0  0  0  0  0  0  0
  -27.5800  -22.8890   20.8960 O   0  0  0  0  0  0  0  0  0  0  0  0
  -29.4700  -18.7660   21.1810 C   0  0  0  0  0  3  0  0  0  0  0  0
  -29.3650  -20.1640   21.3770 C   0  0  0  0  0  3  0  0  0  0  0  0
  -30.2200  -20.5420   19.1290 C   0  0  0  0  0  3  0  0  0  0  0  0
  -30.0030  -18.2530   19.9770 C   0  0  0  0  0  0  0  0  0  0  0  0
  -29.7810  -21.0640   20.3640 C   0  0  0  0  0  0  0  0  0  0  0  0
  -30.3310  -19.1560   18.9380 C   0  0  0  0  0  0  0  0  0  0  0  0
  -30.8090  -18.7010   17.7540 F   0  0  0  0  0  0  0  0  0  0  0  0
  -30.3270  -16.8310   19.7640 C   0  0  0  0  0  3  0  0  0  0  0  0
  -30.0640  -15.7230   20.4990 C   0  0  0  0  0  3  0  0  0  0  0  0
  -30.7250  -14.5010   20.0410 C   0  0  0  0  0  0  0  0  0  0  0  0
  -30.2900  -12.3610   18.9370 C   0  0  0  0  0  2  0  0  0  0  0  0
  -29.3030  -12.6140   17.7810 C   0  0  0  0  0  2  0  0  0  0  0  0
  -27.8530  -12.4840   18.2830 C   0  0  0  0  0  2  0  0  0  0  0  0
  -27.5890  -13.3020   19.5770 C   0  0  0  0  0  3  0  0  0  0  0  0
  -28.7030  -13.0870   20.6250 C   0  0  0  0  0  2  0  0  0  0  0  0
  -29.9980  -13.3530   19.9860 N   0  0  0  0  0  0  0  0  0  0  0  0
  -31.8590  -14.5640   19.5580 O   0  0  0  0  0  0  0  0  0  0  0  0
  -25.2380  -13.8810   20.4420 C   0  0  0  0  0  0  0  0  0  0  0  0
  -24.1940  -13.0980   20.8550 C   0  0  0  0  0  0  0  0  0  0  0  0
  -24.6550  -11.7480   20.7680 C   0  0  0  0  0  0  0  0  0  0  0  0
  -26.2680  -13.0100   20.1310 N   0  0  0  0  0  0  0  0  0  0  0  0
  -25.9250  -11.7200   20.3860 N   0  0  0  0  0  0  0  0  0  0  0  0
  -23.9420  -10.4800   20.9720 C   0  0  0  0  0  0  0  0  0  0  0  0
  -24.4000   -9.5160   21.8980 C   0  0  0  0  0  3  0  0  0  0  0  0
  -23.6860   -8.3130   22.0890 C   0  0  0  0  0  3  0  0  0  0  0  0
  -22.5010   -8.0650   21.3560 C   0  0  0  0  0  0  0  0  0  0  0  0
  -22.0620   -9.0190   20.4210 C   0  0  0  0  0  3  0  0  0  0  0  0
  -22.7770  -10.2130   20.2260 C   0  0  0  0  0  3  0  0  0  0  0  0
  -21.7570   -6.9150   21.4580 O   0  0  0  0  0  0  0  0  0  0  0  0
  -21.6960   -6.1980   22.6260 C   0  0  0  0  0  0  0  0  0  0  0  0
  -21.2380   -6.7740   23.8310 C   0  0  0  0  0  3  0  0  0  0  0  0
  -21.1250   -5.9820   24.9920 C   0  0  0  0  0  3  0  0  0  0  0  0
  -21.4600   -4.6170   24.9480 C   0  0  0  0  0  0  0  0  0  0  0  0
  -21.9120   -4.0400   23.7480 C   0  0  0  0  0  3  0  0  0  0  0  0
  -22.0260   -4.8290   22.5890 C   0  0  0  0  0  0  0  0  0  0  0  0
  -22.4420   -4.2630   21.4300 F   0  0  0  0  0  0  0  0  0  0  0  0
  -21.3460   -3.8540   26.0610 F   0  0  0  0  0  0  0  0  0  0  0  0
  -22.8150  -13.5660   21.2180 C   0  0  0  0  0  0  0  0  0  0  0  0
  -22.1380  -12.8480   22.1090 N   0  0  0  0  0  0  0  0  0  0  0  0
  -22.3470  -14.6030   20.7480 O   0  0  0  0  0  0  0  0  0  0  0  0
  -22.5310  -12.0110   22.5110 H   0  0  0  0  0  0  0  0  0  0  0  0
  -21.2150  -13.1430   22.3940 H   0  0  0  0  0  0  0  0  0  0  0  0
  -25.3930  -15.2560   20.2870 N   0  0  0  0  0  0  0  0  0  0  0  0
  -24.6390  -15.9110   20.4650 H   0  0  0  0  0  0  0  0  0  0  0  0
  -26.2350  -15.7030   19.9480 H   0  0  0  0  0  0  0  0  0  0  0  0
  -28.4130  -25.8360   21.1940 C   0  0  0  0  0  2  0  0  0  0  0  0
  -28.4210  -26.7720   20.1120 O   0  0  0  0  0  0  0  0  0  0  0  0
  -24.6250  -31.9030   23.2180 C   0  0  0  0  0  0  0  0  0  0  0  0
  -27.2790  -27.5270   20.0930 C   0  0  0  0  0  0  0  0  0  0  0  0
  -23.4190  -30.5070   21.5690 C   0  0  0  0  0  3  0  0  0  0  0  0
  -24.8770  -28.9950   20.1220 C   0  0  0  0  0  0  0  0  0  0  0  0
  -25.9380  -30.8930   21.3590 C   0  0  0  0  0  2  0  0  0  0  0  0
  -26.0310  -29.5300   20.7100 C   0  0  0  0  0  0  0  0  0  0  0  0
  -27.2400  -28.8010   20.6950 C   0  0  0  0  0  3  0  0  0  0  0  0
  -26.1180  -26.9990   19.4960 C   0  0  0  0  0  3  0  0  0  0  0  0
  -24.9130  -27.7280   19.5120 C   0  0  0  0  0  3  0  0  0  0  0  0
  -23.6260  -29.8400   20.1820 C   0  0  0  0  0  2  0  0  0  0  0  0
  -24.6790  -31.1140   22.1080 N   0  0  0  0  0  0  0  0  0  0  0  0
  -23.5460  -32.1630   23.7660 O   0  0  0  0  0  0  0  0  0  0  0  0
  -22.7800  -29.4740   22.5230 C   0  0  0  0  0  0  0  0  0  0  0  0
  -21.4550  -29.2940   22.4080 N   0  0  0  0  0  0  0  0  0  0  0  0
  -23.4720  -28.8370   23.3220 O   0  0  0  0  0  0  0  0  0  0  0  0
  -20.9580  -29.8600   21.7350 H   0  0  0  0  0  0  0  0  0  0  0  0
  -18.0830  -28.1090   22.9290 C   0  0  0  0  0  0  0  0  0  0  0  0
  -20.6450  -28.3490   23.1740 C   0  0  0  0  0  3  0  0  0  0  0  0
  -20.7330  -26.9260   22.5740 C   0  0  0  0  0  2  0  0  0  0  0  0
  -19.6170  -26.6250   21.5690 C   0  0  0  0  0  2  0  0  0  0  0  0
  -18.2440  -26.7680   22.2330 C   0  0  0  0  0  2  0  0  0  0  0  0
  -19.2110  -28.8580   23.3580 C   0  0  0  0  0  0  0  0  0  0  0  0
  -19.0070  -30.1150   23.9690 C   0  0  0  0  0  3  0  0  0  0  0  0
  -17.7070  -30.6210   24.1560 C   0  0  0  0  0  3  0  0  0  0  0  0
  -16.5930  -29.8670   23.7450 C   0  0  0  0  0  3  0  0  0  0  0  0
  -16.7820  -28.6140   23.1380 C   0  0  0  0  0  3  0  0  0  0  0  0
  -25.9130  -32.5350   23.8370 C   0  0  0  0  0  3  0  0  0  0  0  0
  -26.4450  -31.7520   25.1000 C   0  0  1  0  0  0  0  0  0  0  0  0
  -25.3610  -31.4950   26.1730 C   0  0  0  0  0  1  0  0  0  0  0  0
  -27.0330  -30.3830   24.6840 C   0  0  0  0  0  1  0  0  0  0  0  0
  -27.5940  -32.5450   25.7620 C   0  0  0  0  0  1  0  0  0  0  0  0
  -25.5990  -33.9280   24.1810 N   0  0  0  0  0  0  0  0  0  0  0  0
  -25.9270  -34.9880   23.4300 C   0  0  0  0  0  0  0  0  0  0  0  0
  -26.5960  -34.8950   22.3960 O   0  0  0  0  0  0  0  0  0  0  0  0
  -25.0050  -34.0730   24.9840 H   0  0  0  0  0  0  0  0  0  0  0  0
  -24.1930  -36.7770   23.0860 C   0  0  0  0  0  1  0  0  0  0  0  0
  -25.4320  -36.3690   23.8980 C   0  0  0  0  0  3  0  0  0  0  0  0
  -27.5610  -37.2520   24.7460 C   0  0  0  0  0  1  0  0  0  0  0  0
  -26.4630  -37.4260   23.8000 N   0  0  0  0  0  0  0  0  0  0  0  0
  -26.0530  -38.3430   23.9560 H   0  0  0  0  0  0  0  0  0  0  0  0
  1  5  1  0
  1  2  2  0
  2 54  1  0
  3  6  1  0
  3  1  1  0
  4  8  2  0
  4  2  1  0
  6  4  1  0
  7  3  2  0
  9 10  1  0
 11 13  1  0
 12  9  2  0
 13  6  1  0
 13 10  2  0
 14 11  2  0
 14 12  1  0
 15 14  1  0
 16 12  1  0
 16 17  2  0
 18 17  1  0
 19 24  1  0
 20 21  1  0
 20 19  1  0
 22 21  1  0
 22 29  1  0
 22 23  1  0
 24 18  1  0
 24 23  1  0
 25 18  2  0
 26 27  2  0
 27 46  1  0
 28 27  1  0
 28 31  1  0
 29 30  1  0
 29 26  1  0
 30 28  2  0
 31 32  1  0
 32 33  2  0
 34 37  1  0
 34 33  1  0
 35 34  2  0
 36 35  1  0
 36 31  2  0
 37 38  1  0
 38 39  1  0
 39 40  2  0
 41 40  1  0
 41 45  1  0
 42 41  2  0
 43 38  2  0
 43 42  1  0
 44 43  1  0
 46 47  1  0
 47 50  1  0
 47 49  1  0
 48 46  2  0
 51 26  1  0
 51 52  1  0
 53 51  1  0
 55 54  1  0
 56 67  2  0
 57 55  1  0
 57 62  1  0
 58 66  1  0
 58 68  1  0
 59 65  1  0
 59 61  1  0
 60 66  1  0
 61 60  1  0
 62 61  2  0
 63 64  1  0
 63 57  2  0
 64 59  2  0
 65 58  1  0
 66 56  1  0
 68 70  2  0
 69 68  1  0
 71 69  1  0
 72 81  2  0
 72 77  1  0
 73 69  1  0
 73 77  1  0
 74 73  1  0
 75 76  1  0
 75 74  1  0
 76 72  1  0
 77 78  2  0
 78 79  1  0
 80 79  2  0
 81 80  1  0
 82 56  1  0
 82 87  1  0
 82 83  1  0
 83 86  1  1
 83 84  1  0
 85 83  1  0
 87 90  1  0
 88 92  1  0
 88 87  1  0
 89 88  2  0
 92 91  1  0
 94 92  1  0
 94 95  1  0
 94 93  1  0
M  ISO  4  17 100  18 100  54 101  55 101
M  END
>  <TORSDO>  (63) 
F 19

>  <SCORE>  (63) 
-14.123

>  <name>  (63) 
62

>  <ligand_id>  (63) 
62

>  <original_smiles>  (63) 
[H]C(C(=O)N1C([H])([H])C([H])([H])C([H])([H])C([H])(n2nc(-c3c([H])c([H])c(Oc4c([H])c([H])c(F)c([H])c4F)c([H])c3[H])c(C(=O)N([H])[H])c2N([H])[H])C1([H])[H])=C([H])c1c([H])c([H])c(N2C(=O)C(C([H])([H])[H])=C(C([H])([H])Oc3c([H])c([H])c4c(c3[H])C([H])([H])N(C(=O)C([H])(N([H])C(=O)C([H])(N([H])C([H])([H])[H])C([H])([H])[H])C(C([H])([H])[H])(C([H])([H])[H])C([H])([H])[H])C([H])(C(=O)N([H])C3([H])c5c([H])c([H])c([H])c([H])c5C([H])([H])C([H])([H])C3([H])[H])C4([H])[H])C2=O)c([H])c1F

>  <smiles>  (63) 
[H]C(C(=O)N1C([H])([H])C([H])([H])C([H])([H])C([H])(n2nc(-c3c([H])c([H])c(Oc4c([H])c([H])c(F)c([H])c4F)c([H])c3[H])c(C(=O)N([H])[H])c2N([H])[H])C1([H])[H])=C([H])c1c([H])c([H])c(N2C(=O)C(C([H])([H])[H])=C(C([H])([H])Oc3c([H])c([H])c4c(c3[H])C([H])([H])N(C(=O)C([H])(N([H])C(=O)C([H])(N([H])C([H])([H])[H])C([H])([H])[H])C(C([H])([H])[H])(C([H])([H])[H])C([H])([H])[H])C([H])(C(=O)N([H])C3([H])c5c([H])c([H])c([H])c([H])c5C([H])([H])C([H])([H])C3([H])[H])C4([H])[H])C2=O)c([H])c1F

$$$$
63:0:0
     RDKit          3D

 94102  0  0  1  0  0  0  0  0999 V2000
  -30.0470  -19.5510   20.4770 C   0  0  0  0  0  3  0  0  0  0  0  0
  -30.3360  -20.1090   22.7400 C   0  0  0  0  0  3  0  0  0  0  0  0
  -30.0950  -20.5930   21.4760 C   0  0  0  0  0  0  0  0  0  0  0  0
  -30.3150  -18.2860   20.9870 C   0  0  0  0  0  0  0  0  0  0  0  0
  -30.4750  -18.3620   22.7310 S   0  0  0  0  0  0  0  0  0  0  0  0
  -30.8880  -14.5700   20.0580 C   0  0  0  0  0  0  0  0  0  0  0  0
  -30.4390  -12.4350   18.8970 C   0  0  0  0  0  2  0  0  0  0  0  0
  -29.4490  -12.7120   17.7460 C   0  0  0  0  0  2  0  0  0  0  0  0
  -28.0010  -12.5770   18.2520 C   0  0  0  0  0  2  0  0  0  0  0  0
  -27.7520  -13.3830   19.5570 C   0  0  0  0  0  3  0  0  0  0  0  0
  -28.8630  -13.1300   20.6010 C   0  0  0  0  0  2  0  0  0  0  0  0
  -30.1620  -13.4110   19.9780 N   0  0  0  0  0  0  0  0  0  0  0  0
  -31.9800  -14.6820   19.4880 O   0  0  0  0  0  0  0  0  0  0  0  0
  -30.6530  -17.0610   20.2490 C   0  0  0  0  0  0  0  0  0  0  0  0
  -30.3020  -15.7800   20.6310 N   0  0  0  0  0  0  0  0  0  0  0  0
  -31.3780  -17.3000   19.1400 N   0  0  0  0  0  4  0  0  0  0  0  0
  -29.5600  -15.7420   21.3060 H   0  0  0  0  0  0  0  0  0  0  0  0
  -31.7100  -18.2310   18.9400 H   0  0  0  0  0  0  0  0  0  0  0  0
  -31.7930  -16.5270   18.6290 H   0  0  0  0  0  0  0  0  0  0  0  0
  -25.4030  -14.0130   20.3910 C   0  0  0  0  0  0  0  0  0  0  0  0
  -24.3430  -13.2570   20.8100 C   0  0  0  0  0  0  0  0  0  0  0  0
  -24.7790  -11.8980   20.7360 C   0  0  0  0  0  0  0  0  0  0  0  0
  -26.4230  -13.1210   20.1000 N   0  0  0  0  0  0  0  0  0  0  0  0
  -26.0520  -11.8410   20.3660 N   0  0  0  0  0  0  0  0  0  0  0  0
  -24.0400  -10.6440   20.9510 C   0  0  0  0  0  0  0  0  0  0  0  0
  -24.4930   -9.6720   21.8720 C   0  0  0  0  0  3  0  0  0  0  0  0
  -23.7640   -8.4800   22.0750 C   0  0  0  0  0  3  0  0  0  0  0  0
  -22.5640   -8.2550   21.3550 C   0  0  0  0  0  0  0  0  0  0  0  0
  -22.1290   -9.2120   20.4240 C   0  0  0  0  0  3  0  0  0  0  0  0
  -22.8580  -10.3960   20.2200 C   0  0  0  0  0  3  0  0  0  0  0  0
  -21.8000   -7.1180   21.4700 O   0  0  0  0  0  0  0  0  0  0  0  0
  -21.7610   -6.3880   22.6310 C   0  0  0  0  0  0  0  0  0  0  0  0
  -21.3520   -6.9600   23.8560 C   0  0  0  0  0  3  0  0  0  0  0  0
  -21.2650   -6.1570   25.0120 C   0  0  0  0  0  3  0  0  0  0  0  0
  -21.5690   -4.7840   24.9390 C   0  0  0  0  0  0  0  0  0  0  0  0
  -21.9670   -4.2120   23.7200 C   0  0  0  0  0  3  0  0  0  0  0  0
  -22.0590   -5.0120   22.5680 C   0  0  0  0  0  0  0  0  0  0  0  0
  -22.4280   -4.4510   21.3880 F   0  0  0  0  0  0  0  0  0  0  0  0
  -21.4730   -4.0120   26.0470 F   0  0  0  0  0  0  0  0  0  0  0  0
  -22.9690  -13.7500   21.1560 C   0  0  0  0  0  0  0  0  0  0  0  0
  -22.2800  -13.0640   22.0660 N   0  0  0  0  0  0  0  0  0  0  0  0
  -22.5200  -14.7840   20.6670 O   0  0  0  0  0  0  0  0  0  0  0  0
  -22.6580  -12.2300   22.4900 H   0  0  0  0  0  0  0  0  0  0  0  0
  -21.3580  -13.3760   22.3400 H   0  0  0  0  0  0  0  0  0  0  0  0
  -25.5770  -15.3820   20.2150 N   0  0  0  0  0  0  0  0  0  0  0  0
  -24.8030  -16.0340   20.3000 H   0  0  0  0  0  0  0  0  0  0  0  0
  -26.4100  -15.8050   19.8230 H   0  0  0  0  0  0  0  0  0  0  0  0
  -29.0750  -22.7790   20.7410 C   0  0  0  0  0  0  0  0  0  0  0  0
  -30.0930  -22.0110   21.2040 N   0  0  0  0  0  0  0  0  0  0  0  0
  -27.9970  -22.2790   20.4100 O   0  0  0  0  0  0  0  0  0  0  0  0
  -30.9100  -22.5140   21.5160 H   0  0  0  0  0  0  0  0  0  0  0  0
  -29.3700  -24.2280   20.6740 C   0  0  0  0  0  3  0  0  0  0  0  0
  -28.3890  -25.1350   20.3980 C   0  0  0  0  0  3  0  0  0  0  0  0
  -28.5340  -26.5270   20.2700 O   0  0  0  0  0  0  0  0  0  0  0  0
  -24.6690  -31.8250   23.2100 C   0  0  0  0  0  0  0  0  0  0  0  0
  -27.3880  -27.3280   20.2040 C   0  0  0  0  0  0  0  0  0  0  0  0
  -23.4980  -30.3950   21.5680 C   0  0  0  0  0  3  0  0  0  0  0  0
  -24.9880  -28.8660   20.1620 C   0  0  0  0  0  0  0  0  0  0  0  0
  -26.0270  -30.7670   21.3920 C   0  0  0  0  0  2  0  0  0  0  0  0
  -26.1370  -29.3850   20.7730 C   0  0  0  0  0  0  0  0  0  0  0  0
  -27.3360  -28.6190   20.8010 C   0  0  0  0  0  3  0  0  0  0  0  0
  -26.2260  -26.8700   19.5380 C   0  0  0  0  0  3  0  0  0  0  0  0
  -25.0310  -27.6130   19.5360 C   0  0  0  0  0  3  0  0  0  0  0  0
  -23.7320  -29.7140   20.1940 C   0  0  0  0  0  2  0  0  0  0  0  0
  -24.7490  -31.0110   22.1160 N   0  0  0  0  0  0  0  0  0  0  0  0
  -23.5780  -32.0860   23.7350 O   0  0  0  0  0  0  0  0  0  0  0  0
  -22.8510  -29.3700   22.5280 C   0  0  0  0  0  0  0  0  0  0  0  0
  -21.5330  -29.1550   22.3810 N   0  0  0  0  0  0  0  0  0  0  0  0
  -23.5320  -28.7720   23.3650 O   0  0  0  0  0  0  0  0  0  0  0  0
  -21.0410  -29.6950   21.6840 H   0  0  0  0  0  0  0  0  0  0  0  0
  -18.1860  -27.8600   22.8090 C   0  0  0  0  0  0  0  0  0  0  0  0
  -20.7240  -28.2070   23.1480 C   0  0  0  0  0  3  0  0  0  0  0  0
  -20.8870  -26.7700   22.6030 C   0  0  0  0  0  2  0  0  0  0  0  0
  -19.8270  -26.3890   21.5670 C   0  0  0  0  0  2  0  0  0  0  0  0
  -18.4240  -26.5020   22.1680 C   0  0  0  0  0  2  0  0  0  0  0  0
  -19.2670  -28.6660   23.2550 C   0  0  0  0  0  0  0  0  0  0  0  0
  -18.9900  -29.9320   23.8160 C   0  0  0  0  0  3  0  0  0  0  0  0
  -17.6660  -30.3960   23.9320 C   0  0  0  0  0  3  0  0  0  0  0  0
  -16.5990  -29.5890   23.5000 C   0  0  0  0  0  3  0  0  0  0  0  0
  -16.8590  -28.3220   22.9480 C   0  0  0  0  0  3  0  0  0  0  0  0
  -25.9380  -32.4790   23.8390 C   0  0  0  0  0  3  0  0  0  0  0  0
  -26.4600  -31.7150   25.1170 C   0  0  1  0  0  0  0  0  0  0  0  0
  -25.3660  -31.4560   26.1800 C   0  0  0  0  0  1  0  0  0  0  0  0
  -27.0640  -30.3460   24.7190 C   0  0  0  0  0  1  0  0  0  0  0  0
  -27.5940  -32.5250   25.7880 C   0  0  0  0  0  1  0  0  0  0  0  0
  -25.5980  -33.8700   24.1670 N   0  0  0  0  0  0  0  0  0  0  0  0
  -25.9300  -34.9310   23.4180 C   0  0  0  0  0  0  0  0  0  0  0  0
  -26.6220  -34.8420   22.3990 O   0  0  0  0  0  0  0  0  0  0  0  0
  -24.9800  -34.0110   24.9520 H   0  0  0  0  0  0  0  0  0  0  0  0
  -24.1820  -36.7030   23.0330 C   0  0  0  0  0  1  0  0  0  0  0  0
  -25.4100  -36.3110   23.8700 C   0  0  0  0  0  3  0  0  0  0  0  0
  -27.5150  -37.2240   24.7450 C   0  0  0  0  0  1  0  0  0  0  0  0
  -26.4290  -37.3810   23.7830 N   0  0  0  0  0  0  0  0  0  0  0  0
  -26.0060  -38.2930   23.9270 H   0  0  0  0  0  0  0  0  0  0  0  0
  1  4  2  0
  1  3  1  0
  3  2  2  0
  4  5  1  0
  5  2  1  0
  6 15  1  0
  7 12  1  0
  8  9  1  0
  8  7  1  0
 10  9  1  0
 10 23  1  0
 10 11  1  0
 12  6  1  0
 12 11  1  0
 13  6  2  0
 14 15  1  0
 14  4  1  0
 15 17  1  0
 16 14  2  0
 18 16  1  0
 19 16  1  0
 20 21  2  0
 21 40  1  0
 22 21  1  0
 22 25  1  0
 23 24  1  0
 23 20  1  0
 24 22  2  0
 25 26  1  0
 26 27  2  0
 28 31  1  0
 28 27  1  0
 29 28  2  0
 30 29  1  0
 30 25  2  0
 31 32  1  0
 32 33  1  0
 33 34  2  0
 35 34  1  0
 35 39  1  0
 36 35  2  0
 37 32  2  0
 37 36  1  0
 38 37  1  0
 40 41  1  0
 41 44  1  0
 41 43  1  0
 42 40  2  0
 45 46  1  0
 45 20  1  0
 47 45  1  0
 48 49  1  0
 49  3  1  0
 49 51  1  0
 50 48  2  0
 52 48  1  0
 53 52  2  0
 54 53  1  0
 55 66  2  0
 56 54  1  0
 56 61  1  0
 57 65  1  0
 57 67  1  0
 58 64  1  0
 58 60  1  0
 59 65  1  0
 60 61  2  0
 60 59  1  0
 62 56  2  0
 63 62  1  0
 63 58  2  0
 64 57  1  0
 65 55  1  0
 67 69  2  0
 68 67  1  0
 70 68  1  0
 71 80  2  0
 71 76  1  0
 72 68  1  0
 72 76  1  0
 73 72  1  0
 74 75  1  0
 74 73  1  0
 75 71  1  0
 76 77  2  0
 77 78  1  0
 79 78  2  0
 80 79  1  0
 81 55  1  0
 81 86  1  0
 81 82  1  0
 82 85  1  1
 82 83  1  0
 84 82  1  0
 86 89  1  0
 87 91  1  0
 87 86  1  0
 88 87  2  0
 91 90  1  0
 93 91  1  0
 93 94  1  0
 93 92  1  0
M  ISO  4   6 100  15 100  53 101  54 101
M  END
>  <TORSDO>  (64) 
F 18

>  <SCORE>  (64) 
-13.505

>  <name>  (64) 
63

>  <ligand_id>  (64) 
63

>  <original_smiles>  (64) 
[H]C(Oc1c([H])c([H])c2c(c1[H])C([H])([H])N(C(=O)C([H])(N([H])C(=O)C([H])(N([H])C([H])([H])[H])C([H])([H])[H])C(C([H])([H])[H])(C([H])([H])[H])C([H])([H])[H])C([H])(C(=O)N([H])C1([H])c3c([H])c([H])c([H])c([H])c3C([H])([H])C([H])([H])C1([H])[H])C2([H])[H])=C([H])C(=O)N([H])c1c([H])sc(C(N([H])C(=O)N2C([H])([H])C([H])([H])C([H])([H])C([H])(n3nc(-c4c([H])c([H])c(Oc5c([H])c([H])c(F)c([H])c5F)c([H])c4[H])c(C(=O)N([H])[H])c3N([H])[H])C2([H])[H])=[N+]([H])[H])c1[H]

>  <smiles>  (64) 
[H]C(Oc1c([H])c([H])c2c(c1[H])C([H])([H])N(C(=O)C([H])(N([H])C(=O)C([H])(N([H])C([H])([H])[H])C([H])([H])[H])C(C([H])([H])[H])(C([H])([H])[H])C([H])([H])[H])C([H])(C(=O)N([H])C1([H])c3c([H])c([H])c([H])c([H])c3C([H])([H])C([H])([H])C1([H])[H])C2([H])[H])=C([H])C(=O)N([H])c1c([H])sc(C(N([H])C(=O)N2C([H])([H])C([H])([H])C([H])([H])C([H])(n3nc(-c4c([H])c([H])c(Oc5c([H])c([H])c(F)c([H])c5F)c([H])c4[H])c(C(=O)N([H])[H])c3N([H])[H])C2([H])[H])=[N+]([H])[H])c1[H]

$$$$
64:0:0
     RDKit          3D

 94103  0  0  1  0  0  0  0  0999 V2000
  -28.6350  -23.6340   21.1950 C   0  0  0  0  0  3  0  0  0  0  0  0
  -28.7660  -23.9580   19.9070 C   0  0  0  0  0  0  0  0  0  0  0  0
  -28.8990  -22.2160   21.3750 C   0  0  0  0  0  0  0  0  0  0  0  0
  -29.1210  -22.6820   19.2290 C   0  0  0  0  0  0  0  0  0  0  0  0
  -29.1970  -21.6870   20.1670 N   0  0  0  0  0  0  0  0  0  0  0  0
  -28.8590  -21.5870   22.4370 O   0  0  0  0  0  0  0  0  0  0  0  0
  -29.3240  -22.5060   18.0230 O   0  0  0  0  0  0  0  0  0  0  0  0
  -30.8120  -14.9120   19.5780 C   0  0  0  0  0  0  0  0  0  0  0  0
  -30.4700  -12.6990   18.4440 C   0  0  0  0  0  2  0  0  0  0  0  0
  -29.3690  -12.8150   17.3650 C   0  0  0  0  0  2  0  0  0  0  0  0
  -27.9700  -12.6080   17.9770 C   0  0  0  0  0  2  0  0  0  0  0  0
  -27.7650  -13.4320   19.2740 C   0  0  0  0  0  3  0  0  0  0  0  0
  -28.9580  -13.2560   20.2310 C   0  0  0  0  0  2  0  0  0  0  0  0
  -30.1750  -13.6830   19.5150 N   0  0  0  0  0  0  0  0  0  0  0  0
  -31.8390  -15.0910   18.9110 O   0  0  0  0  0  0  0  0  0  0  0  0
  -30.7250  -19.7220   20.6390 C   0  0  0  0  0  3  0  0  0  0  0  0
  -30.9930  -18.3230   20.6430 C   0  0  0  0  0  3  0  0  0  0  0  0
  -28.8100  -19.2670   19.3220 C   0  0  0  0  0  3  0  0  0  0  0  0
  -29.5780  -20.2560   20.0030 C   0  0  0  0  0  0  0  0  0  0  0  0
  -30.1360  -17.3810   20.0110 C   0  0  0  0  0  0  0  0  0  0  0  0
  -29.0660  -17.9080   19.3380 N   0  0  0  0  0  0  0  0  0  0  0  0
  -30.2840  -15.9340   20.3630 N   0  0  0  0  0  0  0  0  0  0  0  0
  -25.5160  -13.9810   20.3840 C   0  0  0  0  0  0  0  0  0  0  0  0
  -24.5030  -13.1860   20.8460 C   0  0  0  0  0  0  0  0  0  0  0  0
  -24.9350  -11.8390   20.6460 C   0  0  0  0  0  0  0  0  0  0  0  0
  -26.4980  -13.1160   19.9280 N   0  0  0  0  0  0  0  0  0  0  0  0
  -26.1650  -11.8180   20.1450 N   0  0  0  0  0  0  0  0  0  0  0  0
  -24.2260  -10.5680   20.8450 C   0  0  0  0  0  0  0  0  0  0  0  0
  -24.6900   -9.5970   21.7590 C   0  0  0  0  0  3  0  0  0  0  0  0
  -23.9780   -8.3920   21.9450 C   0  0  0  0  0  3  0  0  0  0  0  0
  -22.7900   -8.1490   21.2160 C   0  0  0  0  0  0  0  0  0  0  0  0
  -22.3470   -9.1090   20.2900 C   0  0  0  0  0  3  0  0  0  0  0  0
  -23.0580  -10.3060   20.1020 C   0  0  0  0  0  3  0  0  0  0  0  0
  -22.0470   -6.9970   21.3130 O   0  0  0  0  0  0  0  0  0  0  0  0
  -21.9130   -6.3250   22.5010 C   0  0  0  0  0  0  0  0  0  0  0  0
  -21.3960   -6.9510   23.6570 C   0  0  0  0  0  3  0  0  0  0  0  0
  -21.2110   -6.2040   24.8380 C   0  0  0  0  0  3  0  0  0  0  0  0
  -21.5310   -4.8330   24.8640 C   0  0  0  0  0  0  0  0  0  0  0  0
  -22.0410   -4.2080   23.7120 C   0  0  0  0  0  3  0  0  0  0  0  0
  -22.2280   -4.9520   22.5340 C   0  0  0  0  0  0  0  0  0  0  0  0
  -22.7000   -4.3390   21.4210 F   0  0  0  0  0  0  0  0  0  0  0  0
  -21.3460   -4.1130   25.9950 F   0  0  0  0  0  0  0  0  0  0  0  0
  -23.1700  -13.6460   21.3590 C   0  0  0  0  0  0  0  0  0  0  0  0
  -22.5920  -12.9130   22.3050 N   0  0  0  0  0  0  0  0  0  0  0  0
  -22.6540  -14.6880   20.9570 O   0  0  0  0  0  0  0  0  0  0  0  0
  -23.0260  -12.0700   22.6500 H   0  0  0  0  0  0  0  0  0  0  0  0
  -21.7030  -13.2010   22.6890 H   0  0  0  0  0  0  0  0  0  0  0  0
  -25.6800  -15.3600   20.2950 N   0  0  0  0  0  0  0  0  0  0  0  0
  -24.9650  -16.0140   20.5930 H   0  0  0  0  0  0  0  0  0  0  0  0
  -26.4920  -15.8150   19.8970 H   0  0  0  0  0  0  0  0  0  0  0  0
  -30.1940  -16.2180   22.9720 C   0  0  0  0  0  2  0  0  0  0  0  0
  -30.3240  -15.6680   21.7450 C   0  0  0  0  0  3  0  0  0  0  0  0
  -28.6210  -25.3840   19.2300 C   0  0  0  0  0  2  0  0  0  0  0  0
  -28.4380  -26.6250   20.0480 O   0  0  0  0  0  0  0  0  0  0  0  0
  -24.6140  -31.9080   23.1930 C   0  0  0  0  0  0  0  0  0  0  0  0
  -27.2790  -27.4300   20.0150 C   0  0  0  0  0  0  0  0  0  0  0  0
  -23.4080  -30.4830   21.5790 C   0  0  0  0  0  3  0  0  0  0  0  0
  -24.8630  -28.9860   20.0980 C   0  0  0  0  0  0  0  0  0  0  0  0
  -25.9340  -30.8740   21.3270 C   0  0  0  0  0  2  0  0  0  0  0  0
  -26.0350  -29.5020   20.6640 C   0  0  0  0  0  0  0  0  0  0  0  0
  -27.2400  -28.7330   20.6160 C   0  0  0  0  0  3  0  0  0  0  0  0
  -26.0720  -26.9680   19.4420 C   0  0  0  0  0  3  0  0  0  0  0  0
  -24.8850  -27.7270   19.4800 C   0  0  0  0  0  3  0  0  0  0  0  0
  -23.6030  -29.8260   20.1870 C   0  0  0  0  0  2  0  0  0  0  0  0
  -24.6720  -31.1060   22.0900 N   0  0  0  0  0  0  0  0  0  0  0  0
  -23.5370  -32.1490   23.7580 O   0  0  0  0  0  0  0  0  0  0  0  0
  -22.8040  -29.4420   22.5500 C   0  0  0  0  0  0  0  0  0  0  0  0
  -21.4990  -29.1580   22.3980 N   0  0  0  0  0  0  0  0  0  0  0  0
  -23.5090  -28.8900   23.3990 O   0  0  0  0  0  0  0  0  0  0  0  0
  -20.9850  -29.6580   21.6870 H   0  0  0  0  0  0  0  0  0  0  0  0
  -18.2390  -27.6360   22.7840 C   0  0  0  0  0  0  0  0  0  0  0  0
  -20.7370  -28.1780   23.1740 C   0  0  0  0  0  3  0  0  0  0  0  0
  -21.0190  -26.7390   22.6820 C   0  0  0  0  0  2  0  0  0  0  0  0
  -20.0170  -26.2540   21.6300 C   0  0  0  0  0  2  0  0  0  0  0  0
  -18.5930  -26.2820   22.1920 C   0  0  0  0  0  2  0  0  0  0  0  0
  -19.2460  -28.5320   23.2310 C   0  0  0  0  0  0  0  0  0  0  0  0
  -18.8640  -29.7910   23.7420 C   0  0  0  0  0  3  0  0  0  0  0  0
  -17.5080  -30.1590   23.8140 C   0  0  0  0  0  3  0  0  0  0  0  0
  -16.5130  -29.2620   23.3840 C   0  0  0  0  0  3  0  0  0  0  0  0
  -16.8800  -28.0030   22.8750 C   0  0  0  0  0  3  0  0  0  0  0  0
  -25.8930  -32.5770   23.7860 C   0  0  0  0  0  3  0  0  0  0  0  0
  -25.5480  -33.9640   24.1320 N   0  0  0  0  0  0  0  0  0  0  0  0
  -25.8280  -35.0310   23.3710 C   0  0  0  0  0  0  0  0  0  0  0  0
  -26.4730  -34.9530   22.3220 O   0  0  0  0  0  0  0  0  0  0  0  0
  -24.9720  -34.0970   24.9490 H   0  0  0  0  0  0  0  0  0  0  0  0
  -24.0420  -36.7780   23.0730 C   0  0  0  0  0  1  0  0  0  0  0  0
  -25.3120  -36.4030   23.8510 C   0  0  0  0  0  3  0  0  0  0  0  0
  -27.4400  -37.3420   24.6410 C   0  0  0  0  0  1  0  0  0  0  0  0
  -26.3130  -37.4840   23.7230 N   0  0  0  0  0  0  0  0  0  0  0  0
  -25.8850  -38.3920   23.8860 H   0  0  0  0  0  0  0  0  0  0  0  0
  -26.4640  -31.8170   25.0450 C   0  0  1  0  0  0  0  0  0  0  0  0
  -25.3970  -31.5010   26.1190 C   0  0  0  0  0  1  0  0  0  0  0  0
  -27.1200  -30.4800   24.6270 C   0  0  0  0  0  1  0  0  0  0  0  0
  -27.5760  -32.6640   25.7080 C   0  0  0  0  0  1  0  0  0  0  0  0
  1  3  1  0
  2  1  2  0
  3  6  2  0
  4  2  1  0
  4  5  1  0
  5  3  1  0
  7  4  2  0
  8 22  1  0
  9 14  1  0
 10 11  1  0
 10  9  1  0
 12 11  1  0
 12 26  1  0
 12 13  1  0
 14  8  1  0
 14 13  1  0
 15  8  2  0
 16 17  1  0
 18 21  2  0
 18 19  1  0
 19  5  1  0
 19 16  2  0
 20 22  1  0
 20 17  2  0
 21 20  1  0
 22 52  1  0
 23 24  2  0
 24 43  1  0
 25 28  1  0
 25 24  1  0
 26 27  1  0
 26 23  1  0
 27 25  2  0
 28 29  1  0
 29 30  2  0
 31 34  1  0
 31 30  1  0
 32 31  2  0
 33 32  1  0
 33 28  2  0
 34 35  1  0
 35 40  2  0
 35 36  1  0
 36 37  2  0
 37 38  1  0
 38 42  1  0
 39 38  2  0
 40 39  1  0
 41 40  1  0
 43 44  1  0
 44 46  1  0
 44 47  1  0
 45 43  2  0
 48 23  1  0
 48 49  1  0
 50 48  1  0
 52 51  2  0
 53  2  1  0
 53 54  1  0
 55 66  2  0
 56 54  1  0
 56 61  1  0
 57 65  1  0
 57 67  1  0
 58 64  1  0
 58 60  1  0
 59 65  1  0
 60 59  1  0
 61 60  2  0
 62 63  1  0
 62 56  2  0
 63 58  2  0
 64 57  1  0
 65 55  1  0
 67 69  2  0
 68 67  1  0
 70 68  1  0
 71 80  2  0
 71 76  1  0
 72 68  1  0
 72 76  1  0
 73 72  1  0
 74 75  1  0
 74 73  1  0
 75 71  1  0
 76 77  2  0
 77 78  1  0
 79 78  2  0
 80 79  1  0
 81 55  1  0
 81 82  1  0
 81 91  1  0
 82 85  1  0
 83 87  1  0
 83 82  1  0
 84 83  2  0
 87 86  1  0
 89 87  1  0
 89 90  1  0
 89 88  1  0
 91 94  1  1
 91 92  1  0
 93 91  1  0
M  ISO  4   8 100  22 100  53 101  54 101
M  END
>  <TORSDO>  (65) 
F 18

>  <SCORE>  (65) 
-12.169

>  <name>  (65) 
64

>  <ligand_id>  (65) 
64

>  <original_smiles>  (65) 
[H]C([H])=C([H])N(C(=O)N1C([H])([H])C([H])([H])C([H])([H])C([H])(n2nc(-c3c([H])c([H])c(Oc4c([H])c([H])c(F)c([H])c4F)c([H])c3[H])c(C(=O)N([H])[H])c2N([H])[H])C1([H])[H])c1nc([H])c(N2C(=O)C([H])=C(C([H])([H])Oc3c([H])c([H])c4c(c3[H])C([H])([H])N(C(=O)C([H])(N([H])C(=O)C([H])(N([H])C([H])([H])[H])C([H])([H])[H])C(C([H])([H])[H])(C([H])([H])[H])C([H])([H])[H])C([H])(C(=O)N([H])C3([H])c5c([H])c([H])c([H])c([H])c5C([H])([H])C([H])([H])C3([H])[H])C4([H])[H])C2=O)c([H])c1[H]

>  <smiles>  (65) 
[H]C([H])=C([H])N(C(=O)N1C([H])([H])C([H])([H])C([H])([H])C([H])(n2nc(-c3c([H])c([H])c(Oc4c([H])c([H])c(F)c([H])c4F)c([H])c3[H])c(C(=O)N([H])[H])c2N([H])[H])C1([H])[H])c1nc([H])c(N2C(=O)C([H])=C(C([H])([H])Oc3c([H])c([H])c4c(c3[H])C([H])([H])N(C(=O)C([H])(N([H])C(=O)C([H])(N([H])C([H])([H])[H])C([H])([H])[H])C(C([H])([H])[H])(C([H])([H])[H])C([H])([H])[H])C([H])(C(=O)N([H])C3([H])c5c([H])c([H])c([H])c([H])c5C([H])([H])C([H])([H])C3([H])[H])C4([H])[H])C2=O)c([H])c1[H]

$$$$
65:0:0
     RDKit          3D

 94103  0  0  1  0  0  0  0  0999 V2000
  -29.0220  -24.0160   20.0720 C   0  0  0  0  0  0  0  0  0  0  0  0
  -30.3380  -24.0020   19.4650 C   0  0  0  0  0  0  0  0  0  0  0  0
  -28.6840  -22.6060   20.3690 C   0  0  0  0  0  0  0  0  0  0  0  0
  -28.1930  -25.0980   20.3320 C   0  0  0  0  0  3  0  0  0  0  0  0
  -30.8110  -22.5430   19.4010 C   0  0  0  0  0  2  0  0  0  0  0  0
  -29.7030  -21.7480   19.9770 N   0  0  0  0  0  0  0  0  0  0  0  0
  -31.0070  -24.9630   19.0640 O   0  0  0  0  0  0  0  0  0  0  0  0
  -27.6290  -22.2450   20.9040 O   0  0  0  0  0  0  0  0  0  0  0  0
  -30.9370  -19.5030   19.6840 C   0  0  0  0  0  3  0  0  0  0  0  0
  -31.0180  -18.0680   19.7550 C   0  0  0  0  0  3  0  0  0  0  0  0
  -28.6960  -19.4320   20.5110 C   0  0  0  0  0  3  0  0  0  0  0  0
  -29.7720  -20.2540   20.0610 C   0  0  0  0  0  0  0  0  0  0  0  0
  -29.9270  -17.2730   20.2110 C   0  0  0  0  0  0  0  0  0  0  0  0
  -28.7680  -18.0090   20.5750 C   0  0  0  0  0  0  0  0  0  0  0  0
  -27.6790  -17.3180   20.9910 F   0  0  0  0  0  0  0  0  0  0  0  0
  -30.6380  -14.7370   19.9810 C   0  0  0  0  0  0  0  0  0  0  0  0
  -30.3690  -12.4980   18.9200 C   0  0  0  0  0  2  0  0  0  0  0  0
  -29.3420  -12.6210   17.7730 C   0  0  0  0  0  2  0  0  0  0  0  0
  -27.9020  -12.4510   18.2960 C   0  0  0  0  0  2  0  0  0  0  0  0
  -27.6210  -13.2900   19.5710 C   0  0  0  0  0  3  0  0  0  0  0  0
  -28.7590  -13.1410   20.6070 C   0  0  0  0  0  2  0  0  0  0  0  0
  -30.0200  -13.5070   19.9420 N   0  0  0  0  0  0  0  0  0  0  0  0
  -31.7890  -14.8820   19.5680 O   0  0  0  0  0  0  0  0  0  0  0  0
  -29.8370  -15.8040   20.3140 N   0  0  0  0  0  0  0  0  0  0  0  0
  -28.9350  -15.5060   20.6530 H   0  0  0  0  0  0  0  0  0  0  0  0
  -25.2780  -13.8580   20.4630 C   0  0  0  0  0  0  0  0  0  0  0  0
  -24.2330  -13.0710   20.8670 C   0  0  0  0  0  0  0  0  0  0  0  0
  -24.6940  -11.7220   20.7630 C   0  0  0  0  0  0  0  0  0  0  0  0
  -26.3070  -12.9880   20.1380 N   0  0  0  0  0  0  0  0  0  0  0  0
  -25.9640  -11.6970   20.3790 N   0  0  0  0  0  0  0  0  0  0  0  0
  -23.9770  -10.4530   20.9540 C   0  0  0  0  0  0  0  0  0  0  0  0
  -24.4190   -9.4890   21.8870 C   0  0  0  0  0  3  0  0  0  0  0  0
  -23.7040   -8.2850   22.0660 C   0  0  0  0  0  3  0  0  0  0  0  0
  -22.5320   -8.0360   21.3120 C   0  0  0  0  0  0  0  0  0  0  0  0
  -22.1090   -8.9900   20.3700 C   0  0  0  0  0  3  0  0  0  0  0  0
  -22.8240  -10.1860   20.1880 C   0  0  0  0  0  3  0  0  0  0  0  0
  -21.7870   -6.8850   21.4030 O   0  0  0  0  0  0  0  0  0  0  0  0
  -21.6880   -6.1820   22.5770 C   0  0  0  0  0  0  0  0  0  0  0  0
  -21.1830   -6.7700   23.7570 C   0  0  0  0  0  3  0  0  0  0  0  0
  -21.0310   -5.9920   24.9220 C   0  0  0  0  0  3  0  0  0  0  0  0
  -21.3750   -4.6270   24.9080 C   0  0  0  0  0  0  0  0  0  0  0  0
  -21.8700   -4.0370   23.7310 C   0  0  0  0  0  3  0  0  0  0  0  0
  -22.0250   -4.8140   22.5690 C   0  0  0  0  0  0  0  0  0  0  0  0
  -22.4830   -4.2360   21.4320 F   0  0  0  0  0  0  0  0  0  0  0  0
  -21.2220   -3.8780   26.0240 F   0  0  0  0  0  0  0  0  0  0  0  0
  -22.8540  -13.5360   21.2370 C   0  0  0  0  0  0  0  0  0  0  0  0
  -22.1800  -12.8120   22.1240 N   0  0  0  0  0  0  0  0  0  0  0  0
  -22.3840  -14.5750   20.7780 O   0  0  0  0  0  0  0  0  0  0  0  0
  -22.5750  -11.9710   22.5150 H   0  0  0  0  0  0  0  0  0  0  0  0
  -21.2570  -13.1020   22.4150 H   0  0  0  0  0  0  0  0  0  0  0  0
  -25.4330  -15.2350   20.3320 N   0  0  0  0  0  0  0  0  0  0  0  0
  -24.6860  -15.8850   20.5570 H   0  0  0  0  0  0  0  0  0  0  0  0
  -26.2970  -15.7020   20.0900 H   0  0  0  0  0  0  0  0  0  0  0  0
  -28.3740  -26.4890   20.1140 O   0  0  0  0  0  0  0  0  0  0  0  0
  -24.5970  -31.8610   23.2230 C   0  0  0  0  0  0  0  0  0  0  0  0
  -27.2470  -27.3370   20.1260 C   0  0  0  0  0  0  0  0  0  0  0  0
  -23.4030  -30.4740   21.5670 C   0  0  0  0  0  3  0  0  0  0  0  0
  -24.8640  -28.9320   20.1410 C   0  0  0  0  0  0  0  0  0  0  0  0
  -25.9410  -30.8020   21.3910 C   0  0  0  0  0  2  0  0  0  0  0  0
  -26.0310  -29.4250   20.7390 C   0  0  0  0  0  0  0  0  0  0  0  0
  -27.2250  -28.6380   20.7240 C   0  0  0  0  0  3  0  0  0  0  0  0
  -26.0530  -26.9020   19.5070 C   0  0  0  0  0  3  0  0  0  0  0  0
  -24.8750  -27.6730   19.5230 C   0  0  0  0  0  3  0  0  0  0  0  0
  -23.6230  -29.8020   20.1860 C   0  0  0  0  0  2  0  0  0  0  0  0
  -24.6640  -31.0630   22.1160 N   0  0  0  0  0  0  0  0  0  0  0  0
  -23.5100  -32.1290   23.7600 O   0  0  0  0  0  0  0  0  0  0  0  0
  -22.7340  -29.4520   22.5180 C   0  0  0  0  0  0  0  0  0  0  0  0
  -21.4070  -29.2810   22.3890 N   0  0  0  0  0  0  0  0  0  0  0  0
  -23.4110  -28.8170   23.3310 O   0  0  0  0  0  0  0  0  0  0  0  0
  -20.9210  -29.8430   21.7050 H   0  0  0  0  0  0  0  0  0  0  0  0
  -18.0230  -28.1130   22.8990 C   0  0  0  0  0  0  0  0  0  0  0  0
  -20.5860  -28.3400   23.1530 C   0  0  0  0  0  3  0  0  0  0  0  0
  -20.6660  -26.9170   22.5520 C   0  0  0  0  0  2  0  0  0  0  0  0
  -19.5520  -26.6250   21.5420 C   0  0  0  0  0  2  0  0  0  0  0  0
  -18.1790  -26.7740   22.2000 C   0  0  0  0  0  2  0  0  0  0  0  0
  -19.1540  -28.8550   23.3340 C   0  0  0  0  0  0  0  0  0  0  0  0
  -18.9530  -30.1100   23.9480 C   0  0  0  0  0  3  0  0  0  0  0  0
  -17.6550  -30.6210   24.1380 C   0  0  0  0  0  3  0  0  0  0  0  0
  -16.5390  -29.8770   23.7210 C   0  0  0  0  0  3  0  0  0  0  0  0
  -16.7230  -28.6260   23.1050 C   0  0  0  0  0  3  0  0  0  0  0  0
  -25.8740  -32.4900   23.8550 C   0  0  0  0  0  3  0  0  0  0  0  0
  -25.5630  -33.8850   24.1930 N   0  0  0  0  0  0  0  0  0  0  0  0
  -25.8840  -34.9440   23.4380 C   0  0  0  0  0  0  0  0  0  0  0  0
  -26.5410  -34.8500   22.3980 O   0  0  0  0  0  0  0  0  0  0  0  0
  -24.9680  -34.0300   24.9960 H   0  0  0  0  0  0  0  0  0  0  0  0
  -24.1380  -36.7300   23.1320 C   0  0  0  0  0  1  0  0  0  0  0  0
  -25.4000  -36.3290   23.9110 C   0  0  0  0  0  3  0  0  0  0  0  0
  -27.5420  -37.2330   24.7000 C   0  0  0  0  0  1  0  0  0  0  0  0
  -26.4250  -37.3850   23.7700 N   0  0  0  0  0  0  0  0  0  0  0  0
  -26.0180  -38.3080   23.9110 H   0  0  0  0  0  0  0  0  0  0  0  0
  -26.3870  -31.7090   25.1270 C   0  0  1  0  0  0  0  0  0  0  0  0
  -25.2880  -31.4610   26.1840 C   0  0  0  0  0  1  0  0  0  0  0  0
  -26.9770  -30.3360   24.7290 C   0  0  0  0  0  1  0  0  0  0  0  0
  -27.5290  -32.5030   25.8030 C   0  0  0  0  0  1  0  0  0  0  0  0
  1  4  2  0
  1  3  1  0
  2  1  1  0
  3  8  2  0
  5  2  1  0
  5  6  1  0
  6 12  1  0
  6  3  1  0
  7  2  2  0
  9 10  2  0
  9 12  1  0
 10 13  1  0
 11 14  1  0
 12 11  2  0
 13 24  1  0
 13 14  2  0
 14 15  1  0
 16 24  1  0
 17 22  1  0
 18 19  1  0
 18 17  1  0
 20 19  1  0
 20 29  1  0
 20 21  1  0
 22 16  1  0
 22 21  1  0
 23 16  2  0
 24 25  1  0
 26 27  2  0
 27 46  1  0
 28 27  1  0
 28 31  1  0
 29 30  1  0
 29 26  1  0
 30 28  2  0
 31 32  1  0
 32 33  2  0
 34 37  1  0
 34 33  1  0
 35 34  2  0
 36 35  1  0
 36 31  2  0
 37 38  1  0
 38 39  1  0
 39 40  2  0
 41 40  1  0
 41 45  1  0
 42 41  2  0
 43 38  2  0
 43 42  1  0
 44 43  1  0
 46 47  1  0
 47 50  1  0
 47 49  1  0
 48 46  2  0
 51 26  1  0
 51 52  1  0
 53 51  1  0
 54 56  1  0
 54  4  1  0
 55 66  2  0
 56 61  1  0
 57 65  1  0
 57 67  1  0
 58 64  1  0
 58 60  1  0
 59 65  1  0
 60 59  1  0
 61 60  2  0
 62 63  1  0
 62 56  2  0
 63 58  2  0
 64 57  1  0
 65 55  1  0
 67 69  2  0
 68 67  1  0
 70 68  1  0
 71 80  2  0
 71 76  1  0
 72 68  1  0
 72 76  1  0
 73 72  1  0
 74 75  1  0
 74 73  1  0
 75 71  1  0
 76 77  2  0
 77 78  1  0
 79 78  2  0
 80 79  1  0
 81 55  1  0
 81 82  1  0
 81 91  1  0
 82 85  1  0
 83 87  1  0
 83 82  1  0
 84 83  2  0
 87 86  1  0
 89 90  1  0
 89 87  1  0
 89 88  1  0
 91 94  1  1
 91 92  1  0
 93 91  1  0
M  ISO  4   4 101  16 100  24 100  54 101
M  END
>  <TORSDO>  (66) 
F 17

>  <SCORE>  (66) 
-15.045

>  <name>  (66) 
65

>  <ligand_id>  (66) 
65

>  <original_smiles>  (66) 
[H]C(Oc1c([H])c([H])c2c(c1[H])C([H])([H])N(C(=O)C([H])(N([H])C(=O)C([H])(N([H])C([H])([H])[H])C([H])([H])[H])C(C([H])([H])[H])(C([H])([H])[H])C([H])([H])[H])C([H])(C(=O)N([H])C1([H])c3c([H])c([H])c([H])c([H])c3C([H])([H])C([H])([H])C1([H])[H])C2([H])[H])=C1C(=O)N(c2c([H])c([H])c(N([H])C(=O)N3C([H])([H])C([H])([H])C([H])([H])C([H])(n4nc(-c5c([H])c([H])c(Oc6c([H])c([H])c(F)c([H])c6F)c([H])c5[H])c(C(=O)N([H])[H])c4N([H])[H])C3([H])[H])c(F)c2[H])C([H])([H])C1=O

>  <smiles>  (66) 
[H]C(Oc1c([H])c([H])c2c(c1[H])C([H])([H])N(C(=O)C([H])(N([H])C(=O)C([H])(N([H])C([H])([H])[H])C([H])([H])[H])C(C([H])([H])[H])(C([H])([H])[H])C([H])([H])[H])C([H])(C(=O)N([H])C1([H])c3c([H])c([H])c([H])c([H])c3C([H])([H])C([H])([H])C1([H])[H])C2([H])[H])=C1C(=O)N(c2c([H])c([H])c(N([H])C(=O)N3C([H])([H])C([H])([H])C([H])([H])C([H])(n4nc(-c5c([H])c([H])c(Oc6c([H])c([H])c(F)c([H])c6F)c([H])c5[H])c(C(=O)N([H])[H])c4N([H])[H])C3([H])[H])c(F)c2[H])C([H])([H])C1=O

$$$$
66:0:0
     RDKit          3D

 90 98  0  0  1  0  0  0  0  0999 V2000
  -29.9580  -21.5980   20.1730 C   0  0  0  0  0  3  0  0  0  0  0  0
  -29.0030  -22.5550   20.4030 C   0  0  0  0  0  3  0  0  0  0  0  0
  -28.8110  -19.3470   20.8090 C   0  0  0  0  0  3  0  0  0  0  0  0
  -31.0060  -19.2920   19.8440 C   0  0  0  0  0  3  0  0  0  0  0  0
  -28.8290  -17.9230   20.8980 C   0  0  0  0  0  3  0  0  0  0  0  0
  -31.0250  -17.8680   19.9250 C   0  0  0  0  0  3  0  0  0  0  0  0
  -29.9070  -20.0800   20.2870 C   0  0  0  0  0  0  0  0  0  0  0  0
  -29.9330  -17.1390   20.4610 C   0  0  0  0  0  0  0  0  0  0  0  0
  -30.6210  -14.6600   20.0770 C   0  0  0  0  0  0  0  0  0  0  0  0
  -30.3450  -12.4700   18.9350 C   0  0  0  0  0  2  0  0  0  0  0  0
  -29.3330  -12.6570   17.7810 C   0  0  0  0  0  2  0  0  0  0  0  0
  -27.8830  -12.4940   18.2820 C   0  0  0  0  0  2  0  0  0  0  0  0
  -27.6040  -13.2930   19.5840 C   0  0  0  0  0  3  0  0  0  0  0  0
  -28.7240  -13.0760   20.6260 C   0  0  0  0  0  2  0  0  0  0  0  0
  -30.0010  -13.4410   19.9920 N   0  0  0  0  0  0  0  0  0  0  0  0
  -31.7500  -14.8380   19.6120 O   0  0  0  0  0  0  0  0  0  0  0  0
  -29.8510  -15.6820   20.5670 N   0  0  0  0  0  0  0  0  0  0  0  0
  -28.9940  -15.3440   20.9760 H   0  0  0  0  0  0  0  0  0  0  0  0
  -25.2510  -13.8660   20.4440 C   0  0  0  0  0  0  0  0  0  0  0  0
  -24.2080  -13.0790   20.8500 C   0  0  0  0  0  0  0  0  0  0  0  0
  -24.6680  -11.7300   20.7560 C   0  0  0  0  0  0  0  0  0  0  0  0
  -26.2830  -12.9950   20.1300 N   0  0  0  0  0  0  0  0  0  0  0  0
  -25.9400  -11.7040   20.3770 N   0  0  0  0  0  0  0  0  0  0  0  0
  -23.9550  -10.4620   20.9500 C   0  0  0  0  0  0  0  0  0  0  0  0
  -24.3960   -9.5020   21.8900 C   0  0  0  0  0  3  0  0  0  0  0  0
  -23.6820   -8.2980   22.0710 C   0  0  0  0  0  3  0  0  0  0  0  0
  -22.5140   -8.0430   21.3130 C   0  0  0  0  0  0  0  0  0  0  0  0
  -22.0930   -8.9920   20.3640 C   0  0  0  0  0  3  0  0  0  0  0  0
  -22.8060  -10.1880   20.1810 C   0  0  0  0  0  3  0  0  0  0  0  0
  -21.7730   -6.8910   21.4040 O   0  0  0  0  0  0  0  0  0  0  0  0
  -21.6670   -6.1930   22.5800 C   0  0  0  0  0  0  0  0  0  0  0  0
  -21.1440   -6.7840   23.7520 C   0  0  0  0  0  3  0  0  0  0  0  0
  -20.9870   -6.0120   24.9200 C   0  0  0  0  0  3  0  0  0  0  0  0
  -21.3420   -4.6490   24.9170 C   0  0  0  0  0  0  0  0  0  0  0  0
  -21.8590   -4.0580   23.7510 C   0  0  0  0  0  3  0  0  0  0  0  0
  -22.0180   -4.8280   22.5850 C   0  0  0  0  0  0  0  0  0  0  0  0
  -22.4940   -4.2490   21.4580 F   0  0  0  0  0  0  0  0  0  0  0  0
  -21.1850   -3.9050   26.0370 F   0  0  0  0  0  0  0  0  0  0  0  0
  -22.8250  -13.5440   21.2110 C   0  0  0  0  0  0  0  0  0  0  0  0
  -22.1480  -12.8250   22.0990 N   0  0  0  0  0  0  0  0  0  0  0  0
  -22.3580  -14.5820   20.7420 O   0  0  0  0  0  0  0  0  0  0  0  0
  -22.5420  -11.9860   22.5010 H   0  0  0  0  0  0  0  0  0  0  0  0
  -21.2240  -13.1180   22.3830 H   0  0  0  0  0  0  0  0  0  0  0  0
  -25.4020  -15.2410   20.2980 N   0  0  0  0  0  0  0  0  0  0  0  0
  -24.6360  -15.8860   20.4610 H   0  0  0  0  0  0  0  0  0  0  0  0
  -26.2160  -15.6920   19.8990 H   0  0  0  0  0  0  0  0  0  0  0  0
  -29.2400  -24.0530   20.2620 C   0  0  0  0  0  0  0  0  0  0  0  0
  -30.3810  -24.5280   20.2710 O   0  0  0  0  0  0  0  0  0  0  0  0
  -28.0270  -25.0380   20.0770 C   0  0  0  0  0  2  0  0  0  0  0  0
  -28.3150  -26.4910   20.1780 O   0  0  0  0  0  0  0  0  0  0  0  0
  -24.5960  -31.8680   23.2430 C   0  0  0  0  0  0  0  0  0  0  0  0
  -27.2030  -27.3470   20.1370 C   0  0  0  0  0  0  0  0  0  0  0  0
  -23.3940  -30.4900   21.5870 C   0  0  0  0  0  3  0  0  0  0  0  0
  -24.8430  -28.9620   20.1420 C   0  0  0  0  0  0  0  0  0  0  0  0
  -25.9340  -30.8080   21.4120 C   0  0  0  0  0  2  0  0  0  0  0  0
  -26.0130  -29.4400   20.7480 C   0  0  0  0  0  0  0  0  0  0  0  0
  -27.1980  -28.6430   20.7370 C   0  0  0  0  0  3  0  0  0  0  0  0
  -26.0090  -26.9260   19.5050 C   0  0  0  0  0  3  0  0  0  0  0  0
  -24.8430  -27.7110   19.5120 C   0  0  0  0  0  3  0  0  0  0  0  0
  -23.6090  -29.8370   20.1990 C   0  0  0  0  0  2  0  0  0  0  0  0
  -24.6600  -31.0700   22.1380 N   0  0  0  0  0  0  0  0  0  0  0  0
  -23.5120  -32.1420   23.7780 O   0  0  0  0  0  0  0  0  0  0  0  0
  -22.7310  -29.4590   22.5320 C   0  0  0  0  0  0  0  0  0  0  0  0
  -21.4050  -29.2850   22.4000 N   0  0  0  0  0  0  0  0  0  0  0  0
  -23.4080  -28.8210   23.3420 O   0  0  0  0  0  0  0  0  0  0  0  0
  -20.9160  -29.8530   21.7220 H   0  0  0  0  0  0  0  0  0  0  0  0
  -18.0210  -28.1080   22.8990 C   0  0  0  0  0  0  0  0  0  0  0  0
  -20.5830  -28.3410   23.1600 C   0  0  0  0  0  3  0  0  0  0  0  0
  -20.6680  -26.9180   22.5590 C   0  0  0  0  0  2  0  0  0  0  0  0
  -19.5580  -26.6220   21.5450 C   0  0  0  0  0  2  0  0  0  0  0  0
  -18.1820  -26.7680   22.2010 C   0  0  0  0  0  2  0  0  0  0  0  0
  -19.1480  -28.8530   23.3360 C   0  0  0  0  0  0  0  0  0  0  0  0
  -18.9440  -30.1080   23.9500 C   0  0  0  0  0  3  0  0  0  0  0  0
  -17.6440  -30.6180   24.1310 C   0  0  0  0  0  3  0  0  0  0  0  0
  -16.5320  -29.8700   23.7100 C   0  0  0  0  0  3  0  0  0  0  0  0
  -16.7210  -28.6170   23.1000 C   0  0  0  0  0  3  0  0  0  0  0  0
  -25.8790  -32.4910   23.8740 C   0  0  0  0  0  3  0  0  0  0  0  0
  -26.3890  -31.7080   25.1450 C   0  0  1  0  0  0  0  0  0  0  0  0
  -25.2920  -31.4620   26.2070 C   0  0  0  0  0  1  0  0  0  0  0  0
  -26.9750  -30.3330   24.7430 C   0  0  0  0  0  1  0  0  0  0  0  0
  -27.5390  -32.4950   25.8180 C   0  0  0  0  0  1  0  0  0  0  0  0
  -25.5720  -33.8870   24.2160 N   0  0  0  0  0  0  0  0  0  0  0  0
  -25.8800  -34.9430   23.4520 C   0  0  0  0  0  0  0  0  0  0  0  0
  -26.5240  -34.8470   22.4050 O   0  0  0  0  0  0  0  0  0  0  0  0
  -24.9960  -34.0360   25.0320 H   0  0  0  0  0  0  0  0  0  0  0  0
  -24.1230  -36.7210   23.1620 C   0  0  0  0  0  1  0  0  0  0  0  0
  -25.3970  -36.3270   23.9270 C   0  0  0  0  0  3  0  0  0  0  0  0
  -27.5530  -37.2330   24.6780 C   0  0  0  0  0  1  0  0  0  0  0  0
  -26.4140  -37.3910   23.7780 N   0  0  0  0  0  0  0  0  0  0  0  0
  -26.0040  -38.3060   23.9460 H   0  0  0  0  0  0  0  0  0  0  0  0
  1  7  1  0
  1  2  2  0
  3  5  1  0
  4  6  2  0
  4  7  1  0
  6  8  1  0
  7  3  2  0
  8 17  1  0
  8  5  2  0
  9 17  1  0
 10 15  1  0
 11 12  1  0
 11 10  1  0
 13 12  1  0
 13 22  1  0
 13 14  1  0
 15  9  1  0
 15 14  1  0
 16  9  2  0
 17 18  1  0
 19 20  2  0
 20 39  1  0
 21 20  1  0
 21 24  1  0
 22 23  1  0
 22 19  1  0
 23 21  2  0
 24 25  1  0
 25 26  2  0
 27 30  1  0
 27 26  1  0
 28 27  2  0
 29 28  1  0
 29 24  2  0
 30 31  1  0
 31 36  2  0
 31 32  1  0
 32 33  2  0
 34 33  1  0
 34 38  1  0
 35 34  2  0
 36 35  1  0
 37 36  1  0
 39 40  1  0
 40 43  1  0
 40 42  1  0
 41 39  2  0
 44 19  1  0
 44 45  1  0
 46 44  1  0
 47 48  2  0
 47  2  1  0
 49 50  1  0
 49 47  1  0
 51 62  2  0
 52 50  1  0
 52 57  1  0
 53 61  1  0
 53 63  1  0
 54 60  1  0
 54 56  1  0
 55 61  1  0
 56 55  1  0
 57 56  2  0
 58 59  1  0
 58 52  2  0
 59 54  2  0
 60 53  1  0
 61 51  1  0
 63 65  2  0
 64 63  1  0
 66 64  1  0
 67 76  2  0
 67 72  1  0
 68 64  1  0
 68 72  1  0
 69 68  1  0
 70 71  1  0
 70 69  1  0
 71 67  1  0
 72 73  2  0
 73 74  1  0
 75 74  2  0
 76 75  1  0
 77 51  1  0
 77 82  1  0
 77 78  1  0
 78 81  1  1
 78 79  1  0
 80 78  1  0
 82 85  1  0
 83 87  1  0
 83 82  1  0
 84 83  2  0
 87 86  1  0
 89 87  1  0
 89 90  1  0
 89 88  1  0
M  ISO  4   9 100  17 100  49 101  50 101
M  END
>  <TORSDO>  (67) 
F 19

>  <SCORE>  (67) 
-13.852

>  <name>  (67) 
66

>  <ligand_id>  (67) 
66

>  <original_smiles>  (67) 
[H]C(C(=O)C([H])([H])Oc1c([H])c([H])c2c(c1[H])C([H])([H])N(C(=O)C([H])(N([H])C(=O)C([H])(N([H])C([H])([H])[H])C([H])([H])[H])C(C([H])([H])[H])(C([H])([H])[H])C([H])([H])[H])C([H])(C(=O)N([H])C1([H])c3c([H])c([H])c([H])c([H])c3C([H])([H])C([H])([H])C1([H])[H])C2([H])[H])=C([H])c1c([H])c([H])c(N([H])C(=O)N2C([H])([H])C([H])([H])C([H])([H])C([H])(n3nc(-c4c([H])c([H])c(Oc5c([H])c([H])c(F)c([H])c5F)c([H])c4[H])c(C(=O)N([H])[H])c3N([H])[H])C2([H])[H])c([H])c1[H]

>  <smiles>  (67) 
[H]C(C(=O)C([H])([H])Oc1c([H])c([H])c2c(c1[H])C([H])([H])N(C(=O)C([H])(N([H])C(=O)C([H])(N([H])C([H])([H])[H])C([H])([H])[H])C(C([H])([H])[H])(C([H])([H])[H])C([H])([H])[H])C([H])(C(=O)N([H])C1([H])c3c([H])c([H])c([H])c([H])c3C([H])([H])C([H])([H])C1([H])[H])C2([H])[H])=C([H])c1c([H])c([H])c(N([H])C(=O)N2C([H])([H])C([H])([H])C([H])([H])C([H])(n3nc(-c4c([H])c([H])c(Oc5c([H])c([H])c(F)c([H])c5F)c([H])c4[H])c(C(=O)N([H])[H])c3N([H])[H])C2([H])[H])c([H])c1[H]

$$$$
67:0:0
     RDKit          3D

 93101  0  0  1  0  0  0  0  0999 V2000
  -29.9510  -19.9320   19.4940 C   0  0  0  0  0  3  0  0  0  0  0  0
  -28.2060  -18.2560   19.2490 C   0  0  0  0  0  3  0  0  0  0  0  0
  -27.6610  -20.6700   19.2500 C   0  0  0  0  0  3  0  0  0  0  0  0
  -29.5820  -18.5130   19.4160 C   0  0  0  0  0  0  0  0  0  0  0  0
  -29.0150  -21.0540   19.4160 C   0  0  0  0  0  0  0  0  0  0  0  0
  -27.2700  -19.3100   19.1650 C   0  0  0  0  0  0  0  0  0  0  0  0
  -31.0080  -14.9120   20.2830 C   0  0  0  0  0  0  0  0  0  0  0  0
  -30.9440  -12.4290   19.9650 C   0  0  0  0  0  2  0  0  0  0  0  0
  -30.1370  -12.1010   18.6890 C   0  0  0  0  0  2  0  0  0  0  0  0
  -28.6390  -11.9750   19.0200 C   0  0  0  0  0  2  0  0  0  0  0  0
  -28.1220  -13.1460   19.8970 C   0  0  0  0  0  3  0  0  0  0  0  0
  -29.0650  -13.4530   21.0810 C   0  0  0  0  0  2  0  0  0  0  0  0
  -30.4010  -13.6930   20.5220 N   0  0  0  0  0  0  0  0  0  0  0  0
  -32.2280  -14.9120   20.0950 O   0  0  0  0  0  0  0  0  0  0  0  0
  -30.5860  -17.3170   19.5830 C   0  0  0  0  0  0  0  0  0  0  0  0
  -30.2180  -16.0520   20.0650 N   0  0  0  0  0  0  0  0  0  0  0  0
  -31.7470  -17.5590   19.2370 O   0  0  0  0  0  0  0  0  0  0  0  0
  -29.2380  -15.9340   20.2520 H   0  0  0  0  0  0  0  0  0  0  0  0
  -25.7350  -13.8640   20.4870 C   0  0  0  0  0  0  0  0  0  0  0  0
  -24.6190  -13.1510   20.8280 C   0  0  0  0  0  0  0  0  0  0  0  0
  -25.0190  -11.7810   20.8630 C   0  0  0  0  0  0  0  0  0  0  0  0
  -26.7470  -12.9310   20.3320 N   0  0  0  0  0  0  0  0  0  0  0  0
  -26.3200  -11.6750   20.6210 N   0  0  0  0  0  0  0  0  0  0  0  0
  -24.2250  -10.5600   21.0520 C   0  0  0  0  0  0  0  0  0  0  0  0
  -24.5940   -9.5780   21.9980 C   0  0  0  0  0  3  0  0  0  0  0  0
  -23.8010   -8.4220   22.1760 C   0  0  0  0  0  3  0  0  0  0  0  0
  -22.6270   -8.2420   21.4070 C   0  0  0  0  0  0  0  0  0  0  0  0
  -22.2780   -9.2120   20.4500 C   0  0  0  0  0  3  0  0  0  0  0  0
  -23.0710  -10.3570   20.2710 C   0  0  0  0  0  3  0  0  0  0  0  0
  -21.8100   -7.1400   21.4940 O   0  0  0  0  0  0  0  0  0  0  0  0
  -21.7190   -6.4010   22.6460 C   0  0  0  0  0  0  0  0  0  0  0  0
  -21.3030   -6.9740   23.8680 C   0  0  0  0  0  3  0  0  0  0  0  0
  -21.1550   -6.1630   25.0120 C   0  0  0  0  0  3  0  0  0  0  0  0
  -21.4140   -4.7810   24.9340 C   0  0  0  0  0  0  0  0  0  0  0  0
  -21.8240   -4.2090   23.7170 C   0  0  0  0  0  3  0  0  0  0  0  0
  -21.9720   -5.0160   22.5750 C   0  0  0  0  0  0  0  0  0  0  0  0
  -22.3460   -4.4560   21.4000 F   0  0  0  0  0  0  0  0  0  0  0  0
  -21.2660   -4.0000   26.0300 F   0  0  0  0  0  0  0  0  0  0  0  0
  -23.2340  -13.7010   21.0100 C   0  0  0  0  0  0  0  0  0  0  0  0
  -22.4440  -13.0920   21.8890 N   0  0  0  0  0  0  0  0  0  0  0  0
  -22.8610  -14.7060   20.4080 O   0  0  0  0  0  0  0  0  0  0  0  0
  -22.7600  -12.2770   22.3940 H   0  0  0  0  0  0  0  0  0  0  0  0
  -21.5140  -13.4450   22.0580 H   0  0  0  0  0  0  0  0  0  0  0  0
  -25.9710  -15.2180   20.2710 N   0  0  0  0  0  0  0  0  0  0  0  0
  -25.2200  -15.8990   20.3030 H   0  0  0  0  0  0  0  0  0  0  0  0
  -26.8290  -15.5970   19.8940 H   0  0  0  0  0  0  0  0  0  0  0  0
  -25.9240  -18.9950   18.9890 N   0  0  0  0  0  0  0  0  0  0  0  0
  -25.6820  -18.0680   18.6520 H   0  0  0  0  0  0  0  0  0  0  0  0
  -25.2940  -19.7110   18.6400 H   0  0  0  0  0  0  0  0  0  0  0  0
  -28.6840  -23.5470   19.7220 C   0  0  0  0  0  3  0  0  0  0  0  0
  -29.4110  -22.4730   19.4130 N   0  0  0  0  0  0  0  0  0  0  0  0
  -29.0670  -25.1000   19.4480 C   0  0  0  0  0  2  0  0  0  0  0  0
  -28.7060  -26.2490   20.3710 O   0  0  0  0  0  0  0  0  0  0  0  0
  -24.6610  -31.5640   23.2310 C   0  0  0  0  0  0  0  0  0  0  0  0
  -27.5860  -27.1100   20.2190 C   0  0  0  0  0  0  0  0  0  0  0  0
  -23.6140  -30.1990   21.4600 C   0  0  0  0  0  3  0  0  0  0  0  0
  -25.2000  -28.7240   20.0860 C   0  0  0  0  0  0  0  0  0  0  0  0
  -26.1560  -30.5590   21.4790 C   0  0  0  0  0  2  0  0  0  0  0  0
  -26.3130  -29.2010   20.7900 C   0  0  0  0  0  0  0  0  0  0  0  0
  -27.5050  -28.4050   20.8460 C   0  0  0  0  0  3  0  0  0  0  0  0
  -26.4450  -26.7030   19.4930 C   0  0  0  0  0  3  0  0  0  0  0  0
  -25.2730  -27.4860   19.4300 C   0  0  0  0  0  3  0  0  0  0  0  0
  -23.9450  -29.5770   20.0760 C   0  0  0  0  0  2  0  0  0  0  0  0
  -24.8260  -30.7930   22.1140 N   0  0  0  0  0  0  0  0  0  0  0  0
  -23.5350  -31.8010   23.6930 O   0  0  0  0  0  0  0  0  0  0  0  0
  -22.9030  -29.1400   22.3360 C   0  0  0  0  0  0  0  0  0  0  0  0
  -21.5780  -28.9960   22.1630 N   0  0  0  0  0  0  0  0  0  0  0  0
  -23.5460  -28.4510   23.1330 O   0  0  0  0  0  0  0  0  0  0  0  0
  -21.1200  -29.6040   21.4980 H   0  0  0  0  0  0  0  0  0  0  0  0
  -18.1530  -27.8950   22.5700 C   0  0  0  0  0  0  0  0  0  0  0  0
  -20.7210  -28.0270   22.8490 C   0  0  0  0  0  3  0  0  0  0  0  0
  -20.7640  -26.6500   22.1460 C   0  0  0  0  0  2  0  0  0  0  0  0
  -19.6500  -26.4660   21.1120 C   0  0  0  0  0  2  0  0  0  0  0  0
  -18.2740  -26.6070   21.7720 C   0  0  0  0  0  2  0  0  0  0  0  0
  -19.3030  -28.5690   23.0620 C   0  0  0  0  0  0  0  0  0  0  0  0
  -19.1350  -29.7790   23.7690 C   0  0  0  0  0  3  0  0  0  0  0  0
  -17.8510  -30.3140   23.9880 C   0  0  0  0  0  3  0  0  0  0  0  0
  -16.7170  -29.6350   23.5120 C   0  0  0  0  0  3  0  0  0  0  0  0
  -16.8690  -28.4270   22.8080 C   0  0  0  0  0  3  0  0  0  0  0  0
  -25.8790  -32.2030   23.9680 C   0  0  0  0  0  3  0  0  0  0  0  0
  -26.2640  -31.4470   25.3000 C   0  0  1  0  0  0  0  0  0  0  0  0
  -25.0720  -31.2360   26.2630 C   0  0  0  0  0  1  0  0  0  0  0  0
  -26.8690  -30.0590   24.9890 C   0  0  0  0  0  1  0  0  0  0  0  0
  -27.3530  -32.2450   26.0570 C   0  0  0  0  0  1  0  0  0  0  0  0
  -25.5410  -33.6050   24.2520 N   0  0  0  0  0  0  0  0  0  0  0  0
  -25.9380  -34.6500   23.5130 C   0  0  0  0  0  0  0  0  0  0  0  0
  -26.6920  -34.5350   22.5440 O   0  0  0  0  0  0  0  0  0  0  0  0
  -24.8790  -33.7690   24.9960 H   0  0  0  0  0  0  0  0  0  0  0  0
  -24.2340  -36.4330   23.0090 C   0  0  0  0  0  1  0  0  0  0  0  0
  -25.4160  -36.0450   23.9130 C   0  0  0  0  0  3  0  0  0  0  0  0
  -27.4780  -36.9590   24.8840 C   0  0  0  0  0  1  0  0  0  0  0  0
  -26.4510  -37.1000   23.8550 N   0  0  0  0  0  0  0  0  0  0  0  0
  -26.0320  -38.0210   23.9490 H   0  0  0  0  0  0  0  0  0  0  0  0
  2  4  2  0
  3  5  1  0
  4  1  1  0
  4 15  1  0
  5  1  2  0
  6  2  1  0
  6  3  2  0
  7 13  1  0
  8 13  1  0
  9 10  1  0
  9  8  1  0
 11 10  1  0
 11 22  1  0
 11 12  1  0
 13 12  1  0
 14  7  2  0
 15 16  1  0
 16 18  1  0
 16  7  1  0
 17 15  2  0
 19 20  2  0
 20 21  1  0
 20 39  1  0
 21 24  1  0
 22 19  1  0
 22 23  1  0
 23 21  2  0
 24 25  1  0
 25 26  2  0
 27 30  1  0
 27 26  1  0
 28 27  2  0
 29 28  1  0
 29 24  2  0
 30 31  1  0
 31 32  1  0
 32 33  2  0
 34 33  1  0
 34 38  1  0
 35 34  2  0
 36 31  2  0
 36 35  1  0
 37 36  1  0
 39 40  1  0
 40 43  1  0
 40 42  1  0
 41 39  2  0
 44 45  1  0
 44 19  1  0
 46 44  1  0
 47  6  1  0
 48 47  1  0
 49 47  1  0
 51  5  1  0
 51 50  2  0
 52 50  1  0
 52 53  1  0
 54 65  2  0
 55 53  1  0
 55 60  1  0
 56 64  1  0
 56 66  1  0
 57 59  1  0
 58 64  1  0
 59 60  2  0
 59 58  1  0
 61 55  2  0
 62 61  1  0
 62 57  2  0
 63 57  1  0
 63 56  1  0
 64 54  1  0
 66 68  2  0
 67 66  1  0
 69 67  1  0
 70 79  2  0
 70 75  1  0
 71 67  1  0
 71 75  1  0
 72 71  1  0
 73 74  1  0
 73 72  1  0
 74 70  1  0
 75 76  2  0
 76 77  1  0
 78 77  2  0
 79 78  1  0
 80 54  1  0
 80 85  1  0
 80 81  1  0
 81 84  1  1
 81 82  1  0
 83 81  1  0
 85 88  1  0
 86 90  1  0
 86 85  1  0
 87 86  2  0
 90 89  1  0
 92 90  1  0
 92 93  1  0
 92 91  1  0
M  ISO  4   7 100  16 100  52 101  53 101
M  END
>  <TORSDO>  (68) 
F 19

>  <SCORE>  (68) 
-13.512

>  <name>  (68) 
67

>  <ligand_id>  (68) 
67

>  <original_smiles>  (68) 
[H]C(=Nc1c([H])c(C(=O)N([H])C(=O)N2C([H])([H])C([H])([H])C([H])([H])C([H])(n3nc(-c4c([H])c([H])c(Oc5c([H])c([H])c(F)c([H])c5F)c([H])c4[H])c(C(=O)N([H])[H])c3N([H])[H])C2([H])[H])c([H])c(N([H])[H])c1[H])C([H])([H])Oc1c([H])c([H])c2c(c1[H])C([H])([H])N(C(=O)C([H])(N([H])C(=O)C([H])(N([H])C([H])([H])[H])C([H])([H])[H])C(C([H])([H])[H])(C([H])([H])[H])C([H])([H])[H])C([H])(C(=O)N([H])C1([H])c3c([H])c([H])c([H])c([H])c3C([H])([H])C([H])([H])C1([H])[H])C2([H])[H]

>  <smiles>  (68) 
[H]C(=Nc1c([H])c(C(=O)N([H])C(=O)N2C([H])([H])C([H])([H])C([H])([H])C([H])(n3nc(-c4c([H])c([H])c(Oc5c([H])c([H])c(F)c([H])c5F)c([H])c4[H])c(C(=O)N([H])[H])c3N([H])[H])C2([H])[H])c([H])c(N([H])[H])c1[H])C([H])([H])Oc1c([H])c([H])c2c(c1[H])C([H])([H])N(C(=O)C([H])(N([H])C(=O)C([H])(N([H])C([H])([H])[H])C([H])([H])[H])C(C([H])([H])[H])(C([H])([H])[H])C([H])([H])[H])C([H])(C(=O)N([H])C1([H])c3c([H])c([H])c([H])c([H])c3C([H])([H])C([H])([H])C1([H])[H])C2([H])[H]

$$$$
68:0:0
     RDKit          3D

 91100  0  0  1  0  0  0  0  0999 V2000
  -28.4150  -23.5490   20.4140 C   0  0  0  0  0  0  0  0  0  0  0  0
  -29.6010  -22.8970   19.8320 C   0  0  0  0  0  0  0  0  0  0  0  0
  -27.8680  -24.8510   20.5650 C   0  0  0  0  0  3  0  0  0  0  0  0
  -27.9280  -22.1110   20.8360 C   0  0  0  0  0  2  0  0  0  0  0  0
  -29.1760  -21.5750   20.2380 N   0  0  0  0  0  0  0  0  0  0  0  0
  -30.5440  -23.3660   19.2300 O   0  0  0  0  0  0  0  0  0  0  0  0
  -29.1790  -18.8150   20.5560 C   0  0  0  0  0  3  0  0  0  0  0  0
  -30.0030  -17.6090   20.1720 C   0  0  0  0  0  0  0  0  0  0  0  0
  -29.6190  -20.1120   20.1200 C   0  0  0  0  0  0  0  0  0  0  0  0
  -31.0470  -18.0760   19.4120 C   0  0  0  0  0  0  0  0  0  0  0  0
  -31.9740  -17.3040   18.7990 F   0  0  0  0  0  0  0  0  0  0  0  0
  -31.0920  -19.8220   19.2000 S   0  0  0  0  0  0  0  0  0  0  0  0
  -30.5320  -14.9460   20.2740 C   0  0  0  0  0  0  0  0  0  0  0  0
  -30.3650  -12.6110   19.3350 C   0  0  0  0  0  2  0  0  0  0  0  0
  -29.4170  -12.6010   18.1150 C   0  0  0  0  0  2  0  0  0  0  0  0
  -27.9570  -12.4040   18.5640 C   0  0  0  0  0  2  0  0  0  0  0  0
  -27.5730  -13.3170   19.7600 C   0  0  0  0  0  3  0  0  0  0  0  0
  -28.6460  -13.3090   20.8700 C   0  0  0  0  0  2  0  0  0  0  0  0
  -29.9170  -13.7000   20.2470 N   0  0  0  0  0  0  0  0  0  0  0  0
  -31.7330  -14.9800   19.9940 O   0  0  0  0  0  0  0  0  0  0  0  0
  -29.7650  -16.1240   20.4600 N   0  0  0  0  0  0  0  0  0  0  0  0
  -28.8310  -15.9210   20.7770 H   0  0  0  0  0  0  0  0  0  0  0  0
  -25.2050  -13.8900   20.5460 C   0  0  0  0  0  0  0  0  0  0  0  0
  -24.1460  -13.1120   20.9190 C   0  0  0  0  0  0  0  0  0  0  0  0
  -24.6060  -11.7600   20.8610 C   0  0  0  0  0  0  0  0  0  0  0  0
  -26.2430  -13.0140   20.2750 N   0  0  0  0  0  0  0  0  0  0  0  0
  -25.8920  -11.7270   20.5310 N   0  0  0  0  0  0  0  0  0  0  0  0
  -23.8810  -10.4960   21.0430 C   0  0  0  0  0  0  0  0  0  0  0  0
  -24.3070   -9.5250   21.9760 C   0  0  0  0  0  3  0  0  0  0  0  0
  -23.5780   -8.3270   22.1450 C   0  0  0  0  0  3  0  0  0  0  0  0
  -22.4110   -8.0930   21.3810 C   0  0  0  0  0  0  0  0  0  0  0  0
  -22.0040   -9.0530   20.4390 C   0  0  0  0  0  3  0  0  0  0  0  0
  -22.7320  -10.2420   20.2670 C   0  0  0  0  0  3  0  0  0  0  0  0
  -21.6550   -6.9470   21.4610 O   0  0  0  0  0  0  0  0  0  0  0  0
  -21.5750   -6.2160   22.6190 C   0  0  0  0  0  0  0  0  0  0  0  0
  -21.0950   -6.7760   23.8230 C   0  0  0  0  0  3  0  0  0  0  0  0
  -20.9640   -5.9700   24.9720 C   0  0  0  0  0  3  0  0  0  0  0  0
  -21.3030   -4.6040   24.9170 C   0  0  0  0  0  0  0  0  0  0  0  0
  -21.7760   -4.0430   23.7180 C   0  0  0  0  0  3  0  0  0  0  0  0
  -21.9080   -4.8460   22.5720 C   0  0  0  0  0  0  0  0  0  0  0  0
  -22.3440   -4.2950   21.4140 F   0  0  0  0  0  0  0  0  0  0  0  0
  -21.1720   -3.8290   26.0180 F   0  0  0  0  0  0  0  0  0  0  0  0
  -22.7530  -13.5870   21.2150 C   0  0  0  0  0  0  0  0  0  0  0  0
  -22.0360  -12.8800   22.0800 N   0  0  0  0  0  0  0  0  0  0  0  0
  -22.3110  -14.6210   20.7160 O   0  0  0  0  0  0  0  0  0  0  0  0
  -22.4060  -12.0430   22.5070 H   0  0  0  0  0  0  0  0  0  0  0  0
  -21.1010  -13.1810   22.3210 H   0  0  0  0  0  0  0  0  0  0  0  0
  -25.3690  -15.2640   20.3910 N   0  0  0  0  0  0  0  0  0  0  0  0
  -24.6040  -15.9140   20.5350 H   0  0  0  0  0  0  0  0  0  0  0  0
  -26.2070  -15.7130   20.0450 H   0  0  0  0  0  0  0  0  0  0  0  0
  -28.2240  -26.2230   20.2290 O   0  0  0  0  0  0  0  0  0  0  0  0
  -24.6040  -31.9010   23.2260 C   0  0  0  0  0  0  0  0  0  0  0  0
  -27.1910  -27.2210   20.1890 C   0  0  0  0  0  0  0  0  0  0  0  0
  -23.4070  -30.5060   21.5840 C   0  0  0  0  0  3  0  0  0  0  0  0
  -24.8590  -28.9410   20.1570 C   0  0  0  0  0  0  0  0  0  0  0  0
  -25.9580  -30.7810   21.4220 C   0  0  0  0  0  2  0  0  0  0  0  0
  -26.0350  -29.3920   20.7710 C   0  0  0  0  0  0  0  0  0  0  0  0
  -27.2050  -28.5440   20.7760 C   0  0  0  0  0  3  0  0  0  0  0  0
  -25.9940  -26.8710   19.5260 C   0  0  0  0  0  3  0  0  0  0  0  0
  -24.8480  -27.6910   19.5200 C   0  0  0  0  0  3  0  0  0  0  0  0
  -23.6290  -29.8320   20.2040 C   0  0  0  0  0  2  0  0  0  0  0  0
  -24.6750  -31.0840   22.1330 N   0  0  0  0  0  0  0  0  0  0  0  0
  -23.5180  -32.1850   23.7530 O   0  0  0  0  0  0  0  0  0  0  0  0
  -22.7290  -29.4970   22.5440 C   0  0  0  0  0  0  0  0  0  0  0  0
  -21.4010  -29.3300   22.4200 N   0  0  0  0  0  0  0  0  0  0  0  0
  -23.4010  -28.8650   23.3640 O   0  0  0  0  0  0  0  0  0  0  0  0
  -20.9140  -29.8890   21.7330 H   0  0  0  0  0  0  0  0  0  0  0  0
  -18.0150  -28.1510   22.9380 C   0  0  0  0  0  0  0  0  0  0  0  0
  -20.5780  -28.3940   23.1910 C   0  0  0  0  0  3  0  0  0  0  0  0
  -20.6660  -26.9640   22.6090 C   0  0  0  0  0  2  0  0  0  0  0  0
  -19.5550  -26.6530   21.6000 C   0  0  0  0  0  2  0  0  0  0  0  0
  -18.1780  -26.8030   22.2540 C   0  0  0  0  0  2  0  0  0  0  0  0
  -19.1410  -28.9040   23.3640 C   0  0  0  0  0  0  0  0  0  0  0  0
  -18.9340  -30.1630   23.9670 C   0  0  0  0  0  3  0  0  0  0  0  0
  -17.6330  -30.6700   24.1450 C   0  0  0  0  0  3  0  0  0  0  0  0
  -16.5210  -29.9150   23.7340 C   0  0  0  0  0  3  0  0  0  0  0  0
  -16.7130  -28.6570   23.1350 C   0  0  0  0  0  3  0  0  0  0  0  0
  -25.8830  -32.5360   23.8530 C   0  0  0  0  0  3  0  0  0  0  0  0
  -25.5670  -33.9320   24.1950 N   0  0  0  0  0  0  0  0  0  0  0  0
  -25.8760  -34.9930   23.4370 C   0  0  0  0  0  0  0  0  0  0  0  0
  -26.5240  -34.9000   22.3920 O   0  0  0  0  0  0  0  0  0  0  0  0
  -24.9860  -34.0770   25.0070 H   0  0  0  0  0  0  0  0  0  0  0  0
  -24.1230  -36.7750   23.1440 C   0  0  0  0  0  1  0  0  0  0  0  0
  -25.3920  -36.3770   23.9150 C   0  0  0  0  0  3  0  0  0  0  0  0
  -27.5380  -37.2830   24.6900 C   0  0  0  0  0  1  0  0  0  0  0  0
  -26.4130  -37.4370   23.7730 N   0  0  0  0  0  0  0  0  0  0  0  0
  -26.0030  -38.3550   23.9240 H   0  0  0  0  0  0  0  0  0  0  0  0
  -26.3990  -31.7600   25.1270 C   0  0  1  0  0  0  0  0  0  0  0  0
  -25.3050  -31.5150   26.1920 C   0  0  0  0  0  1  0  0  0  0  0  0
  -26.9860  -30.3840   24.7330 C   0  0  0  0  0  1  0  0  0  0  0  0
  -27.5460  -32.5540   25.7940 C   0  0  0  0  0  1  0  0  0  0  0  0
  1  3  2  0
  1  4  1  0
  2  5  1  0
  2  1  1  0
  5  4  1  0
  6  2  2  0
  8 21  1  0
  8  7  1  0
  9  5  1  0
  9  7  2  0
 10  8  2  0
 11 10  1  0
 12 10  1  0
 12  9  1  0
 13 21  1  0
 14 19  1  0
 15 16  1  0
 15 14  1  0
 17 16  1  0
 17 26  1  0
 17 18  1  0
 19 13  1  0
 19 18  1  0
 20 13  2  0
 21 22  1  0
 23 24  2  0
 24 43  1  0
 25 24  1  0
 25 28  1  0
 26 27  1  0
 26 23  1  0
 27 25  2  0
 28 29  1  0
 29 30  2  0
 31 34  1  0
 31 30  1  0
 32 31  2  0
 33 32  1  0
 33 28  2  0
 34 35  1  0
 35 36  1  0
 36 37  2  0
 38 37  1  0
 38 42  1  0
 39 38  2  0
 40 35  2  0
 40 39  1  0
 41 40  1  0
 43 44  1  0
 44 47  1  0
 44 46  1  0
 45 43  2  0
 48 49  1  0
 48 23  1  0
 50 48  1  0
 51  3  1  0
 52 63  2  0
 53 51  1  0
 53 58  1  0
 54 62  1  0
 54 64  1  0
 55 61  1  0
 55 57  1  0
 56 62  1  0
 57 58  2  0
 57 56  1  0
 59 53  2  0
 60 59  1  0
 60 55  2  0
 61 54  1  0
 62 52  1  0
 64 66  2  0
 65 64  1  0
 67 65  1  0
 68 77  2  0
 68 73  1  0
 69 65  1  0
 69 73  1  0
 70 69  1  0
 71 72  1  0
 71 70  1  0
 72 68  1  0
 73 74  2  0
 74 75  1  0
 76 75  2  0
 77 76  1  0
 78 52  1  0
 78 79  1  0
 78 88  1  0
 79 82  1  0
 80 84  1  0
 80 79  1  0
 81 80  2  0
 84 83  1  0
 86 84  1  0
 86 87  1  0
 86 85  1  0
 88 91  1  1
 88 89  1  0
 90 88  1  0
M  ISO  4   3 101  13 100  21 100  51 101
M  END
>  <TORSDO>  (69) 
F 17

>  <SCORE>  (69) 
-15.121

>  <name>  (69) 
68

>  <ligand_id>  (69) 
68

>  <original_smiles>  (69) 
[H]C(Oc1c([H])c([H])c2c(c1[H])C([H])([H])N(C(=O)C([H])(N([H])C(=O)C([H])(N([H])C([H])([H])[H])C([H])([H])[H])C(C([H])([H])[H])(C([H])([H])[H])C([H])([H])[H])C([H])(C(=O)N([H])C1([H])c3c([H])c([H])c([H])c([H])c3C([H])([H])C([H])([H])C1([H])[H])C2([H])[H])=C1C(=O)N(c2sc(F)c(N([H])C(=O)N3C([H])([H])C([H])([H])C([H])([H])C([H])(n4nc(-c5c([H])c([H])c(Oc6c([H])c([H])c(F)c([H])c6F)c([H])c5[H])c(C(=O)N([H])[H])c4N([H])[H])C3([H])[H])c2[H])C1([H])[H]

>  <smiles>  (69) 
[H]C(Oc1c([H])c([H])c2c(c1[H])C([H])([H])N(C(=O)C([H])(N([H])C(=O)C([H])(N([H])C([H])([H])[H])C([H])([H])[H])C(C([H])([H])[H])(C([H])([H])[H])C([H])([H])[H])C([H])(C(=O)N([H])C1([H])c3c([H])c([H])c([H])c([H])c3C([H])([H])C([H])([H])C1([H])[H])C2([H])[H])=C1C(=O)N(c2sc(F)c(N([H])C(=O)N3C([H])([H])C([H])([H])C([H])([H])C([H])(n4nc(-c5c([H])c([H])c(Oc6c([H])c([H])c(F)c([H])c6F)c([H])c5[H])c(C(=O)N([H])[H])c4N([H])[H])C3([H])[H])c2[H])C1([H])[H]

$$$$
69:0:0
     RDKit          3D

 93102  0  0  1  0  0  0  0  0999 V2000
  -28.5090  -24.0570   20.4120 C   0  0  0  0  0  0  0  0  0  0  0  0
  -29.2570  -23.3310   19.3870 C   0  0  0  0  0  0  0  0  0  0  0  0
  -28.2960  -25.3470   20.8400 C   0  0  0  0  0  3  0  0  0  0  0  0
  -27.8790  -22.7560   20.8830 C   0  0  0  0  0  2  0  0  0  0  0  0
  -28.6670  -22.1150   19.8170 N   0  0  0  0  0  0  0  0  0  0  0  0
  -30.0350  -23.6960   18.5290 O   0  0  0  0  0  0  0  0  0  0  0  0
  -26.9760  -18.7510   19.3240 C   0  0  0  0  0  3  0  0  0  0  0  0
  -28.0190  -17.8360   19.1350 C   0  0  0  0  0  3  0  0  0  0  0  0
  -27.2460  -20.1150   19.5270 C   0  0  0  0  0  3  0  0  0  0  0  0
  -29.5940  -19.6990   19.3210 C   0  0  0  0  0  3  0  0  0  0  0  0
  -29.3560  -18.2830   19.1260 C   0  0  0  0  0  0  0  0  0  0  0  0
  -28.5530  -20.6730   19.5500 C   0  0  0  0  0  0  0  0  0  0  0  0
  -31.1710  -14.9270   19.5220 C   0  0  0  0  0  0  0  0  0  0  0  0
  -31.1420  -12.4650   19.2330 C   0  0  0  0  0  2  0  0  0  0  0  0
  -30.1910  -12.1250   18.0640 C   0  0  0  0  0  2  0  0  0  0  0  0
  -28.7430  -11.9740   18.5710 C   0  0  0  0  0  2  0  0  0  0  0  0
  -28.3040  -13.1460   19.4890 C   0  0  0  0  0  3  0  0  0  0  0  0
  -29.3750  -13.4610   20.5580 C   0  0  0  0  0  2  0  0  0  0  0  0
  -30.6460  -13.7070   19.8600 N   0  0  0  0  0  0  0  0  0  0  0  0
  -32.3240  -15.0020   19.0870 O   0  0  0  0  0  0  0  0  0  0  0  0
  -30.4860  -17.2510   18.9880 C   0  0  0  0  0  0  0  0  0  0  0  0
  -30.3080  -15.9940   19.5170 N   0  0  0  0  0  0  0  0  0  0  0  0
  -31.5040  -17.6010   18.3810 O   0  0  0  0  0  0  0  0  0  0  0  0
  -29.4080  -15.8250   19.9270 H   0  0  0  0  0  0  0  0  0  0  0  0
  -26.0350  -13.8150   20.4900 C   0  0  0  0  0  0  0  0  0  0  0  0
  -24.9620  -13.0740   20.9040 C   0  0  0  0  0  0  0  0  0  0  0  0
  -25.3350  -11.7060   20.7260 C   0  0  0  0  0  0  0  0  0  0  0  0
  -26.9940  -12.9010   20.0850 N   0  0  0  0  0  0  0  0  0  0  0  0
  -26.5840  -11.6220   20.2870 N   0  0  0  0  0  0  0  0  0  0  0  0
  -24.5530  -10.4740   20.8950 C   0  0  0  0  0  0  0  0  0  0  0  0
  -24.8760   -9.5230   21.8870 C   0  0  0  0  0  3  0  0  0  0  0  0
  -24.0980   -8.3560   22.0410 C   0  0  0  0  0  3  0  0  0  0  0  0
  -22.9830   -8.1300   21.2000 C   0  0  0  0  0  0  0  0  0  0  0  0
  -22.6790   -9.0680   20.1980 C   0  0  0  0  0  3  0  0  0  0  0  0
  -23.4570  -10.2270   20.0420 C   0  0  0  0  0  3  0  0  0  0  0  0
  -22.1850   -7.0130   21.2600 O   0  0  0  0  0  0  0  0  0  0  0  0
  -21.8070   -6.4610   22.4580 C   0  0  0  0  0  0  0  0  0  0  0  0
  -21.0980   -7.2030   23.4280 C   0  0  0  0  0  3  0  0  0  0  0  0
  -20.6680   -6.5780   24.6170 C   0  0  0  0  0  3  0  0  0  0  0  0
  -20.9380   -5.2130   24.8320 C   0  0  0  0  0  0  0  0  0  0  0  0
  -21.6390   -4.4710   23.8640 C   0  0  0  0  0  3  0  0  0  0  0  0
  -22.0700   -5.0940   22.6790 C   0  0  0  0  0  0  0  0  0  0  0  0
  -22.7260   -4.3710   21.7400 F   0  0  0  0  0  0  0  0  0  0  0  0
  -20.5180   -4.6100   25.9680 F   0  0  0  0  0  0  0  0  0  0  0  0
  -23.6310  -13.6030   21.3520 C   0  0  0  0  0  0  0  0  0  0  0  0
  -22.9560  -12.8900   22.2470 N   0  0  0  0  0  0  0  0  0  0  0  0
  -23.2010  -14.6800   20.9410 O   0  0  0  0  0  0  0  0  0  0  0  0
  -23.3210  -12.0160   22.6000 H   0  0  0  0  0  0  0  0  0  0  0  0
  -22.0660  -13.2230   22.5880 H   0  0  0  0  0  0  0  0  0  0  0  0
  -26.2660  -15.1840   20.4000 N   0  0  0  0  0  0  0  0  0  0  0  0
  -25.5490  -15.8620   20.6340 H   0  0  0  0  0  0  0  0  0  0  0  0
  -27.0820  -15.6070   19.9780 H   0  0  0  0  0  0  0  0  0  0  0  0
  -28.7320  -26.6060   20.4010 O   0  0  0  0  0  0  0  0  0  0  0  0
  -24.8530  -31.8430   23.4340 C   0  0  0  0  0  0  0  0  0  0  0  0
  -27.6850  -27.5200   20.2790 C   0  0  0  0  0  0  0  0  0  0  0  0
  -23.7860  -30.5400   21.6510 C   0  0  0  0  0  3  0  0  0  0  0  0
  -25.3190  -29.0940   20.2120 C   0  0  0  0  0  0  0  0  0  0  0  0
  -26.3140  -30.8920   21.6340 C   0  0  0  0  0  2  0  0  0  0  0  0
  -26.4440  -29.5610   20.9080 C   0  0  0  0  0  0  0  0  0  0  0  0
  -27.6360  -28.7830   20.9360 C   0  0  0  0  0  3  0  0  0  0  0  0
  -26.5480  -27.1030   19.5560 C   0  0  0  0  0  3  0  0  0  0  0  0
  -25.3720  -27.8710   19.5240 C   0  0  0  0  0  3  0  0  0  0  0  0
  -24.0720  -29.9480   20.2460 C   0  0  0  0  0  2  0  0  0  0  0  0
  -25.0020  -31.1040   22.2990 N   0  0  0  0  0  0  0  0  0  0  0  0
  -23.7310  -32.0780   23.9080 O   0  0  0  0  0  0  0  0  0  0  0  0
  -23.0760  -29.4710   22.5110 C   0  0  0  0  0  0  0  0  0  0  0  0
  -21.7700  -29.4010   22.2780 N   0  0  0  0  0  0  0  0  0  0  0  0
  -23.6820  -28.7380   23.2940 O   0  0  0  0  0  0  0  0  0  0  0  0
  -21.4190  -30.1250   21.6660 H   0  0  0  0  0  0  0  0  0  0  0  0
  -18.3120  -28.0110   22.5750 C   0  0  0  0  0  0  0  0  0  0  0  0
  -20.7960  -28.3740   22.5480 C   0  0  0  0  0  3  0  0  0  0  0  0
  -21.0210  -26.9130   22.1480 C   0  0  0  0  0  2  0  0  0  0  0  0
  -19.8980  -26.4990   21.1730 C   0  0  0  0  0  2  0  0  0  0  0  0
  -18.4920  -26.7210   21.7720 C   0  0  0  0  0  2  0  0  0  0  0  0
  -19.4220  -28.7530   23.0460 C   0  0  0  0  0  0  0  0  0  0  0  0
  -19.2240  -29.9300   23.7960 C   0  0  0  0  0  3  0  0  0  0  0  0
  -17.9200  -30.3990   24.0370 C   0  0  0  0  0  3  0  0  0  0  0  0
  -16.8140  -29.6830   23.5420 C   0  0  0  0  0  3  0  0  0  0  0  0
  -17.0090  -28.4860   22.8290 C   0  0  0  0  0  3  0  0  0  0  0  0
  -26.0820  -32.4420   24.1760 C   0  0  0  0  0  3  0  0  0  0  0  0
  -25.7620  -33.8400   24.4980 N   0  0  0  0  0  0  0  0  0  0  0  0
  -26.1170  -34.8910   23.7480 C   0  0  0  0  0  0  0  0  0  0  0  0
  -26.8140  -34.7870   22.7350 O   0  0  0  0  0  0  0  0  0  0  0  0
  -25.1450  -33.9950   25.2810 H   0  0  0  0  0  0  0  0  0  0  0  0
  -24.3830  -36.6740   23.3680 C   0  0  0  0  0  1  0  0  0  0  0  0
  -25.6190  -36.2800   24.1920 C   0  0  0  0  0  3  0  0  0  0  0  0
  -27.7400  -37.1810   25.0400 C   0  0  0  0  0  1  0  0  0  0  0  0
  -26.6500  -37.3360   24.0810 N   0  0  0  0  0  0  0  0  0  0  0  0
  -26.2390  -38.2560   24.2140 H   0  0  0  0  0  0  0  0  0  0  0  0
  -26.4640  -31.6410   25.4790 C   0  0  1  0  0  0  0  0  0  0  0  0
  -25.2690  -31.3850   26.4270 C   0  0  0  0  0  1  0  0  0  0  0  0
  -27.0780  -30.2700   25.1160 C   0  0  0  0  0  1  0  0  0  0  0  0
  -27.5450  -32.4170   26.2660 C   0  0  0  0  0  1  0  0  0  0  0  0
  1  3  2  0
  1  4  1  0
  2  5  1  0
  2  1  1  0
  5  4  1  0
  6  2  2  0
  7  9  1  0
  8  7  2  0
  9 12  2  0
 10 12  1  0
 11  8  1  0
 11 10  2  0
 12  5  1  0
 13 19  1  0
 14 19  1  0
 15 16  1  0
 15 14  1  0
 17 16  1  0
 17 28  1  0
 17 18  1  0
 19 18  1  0
 20 13  2  0
 21 11  1  0
 21 22  1  0
 22 13  1  0
 22 24  1  0
 23 21  2  0
 25 26  2  0
 26 45  1  0
 27 30  1  0
 27 26  1  0
 28 29  1  0
 28 25  1  0
 29 27  2  0
 30 31  1  0
 31 32  2  0
 33 36  1  0
 33 32  1  0
 34 33  2  0
 35 34  1  0
 35 30  2  0
 36 37  1  0
 37 42  2  0
 37 38  1  0
 38 39  2  0
 39 40  1  0
 40 44  1  0
 41 40  2  0
 42 41  1  0
 43 42  1  0
 45 46  1  0
 46 49  1  0
 46 48  1  0
 47 45  2  0
 50 25  1  0
 50 51  1  0
 52 50  1  0
 53  3  1  0
 54 65  2  0
 55 53  1  0
 55 60  1  0
 56 64  1  0
 56 66  1  0
 57 63  1  0
 57 59  1  0
 58 64  1  0
 59 60  2  0
 59 58  1  0
 61 55  2  0
 62 61  1  0
 62 57  2  0
 63 56  1  0
 64 54  1  0
 66 68  2  0
 67 66  1  0
 69 67  1  0
 70 79  2  0
 70 75  1  0
 71 67  1  0
 71 75  1  0
 72 71  1  0
 73 74  1  0
 73 72  1  0
 74 70  1  0
 75 76  2  0
 76 77  1  0
 78 77  2  0
 79 78  1  0
 80 54  1  0
 80 81  1  0
 80 90  1  0
 81 84  1  0
 82 86  1  0
 82 81  1  0
 83 82  2  0
 86 85  1  0
 88 86  1  0
 88 89  1  0
 88 87  1  0
 90 93  1  1
 90 91  1  0
 92 90  1  0
M  ISO  4   3 101  13 100  22 100  53 101
M  END
>  <TORSDO>  (70) 
F 17

>  <SCORE>  (70) 
-13.326

>  <name>  (70) 
69

>  <ligand_id>  (70) 
69

>  <original_smiles>  (70) 
[H]C(Oc1c([H])c([H])c2c(c1[H])C([H])([H])N(C(=O)C([H])(N([H])C(=O)C([H])(N([H])C([H])([H])[H])C([H])([H])[H])C(C([H])([H])[H])(C([H])([H])[H])C([H])([H])[H])C([H])(C(=O)N([H])C1([H])c3c([H])c([H])c([H])c([H])c3C([H])([H])C([H])([H])C1([H])[H])C2([H])[H])=C1C(=O)N(c2c([H])c([H])c([H])c(C(=O)N([H])C(=O)N3C([H])([H])C([H])([H])C([H])([H])C([H])(n4nc(-c5c([H])c([H])c(Oc6c([H])c([H])c(F)c([H])c6F)c([H])c5[H])c(C(=O)N([H])[H])c4N([H])[H])C3([H])[H])c2[H])C1([H])[H]

>  <smiles>  (70) 
[H]C(Oc1c([H])c([H])c2c(c1[H])C([H])([H])N(C(=O)C([H])(N([H])C(=O)C([H])(N([H])C([H])([H])[H])C([H])([H])[H])C(C([H])([H])[H])(C([H])([H])[H])C([H])([H])[H])C([H])(C(=O)N([H])C1([H])c3c([H])c([H])c([H])c([H])c3C([H])([H])C([H])([H])C1([H])[H])C2([H])[H])=C1C(=O)N(c2c([H])c([H])c([H])c(C(=O)N([H])C(=O)N3C([H])([H])C([H])([H])C([H])([H])C([H])(n4nc(-c5c([H])c([H])c(Oc6c([H])c([H])c(F)c([H])c6F)c([H])c5[H])c(C(=O)N([H])[H])c4N([H])[H])C3([H])[H])c2[H])C1([H])[H]

$$$$
70:0:0
     RDKit          3D

 96105  0  0  1  0  0  0  0  0999 V2000
  -28.9310  -24.7260   21.4330 C   0  0  0  0  0  0  0  0  0  0  0  0
  -29.2230  -24.2370   22.7610 C   0  0  0  0  0  0  0  0  0  0  0  0
  -28.8420  -23.5730   20.5310 C   0  0  0  0  0  0  0  0  0  0  0  0
  -28.7640  -26.0610   21.2000 C   0  0  0  0  0  3  0  0  0  0  0  0
  -29.2490  -22.7320   22.7010 C   0  0  0  0  0  2  0  0  0  0  0  0
  -29.0660  -22.4330   21.2720 N   0  0  0  0  0  0  0  0  0  0  0  0
  -29.4120  -24.8900   23.7940 O   0  0  0  0  0  0  0  0  0  0  0  0
  -28.5900  -23.6050   19.3200 O   0  0  0  0  0  0  0  0  0  0  0  0
  -29.2400  -18.6270   21.3910 C   0  0  0  0  0  3  0  0  0  0  0  0
  -28.9890  -19.9770   21.7430 C   0  0  0  0  0  3  0  0  0  0  0  0
  -29.6020  -20.6850   19.5250 C   0  0  0  0  0  3  0  0  0  0  0  0
  -29.7160  -18.2680   20.1080 C   0  0  0  0  0  0  0  0  0  0  0  0
  -29.1920  -21.0480   20.8310 C   0  0  0  0  0  0  0  0  0  0  0  0
  -29.8630  -19.3360   19.1640 C   0  0  0  0  0  0  0  0  0  0  0  0
  -30.3020  -19.1200   17.8530 N   0  0  0  0  0  0  0  0  0  0  0  0
  -30.1670  -19.8560   17.1660 H   0  0  0  0  0  0  0  0  0  0  0  0
  -30.2530  -18.1930   17.4450 H   0  0  0  0  0  0  0  0  0  0  0  0
  -30.1210  -16.8390   19.7960 C   0  0  0  0  0  3  0  0  0  0  0  0
  -30.0530  -15.7730   20.5320 N   0  0  0  0  0  0  0  0  0  0  0  0
  -30.7560  -14.6600   20.0340 C   0  0  0  0  0  0  0  0  0  0  0  0
  -30.4080  -12.4630   18.9480 C   0  0  0  0  0  2  0  0  0  0  0  0
  -29.4160  -12.6440   17.7830 C   0  0  0  0  0  2  0  0  0  0  0  0
  -27.9670  -12.4880   18.2840 C   0  0  0  0  0  2  0  0  0  0  0  0
  -27.6790  -13.3350   19.5530 C   0  0  0  0  0  3  0  0  0  0  0  0
  -28.7920  -13.1720   20.6110 C   0  0  0  0  0  2  0  0  0  0  0  0
  -30.0780  -13.4760   19.9690 N   0  0  0  0  0  0  0  0  0  0  0  0
  -31.8760  -14.7550   19.5220 O   0  0  0  0  0  0  0  0  0  0  0  0
  -25.3310  -13.9130   20.4230 C   0  0  0  0  0  0  0  0  0  0  0  0
  -24.2860  -13.1290   20.8330 C   0  0  0  0  0  0  0  0  0  0  0  0
  -24.7460  -11.7790   20.7420 C   0  0  0  0  0  0  0  0  0  0  0  0
  -26.3590  -13.0390   20.1070 N   0  0  0  0  0  0  0  0  0  0  0  0
  -26.0160  -11.7500   20.3590 N   0  0  0  0  0  0  0  0  0  0  0  0
  -24.0320  -10.5120   20.9440 C   0  0  0  0  0  0  0  0  0  0  0  0
  -24.4860   -9.5450   21.8690 C   0  0  0  0  0  3  0  0  0  0  0  0
  -23.7720   -8.3420   22.0580 C   0  0  0  0  0  3  0  0  0  0  0  0
  -22.5890   -8.0970   21.3210 C   0  0  0  0  0  0  0  0  0  0  0  0
  -22.1540   -9.0510   20.3830 C   0  0  0  0  0  3  0  0  0  0  0  0
  -22.8700  -10.2450   20.1930 C   0  0  0  0  0  3  0  0  0  0  0  0
  -21.8440   -6.9470   21.4180 O   0  0  0  0  0  0  0  0  0  0  0  0
  -21.7690   -6.2340   22.5890 C   0  0  0  0  0  0  0  0  0  0  0  0
  -21.3060   -6.8180   23.7880 C   0  0  0  0  0  3  0  0  0  0  0  0
  -21.1800   -6.0330   24.9510 C   0  0  0  0  0  3  0  0  0  0  0  0
  -21.5060   -4.6640   24.9150 C   0  0  0  0  0  0  0  0  0  0  0  0
  -21.9630   -4.0790   23.7210 C   0  0  0  0  0  3  0  0  0  0  0  0
  -22.0900   -4.8620   22.5600 C   0  0  0  0  0  0  0  0  0  0  0  0
  -22.5100   -4.2900   21.4060 F   0  0  0  0  0  0  0  0  0  0  0  0
  -21.3780   -3.9060   26.0290 F   0  0  0  0  0  0  0  0  0  0  0  0
  -22.9060  -13.5970   21.1960 C   0  0  0  0  0  0  0  0  0  0  0  0
  -22.2320  -12.8800   22.0880 N   0  0  0  0  0  0  0  0  0  0  0  0
  -22.4380  -14.6320   20.7250 O   0  0  0  0  0  0  0  0  0  0  0  0
  -22.6250  -12.0420   22.4890 H   0  0  0  0  0  0  0  0  0  0  0  0
  -21.3090  -13.1740   22.3730 H   0  0  0  0  0  0  0  0  0  0  0  0
  -25.4880  -15.2870   20.2750 N   0  0  0  0  0  0  0  0  0  0  0  0
  -24.7430  -15.9480   20.4690 H   0  0  0  0  0  0  0  0  0  0  0  0
  -26.3440  -15.7320   19.9660 H   0  0  0  0  0  0  0  0  0  0  0  0
  -28.4730  -26.7070   20.0170 O   0  0  0  0  0  0  0  0  0  0  0  0
  -24.6610  -31.9010   23.1760 C   0  0  0  0  0  0  0  0  0  0  0  0
  -27.3510  -27.5100   20.0350 C   0  0  0  0  0  0  0  0  0  0  0  0
  -23.4660  -30.4880   21.5350 C   0  0  0  0  0  3  0  0  0  0  0  0
  -24.9350  -28.9910   20.0780 C   0  0  0  0  0  0  0  0  0  0  0  0
  -25.9850  -30.8920   21.3150 C   0  0  0  0  0  2  0  0  0  0  0  0
  -26.0920  -29.5260   20.6620 C   0  0  0  0  0  0  0  0  0  0  0  0
  -27.3060  -28.7930   20.6420 C   0  0  0  0  0  3  0  0  0  0  0  0
  -26.1820  -27.0010   19.4400 C   0  0  0  0  0  3  0  0  0  0  0  0
  -24.9760  -27.7270   19.4630 C   0  0  0  0  0  3  0  0  0  0  0  0
  -23.6750  -29.8260   20.1460 C   0  0  0  0  0  2  0  0  0  0  0  0
  -24.7220  -31.1090   22.0660 N   0  0  0  0  0  0  0  0  0  0  0  0
  -23.5810  -32.1480   23.7280 O   0  0  0  0  0  0  0  0  0  0  0  0
  -22.8440  -29.4480   22.4950 C   0  0  0  0  0  0  0  0  0  0  0  0
  -21.5280  -29.2140   22.3550 N   0  0  0  0  0  0  0  0  0  0  0  0
  -23.5410  -28.8540   23.3210 O   0  0  0  0  0  0  0  0  0  0  0  0
  -21.0230  -29.7470   21.6600 H   0  0  0  0  0  0  0  0  0  0  0  0
  -18.2130  -27.8350   22.7780 C   0  0  0  0  0  0  0  0  0  0  0  0
  -20.7410  -28.2480   23.1220 C   0  0  0  0  0  3  0  0  0  0  0  0
  -20.9440  -26.8130   22.5830 C   0  0  0  0  0  2  0  0  0  0  0  0
  -19.8950  -26.4040   21.5430 C   0  0  0  0  0  2  0  0  0  0  0  0
  -18.4870  -26.4850   22.1390 C   0  0  0  0  0  2  0  0  0  0  0  0
  -19.2720  -28.6700   23.2240 C   0  0  0  0  0  0  0  0  0  0  0  0
  -18.9620  -29.9310   23.7780 C   0  0  0  0  0  3  0  0  0  0  0  0
  -17.6260  -30.3610   23.8910 C   0  0  0  0  0  3  0  0  0  0  0  0
  -16.5810  -29.5250   23.4620 C   0  0  0  0  0  3  0  0  0  0  0  0
  -16.8740  -28.2650   22.9120 C   0  0  0  0  0  3  0  0  0  0  0  0
  -25.9410  -32.5530   23.7860 C   0  0  0  0  0  3  0  0  0  0  0  0
  -26.4750  -31.7970   25.0640 C   0  0  1  0  0  0  0  0  0  0  0  0
  -25.3920  -31.5500   26.1400 C   0  0  0  0  0  1  0  0  0  0  0  0
  -27.0770  -30.4250   24.6780 C   0  0  0  0  0  1  0  0  0  0  0  0
  -27.6200  -32.6100   25.7130 C   0  0  0  0  0  1  0  0  0  0  0  0
  -25.6170  -33.9490   24.1060 N   0  0  0  0  0  0  0  0  0  0  0  0
  -25.9200  -34.9980   23.3290 C   0  0  0  0  0  0  0  0  0  0  0  0
  -26.5730  -34.8920   22.2870 O   0  0  0  0  0  0  0  0  0  0  0  0
  -25.0380  -34.1050   24.9180 H   0  0  0  0  0  0  0  0  0  0  0  0
  -24.1490  -36.7510   22.9930 C   0  0  0  0  0  1  0  0  0  0  0  0
  -25.4190  -36.3830   23.7780 C   0  0  0  0  0  3  0  0  0  0  0  0
  -27.5560  -37.3200   24.5410 C   0  0  0  0  0  1  0  0  0  0  0  0
  -26.4280  -37.4530   23.6240 N   0  0  0  0  0  0  0  0  0  0  0  0
  -26.0090  -38.3680   23.7680 H   0  0  0  0  0  0  0  0  0  0  0  0
  1  2  1  0
  2  7  2  0
  3  6  1  0
  3  1  1  0
  4  1  2  0
  5  2  1  0
  6  5  1  0
  8  3  2  0
  9 10  1  0
 11 13  1  0
 12  9  2  0
 13  6  1  0
 13 10  2  0
 14 11  2  0
 14 12  1  0
 15 14  1  0
 16 15  1  0
 17 15  1  0
 18 12  1  0
 18 19  2  0
 20 19  1  0
 21 26  1  0
 22 23  1  0
 22 21  1  0
 24 23  1  0
 24 31  1  0
 24 25  1  0
 26 20  1  0
 26 25  1  0
 27 20  2  0
 28 29  2  0
 29 48  1  0
 30 29  1  0
 30 33  1  0
 31 32  1  0
 31 28  1  0
 32 30  2  0
 33 34  1  0
 34 35  2  0
 36 39  1  0
 36 35  1  0
 37 36  2  0
 38 37  1  0
 38 33  2  0
 39 40  1  0
 40 41  1  0
 41 42  2  0
 43 42  1  0
 43 47  1  0
 44 43  2  0
 45 40  2  0
 45 44  1  0
 46 45  1  0
 48 49  1  0
 49 52  1  0
 49 51  1  0
 50 48  2  0
 53 28  1  0
 53 54  1  0
 55 53  1  0
 56 58  1  0
 56  4  1  0
 57 68  2  0
 58 63  1  0
 59 67  1  0
 59 69  1  0
 60 66  1  0
 60 62  1  0
 61 67  1  0
 62 61  1  0
 63 62  2  0
 64 65  1  0
 64 58  2  0
 65 60  2  0
 66 59  1  0
 67 57  1  0
 69 71  2  0
 70 69  1  0
 72 70  1  0
 73 82  2  0
 73 78  1  0
 74 70  1  0
 74 78  1  0
 75 74  1  0
 76 77  1  0
 76 75  1  0
 77 73  1  0
 78 79  2  0
 79 80  1  0
 81 80  2  0
 82 81  1  0
 83 57  1  0
 83 88  1  0
 83 84  1  0
 84 87  1  1
 84 85  1  0
 86 84  1  0
 88 91  1  0
 89 93  1  0
 89 88  1  0
 90 89  2  0
 93 92  1  0
 95 96  1  0
 95 93  1  0
 95 94  1  0
M  ISO  4   4 101  19 100  20 100  56 101
M  END
>  <TORSDO>  (71) 
F 19

>  <SCORE>  (71) 
-13.125

>  <name>  (71) 
70

>  <ligand_id>  (71) 
70

>  <original_smiles>  (71) 
[H]C(=NC(=O)N1C([H])([H])C([H])([H])C([H])([H])C([H])(n2nc(-c3c([H])c([H])c(Oc4c([H])c([H])c(F)c([H])c4F)c([H])c3[H])c(C(=O)N([H])[H])c2N([H])[H])C1([H])[H])c1c([H])c([H])c(N2C(=O)C(=C([H])Oc3c([H])c([H])c4c(c3[H])C([H])([H])N(C(=O)C([H])(N([H])C(=O)C([H])(N([H])C([H])([H])[H])C([H])([H])[H])C(C([H])([H])[H])(C([H])([H])[H])C([H])([H])[H])C([H])(C(=O)N([H])C3([H])c5c([H])c([H])c([H])c([H])c5C([H])([H])C([H])([H])C3([H])[H])C4([H])[H])C(=O)C2([H])[H])c([H])c1N([H])[H]

>  <smiles>  (71) 
[H]C(=NC(=O)N1C([H])([H])C([H])([H])C([H])([H])C([H])(n2nc(-c3c([H])c([H])c(Oc4c([H])c([H])c(F)c([H])c4F)c([H])c3[H])c(C(=O)N([H])[H])c2N([H])[H])C1([H])[H])c1c([H])c([H])c(N2C(=O)C(=C([H])Oc3c([H])c([H])c4c(c3[H])C([H])([H])N(C(=O)C([H])(N([H])C(=O)C([H])(N([H])C([H])([H])[H])C([H])([H])[H])C(C([H])([H])[H])(C([H])([H])[H])C([H])([H])[H])C([H])(C(=O)N([H])C3([H])c5c([H])c([H])c([H])c([H])c5C([H])([H])C([H])([H])C3([H])[H])C4([H])[H])C(=O)C2([H])[H])c([H])c1N([H])[H]

$$$$
71:0:0
     RDKit          3D

 99108  0  0  1  0  0  0  0  0999 V2000
  -28.4940  -19.3990   20.0650 C   0  0  0  0  0  3  0  0  0  0  0  0
  -30.8050  -19.5340   20.6890 C   0  0  0  0  0  3  0  0  0  0  0  0
  -29.5980  -20.2410   20.3810 C   0  0  0  0  0  0  0  0  0  0  0  0
  -28.5870  -17.9720   20.0630 C   0  0  0  0  0  0  0  0  0  0  0  0
  -30.8980  -18.1000   20.7250 C   0  0  0  0  0  0  0  0  0  0  0  0
  -29.7770  -17.2760   20.4170 C   0  0  0  0  0  0  0  0  0  0  0  0
  -30.5180  -14.7510   20.2570 C   0  0  0  0  0  0  0  0  0  0  0  0
  -30.2970  -12.5040   19.1980 C   0  0  0  0  0  2  0  0  0  0  0  0
  -29.3170  -12.6250   18.0100 C   0  0  0  0  0  2  0  0  0  0  0  0
  -27.8570  -12.4550   18.4790 C   0  0  0  0  0  2  0  0  0  0  0  0
  -27.5270  -13.3100   19.7320 C   0  0  0  0  0  3  0  0  0  0  0  0
  -28.6200  -13.1640   20.8150 C   0  0  0  0  0  2  0  0  0  0  0  0
  -29.9080  -13.5210   20.1960 N   0  0  0  0  0  0  0  0  0  0  0  0
  -31.6870  -14.8960   19.8890 O   0  0  0  0  0  0  0  0  0  0  0  0
  -29.6920  -15.8110   20.5400 N   0  0  0  0  0  0  0  0  0  0  0  0
  -28.7440  -15.5170   20.7120 H   0  0  0  0  0  0  0  0  0  0  0  0
  -25.1550  -13.8960   20.5320 C   0  0  0  0  0  0  0  0  0  0  0  0
  -24.0960  -13.1170   20.9090 C   0  0  0  0  0  0  0  0  0  0  0  0
  -24.5560  -11.7670   20.8420 C   0  0  0  0  0  0  0  0  0  0  0  0
  -26.1930  -13.0210   20.2520 N   0  0  0  0  0  0  0  0  0  0  0  0
  -25.8390  -11.7330   20.5010 N   0  0  0  0  0  0  0  0  0  0  0  0
  -23.8330  -10.5040   21.0300 C   0  0  0  0  0  0  0  0  0  0  0  0
  -24.2720   -9.5300   21.9550 C   0  0  0  0  0  3  0  0  0  0  0  0
  -23.5470   -8.3320   22.1300 C   0  0  0  0  0  3  0  0  0  0  0  0
  -22.3690   -8.0990   21.3810 C   0  0  0  0  0  0  0  0  0  0  0  0
  -21.9480   -9.0610   20.4460 C   0  0  0  0  0  3  0  0  0  0  0  0
  -22.6740  -10.2500   20.2680 C   0  0  0  0  0  3  0  0  0  0  0  0
  -21.6150   -6.9530   21.4670 O   0  0  0  0  0  0  0  0  0  0  0  0
  -21.5530   -6.2180   22.6240 C   0  0  0  0  0  0  0  0  0  0  0  0
  -21.0830   -6.7710   23.8340 C   0  0  0  0  0  3  0  0  0  0  0  0
  -20.9690   -5.9610   24.9820 C   0  0  0  0  0  3  0  0  0  0  0  0
  -21.3170   -4.5980   24.9190 C   0  0  0  0  0  0  0  0  0  0  0  0
  -21.7800   -4.0440   23.7130 C   0  0  0  0  0  3  0  0  0  0  0  0
  -21.8950   -4.8520   22.5680 C   0  0  0  0  0  0  0  0  0  0  0  0
  -22.3220   -4.3080   21.4030 F   0  0  0  0  0  0  0  0  0  0  0  0
  -21.2000   -3.8180   26.0190 F   0  0  0  0  0  0  0  0  0  0  0  0
  -22.7080  -13.5920   21.2260 C   0  0  0  0  0  0  0  0  0  0  0  0
  -22.0010  -12.8820   22.0990 N   0  0  0  0  0  0  0  0  0  0  0  0
  -22.2590  -14.6280   20.7370 O   0  0  0  0  0  0  0  0  0  0  0  0
  -22.3770  -12.0440   22.5160 H   0  0  0  0  0  0  0  0  0  0  0  0
  -21.0710  -13.1820   22.3540 H   0  0  0  0  0  0  0  0  0  0  0  0
  -25.3010  -15.2710   20.3910 N   0  0  0  0  0  0  0  0  0  0  0  0
  -24.5270  -15.8990   20.5680 H   0  0  0  0  0  0  0  0  0  0  0  0
  -26.1580  -15.7800   20.1710 H   0  0  0  0  0  0  0  0  0  0  0  0
  -28.8520  -23.9890   20.3510 C   0  0  0  0  0  0  0  0  0  0  0  0
  -30.2690  -23.9820   20.0620 C   0  0  0  0  0  0  0  0  0  0  0  0
  -28.4500  -22.5700   20.5170 C   0  0  0  0  0  0  0  0  0  0  0  0
  -28.0170  -25.0870   20.4660 C   0  0  0  0  0  3  0  0  0  0  0  0
  -30.7520  -22.5330   20.1150 C   0  0  0  0  0  2  0  0  0  0  0  0
  -29.5360  -21.7300   20.3430 N   0  0  0  0  0  0  0  0  0  0  0  0
  -31.0030  -24.9490   19.8280 O   0  0  0  0  0  0  0  0  0  0  0  0
  -27.3060  -22.1810   20.7800 O   0  0  0  0  0  0  0  0  0  0  0  0
  -28.2780  -26.4760   20.3020 O   0  0  0  0  0  0  0  0  0  0  0  0
  -24.5950  -31.9730   23.2630 C   0  0  0  0  0  0  0  0  0  0  0  0
  -27.1870  -27.3670   20.2480 C   0  0  0  0  0  0  0  0  0  0  0  0
  -23.3880  -30.5710   21.6290 C   0  0  0  0  0  3  0  0  0  0  0  0
  -24.8340  -29.0040   20.2150 C   0  0  0  0  0  0  0  0  0  0  0  0
  -25.9300  -30.8680   21.4550 C   0  0  0  0  0  2  0  0  0  0  0  0
  -26.0040  -29.4820   20.8200 C   0  0  0  0  0  0  0  0  0  0  0  0
  -27.1820  -28.6740   20.8340 C   0  0  0  0  0  3  0  0  0  0  0  0
  -26.0020  -26.9590   19.5930 C   0  0  0  0  0  3  0  0  0  0  0  0
  -24.8350  -27.7470   19.5920 C   0  0  0  0  0  3  0  0  0  0  0  0
  -23.6020  -29.8860   20.2550 C   0  0  0  0  0  2  0  0  0  0  0  0
  -24.6570  -31.1560   22.1720 N   0  0  0  0  0  0  0  0  0  0  0  0
  -23.5120  -32.2630   23.7920 O   0  0  0  0  0  0  0  0  0  0  0  0
  -22.7150  -29.5660   22.5940 C   0  0  0  0  0  0  0  0  0  0  0  0
  -21.3890  -29.3930   22.4620 N   0  0  0  0  0  0  0  0  0  0  0  0
  -23.3860  -28.9440   23.4230 O   0  0  0  0  0  0  0  0  0  0  0  0
  -20.9070  -29.9450   21.7670 H   0  0  0  0  0  0  0  0  0  0  0  0
  -18.0010  -28.2290   22.9690 C   0  0  0  0  0  0  0  0  0  0  0  0
  -20.5610  -28.4650   23.2370 C   0  0  0  0  0  3  0  0  0  0  0  0
  -20.6500  -27.0310   22.6680 C   0  0  0  0  0  2  0  0  0  0  0  0
  -19.5450  -26.7140   21.6550 C   0  0  0  0  0  2  0  0  0  0  0  0
  -18.1640  -26.8750   22.2990 C   0  0  0  0  0  2  0  0  0  0  0  0
  -19.1260  -28.9830   23.3950 C   0  0  0  0  0  0  0  0  0  0  0  0
  -18.9190  -30.2500   23.9820 C   0  0  0  0  0  3  0  0  0  0  0  0
  -17.6190  -30.7630   24.1460 C   0  0  0  0  0  3  0  0  0  0  0  0
  -16.5070  -30.0070   23.7360 C   0  0  0  0  0  3  0  0  0  0  0  0
  -16.7000  -28.7410   23.1530 C   0  0  0  0  0  3  0  0  0  0  0  0
  -25.8810  -32.6020   23.8830 C   0  0  0  0  0  3  0  0  0  0  0  0
  -26.3940  -31.8320   25.1610 C   0  0  1  0  0  0  0  0  0  0  0  0
  -25.2980  -31.5960   26.2270 C   0  0  0  0  0  1  0  0  0  0  0  0
  -26.9760  -30.4520   24.7730 C   0  0  0  0  0  1  0  0  0  0  0  0
  -27.5440  -32.6240   25.8240 C   0  0  0  0  0  1  0  0  0  0  0  0
  -25.5760  -34.0020   24.2130 N   0  0  0  0  0  0  0  0  0  0  0  0
  -25.9010  -35.0530   23.4470 C   0  0  0  0  0  0  0  0  0  0  0  0
  -26.5590  -34.9460   22.4080 O   0  0  0  0  0  0  0  0  0  0  0  0
  -24.9900  -34.1600   25.0200 H   0  0  0  0  0  0  0  0  0  0  0  0
  -24.1700  -36.8470   23.1110 C   0  0  0  0  0  1  0  0  0  0  0  0
  -25.4220  -36.4430   23.9060 C   0  0  0  0  0  3  0  0  0  0  0  0
  -27.5650  -37.3330   24.7100 C   0  0  0  0  0  1  0  0  0  0  0  0
  -26.4530  -37.4950   23.7760 N   0  0  0  0  0  0  0  0  0  0  0  0
  -26.0490  -38.4160   23.9190 H   0  0  0  0  0  0  0  0  0  0  0  0
  -27.4760  -17.2280   19.6620 N   0  0  0  0  0  0  0  0  0  0  0  0
  -26.7110  -17.7890   19.3010 H   0  0  0  0  0  0  0  0  0  0  0  0
  -27.7120  -16.5170   18.9790 H   0  0  0  0  0  0  0  0  0  0  0  0
  -32.1080  -17.5100   21.0920 N   0  0  0  0  0  0  0  0  0  0  0  0
  -32.9500  -18.0590   20.9610 H   0  0  0  0  0  0  0  0  0  0  0  0
  -32.2220  -16.5520   20.7550 H   0  0  0  0  0  0  0  0  0  0  0  0
  1  3  1  0
  2  5  1  0
  3  2  2  0
  4  1  2  0
  4  6  1  0
  5 97  1  0
  6 15  1  0
  6  5  2  0
  7 15  1  0
  8 13  1  0
  9 10  1  0
  9  8  1  0
 11 10  1  0
 11 20  1  0
 11 12  1  0
 13  7  1  0
 13 12  1  0
 14  7  2  0
 15 16  1  0
 17 18  2  0
 18 37  1  0
 19 18  1  0
 19 22  1  0
 20 21  1  0
 20 17  1  0
 21 19  2  0
 22 23  1  0
 23 24  2  0
 25 28  1  0
 25 24  1  0
 26 25  2  0
 27 26  1  0
 27 22  2  0
 28 29  1  0
 29 30  1  0
 30 31  2  0
 32 31  1  0
 32 36  1  0
 33 32  2  0
 34 29  2  0
 34 33  1  0
 35 34  1  0
 37 38  1  0
 38 41  1  0
 38 40  1  0
 39 37  2  0
 42 17  1  0
 42 43  1  0
 44 42  1  0
 45 48  2  0
 45 47  1  0
 46 49  1  0
 46 45  1  0
 47 52  2  0
 49 50  1  0
 50  3  1  0
 50 47  1  0
 51 46  2  0
 53 48  1  0
 54 65  2  0
 55 53  1  0
 55 60  1  0
 56 64  1  0
 56 66  1  0
 57 63  1  0
 57 59  1  0
 58 64  1  0
 59 60  2  0
 59 58  1  0
 61 55  2  0
 62 61  1  0
 62 57  2  0
 63 56  1  0
 64 54  1  0
 66 68  2  0
 67 66  1  0
 69 67  1  0
 70 79  2  0
 70 75  1  0
 71 67  1  0
 71 75  1  0
 72 71  1  0
 73 74  1  0
 73 72  1  0
 74 70  1  0
 75 76  2  0
 76 77  1  0
 78 77  2  0
 79 78  1  0
 80 54  1  0
 80 85  1  0
 80 81  1  0
 81 84  1  1
 81 82  1  0
 83 81  1  0
 85 88  1  0
 86 90  1  0
 86 85  1  0
 87 86  2  0
 90 89  1  0
 92 90  1  0
 92 93  1  0
 92 91  1  0
 94  4  1  0
 95 94  1  0
 96 94  1  0
 98 97  1  0
 99 97  1  0
M  ISO  4   7 100  15 100  48 101  53 101
M  END
>  <TORSDO>  (72) 
F 19

>  <SCORE>  (72) 
-15.070

>  <name>  (72) 
71

>  <ligand_id>  (72) 
71

>  <original_smiles>  (72) 
[H]C(Oc1c([H])c([H])c2c(c1[H])C([H])([H])N(C(=O)C([H])(N([H])C(=O)C([H])(N([H])C([H])([H])[H])C([H])([H])[H])C(C([H])([H])[H])(C([H])([H])[H])C([H])([H])[H])C([H])(C(=O)N([H])C1([H])c3c([H])c([H])c([H])c([H])c3C([H])([H])C([H])([H])C1([H])[H])C2([H])[H])=C1C(=O)N(c2c([H])c(N([H])[H])c(N([H])C(=O)N3C([H])([H])C([H])([H])C([H])([H])C([H])(n4nc(-c5c([H])c([H])c(Oc6c([H])c([H])c(F)c([H])c6F)c([H])c5[H])c(C(=O)N([H])[H])c4N([H])[H])C3([H])[H])c(N([H])[H])c2[H])C([H])([H])C1=O

>  <smiles>  (72) 
[H]C(Oc1c([H])c([H])c2c(c1[H])C([H])([H])N(C(=O)C([H])(N([H])C(=O)C([H])(N([H])C([H])([H])[H])C([H])([H])[H])C(C([H])([H])[H])(C([H])([H])[H])C([H])([H])[H])C([H])(C(=O)N([H])C1([H])c3c([H])c([H])c([H])c([H])c3C([H])([H])C([H])([H])C1([H])[H])C2([H])[H])=C1C(=O)N(c2c([H])c(N([H])[H])c(N([H])C(=O)N3C([H])([H])C([H])([H])C([H])([H])C([H])(n4nc(-c5c([H])c([H])c(Oc6c([H])c([H])c(F)c([H])c6F)c([H])c5[H])c(C(=O)N([H])[H])c4N([H])[H])C3([H])[H])c(N([H])[H])c2[H])C([H])([H])C1=O

$$$$
72:0:0
     RDKit          3D

 92101  0  0  1  0  0  0  0  0999 V2000
  -28.6490  -23.9800   20.4770 C   0  0  0  0  0  0  0  0  0  0  0  0
  -29.5790  -23.4320   19.5070 C   0  0  0  0  0  0  0  0  0  0  0  0
  -28.1270  -25.2260   20.7550 C   0  0  0  0  0  3  0  0  0  0  0  0
  -28.4410  -22.5700   21.0670 C   0  0  0  0  0  2  0  0  0  0  0  0
  -29.4380  -22.1400   20.0720 N   0  0  0  0  0  0  0  0  0  0  0  0
  -30.1630  -23.9390   18.5730 O   0  0  0  0  0  0  0  0  0  0  0  0
  -30.8650  -19.1980   18.1370 C   0  0  0  0  0  3  0  0  0  0  0  0
  -30.6640  -18.0760   18.9600 C   0  0  0  0  0  3  0  0  0  0  0  0
  -30.4490  -20.4840   18.5420 C   0  0  0  0  0  3  0  0  0  0  0  0
  -30.0380  -18.2220   20.2090 C   0  0  0  0  0  0  0  0  0  0  0  0
  -29.8040  -20.7430   19.7750 C   0  0  0  0  0  0  0  0  0  0  0  0
  -29.6170  -19.5600   20.5890 C   0  0  0  0  0  0  0  0  0  0  0  0
  -29.0170  -19.7190   21.7950 F   0  0  0  0  0  0  0  0  0  0  0  0
  -29.8170  -17.0260   21.1190 C   0  0  0  0  0  3  0  0  0  0  0  0
  -30.0290  -15.6580   21.1510 C   0  0  0  0  0  3  0  0  0  0  0  0
  -30.6620  -14.6730   20.2280 C   0  0  0  0  0  0  0  0  0  0  0  0
  -30.3820  -12.4900   19.0320 C   0  0  0  0  0  2  0  0  0  0  0  0
  -29.3940  -12.6600   17.8570 C   0  0  0  0  0  2  0  0  0  0  0  0
  -27.9360  -12.4920   18.3280 C   0  0  0  0  0  2  0  0  0  0  0  0
  -27.6320  -13.3140   19.6090 C   0  0  0  0  0  3  0  0  0  0  0  0
  -28.7210  -13.0800   20.6750 C   0  0  0  0  0  2  0  0  0  0  0  0
  -30.0190  -13.4620   20.0860 N   0  0  0  0  0  0  0  0  0  0  0  0
  -31.7290  -14.8790   19.6430 O   0  0  0  0  0  0  0  0  0  0  0  0
  -25.2630  -13.9250   20.3970 C   0  0  0  0  0  0  0  0  0  0  0  0
  -24.2030  -13.1560   20.7970 C   0  0  0  0  0  0  0  0  0  0  0  0
  -24.6570  -11.8020   20.7470 C   0  0  0  0  0  0  0  0  0  0  0  0
  -26.2950  -13.0390   20.1280 N   0  0  0  0  0  0  0  0  0  0  0  0
  -25.9370  -11.7580   20.3970 N   0  0  0  0  0  0  0  0  0  0  0  0
  -23.9320  -10.5430   20.9580 C   0  0  0  0  0  0  0  0  0  0  0  0
  -24.3850   -9.5730   21.8800 C   0  0  0  0  0  3  0  0  0  0  0  0
  -23.6590   -8.3790   22.0770 C   0  0  0  0  0  3  0  0  0  0  0  0
  -22.4670   -8.1450   21.3530 C   0  0  0  0  0  0  0  0  0  0  0  0
  -22.0310   -9.1030   20.4200 C   0  0  0  0  0  3  0  0  0  0  0  0
  -22.7580  -10.2900   20.2210 C   0  0  0  0  0  3  0  0  0  0  0  0
  -21.7120   -7.0020   21.4590 O   0  0  0  0  0  0  0  0  0  0  0  0
  -21.6830   -6.2630   22.6150 C   0  0  0  0  0  0  0  0  0  0  0  0
  -21.2930   -6.8260   23.8490 C   0  0  0  0  0  3  0  0  0  0  0  0
  -21.2110   -6.0140   24.9980 C   0  0  0  0  0  3  0  0  0  0  0  0
  -21.5090   -4.6410   24.9130 C   0  0  0  0  0  0  0  0  0  0  0  0
  -21.8930   -4.0780   23.6840 C   0  0  0  0  0  3  0  0  0  0  0  0
  -21.9770   -4.8870   22.5370 C   0  0  0  0  0  0  0  0  0  0  0  0
  -22.3270   -4.3360   21.3500 F   0  0  0  0  0  0  0  0  0  0  0  0
  -21.4230   -3.8590   26.0150 F   0  0  0  0  0  0  0  0  0  0  0  0
  -22.8170  -13.6390   21.1150 C   0  0  0  0  0  0  0  0  0  0  0  0
  -22.1150  -12.9450   22.0030 N   0  0  0  0  0  0  0  0  0  0  0  0
  -22.3670  -14.6690   20.6120 O   0  0  0  0  0  0  0  0  0  0  0  0
  -22.4930  -12.1130   22.4320 H   0  0  0  0  0  0  0  0  0  0  0  0
  -21.1880  -13.2510   22.2610 H   0  0  0  0  0  0  0  0  0  0  0  0
  -25.4300  -15.2950   20.2230 N   0  0  0  0  0  0  0  0  0  0  0  0
  -24.6770  -15.9580   20.3720 H   0  0  0  0  0  0  0  0  0  0  0  0
  -26.2860  -15.7320   19.9050 H   0  0  0  0  0  0  0  0  0  0  0  0
  -28.3580  -26.4900   20.1750 O   0  0  0  0  0  0  0  0  0  0  0  0
  -24.6210  -31.8860   23.2050 C   0  0  0  0  0  0  0  0  0  0  0  0
  -27.2650  -27.3630   20.1440 C   0  0  0  0  0  0  0  0  0  0  0  0
  -23.4250  -30.4850   21.5600 C   0  0  0  0  0  3  0  0  0  0  0  0
  -24.8880  -28.9460   20.1330 C   0  0  0  0  0  0  0  0  0  0  0  0
  -25.9620  -30.8230   21.3790 C   0  0  0  0  0  2  0  0  0  0  0  0
  -26.0530  -29.4460   20.7300 C   0  0  0  0  0  0  0  0  0  0  0  0
  -27.2480  -28.6660   20.7280 C   0  0  0  0  0  3  0  0  0  0  0  0
  -26.0810  -26.9120   19.5230 C   0  0  0  0  0  3  0  0  0  0  0  0
  -24.9030  -27.6830   19.5210 C   0  0  0  0  0  3  0  0  0  0  0  0
  -23.6450  -29.8110   20.1790 C   0  0  0  0  0  2  0  0  0  0  0  0
  -24.6880  -31.0810   22.1050 N   0  0  0  0  0  0  0  0  0  0  0  0
  -23.5350  -32.1560   23.7400 O   0  0  0  0  0  0  0  0  0  0  0  0
  -22.7650  -29.4640   22.5170 C   0  0  0  0  0  0  0  0  0  0  0  0
  -21.4390  -29.2840   22.3890 N   0  0  0  0  0  0  0  0  0  0  0  0
  -23.4450  -28.8360   23.3330 O   0  0  0  0  0  0  0  0  0  0  0  0
  -20.9500  -29.8420   21.7040 H   0  0  0  0  0  0  0  0  0  0  0  0
  -18.0650  -28.0760   22.8780 C   0  0  0  0  0  0  0  0  0  0  0  0
  -20.6210  -28.3440   23.1560 C   0  0  0  0  0  3  0  0  0  0  0  0
  -20.7300  -26.9130   22.5800 C   0  0  0  0  0  2  0  0  0  0  0  0
  -19.6330  -26.5880   21.5620 C   0  0  0  0  0  2  0  0  0  0  0  0
  -18.2480  -26.7280   22.2010 C   0  0  0  0  0  2  0  0  0  0  0  0
  -19.1810  -28.8420   23.3110 C   0  0  0  0  0  0  0  0  0  0  0  0
  -18.9550  -30.1040   23.9030 C   0  0  0  0  0  3  0  0  0  0  0  0
  -17.6480  -30.6010   24.0650 C   0  0  0  0  0  3  0  0  0  0  0  0
  -16.5480  -29.8330   23.6470 C   0  0  0  0  0  3  0  0  0  0  0  0
  -16.7570  -28.5720   23.0590 C   0  0  0  0  0  3  0  0  0  0  0  0
  -25.9000  -32.5210   23.8310 C   0  0  0  0  0  3  0  0  0  0  0  0
  -25.5840  -33.9170   24.1650 N   0  0  0  0  0  0  0  0  0  0  0  0
  -25.9170  -34.9750   23.4120 C   0  0  0  0  0  0  0  0  0  0  0  0
  -26.5910  -34.8770   22.3830 O   0  0  0  0  0  0  0  0  0  0  0  0
  -24.9850  -34.0670   24.9630 H   0  0  0  0  0  0  0  0  0  0  0  0
  -24.1840  -36.7640   23.0600 C   0  0  0  0  0  1  0  0  0  0  0  0
  -25.4240  -36.3590   23.8740 C   0  0  0  0  0  3  0  0  0  0  0  0
  -27.5530  -37.2480   24.7140 C   0  0  0  0  0  1  0  0  0  0  0  0
  -26.4540  -37.4150   23.7680 N   0  0  0  0  0  0  0  0  0  0  0  0
  -26.0450  -38.3350   23.9160 H   0  0  0  0  0  0  0  0  0  0  0  0
  -26.4170  -31.7490   25.1070 C   0  0  1  0  0  0  0  0  0  0  0  0
  -25.3240  -31.5070   26.1720 C   0  0  0  0  0  1  0  0  0  0  0  0
  -27.0050  -30.3740   24.7140 C   0  0  0  0  0  1  0  0  0  0  0  0
  -27.5640  -32.5460   25.7710 C   0  0  0  0  0  1  0  0  0  0  0  0
  1  3  2  0
  1  4  1  0
  2  5  1  0
  2  1  1  0
  5  4  1  0
  6  2  2  0
  7  9  2  0
  7  8  1  0
  8 10  2  0
  9 11  1  0
 10 12  1  0
 10 14  1  0
 11  5  1  0
 11 12  2  0
 12 13  1  0
 14 15  2  0
 16 15  1  0
 17 22  1  0
 18 19  1  0
 18 17  1  0
 20 19  1  0
 20 27  1  0
 20 21  1  0
 22 16  1  0
 22 21  1  0
 23 16  2  0
 24 25  2  0
 25 44  1  0
 26 25  1  0
 26 29  1  0
 27 24  1  0
 27 28  1  0
 28 26  2  0
 29 30  1  0
 30 31  2  0
 32 35  1  0
 32 31  1  0
 33 32  2  0
 34 33  1  0
 34 29  2  0
 35 36  1  0
 36 37  1  0
 37 38  2  0
 39 38  1  0
 39 43  1  0
 40 39  2  0
 41 36  2  0
 41 40  1  0
 42 41  1  0
 44 45  1  0
 45 48  1  0
 45 47  1  0
 46 44  2  0
 49 50  1  0
 49 24  1  0
 51 49  1  0
 52  3  1  0
 53 64  2  0
 54 52  1  0
 54 59  1  0
 55 63  1  0
 55 65  1  0
 56 62  1  0
 56 58  1  0
 57 63  1  0
 58 57  1  0
 59 58  2  0
 60 54  2  0
 61 60  1  0
 61 56  2  0
 62 55  1  0
 63 53  1  0
 65 67  2  0
 66 65  1  0
 68 66  1  0
 69 78  2  0
 69 74  1  0
 70 66  1  0
 70 74  1  0
 71 70  1  0
 72 73  1  0
 72 71  1  0
 73 69  1  0
 74 75  2  0
 75 76  1  0
 77 76  2  0
 78 77  1  0
 79 53  1  0
 79 80  1  0
 79 89  1  0
 80 83  1  0
 81 85  1  0
 81 80  1  0
 82 81  2  0
 85 84  1  0
 87 85  1  0
 87 88  1  0
 87 86  1  0
 89 92  1  1
 89 90  1  0
 91 89  1  0
M  ISO  4   3 101  15 100  16 100  52 101
M  END
>  <TORSDO>  (73) 
F 18

>  <SCORE>  (73) 
-14.479

>  <name>  (73) 
72

>  <ligand_id>  (73) 
72

>  <original_smiles>  (73) 
[H]C(Oc1c([H])c([H])c2c(c1[H])C([H])([H])N(C(=O)C([H])(N([H])C(=O)C([H])(N([H])C([H])([H])[H])C([H])([H])[H])C(C([H])([H])[H])(C([H])([H])[H])C([H])([H])[H])C([H])(C(=O)N([H])C1([H])c3c([H])c([H])c([H])c([H])c3C([H])([H])C([H])([H])C1([H])[H])C2([H])[H])=C1C(=O)N(c2c([H])c([H])c([H])c(C([H])=C([H])C(=O)N3C([H])([H])C([H])([H])C([H])([H])C([H])(n4nc(-c5c([H])c([H])c(Oc6c([H])c([H])c(F)c([H])c6F)c([H])c5[H])c(C(=O)N([H])[H])c4N([H])[H])C3([H])[H])c2F)C1([H])[H]

>  <smiles>  (73) 
[H]C(Oc1c([H])c([H])c2c(c1[H])C([H])([H])N(C(=O)C([H])(N([H])C(=O)C([H])(N([H])C([H])([H])[H])C([H])([H])[H])C(C([H])([H])[H])(C([H])([H])[H])C([H])([H])[H])C([H])(C(=O)N([H])C1([H])c3c([H])c([H])c([H])c([H])c3C([H])([H])C([H])([H])C1([H])[H])C2([H])[H])=C1C(=O)N(c2c([H])c([H])c([H])c(C([H])=C([H])C(=O)N3C([H])([H])C([H])([H])C([H])([H])C([H])(n4nc(-c5c([H])c([H])c(Oc6c([H])c([H])c(F)c([H])c6F)c([H])c5[H])c(C(=O)N([H])[H])c4N([H])[H])C3([H])[H])c2F)C1([H])[H]

$$$$
73:0:0
     RDKit          3D

 95103  0  0  1  0  0  0  0  0999 V2000
  -28.6210  -20.7070   19.0790 C   0  0  0  0  0  0  0  0  0  0  0  0
  -28.7070  -21.7270   19.9500 N   0  0  0  0  0  0  0  0  0  0  0  0
  -28.0910  -20.8280   17.9720 O   0  0  0  0  0  0  0  0  0  0  0  0
  -29.2410  -21.5920   20.7980 H   0  0  0  0  0  0  0  0  0  0  0  0
  -29.6470  -18.4730   18.5020 C   0  0  0  0  0  3  0  0  0  0  0  0
  -30.0290  -17.1570   18.8370 C   0  0  0  0  0  3  0  0  0  0  0  0
  -29.1640  -18.9430   20.8360 C   0  0  0  0  0  3  0  0  0  0  0  0
  -29.1940  -19.3740   19.4890 C   0  0  0  0  0  0  0  0  0  0  0  0
  -29.9520  -16.7100   20.1790 C   0  0  0  0  0  0  0  0  0  0  0  0
  -29.5310  -17.6230   21.1720 C   0  0  0  0  0  0  0  0  0  0  0  0
  -29.4420  -17.2160   22.4620 F   0  0  0  0  0  0  0  0  0  0  0  0
  -30.7670  -14.3850   19.8450 C   0  0  0  0  0  0  0  0  0  0  0  0
  -30.3310  -12.2700   18.6640 C   0  0  0  0  0  2  0  0  0  0  0  0
  -29.2770  -12.5420   17.5680 C   0  0  0  0  0  2  0  0  0  0  0  0
  -27.8520  -12.4110   18.1400 C   0  0  0  0  0  2  0  0  0  0  0  0
  -27.6600  -13.2050   19.4600 C   0  0  0  0  0  3  0  0  0  0  0  0
  -28.8120  -12.9140   20.4480 C   0  0  0  0  0  2  0  0  0  0  0  0
  -30.0860  -13.2100   19.7680 N   0  0  0  0  0  0  0  0  0  0  0  0
  -31.8190  -14.5960   19.2320 O   0  0  0  0  0  0  0  0  0  0  0  0
  -30.1660  -15.3500   20.5610 N   0  0  0  0  0  0  0  0  0  0  0  0
  -29.5240  -15.0200   21.2650 H   0  0  0  0  0  0  0  0  0  0  0  0
  -25.3560  -13.8350   20.4220 C   0  0  0  0  0  0  0  0  0  0  0  0
  -24.3110  -13.0680   20.8630 C   0  0  0  0  0  0  0  0  0  0  0  0
  -24.7340  -11.7100   20.7330 C   0  0  0  0  0  0  0  0  0  0  0  0
  -26.3530  -12.9420   20.0560 N   0  0  0  0  0  0  0  0  0  0  0  0
  -25.9860  -11.6590   20.2980 N   0  0  0  0  0  0  0  0  0  0  0  0
  -24.0010  -10.4550   20.9450 C   0  0  0  0  0  0  0  0  0  0  0  0
  -24.4760   -9.4650   21.8340 C   0  0  0  0  0  3  0  0  0  0  0  0
  -23.7450   -8.2750   22.0360 C   0  0  0  0  0  3  0  0  0  0  0  0
  -22.5270   -8.0640   21.3480 C   0  0  0  0  0  0  0  0  0  0  0  0
  -22.0700   -9.0430   20.4460 C   0  0  0  0  0  3  0  0  0  0  0  0
  -22.8000  -10.2250   20.2430 C   0  0  0  0  0  3  0  0  0  0  0  0
  -21.7640   -6.9270   21.4580 O   0  0  0  0  0  0  0  0  0  0  0  0
  -21.7270   -6.1960   22.6170 C   0  0  0  0  0  0  0  0  0  0  0  0
  -21.3350   -6.7690   23.8480 C   0  0  0  0  0  3  0  0  0  0  0  0
  -21.2450   -5.9650   25.0010 C   0  0  0  0  0  3  0  0  0  0  0  0
  -21.5370   -4.5900   24.9260 C   0  0  0  0  0  0  0  0  0  0  0  0
  -21.9220   -4.0160   23.7020 C   0  0  0  0  0  3  0  0  0  0  0  0
  -22.0140   -4.8160   22.5500 C   0  0  0  0  0  0  0  0  0  0  0  0
  -22.3640   -4.2560   21.3680 F   0  0  0  0  0  0  0  0  0  0  0  0
  -21.4430   -3.8160   26.0330 F   0  0  0  0  0  0  0  0  0  0  0  0
  -22.9580  -13.5600   21.2920 C   0  0  0  0  0  0  0  0  0  0  0  0
  -22.3130  -12.8510   22.2110 N   0  0  0  0  0  0  0  0  0  0  0  0
  -22.4860  -14.6050   20.8490 O   0  0  0  0  0  0  0  0  0  0  0  0
  -22.7040  -12.0000   22.5870 H   0  0  0  0  0  0  0  0  0  0  0  0
  -21.4120  -13.1650   22.5440 H   0  0  0  0  0  0  0  0  0  0  0  0
  -25.5370  -15.2080   20.2870 N   0  0  0  0  0  0  0  0  0  0  0  0
  -24.8100  -15.8760   20.5140 H   0  0  0  0  0  0  0  0  0  0  0  0
  -26.3750  -15.6470   19.9230 H   0  0  0  0  0  0  0  0  0  0  0  0
  -26.6160  -22.9090   20.4720 C   0  0  0  0  0  1  0  0  0  0  0  0
  -27.9990  -23.0110   19.8030 C   0  0  0  0  0  3  0  0  0  0  0  0
  -28.8110  -24.2160   20.3220 C   0  0  0  0  0  0  0  0  0  0  0  0
  -29.4470  -24.1700   21.3820 O   0  0  0  0  0  0  0  0  0  0  0  0
  -28.8250  -25.4950   19.4570 C   0  0  0  0  0  2  0  0  0  0  0  0
  -28.6120  -26.6840   20.2390 O   0  0  0  0  0  0  0  0  0  0  0  0
  -24.5410  -31.7330   23.1800 C   0  0  0  0  0  0  0  0  0  0  0  0
  -27.3900  -27.3320   20.2020 C   0  0  0  0  0  0  0  0  0  0  0  0
  -23.4130  -30.2790   21.5270 C   0  0  0  0  0  3  0  0  0  0  0  0
  -24.9430  -28.7710   20.1560 C   0  0  0  0  0  0  0  0  0  0  0  0
  -25.9340  -30.7090   21.3820 C   0  0  0  0  0  2  0  0  0  0  0  0
  -26.0730  -29.3320   20.7610 C   0  0  0  0  0  0  0  0  0  0  0  0
  -27.2940  -28.6190   20.7840 C   0  0  0  0  0  3  0  0  0  0  0  0
  -26.2270  -26.7740   19.6160 C   0  0  0  0  0  3  0  0  0  0  0  0
  -25.0140  -27.4880   19.5890 C   0  0  0  0  0  3  0  0  0  0  0  0
  -23.6760  -29.5960   20.1590 C   0  0  0  0  0  2  0  0  0  0  0  0
  -24.6470  -30.9220   22.0900 N   0  0  0  0  0  0  0  0  0  0  0  0
  -23.4400  -31.9820   23.6910 O   0  0  0  0  0  0  0  0  0  0  0  0
  -22.7700  -29.2490   22.4810 C   0  0  0  0  0  0  0  0  0  0  0  0
  -21.4550  -29.0250   22.3230 N   0  0  0  0  0  0  0  0  0  0  0  0
  -23.4510  -28.6540   23.3210 O   0  0  0  0  0  0  0  0  0  0  0  0
  -20.9640  -29.5550   21.6170 H   0  0  0  0  0  0  0  0  0  0  0  0
  -18.1120  -27.7260   22.7410 C   0  0  0  0  0  0  0  0  0  0  0  0
  -20.6500  -28.0710   23.0830 C   0  0  0  0  0  3  0  0  0  0  0  0
  -20.8180  -26.6380   22.5290 C   0  0  0  0  0  2  0  0  0  0  0  0
  -19.7590  -26.2680   21.4870 C   0  0  0  0  0  2  0  0  0  0  0  0
  -18.3540  -26.3760   22.0880 C   0  0  0  0  0  2  0  0  0  0  0  0
  -19.1920  -28.5300   23.1940 C   0  0  0  0  0  0  0  0  0  0  0  0
  -18.9170  -29.7940   23.7580 C   0  0  0  0  0  3  0  0  0  0  0  0
  -17.5920  -30.2550   23.8760 C   0  0  0  0  0  3  0  0  0  0  0  0
  -16.5250  -29.4490   23.4400 C   0  0  0  0  0  3  0  0  0  0  0  0
  -16.7870  -28.1860   22.8780 C   0  0  0  0  0  3  0  0  0  0  0  0
  -25.7950  -32.4060   23.8220 C   0  0  0  0  0  3  0  0  0  0  0  0
  -26.3140  -31.6540   25.1090 C   0  0  1  0  0  0  0  0  0  0  0  0
  -25.2100  -31.3830   26.1570 C   0  0  0  0  0  1  0  0  0  0  0  0
  -26.9490  -30.2970   24.7300 C   0  0  0  0  0  1  0  0  0  0  0  0
  -27.4250  -32.4890   25.7910 C   0  0  0  0  0  1  0  0  0  0  0  0
  -25.4370  -33.7940   24.1380 N   0  0  0  0  0  0  0  0  0  0  0  0
  -25.7370  -34.8500   23.3710 C   0  0  0  0  0  0  0  0  0  0  0  0
  -26.4180  -34.7610   22.3460 O   0  0  0  0  0  0  0  0  0  0  0  0
  -24.8340  -33.9340   24.9350 H   0  0  0  0  0  0  0  0  0  0  0  0
  -23.9470  -36.5740   22.9880 C   0  0  0  0  0  1  0  0  0  0  0  0
  -25.1970  -36.2240   23.8110 C   0  0  0  0  0  3  0  0  0  0  0  0
  -27.2940  -37.1940   24.6430 C   0  0  0  0  0  1  0  0  0  0  0  0
  -26.1920  -37.3130   23.6910 N   0  0  0  0  0  0  0  0  0  0  0  0
  -25.7520  -38.2190   23.8260 H   0  0  0  0  0  0  0  0  0  0  0  0
  1  8  1  0
  1  2  1  0
  2  4  1  0
  3  1  2  0
  5  6  2  0
  5  8  1  0
  6  9  1  0
  7 10  1  0
  8  7  2  0
  9 20  1  0
  9 10  2  0
 10 11  1  0
 12 20  1  0
 13 18  1  0
 14 15  1  0
 14 13  1  0
 16 15  1  0
 16 25  1  0
 16 17  1  0
 18 12  1  0
 18 17  1  0
 19 12  2  0
 20 21  1  0
 22 23  2  0
 23 42  1  0
 24 23  1  0
 24 27  1  0
 25 26  1  0
 25 22  1  0
 26 24  2  0
 27 28  1  0
 28 29  2  0
 30 33  1  0
 30 29  1  0
 31 30  2  0
 32 31  1  0
 32 27  2  0
 33 34  1  0
 34 35  1  0
 35 36  2  0
 37 36  1  0
 37 41  1  0
 38 37  2  0
 39 34  2  0
 39 38  1  0
 40 39  1  0
 42 43  1  0
 43 46  1  0
 43 45  1  0
 44 42  2  0
 47 22  1  0
 47 48  1  0
 49 47  1  0
 51  2  1  0
 51 52  1  0
 51 50  1  0
 52 53  2  0
 54 55  1  0
 54 52  1  0
 56 67  2  0
 57 55  1  0
 57 62  1  0
 58 66  1  0
 58 68  1  0
 59 65  1  0
 59 61  1  0
 60 66  1  0
 61 62  2  0
 61 60  1  0
 63 57  2  0
 64 63  1  0
 64 59  2  0
 65 58  1  0
 66 56  1  0
 68 70  2  0
 69 68  1  0
 71 69  1  0
 72 81  2  0
 72 77  1  0
 73 69  1  0
 73 77  1  0
 74 73  1  0
 75 76  1  0
 75 74  1  0
 76 72  1  0
 77 78  2  0
 78 79  1  0
 80 79  2  0
 81 80  1  0
 82 56  1  0
 82 87  1  0
 82 83  1  0
 83 86  1  1
 83 84  1  0
 85 83  1  0
 87 90  1  0
 88 92  1  0
 88 87  1  0
 89 88  2  0
 92 91  1  0
 94 92  1  0
 94 95  1  0
 94 93  1  0
M  ISO  4  12 100  20 100  54 101  55 101
M  END
>  <TORSDO>  (74) 
F 20

>  <SCORE>  (74) 
-12.977

>  <name>  (74) 
73

>  <ligand_id>  (74) 
73

>  <original_smiles>  (74) 
[H]c1c([H])c([H])c2c(c1[H])C([H])([H])C([H])([H])C([H])([H])C2([H])N([H])C(=O)C1([H])N(C(=O)C([H])(N([H])C(=O)C([H])(N([H])C([H])([H])[H])C([H])([H])[H])C(C([H])([H])[H])(C([H])([H])[H])C([H])([H])[H])C([H])([H])c2c([H])c(OC([H])([H])C(=O)C([H])(N([H])C(=O)c3c([H])c([H])c(N([H])C(=O)N4C([H])([H])C([H])([H])C([H])([H])C([H])(n5nc(-c6c([H])c([H])c(Oc7c([H])c([H])c(F)c([H])c7F)c([H])c6[H])c(C(=O)N([H])[H])c5N([H])[H])C4([H])[H])c(F)c3[H])C([H])([H])[H])c([H])c([H])c2C1([H])[H]

>  <smiles>  (74) 
[H]c1c([H])c([H])c2c(c1[H])C([H])([H])C([H])([H])C([H])([H])C2([H])N([H])C(=O)C1([H])N(C(=O)C([H])(N([H])C(=O)C([H])(N([H])C([H])([H])[H])C([H])([H])[H])C(C([H])([H])[H])(C([H])([H])[H])C([H])([H])[H])C([H])([H])c2c([H])c(OC([H])([H])C(=O)C([H])(N([H])C(=O)c3c([H])c([H])c(N([H])C(=O)N4C([H])([H])C([H])([H])C([H])([H])C([H])(n5nc(-c6c([H])c([H])c(Oc7c([H])c([H])c(F)c([H])c7F)c([H])c6[H])c(C(=O)N([H])[H])c5N([H])[H])C4([H])[H])c(F)c3[H])C([H])([H])[H])c([H])c([H])c2C1([H])[H]

$$$$
74:0:0
     RDKit          3D

 94103  0  0  1  0  0  0  0  0999 V2000
  -30.3280  -24.4170   20.7950 C   0  0  0  0  0  3  0  0  0  0  0  0
  -29.2200  -23.9840   20.1690 C   0  0  0  0  0  0  0  0  0  0  0  0
  -29.0060  -22.5000   19.9880 C   0  0  0  0  0  0  0  0  0  0  0  0
  -31.4140  -23.5070   21.2990 C   0  0  0  0  0  2  0  0  0  0  0  0
  -31.3880  -22.1590   20.5700 C   0  0  0  0  0  2  0  0  0  0  0  0
  -30.0410  -21.6160   20.2990 N   0  0  0  0  0  0  0  0  0  0  0  0
  -27.9270  -22.0690   19.5690 O   0  0  0  0  0  0  0  0  0  0  0  0
  -31.1340  -19.3330   20.0090 C   0  0  0  0  0  3  0  0  0  0  0  0
  -31.1410  -17.9050   20.0690 C   0  0  0  0  0  3  0  0  0  0  0  0
  -28.7970  -19.3750   20.5350 C   0  0  0  0  0  3  0  0  0  0  0  0
  -29.9710  -20.1280   20.2540 C   0  0  0  0  0  0  0  0  0  0  0  0
  -29.9680  -17.1700   20.3760 C   0  0  0  0  0  0  0  0  0  0  0  0
  -28.7980  -17.9470   20.5940 C   0  0  0  0  0  0  0  0  0  0  0  0
  -27.6410  -17.3010   20.8760 F   0  0  0  0  0  0  0  0  0  0  0  0
  -30.6220  -14.6680   20.0250 C   0  0  0  0  0  0  0  0  0  0  0  0
  -30.3300  -12.4570   18.9200 C   0  0  0  0  0  2  0  0  0  0  0  0
  -29.3140  -12.6250   17.7690 C   0  0  0  0  0  2  0  0  0  0  0  0
  -27.8690  -12.4630   18.2840 C   0  0  0  0  0  2  0  0  0  0  0  0
  -27.5960  -13.2950   19.5650 C   0  0  0  0  0  3  0  0  0  0  0  0
  -28.7190  -13.1020   20.6090 C   0  0  0  0  0  2  0  0  0  0  0  0
  -29.9950  -13.4500   19.9610 N   0  0  0  0  0  0  0  0  0  0  0  0
  -31.7560  -14.8250   19.5620 O   0  0  0  0  0  0  0  0  0  0  0  0
  -29.8580  -15.7100   20.4770 N   0  0  0  0  0  0  0  0  0  0  0  0
  -28.9790  -15.4110   20.8700 H   0  0  0  0  0  0  0  0  0  0  0  0
  -25.2550  -13.8940   20.4430 C   0  0  0  0  0  0  0  0  0  0  0  0
  -24.2040  -13.1190   20.8520 C   0  0  0  0  0  0  0  0  0  0  0  0
  -24.6490  -11.7660   20.7540 C   0  0  0  0  0  0  0  0  0  0  0  0
  -26.2750  -13.0120   20.1210 N   0  0  0  0  0  0  0  0  0  0  0  0
  -25.9190  -11.7240   20.3670 N   0  0  0  0  0  0  0  0  0  0  0  0
  -23.9220  -10.5050   20.9500 C   0  0  0  0  0  0  0  0  0  0  0  0
  -24.3610   -9.5350   21.8780 C   0  0  0  0  0  3  0  0  0  0  0  0
  -23.6350   -8.3390   22.0620 C   0  0  0  0  0  3  0  0  0  0  0  0
  -22.4540   -8.1050   21.3180 C   0  0  0  0  0  0  0  0  0  0  0  0
  -22.0330   -9.0630   20.3800 C   0  0  0  0  0  3  0  0  0  0  0  0
  -22.7600  -10.2500   20.1930 C   0  0  0  0  0  3  0  0  0  0  0  0
  -21.6970   -6.9600   21.4130 O   0  0  0  0  0  0  0  0  0  0  0  0
  -21.6100   -6.2500   22.5830 C   0  0  0  0  0  0  0  0  0  0  0  0
  -21.1390   -6.8370   23.7770 C   0  0  0  0  0  3  0  0  0  0  0  0
  -20.9990   -6.0520   24.9390 C   0  0  0  0  0  3  0  0  0  0  0  0
  -21.3200   -4.6810   24.9070 C   0  0  0  0  0  0  0  0  0  0  0  0
  -21.7840   -4.0940   23.7170 C   0  0  0  0  0  3  0  0  0  0  0  0
  -21.9260   -4.8770   22.5570 C   0  0  0  0  0  0  0  0  0  0  0  0
  -22.3530   -4.3020   21.4080 F   0  0  0  0  0  0  0  0  0  0  0  0
  -21.1780   -3.9260   26.0210 F   0  0  0  0  0  0  0  0  0  0  0  0
  -22.8310  -13.6010   21.2230 C   0  0  0  0  0  0  0  0  0  0  0  0
  -22.1520  -12.8880   22.1160 N   0  0  0  0  0  0  0  0  0  0  0  0
  -22.3720  -14.6430   20.7600 O   0  0  0  0  0  0  0  0  0  0  0  0
  -22.5370  -12.0440   22.5120 H   0  0  0  0  0  0  0  0  0  0  0  0
  -21.2340  -13.1920   22.4080 H   0  0  0  0  0  0  0  0  0  0  0  0
  -25.4220  -15.2670   20.3000 N   0  0  0  0  0  0  0  0  0  0  0  0
  -24.6780  -15.9240   20.5100 H   0  0  0  0  0  0  0  0  0  0  0  0
  -26.2780  -15.7240   20.0100 H   0  0  0  0  0  0  0  0  0  0  0  0
  -28.1440  -25.0160   19.6840 C   0  0  0  0  0  2  0  0  0  0  0  0
  -28.3260  -26.4610   19.9910 O   0  0  0  0  0  0  0  0  0  0  0  0
  -24.4480  -31.6890   23.1210 C   0  0  0  0  0  0  0  0  0  0  0  0
  -27.1880  -27.2870   19.9490 C   0  0  0  0  0  0  0  0  0  0  0  0
  -23.2860  -30.3070   21.4380 C   0  0  0  0  0  3  0  0  0  0  0  0
  -24.7810  -28.8390   19.9740 C   0  0  0  0  0  0  0  0  0  0  0  0
  -25.8180  -30.6950   21.2760 C   0  0  0  0  0  2  0  0  0  0  0  0
  -25.9350  -29.3390   20.5900 C   0  0  0  0  0  0  0  0  0  0  0  0
  -27.1400  -28.5750   20.5690 C   0  0  0  0  0  3  0  0  0  0  0  0
  -26.0070  -26.8470   19.3040 C   0  0  0  0  0  3  0  0  0  0  0  0
  -24.8190  -27.5980   19.3230 C   0  0  0  0  0  3  0  0  0  0  0  0
  -23.5220  -29.6790   20.0410 C   0  0  0  0  0  2  0  0  0  0  0  0
  -24.5360  -30.9140   22.0020 N   0  0  0  0  0  0  0  0  0  0  0  0
  -23.3560  -31.9250   23.6580 O   0  0  0  0  0  0  0  0  0  0  0  0
  -22.6460  -29.2470   22.3660 C   0  0  0  0  0  0  0  0  0  0  0  0
  -21.3260  -29.0380   22.2240 N   0  0  0  0  0  0  0  0  0  0  0  0
  -23.3350  -28.6180   23.1720 O   0  0  0  0  0  0  0  0  0  0  0  0
  -20.8280  -29.6010   21.5470 H   0  0  0  0  0  0  0  0  0  0  0  0
  -17.9730  -27.7570   22.6800 C   0  0  0  0  0  0  0  0  0  0  0  0
  -20.5250  -28.0610   22.9640 C   0  0  0  0  0  3  0  0  0  0  0  0
  -20.6580  -26.6500   22.3440 C   0  0  0  0  0  2  0  0  0  0  0  0
  -19.5650  -26.3360   21.3190 C   0  0  0  0  0  2  0  0  0  0  0  0
  -18.1790  -26.4320   21.9630 C   0  0  0  0  0  2  0  0  0  0  0  0
  -19.0760  -28.5290   23.1350 C   0  0  0  0  0  0  0  0  0  0  0  0
  -18.8290  -29.7680   23.7640 C   0  0  0  0  0  3  0  0  0  0  0  0
  -17.5140  -30.2360   23.9430 C   0  0  0  0  0  3  0  0  0  0  0  0
  -16.4270  -29.4610   23.5040 C   0  0  0  0  0  3  0  0  0  0  0  0
  -16.6570  -28.2230   22.8790 C   0  0  0  0  0  3  0  0  0  0  0  0
  -25.7130  -32.3360   23.7670 C   0  0  0  0  0  3  0  0  0  0  0  0
  -25.3770  -33.7270   24.1030 N   0  0  0  0  0  0  0  0  0  0  0  0
  -25.6800  -34.7870   23.3420 C   0  0  0  0  0  0  0  0  0  0  0  0
  -26.3400  -34.6990   22.3030 O   0  0  0  0  0  0  0  0  0  0  0  0
  -24.7890  -33.8680   24.9110 H   0  0  0  0  0  0  0  0  0  0  0  0
  -23.8960  -36.5330   23.0280 C   0  0  0  0  0  1  0  0  0  0  0  0
  -25.1690  -36.1650   23.8070 C   0  0  0  0  0  3  0  0  0  0  0  0
  -27.3000  -37.1100   24.5780 C   0  0  0  0  0  1  0  0  0  0  0  0
  -26.1700  -37.2440   23.6620 N   0  0  0  0  0  0  0  0  0  0  0  0
  -25.7440  -38.1540   23.8170 H   0  0  0  0  0  0  0  0  0  0  0  0
  -26.2200  -31.5630   25.0460 C   0  0  1  0  0  0  0  0  0  0  0  0
  -25.1130  -31.3020   26.0950 C   0  0  0  0  0  1  0  0  0  0  0  0
  -26.8290  -30.1970   24.6550 C   0  0  0  0  0  1  0  0  0  0  0  0
  -27.3470  -32.3690   25.7320 C   0  0  0  0  0  1  0  0  0  0  0  0
  1  4  1  0
  2  1  2  0
  3  2  1  0
  3  6  1  0
  5  4  1  0
  6  5  1  0
  7  3  2  0
  8  9  2  0
  8 11  1  0
  9 12  1  0
 10 13  1  0
 11  6  1  0
 11 10  2  0
 12 23  1  0
 12 13  2  0
 13 14  1  0
 15 23  1  0
 16 21  1  0
 17 18  1  0
 17 16  1  0
 19 18  1  0
 19 28  1  0
 19 20  1  0
 21 15  1  0
 21 20  1  0
 22 15  2  0
 23 24  1  0
 25 26  2  0
 26 45  1  0
 27 26  1  0
 27 30  1  0
 28 29  1  0
 28 25  1  0
 29 27  2  0
 30 31  1  0
 31 32  2  0
 33 36  1  0
 33 32  1  0
 34 33  2  0
 35 34  1  0
 35 30  2  0
 36 37  1  0
 37 38  1  0
 38 39  2  0
 40 39  1  0
 40 44  1  0
 41 40  2  0
 42 37  2  0
 42 41  1  0
 43 42  1  0
 45 46  1  0
 46 49  1  0
 46 48  1  0
 47 45  2  0
 50 25  1  0
 50 51  1  0
 52 50  1  0
 53 54  1  0
 53  2  1  0
 55 66  2  0
 56 54  1  0
 56 61  1  0
 57 65  1  0
 57 67  1  0
 58 64  1  0
 58 60  1  0
 59 65  1  0
 60 59  1  0
 61 60  2  0
 62 63  1  0
 62 56  2  0
 63 58  2  0
 64 57  1  0
 65 55  1  0
 67 69  2  0
 68 67  1  0
 70 68  1  0
 71 80  2  0
 71 76  1  0
 72 68  1  0
 72 76  1  0
 73 72  1  0
 74 75  1  0
 74 73  1  0
 75 71  1  0
 76 77  2  0
 77 78  1  0
 79 78  2  0
 80 79  1  0
 81 55  1  0
 81 82  1  0
 81 91  1  0
 82 85  1  0
 83 87  1  0
 83 82  1  0
 84 83  2  0
 87 86  1  0
 89 87  1  0
 89 90  1  0
 89 88  1  0
 91 94  1  1
 91 92  1  0
 93 91  1  0
M  ISO  4  15 100  23 100  53 101  54 101
M  END
>  <TORSDO>  (75) 
F 18

>  <SCORE>  (75) 
-14.293

>  <name>  (75) 
74

>  <ligand_id>  (75) 
74

>  <original_smiles>  (75) 
[H]C1=C(C([H])([H])Oc2c([H])c([H])c3c(c2[H])C([H])([H])N(C(=O)C([H])(N([H])C(=O)C([H])(N([H])C([H])([H])[H])C([H])([H])[H])C(C([H])([H])[H])(C([H])([H])[H])C([H])([H])[H])C([H])(C(=O)N([H])C2([H])c4c([H])c([H])c([H])c([H])c4C([H])([H])C([H])([H])C2([H])[H])C3([H])[H])C(=O)N(c2c([H])c([H])c(N([H])C(=O)N3C([H])([H])C([H])([H])C([H])([H])C([H])(n4nc(-c5c([H])c([H])c(Oc6c([H])c([H])c(F)c([H])c6F)c([H])c5[H])c(C(=O)N([H])[H])c4N([H])[H])C3([H])[H])c(F)c2[H])C([H])([H])C1([H])[H]

>  <smiles>  (75) 
[H]C1=C(C([H])([H])Oc2c([H])c([H])c3c(c2[H])C([H])([H])N(C(=O)C([H])(N([H])C(=O)C([H])(N([H])C([H])([H])[H])C([H])([H])[H])C(C([H])([H])[H])(C([H])([H])[H])C([H])([H])[H])C([H])(C(=O)N([H])C2([H])c4c([H])c([H])c([H])c([H])c4C([H])([H])C([H])([H])C2([H])[H])C3([H])[H])C(=O)N(c2c([H])c([H])c(N([H])C(=O)N3C([H])([H])C([H])([H])C([H])([H])C([H])(n4nc(-c5c([H])c([H])c(Oc6c([H])c([H])c(F)c([H])c6F)c([H])c5[H])c(C(=O)N([H])[H])c4N([H])[H])C3([H])[H])c(F)c2[H])C([H])([H])C1([H])[H]

$$$$
75:0:0
     RDKit          3D

 95104  0  0  1  0  0  0  0  0999 V2000
  -28.2430  -24.4570   21.3780 C   0  0  0  0  0  0  0  0  0  0  0  0
  -28.8270  -23.4410   20.4970 C   0  0  0  0  0  0  0  0  0  0  0  0
  -28.1290  -25.8070   21.2290 C   0  0  0  0  0  3  0  0  0  0  0  0
  -27.6560  -23.7780   22.5840 C   0  0  0  0  0  2  0  0  0  0  0  0
  -27.6350  -22.3120   22.1840 C   0  0  0  0  0  2  0  0  0  0  0  0
  -28.5290  -22.2220   21.0370 N   0  0  0  0  0  0  0  0  0  0  0  0
  -29.4850  -23.6250   19.4680 O   0  0  0  0  0  0  0  0  0  0  0  0
  -31.0000  -19.4210   21.2780 C   0  0  0  0  0  3  0  0  0  0  0  0
  -30.4370  -20.7140   21.3150 C   0  0  0  0  0  3  0  0  0  0  0  0
  -29.0300  -18.5540   20.1710 C   0  0  0  0  0  3  0  0  0  0  0  0
  -30.3190  -18.3110   20.7110 C   0  0  0  0  0  0  0  0  0  0  0  0
  -29.1540  -20.9510   20.7890 C   0  0  0  0  0  0  0  0  0  0  0  0
  -28.4490  -19.8520   20.2260 C   0  0  0  0  0  0  0  0  0  0  0  0
  -27.1950  -20.0350   19.7530 F   0  0  0  0  0  0  0  0  0  0  0  0
  -30.9730  -14.6530   19.9850 C   0  0  0  0  0  0  0  0  0  0  0  0
  -30.5450  -12.4570   18.9350 C   0  0  0  0  0  2  0  0  0  0  0  0
  -29.5360  -12.6000   17.7820 C   0  0  0  0  0  2  0  0  0  0  0  0
  -28.0990  -12.4570   18.3150 C   0  0  0  0  0  2  0  0  0  0  0  0
  -27.8320  -13.3270   19.5720 C   0  0  0  0  0  3  0  0  0  0  0  0
  -28.9680  -13.2140   20.6140 C   0  0  0  0  0  2  0  0  0  0  0  0
  -30.2330  -13.5040   19.9290 N   0  0  0  0  0  0  0  0  0  0  0  0
  -32.0820  -14.6810   19.4480 O   0  0  0  0  0  0  0  0  0  0  0  0
  -31.0530  -16.9750   20.6300 C   0  0  0  0  0  0  0  0  0  0  0  0
  -30.3940  -15.7900   20.4700 N   0  0  0  0  0  0  0  0  0  0  0  0
  -32.2870  -17.0340   20.7400 O   0  0  0  0  0  0  0  0  0  0  0  0
  -29.4090  -15.7730   20.6640 H   0  0  0  0  0  0  0  0  0  0  0  0
  -25.5130  -13.9010   20.5170 C   0  0  0  0  0  0  0  0  0  0  0  0
  -24.4720  -13.1160   20.9330 C   0  0  0  0  0  0  0  0  0  0  0  0
  -24.9150  -11.7650   20.7950 C   0  0  0  0  0  0  0  0  0  0  0  0
  -26.5260  -13.0290   20.1550 N   0  0  0  0  0  0  0  0  0  0  0  0
  -26.1760  -11.7350   20.3810 N   0  0  0  0  0  0  0  0  0  0  0  0
  -24.1920  -10.4990   20.9780 C   0  0  0  0  0  0  0  0  0  0  0  0
  -24.6340   -9.5220   21.8980 C   0  0  0  0  0  3  0  0  0  0  0  0
  -23.9120   -8.3220   22.0700 C   0  0  0  0  0  3  0  0  0  0  0  0
  -22.7330   -8.0890   21.3230 C   0  0  0  0  0  0  0  0  0  0  0  0
  -22.3110   -9.0540   20.3920 C   0  0  0  0  0  3  0  0  0  0  0  0
  -23.0340  -10.2470   20.2180 C   0  0  0  0  0  3  0  0  0  0  0  0
  -21.9790   -6.9430   21.4060 O   0  0  0  0  0  0  0  0  0  0  0  0
  -21.8610   -6.2430   22.5810 C   0  0  0  0  0  0  0  0  0  0  0  0
  -21.3480   -6.8390   23.7540 C   0  0  0  0  0  3  0  0  0  0  0  0
  -21.1770   -6.0650   24.9190 C   0  0  0  0  0  3  0  0  0  0  0  0
  -21.5080   -4.6980   24.9130 C   0  0  0  0  0  0  0  0  0  0  0  0
  -22.0140   -4.1010   23.7440 C   0  0  0  0  0  3  0  0  0  0  0  0
  -22.1870   -4.8720   22.5810 C   0  0  0  0  0  0  0  0  0  0  0  0
  -22.6540   -4.2870   21.4510 F   0  0  0  0  0  0  0  0  0  0  0  0
  -21.3380   -3.9520   26.0300 F   0  0  0  0  0  0  0  0  0  0  0  0
  -23.1060  -13.5870   21.3410 C   0  0  0  0  0  0  0  0  0  0  0  0
  -22.4450  -12.8540   22.2300 N   0  0  0  0  0  0  0  0  0  0  0  0
  -22.6380  -14.6390   20.9090 O   0  0  0  0  0  0  0  0  0  0  0  0
  -22.8370  -12.0030   22.6020 H   0  0  0  0  0  0  0  0  0  0  0  0
  -21.5320  -13.1510   22.5430 H   0  0  0  0  0  0  0  0  0  0  0  0
  -25.6760  -15.2780   20.3940 N   0  0  0  0  0  0  0  0  0  0  0  0
  -24.9210  -15.9290   20.5810 H   0  0  0  0  0  0  0  0  0  0  0  0
  -26.4870  -15.7240   19.9830 H   0  0  0  0  0  0  0  0  0  0  0  0
  -28.4040  -26.6630   20.1730 O   0  0  0  0  0  0  0  0  0  0  0  0
  -24.5790  -31.8800   23.1380 C   0  0  0  0  0  0  0  0  0  0  0  0
  -27.3480  -27.5380   20.0000 C   0  0  0  0  0  0  0  0  0  0  0  0
  -23.4280  -30.4820   21.4540 C   0  0  0  0  0  3  0  0  0  0  0  0
  -24.9370  -29.0180   20.0000 C   0  0  0  0  0  0  0  0  0  0  0  0
  -25.9500  -30.8970   21.3000 C   0  0  0  0  0  2  0  0  0  0  0  0
  -26.0780  -29.5460   20.6190 C   0  0  0  0  0  0  0  0  0  0  0  0
  -27.2930  -28.8140   20.6170 C   0  0  0  0  0  3  0  0  0  0  0  0
  -26.1990  -27.0430   19.3530 C   0  0  0  0  0  3  0  0  0  0  0  0
  -24.9960  -27.7710   19.3560 C   0  0  0  0  0  3  0  0  0  0  0  0
  -23.6690  -29.8410   20.0610 C   0  0  0  0  0  2  0  0  0  0  0  0
  -24.6690  -31.1020   22.0210 N   0  0  0  0  0  0  0  0  0  0  0  0
  -23.4860  -32.1160   23.6690 O   0  0  0  0  0  0  0  0  0  0  0  0
  -22.7890  -29.4260   22.3860 C   0  0  0  0  0  0  0  0  0  0  0  0
  -21.4660  -29.2320   22.2560 N   0  0  0  0  0  0  0  0  0  0  0  0
  -23.4810  -28.7860   23.1840 O   0  0  0  0  0  0  0  0  0  0  0  0
  -20.9690  -29.8030   21.5880 H   0  0  0  0  0  0  0  0  0  0  0  0
  -18.0990  -28.0060   22.7430 C   0  0  0  0  0  0  0  0  0  0  0  0
  -20.6590  -28.2650   23.0020 C   0  0  0  0  0  3  0  0  0  0  0  0
  -20.7600  -26.8540   22.3780 C   0  0  0  0  0  2  0  0  0  0  0  0
  -19.6530  -26.5650   21.3600 C   0  0  0  0  0  2  0  0  0  0  0  0
  -18.2760  -26.6810   22.0210 C   0  0  0  0  0  2  0  0  0  0  0  0
  -19.2180  -28.7580   23.1900 C   0  0  0  0  0  0  0  0  0  0  0  0
  -18.9990  -29.9990   23.8250 C   0  0  0  0  0  3  0  0  0  0  0  0
  -17.6940  -30.4910   24.0150 C   0  0  0  0  0  3  0  0  0  0  0  0
  -16.5890  -29.7340   23.5870 C   0  0  0  0  0  3  0  0  0  0  0  0
  -16.7920  -28.4930   22.9590 C   0  0  0  0  0  3  0  0  0  0  0  0
  -25.8440  -32.5280   23.7830 C   0  0  0  0  0  3  0  0  0  0  0  0
  -25.5040  -33.9150   24.1290 N   0  0  0  0  0  0  0  0  0  0  0  0
  -25.8160  -34.9840   23.3840 C   0  0  0  0  0  0  0  0  0  0  0  0
  -26.4970  -34.9070   22.3570 O   0  0  0  0  0  0  0  0  0  0  0  0
  -24.9020  -34.0460   24.9300 H   0  0  0  0  0  0  0  0  0  0  0  0
  -24.0500  -36.7380   23.0330 C   0  0  0  0  0  1  0  0  0  0  0  0
  -25.2940  -36.3550   23.8510 C   0  0  0  0  0  3  0  0  0  0  0  0
  -27.4010  -37.2810   24.7090 C   0  0  0  0  0  1  0  0  0  0  0  0
  -26.3030  -37.4330   23.7580 N   0  0  0  0  0  0  0  0  0  0  0  0
  -25.8750  -38.3420   23.9110 H   0  0  0  0  0  0  0  0  0  0  0  0
  -26.3620  -31.7490   25.0530 C   0  0  1  0  0  0  0  0  0  0  0  0
  -25.2630  -31.4720   26.1040 C   0  0  0  0  0  1  0  0  0  0  0  0
  -26.9760  -30.3880   24.6480 C   0  0  0  0  0  1  0  0  0  0  0  0
  -27.4900  -32.5560   25.7420 C   0  0  0  0  0  1  0  0  0  0  0  0
  1  4  1  0
  2  6  1  0
  2  1  1  0
  3  1  2  0
  5  4  1  0
  6  5  1  0
  7  2  2  0
  8  9  1  0
 10 13  2  0
 10 11  1  0
 11  8  2  0
 12  6  1  0
 12  9  2  0
 13 12  1  0
 14 13  1  0
 15 24  1  0
 16 21  1  0
 17 18  1  0
 17 16  1  0
 19 18  1  0
 19 30  1  0
 19 20  1  0
 21 15  1  0
 21 20  1  0
 22 15  2  0
 23 11  1  0
 23 25  2  0
 24 23  1  0
 24 26  1  0
 27 28  2  0
 28 47  1  0
 29 28  1  0
 29 32  1  0
 30 31  1  0
 30 27  1  0
 31 29  2  0
 32 33  1  0
 33 34  2  0
 35 38  1  0
 35 34  1  0
 36 35  2  0
 37 36  1  0
 37 32  2  0
 38 39  1  0
 39 40  1  0
 40 41  2  0
 42 41  1  0
 42 46  1  0
 43 42  2  0
 44 39  2  0
 44 43  1  0
 45 44  1  0
 47 48  1  0
 48 51  1  0
 48 50  1  0
 49 47  2  0
 52 27  1  0
 52 53  1  0
 54 52  1  0
 55  3  1  0
 56 67  2  0
 57 55  1  0
 57 62  1  0
 58 66  1  0
 58 68  1  0
 59 65  1  0
 59 61  1  0
 60 66  1  0
 61 60  1  0
 62 61  2  0
 63 64  1  0
 63 57  2  0
 64 59  2  0
 65 58  1  0
 66 56  1  0
 68 70  2  0
 69 68  1  0
 71 69  1  0
 72 81  2  0
 72 77  1  0
 73 69  1  0
 73 77  1  0
 74 73  1  0
 75 76  1  0
 75 74  1  0
 76 72  1  0
 77 78  2  0
 78 79  1  0
 80 79  2  0
 81 80  1  0
 82 56  1  0
 82 83  1  0
 82 92  1  0
 83 86  1  0
 84 88  1  0
 84 83  1  0
 85 84  2  0
 88 87  1  0
 90 88  1  0
 90 91  1  0
 90 89  1  0
 92 95  1  1
 92 93  1  0
 94 92  1  0
M  ISO  4   3 101  15 100  24 100  55 101
M  END
>  <TORSDO>  (76) 
F 17

>  <SCORE>  (76) 
-14.168

>  <name>  (76) 
75

>  <ligand_id>  (76) 
75

>  <original_smiles>  (76) 
[H]C(Oc1c([H])c([H])c2c(c1[H])C([H])([H])N(C(=O)C([H])(N([H])C(=O)C([H])(N([H])C([H])([H])[H])C([H])([H])[H])C(C([H])([H])[H])(C([H])([H])[H])C([H])([H])[H])C([H])(C(=O)N([H])C1([H])c3c([H])c([H])c([H])c([H])c3C([H])([H])C([H])([H])C1([H])[H])C2([H])[H])=C1C(=O)N(c2c([H])c([H])c(C(=O)N([H])C(=O)N3C([H])([H])C([H])([H])C([H])([H])C([H])(n4nc(-c5c([H])c([H])c(Oc6c([H])c([H])c(F)c([H])c6F)c([H])c5[H])c(C(=O)N([H])[H])c4N([H])[H])C3([H])[H])c([H])c2F)C([H])([H])C1([H])[H]

>  <smiles>  (76) 
[H]C(Oc1c([H])c([H])c2c(c1[H])C([H])([H])N(C(=O)C([H])(N([H])C(=O)C([H])(N([H])C([H])([H])[H])C([H])([H])[H])C(C([H])([H])[H])(C([H])([H])[H])C([H])([H])[H])C([H])(C(=O)N([H])C1([H])c3c([H])c([H])c([H])c([H])c3C([H])([H])C([H])([H])C1([H])[H])C2([H])[H])=C1C(=O)N(c2c([H])c([H])c(C(=O)N([H])C(=O)N3C([H])([H])C([H])([H])C([H])([H])C([H])(n4nc(-c5c([H])c([H])c(Oc6c([H])c([H])c(F)c([H])c6F)c([H])c5[H])c(C(=O)N([H])[H])c4N([H])[H])C3([H])[H])c([H])c2F)C([H])([H])C1([H])[H]

$$$$
76:0:0
     RDKit          3D

 84 88  0  0  1  0  0  0  0  0999 V2000
  -28.3230  -23.2220   19.9470 C   0  0  0  0  0 15  0  0  0  0  0  0
  -29.5040  -21.4900   21.8570 C   0  0  0  0  0  1  0  0  0  0  0  0
  -28.7400  -21.2120   20.5570 C   0  0  0  0  0  1  0  0  0  0  0  0
  -29.4390  -19.2720   20.0570 C   0  0  0  0  0  2  0  0  0  0  0  0
  -29.3650  -17.7250   20.4250 N   0  0  0  0  0  2  0  0  0  0  0  0
  -30.1300  -16.1540   20.1890 C   0  0  0  0  0  0  0  0  0  0  0  0
  -30.3480  -13.4760   19.4600 C   0  0  0  0  0  2  0  0  0  0  0  0
  -29.5170  -12.8810   18.2690 C   0  0  0  0  0  2  0  0  0  0  0  0
  -28.1210  -12.4400   18.7200 C   0  0  0  0  0  2  0  0  0  0  0  0
  -27.5420  -13.4660   19.7110 C   0  0  0  0  0  3  0  0  0  0  0  0
  -28.5270  -13.9630   20.8070 C   0  0  0  0  0  2  0  0  0  0  0  0
  -29.6620  -14.7040   20.1650 N   0  0  0  0  0  0  0  0  0  0  0  0
  -31.3490  -15.9910   19.9500 O   0  0  0  0  0  0  0  0  0  0  0  0
  -25.1780  -13.9410   20.4720 C   0  0  0  0  0  0  0  0  0  0  0  0
  -24.1260  -13.1480   20.8330 C   0  0  0  0  0  0  0  0  0  0  0  0
  -24.6140  -11.8060   20.8130 C   0  0  0  0  0  0  0  0  0  0  0  0
  -26.2360  -13.0860   20.2370 N   0  0  0  0  0  0  0  0  0  0  0  0
  -25.9110  -11.7910   20.5070 N   0  0  0  0  0  0  0  0  0  0  0  0
  -23.8940  -10.5370   21.0050 C   0  0  0  0  0  0  0  0  0  0  0  0
  -24.3210   -9.5750   21.9460 C   0  0  0  0  0  3  0  0  0  0  0  0
  -23.5920   -8.3800   22.1330 C   0  0  0  0  0  3  0  0  0  0  0  0
  -22.4210   -8.1350   21.3760 C   0  0  0  0  0  0  0  0  0  0  0  0
  -22.0110   -9.0860   20.4250 C   0  0  0  0  0  3  0  0  0  0  0  0
  -22.7400  -10.2730   20.2370 C   0  0  0  0  0  3  0  0  0  0  0  0
  -21.6640   -6.9920   21.4700 O   0  0  0  0  0  0  0  0  0  0  0  0
  -21.6190   -6.2510   22.6240 C   0  0  0  0  0  0  0  0  0  0  0  0
  -21.1960   -6.8080   23.8500 C   0  0  0  0  0  3  0  0  0  0  0  0
  -21.0970   -5.9940   24.9970 C   0  0  0  0  0  3  0  0  0  0  0  0
  -21.4060   -4.6240   24.9180 C   0  0  0  0  0  0  0  0  0  0  0  0
  -21.8210   -4.0660   23.6950 C   0  0  0  0  0  3  0  0  0  0  0  0
  -21.9240   -4.8780   22.5520 C   0  0  0  0  0  0  0  0  0  0  0  0
  -22.3030   -4.3290   21.3730 F   0  0  0  0  0  0  0  0  0  0  0  0
  -21.3050   -3.8410   26.0170 F   0  0  0  0  0  0  0  0  0  0  0  0
  -22.7220  -13.6150   21.0780 C   0  0  0  0  0  0  0  0  0  0  0  0
  -21.9900  -12.9240   21.9440 N   0  0  0  0  0  0  0  0  0  0  0  0
  -22.2840  -14.6290   20.5360 O   0  0  0  0  0  0  0  0  0  0  0  0
  -22.3600  -12.1070   22.4040 H   0  0  0  0  0  0  0  0  0  0  0  0
  -21.0450  -13.2170   22.1490 H   0  0  0  0  0  0  0  0  0  0  0  0
  -25.3230  -15.3130   20.2870 N   0  0  0  0  0  0  0  0  0  0  0  0
  -24.5580  -15.9670   20.4130 H   0  0  0  0  0  0  0  0  0  0  0  0
  -26.1830  -15.7620   19.9960 H   0  0  0  0  0  0  0  0  0  0  0  0
  -30.4280  -19.6020   18.9630 C   0  0  0  0  0  3  0  0  0  0  0  0
  -31.1580  -18.7620   18.4240 O   0  0  0  0  0  0  0  0  0  0  0  0
  -28.1430  -25.1030   20.3420 O   0  0  0  0  0  1  0  0  0  0  0  0
  -24.6570  -31.8040   23.1350 C   0  0  0  0  0  0  0  0  0  0  0  0
  -27.2010  -26.4470   20.2220 C   0  0  0  0  0  0  0  0  0  0  0  0
  -23.4860  -30.3690   21.5240 C   0  0  0  0  0  3  0  0  0  0  0  0
  -24.9430  -28.6540   20.1420 C   0  0  0  0  0  0  0  0  0  0  0  0
  -26.0750  -30.4390   21.4290 C   0  0  0  0  0  2  0  0  0  0  0  0
  -26.1420  -28.9670   20.7890 C   0  0  0  0  0  0  0  0  0  0  0  0
  -27.2340  -27.8990   20.7930 C   0  0  0  0  0  3  0  0  0  0  0  0
  -25.9640  -26.4250   19.5010 C   0  0  0  0  0  3  0  0  0  0  0  0
  -24.9110  -27.4140   19.4710 C   0  0  0  0  0  3  0  0  0  0  0  0
  -23.7420  -29.6330   20.1710 C   0  0  0  0  0  2  0  0  0  0  0  0
  -24.7660  -30.9130   22.0810 N   0  0  0  0  0  0  0  0  0  0  0  0
  -23.5580  -32.1160   23.6300 O   0  0  0  0  0  0  0  0  0  0  0  0
  -22.7500  -29.4270   22.5190 C   0  0  0  0  0  0  0  0  0  0  0  0
  -21.4130  -29.2870   22.4110 N   0  0  0  0  0  0  0  0  0  0  0  0
  -23.4010  -28.8140   23.3680 O   0  0  0  0  0  0  0  0  0  0  0  0
  -20.9300  -29.8330   21.7100 H   0  0  0  0  0  0  0  0  0  0  0  0
  -18.0270  -28.0710   22.9730 C   0  0  0  0  0  0  0  0  0  0  0  0
  -20.5900  -28.3600   23.2030 C   0  0  0  0  0  3  0  0  0  0  0  0
  -20.6900  -26.9190   22.6510 C   0  0  0  0  0  2  0  0  0  0  0  0
  -19.5820  -26.5780   21.6490 C   0  0  0  0  0  2  0  0  0  0  0  0
  -18.2060  -26.7190   22.3040 C   0  0  0  0  0  2  0  0  0  0  0  0
  -19.1440  -28.8490   23.3810 C   0  0  0  0  0  0  0  0  0  0  0  0
  -18.9170  -30.1080   23.9760 C   0  0  0  0  0  3  0  0  0  0  0  0
  -17.6090  -30.5930   24.1610 C   0  0  0  0  0  3  0  0  0  0  0  0
  -16.5070  -29.8150   23.7640 C   0  0  0  0  0  3  0  0  0  0  0  0
  -16.7180  -28.5550   23.1770 C   0  0  0  0  0  3  0  0  0  0  0  0
  -25.9050  -32.4890   23.7720 C   0  0  0  0  0  3  0  0  0  0  0  0
  -26.4170  -31.7470   25.0710 C   0  0  1  0  0  0  0  0  0  0  0  0
  -25.3190  -31.5190   26.1370 C   0  0  0  0  0  1  0  0  0  0  0  0
  -27.0180  -30.3680   24.7260 C   0  0  0  0  0  1  0  0  0  0  0  0
  -27.5520  -32.5660   25.7280 C   0  0  0  0  0  1  0  0  0  0  0  0
  -25.5540  -33.8870   24.1150 N   0  0  0  0  0  0  0  0  0  0  0  0
  -25.8670  -34.9690   23.3880 C   0  0  0  0  0  0  0  0  0  0  0  0
  -26.5290  -34.8980   22.3510 O   0  0  0  0  0  0  0  0  0  0  0  0
  -24.9610  -34.0120   24.9220 H   0  0  0  0  0  0  0  0  0  0  0  0
  -24.1090  -36.7580   23.1070 C   0  0  0  0  0  1  0  0  0  0  0  0
  -25.3710  -36.3470   23.8840 C   0  0  0  0  0  3  0  0  0  0  0  0
  -27.5080  -37.2560   24.6920 C   0  0  0  0  0  1  0  0  0  0  0  0
  -26.3860  -37.4190   23.7710 N   0  0  0  0  0  0  0  0  0  0  0  0
  -25.9680  -38.3300   23.9410 H   0  0  0  0  0  0  0  0  0  0  0  0
  3  2  1  0
  4  5  1  0
  6  5  1  0
  7 12  1  0
  8  9  1  0
  8  7  1  0
 10  9  1  0
 10 17  1  0
 10 11  1  0
 12  6  1  0
 12 11  1  0
 13  6  2  0
 14 15  2  0
 15 34  1  0
 16 15  1  0
 16 19  1  0
 17 14  1  0
 17 18  1  0
 18 16  2  0
 19 20  1  0
 20 21  2  0
 22 25  1  0
 22 21  1  0
 23 22  2  0
 24 23  1  0
 24 19  2  0
 25 26  1  0
 26 27  1  0
 27 28  2  0
 29 28  1  0
 29 33  1  0
 30 29  2  0
 31 26  2  0
 31 30  1  0
 32 31  1  0
 34 35  1  0
 35 38  1  0
 35 37  1  0
 36 34  2  0
 39 40  1  0
 39 14  1  0
 41 39  1  0
 42  4  1  0
 43 42  2  0
 45 56  2  0
 46 44  1  0
 46 51  1  0
 47 55  1  0
 47 57  1  0
 48 54  1  0
 48 50  1  0
 49 55  1  0
 50 51  2  0
 50 49  1  0
 52 46  2  0
 53 52  1  0
 53 48  2  0
 54 47  1  0
 55 45  1  0
 57 59  2  0
 58 57  1  0
 60 58  1  0
 61 70  2  0
 61 66  1  0
 62 58  1  0
 62 66  1  0
 63 62  1  0
 64 65  1  0
 64 63  1  0
 65 61  1  0
 66 67  2  0
 67 68  1  0
 69 68  2  0
 70 69  1  0
 71 45  1  0
 71 76  1  0
 71 72  1  0
 72 75  1  1
 72 73  1  0
 74 72  1  0
 76 79  1  0
 77 81  1  0
 77 76  1  0
 78 77  2  0
 81 80  1  0
 83 81  1  0
 83 84  1  0
 83 82  1  0
M  ISO  4   1 101   5 100   6 100  44 101
M  END
>  <TORSDO>  (77) 
F 19

>  <SCORE>  (77) 
-15.854

>  <name>  (77) 
76

>  <ligand_id>  (77) 
76

>  <original_smiles>  (77) 
[H]C(=O)C(=NC(=O)N1C([H])([H])C([H])([H])C([H])([H])C([H])(n2nc(-c3c([H])c([H])c(Oc4c([H])c([H])c(F)c([H])c4F)c([H])c3[H])c(C(=O)N([H])[H])c2N([H])[H])C1([H])[H])C([H])(C([H])([H])[H])C([H])([H])Oc1c([H])c([H])c2c(c1[H])C([H])([H])N(C(=O)C([H])(N([H])C(=O)C([H])(N([H])C([H])([H])[H])C([H])([H])[H])C(C([H])([H])[H])(C([H])([H])[H])C([H])([H])[H])C([H])(C(=O)N([H])C1([H])c3c([H])c([H])c([H])c([H])c3C([H])([H])C([H])([H])C1([H])[H])C2([H])[H]

>  <smiles>  (77) 
[H]C(=O)C(=NC(=O)N1C([H])([H])C([H])([H])C([H])([H])C([H])(n2nc(-c3c([H])c([H])c(Oc4c([H])c([H])c(F)c([H])c4F)c([H])c3[H])c(C(=O)N([H])[H])c2N([H])[H])C1([H])[H])C([H])(C([H])([H])[H])C([H])([H])Oc1c([H])c([H])c2c(c1[H])C([H])([H])N(C(=O)C([H])(N([H])C(=O)C([H])(N([H])C([H])([H])[H])C([H])([H])[H])C(C([H])([H])[H])(C([H])([H])[H])C([H])([H])[H])C([H])(C(=O)N([H])C1([H])c3c([H])c([H])c([H])c([H])c3C([H])([H])C([H])([H])C1([H])[H])C2([H])[H]

$$$$
77:0:0
     RDKit          3D

 91 99  0  0  1  0  0  0  0  0999 V2000
  -29.2330  -20.0680   20.8670 C   0  0  0  0  0  3  0  0  0  0  0  0
  -29.7280  -19.0220   19.9560 C   0  0  0  0  0  0  0  0  0  0  0  0
  -29.7420  -19.7600   18.7720 C   0  0  0  0  0  0  0  0  0  0  0  0
  -29.0000  -21.2910   20.2060 C   0  0  0  0  0  0  0  0  0  0  0  0
  -30.2170  -19.4550   17.3880 C   0  0  0  0  0  1  0  0  0  0  0  0
  -29.2820  -21.0750   18.8990 O   0  0  0  0  0  0  0  0  0  0  0  0
  -30.6070  -15.0180   20.2270 C   0  0  0  0  0  0  0  0  0  0  0  0
  -30.4060  -12.6630   19.3470 C   0  0  0  0  0  2  0  0  0  0  0  0
  -29.4650  -12.6010   18.1240 C   0  0  0  0  0  2  0  0  0  0  0  0
  -28.0130  -12.3820   18.5850 C   0  0  0  0  0  2  0  0  0  0  0  0
  -27.6130  -13.3320   19.7440 C   0  0  0  0  0  3  0  0  0  0  0  0
  -28.6890  -13.4130   20.8490 C   0  0  0  0  0  2  0  0  0  0  0  0
  -29.9470  -13.7930   20.1970 N   0  0  0  0  0  0  0  0  0  0  0  0
  -31.8280  -14.9590   20.0430 O   0  0  0  0  0  0  0  0  0  0  0  0
  -30.4460  -17.5910   20.1130 C   0  0  0  0  0  0  0  0  0  0  0  0
  -29.9200  -16.2700   20.2020 N   0  0  0  0  0  0  0  0  0  0  0  0
  -31.6760  -17.7220   20.1510 O   0  0  0  0  0  0  0  0  0  0  0  0
  -28.9110  -16.2200   20.2050 H   0  0  0  0  0  0  0  0  0  0  0  0
  -25.2510  -13.9020   20.5450 C   0  0  0  0  0  0  0  0  0  0  0  0
  -24.1940  -13.1260   20.9160 C   0  0  0  0  0  0  0  0  0  0  0  0
  -24.6550  -11.7730   20.8550 C   0  0  0  0  0  0  0  0  0  0  0  0
  -26.2900  -13.0270   20.2760 N   0  0  0  0  0  0  0  0  0  0  0  0
  -25.9400  -11.7370   20.5300 N   0  0  0  0  0  0  0  0  0  0  0  0
  -23.9230  -10.5080   21.0330 C   0  0  0  0  0  0  0  0  0  0  0  0
  -24.3530   -9.5390   21.9670 C   0  0  0  0  0  3  0  0  0  0  0  0
  -23.6290   -8.3410   22.1380 C   0  0  0  0  0  3  0  0  0  0  0  0
  -22.4600   -8.1010   21.3730 C   0  0  0  0  0  0  0  0  0  0  0  0
  -22.0520   -9.0590   20.4320 C   0  0  0  0  0  3  0  0  0  0  0  0
  -22.7760  -10.2510   20.2590 C   0  0  0  0  0  3  0  0  0  0  0  0
  -21.7080   -6.9570   21.4530 O   0  0  0  0  0  0  0  0  0  0  0  0
  -21.6350   -6.2210   22.6070 C   0  0  0  0  0  0  0  0  0  0  0  0
  -21.1520   -6.7770   23.8140 C   0  0  0  0  0  3  0  0  0  0  0  0
  -21.0270   -5.9670   24.9620 C   0  0  0  0  0  3  0  0  0  0  0  0
  -21.3710   -4.6040   24.9020 C   0  0  0  0  0  0  0  0  0  0  0  0
  -21.8440   -4.0480   23.7040 C   0  0  0  0  0  3  0  0  0  0  0  0
  -21.9750   -4.8540   22.5590 C   0  0  0  0  0  0  0  0  0  0  0  0
  -22.4100   -4.3080   21.3990 F   0  0  0  0  0  0  0  0  0  0  0  0
  -21.2450   -3.8250   26.0050 F   0  0  0  0  0  0  0  0  0  0  0  0
  -22.7990  -13.5940   21.2110 C   0  0  0  0  0  0  0  0  0  0  0  0
  -22.0830  -12.8800   22.0720 N   0  0  0  0  0  0  0  0  0  0  0  0
  -22.3590  -14.6350   20.7220 O   0  0  0  0  0  0  0  0  0  0  0  0
  -22.4560  -12.0420   22.4940 H   0  0  0  0  0  0  0  0  0  0  0  0
  -21.1450  -13.1710   22.3080 H   0  0  0  0  0  0  0  0  0  0  0  0
  -25.4190  -15.2770   20.3870 N   0  0  0  0  0  0  0  0  0  0  0  0
  -24.6680  -15.9360   20.5500 H   0  0  0  0  0  0  0  0  0  0  0  0
  -26.2750  -15.7200   20.0880 H   0  0  0  0  0  0  0  0  0  0  0  0
  -28.0490  -23.7470   20.5720 C   0  0  0  0  0  0  0  0  0  0  0  0
  -26.9920  -24.2370   21.5450 C   0  0  0  0  0  1  0  0  0  0  0  0
  -28.3580  -22.4530   20.7670 N   0  0  0  0  0  0  0  0  0  0  0  0
  -28.3580  -25.0070   19.5980 C   0  0  0  0  0  2  0  0  0  0  0  0
  -28.3130  -26.4150   20.2020 O   0  0  0  0  0  0  0  0  0  0  0  0
  -24.5620  -31.9270   23.2250 C   0  0  0  0  0  0  0  0  0  0  0  0
  -27.2010  -27.3040   20.1500 C   0  0  0  0  0  0  0  0  0  0  0  0
  -23.3780  -30.5280   21.5770 C   0  0  0  0  0  3  0  0  0  0  0  0
  -24.8370  -28.9590   20.1540 C   0  0  0  0  0  0  0  0  0  0  0  0
  -25.9290  -30.8190   21.4140 C   0  0  0  0  0  2  0  0  0  0  0  0
  -26.0020  -29.4270   20.7700 C   0  0  0  0  0  0  0  0  0  0  0  0
  -27.1780  -28.6030   20.7720 C   0  0  0  0  0  3  0  0  0  0  0  0
  -26.0160  -26.9370   19.4780 C   0  0  0  0  0  3  0  0  0  0  0  0
  -24.8510  -27.7240   19.4950 C   0  0  0  0  0  3  0  0  0  0  0  0
  -23.5950  -29.8270   20.2080 C   0  0  0  0  0  2  0  0  0  0  0  0
  -24.6440  -31.1120   22.1270 N   0  0  0  0  0  0  0  0  0  0  0  0
  -23.4710  -32.2050   23.7480 O   0  0  0  0  0  0  0  0  0  0  0  0
  -22.6960  -29.5220   22.5380 C   0  0  0  0  0  0  0  0  0  0  0  0
  -21.3660  -29.3530   22.4050 N   0  0  0  0  0  0  0  0  0  0  0  0
  -23.3700  -28.8780   23.3490 O   0  0  0  0  0  0  0  0  0  0  0  0
  -20.8830  -29.9080   21.7100 H   0  0  0  0  0  0  0  0  0  0  0  0
  -17.9720  -28.2170   22.9340 C   0  0  0  0  0  0  0  0  0  0  0  0
  -20.5400  -28.4210   23.1760 C   0  0  0  0  0  3  0  0  0  0  0  0
  -20.6060  -26.9960   22.5770 C   0  0  0  0  0  2  0  0  0  0  0  0
  -19.4850  -26.7110   21.5730 C   0  0  0  0  0  2  0  0  0  0  0  0
  -18.1140  -26.8740   22.2360 C   0  0  0  0  0  2  0  0  0  0  0  0
  -19.1100  -28.9510   23.3620 C   0  0  0  0  0  0  0  0  0  0  0  0
  -18.9240  -30.2090   23.9750 C   0  0  0  0  0  3  0  0  0  0  0  0
  -17.6320  -30.7310   24.1640 C   0  0  0  0  0  3  0  0  0  0  0  0
  -16.5080  -29.9900   23.7560 C   0  0  0  0  0  3  0  0  0  0  0  0
  -16.6800  -28.7360   23.1460 C   0  0  0  0  0  3  0  0  0  0  0  0
  -25.8400  -32.5660   23.8500 C   0  0  0  0  0  3  0  0  0  0  0  0
  -25.5250  -33.9660   24.1690 N   0  0  0  0  0  0  0  0  0  0  0  0
  -25.8760  -35.0160   23.4140 C   0  0  0  0  0  0  0  0  0  0  0  0
  -26.5640  -34.9030   22.3960 O   0  0  0  0  0  0  0  0  0  0  0  0
  -24.9180  -34.1260   24.9590 H   0  0  0  0  0  0  0  0  0  0  0  0
  -24.1820  -36.8290   23.0160 C   0  0  0  0  0  1  0  0  0  0  0  0
  -25.3930  -36.4090   23.8610 C   0  0  0  0  0  3  0  0  0  0  0  0
  -27.5040  -37.2800   24.7630 C   0  0  0  0  0  1  0  0  0  0  0  0
  -26.4440  -37.4480   23.7740 N   0  0  0  0  0  0  0  0  0  0  0  0
  -26.0470  -38.3780   23.8790 H   0  0  0  0  0  0  0  0  0  0  0  0
  -26.3380  -31.8000   25.1370 C   0  0  1  0  0  0  0  0  0  0  0  0
  -25.2310  -31.5670   26.1920 C   0  0  0  0  0  1  0  0  0  0  0  0
  -26.9230  -30.4180   24.7630 C   0  0  0  0  0  1  0  0  0  0  0  0
  -27.4830  -32.5950   25.8010 C   0  0  0  0  0  1  0  0  0  0  0  0
  2 15  1  0
  2  1  1  0
  3  6  1  0
  3  2  2  0
  4 49  1  0
  4  1  2  0
  5  3  1  0
  6  4  1  0
  8 13  1  0
  9 10  1  0
  9  8  1  0
 11 10  1  0
 11 22  1  0
 11 12  1  0
 13  7  1  0
 13 12  1  0
 14  7  2  0
 15 17  2  0
 15 16  1  0
 16 18  1  0
 16  7  1  0
 19 20  2  0
 20 39  1  0
 21 20  1  0
 21 24  1  0
 22 23  1  0
 22 19  1  0
 23 21  2  0
 24 25  1  0
 25 26  2  0
 27 30  1  0
 27 26  1  0
 28 27  2  0
 29 28  1  0
 29 24  2  0
 30 31  1  0
 31 32  1  0
 32 33  2  0
 34 33  1  0
 34 38  1  0
 35 34  2  0
 36 31  2  0
 36 35  1  0
 37 36  1  0
 39 40  1  0
 40 43  1  0
 40 42  1  0
 41 39  2  0
 44 19  1  0
 44 45  1  0
 46 44  1  0
 47 49  2  0
 47 48  1  0
 50 51  1  0
 50 47  1  0
 52 63  2  0
 53 51  1  0
 53 58  1  0
 54 62  1  0
 54 64  1  0
 55 61  1  0
 55 57  1  0
 56 62  1  0
 57 58  2  0
 57 56  1  0
 59 60  1  0
 59 53  2  0
 60 55  2  0
 61 54  1  0
 62 52  1  0
 64 66  2  0
 65 64  1  0
 67 65  1  0
 68 77  2  0
 68 73  1  0
 69 65  1  0
 69 73  1  0
 70 69  1  0
 71 72  1  0
 71 70  1  0
 72 68  1  0
 73 74  2  0
 74 75  1  0
 76 75  2  0
 77 76  1  0
 78 52  1  0
 78 79  1  0
 78 88  1  0
 79 82  1  0
 80 84  1  0
 80 79  1  0
 81 80  2  0
 84 83  1  0
 86 84  1  0
 86 87  1  0
 86 85  1  0
 88 91  1  1
 88 89  1  0
 90 88  1  0
M  ISO  4   7 100  16 100  50 101  51 101
M  END
>  <TORSDO>  (78) 
F 18

>  <SCORE>  (78) 
-14.719

>  <name>  (78) 
77

>  <ligand_id>  (78) 
77

>  <original_smiles>  (78) 
[H]c1c([H])c([H])c2c(c1[H])C([H])([H])C([H])([H])C([H])([H])C2([H])N([H])C(=O)C1([H])N(C(=O)C([H])(N([H])C(=O)C([H])(N([H])C([H])([H])[H])C([H])([H])[H])C(C([H])([H])[H])(C([H])([H])[H])C([H])([H])[H])C([H])([H])c2c([H])c(OC([H])([H])C(=Nc3oc(C([H])([H])[H])c(C(=O)N([H])C(=O)N4C([H])([H])C([H])([H])C([H])([H])C([H])(n5nc(-c6c([H])c([H])c(Oc7c([H])c([H])c(F)c([H])c7F)c([H])c6[H])c(C(=O)N([H])[H])c5N([H])[H])C4([H])[H])c3[H])C([H])([H])[H])c([H])c([H])c2C1([H])[H]

>  <smiles>  (78) 
[H]c1c([H])c([H])c2c(c1[H])C([H])([H])C([H])([H])C([H])([H])C2([H])N([H])C(=O)C1([H])N(C(=O)C([H])(N([H])C(=O)C([H])(N([H])C([H])([H])[H])C([H])([H])[H])C(C([H])([H])[H])(C([H])([H])[H])C([H])([H])[H])C([H])([H])c2c([H])c(OC([H])([H])C(=Nc3oc(C([H])([H])[H])c(C(=O)N([H])C(=O)N4C([H])([H])C([H])([H])C([H])([H])C([H])(n5nc(-c6c([H])c([H])c(Oc7c([H])c([H])c(F)c([H])c7F)c([H])c6[H])c(C(=O)N([H])[H])c5N([H])[H])C4([H])[H])c3[H])C([H])([H])[H])c([H])c([H])c2C1([H])[H]

$$$$
78:0:0
     RDKit          3D

 96105  0  0  1  0  0  0  0  0999 V2000
  -30.0570  -24.2650   19.2270 C   0  0  0  0  0  3  0  0  0  0  0  0
  -30.7480  -21.9710   19.0720 C   0  0  0  0  0  3  0  0  0  0  0  0
  -29.0740  -23.9680   20.1030 C   0  0  0  0  0  0  0  0  0  0  0  0
  -30.9240  -23.2460   18.6840 C   0  0  0  0  0  0  0  0  0  0  0  0
  -28.9010  -22.5260   20.5330 C   0  0  0  0  0  0  0  0  0  0  0  0
  -29.7690  -21.5700   20.0050 N   0  0  0  0  0  0  0  0  0  0  0  0
  -28.0220  -22.1990   21.3370 O   0  0  0  0  0  0  0  0  0  0  0  0
  -28.6260  -19.3120   20.0640 C   0  0  0  0  0  3  0  0  0  0  0  0
  -28.6430  -17.8940   20.2160 C   0  0  0  0  0  3  0  0  0  0  0  0
  -30.9490  -17.9690   20.8700 C   0  0  0  0  0  3  0  0  0  0  0  0
  -30.9330  -19.3990   20.7570 C   0  0  0  0  0  0  0  0  0  0  0  0
  -29.7700  -20.1170   20.3090 C   0  0  0  0  0  0  0  0  0  0  0  0
  -29.8060  -17.1720   20.5940 C   0  0  0  0  0  0  0  0  0  0  0  0
  -32.1960  -20.1420   21.1730 C   0  0  0  0  0  1  0  0  0  0  0  0
  -30.5470  -14.6740   20.4530 C   0  0  0  0  0  0  0  0  0  0  0  0
  -30.3670  -12.4310   19.3870 C   0  0  0  0  0  2  0  0  0  0  0  0
  -29.4350  -12.5460   18.1610 C   0  0  0  0  0  2  0  0  0  0  0  0
  -27.9580  -12.3790   18.5720 C   0  0  0  0  0  2  0  0  0  0  0  0
  -27.5790  -13.2460   19.8000 C   0  0  0  0  0  3  0  0  0  0  0  0
  -28.6240  -13.0980   20.9300 C   0  0  0  0  0  2  0  0  0  0  0  0
  -29.9410  -13.4460   20.3700 N   0  0  0  0  0  0  0  0  0  0  0  0
  -31.7180  -14.8370   20.0950 O   0  0  0  0  0  0  0  0  0  0  0  0
  -29.7170  -15.7190   20.7720 N   0  0  0  0  0  0  0  0  0  0  0  0
  -28.7890  -15.3920   20.9960 H   0  0  0  0  0  0  0  0  0  0  0  0
  -25.1740  -13.8470   20.4770 C   0  0  0  0  0  0  0  0  0  0  0  0
  -24.1030  -13.0760   20.8380 C   0  0  0  0  0  0  0  0  0  0  0  0
  -24.5680  -11.7260   20.8270 C   0  0  0  0  0  0  0  0  0  0  0  0
  -26.2240  -12.9670   20.2660 N   0  0  0  0  0  0  0  0  0  0  0  0
  -25.8630  -11.6860   20.5380 N   0  0  0  0  0  0  0  0  0  0  0  0
  -23.8410  -10.4640   21.0180 C   0  0  0  0  0  0  0  0  0  0  0  0
  -24.2640   -9.5050   21.9650 C   0  0  0  0  0  3  0  0  0  0  0  0
  -23.5390   -8.3070   22.1430 C   0  0  0  0  0  3  0  0  0  0  0  0
  -22.3760   -8.0610   21.3760 C   0  0  0  0  0  0  0  0  0  0  0  0
  -21.9710   -9.0080   20.4190 C   0  0  0  0  0  3  0  0  0  0  0  0
  -22.6980  -10.1970   20.2380 C   0  0  0  0  0  3  0  0  0  0  0  0
  -21.6240   -6.9140   21.4620 O   0  0  0  0  0  0  0  0  0  0  0  0
  -21.5640   -6.1780   22.6180 C   0  0  0  0  0  0  0  0  0  0  0  0
  -21.1170   -6.7360   23.8350 C   0  0  0  0  0  3  0  0  0  0  0  0
  -21.0040   -5.9250   24.9820 C   0  0  0  0  0  3  0  0  0  0  0  0
  -21.3290   -4.5570   24.9140 C   0  0  0  0  0  0  0  0  0  0  0  0
  -21.7710   -3.9980   23.7020 C   0  0  0  0  0  3  0  0  0  0  0  0
  -21.8840   -4.8060   22.5570 C   0  0  0  0  0  0  0  0  0  0  0  0
  -22.2900   -4.2580   21.3850 F   0  0  0  0  0  0  0  0  0  0  0  0
  -21.2140   -3.7760   26.0140 F   0  0  0  0  0  0  0  0  0  0  0  0
  -22.7000  -13.5530   21.0820 C   0  0  0  0  0  0  0  0  0  0  0  0
  -21.9580  -12.8650   21.9430 N   0  0  0  0  0  0  0  0  0  0  0  0
  -22.2680  -14.5720   20.5440 O   0  0  0  0  0  0  0  0  0  0  0  0
  -22.3180  -12.0410   22.4030 H   0  0  0  0  0  0  0  0  0  0  0  0
  -21.0170  -13.1680   22.1470 H   0  0  0  0  0  0  0  0  0  0  0  0
  -25.3360  -15.2160   20.2850 N   0  0  0  0  0  0  0  0  0  0  0  0
  -24.5610  -15.8660   20.3680 H   0  0  0  0  0  0  0  0  0  0  0  0
  -26.1710  -15.6450   19.9110 H   0  0  0  0  0  0  0  0  0  0  0  0
  -31.8840  -23.5540   17.8060 O   0  0  0  0  0  0  0  0  0  0  0  0
  -31.8810  -24.4970   17.6890 H   0  0  0  0  0  0  0  0  0  0  0  0
  -28.1290  -25.0940   20.6510 C   0  0  0  0  0  2  0  0  0  0  0  0
  -28.3390  -26.4940   20.1940 O   0  0  0  0  0  0  0  0  0  0  0  0
  -24.6140  -31.8910   23.2340 C   0  0  0  0  0  0  0  0  0  0  0  0
  -27.2180  -27.3380   20.1770 C   0  0  0  0  0  0  0  0  0  0  0  0
  -23.4040  -30.4890   21.6020 C   0  0  0  0  0  3  0  0  0  0  0  0
  -24.8500  -28.9400   20.1720 C   0  0  0  0  0  0  0  0  0  0  0  0
  -25.9400  -30.8130   21.4030 C   0  0  0  0  0  2  0  0  0  0  0  0
  -26.0200  -29.4330   20.7620 C   0  0  0  0  0  0  0  0  0  0  0  0
  -27.2100  -28.6450   20.7530 C   0  0  0  0  0  3  0  0  0  0  0  0
  -26.0290  -26.9000   19.5530 C   0  0  0  0  0  3  0  0  0  0  0  0
  -24.8570  -27.6770   19.5590 C   0  0  0  0  0  3  0  0  0  0  0  0
  -23.6130  -29.8120   20.2220 C   0  0  0  0  0  2  0  0  0  0  0  0
  -24.6720  -31.0810   22.1370 N   0  0  0  0  0  0  0  0  0  0  0  0
  -23.5330  -32.1680   23.7740 O   0  0  0  0  0  0  0  0  0  0  0  0
  -22.7450  -29.4720   22.5660 C   0  0  0  0  0  0  0  0  0  0  0  0
  -21.4200  -29.2940   22.4440 N   0  0  0  0  0  0  0  0  0  0  0  0
  -23.4280  -28.8480   23.3820 O   0  0  0  0  0  0  0  0  0  0  0  0
  -20.9270  -29.8490   21.7580 H   0  0  0  0  0  0  0  0  0  0  0  0
  -18.0450  -28.0970   22.9540 C   0  0  0  0  0  0  0  0  0  0  0  0
  -20.6040  -28.3580   23.2190 C   0  0  0  0  0  3  0  0  0  0  0  0
  -20.7080  -26.9250   22.6490 C   0  0  0  0  0  2  0  0  0  0  0  0
  -19.6040  -26.5970   21.6380 C   0  0  0  0  0  2  0  0  0  0  0  0
  -18.2230  -26.7440   22.2830 C   0  0  0  0  0  2  0  0  0  0  0  0
  -19.1640  -28.8610   23.3790 C   0  0  0  0  0  0  0  0  0  0  0  0
  -18.9440  -30.1260   23.9660 C   0  0  0  0  0  3  0  0  0  0  0  0
  -17.6390  -30.6260   24.1310 C   0  0  0  0  0  3  0  0  0  0  0  0
  -16.5340  -29.8580   23.7220 C   0  0  0  0  0  3  0  0  0  0  0  0
  -16.7390  -28.5950   23.1380 C   0  0  0  0  0  3  0  0  0  0  0  0
  -25.9000  -32.5250   23.8490 C   0  0  0  0  0  3  0  0  0  0  0  0
  -26.4250  -31.7520   25.1200 C   0  0  1  0  0  0  0  0  0  0  0  0
  -25.3400  -31.5130   26.1960 C   0  0  0  0  0  1  0  0  0  0  0  0
  -27.0060  -30.3750   24.7220 C   0  0  0  0  0  1  0  0  0  0  0  0
  -27.5800  -32.5460   25.7760 C   0  0  0  0  0  1  0  0  0  0  0  0
  -25.5880  -33.9210   24.1860 N   0  0  0  0  0  0  0  0  0  0  0  0
  -25.9070  -34.9770   23.4250 C   0  0  0  0  0  0  0  0  0  0  0  0
  -26.5640  -34.8780   22.3850 O   0  0  0  0  0  0  0  0  0  0  0  0
  -25.0070  -34.0710   24.9970 H   0  0  0  0  0  0  0  0  0  0  0  0
  -24.1710  -36.7660   23.0930 C   0  0  0  0  0  1  0  0  0  0  0  0
  -25.4210  -36.3620   23.8920 C   0  0  0  0  0  3  0  0  0  0  0  0
  -27.5620  -37.2510   24.7040 C   0  0  0  0  0  1  0  0  0  0  0  0
  -26.4500  -37.4190   23.7720 N   0  0  0  0  0  0  0  0  0  0  0  0
  -26.0420  -38.3370   23.9280 H   0  0  0  0  0  0  0  0  0  0  0  0
  1  3  2  0
  2  6  1  0
  3  5  1  0
  3 55  1  0
  4  2  2  0
  4  1  1  0
  5  7  2  0
  6 12  1  0
  6  5  1  0
  8  9  2  0
  8 12  1  0
  9 13  1  0
 11 10  1  0
 11 14  1  0
 12 11  2  0
 13 23  1  0
 13 10  2  0
 15 23  1  0
 16 21  1  0
 17 18  1  0
 17 16  1  0
 19 18  1  0
 19 28  1  0
 19 20  1  0
 21 15  1  0
 21 20  1  0
 22 15  2  0
 23 24  1  0
 25 26  2  0
 26 45  1  0
 27 26  1  0
 27 30  1  0
 28 25  1  0
 28 29  1  0
 29 27  2  0
 30 31  1  0
 31 32  2  0
 33 36  1  0
 33 32  1  0
 34 33  2  0
 35 34  1  0
 35 30  2  0
 36 37  1  0
 37 38  1  0
 38 39  2  0
 40 39  1  0
 40 44  1  0
 41 40  2  0
 42 37  2  0
 42 41  1  0
 43 42  1  0
 45 46  1  0
 46 49  1  0
 46 48  1  0
 47 45  2  0
 50 51  1  0
 50 25  1  0
 52 50  1  0
 53  4  1  0
 54 53  1  0
 56 55  1  0
 57 68  2  0
 58 56  1  0
 58 63  1  0
 59 67  1  0
 59 69  1  0
 60 66  1  0
 60 62  1  0
 61 67  1  0
 62 61  1  0
 63 62  2  0
 64 65  1  0
 64 58  2  0
 65 60  2  0
 66 59  1  0
 67 57  1  0
 69 71  2  0
 70 69  1  0
 72 70  1  0
 73 82  2  0
 73 78  1  0
 74 70  1  0
 74 78  1  0
 75 74  1  0
 76 77  1  0
 76 75  1  0
 77 73  1  0
 78 79  2  0
 79 80  1  0
 81 80  2  0
 82 81  1  0
 83 57  1  0
 83 88  1  0
 83 84  1  0
 84 87  1  1
 84 85  1  0
 86 84  1  0
 88 91  1  0
 89 93  1  0
 89 88  1  0
 90 89  2  0
 93 92  1  0
 95 93  1  0
 95 96  1  0
 95 94  1  0
M  ISO  4  15 100  23 100  55 101  56 101
M  END
>  <TORSDO>  (79) 
F 19

>  <SCORE>  (79) 
-14.849

>  <name>  (79) 
78

>  <ligand_id>  (79) 
78

>  <original_smiles>  (79) 
[H]Oc1c([H])c(C([H])([H])Oc2c([H])c([H])c3c(c2[H])C([H])([H])N(C(=O)C([H])(N([H])C(=O)C([H])(N([H])C([H])([H])[H])C([H])([H])[H])C(C([H])([H])[H])(C([H])([H])[H])C([H])([H])[H])C([H])(C(=O)N([H])C2([H])c4c([H])c([H])c([H])c([H])c4C([H])([H])C([H])([H])C2([H])[H])C3([H])[H])c(=O)n(-c2c([H])c([H])c(N([H])C(=O)N3C([H])([H])C([H])([H])C([H])([H])C([H])(n4nc(-c5c([H])c([H])c(Oc6c([H])c([H])c(F)c([H])c6F)c([H])c5[H])c(C(=O)N([H])[H])c4N([H])[H])C3([H])[H])c([H])c2C([H])([H])[H])c1[H]

>  <smiles>  (79) 
[H]Oc1c([H])c(C([H])([H])Oc2c([H])c([H])c3c(c2[H])C([H])([H])N(C(=O)C([H])(N([H])C(=O)C([H])(N([H])C([H])([H])[H])C([H])([H])[H])C(C([H])([H])[H])(C([H])([H])[H])C([H])([H])[H])C([H])(C(=O)N([H])C2([H])c4c([H])c([H])c([H])c([H])c4C([H])([H])C([H])([H])C2([H])[H])C3([H])[H])c(=O)n(-c2c([H])c([H])c(N([H])C(=O)N3C([H])([H])C([H])([H])C([H])([H])C([H])(n4nc(-c5c([H])c([H])c(Oc6c([H])c([H])c(F)c([H])c6F)c([H])c5[H])c(C(=O)N([H])[H])c4N([H])[H])C3([H])[H])c([H])c2C([H])([H])[H])c1[H]

$$$$
79:0:0
     RDKit          3D

 93101  0  0  1  0  0  0  0  0999 V2000
  -28.7590  -21.6370   20.1980 C   0  0  0  0  0  0  0  0  0  0  0  0
  -27.5260  -21.8240   19.8430 N   0  0  0  0  0  4  0  0  0  0  0  0
  -26.9050  -21.0440   19.6330 H   0  0  0  0  0  0  0  0  0  0  0  0
  -27.0960  -22.7330   19.7170 H   0  0  0  0  0  0  0  0  0  0  0  0
  -30.2920  -19.5480   19.7070 C   0  0  0  0  0  3  0  0  0  0  0  0
  -28.3500  -19.2370   21.0710 C   0  0  0  0  0  3  0  0  0  0  0  0
  -30.5650  -18.1330   19.7630 C   0  0  0  0  0  3  0  0  0  0  0  0
  -28.6210  -17.8360   21.1370 C   0  0  0  0  0  3  0  0  0  0  0  0
  -29.1610  -20.1460   20.3370 C   0  0  0  0  0  0  0  0  0  0  0  0
  -29.7250  -17.2250   20.4760 C   0  0  0  0  0  0  0  0  0  0  0  0
  -30.6490  -14.7720   20.0200 C   0  0  0  0  0  0  0  0  0  0  0  0
  -30.4650  -12.5350   18.9180 C   0  0  0  0  0  2  0  0  0  0  0  0
  -29.4380  -12.6470   17.7640 C   0  0  0  0  0  2  0  0  0  0  0  0
  -27.9940  -12.4560   18.2760 C   0  0  0  0  0  2  0  0  0  0  0  0
  -27.7020  -13.2930   19.5520 C   0  0  0  0  0  3  0  0  0  0  0  0
  -28.8250  -13.1160   20.5970 C   0  0  0  0  0  2  0  0  0  0  0  0
  -30.0890  -13.5180   19.9580 N   0  0  0  0  0  0  0  0  0  0  0  0
  -31.7630  -14.9950   19.5320 O   0  0  0  0  0  0  0  0  0  0  0  0
  -29.8370  -15.7540   20.5540 N   0  0  0  0  0  0  0  0  0  0  0  0
  -29.0480  -15.3280   21.0160 H   0  0  0  0  0  0  0  0  0  0  0  0
  -25.3660  -13.8680   20.4530 C   0  0  0  0  0  0  0  0  0  0  0  0
  -24.3190  -13.0850   20.8560 C   0  0  0  0  0  0  0  0  0  0  0  0
  -24.7710  -11.7350   20.7420 C   0  0  0  0  0  0  0  0  0  0  0  0
  -26.3850  -12.9950   20.1100 N   0  0  0  0  0  0  0  0  0  0  0  0
  -26.0380  -11.7030   20.3460 N   0  0  0  0  0  0  0  0  0  0  0  0
  -24.0520  -10.4690   20.9320 C   0  0  0  0  0  0  0  0  0  0  0  0
  -24.4820   -9.5120   21.8770 C   0  0  0  0  0  3  0  0  0  0  0  0
  -23.7640   -8.3100   22.0540 C   0  0  0  0  0  3  0  0  0  0  0  0
  -22.6020   -8.0570   21.2870 C   0  0  0  0  0  0  0  0  0  0  0  0
  -22.1910   -9.0040   20.3310 C   0  0  0  0  0  3  0  0  0  0  0  0
  -22.9100  -10.1970   20.1520 C   0  0  0  0  0  3  0  0  0  0  0  0
  -21.8550   -6.9060   21.3730 O   0  0  0  0  0  0  0  0  0  0  0  0
  -21.7110   -6.2280   22.5570 C   0  0  0  0  0  0  0  0  0  0  0  0
  -21.1570   -6.8390   23.7030 C   0  0  0  0  0  3  0  0  0  0  0  0
  -20.9630   -6.0850   24.8780 C   0  0  0  0  0  3  0  0  0  0  0  0
  -21.3150   -4.7210   24.9060 C   0  0  0  0  0  0  0  0  0  0  0  0
  -21.8630   -4.1110   23.7640 C   0  0  0  0  0  3  0  0  0  0  0  0
  -22.0570   -4.8620   22.5910 C   0  0  0  0  0  0  0  0  0  0  0  0
  -22.5650   -4.2650   21.4870 F   0  0  0  0  0  0  0  0  0  0  0  0
  -21.1240   -3.9940   26.0310 F   0  0  0  0  0  0  0  0  0  0  0  0
  -22.9460  -13.5560   21.2380 C   0  0  0  0  0  0  0  0  0  0  0  0
  -22.2780  -12.8370   22.1330 N   0  0  0  0  0  0  0  0  0  0  0  0
  -22.4760  -14.5960   20.7800 O   0  0  0  0  0  0  0  0  0  0  0  0
  -22.6710  -11.9960   22.5290 H   0  0  0  0  0  0  0  0  0  0  0  0
  -21.3590  -13.1350   22.4280 H   0  0  0  0  0  0  0  0  0  0  0  0
  -25.5280  -15.2460   20.3330 N   0  0  0  0  0  0  0  0  0  0  0  0
  -24.7920  -15.8970   20.5790 H   0  0  0  0  0  0  0  0  0  0  0  0
  -26.3660  -15.7040   20.0000 H   0  0  0  0  0  0  0  0  0  0  0  0
  -29.4310  -24.0590   20.3250 C   0  0  0  0  0  0  0  0  0  0  0  0
  -30.6850  -24.8680   20.5940 C   0  0  0  0  0  1  0  0  0  0  0  0
  -29.5830  -22.7460   20.3900 N   0  0  0  0  0  0  0  0  0  0  0  0
  -28.2020  -25.0110   19.9890 C   0  0  0  0  0  2  0  0  0  0  0  0
  -28.3890  -26.4870   20.1630 O   0  0  0  0  0  0  0  0  0  0  0  0
  -24.6220  -31.8400   23.2360 C   0  0  0  0  0  0  0  0  0  0  0  0
  -27.2670  -27.3390   20.1130 C   0  0  0  0  0  0  0  0  0  0  0  0
  -23.4320  -30.4700   21.5630 C   0  0  0  0  0  3  0  0  0  0  0  0
  -24.8970  -28.9530   20.1120 C   0  0  0  0  0  0  0  0  0  0  0  0
  -25.9710  -30.8020   21.3960 C   0  0  0  0  0  2  0  0  0  0  0  0
  -26.0620  -29.4350   20.7220 C   0  0  0  0  0  0  0  0  0  0  0  0
  -27.2500  -28.6420   20.7100 C   0  0  0  0  0  3  0  0  0  0  0  0
  -26.0760  -26.9150   19.4800 C   0  0  0  0  0  3  0  0  0  0  0  0
  -24.9080  -27.7010   19.4800 C   0  0  0  0  0  3  0  0  0  0  0  0
  -23.6560  -29.8190   20.1710 C   0  0  0  0  0  2  0  0  0  0  0  0
  -24.6940  -31.0530   22.1230 N   0  0  0  0  0  0  0  0  0  0  0  0
  -23.5350  -32.1040   23.7710 O   0  0  0  0  0  0  0  0  0  0  0  0
  -22.7690  -29.4320   22.4990 C   0  0  0  0  0  0  0  0  0  0  0  0
  -21.4420  -29.2600   22.3690 N   0  0  0  0  0  0  0  0  0  0  0  0
  -23.4470  -28.7860   23.3020 O   0  0  0  0  0  0  0  0  0  0  0  0
  -20.9550  -29.8300   21.6930 H   0  0  0  0  0  0  0  0  0  0  0  0
  -18.0600  -28.0830   22.8700 C   0  0  0  0  0  0  0  0  0  0  0  0
  -20.6240  -28.3050   23.1180 C   0  0  0  0  0  3  0  0  0  0  0  0
  -20.7030  -26.8930   22.4960 C   0  0  0  0  0  2  0  0  0  0  0  0
  -19.5840  -26.6150   21.4850 C   0  0  0  0  0  2  0  0  0  0  0  0
  -18.2120  -26.7550   22.1500 C   0  0  0  0  0  2  0  0  0  0  0  0
  -19.1910  -28.8190   23.3120 C   0  0  0  0  0  0  0  0  0  0  0  0
  -18.9930  -30.0640   23.9480 C   0  0  0  0  0  3  0  0  0  0  0  0
  -17.6950  -30.5730   24.1450 C   0  0  0  0  0  3  0  0  0  0  0  0
  -16.5780  -29.8340   23.7190 C   0  0  0  0  0  3  0  0  0  0  0  0
  -16.7610  -28.5900   23.0890 C   0  0  0  0  0  3  0  0  0  0  0  0
  -25.8990  -32.4650   23.8780 C   0  0  0  0  0  3  0  0  0  0  0  0
  -26.3940  -31.6890   25.1600 C   0  0  1  0  0  0  0  0  0  0  0  0
  -25.2840  -31.4530   26.2090 C   0  0  0  0  0  1  0  0  0  0  0  0
  -26.9790  -30.3100   24.7740 C   0  0  0  0  0  1  0  0  0  0  0  0
  -27.5350  -32.4790   25.8430 C   0  0  0  0  0  1  0  0  0  0  0  0
  -25.5920  -33.8640   24.2070 N   0  0  0  0  0  0  0  0  0  0  0  0
  -25.9150  -34.9150   23.4430 C   0  0  0  0  0  0  0  0  0  0  0  0
  -26.5720  -34.8110   22.4040 O   0  0  0  0  0  0  0  0  0  0  0  0
  -25.0050  -34.0200   25.0130 H   0  0  0  0  0  0  0  0  0  0  0  0
  -24.1650  -36.6950   23.1260 C   0  0  0  0  0  1  0  0  0  0  0  0
  -25.4310  -36.3030   23.9040 C   0  0  0  0  0  3  0  0  0  0  0  0
  -27.5810  -37.2130   24.6680 C   0  0  0  0  0  1  0  0  0  0  0  0
  -26.4520  -37.3630   23.7550 N   0  0  0  0  0  0  0  0  0  0  0  0
  -26.0420  -38.2810   23.9090 H   0  0  0  0  0  0  0  0  0  0  0  0
  1  9  1  0
  1 51  1  0
  2  1  2  0
  3  2  1  0
  4  2  1  0
  5  7  2  0
  5  9  1  0
  6  8  1  0
  7 10  1  0
  9  6  2  0
 10 19  1  0
 10  8  2  0
 11 19  1  0
 12 17  1  0
 13 14  1  0
 13 12  1  0
 15 14  1  0
 15 24  1  0
 15 16  1  0
 17 11  1  0
 17 16  1  0
 18 11  2  0
 19 20  1  0
 21 22  2  0
 22 41  1  0
 23 22  1  0
 23 26  1  0
 24 25  1  0
 24 21  1  0
 25 23  2  0
 26 27  1  0
 27 28  2  0
 29 32  1  0
 29 28  1  0
 30 29  2  0
 31 30  1  0
 31 26  2  0
 32 33  1  0
 33 38  2  0
 33 34  1  0
 34 35  2  0
 35 36  1  0
 36 40  1  0
 37 36  2  0
 38 37  1  0
 39 38  1  0
 41 42  1  0
 42 45  1  0
 42 44  1  0
 43 41  2  0
 46 21  1  0
 46 47  1  0
 48 46  1  0
 49 51  2  0
 49 50  1  0
 52 53  1  0
 52 49  1  0
 54 65  2  0
 55 53  1  0
 55 60  1  0
 56 64  1  0
 56 66  1  0
 57 63  1  0
 57 59  1  0
 58 64  1  0
 59 58  1  0
 60 59  2  0
 61 55  2  0
 62 61  1  0
 62 57  2  0
 63 56  1  0
 64 54  1  0
 66 68  2  0
 67 66  1  0
 69 67  1  0
 70 79  2  0
 70 75  1  0
 71 67  1  0
 71 75  1  0
 72 71  1  0
 73 74  1  0
 73 72  1  0
 74 70  1  0
 75 76  2  0
 76 77  1  0
 78 77  2  0
 79 78  1  0
 80 54  1  0
 80 85  1  0
 80 81  1  0
 81 84  1  1
 81 82  1  0
 83 81  1  0
 85 88  1  0
 86 90  1  0
 86 85  1  0
 87 86  2  0
 90 89  1  0
 92 90  1  0
 92 93  1  0
 92 91  1  0
M  ISO  4  11 100  19 100  52 101  53 101
M  END
>  <TORSDO>  (80) 
F 19

>  <SCORE>  (80) 
-13.177

>  <name>  (80) 
79

>  <ligand_id>  (80) 
79

>  <original_smiles>  (80) 
[H]c1c([H])c([H])c2c(c1[H])C([H])([H])C([H])([H])C([H])([H])C2([H])N([H])C(=O)C1([H])N(C(=O)C([H])(N([H])C(=O)C([H])(N([H])C([H])([H])[H])C([H])([H])[H])C(C([H])([H])[H])(C([H])([H])[H])C([H])([H])[H])C([H])([H])c2c([H])c(OC([H])([H])C(=NC(c3c([H])c([H])c(N([H])C(=O)N4C([H])([H])C([H])([H])C([H])([H])C([H])(n5nc(-c6c([H])c([H])c(Oc7c([H])c([H])c(F)c([H])c7F)c([H])c6[H])c(C(=O)N([H])[H])c5N([H])[H])C4([H])[H])c([H])c3[H])=[N+]([H])[H])C([H])([H])[H])c([H])c([H])c2C1([H])[H]

>  <smiles>  (80) 
[H]c1c([H])c([H])c2c(c1[H])C([H])([H])C([H])([H])C([H])([H])C2([H])N([H])C(=O)C1([H])N(C(=O)C([H])(N([H])C(=O)C([H])(N([H])C([H])([H])[H])C([H])([H])[H])C(C([H])([H])[H])(C([H])([H])[H])C([H])([H])[H])C([H])([H])c2c([H])c(OC([H])([H])C(=NC(c3c([H])c([H])c(N([H])C(=O)N4C([H])([H])C([H])([H])C([H])([H])C([H])(n5nc(-c6c([H])c([H])c(Oc7c([H])c([H])c(F)c([H])c7F)c([H])c6[H])c(C(=O)N([H])[H])c5N([H])[H])C4([H])[H])c([H])c3[H])=[N+]([H])[H])C([H])([H])[H])c([H])c([H])c2C1([H])[H]

$$$$
80:0:0
     RDKit          3D

 95104  0  0  1  0  0  0  0  0999 V2000
  -29.0840  -24.4940   19.1280 C   0  0  0  0  0  3  0  0  0  0  0  0
  -28.5160  -23.6190   20.1600 C   0  0  0  0  0  0  0  0  0  0  0  0
  -28.9790  -25.8530   19.0290 C   0  0  0  0  0  2  0  0  0  0  0  0
  -28.5270  -21.2010   20.6000 C   0  0  0  0  0  0  0  0  0  0  0  0
  -29.9020  -23.6600   18.1920 C   0  0  0  0  0  2  0  0  0  0  0  0
  -30.0510  -22.3440   18.9540 C   0  0  0  0  0  2  0  0  0  0  0  0
  -28.9730  -22.3350   19.9490 N   0  0  0  0  0  0  0  0  0  0  0  0
  -27.7250  -23.9830   21.0360 O   0  0  0  0  0  0  0  0  0  0  0  0
  -27.5960  -21.2270   21.4120 O   0  0  0  0  0  0  0  0  0  0  0  0
  -29.2140  -19.0700   19.2110 C   0  0  0  0  0  3  0  0  0  0  0  0
  -29.6590  -17.7140   19.1750 C   0  0  0  0  0  3  0  0  0  0  0  0
  -29.5840  -19.1260   21.5950 C   0  0  0  0  0  3  0  0  0  0  0  0
  -29.1780  -19.8180   20.4270 C   0  0  0  0  0  0  0  0  0  0  0  0
  -30.0090  -17.0380   20.3710 C   0  0  0  0  0  0  0  0  0  0  0  0
  -29.9730  -17.7700   21.5730 C   0  0  0  0  0  0  0  0  0  0  0  0
  -30.2350  -17.1280   22.7370 F   0  0  0  0  0  0  0  0  0  0  0  0
  -30.8770  -14.6700   19.9280 C   0  0  0  0  0  0  0  0  0  0  0  0
  -30.6760  -12.4280   18.9110 C   0  0  0  0  0  2  0  0  0  0  0  0
  -29.6510  -12.5510   17.7650 C   0  0  0  0  0  2  0  0  0  0  0  0
  -28.2100  -12.3780   18.2900 C   0  0  0  0  0  2  0  0  0  0  0  0
  -27.9260  -13.2390   19.5510 C   0  0  0  0  0  3  0  0  0  0  0  0
  -29.0570  -13.0580   20.5890 C   0  0  0  0  0  2  0  0  0  0  0  0
  -30.3250  -13.4230   19.9340 N   0  0  0  0  0  0  0  0  0  0  0  0
  -31.9460  -14.9280   19.3660 O   0  0  0  0  0  0  0  0  0  0  0  0
  -30.0970  -15.6110   20.5010 N   0  0  0  0  0  0  0  0  0  0  0  0
  -29.3430  -15.2270   21.0460 H   0  0  0  0  0  0  0  0  0  0  0  0
  -25.6030  -13.8380   20.4840 C   0  0  0  0  0  0  0  0  0  0  0  0
  -24.5600  -13.0590   20.9050 C   0  0  0  0  0  0  0  0  0  0  0  0
  -24.9990  -11.7060   20.7690 C   0  0  0  0  0  0  0  0  0  0  0  0
  -26.6110  -12.9560   20.1200 N   0  0  0  0  0  0  0  0  0  0  0  0
  -26.2570  -11.6670   20.3500 N   0  0  0  0  0  0  0  0  0  0  0  0
  -24.2730  -10.4450   20.9530 C   0  0  0  0  0  0  0  0  0  0  0  0
  -24.6830   -9.4960   21.9130 C   0  0  0  0  0  3  0  0  0  0  0  0
  -23.9620   -8.2950   22.0870 C   0  0  0  0  0  3  0  0  0  0  0  0
  -22.8170   -8.0360   21.2940 C   0  0  0  0  0  0  0  0  0  0  0  0
  -22.4270   -8.9740   20.3200 C   0  0  0  0  0  3  0  0  0  0  0  0
  -23.1500  -10.1670   20.1480 C   0  0  0  0  0  3  0  0  0  0  0  0
  -22.0620   -6.8900   21.3810 O   0  0  0  0  0  0  0  0  0  0  0  0
  -21.8360   -6.2630   22.5780 C   0  0  0  0  0  0  0  0  0  0  0  0
  -21.2120   -6.9230   23.6590 C   0  0  0  0  0  3  0  0  0  0  0  0
  -20.9310   -6.2170   24.8450 C   0  0  0  0  0  3  0  0  0  0  0  0
  -21.2690   -4.8540   24.9530 C   0  0  0  0  0  0  0  0  0  0  0  0
  -21.8870   -4.1960   23.8740 C   0  0  0  0  0  3  0  0  0  0  0  0
  -22.1660   -4.8960   22.6910 C   0  0  0  0  0  0  0  0  0  0  0  0
  -22.7400   -4.2490   21.6470 F   0  0  0  0  0  0  0  0  0  0  0  0
  -20.9950   -4.1760   26.0920 F   0  0  0  0  0  0  0  0  0  0  0  0
  -23.1970  -13.5340   21.3180 C   0  0  0  0  0  0  0  0  0  0  0  0
  -22.5440  -12.8080   22.2150 N   0  0  0  0  0  0  0  0  0  0  0  0
  -22.7250  -14.5820   20.8820 O   0  0  0  0  0  0  0  0  0  0  0  0
  -22.9450  -11.9560   22.5810 H   0  0  0  0  0  0  0  0  0  0  0  0
  -21.6380  -13.1050   22.5460 H   0  0  0  0  0  0  0  0  0  0  0  0
  -25.7700  -15.2120   20.3590 N   0  0  0  0  0  0  0  0  0  0  0  0
  -25.0350  -15.8680   20.6060 H   0  0  0  0  0  0  0  0  0  0  0  0
  -26.5450  -15.6540   19.8840 H   0  0  0  0  0  0  0  0  0  0  0  0
  -28.5770  -26.7410   20.0120 O   0  0  0  0  0  0  0  0  0  0  0  0
  -24.8570  -31.7990   23.3380 C   0  0  0  0  0  0  0  0  0  0  0  0
  -27.4400  -27.5270   19.9270 C   0  0  0  0  0  0  0  0  0  0  0  0
  -23.6150  -30.4530   21.6820 C   0  0  0  0  0  3  0  0  0  0  0  0
  -25.0320  -29.0150   20.1080 C   0  0  0  0  0  0  0  0  0  0  0  0
  -26.1240  -30.8660   21.3890 C   0  0  0  0  0  2  0  0  0  0  0  0
  -26.2060  -29.5270   20.6740 C   0  0  0  0  0  0  0  0  0  0  0  0
  -27.4130  -28.7910   20.5730 C   0  0  0  0  0  3  0  0  0  0  0  0
  -26.2490  -27.0460   19.3430 C   0  0  0  0  0  3  0  0  0  0  0  0
  -25.0520  -27.7870   19.4260 C   0  0  0  0  0  3  0  0  0  0  0  0
  -23.7770  -29.8440   20.2610 C   0  0  0  0  0  2  0  0  0  0  0  0
  -24.8890  -31.0510   22.1970 N   0  0  0  0  0  0  0  0  0  0  0  0
  -23.7920  -32.0230   23.9320 O   0  0  0  0  0  0  0  0  0  0  0  0
  -23.0160  -29.3780   22.6180 C   0  0  0  0  0  0  0  0  0  0  0  0
  -21.7100  -29.1080   22.4600 N   0  0  0  0  0  0  0  0  0  0  0  0
  -23.7230  -28.7920   23.4410 O   0  0  0  0  0  0  0  0  0  0  0  0
  -21.2000  -29.6370   21.7670 H   0  0  0  0  0  0  0  0  0  0  0  0
  -18.4460  -27.5740   22.7500 C   0  0  0  0  0  0  0  0  0  0  0  0
  -20.9380  -28.1070   23.1970 C   0  0  0  0  0  3  0  0  0  0  0  0
  -21.2300  -26.6840   22.6670 C   0  0  0  0  0  2  0  0  0  0  0  0
  -20.2420  -26.2250   21.5900 C   0  0  0  0  0  2  0  0  0  0  0  0
  -18.8100  -26.2350   22.1310 C   0  0  0  0  0  2  0  0  0  0  0  0
  -19.4440  -28.4590   23.2360 C   0  0  0  0  0  0  0  0  0  0  0  0
  -19.0520  -29.7040   23.7740 C   0  0  0  0  0  3  0  0  0  0  0  0
  -17.6920  -30.0650   23.8360 C   0  0  0  0  0  3  0  0  0  0  0  0
  -16.7080  -29.1770   23.3700 C   0  0  0  0  0  3  0  0  0  0  0  0
  -17.0850  -27.9340   22.8310 C   0  0  0  0  0  3  0  0  0  0  0  0
  -26.1500  -32.4260   23.9410 C   0  0  0  0  0  3  0  0  0  0  0  0
  -25.8500  -33.8260   24.2750 N   0  0  0  0  0  0  0  0  0  0  0  0
  -26.1450  -34.8730   23.4920 C   0  0  0  0  0  0  0  0  0  0  0  0
  -26.7650  -34.7650   22.4320 O   0  0  0  0  0  0  0  0  0  0  0  0
  -25.2900  -33.9820   25.1000 H   0  0  0  0  0  0  0  0  0  0  0  0
  -24.3930  -36.6550   23.2170 C   0  0  0  0  0  1  0  0  0  0  0  0
  -25.6810  -36.2650   23.9610 C   0  0  0  0  0  3  0  0  0  0  0  0
  -27.8590  -37.1690   24.6550 C   0  0  0  0  0  1  0  0  0  0  0  0
  -26.7020  -37.3210   23.7740 N   0  0  0  0  0  0  0  0  0  0  0  0
  -26.3020  -38.2400   23.9350 H   0  0  0  0  0  0  0  0  0  0  0  0
  -26.6820  -31.6490   25.2070 C   0  0  1  0  0  0  0  0  0  0  0  0
  -25.6030  -31.4060   26.2900 C   0  0  0  0  0  1  0  0  0  0  0  0
  -27.2490  -30.2700   24.7910 C   0  0  0  0  0  1  0  0  0  0  0  0
  -27.8490  -32.4310   25.8500 C   0  0  0  0  0  1  0  0  0  0  0  0
  1  3  1  0
  1  2  1  0
  2  8  2  0
  3 55  1  0
  4  9  2  0
  5  6  1  0
  5  1  1  0
  6  7  1  0
  7  2  1  0
  7  4  1  0
 10 13  1  0
 11 10  2  0
 11 14  1  0
 13  4  1  0
 13 12  2  0
 14 25  1  0
 14 15  2  0
 15 12  1  0
 15 16  1  0
 17 23  1  0
 17 25  1  0
 18 23  1  0
 19 20  1  0
 19 18  1  0
 21 20  1  0
 21 30  1  0
 21 22  1  0
 23 22  1  0
 24 17  2  0
 25 26  1  0
 27 28  2  0
 28 47  1  0
 29 28  1  0
 29 32  1  0
 30 31  1  0
 30 27  1  0
 31 29  2  0
 32 33  1  0
 33 34  2  0
 35 38  1  0
 35 34  1  0
 36 35  2  0
 37 36  1  0
 37 32  2  0
 38 39  1  0
 39 44  2  0
 39 40  1  0
 40 41  2  0
 41 42  1  0
 42 46  1  0
 43 42  2  0
 44 43  1  0
 45 44  1  0
 47 48  1  0
 48 51  1  0
 48 50  1  0
 49 47  2  0
 52 27  1  0
 52 53  1  0
 54 52  1  0
 56 67  2  0
 57 55  1  0
 57 62  1  0
 58 66  1  0
 58 68  1  0
 59 65  1  0
 59 61  1  0
 60 66  1  0
 61 60  1  0
 62 61  2  0
 63 64  1  0
 63 57  2  0
 64 59  2  0
 65 58  1  0
 66 56  1  0
 68 70  2  0
 69 68  1  0
 71 69  1  0
 72 81  2  0
 72 77  1  0
 73 69  1  0
 73 77  1  0
 74 73  1  0
 75 76  1  0
 75 74  1  0
 76 72  1  0
 77 78  2  0
 78 79  1  0
 80 79  2  0
 81 80  1  0
 82 56  1  0
 82 83  1  0
 82 92  1  0
 83 86  1  0
 84 88  1  0
 84 83  1  0
 85 84  2  0
 88 87  1  0
 90 91  1  0
 90 88  1  0
 90 89  1  0
 92 95  1  1
 92 93  1  0
 94 92  1  0
M  ISO  4   3 101  17 100  25 100  55 101
M  END
>  <TORSDO>  (81) 
F 17

>  <SCORE>  (81) 
-13.330

>  <name>  (81) 
80

>  <ligand_id>  (81) 
80

>  <original_smiles>  (81) 
[H]C(Oc1c([H])c([H])c2c(c1[H])C([H])([H])N(C(=O)C([H])(N([H])C(=O)C([H])(N([H])C([H])([H])[H])C([H])([H])[H])C(C([H])([H])[H])(C([H])([H])[H])C([H])([H])[H])C([H])(C(=O)N([H])C1([H])c3c([H])c([H])c([H])c([H])c3C([H])([H])C([H])([H])C1([H])[H])C2([H])[H])=C1C(=O)N(C(=O)c2c([H])c([H])c(N([H])C(=O)N3C([H])([H])C([H])([H])C([H])([H])C([H])(n4nc(-c5c([H])c([H])c(Oc6c([H])c([H])c(F)c([H])c6F)c([H])c5[H])c(C(=O)N([H])[H])c4N([H])[H])C3([H])[H])c(F)c2[H])C([H])([H])C1([H])[H]

>  <smiles>  (81) 
[H]C(Oc1c([H])c([H])c2c(c1[H])C([H])([H])N(C(=O)C([H])(N([H])C(=O)C([H])(N([H])C([H])([H])[H])C([H])([H])[H])C(C([H])([H])[H])(C([H])([H])[H])C([H])([H])[H])C([H])(C(=O)N([H])C1([H])c3c([H])c([H])c([H])c([H])c3C([H])([H])C([H])([H])C1([H])[H])C2([H])[H])=C1C(=O)N(C(=O)c2c([H])c([H])c(N([H])C(=O)N3C([H])([H])C([H])([H])C([H])([H])C([H])(n4nc(-c5c([H])c([H])c(Oc6c([H])c([H])c(F)c([H])c6F)c([H])c5[H])c(C(=O)N([H])[H])c4N([H])[H])C3([H])[H])c(F)c2[H])C([H])([H])C1([H])[H]

$$$$
81:0:0
     RDKit          3D

 92100  0  0  1  0  0  0  0  0999 V2000
  -30.1540  -21.6960   20.5780 C   0  0  0  0  0  0  0  0  0  0  0  0
  -29.1800  -22.5970   20.2390 N   0  0  0  0  0  0  0  0  0  0  0  0
  -31.2290  -22.1220   21.0090 O   0  0  0  0  0  0  0  0  0  0  0  0
  -28.3030  -22.2470   19.8780 H   0  0  0  0  0  0  0  0  0  0  0  0
  -31.2010  -19.3550   20.3740 C   0  0  0  0  0  3  0  0  0  0  0  0
  -31.1730  -17.9280   20.3800 C   0  0  0  0  0  3  0  0  0  0  0  0
  -28.8010  -19.4450   20.4500 C   0  0  0  0  0  3  0  0  0  0  0  0
  -30.0260  -20.1630   20.4170 C   0  0  0  0  0  0  0  0  0  0  0  0
  -29.9490  -17.2140   20.4350 C   0  0  0  0  0  0  0  0  0  0  0  0
  -28.7700  -18.0130   20.4580 C   0  0  0  0  0  0  0  0  0  0  0  0
  -27.5720  -17.3840   20.5040 F   0  0  0  0  0  0  0  0  0  0  0  0
  -30.5780  -14.7090   20.0550 C   0  0  0  0  0  0  0  0  0  0  0  0
  -30.2750  -12.5140   18.9210 C   0  0  0  0  0  2  0  0  0  0  0  0
  -29.2600  -12.7020   17.7720 C   0  0  0  0  0  2  0  0  0  0  0  0
  -27.8150  -12.5410   18.2850 C   0  0  0  0  0  2  0  0  0  0  0  0
  -27.5450  -13.3600   19.5760 C   0  0  0  0  0  3  0  0  0  0  0  0
  -28.6670  -13.1470   20.6170 C   0  0  0  0  0  2  0  0  0  0  0  0
  -29.9430  -13.4960   19.9730 N   0  0  0  0  0  0  0  0  0  0  0  0
  -31.7180  -14.8600   19.6060 O   0  0  0  0  0  0  0  0  0  0  0  0
  -29.8090  -15.7550   20.4910 N   0  0  0  0  0  0  0  0  0  0  0  0
  -28.9030  -15.4620   20.8260 H   0  0  0  0  0  0  0  0  0  0  0  0
  -25.2020  -13.9640   20.4430 C   0  0  0  0  0  0  0  0  0  0  0  0
  -24.1490  -13.1930   20.8520 C   0  0  0  0  0  0  0  0  0  0  0  0
  -24.5940  -11.8380   20.7620 C   0  0  0  0  0  0  0  0  0  0  0  0
  -26.2230  -13.0800   20.1310 N   0  0  0  0  0  0  0  0  0  0  0  0
  -25.8650  -11.7940   20.3810 N   0  0  0  0  0  0  0  0  0  0  0  0
  -23.8650  -10.5790   20.9610 C   0  0  0  0  0  0  0  0  0  0  0  0
  -24.3100   -9.6050   21.8820 C   0  0  0  0  0  3  0  0  0  0  0  0
  -23.5810   -8.4110   22.0690 C   0  0  0  0  0  3  0  0  0  0  0  0
  -22.3930   -8.1820   21.3370 C   0  0  0  0  0  0  0  0  0  0  0  0
  -21.9650   -9.1450   20.4050 C   0  0  0  0  0  3  0  0  0  0  0  0
  -22.6950  -10.3310   20.2150 C   0  0  0  0  0  3  0  0  0  0  0  0
  -21.6330   -7.0410   21.4330 O   0  0  0  0  0  0  0  0  0  0  0  0
  -21.5640   -6.3210   22.5990 C   0  0  0  0  0  0  0  0  0  0  0  0
  -21.1030   -6.8940   23.8030 C   0  0  0  0  0  3  0  0  0  0  0  0
  -20.9810   -6.0990   24.9610 C   0  0  0  0  0  3  0  0  0  0  0  0
  -21.3110   -4.7320   24.9140 C   0  0  0  0  0  0  0  0  0  0  0  0
  -21.7650   -4.1570   23.7140 C   0  0  0  0  0  3  0  0  0  0  0  0
  -21.8880   -4.9490   22.5580 C   0  0  0  0  0  0  0  0  0  0  0  0
  -22.3050   -4.3860   21.3990 F   0  0  0  0  0  0  0  0  0  0  0  0
  -21.1870   -3.9650   26.0230 F   0  0  0  0  0  0  0  0  0  0  0  0
  -22.7760  -13.6780   21.2170 C   0  0  0  0  0  0  0  0  0  0  0  0
  -22.0920  -12.9670   22.1060 N   0  0  0  0  0  0  0  0  0  0  0  0
  -22.3200  -14.7200   20.7490 O   0  0  0  0  0  0  0  0  0  0  0  0
  -22.4730  -12.1230   22.5070 H   0  0  0  0  0  0  0  0  0  0  0  0
  -21.1720  -13.2740   22.3920 H   0  0  0  0  0  0  0  0  0  0  0  0
  -25.3700  -15.3370   20.2950 N   0  0  0  0  0  0  0  0  0  0  0  0
  -24.6230  -15.9930   20.4960 H   0  0  0  0  0  0  0  0  0  0  0  0
  -26.2270  -15.7990   20.0180 H   0  0  0  0  0  0  0  0  0  0  0  0
  -29.3480  -24.0970   20.3960 C   0  0  0  0  0  3  0  0  0  0  0  0
  -28.1900  -25.0720   19.9160 C   0  0  0  0  0  3  0  0  0  0  0  0
  -28.3700  -26.5270   20.1480 O   0  0  0  0  0  0  0  0  0  0  0  0
  -24.6040  -31.8730   23.1920 C   0  0  0  0  0  0  0  0  0  0  0  0
  -27.2410  -27.3600   20.0970 C   0  0  0  0  0  0  0  0  0  0  0  0
  -23.4070  -30.4820   21.5410 C   0  0  0  0  0  3  0  0  0  0  0  0
  -24.8640  -28.9530   20.1010 C   0  0  0  0  0  0  0  0  0  0  0  0
  -25.9430  -30.8190   21.3560 C   0  0  0  0  0  2  0  0  0  0  0  0
  -26.0300  -29.4460   20.7000 C   0  0  0  0  0  0  0  0  0  0  0  0
  -27.2210  -28.6610   20.6880 C   0  0  0  0  0  3  0  0  0  0  0  0
  -26.0500  -26.9220   19.4710 C   0  0  0  0  0  3  0  0  0  0  0  0
  -24.8760  -27.6960   19.4780 C   0  0  0  0  0  3  0  0  0  0  0  0
  -23.6220  -29.8190   20.1550 C   0  0  0  0  0  2  0  0  0  0  0  0
  -24.6700  -31.0740   22.0870 N   0  0  0  0  0  0  0  0  0  0  0  0
  -23.5200  -32.1410   23.7290 O   0  0  0  0  0  0  0  0  0  0  0  0
  -22.7510  -29.4530   22.4930 C   0  0  0  0  0  0  0  0  0  0  0  0
  -21.4240  -29.2800   22.3730 N   0  0  0  0  0  0  0  0  0  0  0  0
  -23.4340  -28.8160   23.2980 O   0  0  0  0  0  0  0  0  0  0  0  0
  -20.9320  -29.8460   21.6960 H   0  0  0  0  0  0  0  0  0  0  0  0
  -18.0430  -28.1060   22.9010 C   0  0  0  0  0  0  0  0  0  0  0  0
  -20.6070  -28.3350   23.1370 C   0  0  0  0  0  3  0  0  0  0  0  0
  -20.6870  -26.9150   22.5310 C   0  0  0  0  0  2  0  0  0  0  0  0
  -19.5660  -26.6230   21.5290 C   0  0  0  0  0  2  0  0  0  0  0  0
  -18.1950  -26.7690   22.1970 C   0  0  0  0  0  2  0  0  0  0  0  0
  -19.1760  -28.8490   23.3280 C   0  0  0  0  0  0  0  0  0  0  0  0
  -18.9780  -30.1020   23.9480 C   0  0  0  0  0  3  0  0  0  0  0  0
  -17.6810  -30.6130   24.1440 C   0  0  0  0  0  3  0  0  0  0  0  0
  -16.5630  -29.8670   23.7320 C   0  0  0  0  0  3  0  0  0  0  0  0
  -16.7450  -28.6150   23.1170 C   0  0  0  0  0  3  0  0  0  0  0  0
  -25.8840  -32.5060   23.8180 C   0  0  0  0  0  3  0  0  0  0  0  0
  -26.3910  -31.7390   25.1020 C   0  0  1  0  0  0  0  0  0  0  0  0
  -25.2900  -31.5050   26.1620 C   0  0  0  0  0  1  0  0  0  0  0  0
  -26.9770  -30.3610   24.7180 C   0  0  0  0  0  1  0  0  0  0  0  0
  -27.5370  -32.5360   25.7700 C   0  0  0  0  0  1  0  0  0  0  0  0
  -25.5750  -33.9070   24.1420 N   0  0  0  0  0  0  0  0  0  0  0  0
  -25.8980  -34.9550   23.3730 C   0  0  0  0  0  0  0  0  0  0  0  0
  -26.5600  -34.8460   22.3370 O   0  0  0  0  0  0  0  0  0  0  0  0
  -24.9870  -34.0650   24.9470 H   0  0  0  0  0  0  0  0  0  0  0  0
  -24.1610  -36.7400   23.0240 C   0  0  0  0  0  1  0  0  0  0  0  0
  -25.4130  -36.3450   23.8250 C   0  0  0  0  0  3  0  0  0  0  0  0
  -27.5500  -37.2460   24.6320 C   0  0  0  0  0  1  0  0  0  0  0  0
  -26.4410  -37.4010   23.6930 N   0  0  0  0  0  0  0  0  0  0  0  0
  -26.0330  -38.3210   23.8330 H   0  0  0  0  0  0  0  0  0  0  0  0
  1  3  2  0
  2 50  1  0
  2  1  1  0
  4  2  1  0
  5  6  2  0
  5  8  1  0
  6  9  1  0
  7 10  1  0
  8  7  2  0
  8  1  1  0
  9 10  2  0
  9 20  1  0
 10 11  1  0
 12 20  1  0
 13 18  1  0
 14 15  1  0
 14 13  1  0
 16 15  1  0
 16 25  1  0
 16 17  1  0
 18 12  1  0
 18 17  1  0
 19 12  2  0
 20 21  1  0
 22 23  2  0
 23 42  1  0
 24 23  1  0
 24 27  1  0
 25 26  1  0
 25 22  1  0
 26 24  2  0
 27 28  1  0
 28 29  2  0
 30 33  1  0
 30 29  1  0
 31 30  2  0
 32 31  1  0
 32 27  2  0
 33 34  1  0
 34 35  1  0
 35 36  2  0
 37 36  1  0
 37 41  1  0
 38 37  2  0
 39 34  2  0
 39 38  1  0
 40 39  1  0
 42 43  1  0
 43 46  1  0
 43 45  1  0
 44 42  2  0
 47 22  1  0
 47 48  1  0
 49 47  1  0
 51 52  1  0
 51 50  2  0
 53 64  2  0
 54 52  1  0
 54 59  1  0
 55 63  1  0
 55 65  1  0
 56 62  1  0
 56 58  1  0
 57 63  1  0
 58 57  1  0
 59 58  2  0
 60 61  1  0
 60 54  2  0
 61 56  2  0
 62 55  1  0
 63 53  1  0
 65 67  2  0
 66 65  1  0
 68 66  1  0
 69 78  2  0
 69 74  1  0
 70 66  1  0
 70 74  1  0
 71 70  1  0
 72 73  1  0
 72 71  1  0
 73 69  1  0
 74 75  2  0
 75 76  1  0
 77 76  2  0
 78 77  1  0
 79 53  1  0
 79 84  1  0
 79 80  1  0
 80 83  1  1
 80 81  1  0
 82 80  1  0
 84 87  1  0
 85 89  1  0
 85 84  1  0
 86 85  2  0
 89 88  1  0
 91 89  1  0
 91 92  1  0
 91 90  1  0
M  ISO  4  12 100  20 100  51 101  52 101
M  END
>  <TORSDO>  (82) 
F 19

>  <SCORE>  (82) 
-14.373

>  <name>  (82) 
81

>  <ligand_id>  (82) 
81

>  <original_smiles>  (82) 
[H]c1c([H])c([H])c2c(c1[H])C([H])([H])C([H])([H])C([H])([H])C2([H])N([H])C(=O)C1([H])N(C(=O)C([H])(N([H])C(=O)C([H])(N([H])C([H])([H])[H])C([H])([H])[H])C(C([H])([H])[H])(C([H])([H])[H])C([H])([H])[H])C([H])([H])c2c([H])c(OC([H])([H])C([H])([H])N([H])C(=O)c3c([H])c([H])c(N([H])C(=O)N4C([H])([H])C([H])([H])C([H])([H])C([H])(n5nc(-c6c([H])c([H])c(Oc7c([H])c([H])c(F)c([H])c7F)c([H])c6[H])c(C(=O)N([H])[H])c5N([H])[H])C4([H])[H])c(F)c3[H])c([H])c([H])c2C1([H])[H]

>  <smiles>  (82) 
[H]c1c([H])c([H])c2c(c1[H])C([H])([H])C([H])([H])C([H])([H])C2([H])N([H])C(=O)C1([H])N(C(=O)C([H])(N([H])C(=O)C([H])(N([H])C([H])([H])[H])C([H])([H])[H])C(C([H])([H])[H])(C([H])([H])[H])C([H])([H])[H])C([H])([H])c2c([H])c(OC([H])([H])C([H])([H])N([H])C(=O)c3c([H])c([H])c(N([H])C(=O)N4C([H])([H])C([H])([H])C([H])([H])C([H])(n5nc(-c6c([H])c([H])c(Oc7c([H])c([H])c(F)c([H])c7F)c([H])c6[H])c(C(=O)N([H])[H])c5N([H])[H])C4([H])[H])c(F)c3[H])c([H])c([H])c2C1([H])[H]

$$$$
82:0:0
     RDKit          3D

 93102  0  0  1  0  0  0  0  0999 V2000
  -27.9980  -23.2730   21.0590 C   0  0  0  0  0  3  0  0  0  0  0  0
  -28.6750  -23.8200   20.0410 C   0  0  0  0  0  0  0  0  0  0  0  0
  -28.3500  -21.8590   21.2140 C   0  0  0  0  0  0  0  0  0  0  0  0
  -29.4790  -22.6840   19.5130 C   0  0  0  0  0  0  0  0  0  0  0  0
  -29.2480  -21.5350   20.2540 N   0  0  0  0  0  0  0  0  0  0  0  0
  -27.9060  -21.0810   22.0650 O   0  0  0  0  0  0  0  0  0  0  0  0
  -30.2270  -22.7350   18.5300 O   0  0  0  0  0  0  0  0  0  0  0  0
  -32.3220  -19.3120   20.1680 C   0  0  0  0  0  3  0  0  0  0  0  0
  -31.4430  -20.4060   20.1480 C   0  0  0  0  0  3  0  0  0  0  0  0
  -31.8540  -17.9900   20.2420 C   0  0  0  0  0  3  0  0  0  0  0  0
  -29.5800  -18.8460   20.2910 C   0  0  0  0  0  3  0  0  0  0  0  0
  -30.0400  -20.2460   20.2140 C   0  0  0  0  0  0  0  0  0  0  0  0
  -30.4740  -17.6730   20.2850 C   0  0  0  0  0  0  0  0  0  0  0  0
  -30.7840  -15.0350   20.1030 C   0  0  0  0  0  0  0  0  0  0  0  0
  -30.5330  -12.7510   19.1010 C   0  0  0  0  0  2  0  0  0  0  0  0
  -29.5550  -12.8070   17.9080 C   0  0  0  0  0  2  0  0  0  0  0  0
  -28.1070  -12.6140   18.3940 C   0  0  0  0  0  2  0  0  0  0  0  0
  -27.7690  -13.4970   19.6260 C   0  0  0  0  0  3  0  0  0  0  0  0
  -28.8710  -13.4460   20.7050 C   0  0  0  0  0  2  0  0  0  0  0  0
  -30.1320  -13.8170   20.0550 N   0  0  0  0  0  0  0  0  0  0  0  0
  -31.9610  -15.0600   19.7380 O   0  0  0  0  0  0  0  0  0  0  0  0
  -30.0660  -16.2190   20.3440 N   0  0  0  0  0  0  0  0  0  0  0  0
  -29.0900  -16.0600   20.5460 H   0  0  0  0  0  0  0  0  0  0  0  0
  -25.4180  -14.0540   20.4810 C   0  0  0  0  0  0  0  0  0  0  0  0
  -24.3710  -13.2650   20.8720 C   0  0  0  0  0  0  0  0  0  0  0  0
  -24.8340  -11.9170   20.7790 C   0  0  0  0  0  0  0  0  0  0  0  0
  -26.4510  -13.1850   20.1700 N   0  0  0  0  0  0  0  0  0  0  0  0
  -26.1110  -11.8920   20.4140 N   0  0  0  0  0  0  0  0  0  0  0  0
  -24.1170  -10.6470   20.9590 C   0  0  0  0  0  0  0  0  0  0  0  0
  -24.5490   -9.6800   21.8940 C   0  0  0  0  0  3  0  0  0  0  0  0
  -23.8310   -8.4770   22.0640 C   0  0  0  0  0  3  0  0  0  0  0  0
  -22.6660   -8.2320   21.2970 C   0  0  0  0  0  0  0  0  0  0  0  0
  -22.2540   -9.1880   20.3520 C   0  0  0  0  0  3  0  0  0  0  0  0
  -22.9730  -10.3820   20.1810 C   0  0  0  0  0  3  0  0  0  0  0  0
  -21.9190   -7.0810   21.3760 O   0  0  0  0  0  0  0  0  0  0  0  0
  -21.8130   -6.3700   22.5440 C   0  0  0  0  0  0  0  0  0  0  0  0
  -21.2670   -6.9390   23.7160 C   0  0  0  0  0  3  0  0  0  0  0  0
  -21.1130   -6.1510   24.8740 C   0  0  0  0  0  3  0  0  0  0  0  0
  -21.4940   -4.7970   24.8620 C   0  0  0  0  0  0  0  0  0  0  0  0
  -22.0340   -4.2280   23.6950 C   0  0  0  0  0  3  0  0  0  0  0  0
  -22.1890   -5.0120   22.5390 C   0  0  0  0  0  0  0  0  0  0  0  0
  -22.6900   -4.4530   21.4110 F   0  0  0  0  0  0  0  0  0  0  0  0
  -21.3390   -4.0380   25.9730 F   0  0  0  0  0  0  0  0  0  0  0  0
  -22.9860  -13.7310   21.2170 C   0  0  0  0  0  0  0  0  0  0  0  0
  -22.2960  -13.0060   22.0910 N   0  0  0  0  0  0  0  0  0  0  0  0
  -22.5280  -14.7700   20.7470 O   0  0  0  0  0  0  0  0  0  0  0  0
  -22.6820  -12.1650   22.4920 H   0  0  0  0  0  0  0  0  0  0  0  0
  -21.3690  -13.2990   22.3630 H   0  0  0  0  0  0  0  0  0  0  0  0
  -25.5710  -15.4290   20.3380 N   0  0  0  0  0  0  0  0  0  0  0  0
  -24.8040  -16.0740   20.4960 H   0  0  0  0  0  0  0  0  0  0  0  0
  -26.3920  -15.8800   19.9550 H   0  0  0  0  0  0  0  0  0  0  0  0
  -28.5500  -25.2810   19.3780 C   0  0  0  0  0  2  0  0  0  0  0  0
  -28.4080  -26.5740   20.1490 O   0  0  0  0  0  0  0  0  0  0  0  0
  -24.6300  -31.9660   23.2260 C   0  0  0  0  0  0  0  0  0  0  0  0
  -27.2870  -27.4440   20.0700 C   0  0  0  0  0  0  0  0  0  0  0  0
  -23.4390  -30.5740   21.5730 C   0  0  0  0  0  3  0  0  0  0  0  0
  -24.9030  -29.0680   20.1040 C   0  0  0  0  0  0  0  0  0  0  0  0
  -25.9760  -30.9210   21.3800 C   0  0  0  0  0  2  0  0  0  0  0  0
  -26.0720  -29.5500   20.7050 C   0  0  0  0  0  0  0  0  0  0  0  0
  -27.2610  -28.7490   20.6790 C   0  0  0  0  0  3  0  0  0  0  0  0
  -26.0860  -27.0300   19.4510 C   0  0  0  0  0  3  0  0  0  0  0  0
  -24.9170  -27.8170   19.4680 C   0  0  0  0  0  3  0  0  0  0  0  0
  -23.6540  -29.9260   20.1790 C   0  0  0  0  0  2  0  0  0  0  0  0
  -24.7020  -31.1730   22.1160 N   0  0  0  0  0  0  0  0  0  0  0  0
  -23.5450  -32.2170   23.7720 O   0  0  0  0  0  0  0  0  0  0  0  0
  -22.7980  -29.5320   22.5220 C   0  0  0  0  0  0  0  0  0  0  0  0
  -21.4740  -29.3330   22.4030 N   0  0  0  0  0  0  0  0  0  0  0  0
  -23.4930  -28.9070   23.3280 O   0  0  0  0  0  0  0  0  0  0  0  0
  -20.9710  -29.8920   21.7290 H   0  0  0  0  0  0  0  0  0  0  0  0
  -18.1220  -28.0670   22.9140 C   0  0  0  0  0  0  0  0  0  0  0  0
  -20.6780  -28.3690   23.1650 C   0  0  0  0  0  3  0  0  0  0  0  0
  -20.8000  -26.9500   22.5650 C   0  0  0  0  0  2  0  0  0  0  0  0
  -19.6950  -26.6240   21.5550 C   0  0  0  0  0  2  0  0  0  0  0  0
  -18.3160  -26.7330   22.2130 C   0  0  0  0  0  2  0  0  0  0  0  0
  -19.2310  -28.8420   23.3480 C   0  0  0  0  0  0  0  0  0  0  0  0
  -18.9940  -30.0900   23.9640 C   0  0  0  0  0  3  0  0  0  0  0  0
  -17.6820  -30.5640   24.1510 C   0  0  0  0  0  3  0  0  0  0  0  0
  -16.5880  -29.7860   23.7340 C   0  0  0  0  0  3  0  0  0  0  0  0
  -16.8090  -28.5390   23.1210 C   0  0  0  0  0  3  0  0  0  0  0  0
  -25.9040  -32.6120   23.8500 C   0  0  0  0  0  3  0  0  0  0  0  0
  -25.5820  -34.0100   24.1750 N   0  0  0  0  0  0  0  0  0  0  0  0
  -25.9090  -35.0660   23.4180 C   0  0  0  0  0  0  0  0  0  0  0  0
  -26.5850  -34.9660   22.3910 O   0  0  0  0  0  0  0  0  0  0  0  0
  -24.9810  -34.1600   24.9720 H   0  0  0  0  0  0  0  0  0  0  0  0
  -24.1800  -36.8550   23.0450 C   0  0  0  0  0  1  0  0  0  0  0  0
  -25.4110  -36.4520   23.8730 C   0  0  0  0  0  3  0  0  0  0  0  0
  -27.5250  -37.3480   24.7450 C   0  0  0  0  0  1  0  0  0  0  0  0
  -26.4420  -37.5090   23.7780 N   0  0  0  0  0  0  0  0  0  0  0  0
  -26.0290  -38.4270   23.9140 H   0  0  0  0  0  0  0  0  0  0  0  0
  -26.4220  -31.8530   25.1320 C   0  0  1  0  0  0  0  0  0  0  0  0
  -25.3250  -31.6030   26.1940 C   0  0  0  0  0  1  0  0  0  0  0  0
  -27.0280  -30.4830   24.7520 C   0  0  0  0  0  1  0  0  0  0  0  0
  -27.5560  -32.6660   25.8010 C   0  0  0  0  0  1  0  0  0  0  0  0
  1  3  1  0
  2  1  2  0
  3  6  2  0
  4  2  1  0
  4  5  1  0
  5  3  1  0
  7  4  2  0
  8 10  1  0
  9  8  2  0
  9 12  1  0
 10 13  2  0
 12  5  1  0
 12 11  2  0
 13 11  1  0
 13 22  1  0
 14 22  1  0
 15 20  1  0
 16 17  1  0
 16 15  1  0
 18 17  1  0
 18 27  1  0
 18 19  1  0
 20 14  1  0
 20 19  1  0
 21 14  2  0
 22 23  1  0
 24 25  2  0
 25 44  1  0
 26 25  1  0
 26 29  1  0
 27 28  1  0
 27 24  1  0
 28 26  2  0
 29 30  1  0
 30 31  2  0
 32 35  1  0
 32 31  1  0
 33 32  2  0
 34 33  1  0
 34 29  2  0
 35 36  1  0
 36 37  1  0
 37 38  2  0
 39 38  1  0
 39 43  1  0
 40 39  2  0
 41 36  2  0
 41 40  1  0
 42 41  1  0
 44 45  1  0
 45 48  1  0
 45 47  1  0
 46 44  2  0
 49 24  1  0
 49 50  1  0
 51 49  1  0
 52  2  1  0
 52 53  1  0
 54 65  2  0
 55 53  1  0
 55 60  1  0
 56 64  1  0
 56 66  1  0
 57 63  1  0
 57 59  1  0
 58 64  1  0
 59 58  1  0
 60 59  2  0
 61 62  1  0
 61 55  2  0
 62 57  2  0
 63 56  1  0
 64 54  1  0
 66 68  2  0
 67 66  1  0
 69 67  1  0
 70 79  2  0
 70 75  1  0
 71 67  1  0
 71 75  1  0
 72 71  1  0
 73 74  1  0
 73 72  1  0
 74 70  1  0
 75 76  2  0
 76 77  1  0
 78 77  2  0
 79 78  1  0
 80 54  1  0
 80 81  1  0
 80 90  1  0
 81 84  1  0
 82 86  1  0
 82 81  1  0
 83 82  2  0
 86 85  1  0
 88 86  1  0
 88 89  1  0
 88 87  1  0
 90 93  1  1
 90 91  1  0
 92 90  1  0
M  ISO  4  14 100  22 100  52 101  53 101
M  END
>  <TORSDO>  (83) 
F 18

>  <SCORE>  (83) 
-14.060

>  <name>  (83) 
82

>  <ligand_id>  (83) 
82

>  <original_smiles>  (83) 
[H]C1=C(C([H])([H])Oc2c([H])c([H])c3c(c2[H])C([H])([H])N(C(=O)C([H])(N([H])C(=O)C([H])(N([H])C([H])([H])[H])C([H])([H])[H])C(C([H])([H])[H])(C([H])([H])[H])C([H])([H])[H])C([H])(C(=O)N([H])C2([H])c4c([H])c([H])c([H])c([H])c4C([H])([H])C([H])([H])C2([H])[H])C3([H])[H])C(=O)N(c2c([H])c([H])c([H])c(N([H])C(=O)N3C([H])([H])C([H])([H])C([H])([H])C([H])(n4nc(-c5c([H])c([H])c(Oc6c([H])c([H])c(F)c([H])c6F)c([H])c5[H])c(C(=O)N([H])[H])c4N([H])[H])C3([H])[H])c2[H])C1=O

>  <smiles>  (83) 
[H]C1=C(C([H])([H])Oc2c([H])c([H])c3c(c2[H])C([H])([H])N(C(=O)C([H])(N([H])C(=O)C([H])(N([H])C([H])([H])[H])C([H])([H])[H])C(C([H])([H])[H])(C([H])([H])[H])C([H])([H])[H])C([H])(C(=O)N([H])C2([H])c4c([H])c([H])c([H])c([H])c4C([H])([H])C([H])([H])C2([H])[H])C3([H])[H])C(=O)N(c2c([H])c([H])c([H])c(N([H])C(=O)N3C([H])([H])C([H])([H])C([H])([H])C([H])(n4nc(-c5c([H])c([H])c(Oc6c([H])c([H])c(F)c([H])c6F)c([H])c5[H])c(C(=O)N([H])[H])c4N([H])[H])C3([H])[H])c2[H])C1=O

$$$$
83:0:0
     RDKit          3D

 92101  0  0  1  0  0  0  0  0999 V2000
  -29.6120  -23.4150   21.2920 C   0  0  0  0  0  3  0  0  0  0  0  0
  -28.7590  -23.6340   20.2860 C   0  0  0  0  0  0  0  0  0  0  0  0
  -30.0050  -22.0060   21.3150 C   0  0  0  0  0  0  0  0  0  0  0  0
  -28.5920  -22.3100   19.6500 C   0  0  0  0  0  0  0  0  0  0  0  0
  -29.3630  -21.3730   20.3020 N   0  0  0  0  0  0  0  0  0  0  0  0
  -30.7790  -21.4710   22.1160 O   0  0  0  0  0  0  0  0  0  0  0  0
  -27.8470  -22.0630   18.6940 O   0  0  0  0  0  0  0  0  0  0  0  0
  -30.1090  -18.4800   17.9440 C   0  0  0  0  0  3  0  0  0  0  0  0
  -30.1250  -17.3350   18.7610 C   0  0  0  0  0  3  0  0  0  0  0  0
  -29.8610  -19.7580   18.4800 C   0  0  0  0  0  3  0  0  0  0  0  0
  -29.6570  -18.7610   20.6830 C   0  0  0  0  0  3  0  0  0  0  0  0
  -29.9100  -17.4230   20.1510 C   0  0  0  0  0  0  0  0  0  0  0  0
  -29.6130  -19.9640   19.8580 C   0  0  0  0  0  0  0  0  0  0  0  0
  -29.8720  -16.0750   21.0040 C   0  0  0  0  0  2  0  0  0  0  0  0
  -30.5980  -14.7340   20.4860 C   0  0  0  0  0  0  0  0  0  0  0  0
  -30.3930  -12.4750   19.4240 C   0  0  0  0  0  2  0  0  0  0  0  0
  -29.4740  -12.5840   18.1870 C   0  0  0  0  0  2  0  0  0  0  0  0
  -27.9950  -12.4270   18.5880 C   0  0  0  0  0  2  0  0  0  0  0  0
  -27.6150  -13.3000   19.8140 C   0  0  0  0  0  3  0  0  0  0  0  0
  -28.6540  -13.1640   20.9490 C   0  0  0  0  0  2  0  0  0  0  0  0
  -29.9680  -13.5100   20.3940 N   0  0  0  0  0  0  0  0  0  0  0  0
  -31.7600  -14.8330   20.0790 O   0  0  0  0  0  0  0  0  0  0  0  0
  -25.2120  -13.9100   20.4790 C   0  0  0  0  0  0  0  0  0  0  0  0
  -24.1350  -13.1460   20.8380 C   0  0  0  0  0  0  0  0  0  0  0  0
  -24.5930  -11.7930   20.8350 C   0  0  0  0  0  0  0  0  0  0  0  0
  -26.2580  -13.0250   20.2770 N   0  0  0  0  0  0  0  0  0  0  0  0
  -25.8900  -11.7460   20.5520 N   0  0  0  0  0  0  0  0  0  0  0  0
  -23.8580  -10.5360   21.0270 C   0  0  0  0  0  0  0  0  0  0  0  0
  -24.2800   -9.5690   21.9670 C   0  0  0  0  0  3  0  0  0  0  0  0
  -23.5460   -8.3780   22.1480 C   0  0  0  0  0  3  0  0  0  0  0  0
  -22.3730   -8.1450   21.3890 C   0  0  0  0  0  0  0  0  0  0  0  0
  -21.9700   -9.0990   20.4390 C   0  0  0  0  0  3  0  0  0  0  0  0
  -22.7050  -10.2820   20.2570 C   0  0  0  0  0  3  0  0  0  0  0  0
  -21.6110   -7.0040   21.4790 O   0  0  0  0  0  0  0  0  0  0  0  0
  -21.5660   -6.2570   22.6290 C   0  0  0  0  0  0  0  0  0  0  0  0
  -21.1640   -6.8120   23.8640 C   0  0  0  0  0  3  0  0  0  0  0  0
  -21.0660   -5.9910   25.0060 C   0  0  0  0  0  3  0  0  0  0  0  0
  -21.3590   -4.6180   24.9130 C   0  0  0  0  0  0  0  0  0  0  0  0
  -21.7520   -4.0620   23.6840 C   0  0  0  0  0  3  0  0  0  0  0  0
  -21.8520   -4.8790   22.5440 C   0  0  0  0  0  0  0  0  0  0  0  0
  -22.2120   -4.3350   21.3560 F   0  0  0  0  0  0  0  0  0  0  0  0
  -21.2560   -3.8270   26.0080 F   0  0  0  0  0  0  0  0  0  0  0  0
  -22.7350  -13.6320   21.0760 C   0  0  0  0  0  0  0  0  0  0  0  0
  -21.9880  -12.9520   21.9390 N   0  0  0  0  0  0  0  0  0  0  0  0
  -22.3110  -14.6500   20.5320 O   0  0  0  0  0  0  0  0  0  0  0  0
  -22.3420  -12.1280   22.4010 H   0  0  0  0  0  0  0  0  0  0  0  0
  -21.0460  -13.2590   22.1400 H   0  0  0  0  0  0  0  0  0  0  0  0
  -25.3850  -15.2780   20.2870 N   0  0  0  0  0  0  0  0  0  0  0  0
  -24.6200  -15.9390   20.3770 H   0  0  0  0  0  0  0  0  0  0  0  0
  -26.2460  -15.7110   19.9780 H   0  0  0  0  0  0  0  0  0  0  0  0
  -27.9290  -24.9190   19.8640 C   0  0  0  0  0  2  0  0  0  0  0  0
  -28.2430  -26.3440   20.2400 O   0  0  0  0  0  0  0  0  0  0  0  0
  -24.6030  -31.8820   23.2410 C   0  0  0  0  0  0  0  0  0  0  0  0
  -27.1710  -27.2750   20.1620 C   0  0  0  0  0  0  0  0  0  0  0  0
  -23.3870  -30.4890   21.6120 C   0  0  0  0  0  3  0  0  0  0  0  0
  -24.8230  -28.9440   20.1680 C   0  0  0  0  0  0  0  0  0  0  0  0
  -25.9330  -30.7850   21.4190 C   0  0  0  0  0  2  0  0  0  0  0  0
  -26.0030  -29.4050   20.7660 C   0  0  0  0  0  0  0  0  0  0  0  0
  -27.1770  -28.5820   20.7600 C   0  0  0  0  0  3  0  0  0  0  0  0
  -25.9680  -26.9060   19.5060 C   0  0  0  0  0  3  0  0  0  0  0  0
  -24.8120  -27.7010   19.5270 C   0  0  0  0  0  3  0  0  0  0  0  0
  -23.5910  -29.8230   20.2280 C   0  0  0  0  0  2  0  0  0  0  0  0
  -24.6600  -31.0690   22.1460 N   0  0  0  0  0  0  0  0  0  0  0  0
  -23.5230  -32.1630   23.7820 O   0  0  0  0  0  0  0  0  0  0  0  0
  -22.7290  -29.4700   22.5750 C   0  0  0  0  0  0  0  0  0  0  0  0
  -21.4030  -29.2870   22.4530 N   0  0  0  0  0  0  0  0  0  0  0  0
  -23.4110  -28.8470   23.3920 O   0  0  0  0  0  0  0  0  0  0  0  0
  -20.9100  -29.8420   21.7660 H   0  0  0  0  0  0  0  0  0  0  0  0
  -18.0310  -28.0680   22.9570 C   0  0  0  0  0  0  0  0  0  0  0  0
  -20.5880  -28.3500   23.2300 C   0  0  0  0  0  3  0  0  0  0  0  0
  -20.7020  -26.9140   22.6690 C   0  0  0  0  0  2  0  0  0  0  0  0
  -19.6050  -26.5730   21.6550 C   0  0  0  0  0  2  0  0  0  0  0  0
  -18.2210  -26.7140   22.2950 C   0  0  0  0  0  2  0  0  0  0  0  0
  -19.1440  -28.8430   23.3830 C   0  0  0  0  0  0  0  0  0  0  0  0
  -18.9130  -30.1090   23.9630 C   0  0  0  0  0  3  0  0  0  0  0  0
  -17.6040  -30.6010   24.1220 C   0  0  0  0  0  3  0  0  0  0  0  0
  -16.5070  -29.8240   23.7130 C   0  0  0  0  0  3  0  0  0  0  0  0
  -16.7210  -28.5580   23.1360 C   0  0  0  0  0  3  0  0  0  0  0  0
  -25.8900  -32.5150   23.8530 C   0  0  0  0  0  3  0  0  0  0  0  0
  -26.4150  -31.7440   25.1260 C   0  0  1  0  0  0  0  0  0  0  0  0
  -25.3300  -31.5110   26.2030 C   0  0  0  0  0  1  0  0  0  0  0  0
  -26.9920  -30.3640   24.7350 C   0  0  0  0  0  1  0  0  0  0  0  0
  -27.5720  -32.5380   25.7770 C   0  0  0  0  0  1  0  0  0  0  0  0
  -25.5830  -33.9130   24.1850 N   0  0  0  0  0  0  0  0  0  0  0  0
  -25.9050  -34.9670   23.4230 C   0  0  0  0  0  0  0  0  0  0  0  0
  -26.5630  -34.8640   22.3840 O   0  0  0  0  0  0  0  0  0  0  0  0
  -24.9970  -34.0680   24.9930 H   0  0  0  0  0  0  0  0  0  0  0  0
  -24.1700  -36.7600   23.0930 C   0  0  0  0  0  1  0  0  0  0  0  0
  -25.4230  -36.3550   23.8870 C   0  0  0  0  0  3  0  0  0  0  0  0
  -27.5680  -37.2410   24.6880 C   0  0  0  0  0  1  0  0  0  0  0  0
  -26.4530  -37.4090   23.7610 N   0  0  0  0  0  0  0  0  0  0  0  0
  -26.0480  -38.3300   23.9150 H   0  0  0  0  0  0  0  0  0  0  0  0
  1  3  1  0
  2  1  2  0
  3  6  2  0
  4  2  1  0
  4  5  1  0
  5  3  1  0
  7  4  2  0
  8 10  2  0
  8  9  1  0
  9 12  2  0
 10 13  1  0
 12 11  1  0
 12 14  1  0
 13  5  1  0
 13 11  2  0
 15 14  1  0
 16 21  1  0
 17 18  1  0
 17 16  1  0
 19 18  1  0
 19 26  1  0
 19 20  1  0
 21 15  1  0
 21 20  1  0
 22 15  2  0
 23 24  2  0
 24 43  1  0
 25 24  1  0
 25 28  1  0
 26 23  1  0
 26 27  1  0
 27 25  2  0
 28 29  1  0
 29 30  2  0
 31 34  1  0
 31 30  1  0
 32 31  2  0
 33 32  1  0
 33 28  2  0
 34 35  1  0
 35 36  1  0
 36 37  2  0
 38 37  1  0
 38 42  1  0
 39 38  2  0
 40 35  2  0
 40 39  1  0
 41 40  1  0
 43 44  1  0
 44 47  1  0
 44 46  1  0
 45 43  2  0
 48 49  1  0
 48 23  1  0
 50 48  1  0
 51 52  1  0
 51  2  1  0
 53 64  2  0
 54 52  1  0
 54 59  1  0
 55 63  1  0
 55 65  1  0
 56 62  1  0
 56 58  1  0
 57 63  1  0
 58 57  1  0
 59 58  2  0
 60 61  1  0
 60 54  2  0
 61 56  2  0
 62 55  1  0
 63 53  1  0
 65 67  2  0
 66 65  1  0
 68 66  1  0
 69 78  2  0
 69 74  1  0
 70 66  1  0
 70 74  1  0
 71 70  1  0
 72 73  1  0
 72 71  1  0
 73 69  1  0
 74 75  2  0
 75 76  1  0
 77 76  2  0
 78 77  1  0
 79 53  1  0
 79 84  1  0
 79 80  1  0
 80 83  1  1
 80 81  1  0
 82 80  1  0
 84 87  1  0
 85 89  1  0
 85 84  1  0
 86 85  2  0
 89 88  1  0
 91 89  1  0
 91 92  1  0
 91 90  1  0
M  ISO  4  14 100  15 100  51 101  52 101
M  END
>  <TORSDO>  (84) 
F 19

>  <SCORE>  (84) 
-14.439

>  <name>  (84) 
83

>  <ligand_id>  (84) 
83

>  <original_smiles>  (84) 
[H]C1=C(C([H])([H])Oc2c([H])c([H])c3c(c2[H])C([H])([H])N(C(=O)C([H])(N([H])C(=O)C([H])(N([H])C([H])([H])[H])C([H])([H])[H])C(C([H])([H])[H])(C([H])([H])[H])C([H])([H])[H])C([H])(C(=O)N([H])C2([H])c4c([H])c([H])c([H])c([H])c4C([H])([H])C([H])([H])C2([H])[H])C3([H])[H])C(=O)N(c2c([H])c([H])c([H])c(C([H])([H])C(=O)N3C([H])([H])C([H])([H])C([H])([H])C([H])(n4nc(-c5c([H])c([H])c(Oc6c([H])c([H])c(F)c([H])c6F)c([H])c5[H])c(C(=O)N([H])[H])c4N([H])[H])C3([H])[H])c2[H])C1=O

>  <smiles>  (84) 
[H]C1=C(C([H])([H])Oc2c([H])c([H])c3c(c2[H])C([H])([H])N(C(=O)C([H])(N([H])C(=O)C([H])(N([H])C([H])([H])[H])C([H])([H])[H])C(C([H])([H])[H])(C([H])([H])[H])C([H])([H])[H])C([H])(C(=O)N([H])C2([H])c4c([H])c([H])c([H])c([H])c4C([H])([H])C([H])([H])C2([H])[H])C3([H])[H])C(=O)N(c2c([H])c([H])c([H])c(C([H])([H])C(=O)N3C([H])([H])C([H])([H])C([H])([H])C([H])(n4nc(-c5c([H])c([H])c(Oc6c([H])c([H])c(F)c([H])c6F)c([H])c5[H])c(C(=O)N([H])[H])c4N([H])[H])C3([H])[H])c2[H])C1=O

$$$$
84:0:0
     RDKit          3D

 93102  0  0  1  0  0  0  0  0999 V2000
  -30.5690  -24.5600   20.9450 C   0  0  0  0  0  3  0  0  0  0  0  0
  -29.2390  -24.6130   20.9890 C   0  0  0  0  0  0  0  0  0  0  0  0
  -30.9570  -23.1870   20.7620 C   0  0  0  0  0  0  0  0  0  0  0  0
  -28.7270  -23.2630   20.8540 C   0  0  0  0  0  0  0  0  0  0  0  0
  -29.8120  -22.4720   20.7190 N   0  0  0  0  0  0  0  0  0  0  0  0
  -32.1080  -22.7420   20.6800 O   0  0  0  0  0  0  0  0  0  0  0  0
  -27.5470  -22.8920   20.8590 O   0  0  0  0  0  0  0  0  0  0  0  0
  -29.4330  -18.7520   21.2600 C   0  0  0  0  0  3  0  0  0  0  0  0
  -30.3700  -19.1740   19.0580 C   0  0  0  0  0  3  0  0  0  0  0  0
  -29.3250  -20.1470   21.4720 C   0  0  0  0  0  3  0  0  0  0  0  0
  -30.2620  -20.5570   19.2610 C   0  0  0  0  0  3  0  0  0  0  0  0
  -30.0010  -18.2570   20.0650 C   0  0  0  0  0  0  0  0  0  0  0  0
  -29.7770  -21.0610   20.4870 C   0  0  0  0  0  0  0  0  0  0  0  0
  -30.3270  -16.8430   19.8160 C   0  0  0  0  0  3  0  0  0  0  0  0
  -30.0680  -15.7170   20.5250 C   0  0  0  0  0  3  0  0  0  0  0  0
  -30.7210  -14.5040   20.0340 C   0  0  0  0  0  0  0  0  0  0  0  0
  -30.2880  -12.3630   18.9280 C   0  0  0  0  0  2  0  0  0  0  0  0
  -29.2980  -12.6150   17.7740 C   0  0  0  0  0  2  0  0  0  0  0  0
  -27.8490  -12.4820   18.2790 C   0  0  0  0  0  2  0  0  0  0  0  0
  -27.5870  -13.2980   19.5750 C   0  0  0  0  0  3  0  0  0  0  0  0
  -28.7040  -13.0820   20.6200 C   0  0  0  0  0  2  0  0  0  0  0  0
  -29.9970  -13.3530   19.9790 N   0  0  0  0  0  0  0  0  0  0  0  0
  -31.8470  -14.5750   19.5360 O   0  0  0  0  0  0  0  0  0  0  0  0
  -25.2370  -13.8730   20.4450 C   0  0  0  0  0  0  0  0  0  0  0  0
  -24.1950  -13.0880   20.8600 C   0  0  0  0  0  0  0  0  0  0  0  0
  -24.6570  -11.7390   20.7710 C   0  0  0  0  0  0  0  0  0  0  0  0
  -26.2680  -13.0030   20.1310 N   0  0  0  0  0  0  0  0  0  0  0  0
  -25.9270  -11.7120   20.3850 N   0  0  0  0  0  0  0  0  0  0  0  0
  -23.9470  -10.4700   20.9760 C   0  0  0  0  0  0  0  0  0  0  0  0
  -24.4190   -9.4970   21.8840 C   0  0  0  0  0  3  0  0  0  0  0  0
  -23.7090   -8.2920   22.0780 C   0  0  0  0  0  3  0  0  0  0  0  0
  -22.5100   -8.0530   21.3630 C   0  0  0  0  0  0  0  0  0  0  0  0
  -22.0560   -9.0150   20.4440 C   0  0  0  0  0  3  0  0  0  0  0  0
  -22.7690  -10.2110   20.2480 C   0  0  0  0  0  3  0  0  0  0  0  0
  -21.7670   -6.9020   21.4670 O   0  0  0  0  0  0  0  0  0  0  0  0
  -21.7380   -6.1670   22.6250 C   0  0  0  0  0  0  0  0  0  0  0  0
  -21.3230   -6.7260   23.8530 C   0  0  0  0  0  3  0  0  0  0  0  0
  -21.2410   -5.9160   25.0040 C   0  0  0  0  0  3  0  0  0  0  0  0
  -21.5630   -4.5480   24.9280 C   0  0  0  0  0  0  0  0  0  0  0  0
  -21.9720   -3.9880   23.7040 C   0  0  0  0  0  3  0  0  0  0  0  0
  -22.0550   -4.7940   22.5550 C   0  0  0  0  0  0  0  0  0  0  0  0
  -22.4290   -4.2460   21.3750 F   0  0  0  0  0  0  0  0  0  0  0  0
  -21.4780   -3.7680   26.0300 F   0  0  0  0  0  0  0  0  0  0  0  0
  -22.8160  -13.5530   21.2260 C   0  0  0  0  0  0  0  0  0  0  0  0
  -22.1430  -12.8360   22.1210 N   0  0  0  0  0  0  0  0  0  0  0  0
  -22.3440  -14.5880   20.7570 O   0  0  0  0  0  0  0  0  0  0  0  0
  -22.5390  -11.9980   22.5220 H   0  0  0  0  0  0  0  0  0  0  0  0
  -21.2210  -13.1290   22.4080 H   0  0  0  0  0  0  0  0  0  0  0  0
  -25.3890  -15.2480   20.2910 N   0  0  0  0  0  0  0  0  0  0  0  0
  -24.6340  -15.9020   20.4680 H   0  0  0  0  0  0  0  0  0  0  0  0
  -26.2300  -15.6970   19.9480 H   0  0  0  0  0  0  0  0  0  0  0  0
  -28.3840  -25.8400   21.2360 C   0  0  0  0  0  2  0  0  0  0  0  0
  -28.4230  -26.7630   20.1420 O   0  0  0  0  0  0  0  0  0  0  0  0
  -24.6390  -31.9070   23.2350 C   0  0  0  0  0  0  0  0  0  0  0  0
  -27.2890  -27.5300   20.1050 C   0  0  0  0  0  0  0  0  0  0  0  0
  -23.4330  -30.5160   21.5810 C   0  0  0  0  0  3  0  0  0  0  0  0
  -24.8900  -29.0040   20.1320 C   0  0  0  0  0  0  0  0  0  0  0  0
  -25.9530  -30.8970   21.3770 C   0  0  0  0  0  2  0  0  0  0  0  0
  -26.0450  -29.5340   20.7240 C   0  0  0  0  0  0  0  0  0  0  0  0
  -27.2520  -28.8030   20.7100 C   0  0  0  0  0  3  0  0  0  0  0  0
  -26.1270  -27.0070   19.5040 C   0  0  0  0  0  3  0  0  0  0  0  0
  -24.9250  -27.7380   19.5190 C   0  0  0  0  0  3  0  0  0  0  0  0
  -23.6400  -29.8510   20.1930 C   0  0  0  0  0  2  0  0  0  0  0  0
  -24.6940  -31.1200   22.1240 N   0  0  0  0  0  0  0  0  0  0  0  0
  -23.5600  -32.1690   23.7820 O   0  0  0  0  0  0  0  0  0  0  0  0
  -22.7910  -29.4810   22.5330 C   0  0  0  0  0  0  0  0  0  0  0  0
  -21.4680  -29.2930   22.4060 N   0  0  0  0  0  0  0  0  0  0  0  0
  -23.4800  -28.8540   23.3410 O   0  0  0  0  0  0  0  0  0  0  0  0
  -20.9740  -29.8520   21.7250 H   0  0  0  0  0  0  0  0  0  0  0  0
  -18.1040  -28.0620   22.8750 C   0  0  0  0  0  0  0  0  0  0  0  0
  -20.6570  -28.3450   23.1680 C   0  0  0  0  0  3  0  0  0  0  0  0
  -20.7780  -26.9170   22.5880 C   0  0  0  0  0  2  0  0  0  0  0  0
  -19.6870  -26.5850   21.5650 C   0  0  0  0  0  2  0  0  0  0  0  0
  -18.2990  -26.7150   22.2000 C   0  0  0  0  0  2  0  0  0  0  0  0
  -19.2120  -28.8340   23.3160 C   0  0  0  0  0  0  0  0  0  0  0  0
  -18.9770  -30.0940   23.9070 C   0  0  0  0  0  3  0  0  0  0  0  0
  -17.6660  -30.5830   24.0630 C   0  0  0  0  0  3  0  0  0  0  0  0
  -16.5720  -29.8090   23.6390 C   0  0  0  0  0  3  0  0  0  0  0  0
  -16.7920  -28.5490   23.0520 C   0  0  0  0  0  3  0  0  0  0  0  0
  -25.9270  -32.5340   23.8560 C   0  0  0  0  0  3  0  0  0  0  0  0
  -26.4520  -31.7520   25.1210 C   0  0  1  0  0  0  0  0  0  0  0  0
  -25.3650  -31.5000   26.1910 C   0  0  0  0  0  1  0  0  0  0  0  0
  -27.0400  -30.3820   24.7100 C   0  0  0  0  0  1  0  0  0  0  0  0
  -27.6030  -32.5450   25.7870 C   0  0  0  0  0  1  0  0  0  0  0  0
  -25.6180  -33.9290   24.1970 N   0  0  0  0  0  0  0  0  0  0  0  0
  -25.9470  -34.9860   23.4430 C   0  0  0  0  0  0  0  0  0  0  0  0
  -26.6150  -34.8910   22.4100 O   0  0  0  0  0  0  0  0  0  0  0  0
  -25.0230  -34.0780   25.0000 H   0  0  0  0  0  0  0  0  0  0  0  0
  -24.2140  -36.7760   23.1020 C   0  0  0  0  0  1  0  0  0  0  0  0
  -25.4560  -36.3700   23.9090 C   0  0  0  0  0  3  0  0  0  0  0  0
  -27.5910  -37.2540   24.7420 C   0  0  0  0  0  1  0  0  0  0  0  0
  -26.4870  -37.4270   23.8020 N   0  0  0  0  0  0  0  0  0  0  0  0
  -26.0790  -38.3450   23.9550 H   0  0  0  0  0  0  0  0  0  0  0  0
  1  2  2  0
  2 52  1  0
  3  1  1  0
  4  7  2  0
  4  2  1  0
  5  3  1  0
  5  4  1  0
  6  3  2  0
  8 10  1  0
  9 11  2  0
  9 12  1  0
 11 13  1  0
 12  8  2  0
 13  5  1  0
 13 10  2  0
 14 12  1  0
 14 15  2  0
 16 15  1  0
 17 22  1  0
 18 19  1  0
 18 17  1  0
 20 19  1  0
 20 27  1  0
 20 21  1  0
 22 16  1  0
 22 21  1  0
 23 16  2  0
 24 25  2  0
 25 44  1  0
 26 25  1  0
 26 29  1  0
 27 28  1  0
 27 24  1  0
 28 26  2  0
 29 30  1  0
 30 31  2  0
 32 35  1  0
 32 31  1  0
 33 32  2  0
 34 33  1  0
 34 29  2  0
 35 36  1  0
 36 37  1  0
 37 38  2  0
 39 38  1  0
 39 43  1  0
 40 39  2  0
 41 36  2  0
 41 40  1  0
 42 41  1  0
 44 45  1  0
 45 48  1  0
 45 47  1  0
 46 44  2  0
 49 24  1  0
 49 50  1  0
 51 49  1  0
 53 52  1  0
 54 65  2  0
 55 53  1  0
 55 60  1  0
 56 64  1  0
 56 66  1  0
 57 63  1  0
 57 59  1  0
 58 64  1  0
 59 58  1  0
 60 59  2  0
 61 62  1  0
 61 55  2  0
 62 57  2  0
 63 56  1  0
 64 54  1  0
 66 68  2  0
 67 66  1  0
 69 67  1  0
 70 79  2  0
 70 75  1  0
 71 67  1  0
 71 75  1  0
 72 71  1  0
 73 74  1  0
 73 72  1  0
 74 70  1  0
 75 76  2  0
 76 77  1  0
 78 77  2  0
 79 78  1  0
 80 54  1  0
 80 85  1  0
 80 81  1  0
 81 84  1  1
 81 82  1  0
 83 81  1  0
 85 88  1  0
 86 90  1  0
 86 85  1  0
 87 86  2  0
 90 89  1  0
 92 90  1  0
 92 93  1  0
 92 91  1  0
M  ISO  4  15 100  16 100  52 101  53 101
M  END
>  <TORSDO>  (85) 
F 19

>  <SCORE>  (85) 
-13.752

>  <name>  (85) 
84

>  <ligand_id>  (85) 
84

>  <original_smiles>  (85) 
[H]C(C(=O)N1C([H])([H])C([H])([H])C([H])([H])C([H])(n2nc(-c3c([H])c([H])c(Oc4c([H])c([H])c(F)c([H])c4F)c([H])c3[H])c(C(=O)N([H])[H])c2N([H])[H])C1([H])[H])=C([H])c1c([H])c([H])c(N2C(=O)C([H])=C(C([H])([H])Oc3c([H])c([H])c4c(c3[H])C([H])([H])N(C(=O)C([H])(N([H])C(=O)C([H])(N([H])C([H])([H])[H])C([H])([H])[H])C(C([H])([H])[H])(C([H])([H])[H])C([H])([H])[H])C([H])(C(=O)N([H])C3([H])c5c([H])c([H])c([H])c([H])c5C([H])([H])C([H])([H])C3([H])[H])C4([H])[H])C2=O)c([H])c1[H]

>  <smiles>  (85) 
[H]C(C(=O)N1C([H])([H])C([H])([H])C([H])([H])C([H])(n2nc(-c3c([H])c([H])c(Oc4c([H])c([H])c(F)c([H])c4F)c([H])c3[H])c(C(=O)N([H])[H])c2N([H])[H])C1([H])[H])=C([H])c1c([H])c([H])c(N2C(=O)C([H])=C(C([H])([H])Oc3c([H])c([H])c4c(c3[H])C([H])([H])N(C(=O)C([H])(N([H])C(=O)C([H])(N([H])C([H])([H])[H])C([H])([H])[H])C(C([H])([H])[H])(C([H])([H])[H])C([H])([H])[H])C([H])(C(=O)N([H])C3([H])c5c([H])c([H])c([H])c([H])c5C([H])([H])C([H])([H])C3([H])[H])C4([H])[H])C2=O)c([H])c1[H]

$$$$
85:0:0
     RDKit          3D

 93102  0  0  1  0  0  0  0  0999 V2000
  -28.8210  -23.7360   20.4290 C   0  0  0  0  0  0  0  0  0  0  0  0
  -28.5660  -22.3470   19.9140 C   0  0  0  0  0  0  0  0  0  0  0  0
  -28.1730  -24.8810   19.9330 C   0  0  0  0  0  3  0  0  0  0  0  0
  -29.8820  -23.5890   21.5100 C   0  0  0  0  0  3  0  0  0  0  0  0
  -30.2440  -22.0630   21.5000 C   0  0  0  0  0  3  0  0  0  0  0  0
  -29.3820  -21.3870   20.5060 N   0  0  0  0  0  0  0  0  0  0  0  0
  -27.6980  -22.0610   19.0800 O   0  0  0  0  0  0  0  0  0  0  0  0
  -29.9670  -19.8320   18.6520 C   0  0  0  0  0  3  0  0  0  0  0  0
  -30.2710  -18.5820   18.0740 C   0  0  0  0  0  3  0  0  0  0  0  0
  -29.6560  -18.7090   20.7870 C   0  0  0  0  0  3  0  0  0  0  0  0
  -29.6410  -19.9710   20.0250 C   0  0  0  0  0  0  0  0  0  0  0  0
  -29.9670  -17.3850   20.2100 C   0  0  0  0  0  0  0  0  0  0  0  0
  -30.2630  -17.3880   18.8220 C   0  0  0  0  0  0  0  0  0  0  0  0
  -30.5030  -16.2280   18.1580 F   0  0  0  0  0  0  0  0  0  0  0  0
  -30.6520  -14.8840   20.7000 C   0  0  0  0  0  0  0  0  0  0  0  0
  -30.5360  -12.5590   19.7810 C   0  0  0  0  0  2  0  0  0  0  0  0
  -29.6790  -12.5990   18.4960 C   0  0  0  0  0  2  0  0  0  0  0  0
  -28.1860  -12.4190   18.8320 C   0  0  0  0  0  2  0  0  0  0  0  0
  -27.7340  -13.3140   20.0160 C   0  0  0  0  0  3  0  0  0  0  0  0
  -28.7270  -13.2690   21.2020 C   0  0  0  0  0  2  0  0  0  0  0  0
  -30.0480  -13.6370   20.6790 N   0  0  0  0  0  0  0  0  0  0  0  0
  -31.8550  -14.9610   20.4230 O   0  0  0  0  0  0  0  0  0  0  0  0
  -29.8920  -16.0440   20.8980 N   0  0  0  0  0  0  0  0  0  0  0  0
  -29.0250  -15.8800   21.3910 H   0  0  0  0  0  0  0  0  0  0  0  0
  -25.3020  -13.8900   20.5730 C   0  0  0  0  0  0  0  0  0  0  0  0
  -24.2200  -13.1160   20.8890 C   0  0  0  0  0  0  0  0  0  0  0  0
  -24.6920  -11.7670   20.9180 C   0  0  0  0  0  0  0  0  0  0  0  0
  -26.3640  -13.0160   20.4250 N   0  0  0  0  0  0  0  0  0  0  0  0
  -26.0020  -11.7340   20.6950 N   0  0  0  0  0  0  0  0  0  0  0  0
  -23.9600  -10.5040   21.0910 C   0  0  0  0  0  0  0  0  0  0  0  0
  -24.3540   -9.5500   22.0550 C   0  0  0  0  0  3  0  0  0  0  0  0
  -23.6230   -8.3530   22.2160 C   0  0  0  0  0  3  0  0  0  0  0  0
  -22.4850   -8.1000   21.4140 C   0  0  0  0  0  0  0  0  0  0  0  0
  -22.1100   -9.0440   20.4410 C   0  0  0  0  0  3  0  0  0  0  0  0
  -22.8410  -10.2330   20.2770 C   0  0  0  0  0  3  0  0  0  0  0  0
  -21.7280   -6.9550   21.4860 O   0  0  0  0  0  0  0  0  0  0  0  0
  -21.6430   -6.2180   22.6410 C   0  0  0  0  0  0  0  0  0  0  0  0
  -21.1870   -6.7810   23.8530 C   0  0  0  0  0  3  0  0  0  0  0  0
  -21.0480   -5.9700   24.9960 C   0  0  0  0  0  3  0  0  0  0  0  0
  -21.3570   -4.5980   24.9300 C   0  0  0  0  0  0  0  0  0  0  0  0
  -21.8080   -4.0350   23.7240 C   0  0  0  0  0  3  0  0  0  0  0  0
  -21.9480   -4.8430   22.5830 C   0  0  0  0  0  0  0  0  0  0  0  0
  -22.3610   -4.2930   21.4170 F   0  0  0  0  0  0  0  0  0  0  0  0
  -21.2180   -3.8160   26.0250 F   0  0  0  0  0  0  0  0  0  0  0  0
  -22.8070  -13.5890   21.0670 C   0  0  0  0  0  0  0  0  0  0  0  0
  -22.0350  -12.9060   21.9050 N   0  0  0  0  0  0  0  0  0  0  0  0
  -22.3960  -14.6000   20.4990 O   0  0  0  0  0  0  0  0  0  0  0  0
  -22.3760  -12.0830   22.3790 H   0  0  0  0  0  0  0  0  0  0  0  0
  -21.0880  -13.2120   22.0780 H   0  0  0  0  0  0  0  0  0  0  0  0
  -25.4750  -15.2590   20.3840 N   0  0  0  0  0  0  0  0  0  0  0  0
  -24.7110  -15.9230   20.4360 H   0  0  0  0  0  0  0  0  0  0  0  0
  -26.3630  -15.6860   20.1510 H   0  0  0  0  0  0  0  0  0  0  0  0
  -28.2940  -26.3010   20.2140 O   0  0  0  0  0  0  0  0  0  0  0  0
  -24.5620  -31.8860   23.1250 C   0  0  0  0  0  0  0  0  0  0  0  0
  -27.2000  -27.2230   20.1180 C   0  0  0  0  0  0  0  0  0  0  0  0
  -23.3780  -30.4700   21.4910 C   0  0  0  0  0  3  0  0  0  0  0  0
  -24.8460  -28.9180   20.0760 C   0  0  0  0  0  0  0  0  0  0  0  0
  -25.9280  -30.7670   21.3350 C   0  0  0  0  0  2  0  0  0  0  0  0
  -26.0150  -29.3800   20.6900 C   0  0  0  0  0  0  0  0  0  0  0  0
  -27.1890  -28.5450   20.7040 C   0  0  0  0  0  3  0  0  0  0  0  0
  -26.0000  -26.8570   19.4550 C   0  0  0  0  0  3  0  0  0  0  0  0
  -24.8490  -27.6670   19.4440 C   0  0  0  0  0  3  0  0  0  0  0  0
  -23.6100  -29.7990   20.1130 C   0  0  0  0  0  2  0  0  0  0  0  0
  -24.6420  -31.0630   22.0380 N   0  0  0  0  0  0  0  0  0  0  0  0
  -23.4710  -32.1600   23.6500 O   0  0  0  0  0  0  0  0  0  0  0  0
  -22.7140  -29.4540   22.4510 C   0  0  0  0  0  0  0  0  0  0  0  0
  -21.3830  -29.2910   22.3440 N   0  0  0  0  0  0  0  0  0  0  0  0
  -23.3960  -28.8180   23.2610 O   0  0  0  0  0  0  0  0  0  0  0  0
  -20.8930  -29.8570   21.6640 H   0  0  0  0  0  0  0  0  0  0  0  0
  -17.9990  -28.1290   22.9050 C   0  0  0  0  0  0  0  0  0  0  0  0
  -20.5670  -28.3570   23.1210 C   0  0  0  0  0  3  0  0  0  0  0  0
  -20.6390  -26.9290   22.5310 C   0  0  0  0  0  2  0  0  0  0  0  0
  -19.5100  -26.6270   21.5390 C   0  0  0  0  0  2  0  0  0  0  0  0
  -18.1440  -26.7850   22.2110 C   0  0  0  0  0  2  0  0  0  0  0  0
  -19.1370  -28.8730   23.3190 C   0  0  0  0  0  0  0  0  0  0  0  0
  -18.9440  -30.1300   23.9310 C   0  0  0  0  0  3  0  0  0  0  0  0
  -17.6490  -30.6460   24.1310 C   0  0  0  0  0  3  0  0  0  0  0  0
  -16.5270  -29.8980   23.7320 C   0  0  0  0  0  3  0  0  0  0  0  0
  -16.7040  -28.6410   23.1260 C   0  0  0  0  0  3  0  0  0  0  0  0
  -25.8330  -32.5360   23.7500 C   0  0  0  0  0  3  0  0  0  0  0  0
  -25.5000  -33.9250   24.1030 N   0  0  0  0  0  0  0  0  0  0  0  0
  -25.8170  -34.9970   23.3650 C   0  0  0  0  0  0  0  0  0  0  0  0
  -26.4950  -34.9240   22.3370 O   0  0  0  0  0  0  0  0  0  0  0  0
  -24.9080  -34.0590   24.9090 H   0  0  0  0  0  0  0  0  0  0  0  0
  -24.0770  -36.7790   23.0120 C   0  0  0  0  0  1  0  0  0  0  0  0
  -25.3040  -36.3700   23.8420 C   0  0  0  0  0  3  0  0  0  0  0  0
  -27.4120  -37.2560   24.7370 C   0  0  0  0  0  1  0  0  0  0  0  0
  -26.3260  -37.4370   23.7760 N   0  0  0  0  0  0  0  0  0  0  0  0
  -25.9060  -38.3490   23.9430 H   0  0  0  0  0  0  0  0  0  0  0  0
  -26.3680  -31.7610   25.0160 C   0  0  1  0  0  0  0  0  0  0  0  0
  -25.2830  -31.4930   26.0850 C   0  0  0  0  0  1  0  0  0  0  0  0
  -26.9740  -30.3980   24.6130 C   0  0  0  0  0  1  0  0  0  0  0  0
  -27.5130  -32.5640   25.6780 C   0  0  0  0  0  1  0  0  0  0  0  0
  1  4  1  0
  2  1  1  0
  2  6  1  0
  3 53  1  0
  3  1  2  0
  5  4  2  0
  6  5  1  0
  7  2  2  0
  8 11  1  0
  9  8  2  0
  9 13  1  0
 11  6  1  0
 11 10  2  0
 12 10  1  0
 12 23  1  0
 13 12  2  0
 14 13  1  0
 15 23  1  0
 16 21  1  0
 17 18  1  0
 17 16  1  0
 19 18  1  0
 19 28  1  0
 19 20  1  0
 21 15  1  0
 21 20  1  0
 22 15  2  0
 23 24  1  0
 25 26  2  0
 26 27  1  0
 26 45  1  0
 27 30  1  0
 28 25  1  0
 28 29  1  0
 29 27  2  0
 30 31  1  0
 31 32  2  0
 33 36  1  0
 33 32  1  0
 34 33  2  0
 35 34  1  0
 35 30  2  0
 36 37  1  0
 37 38  1  0
 38 39  2  0
 40 39  1  0
 40 44  1  0
 41 40  2  0
 42 37  2  0
 42 41  1  0
 43 42  1  0
 45 46  1  0
 46 49  1  0
 46 48  1  0
 47 45  2  0
 50 51  1  0
 50 25  1  0
 52 50  1  0
 54 65  2  0
 55 53  1  0
 55 60  1  0
 56 64  1  0
 56 66  1  0
 57 63  1  0
 57 59  1  0
 58 64  1  0
 59 60  2  0
 59 58  1  0
 61 55  2  0
 62 61  1  0
 62 57  2  0
 63 56  1  0
 64 54  1  0
 66 68  2  0
 67 66  1  0
 69 67  1  0
 70 79  2  0
 70 75  1  0
 71 67  1  0
 71 75  1  0
 72 71  1  0
 73 74  1  0
 73 72  1  0
 74 70  1  0
 75 76  2  0
 76 77  1  0
 78 77  2  0
 79 78  1  0
 80 54  1  0
 80 81  1  0
 80 90  1  0
 81 84  1  0
 82 86  1  0
 82 81  1  0
 83 82  2  0
 86 85  1  0
 88 86  1  0
 88 89  1  0
 88 87  1  0
 90 93  1  1
 90 91  1  0
 92 90  1  0
M  ISO  4   3 101  15 100  23 100  53 101
M  END
>  <TORSDO>  (86) 
F 17

>  <SCORE>  (86) 
-15.110

>  <name>  (86) 
85

>  <ligand_id>  (86) 
85

>  <original_smiles>  (86) 
[H]C(Oc1c([H])c([H])c2c(c1[H])C([H])([H])N(C(=O)C([H])(N([H])C(=O)C([H])(N([H])C([H])([H])[H])C([H])([H])[H])C(C([H])([H])[H])(C([H])([H])[H])C([H])([H])[H])C([H])(C(=O)N([H])C1([H])c3c([H])c([H])c([H])c([H])c3C([H])([H])C([H])([H])C1([H])[H])C2([H])[H])=C1C(=O)N(c2c([H])c([H])c(F)c(N([H])C(=O)N3C([H])([H])C([H])([H])C([H])([H])C([H])(n4nc(-c5c([H])c([H])c(Oc6c([H])c([H])c(F)c([H])c6F)c([H])c5[H])c(C(=O)N([H])[H])c4N([H])[H])C3([H])[H])c2[H])C([H])([H])C1([H])[H]

>  <smiles>  (86) 
[H]C(Oc1c([H])c([H])c2c(c1[H])C([H])([H])N(C(=O)C([H])(N([H])C(=O)C([H])(N([H])C([H])([H])[H])C([H])([H])[H])C(C([H])([H])[H])(C([H])([H])[H])C([H])([H])[H])C([H])(C(=O)N([H])C1([H])c3c([H])c([H])c([H])c([H])c3C([H])([H])C([H])([H])C1([H])[H])C2([H])[H])=C1C(=O)N(c2c([H])c([H])c(F)c(N([H])C(=O)N3C([H])([H])C([H])([H])C([H])([H])C([H])(n4nc(-c5c([H])c([H])c(Oc6c([H])c([H])c(F)c([H])c6F)c([H])c5[H])c(C(=O)N([H])[H])c4N([H])[H])C3([H])[H])c2[H])C([H])([H])C1([H])[H]

$$$$
86:0:0
     RDKit          3D

 93101  0  0  1  0  0  0  0  0999 V2000
  -29.8860  -21.6550   19.8420 C   0  0  0  0  0  0  0  0  0  0  0  0
  -30.8080  -22.0030   18.9930 N   0  0  0  0  0  4  0  0  0  0  0  0
  -31.4160  -21.3180   18.5470 H   0  0  0  0  0  0  0  0  0  0  0  0
  -30.9700  -22.9550   18.6830 H   0  0  0  0  0  0  0  0  0  0  0  0
  -31.0730  -19.3570   20.0860 C   0  0  0  0  0  3  0  0  0  0  0  0
  -31.0960  -17.9340   20.2220 C   0  0  0  0  0  3  0  0  0  0  0  0
  -28.6870  -19.3830   20.3350 C   0  0  0  0  0  3  0  0  0  0  0  0
  -29.8710  -20.1290   20.1140 C   0  0  0  0  0  0  0  0  0  0  0  0
  -29.9030  -17.1910   20.4050 C   0  0  0  0  0  0  0  0  0  0  0  0
  -28.7050  -17.9590   20.4720 C   0  0  0  0  0  0  0  0  0  0  0  0
  -27.5350  -17.2990   20.6530 F   0  0  0  0  0  0  0  0  0  0  0  0
  -30.5960  -14.6860   20.1360 C   0  0  0  0  0  0  0  0  0  0  0  0
  -30.3430  -12.4770   19.0190 C   0  0  0  0  0  2  0  0  0  0  0  0
  -29.3500  -12.6410   17.8460 C   0  0  0  0  0  2  0  0  0  0  0  0
  -27.8950  -12.4720   18.3290 C   0  0  0  0  0  2  0  0  0  0  0  0
  -27.5900  -13.2970   19.6070 C   0  0  0  0  0  3  0  0  0  0  0  0
  -28.6920  -13.1060   20.6730 C   0  0  0  0  0  2  0  0  0  0  0  0
  -29.9780  -13.4640   20.0540 N   0  0  0  0  0  0  0  0  0  0  0  0
  -31.7450  -14.8480   19.7130 O   0  0  0  0  0  0  0  0  0  0  0  0
  -29.8060  -15.7320   20.5430 N   0  0  0  0  0  0  0  0  0  0  0  0
  -28.9000  -15.4270   20.8650 H   0  0  0  0  0  0  0  0  0  0  0  0
  -25.2190  -13.8800   20.4080 C   0  0  0  0  0  0  0  0  0  0  0  0
  -24.1670  -13.0980   20.8050 C   0  0  0  0  0  0  0  0  0  0  0  0
  -24.6350  -11.7500   20.7520 C   0  0  0  0  0  0  0  0  0  0  0  0
  -26.2600  -13.0060   20.1360 N   0  0  0  0  0  0  0  0  0  0  0  0
  -25.9160  -11.7200   20.4020 N   0  0  0  0  0  0  0  0  0  0  0  0
  -23.9220  -10.4830   20.9600 C   0  0  0  0  0  0  0  0  0  0  0  0
  -24.3760   -9.5230   21.8910 C   0  0  0  0  0  3  0  0  0  0  0  0
  -23.6610   -8.3210   22.0850 C   0  0  0  0  0  3  0  0  0  0  0  0
  -22.4790   -8.0710   21.3470 C   0  0  0  0  0  0  0  0  0  0  0  0
  -22.0450   -9.0200   20.4050 C   0  0  0  0  0  3  0  0  0  0  0  0
  -22.7600  -10.2140   20.2090 C   0  0  0  0  0  3  0  0  0  0  0  0
  -21.7350   -6.9210   21.4510 O   0  0  0  0  0  0  0  0  0  0  0  0
  -21.6920   -6.1930   22.6130 C   0  0  0  0  0  0  0  0  0  0  0  0
  -21.2460   -6.7560   23.8290 C   0  0  0  0  0  3  0  0  0  0  0  0
  -21.1530   -5.9530   24.9830 C   0  0  0  0  0  3  0  0  0  0  0  0
  -21.4960   -4.5880   24.9230 C   0  0  0  0  0  0  0  0  0  0  0  0
  -21.9350   -4.0250   23.7110 C   0  0  0  0  0  3  0  0  0  0  0  0
  -22.0300   -4.8250   22.5590 C   0  0  0  0  0  0  0  0  0  0  0  0
  -22.4340   -4.2740   21.3900 F   0  0  0  0  0  0  0  0  0  0  0  0
  -21.3990   -3.8150   26.0300 F   0  0  0  0  0  0  0  0  0  0  0  0
  -22.7780  -13.5680   21.1280 C   0  0  0  0  0  0  0  0  0  0  0  0
  -22.0820  -12.8610   22.0110 N   0  0  0  0  0  0  0  0  0  0  0  0
  -22.3200  -14.5960   20.6320 O   0  0  0  0  0  0  0  0  0  0  0  0
  -22.4660  -12.0290   22.4340 H   0  0  0  0  0  0  0  0  0  0  0  0
  -21.1510  -13.1570   22.2700 H   0  0  0  0  0  0  0  0  0  0  0  0
  -25.3670  -15.2530   20.2400 N   0  0  0  0  0  0  0  0  0  0  0  0
  -24.6050  -15.8970   20.4160 H   0  0  0  0  0  0  0  0  0  0  0  0
  -26.2250  -15.7270   19.9870 H   0  0  0  0  0  0  0  0  0  0  0  0
  -29.0880  -23.9500   20.0830 C   0  0  0  0  0  3  0  0  0  0  0  0
  -29.0400  -22.6560   20.3490 N   0  0  0  0  0  0  0  0  0  0  0  0
  -28.1380  -25.0790   20.6400 C   0  0  0  0  0  2  0  0  0  0  0  0
  -28.3650  -26.4870   20.2090 O   0  0  0  0  0  0  0  0  0  0  0  0
  -24.6080  -31.8790   23.2280 C   0  0  0  0  0  0  0  0  0  0  0  0
  -27.2490  -27.3370   20.1820 C   0  0  0  0  0  0  0  0  0  0  0  0
  -23.4160  -30.4790   21.5800 C   0  0  0  0  0  3  0  0  0  0  0  0
  -24.8790  -28.9360   20.1580 C   0  0  0  0  0  0  0  0  0  0  0  0
  -25.9540  -30.8090   21.4070 C   0  0  0  0  0  2  0  0  0  0  0  0
  -26.0430  -29.4320   20.7610 C   0  0  0  0  0  0  0  0  0  0  0  0
  -27.2320  -28.6440   20.7620 C   0  0  0  0  0  3  0  0  0  0  0  0
  -26.0670  -26.9010   19.5440 C   0  0  0  0  0  3  0  0  0  0  0  0
  -24.8930  -27.6770   19.5400 C   0  0  0  0  0  3  0  0  0  0  0  0
  -23.6380  -29.8060   20.1990 C   0  0  0  0  0  2  0  0  0  0  0  0
  -24.6780  -31.0730   22.1280 N   0  0  0  0  0  0  0  0  0  0  0  0
  -23.5220  -32.1520   23.7590 O   0  0  0  0  0  0  0  0  0  0  0  0
  -22.7520  -29.4590   22.5360 C   0  0  0  0  0  0  0  0  0  0  0  0
  -21.4250  -29.2880   22.4110 N   0  0  0  0  0  0  0  0  0  0  0  0
  -23.4300  -28.8250   23.3480 O   0  0  0  0  0  0  0  0  0  0  0  0
  -20.9380  -29.8520   21.7280 H   0  0  0  0  0  0  0  0  0  0  0  0
  -18.0410  -28.1220   22.9270 C   0  0  0  0  0  0  0  0  0  0  0  0
  -20.6040  -28.3510   23.1770 C   0  0  0  0  0  3  0  0  0  0  0  0
  -20.6840  -26.9250   22.5840 C   0  0  0  0  0  2  0  0  0  0  0  0
  -19.5700  -26.6270   21.5760 C   0  0  0  0  0  2  0  0  0  0  0  0
  -18.1960  -26.7790   22.2340 C   0  0  0  0  0  2  0  0  0  0  0  0
  -19.1710  -28.8670   23.3560 C   0  0  0  0  0  0  0  0  0  0  0  0
  -18.9700  -30.1250   23.9640 C   0  0  0  0  0  3  0  0  0  0  0  0
  -17.6720  -30.6380   24.1480 C   0  0  0  0  0  3  0  0  0  0  0  0
  -16.5560  -29.8900   23.7360 C   0  0  0  0  0  3  0  0  0  0  0  0
  -16.7410  -28.6340   23.1310 C   0  0  0  0  0  3  0  0  0  0  0  0
  -25.8870  -32.5140   23.8560 C   0  0  0  0  0  3  0  0  0  0  0  0
  -26.3930  -31.7480   25.1400 C   0  0  1  0  0  0  0  0  0  0  0  0
  -25.2920  -31.5120   26.2000 C   0  0  0  0  0  1  0  0  0  0  0  0
  -26.9810  -30.3690   24.7580 C   0  0  0  0  0  1  0  0  0  0  0  0
  -27.5370  -32.5450   25.8080 C   0  0  0  0  0  1  0  0  0  0  0  0
  -25.5750  -33.9140   24.1800 N   0  0  0  0  0  0  0  0  0  0  0  0
  -25.9120  -34.9640   23.4200 C   0  0  0  0  0  0  0  0  0  0  0  0
  -26.5890  -34.8570   22.3940 O   0  0  0  0  0  0  0  0  0  0  0  0
  -24.9750  -34.0700   24.9760 H   0  0  0  0  0  0  0  0  0  0  0  0
  -24.1910  -36.7590   23.0450 C   0  0  0  0  0  1  0  0  0  0  0  0
  -25.4230  -36.3540   23.8710 C   0  0  0  0  0  3  0  0  0  0  0  0
  -27.5480  -37.2380   24.7260 C   0  0  0  0  0  1  0  0  0  0  0  0
  -26.4580  -37.4050   23.7670 N   0  0  0  0  0  0  0  0  0  0  0  0
  -26.0510  -38.3260   23.9060 H   0  0  0  0  0  0  0  0  0  0  0  0
  1  8  1  0
  1 51  1  0
  2  1  2  0
  3  2  1  0
  4  2  1  0
  5  8  2  0
  5  6  1  0
  6  9  2  0
  7 10  2  0
  8  7  1  0
  9 10  1  0
  9 20  1  0
 10 11  1  0
 12 20  1  0
 13 18  1  0
 14 15  1  0
 14 13  1  0
 16 15  1  0
 16 25  1  0
 16 17  1  0
 18 12  1  0
 18 17  1  0
 19 12  2  0
 20 21  1  0
 22 23  2  0
 23 42  1  0
 24 23  1  0
 24 27  1  0
 25 26  1  0
 25 22  1  0
 26 24  2  0
 27 28  1  0
 28 29  2  0
 30 33  1  0
 30 29  1  0
 31 30  2  0
 32 31  1  0
 32 27  2  0
 33 34  1  0
 34 35  1  0
 35 36  2  0
 37 36  1  0
 37 41  1  0
 38 37  2  0
 39 34  2  0
 39 38  1  0
 40 39  1  0
 42 43  1  0
 43 46  1  0
 43 45  1  0
 44 42  2  0
 47 22  1  0
 47 48  1  0
 49 47  1  0
 50 51  2  0
 50 52  1  0
 53 52  1  0
 54 65  2  0
 55 53  1  0
 55 60  1  0
 56 64  1  0
 56 66  1  0
 57 63  1  0
 57 59  1  0
 58 64  1  0
 59 60  2  0
 59 58  1  0
 61 55  2  0
 62 61  1  0
 62 57  2  0
 63 56  1  0
 64 54  1  0
 66 68  2  0
 67 66  1  0
 69 67  1  0
 70 79  2  0
 70 75  1  0
 71 67  1  0
 71 75  1  0
 72 71  1  0
 73 74  1  0
 73 72  1  0
 74 70  1  0
 75 76  2  0
 76 77  1  0
 78 77  2  0
 79 78  1  0
 80 54  1  0
 80 85  1  0
 80 81  1  0
 81 84  1  1
 81 82  1  0
 83 81  1  0
 85 88  1  0
 86 90  1  0
 86 85  1  0
 87 86  2  0
 90 89  1  0
 92 90  1  0
 92 93  1  0
 92 91  1  0
M  ISO  4  12 100  20 100  52 101  53 101
M  END
>  <TORSDO>  (87) 
F 19

>  <SCORE>  (87) 
-14.393

>  <name>  (87) 
86

>  <ligand_id>  (87) 
86

>  <original_smiles>  (87) 
[H]C(=NC(c1c([H])c([H])c(N([H])C(=O)N2C([H])([H])C([H])([H])C([H])([H])C([H])(n3nc(-c4c([H])c([H])c(Oc5c([H])c([H])c(F)c([H])c5F)c([H])c4[H])c(C(=O)N([H])[H])c3N([H])[H])C2([H])[H])c(F)c1[H])=[N+]([H])[H])C([H])([H])Oc1c([H])c([H])c2c(c1[H])C([H])([H])N(C(=O)C([H])(N([H])C(=O)C([H])(N([H])C([H])([H])[H])C([H])([H])[H])C(C([H])([H])[H])(C([H])([H])[H])C([H])([H])[H])C([H])(C(=O)N([H])C1([H])c3c([H])c([H])c([H])c([H])c3C([H])([H])C([H])([H])C1([H])[H])C2([H])[H]

>  <smiles>  (87) 
[H]C(=NC(c1c([H])c([H])c(N([H])C(=O)N2C([H])([H])C([H])([H])C([H])([H])C([H])(n3nc(-c4c([H])c([H])c(Oc5c([H])c([H])c(F)c([H])c5F)c([H])c4[H])c(C(=O)N([H])[H])c3N([H])[H])C2([H])[H])c(F)c1[H])=[N+]([H])[H])C([H])([H])Oc1c([H])c([H])c2c(c1[H])C([H])([H])N(C(=O)C([H])(N([H])C(=O)C([H])(N([H])C([H])([H])[H])C([H])([H])[H])C(C([H])([H])[H])(C([H])([H])[H])C([H])([H])[H])C([H])(C(=O)N([H])C1([H])c3c([H])c([H])c([H])c([H])c3C([H])([H])C([H])([H])C1([H])[H])C2([H])[H]

$$$$
87:0:0
     RDKit          3D

 92101  0  0  1  0  0  0  0  0999 V2000
  -28.4110  -23.5790   20.4930 C   0  0  0  0  0  0  0  0  0  0  0  0
  -29.5650  -22.9240   19.8610 C   0  0  0  0  0  0  0  0  0  0  0  0
  -27.8770  -24.8820   20.6570 C   0  0  0  0  0  3  0  0  0  0  0  0
  -27.9970  -22.1540   21.0070 C   0  0  0  0  0  2  0  0  0  0  0  0
  -29.1120  -21.5900   20.2010 N   0  0  0  0  0  0  0  0  0  0  0  0
  -30.5660  -23.4040   19.3700 O   0  0  0  0  0  0  0  0  0  0  0  0
  -31.9560  -19.2230   21.1260 C   0  0  0  0  0  3  0  0  0  0  0  0
  -31.1250  -20.3290   20.8680 C   0  0  0  0  0  3  0  0  0  0  0  0
  -31.5030  -17.9000   20.9900 C   0  0  0  0  0  3  0  0  0  0  0  0
  -29.7690  -20.2340   20.4690 C   0  0  0  0  0  0  0  0  0  0  0  0
  -30.1830  -17.6090   20.5890 C   0  0  0  0  0  0  0  0  0  0  0  0
  -29.3340  -18.8100   20.3600 C   0  0  0  0  0  0  0  0  0  0  0  0
  -28.0510  -18.5860   19.9870 F   0  0  0  0  0  0  0  0  0  0  0  0
  -30.5440  -14.9450   20.3590 C   0  0  0  0  0  0  0  0  0  0  0  0
  -30.3820  -12.6180   19.3910 C   0  0  0  0  0  2  0  0  0  0  0  0
  -29.4510  -12.6040   18.1580 C   0  0  0  0  0  2  0  0  0  0  0  0
  -27.9860  -12.4030   18.5890 C   0  0  0  0  0  2  0  0  0  0  0  0
  -27.5840  -13.3200   19.7740 C   0  0  0  0  0  3  0  0  0  0  0  0
  -28.6390  -13.3180   20.9000 C   0  0  0  0  0  2  0  0  0  0  0  0
  -29.9160  -13.7080   20.2920 N   0  0  0  0  0  0  0  0  0  0  0  0
  -31.7480  -14.9810   20.0830 O   0  0  0  0  0  0  0  0  0  0  0  0
  -29.7890  -16.1370   20.4890 N   0  0  0  0  0  0  0  0  0  0  0  0
  -28.7930  -15.9800   20.5120 H   0  0  0  0  0  0  0  0  0  0  0  0
  -25.2000  -13.8940   20.5080 C   0  0  0  0  0  0  0  0  0  0  0  0
  -24.1370  -13.1150   20.8740 C   0  0  0  0  0  0  0  0  0  0  0  0
  -24.6050  -11.7660   20.8430 C   0  0  0  0  0  0  0  0  0  0  0  0
  -26.2460  -13.0180   20.2700 N   0  0  0  0  0  0  0  0  0  0  0  0
  -25.8980  -11.7340   20.5370 N   0  0  0  0  0  0  0  0  0  0  0  0
  -23.8810  -10.5000   21.0280 C   0  0  0  0  0  0  0  0  0  0  0  0
  -24.3040   -9.5380   21.9710 C   0  0  0  0  0  3  0  0  0  0  0  0
  -23.5780   -8.3390   22.1430 C   0  0  0  0  0  3  0  0  0  0  0  0
  -22.4160   -8.0950   21.3740 C   0  0  0  0  0  0  0  0  0  0  0  0
  -22.0130   -9.0470   20.4200 C   0  0  0  0  0  3  0  0  0  0  0  0
  -22.7390  -10.2360   20.2450 C   0  0  0  0  0  3  0  0  0  0  0  0
  -21.6630   -6.9480   21.4560 O   0  0  0  0  0  0  0  0  0  0  0  0
  -21.5890   -6.2180   22.6140 C   0  0  0  0  0  0  0  0  0  0  0  0
  -21.1000   -6.7730   23.8160 C   0  0  0  0  0  3  0  0  0  0  0  0
  -20.9750   -5.9670   24.9650 C   0  0  0  0  0  3  0  0  0  0  0  0
  -21.3290   -4.6070   24.9140 C   0  0  0  0  0  0  0  0  0  0  0  0
  -21.8120   -4.0500   23.7170 C   0  0  0  0  0  3  0  0  0  0  0  0
  -21.9380   -4.8520   22.5690 C   0  0  0  0  0  0  0  0  0  0  0  0
  -22.3840   -4.3060   21.4120 F   0  0  0  0  0  0  0  0  0  0  0  0
  -21.2030   -3.8300   26.0150 F   0  0  0  0  0  0  0  0  0  0  0  0
  -22.7370  -13.5880   21.1390 C   0  0  0  0  0  0  0  0  0  0  0  0
  -22.0070  -12.8900   22.0010 N   0  0  0  0  0  0  0  0  0  0  0  0
  -22.3000  -14.6120   20.6160 O   0  0  0  0  0  0  0  0  0  0  0  0
  -22.3740  -12.0600   22.4450 H   0  0  0  0  0  0  0  0  0  0  0  0
  -21.0680  -13.1880   22.2210 H   0  0  0  0  0  0  0  0  0  0  0  0
  -25.3570  -15.2650   20.3310 N   0  0  0  0  0  0  0  0  0  0  0  0
  -24.5820  -15.9100   20.4390 H   0  0  0  0  0  0  0  0  0  0  0  0
  -26.1910  -15.7110   19.9750 H   0  0  0  0  0  0  0  0  0  0  0  0
  -28.2240  -26.2420   20.2710 O   0  0  0  0  0  0  0  0  0  0  0  0
  -24.6170  -31.9230   23.2580 C   0  0  0  0  0  0  0  0  0  0  0  0
  -27.1910  -27.2370   20.2310 C   0  0  0  0  0  0  0  0  0  0  0  0
  -23.4150  -30.5280   21.6190 C   0  0  0  0  0  3  0  0  0  0  0  0
  -24.8620  -28.9570   20.1950 C   0  0  0  0  0  0  0  0  0  0  0  0
  -25.9660  -30.8000   21.4530 C   0  0  0  0  0  2  0  0  0  0  0  0
  -26.0400  -29.4100   20.8050 C   0  0  0  0  0  0  0  0  0  0  0  0
  -27.2080  -28.5630   20.8120 C   0  0  0  0  0  3  0  0  0  0  0  0
  -25.9930  -26.8810   19.5760 C   0  0  0  0  0  3  0  0  0  0  0  0
  -24.8490  -27.7040   19.5650 C   0  0  0  0  0  3  0  0  0  0  0  0
  -23.6340  -29.8500   20.2410 C   0  0  0  0  0  2  0  0  0  0  0  0
  -24.6850  -31.1040   22.1650 N   0  0  0  0  0  0  0  0  0  0  0  0
  -23.5320  -32.2090   23.7870 O   0  0  0  0  0  0  0  0  0  0  0  0
  -22.7370  -29.5200   22.5810 C   0  0  0  0  0  0  0  0  0  0  0  0
  -21.4090  -29.3480   22.4520 N   0  0  0  0  0  0  0  0  0  0  0  0
  -23.4070  -28.8950   23.4070 O   0  0  0  0  0  0  0  0  0  0  0  0
  -20.9250  -29.9030   21.7590 H   0  0  0  0  0  0  0  0  0  0  0  0
  -18.0260  -28.1570   22.9530 C   0  0  0  0  0  0  0  0  0  0  0  0
  -20.5850  -28.4150   23.2230 C   0  0  0  0  0  3  0  0  0  0  0  0
  -20.6850  -26.9800   22.6520 C   0  0  0  0  0  2  0  0  0  0  0  0
  -19.5830  -26.6580   21.6370 C   0  0  0  0  0  2  0  0  0  0  0  0
  -18.2010  -26.8060   22.2780 C   0  0  0  0  0  2  0  0  0  0  0  0
  -19.1450  -28.9180   23.3820 C   0  0  0  0  0  0  0  0  0  0  0  0
  -18.9270  -30.1820   23.9740 C   0  0  0  0  0  3  0  0  0  0  0  0
  -17.6220  -30.6840   24.1390 C   0  0  0  0  0  3  0  0  0  0  0  0
  -16.5170  -29.9190   23.7250 C   0  0  0  0  0  3  0  0  0  0  0  0
  -16.7200  -28.6580   23.1380 C   0  0  0  0  0  3  0  0  0  0  0  0
  -25.8980  -32.5550   23.8830 C   0  0  0  0  0  3  0  0  0  0  0  0
  -25.5890  -33.9560   24.2110 N   0  0  0  0  0  0  0  0  0  0  0  0
  -25.9100  -35.0090   23.4470 C   0  0  0  0  0  0  0  0  0  0  0  0
  -26.5640  -34.9020   22.4060 O   0  0  0  0  0  0  0  0  0  0  0  0
  -25.0060  -34.1120   25.0210 H   0  0  0  0  0  0  0  0  0  0  0  0
  -24.1730  -36.8010   23.1220 C   0  0  0  0  0  1  0  0  0  0  0  0
  -25.4310  -36.3990   23.9090 C   0  0  0  0  0  3  0  0  0  0  0  0
  -27.5780  -37.2940   24.6980 C   0  0  0  0  0  1  0  0  0  0  0  0
  -26.4600  -37.4520   23.7710 N   0  0  0  0  0  0  0  0  0  0  0  0
  -26.0550  -38.3730   23.9170 H   0  0  0  0  0  0  0  0  0  0  0  0
  -26.4050  -31.7880   25.1660 C   0  0  1  0  0  0  0  0  0  0  0  0
  -25.3050  -31.5580   26.2290 C   0  0  0  0  0  1  0  0  0  0  0  0
  -26.9870  -30.4070   24.7870 C   0  0  0  0  0  1  0  0  0  0  0  0
  -27.5530  -32.5830   25.8310 C   0  0  0  0  0  1  0  0  0  0  0  0
  1  3  2  0
  1  4  1  0
  2  5  1  0
  2  1  1  0
  5 10  1  0
  5  4  1  0
  6  2  2  0
  8  7  2  0
  9  7  1  0
 10  8  1  0
 11  9  2  0
 12 10  2  0
 12 11  1  0
 13 12  1  0
 14 22  1  0
 15 20  1  0
 16 17  1  0
 16 15  1  0
 18 17  1  0
 18 27  1  0
 18 19  1  0
 20 14  1  0
 20 19  1  0
 21 14  2  0
 22 23  1  0
 22 11  1  0
 24 25  2  0
 25 44  1  0
 26 25  1  0
 26 29  1  0
 27 24  1  0
 27 28  1  0
 28 26  2  0
 29 30  1  0
 30 31  2  0
 32 35  1  0
 32 31  1  0
 33 32  2  0
 34 33  1  0
 34 29  2  0
 35 36  1  0
 36 37  1  0
 37 38  2  0
 39 38  1  0
 39 43  1  0
 40 39  2  0
 41 36  2  0
 41 40  1  0
 42 41  1  0
 44 45  1  0
 45 48  1  0
 45 47  1  0
 46 44  2  0
 49 50  1  0
 49 24  1  0
 51 49  1  0
 52  3  1  0
 53 64  2  0
 54 52  1  0
 54 59  1  0
 55 63  1  0
 55 65  1  0
 56 62  1  0
 56 58  1  0
 57 63  1  0
 58 59  2  0
 58 57  1  0
 60 54  2  0
 61 60  1  0
 61 56  2  0
 62 55  1  0
 63 53  1  0
 65 67  2  0
 66 65  1  0
 68 66  1  0
 69 78  2  0
 69 74  1  0
 70 66  1  0
 70 74  1  0
 71 70  1  0
 72 73  1  0
 72 71  1  0
 73 69  1  0
 74 75  2  0
 75 76  1  0
 77 76  2  0
 78 77  1  0
 79 53  1  0
 79 80  1  0
 79 89  1  0
 80 83  1  0
 81 85  1  0
 81 80  1  0
 82 81  2  0
 85 84  1  0
 87 85  1  0
 87 88  1  0
 87 86  1  0
 89 92  1  1
 89 90  1  0
 91 89  1  0
M  ISO  4   3 101  14 100  22 100  52 101
M  END
>  <TORSDO>  (88) 
F 17

>  <SCORE>  (88) 
-15.438

>  <name>  (88) 
87

>  <ligand_id>  (88) 
87

>  <original_smiles>  (88) 
[H]C(Oc1c([H])c([H])c2c(c1[H])C([H])([H])N(C(=O)C([H])(N([H])C(=O)C([H])(N([H])C([H])([H])[H])C([H])([H])[H])C(C([H])([H])[H])(C([H])([H])[H])C([H])([H])[H])C([H])(C(=O)N([H])C1([H])c3c([H])c([H])c([H])c([H])c3C([H])([H])C([H])([H])C1([H])[H])C2([H])[H])=C1C(=O)N(c2c([H])c([H])c([H])c(N([H])C(=O)N3C([H])([H])C([H])([H])C([H])([H])C([H])(n4nc(-c5c([H])c([H])c(Oc6c([H])c([H])c(F)c([H])c6F)c([H])c5[H])c(C(=O)N([H])[H])c4N([H])[H])C3([H])[H])c2F)C1([H])[H]

>  <smiles>  (88) 
[H]C(Oc1c([H])c([H])c2c(c1[H])C([H])([H])N(C(=O)C([H])(N([H])C(=O)C([H])(N([H])C([H])([H])[H])C([H])([H])[H])C(C([H])([H])[H])(C([H])([H])[H])C([H])([H])[H])C([H])(C(=O)N([H])C1([H])c3c([H])c([H])c([H])c([H])c3C([H])([H])C([H])([H])C1([H])[H])C2([H])[H])=C1C(=O)N(c2c([H])c([H])c([H])c(N([H])C(=O)N3C([H])([H])C([H])([H])C([H])([H])C([H])(n4nc(-c5c([H])c([H])c(Oc6c([H])c([H])c(F)c([H])c6F)c([H])c5[H])c(C(=O)N([H])[H])c4N([H])[H])C3([H])[H])c2F)C1([H])[H]

$$$$
88:0:0
     RDKit          3D

 94103  0  0  1  0  0  0  0  0999 V2000
  -30.3490  -23.8360   20.5260 C   0  0  0  0  0  3  0  0  0  0  0  0
  -28.7270  -22.4610   19.8850 C   0  0  0  0  0  3  0  0  0  0  0  0
  -29.0250  -23.8210   20.0010 C   0  0  0  0  0  0  0  0  0  0  0  0
  -30.7710  -22.5380   20.6940 C   0  0  0  0  0  0  0  0  0  0  0  0
  -29.7900  -21.6300   20.2990 N   0  0  0  0  0  0  0  0  0  0  0  0
  -31.0570  -19.4220   20.1360 C   0  0  0  0  0  3  0  0  0  0  0  0
  -31.1180  -17.9920   20.1930 C   0  0  0  0  0  3  0  0  0  0  0  0
  -28.6950  -19.3610   20.5470 C   0  0  0  0  0  3  0  0  0  0  0  0
  -29.8480  -20.1570   20.3210 C   0  0  0  0  0  0  0  0  0  0  0  0
  -29.9580  -17.2070   20.4320 C   0  0  0  0  0  0  0  0  0  0  0  0
  -28.7510  -17.9370   20.6020 C   0  0  0  0  0  0  0  0  0  0  0  0
  -27.6090  -17.2430   20.8260 F   0  0  0  0  0  0  0  0  0  0  0  0
  -30.6630  -14.7120   20.0570 C   0  0  0  0  0  0  0  0  0  0  0  0
  -30.4000  -12.5060   18.9310 C   0  0  0  0  0  2  0  0  0  0  0  0
  -29.3850  -12.6640   17.7760 C   0  0  0  0  0  2  0  0  0  0  0  0
  -27.9370  -12.4950   18.2800 C   0  0  0  0  0  2  0  0  0  0  0  0
  -27.6510  -13.3160   19.5660 C   0  0  0  0  0  3  0  0  0  0  0  0
  -28.7700  -13.1200   20.6130 C   0  0  0  0  0  2  0  0  0  0  0  0
  -30.0460  -13.4870   19.9770 N   0  0  0  0  0  0  0  0  0  0  0  0
  -31.7990  -14.8840   19.6060 O   0  0  0  0  0  0  0  0  0  0  0  0
  -29.8820  -15.7420   20.5120 N   0  0  0  0  0  0  0  0  0  0  0  0
  -28.9970  -15.4230   20.8770 H   0  0  0  0  0  0  0  0  0  0  0  0
  -25.2960  -13.9000   20.4170 C   0  0  0  0  0  0  0  0  0  0  0  0
  -24.2470  -13.1190   20.8200 C   0  0  0  0  0  0  0  0  0  0  0  0
  -24.7040  -11.7690   20.7360 C   0  0  0  0  0  0  0  0  0  0  0  0
  -26.3270  -13.0250   20.1110 N   0  0  0  0  0  0  0  0  0  0  0  0
  -25.9770  -11.7360   20.3610 N   0  0  0  0  0  0  0  0  0  0  0  0
  -23.9850  -10.5040   20.9330 C   0  0  0  0  0  0  0  0  0  0  0  0
  -24.4220   -9.5450   21.8740 C   0  0  0  0  0  3  0  0  0  0  0  0
  -23.7030   -8.3440   22.0590 C   0  0  0  0  0  3  0  0  0  0  0  0
  -22.5330   -8.0940   21.3030 C   0  0  0  0  0  0  0  0  0  0  0  0
  -22.1140   -9.0420   20.3530 C   0  0  0  0  0  3  0  0  0  0  0  0
  -22.8340  -10.2340   20.1660 C   0  0  0  0  0  3  0  0  0  0  0  0
  -21.7860   -6.9450   21.3970 O   0  0  0  0  0  0  0  0  0  0  0  0
  -21.6840   -6.2450   22.5730 C   0  0  0  0  0  0  0  0  0  0  0  0
  -21.1870   -6.8410   23.7530 C   0  0  0  0  0  3  0  0  0  0  0  0
  -21.0350   -6.0670   24.9210 C   0  0  0  0  0  3  0  0  0  0  0  0
  -21.3690   -4.6990   24.9100 C   0  0  0  0  0  0  0  0  0  0  0  0
  -21.8600   -4.1040   23.7340 C   0  0  0  0  0  3  0  0  0  0  0  0
  -22.0130   -4.8740   22.5680 C   0  0  0  0  0  0  0  0  0  0  0  0
  -22.4670   -4.2910   21.4320 F   0  0  0  0  0  0  0  0  0  0  0  0
  -21.2160   -3.9530   26.0280 F   0  0  0  0  0  0  0  0  0  0  0  0
  -22.8660  -13.5940   21.1750 C   0  0  0  0  0  0  0  0  0  0  0  0
  -22.1850  -12.8840   22.0680 N   0  0  0  0  0  0  0  0  0  0  0  0
  -22.4020  -14.6270   20.6960 O   0  0  0  0  0  0  0  0  0  0  0  0
  -22.5730  -12.0490   22.4810 H   0  0  0  0  0  0  0  0  0  0  0  0
  -21.2620  -13.1870   22.3490 H   0  0  0  0  0  0  0  0  0  0  0  0
  -25.4530  -15.2740   20.2680 N   0  0  0  0  0  0  0  0  0  0  0  0
  -24.7020  -15.9240   20.4730 H   0  0  0  0  0  0  0  0  0  0  0  0
  -26.3150  -15.7400   20.0130 H   0  0  0  0  0  0  0  0  0  0  0  0
  -31.9650  -22.1150   21.1880 O   0  0  0  0  0  0  0  0  0  0  0  0
  -32.4960  -22.8880   21.3590 H   0  0  0  0  0  0  0  0  0  0  0  0
  -28.1030  -25.0220   19.5940 C   0  0  0  0  0  2  0  0  0  0  0  0
  -28.3650  -26.4380   19.9810 O   0  0  0  0  0  0  0  0  0  0  0  0
  -24.5450  -31.7290   23.1380 C   0  0  0  0  0  0  0  0  0  0  0  0
  -27.2530  -27.3090   19.9370 C   0  0  0  0  0  0  0  0  0  0  0  0
  -23.3740  -30.3530   21.4610 C   0  0  0  0  0  3  0  0  0  0  0  0
  -24.8580  -28.8910   19.9830 C   0  0  0  0  0  0  0  0  0  0  0  0
  -25.9120  -30.7260   21.2960 C   0  0  0  0  0  2  0  0  0  0  0  0
  -26.0200  -29.3730   20.5990 C   0  0  0  0  0  0  0  0  0  0  0  0
  -27.2190  -28.5940   20.5710 C   0  0  0  0  0  3  0  0  0  0  0  0
  -26.0620  -26.9020   19.2850 C   0  0  0  0  0  3  0  0  0  0  0  0
  -24.8820  -27.6600   19.3190 C   0  0  0  0  0  3  0  0  0  0  0  0
  -23.6040  -29.7350   20.0590 C   0  0  0  0  0  2  0  0  0  0  0  0
  -24.6290  -30.9520   22.0200 N   0  0  0  0  0  0  0  0  0  0  0  0
  -23.4550  -31.9670   23.6780 O   0  0  0  0  0  0  0  0  0  0  0  0
  -22.7370  -29.2900   22.3860 C   0  0  0  0  0  0  0  0  0  0  0  0
  -21.4180  -29.0710   22.2420 N   0  0  0  0  0  0  0  0  0  0  0  0
  -23.4280  -28.6660   23.1950 O   0  0  0  0  0  0  0  0  0  0  0  0
  -20.9180  -29.6290   21.5630 H   0  0  0  0  0  0  0  0  0  0  0  0
  -18.0730  -27.7690   22.6930 C   0  0  0  0  0  0  0  0  0  0  0  0
  -20.6220  -28.0940   22.9860 C   0  0  0  0  0  3  0  0  0  0  0  0
  -20.7650  -26.6790   22.3770 C   0  0  0  0  0  2  0  0  0  0  0  0
  -19.6790  -26.3510   21.3470 C   0  0  0  0  0  2  0  0  0  0  0  0
  -18.2900  -26.4430   21.9850 C   0  0  0  0  0  2  0  0  0  0  0  0
  -19.1680  -28.5510   23.1490 C   0  0  0  0  0  0  0  0  0  0  0  0
  -18.9100  -29.7920   23.7700 C   0  0  0  0  0  3  0  0  0  0  0  0
  -17.5900  -30.2530   23.9400 C   0  0  0  0  0  3  0  0  0  0  0  0
  -16.5100  -29.4670   23.5010 C   0  0  0  0  0  3  0  0  0  0  0  0
  -16.7520  -28.2280   22.8830 C   0  0  0  0  0  3  0  0  0  0  0  0
  -25.8130  -32.3740   23.7780 C   0  0  0  0  0  3  0  0  0  0  0  0
  -26.3280  -31.5970   25.0510 C   0  0  1  0  0  0  0  0  0  0  0  0
  -25.2280  -31.3340   26.1070 C   0  0  0  0  0  1  0  0  0  0  0  0
  -26.9340  -30.2300   24.6550 C   0  0  0  0  0  1  0  0  0  0  0  0
  -27.4620  -32.4020   25.7290 C   0  0  0  0  0  1  0  0  0  0  0  0
  -25.4760  -33.7630   24.1220 N   0  0  0  0  0  0  0  0  0  0  0  0
  -25.7800  -34.8290   23.3690 C   0  0  0  0  0  0  0  0  0  0  0  0
  -26.4410  -34.7490   22.3300 O   0  0  0  0  0  0  0  0  0  0  0  0
  -24.8810  -33.8970   24.9260 H   0  0  0  0  0  0  0  0  0  0  0  0
  -24.0000  -36.5820   23.0650 C   0  0  0  0  0  1  0  0  0  0  0  0
  -25.2690  -36.2040   23.8450 C   0  0  0  0  0  3  0  0  0  0  0  0
  -27.3970  -37.1400   24.6350 C   0  0  0  0  0  1  0  0  0  0  0  0
  -26.2730  -37.2810   23.7130 N   0  0  0  0  0  0  0  0  0  0  0  0
  -25.8480  -38.1920   23.8660 H   0  0  0  0  0  0  0  0  0  0  0  0
  1  4  2  0
  2  3  2  0
  2  5  1  0
  3  1  1  0
  4 51  1  0
  5  9  1  0
  5  4  1  0
  6  7  2  0
  6  9  1  0
  7 10  1  0
  8 11  1  0
  9  8  2  0
 10 21  1  0
 10 11  2  0
 11 12  1  0
 13 21  1  0
 14 19  1  0
 15 16  1  0
 15 14  1  0
 17 16  1  0
 17 26  1  0
 17 18  1  0
 19 13  1  0
 19 18  1  0
 20 13  2  0
 21 22  1  0
 23 24  2  0
 24 43  1  0
 25 24  1  0
 25 28  1  0
 26 27  1  0
 26 23  1  0
 27 25  2  0
 28 29  1  0
 29 30  2  0
 31 34  1  0
 31 30  1  0
 32 31  2  0
 33 32  1  0
 33 28  2  0
 34 35  1  0
 35 36  1  0
 36 37  2  0
 38 37  1  0
 38 42  1  0
 39 38  2  0
 40 35  2  0
 40 39  1  0
 41 40  1  0
 43 44  1  0
 44 47  1  0
 44 46  1  0
 45 43  2  0
 48 23  1  0
 48 49  1  0
 50 48  1  0
 51 52  1  0
 53 54  1  0
 53  3  1  0
 55 66  2  0
 56 54  1  0
 56 61  1  0
 57 65  1  0
 57 67  1  0
 58 64  1  0
 58 60  1  0
 59 65  1  0
 60 59  1  0
 61 60  2  0
 62 63  1  0
 62 56  2  0
 63 58  2  0
 64 57  1  0
 65 55  1  0
 67 69  2  0
 68 67  1  0
 70 68  1  0
 71 80  2  0
 71 76  1  0
 72 68  1  0
 72 76  1  0
 73 72  1  0
 74 75  1  0
 74 73  1  0
 75 71  1  0
 76 77  2  0
 77 78  1  0
 79 78  2  0
 80 79  1  0
 81 55  1  0
 81 86  1  0
 81 82  1  0
 82 85  1  1
 82 83  1  0
 84 82  1  0
 86 89  1  0
 87 91  1  0
 87 86  1  0
 88 87  2  0
 91 90  1  0
 93 91  1  0
 93 94  1  0
 93 92  1  0
M  ISO  4  13 100  21 100  53 101  54 101
M  END
>  <TORSDO>  (89) 
F 19

>  <SCORE>  (89) 
-14.501

>  <name>  (89) 
88

>  <ligand_id>  (89) 
88

>  <original_smiles>  (89) 
[H]Oc1c([H])c(C([H])([H])Oc2c([H])c([H])c3c(c2[H])C([H])([H])N(C(=O)C([H])(N([H])C(=O)C([H])(N([H])C([H])([H])[H])C([H])([H])[H])C(C([H])([H])[H])(C([H])([H])[H])C([H])([H])[H])C([H])(C(=O)N([H])C2([H])c4c([H])c([H])c([H])c([H])c4C([H])([H])C([H])([H])C2([H])[H])C3([H])[H])c([H])n1-c1c([H])c([H])c(N([H])C(=O)N2C([H])([H])C([H])([H])C([H])([H])C([H])(n3nc(-c4c([H])c([H])c(Oc5c([H])c([H])c(F)c([H])c5F)c([H])c4[H])c(C(=O)N([H])[H])c3N([H])[H])C2([H])[H])c(F)c1[H]

>  <smiles>  (89) 
[H]Oc1c([H])c(C([H])([H])Oc2c([H])c([H])c3c(c2[H])C([H])([H])N(C(=O)C([H])(N([H])C(=O)C([H])(N([H])C([H])([H])[H])C([H])([H])[H])C(C([H])([H])[H])(C([H])([H])[H])C([H])([H])[H])C([H])(C(=O)N([H])C2([H])c4c([H])c([H])c([H])c([H])c4C([H])([H])C([H])([H])C2([H])[H])C3([H])[H])c([H])n1-c1c([H])c([H])c(N([H])C(=O)N2C([H])([H])C([H])([H])C([H])([H])C([H])(n3nc(-c4c([H])c([H])c(Oc5c([H])c([H])c(F)c([H])c5F)c([H])c4[H])c(C(=O)N([H])[H])c3N([H])[H])C2([H])[H])c(F)c1[H]

$$$$
89:0:0
     RDKit          3D

 97106  0  0  1  0  0  0  0  0999 V2000
  -29.7770  -24.3850   21.3410 C   0  0  0  0  0  3  0  0  0  0  0  0
  -30.6640  -22.1890   21.6850 C   0  0  0  0  0  3  0  0  0  0  0  0
  -29.0090  -23.9730   20.3150 C   0  0  0  0  0  0  0  0  0  0  0  0
  -30.6380  -23.4800   22.0540 C   0  0  0  0  0  0  0  0  0  0  0  0
  -29.0370  -22.5120   19.9190 C   0  0  0  0  0  0  0  0  0  0  0  0
  -29.8760  -21.6580   20.6370 N   0  0  0  0  0  0  0  0  0  0  0  0
  -28.3260  -22.0810   19.0060 O   0  0  0  0  0  0  0  0  0  0  0  0
  -30.1780  -17.9930   21.6860 C   0  0  0  0  0  3  0  0  0  0  0  0
  -30.1000  -19.4070   21.7030 C   0  0  0  0  0  3  0  0  0  0  0  0
  -29.9180  -17.9890   19.3050 C   0  0  0  0  0  3  0  0  0  0  0  0
  -30.0400  -17.2260   20.5010 C   0  0  0  0  0  0  0  0  0  0  0  0
  -29.9220  -20.1800   20.5260 C   0  0  0  0  0  0  0  0  0  0  0  0
  -29.8700  -19.4260   19.3110 C   0  0  0  0  0  0  0  0  0  0  0  0
  -29.7970  -20.0710   18.1220 F   0  0  0  0  0  0  0  0  0  0  0  0
  -29.7870  -15.7200   20.6630 C   0  0  0  0  0  0  0  0  0  0  0  0
  -29.0130  -15.4500   21.6290 N   0  0  0  0  0  0  0  0  0  0  0  0
  -28.7100  -16.3000   22.0860 H   0  0  0  0  0  0  0  0  0  0  0  0
  -30.4520  -14.6000   19.7570 C   0  0  0  0  0  0  0  0  0  0  0  0
  -30.0900  -12.4890   18.4790 C   0  0  0  0  0  2  0  0  0  0  0  0
  -28.9730  -12.7380   17.4350 C   0  0  0  0  0  2  0  0  0  0  0  0
  -27.5630  -12.5440   18.0390 C   0  0  0  0  0  2  0  0  0  0  0  0
  -27.4130  -13.2530   19.4110 C   0  0  0  0  0  3  0  0  0  0  0  0
  -28.6060  -12.8720   20.3050 C   0  0  0  0  0  2  0  0  0  0  0  0
  -29.8280  -13.3680   19.6400 N   0  0  0  0  0  0  0  0  0  0  0  0
  -31.4840  -14.8450   19.1190 O   0  0  0  0  0  0  0  0  0  0  0  0
  -25.1510  -13.8270   20.4950 C   0  0  0  0  0  0  0  0  0  0  0  0
  -24.1300  -13.0390   20.9500 C   0  0  0  0  0  0  0  0  0  0  0  0
  -24.5600  -11.6900   20.7570 C   0  0  0  0  0  0  0  0  0  0  0  0
  -26.1340  -12.9560   20.0490 N   0  0  0  0  0  0  0  0  0  0  0  0
  -25.7890  -11.6610   20.2600 N   0  0  0  0  0  0  0  0  0  0  0  0
  -23.8480  -10.4210   20.9630 C   0  0  0  0  0  0  0  0  0  0  0  0
  -24.3530   -9.4270   21.8280 C   0  0  0  0  0  3  0  0  0  0  0  0
  -23.6420   -8.2250   22.0250 C   0  0  0  0  0  3  0  0  0  0  0  0
  -22.4140   -8.0090   21.3540 C   0  0  0  0  0  0  0  0  0  0  0  0
  -21.9280   -8.9940   20.4760 C   0  0  0  0  0  3  0  0  0  0  0  0
  -22.6390  -10.1880   20.2770 C   0  0  0  0  0  3  0  0  0  0  0  0
  -21.6680   -6.8600   21.4610 O   0  0  0  0  0  0  0  0  0  0  0  0
  -21.6480   -6.1210   22.6170 C   0  0  0  0  0  0  0  0  0  0  0  0
  -21.2340   -6.6730   23.8500 C   0  0  0  0  0  3  0  0  0  0  0  0
  -21.1580   -5.8580   24.9960 C   0  0  0  0  0  3  0  0  0  0  0  0
  -21.4890   -4.4910   24.9140 C   0  0  0  0  0  0  0  0  0  0  0  0
  -21.8980   -3.9400   23.6870 C   0  0  0  0  0  3  0  0  0  0  0  0
  -21.9740   -4.7520   22.5420 C   0  0  0  0  0  0  0  0  0  0  0  0
  -22.3470   -4.2080   21.3570 F   0  0  0  0  0  0  0  0  0  0  0  0
  -21.4110   -3.7080   26.0130 F   0  0  0  0  0  0  0  0  0  0  0  0
  -22.7940  -13.5060   21.4510 C   0  0  0  0  0  0  0  0  0  0  0  0
  -22.1940  -12.7630   22.3750 N   0  0  0  0  0  0  0  0  0  0  0  0
  -22.2940  -14.5620   21.0590 O   0  0  0  0  0  0  0  0  0  0  0  0
  -22.6090  -11.9040   22.7060 H   0  0  0  0  0  0  0  0  0  0  0  0
  -21.3060  -13.0540   22.7570 H   0  0  0  0  0  0  0  0  0  0  0  0
  -25.3230  -15.2070   20.4150 N   0  0  0  0  0  0  0  0  0  0  0  0
  -24.6500  -15.8590   20.7990 H   0  0  0  0  0  0  0  0  0  0  0  0
  -26.2120  -15.6370   20.1900 H   0  0  0  0  0  0  0  0  0  0  0  0
  -31.3710  -23.9110   23.0850 O   0  0  0  0  0  0  0  0  0  0  0  0
  -31.1490  -24.8240   23.2330 H   0  0  0  0  0  0  0  0  0  0  0  0
  -28.0380  -24.9880   19.6370 C   0  0  0  0  0  2  0  0  0  0  0  0
  -28.1950  -26.4260   19.9760 O   0  0  0  0  0  0  0  0  0  0  0  0
  -24.3620  -31.6780   23.1070 C   0  0  0  0  0  0  0  0  0  0  0  0
  -27.0610  -27.2510   19.9370 C   0  0  0  0  0  0  0  0  0  0  0  0
  -23.1880  -30.3030   21.4270 C   0  0  0  0  0  3  0  0  0  0  0  0
  -24.6690  -28.8200   19.9660 C   0  0  0  0  0  0  0  0  0  0  0  0
  -25.7230  -30.6700   21.2640 C   0  0  0  0  0  2  0  0  0  0  0  0
  -25.8280  -29.3120   20.5790 C   0  0  0  0  0  0  0  0  0  0  0  0
  -27.0270  -28.5380   20.5600 C   0  0  0  0  0  3  0  0  0  0  0  0
  -25.8780  -26.8180   19.2930 C   0  0  0  0  0  3  0  0  0  0  0  0
  -24.6960  -27.5770   19.3160 C   0  0  0  0  0  3  0  0  0  0  0  0
  -23.4190  -29.6700   20.0310 C   0  0  0  0  0  2  0  0  0  0  0  0
  -24.4430  -30.8990   21.9910 N   0  0  0  0  0  0  0  0  0  0  0  0
  -23.2730  -31.9220   23.6440 O   0  0  0  0  0  0  0  0  0  0  0  0
  -22.5420  -29.2470   22.3580 C   0  0  0  0  0  0  0  0  0  0  0  0
  -21.2210  -29.0430   22.2170 N   0  0  0  0  0  0  0  0  0  0  0  0
  -23.2270  -28.6160   23.1670 O   0  0  0  0  0  0  0  0  0  0  0  0
  -20.7220  -29.6040   21.5400 H   0  0  0  0  0  0  0  0  0  0  0  0
  -17.8660  -27.7670   22.6700 C   0  0  0  0  0  0  0  0  0  0  0  0
  -20.4180  -28.0710   22.9640 C   0  0  0  0  0  3  0  0  0  0  0  0
  -20.5530  -26.6540   22.3580 C   0  0  0  0  0  2  0  0  0  0  0  0
  -19.4640  -26.3330   21.3290 C   0  0  0  0  0  2  0  0  0  0  0  0
  -18.0740  -26.4380   21.9660 C   0  0  0  0  0  2  0  0  0  0  0  0
  -18.9670  -28.5410   23.1250 C   0  0  0  0  0  0  0  0  0  0  0  0
  -18.7180  -29.7870   23.7430 C   0  0  0  0  0  3  0  0  0  0  0  0
  -17.4030  -30.2590   23.9090 C   0  0  0  0  0  3  0  0  0  0  0  0
  -16.3160  -29.4810   23.4710 C   0  0  0  0  0  3  0  0  0  0  0  0
  -16.5490  -28.2360   22.8570 C   0  0  0  0  0  3  0  0  0  0  0  0
  -25.6330  -32.3190   23.7460 C   0  0  0  0  0  3  0  0  0  0  0  0
  -26.1330  -31.5520   25.0320 C   0  0  1  0  0  0  0  0  0  0  0  0
  -25.0250  -31.3080   26.0810 C   0  0  0  0  0  1  0  0  0  0  0  0
  -26.7340  -30.1780   24.6520 C   0  0  0  0  0  1  0  0  0  0  0  0
  -27.2690  -32.3550   25.7100 C   0  0  0  0  0  1  0  0  0  0  0  0
  -25.3110  -33.7150   24.0700 N   0  0  0  0  0  0  0  0  0  0  0  0
  -25.6440  -34.7680   23.3100 C   0  0  0  0  0  0  0  0  0  0  0  0
  -26.3230  -34.6670   22.2850 O   0  0  0  0  0  0  0  0  0  0  0  0
  -24.7090  -33.8670   24.8650 H   0  0  0  0  0  0  0  0  0  0  0  0
  -23.9080  -36.5490   22.9390 C   0  0  0  0  0  1  0  0  0  0  0  0
  -25.1440  -36.1540   23.7620 C   0  0  0  0  0  3  0  0  0  0  0  0
  -27.2620  -37.0560   24.6140 C   0  0  0  0  0  1  0  0  0  0  0  0
  -26.1700  -37.2150   23.6570 N   0  0  0  0  0  0  0  0  0  0  0  0
  -25.7540  -38.1320   23.8040 H   0  0  0  0  0  0  0  0  0  0  0  0
  1  4  1  0
  2  4  2  0
  3  1  2  0
  4 54  1  0
  5  3  1  0
  5  6  1  0
  6  2  1  0
  7  5  2  0
  8  9  1  0
 10 13  2  0
 10 11  1  0
 11 15  1  0
 11  8  2  0
 12  6  1  0
 12  9  2  0
 13 12  1  0
 14 13  1  0
 15 16  2  0
 16 17  1  0
 18 15  1  0
 19 24  1  0
 20 21  1  0
 20 19  1  0
 22 21  1  0
 22 29  1  0
 22 23  1  0
 24 18  1  0
 24 23  1  0
 25 18  2  0
 26 27  2  0
 27 46  1  0
 28 27  1  0
 28 31  1  0
 29 30  1  0
 29 26  1  0
 30 28  2  0
 31 32  1  0
 32 33  2  0
 34 37  1  0
 34 33  1  0
 35 34  2  0
 36 35  1  0
 36 31  2  0
 37 38  1  0
 38 39  1  0
 39 40  2  0
 41 40  1  0
 41 45  1  0
 42 41  2  0
 43 38  2  0
 43 42  1  0
 44 43  1  0
 46 47  1  0
 47 49  1  0
 47 50  1  0
 48 46  2  0
 51 26  1  0
 51 52  1  0
 53 51  1  0
 54 55  1  0
 56 57  1  0
 56  3  1  0
 58 69  2  0
 59 57  1  0
 59 64  1  0
 60 68  1  0
 60 70  1  0
 61 67  1  0
 61 63  1  0
 62 68  1  0
 63 62  1  0
 64 63  2  0
 65 66  1  0
 65 59  2  0
 66 61  2  0
 67 60  1  0
 68 58  1  0
 70 72  2  0
 71 70  1  0
 73 71  1  0
 74 83  2  0
 74 79  1  0
 75 71  1  0
 75 79  1  0
 76 75  1  0
 77 78  1  0
 77 76  1  0
 78 74  1  0
 79 80  2  0
 80 81  1  0
 82 81  2  0
 83 82  1  0
 84 58  1  0
 84 89  1  0
 84 85  1  0
 85 88  1  1
 85 86  1  0
 87 85  1  0
 89 92  1  0
 90 94  1  0
 90 89  1  0
 91 90  2  0
 94 93  1  0
 96 94  1  0
 96 97  1  0
 96 95  1  0
M  ISO  4  15 100  18 100  56 101  57 101
M  END
>  <TORSDO>  (90) 
F 20

>  <SCORE>  (90) 
-11.267

>  <name>  (90) 
89

>  <ligand_id>  (90) 
89

>  <original_smiles>  (90) 
[H]N=C(C(=O)N1C([H])([H])C([H])([H])C([H])([H])C([H])(n2nc(-c3c([H])c([H])c(Oc4c([H])c([H])c(F)c([H])c4F)c([H])c3[H])c(C(=O)N([H])[H])c2N([H])[H])C1([H])[H])c1c([H])c([H])c(-n2c([H])c(O[H])c([H])c(C([H])([H])Oc3c([H])c([H])c4c(c3[H])C([H])([H])N(C(=O)C([H])(N([H])C(=O)C([H])(N([H])C([H])([H])[H])C([H])([H])[H])C(C([H])([H])[H])(C([H])([H])[H])C([H])([H])[H])C([H])(C(=O)N([H])C3([H])c5c([H])c([H])c([H])c([H])c5C([H])([H])C([H])([H])C3([H])[H])C4([H])[H])c2=O)c(F)c1[H]

>  <smiles>  (90) 
[H]N=C(C(=O)N1C([H])([H])C([H])([H])C([H])([H])C([H])(n2nc(-c3c([H])c([H])c(Oc4c([H])c([H])c(F)c([H])c4F)c([H])c3[H])c(C(=O)N([H])[H])c2N([H])[H])C1([H])[H])c1c([H])c([H])c(-n2c([H])c(O[H])c([H])c(C([H])([H])Oc3c([H])c([H])c4c(c3[H])C([H])([H])N(C(=O)C([H])(N([H])C(=O)C([H])(N([H])C([H])([H])[H])C([H])([H])[H])C(C([H])([H])[H])(C([H])([H])[H])C([H])([H])[H])C([H])(C(=O)N([H])C3([H])c5c([H])c([H])c([H])c([H])c5C([H])([H])C([H])([H])C3([H])[H])C4([H])[H])c2=O)c(F)c1[H]

$$$$
90:0:0
     RDKit          3D

 96105  0  0  1  0  0  0  0  0999 V2000
  -29.8620  -23.8680   18.6200 C   0  0  0  0  0  3  0  0  0  0  0  0
  -30.3610  -21.5070   18.4080 C   0  0  0  0  0  3  0  0  0  0  0  0
  -28.9680  -23.6800   19.6210 C   0  0  0  0  0  0  0  0  0  0  0  0
  -30.5930  -22.7680   17.9990 C   0  0  0  0  0  0  0  0  0  0  0  0
  -28.6990  -22.2370   20.0230 C   0  0  0  0  0  0  0  0  0  0  0  0
  -29.4060  -21.1860   19.3920 N   0  0  0  0  0  0  0  0  0  0  0  0
  -27.8720  -21.9930   20.9090 O   0  0  0  0  0  0  0  0  0  0  0  0
  -27.3140  -18.0540   19.7290 C   0  0  0  0  0  3  0  0  0  0  0  0
  -28.2270  -17.0370   20.0700 C   0  0  0  0  0  3  0  0  0  0  0  0
  -27.7500  -19.3560   19.4330 C   0  0  0  0  0  3  0  0  0  0  0  0
  -30.0450  -18.6260   19.8490 C   0  0  0  0  0  3  0  0  0  0  0  0
  -29.6180  -17.2430   20.1010 C   0  0  0  0  0  0  0  0  0  0  0  0
  -29.1100  -19.7260   19.5730 C   0  0  0  0  0  0  0  0  0  0  0  0
  -30.3730  -16.0160   20.7240 C   0  0  0  0  0  0  0  0  0  0  0  0
  -30.4820  -16.0180   21.9900 N   0  0  0  0  0  0  0  0  0  0  0  0
  -30.0410  -16.8370   22.3890 H   0  0  0  0  0  0  0  0  0  0  0  0
  -30.9410  -14.7460   19.9360 C   0  0  0  0  0  0  0  0  0  0  0  0
  -30.6460  -12.4380   18.9940 C   0  0  0  0  0  2  0  0  0  0  0  0
  -29.6440  -12.4560   17.8190 C   0  0  0  0  0  2  0  0  0  0  0  0
  -28.1980  -12.3240   18.3380 C   0  0  0  0  0  2  0  0  0  0  0  0
  -27.9010  -13.2520   19.5500 C   0  0  0  0  0  3  0  0  0  0  0  0
  -29.0250  -13.1750   20.6080 C   0  0  0  0  0  2  0  0  0  0  0  0
  -30.2870  -13.5240   19.9420 N   0  0  0  0  0  0  0  0  0  0  0  0
  -32.0270  -14.8510   19.3530 O   0  0  0  0  0  0  0  0  0  0  0  0
  -25.5690  -13.8660   20.4420 C   0  0  0  0  0  0  0  0  0  0  0  0
  -24.5190  -13.1120   20.8790 C   0  0  0  0  0  0  0  0  0  0  0  0
  -24.9450  -11.7570   20.7770 C   0  0  0  0  0  0  0  0  0  0  0  0
  -26.5830  -12.9800   20.1240 N   0  0  0  0  0  0  0  0  0  0  0  0
  -26.2150  -11.6970   20.3870 N   0  0  0  0  0  0  0  0  0  0  0  0
  -24.1950  -10.5110   20.9660 C   0  0  0  0  0  0  0  0  0  0  0  0
  -24.6150   -9.5270   21.8900 C   0  0  0  0  0  3  0  0  0  0  0  0
  -23.8610   -8.3480   22.0700 C   0  0  0  0  0  3  0  0  0  0  0  0
  -22.6690   -8.1460   21.3340 C   0  0  0  0  0  0  0  0  0  0  0  0
  -22.2690   -9.1170   20.3960 C   0  0  0  0  0  3  0  0  0  0  0  0
  -23.0230  -10.2860   20.2120 C   0  0  0  0  0  3  0  0  0  0  0  0
  -21.8790   -7.0300   21.4330 O   0  0  0  0  0  0  0  0  0  0  0  0
  -21.7870   -6.3120   22.6020 C   0  0  0  0  0  0  0  0  0  0  0  0
  -21.3110   -6.8950   23.7950 C   0  0  0  0  0  3  0  0  0  0  0  0
  -21.1680   -6.1060   24.9560 C   0  0  0  0  0  3  0  0  0  0  0  0
  -21.4910   -4.7370   24.9190 C   0  0  0  0  0  0  0  0  0  0  0  0
  -21.9620   -4.1540   23.7310 C   0  0  0  0  0  3  0  0  0  0  0  0
  -22.1040   -4.9410   22.5720 C   0  0  0  0  0  0  0  0  0  0  0  0
  -22.5380   -4.3700   21.4220 F   0  0  0  0  0  0  0  0  0  0  0  0
  -21.3460   -3.9730   26.0290 F   0  0  0  0  0  0  0  0  0  0  0  0
  -23.1560  -13.6210   21.2490 C   0  0  0  0  0  0  0  0  0  0  0  0
  -22.4520  -12.9290   22.1340 N   0  0  0  0  0  0  0  0  0  0  0  0
  -22.7200  -14.6740   20.7760 O   0  0  0  0  0  0  0  0  0  0  0  0
  -22.8030  -12.0740   22.5400 H   0  0  0  0  0  0  0  0  0  0  0  0
  -21.5340  -13.2580   22.4040 H   0  0  0  0  0  0  0  0  0  0  0  0
  -25.7070  -15.2300   20.2510 N   0  0  0  0  0  0  0  0  0  0  0  0
  -24.8850  -15.8160   20.3330 H   0  0  0  0  0  0  0  0  0  0  0  0
  -26.3840  -15.6010   19.5980 H   0  0  0  0  0  0  0  0  0  0  0  0
  -31.5590  -23.0190   17.1040 O   0  0  0  0  0  0  0  0  0  0  0  0
  -31.7830  -23.9440   17.1610 H   0  0  0  0  0  0  0  0  0  0  0  0
  -28.2810  -24.8880   20.4370 C   0  0  0  0  0  2  0  0  0  0  0  0
  -28.4480  -26.3400   20.0960 O   0  0  0  0  0  0  0  0  0  0  0  0
  -24.6130  -31.7840   23.1740 C   0  0  0  0  0  0  0  0  0  0  0  0
  -27.3160  -27.1890   20.1660 C   0  0  0  0  0  0  0  0  0  0  0  0
  -23.4530  -30.3840   21.5060 C   0  0  0  0  0  3  0  0  0  0  0  0
  -24.9300  -28.8010   20.1480 C   0  0  0  0  0  0  0  0  0  0  0  0
  -26.0000  -30.6820   21.3920 C   0  0  0  0  0  2  0  0  0  0  0  0
  -26.0950  -29.2930   20.7610 C   0  0  0  0  0  0  0  0  0  0  0  0
  -27.2850  -28.4950   20.7680 C   0  0  0  0  0  3  0  0  0  0  0  0
  -26.1140  -26.7420   19.5760 C   0  0  0  0  0  3  0  0  0  0  0  0
  -24.9370  -27.5160   19.5750 C   0  0  0  0  0  3  0  0  0  0  0  0
  -23.7040  -29.6900   20.1430 C   0  0  0  0  0  2  0  0  0  0  0  0
  -24.7060  -30.9780   22.0740 N   0  0  0  0  0  0  0  0  0  0  0  0
  -23.5160  -32.0620   23.6820 O   0  0  0  0  0  0  0  0  0  0  0  0
  -22.7620  -29.3810   22.4610 C   0  0  0  0  0  0  0  0  0  0  0  0
  -21.4350  -29.2150   22.3180 N   0  0  0  0  0  0  0  0  0  0  0  0
  -23.4220  -28.7480   23.2910 O   0  0  0  0  0  0  0  0  0  0  0  0
  -20.9510  -29.7830   21.6340 H   0  0  0  0  0  0  0  0  0  0  0  0
  -18.0400  -28.0790   22.8210 C   0  0  0  0  0  0  0  0  0  0  0  0
  -20.6030  -28.2830   23.0790 C   0  0  0  0  0  3  0  0  0  0  0  0
  -20.6750  -26.8630   22.4750 C   0  0  0  0  0  2  0  0  0  0  0  0
  -19.5580  -26.5860   21.4590 C   0  0  0  0  0  2  0  0  0  0  0  0
  -18.1830  -26.7420   22.1120 C   0  0  0  0  0  2  0  0  0  0  0  0
  -19.1770  -28.8120   23.2580 C   0  0  0  0  0  0  0  0  0  0  0  0
  -18.9850  -30.0690   23.8730 C   0  0  0  0  0  3  0  0  0  0  0  0
  -17.6910  -30.5880   24.0660 C   0  0  0  0  0  3  0  0  0  0  0  0
  -16.5690  -29.8560   23.6350 C   0  0  0  0  0  3  0  0  0  0  0  0
  -16.7460  -28.6050   23.0180 C   0  0  0  0  0  3  0  0  0  0  0  0
  -25.8780  -32.4180   23.8330 C   0  0  0  0  0  3  0  0  0  0  0  0
  -26.3600  -31.6500   25.1280 C   0  0  1  0  0  0  0  0  0  0  0  0
  -25.2330  -31.4260   26.1640 C   0  0  0  0  0  1  0  0  0  0  0  0
  -26.9580  -30.2660   24.7730 C   0  0  0  0  0  1  0  0  0  0  0  0
  -27.4840  -32.4530   25.8250 C   0  0  0  0  0  1  0  0  0  0  0  0
  -25.5600  -33.8170   24.1510 N   0  0  0  0  0  0  0  0  0  0  0  0
  -25.9130  -34.8700   23.4030 C   0  0  0  0  0  0  0  0  0  0  0  0
  -26.6100  -34.7640   22.3900 O   0  0  0  0  0  0  0  0  0  0  0  0
  -24.9490  -33.9800   24.9360 H   0  0  0  0  0  0  0  0  0  0  0  0
  -24.1960  -36.6740   23.0060 C   0  0  0  0  0  1  0  0  0  0  0  0
  -25.4140  -36.2580   23.8480 C   0  0  0  0  0  3  0  0  0  0  0  0
  -27.5230  -37.1510   24.7450 C   0  0  0  0  0  1  0  0  0  0  0  0
  -26.4470  -37.3160   23.7700 N   0  0  0  0  0  0  0  0  0  0  0  0
  -26.0320  -38.2350   23.9040 H   0  0  0  0  0  0  0  0  0  0  0  0
  1  3  2  0
  2  6  1  0
  3  5  1  0
  3 55  1  0
  4  2  2  0
  4  1  1  0
  5  7  2  0
  6 13  1  0
  6  5  1  0
  8  9  1  0
  9 12  2  0
 10 13  1  0
 10  8  2  0
 11 12  1  0
 12 14  1  0
 13 11  2  0
 14 15  2  0
 15 16  1  0
 17 23  1  0
 17 14  1  0
 18 23  1  0
 19 20  1  0
 19 18  1  0
 21 20  1  0
 21 28  1  0
 21 22  1  0
 23 22  1  0
 24 17  2  0
 25 26  2  0
 26 45  1  0
 27 26  1  0
 27 30  1  0
 28 29  1  0
 28 25  1  0
 29 27  2  0
 30 31  1  0
 31 32  2  0
 33 36  1  0
 33 32  1  0
 34 33  2  0
 35 34  1  0
 35 30  2  0
 36 37  1  0
 37 38  1  0
 38 39  2  0
 40 39  1  0
 40 44  1  0
 41 40  2  0
 42 37  2  0
 42 41  1  0
 43 42  1  0
 45 46  1  0
 46 49  1  0
 46 48  1  0
 47 45  2  0
 50 51  1  0
 50 25  1  0
 52 50  1  0
 53 54  1  0
 53  4  1  0
 56 58  1  0
 56 55  1  0
 57 68  2  0
 58 63  1  0
 59 67  1  0
 59 69  1  0
 60 62  1  0
 61 67  1  0
 62 63  2  0
 62 61  1  0
 64 58  2  0
 65 64  1  0
 65 60  2  0
 66 60  1  0
 66 59  1  0
 67 57  1  0
 69 71  2  0
 70 69  1  0
 72 70  1  0
 73 82  2  0
 73 78  1  0
 74 70  1  0
 74 78  1  0
 75 74  1  0
 76 77  1  0
 76 75  1  0
 77 73  1  0
 78 79  2  0
 79 80  1  0
 81 80  2  0
 82 81  1  0
 83 57  1  0
 83 88  1  0
 83 84  1  0
 84 87  1  1
 84 85  1  0
 86 84  1  0
 88 91  1  0
 89 93  1  0
 89 88  1  0
 90 89  2  0
 93 92  1  0
 95 93  1  0
 95 96  1  0
 95 94  1  0
M  ISO  4  14 100  17 100  55 101  56 101
M  END
>  <TORSDO>  (91) 
F 20

>  <SCORE>  (91) 
-14.460

>  <name>  (91) 
90

>  <ligand_id>  (91) 
90

>  <original_smiles>  (91) 
[H]N=C(C(=O)N1C([H])([H])C([H])([H])C([H])([H])C([H])(n2nc(-c3c([H])c([H])c(Oc4c([H])c([H])c(F)c([H])c4F)c([H])c3[H])c(C(=O)N([H])[H])c2N([H])[H])C1([H])[H])c1c([H])c([H])c([H])c(-n2c([H])c(O[H])c([H])c(C([H])([H])Oc3c([H])c([H])c4c(c3[H])C([H])([H])N(C(=O)C([H])(N([H])C(=O)C([H])(N([H])C([H])([H])[H])C([H])([H])[H])C(C([H])([H])[H])(C([H])([H])[H])C([H])([H])[H])C([H])(C(=O)N([H])C3([H])c5c([H])c([H])c([H])c([H])c5C([H])([H])C([H])([H])C3([H])[H])C4([H])[H])c2=O)c1[H]

>  <smiles>  (91) 
[H]N=C(C(=O)N1C([H])([H])C([H])([H])C([H])([H])C([H])(n2nc(-c3c([H])c([H])c(Oc4c([H])c([H])c(F)c([H])c4F)c([H])c3[H])c(C(=O)N([H])[H])c2N([H])[H])C1([H])[H])c1c([H])c([H])c([H])c(-n2c([H])c(O[H])c([H])c(C([H])([H])Oc3c([H])c([H])c4c(c3[H])C([H])([H])N(C(=O)C([H])(N([H])C(=O)C([H])(N([H])C([H])([H])[H])C([H])([H])[H])C(C([H])([H])[H])(C([H])([H])[H])C([H])([H])[H])C([H])(C(=O)N([H])C3([H])c5c([H])c([H])c([H])c([H])c5C([H])([H])C([H])([H])C3([H])[H])C4([H])[H])c2=O)c1[H]

$$$$
91:0:0
     RDKit          3D

100110  0  0  1  0  0  0  0  0999 V2000
  -32.1820  -26.8570   20.8440 C   0  0  0  0  0  3  0  0  0  0  0  0
  -33.2890  -26.1950   20.2980 C   0  0  0  0  0  3  0  0  0  0  0  0
  -30.9430  -26.1990   20.9280 C   0  0  0  0  0  3  0  0  0  0  0  0
  -33.1590  -24.8550   19.9110 C   0  0  0  0  0  3  0  0  0  0  0  0
  -30.7420  -24.8750   20.4510 C   0  0  0  0  0  0  0  0  0  0  0  0
  -31.9170  -24.1830   20.0270 C   0  0  0  0  0  0  0  0  0  0  0  0
  -29.3500  -24.2690   20.3920 C   0  0  0  0  0  0  0  0  0  0  0  0
  -31.4090  -22.1250   20.9280 C   0  0  0  0  0  0  0  0  0  0  0  0
  -28.2700  -25.1300   20.2950 C   0  0  0  0  0  3  0  0  0  0  0  0
  -29.1190  -22.6720   20.3400 C   0  0  0  0  0  2  0  0  0  0  0  0
  -32.8950  -22.1010   19.0440 C   0  0  0  0  0  1  0  0  0  0  0  0
  -30.1820  -21.6350   20.7060 N   0  0  0  0  0  0  0  0  0  0  0  0
  -31.8890  -22.7820   19.8640 N   0  0  0  0  0  0  0  0  0  0  0  0
  -32.0710  -21.9160   21.9520 O   0  0  0  0  0  0  0  0  0  0  0  0
  -28.8270  -19.4810   20.2850 C   0  0  0  0  0  3  0  0  0  0  0  0
  -28.7350  -18.0510   20.2190 C   0  0  0  0  0  3  0  0  0  0  0  0
  -31.1150  -19.2460   20.9360 C   0  0  0  0  0  3  0  0  0  0  0  0
  -30.0310  -20.1470   20.6450 C   0  0  0  0  0  0  0  0  0  0  0  0
  -29.8340  -17.1770   20.4890 C   0  0  0  0  0  0  0  0  0  0  0  0
  -31.0320  -17.8260   20.8690 C   0  0  0  0  0  0  0  0  0  0  0  0
  -32.1190  -17.1000   21.2240 F   0  0  0  0  0  0  0  0  0  0  0  0
  -30.4760  -14.6800   20.0790 C   0  0  0  0  0  0  0  0  0  0  0  0
  -30.2310  -12.4650   18.9590 C   0  0  0  0  0  2  0  0  0  0  0  0
  -29.2240  -12.6190   17.7960 C   0  0  0  0  0  2  0  0  0  0  0  0
  -27.7740  -12.4450   18.2970 C   0  0  0  0  0  2  0  0  0  0  0  0
  -27.4790  -13.2660   19.5810 C   0  0  0  0  0  3  0  0  0  0  0  0
  -28.5950  -13.0810   20.6340 C   0  0  0  0  0  2  0  0  0  0  0  0
  -29.8680  -13.4520   19.9970 N   0  0  0  0  0  0  0  0  0  0  0  0
  -31.6150  -14.8500   19.6350 O   0  0  0  0  0  0  0  0  0  0  0  0
  -29.6600  -15.7180   20.4630 N   0  0  0  0  0  0  0  0  0  0  0  0
  -28.7270  -15.4070   20.6780 H   0  0  0  0  0  0  0  0  0  0  0  0
  -25.1210  -13.8370   20.4230 C   0  0  0  0  0  0  0  0  0  0  0  0
  -24.0810  -13.0530   20.8380 C   0  0  0  0  0  0  0  0  0  0  0  0
  -24.5510  -11.7040   20.7700 C   0  0  0  0  0  0  0  0  0  0  0  0
  -26.1580  -12.9680   20.1270 N   0  0  0  0  0  0  0  0  0  0  0  0
  -25.8240  -11.6790   20.3960 N   0  0  0  0  0  0  0  0  0  0  0  0
  -23.8440  -10.4360   20.9820 C   0  0  0  0  0  0  0  0  0  0  0  0
  -24.3220   -9.4660   21.8910 C   0  0  0  0  0  3  0  0  0  0  0  0
  -23.6140   -8.2620   22.0920 C   0  0  0  0  0  3  0  0  0  0  0  0
  -22.4140   -8.0190   21.3830 C   0  0  0  0  0  0  0  0  0  0  0  0
  -21.9550   -8.9770   20.4620 C   0  0  0  0  0  3  0  0  0  0  0  0
  -22.6640  -10.1720   20.2590 C   0  0  0  0  0  3  0  0  0  0  0  0
  -21.6730   -6.8670   21.4950 O   0  0  0  0  0  0  0  0  0  0  0  0
  -21.6750   -6.1180   22.6450 C   0  0  0  0  0  0  0  0  0  0  0  0
  -21.2990   -6.6650   23.8910 C   0  0  0  0  0  3  0  0  0  0  0  0
  -21.2470   -5.8410   25.0330 C   0  0  0  0  0  3  0  0  0  0  0  0
  -21.5640   -4.4730   24.9320 C   0  0  0  0  0  0  0  0  0  0  0  0
  -21.9350   -3.9260   23.6910 C   0  0  0  0  0  3  0  0  0  0  0  0
  -21.9870   -4.7460   22.5500 C   0  0  0  0  0  0  0  0  0  0  0  0
  -22.3240   -4.2090   21.3530 F   0  0  0  0  0  0  0  0  0  0  0  0
  -21.5080   -3.6820   26.0270 F   0  0  0  0  0  0  0  0  0  0  0  0
  -22.6960  -13.5180   21.1850 C   0  0  0  0  0  0  0  0  0  0  0  0
  -22.0140  -12.8060   22.0750 N   0  0  0  0  0  0  0  0  0  0  0  0
  -22.2270  -14.5470   20.7000 O   0  0  0  0  0  0  0  0  0  0  0  0
  -22.4060  -11.9730   22.4920 H   0  0  0  0  0  0  0  0  0  0  0  0
  -21.0870  -13.1010   22.3490 H   0  0  0  0  0  0  0  0  0  0  0  0
  -25.2630  -15.2120   20.2490 N   0  0  0  0  0  0  0  0  0  0  0  0
  -24.4870  -15.8490   20.3930 H   0  0  0  0  0  0  0  0  0  0  0  0
  -26.0650  -15.6570   19.8230 H   0  0  0  0  0  0  0  0  0  0  0  0
  -28.3100  -26.5380   20.1650 O   0  0  0  0  0  0  0  0  0  0  0  0
  -24.6100  -31.9120   23.2450 C   0  0  0  0  0  0  0  0  0  0  0  0
  -27.1640  -27.3440   20.1710 C   0  0  0  0  0  0  0  0  0  0  0  0
  -23.3790  -30.5210   21.6160 C   0  0  0  0  0  3  0  0  0  0  0  0
  -24.8060  -28.9580   20.1770 C   0  0  0  0  0  0  0  0  0  0  0  0
  -25.9140  -30.8280   21.4030 C   0  0  0  0  0  2  0  0  0  0  0  0
  -25.9790  -29.4450   20.7670 C   0  0  0  0  0  0  0  0  0  0  0  0
  -27.1580  -28.6460   20.7600 C   0  0  0  0  0  3  0  0  0  0  0  0
  -25.9760  -26.9100   19.5440 C   0  0  0  0  0  3  0  0  0  0  0  0
  -24.8070  -27.6980   19.5550 C   0  0  0  0  0  3  0  0  0  0  0  0
  -23.5740  -29.8400   20.2350 C   0  0  0  0  0  2  0  0  0  0  0  0
  -24.6550  -31.1040   22.1460 N   0  0  0  0  0  0  0  0  0  0  0  0
  -23.5340  -32.1980   23.7910 O   0  0  0  0  0  0  0  0  0  0  0  0
  -22.7200  -29.5100   22.5850 C   0  0  0  0  0  0  0  0  0  0  0  0
  -21.3930  -29.3360   22.4640 N   0  0  0  0  0  0  0  0  0  0  0  0
  -23.4010  -28.8840   23.4020 O   0  0  0  0  0  0  0  0  0  0  0  0
  -20.9050  -29.8880   21.7720 H   0  0  0  0  0  0  0  0  0  0  0  0
  -18.0180  -28.1410   22.9660 C   0  0  0  0  0  0  0  0  0  0  0  0
  -20.5750  -28.4040   23.2410 C   0  0  0  0  0  3  0  0  0  0  0  0
  -20.6800  -26.9690   22.6740 C   0  0  0  0  0  2  0  0  0  0  0  0
  -19.5790  -26.6400   21.6610 C   0  0  0  0  0  2  0  0  0  0  0  0
  -18.1960  -26.7890   22.2990 C   0  0  0  0  0  2  0  0  0  0  0  0
  -19.1350  -28.9080   23.3940 C   0  0  0  0  0  0  0  0  0  0  0  0
  -18.9120  -30.1750   23.9750 C   0  0  0  0  0  3  0  0  0  0  0  0
  -17.6060  -30.6760   24.1330 C   0  0  0  0  0  3  0  0  0  0  0  0
  -16.5040  -29.9070   23.7210 C   0  0  0  0  0  3  0  0  0  0  0  0
  -16.7110  -28.6420   23.1460 C   0  0  0  0  0  3  0  0  0  0  0  0
  -25.9050  -32.5330   23.8550 C   0  0  0  0  0  3  0  0  0  0  0  0
  -25.6080  -33.9310   24.1980 N   0  0  0  0  0  0  0  0  0  0  0  0
  -25.9230  -34.9860   23.4330 C   0  0  0  0  0  0  0  0  0  0  0  0
  -26.5610  -34.8820   22.3820 O   0  0  0  0  0  0  0  0  0  0  0  0
  -25.0360  -34.0860   25.0150 H   0  0  0  0  0  0  0  0  0  0  0  0
  -24.1760  -36.7740   23.1490 C   0  0  0  0  0  1  0  0  0  0  0  0
  -25.4510  -36.3740   23.9070 C   0  0  0  0  0  3  0  0  0  0  0  0
  -27.6180  -37.2650   24.6450 C   0  0  0  0  0  1  0  0  0  0  0  0
  -26.4760  -37.4290   23.7490 N   0  0  0  0  0  0  0  0  0  0  0  0
  -26.0750  -38.3490   23.9130 H   0  0  0  0  0  0  0  0  0  0  0  0
  -26.4320  -31.7490   25.1190 C   0  0  1  0  0  0  0  0  0  0  0  0
  -25.3500  -31.5120   26.1980 C   0  0  0  0  0  1  0  0  0  0  0  0
  -26.9990  -30.3690   24.7080 C   0  0  0  0  0  1  0  0  0  0  0  0
  -27.5990  -32.5290   25.7710 C   0  0  0  0  0  1  0  0  0  0  0  0
  1  3  1  0
  2  1  2  0
  4  6  2  0
  4  2  1  0
  5  3  2  0
  6  5  1  0
  7  5  1  0
  8 14  2  0
  9  7  2  0
 10  7  1  0
 10 12  1  0
 11 13  1  0
 12  8  1  0
 13  6  1  0
 13  8  1  0
 15 18  1  0
 16 15  2  0
 16 19  1  0
 18 12  1  0
 18 17  2  0
 19 20  2  0
 20 17  1  0
 20 21  1  0
 22 30  1  0
 23 28  1  0
 24 25  1  0
 24 23  1  0
 26 25  1  0
 26 35  1  0
 26 27  1  0
 28 22  1  0
 28 27  1  0
 29 22  2  0
 30 19  1  0
 30 31  1  0
 32 33  2  0
 33 52  1  0
 34 33  1  0
 34 37  1  0
 35 36  1  0
 35 32  1  0
 36 34  2  0
 37 38  1  0
 38 39  2  0
 40 43  1  0
 40 39  1  0
 41 40  2  0
 42 41  1  0
 42 37  2  0
 43 44  1  0
 44 45  1  0
 45 46  2  0
 47 46  1  0
 47 51  1  0
 48 47  2  0
 49 44  2  0
 49 48  1  0
 50 49  1  0
 52 53  1  0
 53 56  1  0
 53 55  1  0
 54 52  2  0
 57 58  1  0
 57 32  1  0
 59 57  1  0
 60 62  1  0
 60  9  1  0
 61 72  2  0
 62 67  1  0
 63 71  1  0
 63 73  1  0
 64 70  1  0
 64 66  1  0
 65 71  1  0
 66 65  1  0
 67 66  2  0
 68 69  1  0
 68 62  2  0
 69 64  2  0
 70 63  1  0
 71 61  1  0
 73 75  2  0
 74 73  1  0
 76 74  1  0
 77 86  2  0
 77 82  1  0
 78 74  1  0
 78 82  1  0
 79 78  1  0
 80 81  1  0
 80 79  1  0
 81 77  1  0
 82 83  2  0
 83 84  1  0
 85 84  2  0
 86 85  1  0
 87 61  1  0
 87 88  1  0
 87 97  1  0
 88 91  1  0
 89 93  1  0
 89 88  1  0
 90 89  2  0
 93 92  1  0
 95 93  1  0
 95 96  1  0
 95 94  1  0
 97100  1  1
 97 98  1  0
 99 97  1  0
M  ISO  4   9 101  22 100  30 100  60 101
M  END
>  <TORSDO>  (92) 
F 17

>  <SCORE>  (92) 
-15.536

>  <name>  (92) 
91

>  <ligand_id>  (92) 
91

>  <original_smiles>  (92) 
[H]C(Oc1c([H])c([H])c2c(c1[H])C([H])([H])N(C(=O)C([H])(N([H])C(=O)C([H])(N([H])C([H])([H])[H])C([H])([H])[H])C(C([H])([H])[H])(C([H])([H])[H])C([H])([H])[H])C([H])(C(=O)N([H])C1([H])c3c([H])c([H])c([H])c([H])c3C([H])([H])C([H])([H])C1([H])[H])C2([H])[H])=C1c2c([H])c([H])c([H])c([H])c2N(C([H])([H])[H])C(=O)N(c2c([H])c([H])c(N([H])C(=O)N3C([H])([H])C([H])([H])C([H])([H])C([H])(n4nc(-c5c([H])c([H])c(Oc6c([H])c([H])c(F)c([H])c6F)c([H])c5[H])c(C(=O)N([H])[H])c4N([H])[H])C3([H])[H])c(F)c2[H])C1([H])[H]

>  <smiles>  (92) 
[H]C(Oc1c([H])c([H])c2c(c1[H])C([H])([H])N(C(=O)C([H])(N([H])C(=O)C([H])(N([H])C([H])([H])[H])C([H])([H])[H])C(C([H])([H])[H])(C([H])([H])[H])C([H])([H])[H])C([H])(C(=O)N([H])C1([H])c3c([H])c([H])c([H])c([H])c3C([H])([H])C([H])([H])C1([H])[H])C2([H])[H])=C1c2c([H])c([H])c([H])c([H])c2N(C([H])([H])[H])C(=O)N(c2c([H])c([H])c(N([H])C(=O)N3C([H])([H])C([H])([H])C([H])([H])C([H])(n4nc(-c5c([H])c([H])c(Oc6c([H])c([H])c(F)c([H])c6F)c([H])c5[H])c(C(=O)N([H])[H])c4N([H])[H])C3([H])[H])c(F)c2[H])C1([H])[H]

$$$$
92:0:0
     RDKit          3D

 95104  0  0  1  0  0  0  0  0999 V2000
  -30.0190  -20.2070   18.6660 C   0  0  0  0  0  3  0  0  0  0  0  0
  -29.5580  -19.0170   20.6800 C   0  0  0  0  0  3  0  0  0  0  0  0
  -30.2440  -17.7450   18.7080 C   0  0  0  0  0  0  0  0  0  0  0  0
  -29.5780  -20.3430   20.0020 C   0  0  0  0  0  0  0  0  0  0  0  0
  -30.3220  -18.9890   18.0310 C   0  0  0  0  0  0  0  0  0  0  0  0
  -29.9240  -17.6950   20.1000 C   0  0  0  0  0  0  0  0  0  0  0  0
  -30.4240  -16.4680   17.8890 C   0  0  0  0  0  1  0  0  0  0  0  0
  -30.6460  -15.1670   20.7470 C   0  0  0  0  0  0  0  0  0  0  0  0
  -30.6190  -12.7800   19.9420 C   0  0  0  0  0  2  0  0  0  0  0  0
  -29.7940  -12.6720   18.6380 C   0  0  0  0  0  2  0  0  0  0  0  0
  -28.2940  -12.5000   18.9480 C   0  0  0  0  0  2  0  0  0  0  0  0
  -27.7900  -13.4630   20.0560 C   0  0  0  0  0  3  0  0  0  0  0  0
  -28.7500  -13.5260   21.2620 C   0  0  0  0  0  2  0  0  0  0  0  0
  -30.0690  -13.9050   20.7480 N   0  0  0  0  0  0  0  0  0  0  0  0
  -31.8650  -15.2410   20.5510 O   0  0  0  0  0  0  0  0  0  0  0  0
  -29.8380  -16.3320   20.7920 N   0  0  0  0  0  0  0  0  0  0  0  0
  -28.9410  -16.1560   21.2200 H   0  0  0  0  0  0  0  0  0  0  0  0
  -25.3530  -14.0300   20.6090 C   0  0  0  0  0  0  0  0  0  0  0  0
  -24.2720  -13.2490   20.9140 C   0  0  0  0  0  0  0  0  0  0  0  0
  -24.7510  -11.9030   20.9400 C   0  0  0  0  0  0  0  0  0  0  0  0
  -26.4190  -13.1600   20.4590 N   0  0  0  0  0  0  0  0  0  0  0  0
  -26.0610  -11.8770   20.7260 N   0  0  0  0  0  0  0  0  0  0  0  0
  -24.0250  -10.6360   21.0980 C   0  0  0  0  0  0  0  0  0  0  0  0
  -24.3810   -9.6980   22.0920 C   0  0  0  0  0  3  0  0  0  0  0  0
  -23.6560   -8.4960   22.2340 C   0  0  0  0  0  3  0  0  0  0  0  0
  -22.5590   -8.2220   21.3830 C   0  0  0  0  0  0  0  0  0  0  0  0
  -22.2240   -9.1490   20.3800 C   0  0  0  0  0  3  0  0  0  0  0  0
  -22.9510  -10.3410   20.2350 C   0  0  0  0  0  3  0  0  0  0  0  0
  -21.8120   -7.0690   21.4330 O   0  0  0  0  0  0  0  0  0  0  0  0
  -21.6470   -6.3680   22.6000 C   0  0  0  0  0  0  0  0  0  0  0  0
  -21.0440   -6.9460   23.7390 C   0  0  0  0  0  3  0  0  0  0  0  0
  -20.8310   -6.1670   24.8950 C   0  0  0  0  0  3  0  0  0  0  0  0
  -21.2120   -4.8120   24.9120 C   0  0  0  0  0  0  0  0  0  0  0  0
  -21.8080   -4.2340   23.7770 C   0  0  0  0  0  3  0  0  0  0  0  0
  -22.0240   -5.0100   22.6240 C   0  0  0  0  0  0  0  0  0  0  0  0
  -22.5780   -4.4420   21.5270 F   0  0  0  0  0  0  0  0  0  0  0  0
  -21.0020   -4.0630   26.0190 F   0  0  0  0  0  0  0  0  0  0  0  0
  -22.8540  -13.7140   21.0730 C   0  0  0  0  0  0  0  0  0  0  0  0
  -22.0710  -13.0330   21.9030 N   0  0  0  0  0  0  0  0  0  0  0  0
  -22.4430  -14.7200   20.4950 O   0  0  0  0  0  0  0  0  0  0  0  0
  -22.4120  -12.2200   22.3960 H   0  0  0  0  0  0  0  0  0  0  0  0
  -21.1170  -13.3300   22.0480 H   0  0  0  0  0  0  0  0  0  0  0  0
  -25.5170  -15.3990   20.4170 N   0  0  0  0  0  0  0  0  0  0  0  0
  -24.7350  -16.0440   20.4500 H   0  0  0  0  0  0  0  0  0  0  0  0
  -26.3790  -15.8400   20.1280 H   0  0  0  0  0  0  0  0  0  0  0  0
  -28.5560  -23.7920   20.4270 C   0  0  0  0  0  0  0  0  0  0  0  0
  -28.1220  -22.4870   20.9750 C   0  0  0  0  0  0  0  0  0  0  0  0
  -27.9740  -25.0780   20.5500 C   0  0  0  0  0  3  0  0  0  0  0  0
  -29.7230  -23.0270   19.7430 C   0  0  0  0  0  2  0  0  0  0  0  0
  -29.2300  -21.7730   20.4250 N   0  0  0  0  0  0  0  0  0  0  0  0
  -27.1050  -22.1890   21.5670 O   0  0  0  0  0  0  0  0  0  0  0  0
  -28.2610  -26.4210   20.0710 O   0  0  0  0  0  0  0  0  0  0  0  0
  -24.6450  -31.9930   23.2280 C   0  0  0  0  0  0  0  0  0  0  0  0
  -27.2110  -27.3970   20.0660 C   0  0  0  0  0  0  0  0  0  0  0  0
  -23.4220  -30.6040   21.5990 C   0  0  0  0  0  3  0  0  0  0  0  0
  -24.8560  -29.0790   20.1140 C   0  0  0  0  0  0  0  0  0  0  0  0
  -25.9630  -30.9200   21.3710 C   0  0  0  0  0  2  0  0  0  0  0  0
  -26.0420  -29.5420   20.7000 C   0  0  0  0  0  0  0  0  0  0  0  0
  -27.2220  -28.7130   20.6660 C   0  0  0  0  0  3  0  0  0  0  0  0
  -26.0030  -27.0320   19.4330 C   0  0  0  0  0  3  0  0  0  0  0  0
  -24.8450  -27.8350   19.4650 C   0  0  0  0  0  3  0  0  0  0  0  0
  -23.6160  -29.9540   20.2040 C   0  0  0  0  0  2  0  0  0  0  0  0
  -24.6970  -31.1920   22.1210 N   0  0  0  0  0  0  0  0  0  0  0  0
  -23.5700  -32.2530   23.7900 O   0  0  0  0  0  0  0  0  0  0  0  0
  -22.7860  -29.5700   22.5610 C   0  0  0  0  0  0  0  0  0  0  0  0
  -21.4630  -29.3550   22.4430 N   0  0  0  0  0  0  0  0  0  0  0  0
  -23.4840  -28.9630   23.3770 O   0  0  0  0  0  0  0  0  0  0  0  0
  -20.9540  -29.9010   21.7610 H   0  0  0  0  0  0  0  0  0  0  0  0
  -18.1280  -28.0420   22.9550 C   0  0  0  0  0  0  0  0  0  0  0  0
  -20.6770  -28.3920   23.2170 C   0  0  0  0  0  3  0  0  0  0  0  0
  -20.8240  -26.9630   22.6450 C   0  0  0  0  0  2  0  0  0  0  0  0
  -19.7320  -26.6020   21.6330 C   0  0  0  0  0  2  0  0  0  0  0  0
  -18.3480  -26.7000   22.2800 C   0  0  0  0  0  2  0  0  0  0  0  0
  -19.2200  -28.8440   23.3810 C   0  0  0  0  0  0  0  0  0  0  0  0
  -18.9580  -30.0990   23.9740 C   0  0  0  0  0  3  0  0  0  0  0  0
  -17.6380  -30.5530   24.1450 C   0  0  0  0  0  3  0  0  0  0  0  0
  -16.5580  -29.7490   23.7350 C   0  0  0  0  0  3  0  0  0  0  0  0
  -16.8050  -28.4960   23.1460 C   0  0  0  0  0  3  0  0  0  0  0  0
  -25.9310  -32.6370   23.8300 C   0  0  0  0  0  3  0  0  0  0  0  0
  -25.6140  -34.0330   24.1700 N   0  0  0  0  0  0  0  0  0  0  0  0
  -25.9190  -35.0920   23.4090 C   0  0  0  0  0  0  0  0  0  0  0  0
  -26.5660  -34.9980   22.3620 O   0  0  0  0  0  0  0  0  0  0  0  0
  -25.0410  -34.1780   24.9880 H   0  0  0  0  0  0  0  0  0  0  0  0
  -24.1820  -36.8850   23.0900 C   0  0  0  0  0  1  0  0  0  0  0  0
  -25.4320  -36.4760   23.8850 C   0  0  0  0  0  3  0  0  0  0  0  0
  -27.5690  -37.3680   24.7070 C   0  0  0  0  0  1  0  0  0  0  0  0
  -26.4610  -37.5330   23.7680 N   0  0  0  0  0  0  0  0  0  0  0  0
  -26.0520  -38.4500   23.9220 H   0  0  0  0  0  0  0  0  0  0  0  0
  -26.4730  -31.8690   25.0980 C   0  0  1  0  0  0  0  0  0  0  0  0
  -25.3990  -31.6250   26.1840 C   0  0  0  0  0  1  0  0  0  0  0  0
  -27.0610  -30.4950   24.7010 C   0  0  0  0  0  1  0  0  0  0  0  0
  -27.6270  -32.6720   25.7430 C   0  0  0  0  0  1  0  0  0  0  0  0
  -30.6750  -19.0610   16.6800 N   0  0  0  0  0  0  0  0  0  0  0  0
  -30.4160  -19.8890   16.1520 H   0  0  0  0  0  0  0  0  0  0  0  0
  -30.6270  -18.2150   16.1230 H   0  0  0  0  0  0  0  0  0  0  0  0
  1  4  1  0
  3  6  2  0
  4 50  1  0
  4  2  2  0
  5  1  2  0
  5  3  1  0
  6  2  1  0
  6 16  1  0
  7  3  1  0
  8 14  1  0
  8 16  1  0
  9 14  1  0
 10 11  1  0
 10  9  1  0
 12 11  1  0
 12 21  1  0
 12 13  1  0
 14 13  1  0
 15  8  2  0
 16 17  1  0
 18 19  2  0
 19 20  1  0
 19 38  1  0
 20 23  1  0
 21 18  1  0
 21 22  1  0
 22 20  2  0
 23 24  1  0
 24 25  2  0
 26 29  1  0
 26 25  1  0
 27 26  2  0
 28 27  1  0
 28 23  2  0
 29 30  1  0
 30 35  2  0
 30 31  1  0
 31 32  2  0
 32 33  1  0
 33 37  1  0
 34 33  2  0
 35 34  1  0
 36 35  1  0
 38 39  1  0
 39 42  1  0
 39 41  1  0
 40 38  2  0
 43 44  1  0
 43 18  1  0
 45 43  1  0
 46 48  2  0
 46 47  1  0
 47 51  2  0
 49 50  1  0
 49 46  1  0
 50 47  1  0
 52 48  1  0
 53 64  2  0
 54 52  1  0
 54 59  1  0
 55 63  1  0
 55 65  1  0
 56 62  1  0
 56 58  1  0
 57 63  1  0
 58 57  1  0
 59 58  2  0
 60 61  1  0
 60 54  2  0
 61 56  2  0
 62 55  1  0
 63 53  1  0
 65 67  2  0
 66 65  1  0
 68 66  1  0
 69 78  2  0
 69 74  1  0
 70 66  1  0
 70 74  1  0
 71 70  1  0
 72 73  1  0
 72 71  1  0
 73 69  1  0
 74 75  2  0
 75 76  1  0
 77 76  2  0
 78 77  1  0
 79 53  1  0
 79 80  1  0
 79 89  1  0
 80 83  1  0
 81 85  1  0
 81 80  1  0
 82 81  2  0
 85 84  1  0
 87 85  1  0
 87 88  1  0
 87 86  1  0
 89 92  1  1
 89 90  1  0
 91 89  1  0
 93  5  1  0
 94 93  1  0
 95 93  1  0
M  ISO  4   8 100  16 100  48 101  52 101
M  END
>  <TORSDO>  (93) 
F 18

>  <SCORE>  (93) 
-14.058

>  <name>  (93) 
92

>  <ligand_id>  (93) 
92

>  <original_smiles>  (93) 
[H]C(Oc1c([H])c([H])c2c(c1[H])C([H])([H])N(C(=O)C([H])(N([H])C(=O)C([H])(N([H])C([H])([H])[H])C([H])([H])[H])C(C([H])([H])[H])(C([H])([H])[H])C([H])([H])[H])C([H])(C(=O)N([H])C1([H])c3c([H])c([H])c([H])c([H])c3C([H])([H])C([H])([H])C1([H])[H])C2([H])[H])=C1C(=O)N(c2c([H])c(N([H])[H])c(C([H])([H])[H])c(N([H])C(=O)N3C([H])([H])C([H])([H])C([H])([H])C([H])(n4nc(-c5c([H])c([H])c(Oc6c([H])c([H])c(F)c([H])c6F)c([H])c5[H])c(C(=O)N([H])[H])c4N([H])[H])C3([H])[H])c2[H])C1([H])[H]

>  <smiles>  (93) 
[H]C(Oc1c([H])c([H])c2c(c1[H])C([H])([H])N(C(=O)C([H])(N([H])C(=O)C([H])(N([H])C([H])([H])[H])C([H])([H])[H])C(C([H])([H])[H])(C([H])([H])[H])C([H])([H])[H])C([H])(C(=O)N([H])C1([H])c3c([H])c([H])c([H])c([H])c3C([H])([H])C([H])([H])C1([H])[H])C2([H])[H])=C1C(=O)N(c2c([H])c(N([H])[H])c(C([H])([H])[H])c(N([H])C(=O)N3C([H])([H])C([H])([H])C([H])([H])C([H])(n4nc(-c5c([H])c([H])c(Oc6c([H])c([H])c(F)c([H])c6F)c([H])c5[H])c(C(=O)N([H])[H])c4N([H])[H])C3([H])[H])c2[H])C1([H])[H]

$$$$
93:0:0
     RDKit          3D

 92101  0  0  1  0  0  0  0  0999 V2000
  -29.4500  -24.0890   20.5790 C   0  0  0  0  0  0  0  0  0  0  0  0
  -29.4410  -22.7230   19.8770 C   0  0  0  0  0  0  0  0  0  0  0  0
  -28.9590  -25.4200   20.4140 C   0  0  0  0  0  3  0  0  0  0  0  0
  -30.2670  -23.8290   21.8160 C   0  0  0  0  0  2  0  0  0  0  0  0
  -31.0490  -22.5460   21.5270 C   0  0  0  0  0  2  0  0  0  0  0  0
  -30.2950  -21.7870   20.5250 N   0  0  0  0  0  0  0  0  0  0  0  0
  -28.7610  -22.4350   18.8880 O   0  0  0  0  0  0  0  0  0  0  0  0
  -30.6210  -19.1250   19.7000 C   0  0  0  0  0  3  0  0  0  0  0  0
  -30.3690  -20.2530   20.6750 C   0  0  0  0  0  0  0  0  0  0  0  0
  -30.4300  -19.7240   21.9530 C   0  0  0  0  0  0  0  0  0  0  0  0
  -30.8800  -17.8110   20.2380 C   0  0  0  0  0  0  0  0  0  0  0  0
  -30.2680  -20.3990   23.2840 C   0  0  0  0  0  1  0  0  0  0  0  0
  -30.7940  -17.9980   21.9730 S   0  0  0  0  0  0  0  0  0  0  0  0
  -31.7360  -15.3090   19.8670 C   0  0  0  0  0  0  0  0  0  0  0  0
  -31.5120  -12.9600   18.9370 C   0  0  0  0  0  2  0  0  0  0  0  0
  -30.5200  -12.9440   17.7500 C   0  0  0  0  0  2  0  0  0  0  0  0
  -29.0640  -12.8160   18.2460 C   0  0  0  0  0  2  0  0  0  0  0  0
  -28.7490  -13.7750   19.4230 C   0  0  0  0  0  3  0  0  0  0  0  0
  -29.8480  -13.7260   20.5040 C   0  0  0  0  0  2  0  0  0  0  0  0
  -31.1100  -14.0720   19.8380 N   0  0  0  0  0  0  0  0  0  0  0  0
  -32.9500  -15.3580   19.6320 O   0  0  0  0  0  0  0  0  0  0  0  0
  -30.9150  -16.4570   19.7630 N   0  0  0  0  0  0  0  0  0  0  0  0
  -29.9750  -16.1110   19.6510 H   0  0  0  0  0  0  0  0  0  0  0  0
  -26.4550  -14.4890   20.3060 C   0  0  0  0  0  0  0  0  0  0  0  0
  -25.3570  -13.7740   20.6980 C   0  0  0  0  0  0  0  0  0  0  0  0
  -25.7250  -12.3980   20.5940 C   0  0  0  0  0  0  0  0  0  0  0  0
  -27.4200  -13.5540   19.9790 N   0  0  0  0  0  0  0  0  0  0  0  0
  -26.9940  -12.2870   20.2190 N   0  0  0  0  0  0  0  0  0  0  0  0
  -24.9240  -11.1790   20.7750 C   0  0  0  0  0  0  0  0  0  0  0  0
  -25.2410  -10.2240   21.7650 C   0  0  0  0  0  3  0  0  0  0  0  0
  -24.4430   -9.0710   21.9290 C   0  0  0  0  0  3  0  0  0  0  0  0
  -23.3130   -8.8670   21.1020 C   0  0  0  0  0  0  0  0  0  0  0  0
  -23.0140   -9.8100   20.1030 C   0  0  0  0  0  3  0  0  0  0  0  0
  -23.8120  -10.9540   19.9370 C   0  0  0  0  0  3  0  0  0  0  0  0
  -22.4950   -7.7650   21.1740 O   0  0  0  0  0  0  0  0  0  0  0  0
  -22.1960   -7.1680   22.3730 C   0  0  0  0  0  0  0  0  0  0  0  0
  -21.6050   -7.8850   23.4350 C   0  0  0  0  0  3  0  0  0  0  0  0
  -21.2480   -7.2160   24.6230 C   0  0  0  0  0  3  0  0  0  0  0  0
  -21.4770   -5.8330   24.7490 C   0  0  0  0  0  0  0  0  0  0  0  0
  -22.0620   -5.1160   23.6900 C   0  0  0  0  0  3  0  0  0  0  0  0
  -22.4180   -5.7820   22.5040 C   0  0  0  0  0  0  0  0  0  0  0  0
  -22.9620   -5.0840   21.4790 F   0  0  0  0  0  0  0  0  0  0  0  0
  -21.1280   -5.1890   25.8870 F   0  0  0  0  0  0  0  0  0  0  0  0
  -24.0090  -14.3330   21.0520 C   0  0  0  0  0  0  0  0  0  0  0  0
  -23.2940  -13.6810   21.9640 N   0  0  0  0  0  0  0  0  0  0  0  0
  -23.6020  -15.3810   20.5540 O   0  0  0  0  0  0  0  0  0  0  0  0
  -23.6370  -12.8320   22.3880 H   0  0  0  0  0  0  0  0  0  0  0  0
  -22.3890  -14.0350   22.2400 H   0  0  0  0  0  0  0  0  0  0  0  0
  -26.7010  -15.8530   20.1740 N   0  0  0  0  0  0  0  0  0  0  0  0
  -25.9980  -16.5480   20.3940 H   0  0  0  0  0  0  0  0  0  0  0  0
  -27.5470  -16.2560   19.7920 H   0  0  0  0  0  0  0  0  0  0  0  0
  -28.3790  -26.2810   19.4140 O   0  0  0  0  0  0  0  0  0  0  0  0
  -24.5770  -31.5530   23.0120 C   0  0  0  0  0  0  0  0  0  0  0  0
  -27.2940  -27.1880   19.6350 C   0  0  0  0  0  0  0  0  0  0  0  0
  -23.3920  -30.1710   21.3540 C   0  0  0  0  0  3  0  0  0  0  0  0
  -24.8690  -28.7670   19.7940 C   0  0  0  0  0  0  0  0  0  0  0  0
  -25.9130  -30.6120   21.0930 C   0  0  0  0  0  2  0  0  0  0  0  0
  -26.0460  -29.2580   20.3770 C   0  0  0  0  0  0  0  0  0  0  0  0
  -27.2640  -28.4860   20.2840 C   0  0  0  0  0  3  0  0  0  0  0  0
  -26.0860  -26.7890   19.0330 C   0  0  0  0  0  3  0  0  0  0  0  0
  -24.8990  -27.5440   19.1080 C   0  0  0  0  0  3  0  0  0  0  0  0
  -23.5930  -29.5800   19.9330 C   0  0  0  0  0  2  0  0  0  0  0  0
  -24.6500  -30.7950   21.8740 N   0  0  0  0  0  0  0  0  0  0  0  0
  -23.5000  -31.7400   23.5970 O   0  0  0  0  0  0  0  0  0  0  0  0
  -22.8190  -29.0750   22.2860 C   0  0  0  0  0  0  0  0  0  0  0  0
  -21.5250  -28.7450   22.1250 N   0  0  0  0  0  0  0  0  0  0  0  0
  -23.5460  -28.5180   23.1150 O   0  0  0  0  0  0  0  0  0  0  0  0
  -20.9930  -29.2480   21.4290 H   0  0  0  0  0  0  0  0  0  0  0  0
  -18.3520  -27.0240   22.4180 C   0  0  0  0  0  0  0  0  0  0  0  0
  -20.8060  -27.7090   22.8680 C   0  0  0  0  0  3  0  0  0  0  0  0
  -21.1840  -26.2990   22.3580 C   0  0  0  0  0  2  0  0  0  0  0  0
  -20.2340  -25.7740   21.2760 C   0  0  0  0  0  2  0  0  0  0  0  0
  -18.8000  -25.7070   21.8070 C   0  0  0  0  0  2  0  0  0  0  0  0
  -19.2950  -27.9690   22.9030 C   0  0  0  0  0  0  0  0  0  0  0  0
  -18.8260  -29.1890   23.4360 C   0  0  0  0  0  3  0  0  0  0  0  0
  -17.4490  -29.4730   23.4820 C   0  0  0  0  0  3  0  0  0  0  0  0
  -16.5210  -28.5280   23.0130 C   0  0  0  0  0  3  0  0  0  0  0  0
  -16.9710  -27.3040   22.4880 C   0  0  0  0  0  3  0  0  0  0  0  0
  -25.8430  -32.2330   23.6180 C   0  0  0  0  0  3  0  0  0  0  0  0
  -25.4650  -33.5950   24.0220 N   0  0  0  0  0  0  0  0  0  0  0  0
  -25.7470  -34.7040   23.3270 C   0  0  0  0  0  0  0  0  0  0  0  0
  -26.4160  -34.6890   22.2900 O   0  0  0  0  0  0  0  0  0  0  0  0
  -24.8590  -33.6760   24.8270 H   0  0  0  0  0  0  0  0  0  0  0  0
  -23.9450  -36.4410   23.0670 C   0  0  0  0  0  1  0  0  0  0  0  0
  -25.2010  -36.0440   23.8620 C   0  0  0  0  0  3  0  0  0  0  0  0
  -27.2930  -36.9600   24.7620 C   0  0  0  0  0  1  0  0  0  0  0  0
  -26.1890  -37.1440   23.8220 N   0  0  0  0  0  0  0  0  0  0  0  0
  -25.7450  -38.0350   24.0260 H   0  0  0  0  0  0  0  0  0  0  0  0
  -26.4440  -31.4400   24.8440 C   0  0  1  0  0  0  0  0  0  0  0  0
  -25.4000  -31.1010   25.9350 C   0  0  0  0  0  1  0  0  0  0  0  0
  -27.0850  -30.1140   24.3800 C   0  0  0  0  0  1  0  0  0  0  0  0
  -27.5730  -32.2660   25.5020 C   0  0  0  0  0  1  0  0  0  0  0  0
  1  4  1  0
  2  6  1  0
  2  1  1  0
  3  1  2  0
  5  4  1  0
  6  9  1  0
  6  5  1  0
  7  2  2  0
  8 11  2  0
  8  9  1  0
  9 10  2  0
 10 13  1  0
 10 12  1  0
 11 13  1  0
 15 20  1  0
 16 17  1  0
 16 15  1  0
 18 17  1  0
 18 27  1  0
 18 19  1  0
 20 14  1  0
 20 19  1  0
 21 14  2  0
 22 14  1  0
 22 11  1  0
 23 22  1  0
 24 25  2  0
 25 44  1  0
 26 25  1  0
 26 29  1  0
 27 28  1  0
 27 24  1  0
 28 26  2  0
 29 30  1  0
 30 31  2  0
 32 35  1  0
 32 31  1  0
 33 32  2  0
 34 33  1  0
 34 29  2  0
 35 36  1  0
 36 41  2  0
 36 37  1  0
 37 38  2  0
 38 39  1  0
 39 43  1  0
 40 39  2  0
 41 40  1  0
 42 41  1  0
 44 45  1  0
 45 48  1  0
 45 47  1  0
 46 44  2  0
 49 24  1  0
 49 50  1  0
 51 49  1  0
 52 54  1  0
 52  3  1  0
 53 64  2  0
 54 59  1  0
 55 63  1  0
 55 65  1  0
 56 62  1  0
 56 58  1  0
 57 63  1  0
 58 57  1  0
 59 58  2  0
 60 61  1  0
 60 54  2  0
 61 56  2  0
 62 55  1  0
 63 53  1  0
 65 67  2  0
 66 65  1  0
 68 66  1  0
 69 78  2  0
 69 74  1  0
 70 66  1  0
 70 74  1  0
 71 70  1  0
 72 73  1  0
 72 71  1  0
 73 69  1  0
 74 75  2  0
 75 76  1  0
 77 76  2  0
 78 77  1  0
 79 53  1  0
 79 80  1  0
 79 89  1  0
 80 83  1  0
 81 85  1  0
 81 80  1  0
 82 81  2  0
 85 84  1  0
 87 85  1  0
 87 88  1  0
 87 86  1  0
 89 92  1  1
 89 90  1  0
 91 89  1  0
M  ISO  4   3 101  14 100  22 100  52 101
M  END
>  <TORSDO>  (94) 
F 17

>  <SCORE>  (94) 
-11.943

>  <name>  (94) 
93

>  <ligand_id>  (94) 
93

>  <original_smiles>  (94) 
[H]C(Oc1c([H])c([H])c2c(c1[H])C([H])([H])N(C(=O)C([H])(N([H])C(=O)C([H])(N([H])C([H])([H])[H])C([H])([H])[H])C(C([H])([H])[H])(C([H])([H])[H])C([H])([H])[H])C([H])(C(=O)N([H])C1([H])c3c([H])c([H])c([H])c([H])c3C([H])([H])C([H])([H])C1([H])[H])C2([H])[H])=C1C(=O)N(c2c(C([H])([H])[H])sc(N([H])C(=O)N3C([H])([H])C([H])([H])C([H])([H])C([H])(n4nc(-c5c([H])c([H])c(Oc6c([H])c([H])c(F)c([H])c6F)c([H])c5[H])c(C(=O)N([H])[H])c4N([H])[H])C3([H])[H])c2[H])C([H])([H])C1([H])[H]

>  <smiles>  (94) 
[H]C(Oc1c([H])c([H])c2c(c1[H])C([H])([H])N(C(=O)C([H])(N([H])C(=O)C([H])(N([H])C([H])([H])[H])C([H])([H])[H])C(C([H])([H])[H])(C([H])([H])[H])C([H])([H])[H])C([H])(C(=O)N([H])C1([H])c3c([H])c([H])c([H])c([H])c3C([H])([H])C([H])([H])C1([H])[H])C2([H])[H])=C1C(=O)N(c2c(C([H])([H])[H])sc(N([H])C(=O)N3C([H])([H])C([H])([H])C([H])([H])C([H])(n4nc(-c5c([H])c([H])c(Oc6c([H])c([H])c(F)c([H])c6F)c([H])c5[H])c(C(=O)N([H])[H])c4N([H])[H])C3([H])[H])c2[H])C([H])([H])C1([H])[H]

$$$$
94:0:0
     RDKit          3D

 95104  0  0  1  0  0  0  0  0999 V2000
  -29.2440  -19.4240   19.1610 C   0  0  0  0  0  3  0  0  0  0  0  0
  -29.5150  -18.0010   19.1950 C   0  0  0  0  0  3  0  0  0  0  0  0
  -30.9940  -18.3790   20.9980 C   0  0  0  0  0  3  0  0  0  0  0  0
  -29.7660  -20.4020   20.0780 C   0  0  0  0  0  0  0  0  0  0  0  0
  -30.3760  -17.3970   20.1600 C   0  0  0  0  0  0  0  0  0  0  0  0
  -30.6950  -19.7840   20.9760 C   0  0  0  0  0  0  0  0  0  0  0  0
  -31.0080  -14.8950   19.5780 C   0  0  0  0  0  0  0  0  0  0  0  0
  -30.6460  -12.6620   18.4580 C   0  0  0  0  0  2  0  0  0  0  0  0
  -29.5290  -12.7520   17.3920 C   0  0  0  0  0  2  0  0  0  0  0  0
  -28.1390  -12.5420   18.0250 C   0  0  0  0  0  2  0  0  0  0  0  0
  -27.9530  -13.3820   19.3130 C   0  0  0  0  0  3  0  0  0  0  0  0
  -29.1600  -13.2260   20.2550 C   0  0  0  0  0  2  0  0  0  0  0  0
  -30.3650  -13.6620   19.5230 N   0  0  0  0  0  0  0  0  0  0  0  0
  -32.0080  -15.0750   18.8730 O   0  0  0  0  0  0  0  0  0  0  0  0
  -30.5400  -15.9130   20.4250 N   0  0  0  0  0  0  0  0  0  0  0  0
  -25.7490  -13.9500   20.4990 C   0  0  0  0  0  0  0  0  0  0  0  0
  -24.7290  -13.1660   20.9650 C   0  0  0  0  0  0  0  0  0  0  0  0
  -25.1220  -11.8160   20.7160 C   0  0  0  0  0  0  0  0  0  0  0  0
  -26.6970  -13.0770   19.9930 N   0  0  0  0  0  0  0  0  0  0  0  0
  -26.3370  -11.7800   20.1820 N   0  0  0  0  0  0  0  0  0  0  0  0
  -24.3860  -10.5580   20.8990 C   0  0  0  0  0  0  0  0  0  0  0  0
  -24.8270   -9.5660   21.8020 C   0  0  0  0  0  3  0  0  0  0  0  0
  -24.0920   -8.3740   21.9730 C   0  0  0  0  0  3  0  0  0  0  0  0
  -22.8990   -8.1650   21.2390 C   0  0  0  0  0  0  0  0  0  0  0  0
  -22.4750   -9.1460   20.3260 C   0  0  0  0  0  3  0  0  0  0  0  0
  -23.2120  -10.3300   20.1530 C   0  0  0  0  0  3  0  0  0  0  0  0
  -22.1340   -7.0270   21.3210 O   0  0  0  0  0  0  0  0  0  0  0  0
  -21.9320   -6.3780   22.5130 C   0  0  0  0  0  0  0  0  0  0  0  0
  -21.3390   -7.0230   23.6210 C   0  0  0  0  0  3  0  0  0  0  0  0
  -21.0860   -6.3000   24.8030 C   0  0  0  0  0  3  0  0  0  0  0  0
  -21.4170   -4.9330   24.8780 C   0  0  0  0  0  0  0  0  0  0  0  0
  -22.0030   -4.2890   23.7750 C   0  0  0  0  0  3  0  0  0  0  0  0
  -22.2570   -5.0090   22.5940 C   0  0  0  0  0  0  0  0  0  0  0  0
  -22.8020   -4.3790   21.5260 F   0  0  0  0  0  0  0  0  0  0  0  0
  -21.1680   -4.2360   26.0110 F   0  0  0  0  0  0  0  0  0  0  0  0
  -23.4210  -13.6450   21.5250 C   0  0  0  0  0  0  0  0  0  0  0  0
  -22.8390  -12.8940   22.4530 N   0  0  0  0  0  0  0  0  0  0  0  0
  -22.9300  -14.7170   21.1730 O   0  0  0  0  0  0  0  0  0  0  0  0
  -23.2510  -12.0240   22.7570 H   0  0  0  0  0  0  0  0  0  0  0  0
  -21.9680  -13.1950   22.8690 H   0  0  0  0  0  0  0  0  0  0  0  0
  -25.9420  -15.3270   20.4450 N   0  0  0  0  0  0  0  0  0  0  0  0
  -25.2430  -15.9850   20.7700 H   0  0  0  0  0  0  0  0  0  0  0  0
  -26.7630  -15.7770   20.0630 H   0  0  0  0  0  0  0  0  0  0  0  0
  -29.8750  -16.1820   22.7740 C   0  0  0  0  0  2  0  0  0  0  0  0
  -30.5430  -15.5510   21.7900 C   0  0  0  0  0  3  0  0  0  0  0  0
  -29.0680  -23.8980   20.3700 C   0  0  0  0  0  0  0  0  0  0  0  0
  -28.9460  -22.7170   21.2230 C   0  0  0  0  0  0  0  0  0  0  0  0
  -28.7450  -25.2230   20.6920 C   0  0  0  0  0  3  0  0  0  0  0  0
  -29.6420  -22.9690   19.2550 C   0  0  0  0  0  2  0  0  0  0  0  0
  -29.3380  -21.8380   20.1880 N   0  0  0  0  0  0  0  0  0  0  0  0
  -28.6840  -22.6190   22.4040 O   0  0  0  0  0  0  0  0  0  0  0  0
  -28.8560  -26.4860   20.0350 O   0  0  0  0  0  0  0  0  0  0  0  0
  -24.6600  -31.6160   23.1060 C   0  0  0  0  0  0  0  0  0  0  0  0
  -27.7140  -27.3230   20.0200 C   0  0  0  0  0  0  0  0  0  0  0  0
  -23.6180  -30.1620   21.4060 C   0  0  0  0  0  3  0  0  0  0  0  0
  -25.2300  -28.7680   19.9810 C   0  0  0  0  0  0  0  0  0  0  0  0
  -26.1300  -30.6850   21.2970 C   0  0  0  0  0  2  0  0  0  0  0  0
  -26.3440  -29.3290   20.6210 C   0  0  0  0  0  0  0  0  0  0  0  0
  -27.5920  -28.6200   20.6290 C   0  0  0  0  0  3  0  0  0  0  0  0
  -26.5730  -26.8300   19.3560 C   0  0  0  0  0  3  0  0  0  0  0  0
  -25.3490  -27.5260   19.3380 C   0  0  0  0  0  3  0  0  0  0  0  0
  -23.9240  -29.5400   20.0180 C   0  0  0  0  0  2  0  0  0  0  0  0
  -24.8190  -30.8400   21.9930 N   0  0  0  0  0  0  0  0  0  0  0  0
  -23.5430  -31.7900   23.6180 O   0  0  0  0  0  0  0  0  0  0  0  0
  -23.0180  -29.0730   22.3270 C   0  0  0  0  0  0  0  0  0  0  0  0
  -21.7160  -28.7820   22.1590 N   0  0  0  0  0  0  0  0  0  0  0  0
  -23.7250  -28.4910   23.1550 O   0  0  0  0  0  0  0  0  0  0  0  0
  -21.1990  -29.3080   21.4680 H   0  0  0  0  0  0  0  0  0  0  0  0
  -18.4490  -27.2700   22.5320 C   0  0  0  0  0  0  0  0  0  0  0  0
  -20.9630  -27.7590   22.8880 C   0  0  0  0  0  3  0  0  0  0  0  0
  -21.2140  -26.3540   22.2950 C   0  0  0  0  0  2  0  0  0  0  0  0
  -20.1790  -25.9500   21.2400 C   0  0  0  0  0  2  0  0  0  0  0  0
  -18.7700  -25.9560   21.8420 C   0  0  0  0  0  2  0  0  0  0  0  0
  -19.4780  -28.1240   23.0100 C   0  0  0  0  0  0  0  0  0  0  0  0
  -19.1250  -29.3490   23.6150 C   0  0  0  0  0  3  0  0  0  0  0  0
  -17.7750  -29.7250   23.7470 C   0  0  0  0  0  3  0  0  0  0  0  0
  -16.7590  -28.8700   23.2850 C   0  0  0  0  0  3  0  0  0  0  0  0
  -17.0970  -27.6430   22.6840 C   0  0  0  0  0  3  0  0  0  0  0  0
  -25.8680  -32.3410   23.7730 C   0  0  0  0  0  3  0  0  0  0  0  0
  -26.4070  -31.5960   25.0560 C   0  0  1  0  0  0  0  0  0  0  0  0
  -25.3060  -31.2570   26.0880 C   0  0  0  0  0  1  0  0  0  0  0  0
  -27.1100  -30.2750   24.6670 C   0  0  0  0  0  1  0  0  0  0  0  0
  -27.4700  -32.4700   25.7620 C   0  0  0  0  0  1  0  0  0  0  0  0
  -25.4360  -33.7060   24.1140 N   0  0  0  0  0  0  0  0  0  0  0  0
  -25.6830  -34.7910   23.3700 C   0  0  0  0  0  0  0  0  0  0  0  0
  -26.3650  -34.7570   22.3420 O   0  0  0  0  0  0  0  0  0  0  0  0
  -24.8240  -33.7990   24.9110 H   0  0  0  0  0  0  0  0  0  0  0  0
  -23.8040  -36.4320   23.0320 C   0  0  0  0  0  1  0  0  0  0  0  0
  -25.0770  -36.1290   23.8390 C   0  0  0  0  0  3  0  0  0  0  0  0
  -27.1250  -37.1930   24.6790 C   0  0  0  0  0  1  0  0  0  0  0  0
  -26.0140  -37.2690   23.7340 N   0  0  0  0  0  0  0  0  0  0  0  0
  -25.5280  -38.1490   23.8850 H   0  0  0  0  0  0  0  0  0  0  0  0
  -31.3380  -20.5870   21.9200 N   0  0  0  0  0  0  0  0  0  0  0  0
  -31.7400  -20.1240   22.7290 H   0  0  0  0  0  0  0  0  0  0  0  0
  -30.8590  -21.4440   22.1730 H   0  0  0  0  0  0  0  0  0  0  0  0
  1  2  2  0
  1  4  1  0
  2  5  1  0
  4 50  1  0
  4  6  2  0
  5 15  1  0
  5  3  2  0
  6  3  1  0
  6 93  1  0
  7 15  1  0
  8 13  1  0
  9 10  1  0
  9  8  1  0
 11 10  1  0
 11 19  1  0
 11 12  1  0
 13  7  1  0
 13 12  1  0
 14  7  2  0
 15 45  1  0
 16 17  2  0
 17 36  1  0
 18 21  1  0
 18 17  1  0
 19 20  1  0
 19 16  1  0
 20 18  2  0
 21 22  1  0
 22 23  2  0
 24 27  1  0
 24 23  1  0
 25 24  2  0
 26 25  1  0
 26 21  2  0
 27 28  1  0
 28 33  2  0
 28 29  1  0
 29 30  2  0
 30 31  1  0
 31 35  1  0
 32 31  2  0
 33 32  1  0
 34 33  1  0
 36 37  1  0
 37 39  1  0
 37 40  1  0
 38 36  2  0
 41 16  1  0
 41 42  1  0
 43 41  1  0
 45 44  2  0
 46 48  2  0
 46 47  1  0
 47 51  2  0
 49 50  1  0
 49 46  1  0
 50 47  1  0
 52 48  1  0
 53 64  2  0
 54 52  1  0
 54 59  1  0
 55 63  1  0
 55 65  1  0
 56 62  1  0
 56 58  1  0
 57 63  1  0
 58 59  2  0
 58 57  1  0
 60 54  2  0
 61 60  1  0
 61 56  2  0
 62 55  1  0
 63 53  1  0
 65 67  2  0
 66 65  1  0
 68 66  1  0
 69 78  2  0
 69 74  1  0
 70 66  1  0
 70 74  1  0
 71 70  1  0
 72 73  1  0
 72 71  1  0
 73 69  1  0
 74 75  2  0
 75 76  1  0
 77 76  2  0
 78 77  1  0
 79 53  1  0
 79 84  1  0
 79 80  1  0
 80 83  1  1
 80 81  1  0
 82 80  1  0
 84 87  1  0
 85 89  1  0
 85 84  1  0
 86 85  2  0
 89 88  1  0
 91 89  1  0
 91 92  1  0
 91 90  1  0
 93 95  1  0
 93 94  1  0
M  ISO  4   7 100  15 100  48 101  52 101
M  END
>  <TORSDO>  (95) 
F 19

>  <SCORE>  (95) 
-11.014

>  <name>  (95) 
94

>  <ligand_id>  (95) 
94

>  <original_smiles>  (95) 
[H]C([H])=C([H])N(C(=O)N1C([H])([H])C([H])([H])C([H])([H])C([H])(n2nc(-c3c([H])c([H])c(Oc4c([H])c([H])c(F)c([H])c4F)c([H])c3[H])c(C(=O)N([H])[H])c2N([H])[H])C1([H])[H])c1c([H])c([H])c(N2C(=O)C(=C([H])Oc3c([H])c([H])c4c(c3[H])C([H])([H])N(C(=O)C([H])(N([H])C(=O)C([H])(N([H])C([H])([H])[H])C([H])([H])[H])C(C([H])([H])[H])(C([H])([H])[H])C([H])([H])[H])C([H])(C(=O)N([H])C3([H])c5c([H])c([H])c([H])c([H])c5C([H])([H])C([H])([H])C3([H])[H])C4([H])[H])C2([H])[H])c(N([H])[H])c1[H]

>  <smiles>  (95) 
[H]C([H])=C([H])N(C(=O)N1C([H])([H])C([H])([H])C([H])([H])C([H])(n2nc(-c3c([H])c([H])c(Oc4c([H])c([H])c(F)c([H])c4F)c([H])c3[H])c(C(=O)N([H])[H])c2N([H])[H])C1([H])[H])c1c([H])c([H])c(N2C(=O)C(=C([H])Oc3c([H])c([H])c4c(c3[H])C([H])([H])N(C(=O)C([H])(N([H])C(=O)C([H])(N([H])C([H])([H])[H])C([H])([H])[H])C(C([H])([H])[H])(C([H])([H])[H])C([H])([H])[H])C([H])(C(=O)N([H])C3([H])c5c([H])c([H])c([H])c([H])c5C([H])([H])C([H])([H])C3([H])[H])C4([H])[H])C2([H])[H])c(N([H])[H])c1[H]

$$$$
