0:0:0
     RDKit          3D

 94103  0  0  1  0  0  0  0  0999 V2000
  -30.2880  -23.8180   20.5460 C   0  0  0  0  0  0  0  0  0  0  0  0
  -29.0130  -23.8360   20.1420 C   0  0  0  0  0  0  0  0  0  0  0  0
  -30.7310  -22.4330   20.6680 C   0  0  0  0  0  0  0  0  0  0  0  0
  -28.6280  -22.4180   20.0000 C   0  0  0  0  0  0  0  0  0  0  0  0
  -31.2100  -24.9920   20.8270 C   0  0  0  0  0  1  0  0  0  0  0  0
  -29.6980  -21.6270   20.3200 N   0  0  0  0  0  0  0  0  0  0  0  0
  -31.8500  -22.0550   21.0380 O   0  0  0  0  0  0  0  0  0  0  0  0
  -27.5230  -21.9980   19.6360 O   0  0  0  0  0  0  0  0  0  0  0  0
  -30.8830  -19.3920   19.8780 C   0  0  0  0  0  3  0  0  0  0  0  0
  -28.6800  -19.3450   20.8230 C   0  0  0  0  0  3  0  0  0  0  0  0
  -30.9480  -17.9620   19.9250 C   0  0  0  0  0  3  0  0  0  0  0  0
  -28.7440  -17.9200   20.8730 C   0  0  0  0  0  3  0  0  0  0  0  0
  -29.7500  -20.1410   20.3300 C   0  0  0  0  0  0  0  0  0  0  0  0
  -29.8740  -17.1800   20.4300 C   0  0  0  0  0  0  0  0  0  0  0  0
  -30.6030  -14.6960   20.0360 C   0  0  0  0  0  0  0  0  0  0  0  0
  -30.3360  -12.4840   18.9230 C   0  0  0  0  0  2  0  0  0  0  0  0
  -29.3140  -12.6440   17.7730 C   0  0  0  0  0  2  0  0  0  0  0  0
  -27.8710  -12.4700   18.2880 C   0  0  0  0  0  2  0  0  0  0  0  0
  -27.5930  -13.2980   19.5710 C   0  0  0  0  0  3  0  0  0  0  0  0
  -28.7180  -13.1040   20.6120 C   0  0  0  0  0  2  0  0  0  0  0  0
  -29.9910  -13.4680   19.9670 N   0  0  0  0  0  0  0  0  0  0  0  0
  -31.7290  -14.8770   19.5620 O   0  0  0  0  0  0  0  0  0  0  0  0
  -29.8230  -15.7160   20.5170 N   0  0  0  0  0  0  0  0  0  0  0  0
  -28.9680  -15.3630   20.9200 H   0  0  0  0  0  0  0  0  0  0  0  0
  -25.2530  -13.8860   20.4550 C   0  0  0  0  0  0  0  0  0  0  0  0
  -24.2060  -13.1070   20.8680 C   0  0  0  0  0  0  0  0  0  0  0  0
  -24.6580  -11.7550   20.7690 C   0  0  0  0  0  0  0  0  0  0  0  0
  -26.2740  -13.0090   20.1300 N   0  0  0  0  0  0  0  0  0  0  0  0
  -25.9260  -11.7200   20.3780 N   0  0  0  0  0  0  0  0  0  0  0  0
  -23.9390  -10.4900   20.9670 C   0  0  0  0  0  0  0  0  0  0  0  0
  -24.3970   -9.5150   21.8800 C   0  0  0  0  0  3  0  0  0  0  0  0
  -23.6790   -8.3150   22.0680 C   0  0  0  0  0  3  0  0  0  0  0  0
  -22.4870   -8.0810   21.3410 C   0  0  0  0  0  0  0  0  0  0  0  0
  -22.0470   -9.0450   20.4170 C   0  0  0  0  0  3  0  0  0  0  0  0
  -22.7660  -10.2370   20.2280 C   0  0  0  0  0  3  0  0  0  0  0  0
  -21.7370   -6.9340   21.4380 O   0  0  0  0  0  0  0  0  0  0  0  0
  -21.6790   -6.2080   22.6010 C   0  0  0  0  0  0  0  0  0  0  0  0
  -21.2330   -6.7780   23.8140 C   0  0  0  0  0  3  0  0  0  0  0  0
  -21.1240   -5.9770   24.9690 C   0  0  0  0  0  3  0  0  0  0  0  0
  -21.4490   -4.6100   24.9120 C   0  0  0  0  0  0  0  0  0  0  0  0
  -21.8890   -4.0400   23.7040 C   0  0  0  0  0  3  0  0  0  0  0  0
  -22.0000   -4.8370   22.5500 C   0  0  0  0  0  0  0  0  0  0  0  0
  -22.4030   -4.2780   21.3840 F   0  0  0  0  0  0  0  0  0  0  0  0
  -21.3370   -3.8390   26.0190 F   0  0  0  0  0  0  0  0  0  0  0  0
  -22.8310  -13.5810   21.2410 C   0  0  0  0  0  0  0  0  0  0  0  0
  -22.1570  -12.8650   22.1350 N   0  0  0  0  0  0  0  0  0  0  0  0
  -22.3650  -14.6200   20.7760 O   0  0  0  0  0  0  0  0  0  0  0  0
  -22.5470  -12.0250   22.5330 H   0  0  0  0  0  0  0  0  0  0  0  0
  -21.2370  -13.1640   22.4250 H   0  0  0  0  0  0  0  0  0  0  0  0
  -25.4130  -15.2610   20.3060 N   0  0  0  0  0  0  0  0  0  0  0  0
  -24.6510  -15.9110   20.4710 H   0  0  0  0  0  0  0  0  0  0  0  0
  -26.2320  -15.7050   19.9130 H   0  0  0  0  0  0  0  0  0  0  0  0
  -28.0400  -25.0250   19.8050 C   0  0  0  0  0  2  0  0  0  0  0  0
  -28.3330  -26.4560   20.1100 O   0  0  0  0  0  0  0  0  0  0  0  0
  -24.6400  -31.8490   23.2250 C   0  0  0  0  0  0  0  0  0  0  0  0
  -27.2330  -27.3400   20.0660 C   0  0  0  0  0  0  0  0  0  0  0  0
  -23.4280  -30.4820   21.5680 C   0  0  0  0  0  3  0  0  0  0  0  0
  -24.8700  -28.9680   20.1010 C   0  0  0  0  0  0  0  0  0  0  0  0
  -25.9690  -30.8020   21.3770 C   0  0  0  0  0  2  0  0  0  0  0  0
  -26.0460  -29.4380   20.7020 C   0  0  0  0  0  0  0  0  0  0  0  0
  -27.2300  -28.6360   20.6760 C   0  0  0  0  0  3  0  0  0  0  0  0
  -26.0300  -26.9420   19.4320 C   0  0  0  0  0  3  0  0  0  0  0  0
  -24.8660  -27.7270   19.4580 C   0  0  0  0  0  3  0  0  0  0  0  0
  -23.6350  -29.8410   20.1730 C   0  0  0  0  0  2  0  0  0  0  0  0
  -24.6990  -31.0600   22.1130 N   0  0  0  0  0  0  0  0  0  0  0  0
  -23.5590  -32.1150   23.7700 O   0  0  0  0  0  0  0  0  0  0  0  0
  -22.7720  -29.4430   22.5090 C   0  0  0  0  0  0  0  0  0  0  0  0
  -21.4450  -29.2670   22.3880 N   0  0  0  0  0  0  0  0  0  0  0  0
  -23.4570  -28.8020   23.3110 O   0  0  0  0  0  0  0  0  0  0  0  0
  -20.9500  -29.8380   21.7180 H   0  0  0  0  0  0  0  0  0  0  0  0
  -18.0710  -28.0650   22.8990 C   0  0  0  0  0  0  0  0  0  0  0  0
  -20.6330  -28.3150   23.1480 C   0  0  0  0  0  3  0  0  0  0  0  0
  -20.7270  -26.8950   22.5440 C   0  0  0  0  0  2  0  0  0  0  0  0
  -19.6140  -26.5940   21.5350 C   0  0  0  0  0  2  0  0  0  0  0  0
  -18.2390  -26.7290   22.1960 C   0  0  0  0  0  2  0  0  0  0  0  0
  -19.1960  -28.8160   23.3340 C   0  0  0  0  0  0  0  0  0  0  0  0
  -18.9850  -30.0670   23.9530 C   0  0  0  0  0  3  0  0  0  0  0  0
  -17.6840  -30.5670   24.1420 C   0  0  0  0  0  3  0  0  0  0  0  0
  -16.5740  -29.8140   23.7220 C   0  0  0  0  0  3  0  0  0  0  0  0
  -16.7680  -28.5640   23.1080 C   0  0  0  0  0  3  0  0  0  0  0  0
  -25.9250  -32.4730   23.8490 C   0  0  0  0  0  3  0  0  0  0  0  0
  -25.6180  -33.8690   24.1940 N   0  0  0  0  0  0  0  0  0  0  0  0
  -25.9250  -34.9260   23.4320 C   0  0  0  0  0  0  0  0  0  0  0  0
  -26.5660  -34.8320   22.3820 O   0  0  0  0  0  0  0  0  0  0  0  0
  -25.0460  -34.0160   25.0120 H   0  0  0  0  0  0  0  0  0  0  0  0
  -24.1670  -36.7040   23.1470 C   0  0  0  0  0  1  0  0  0  0  0  0
  -25.4430  -36.3110   23.9080 C   0  0  0  0  0  3  0  0  0  0  0  0
  -27.6010  -37.2140   24.6540 C   0  0  0  0  0  1  0  0  0  0  0  0
  -26.4600  -37.3730   23.7560 N   0  0  0  0  0  0  0  0  0  0  0  0
  -26.0510  -38.2890   23.9220 H   0  0  0  0  0  0  0  0  0  0  0  0
  -26.4410  -31.6880   25.1170 C   0  0  1  0  0  0  0  0  0  0  0  0
  -25.3490  -31.4440   26.1840 C   0  0  0  0  0  1  0  0  0  0  0  0
  -27.0200  -30.3130   24.7130 C   0  0  0  0  0  1  0  0  0  0  0  0
  -27.5950  -32.4740   25.7860 C   0  0  0  0  0  1  0  0  0  0  0  0
  1  3  1  0
  1  5  1  0
  2  1  2  0
  3  7  2  0
  4  2  1  0
  4  6  1  0
  6 13  1  0
  6  3  1  0
  8  4  2  0
  9 11  2  0
  9 13  1  0
 10 12  1  0
 11 14  1  0
 13 10  2  0
 14 23  1  0
 14 12  2  0
 15 23  1  0
 16 21  1  0
 17 18  1  0
 17 16  1  0
 19 18  1  0
 19 28  1  0
 19 20  1  0
 21 15  1  0
 21 20  1  0
 22 15  2  0
 23 24  1  0
 25 26  2  0
 26 45  1  0
 27 26  1  0
 27 30  1  0
 28 29  1  0
 28 25  1  0
 29 27  2  0
 30 31  1  0
 31 32  2  0
 33 36  1  0
 33 32  1  0
 34 33  2  0
 35 34  1  0
 35 30  2  0
 36 37  1  0
 37 38  1  0
 38 39  2  0
 40 39  1  0
 40 44  1  0
 41 40  2  0
 42 37  2  0
 42 41  1  0
 43 42  1  0
 45 46  1  0
 46 49  1  0
 46 48  1  0
 47 45  2  0
 50 25  1  0
 50 51  1  0
 52 50  1  0
 53 54  1  0
 53  2  1  0
 55 66  2  0
 56 54  1  0
 56 61  1  0
 57 65  1  0
 57 67  1  0
 58 64  1  0
 58 60  1  0
 59 65  1  0
 60 59  1  0
 61 60  2  0
 62 63  1  0
 62 56  2  0
 63 58  2  0
 64 57  1  0
 65 55  1  0
 67 69  2  0
 68 67  1  0
 70 68  1  0
 71 80  2  0
 71 76  1  0
 72 68  1  0
 72 76  1  0
 73 72  1  0
 74 75  1  0
 74 73  1  0
 75 71  1  0
 76 77  2  0
 77 78  1  0
 79 78  2  0
 80 79  1  0
 81 55  1  0
 81 82  1  0
 81 91  1  0
 82 85  1  0
 83 87  1  0
 83 82  1  0
 84 83  2  0
 87 86  1  0
 89 87  1  0
 89 90  1  0
 89 88  1  0
 91 94  1  1
 91 92  1  0
 93 91  1  0
M  ISO  4  15 100  23 100  53 101  54 101
M  END
>  <TORSDO>  (1) 
F 18

>  <SCORE>  (1) 
-14.546

>  <name>  (1) 
0

>  <ligand_id>  (1) 
0

>  <original_smiles>  (1) 
[H]c1c([H])c([H])c2c(c1[H])C([H])([H])C([H])([H])C([H])([H])C2([H])N([H])C(=O)C1([H])N(C(=O)C([H])(N([H])C(=O)C([H])(N([H])C([H])([H])[H])C([H])([H])[H])C(C([H])([H])[H])(C([H])([H])[H])C([H])([H])[H])C([H])([H])c2c([H])c(OC([H])([H])C3=C(C([H])([H])[H])C(=O)N(c4c([H])c([H])c(N([H])C(=O)N5C([H])([H])C([H])([H])C([H])([H])C([H])(n6nc(-c7c([H])c([H])c(Oc8c([H])c([H])c(F)c([H])c8F)c([H])c7[H])c(C(=O)N([H])[H])c6N([H])[H])C5([H])[H])c([H])c4[H])C3=O)c([H])c([H])c2C1([H])[H]

>  <smiles>  (1) 
[H]c1c([H])c([H])c2c(c1[H])C([H])([H])C([H])([H])C([H])([H])C2([H])N([H])C(=O)C1([H])N(C(=O)C([H])(N([H])C(=O)C([H])(N([H])C([H])([H])[H])C([H])([H])[H])C(C([H])([H])[H])(C([H])([H])[H])C([H])([H])[H])C([H])([H])c2c([H])c(OC([H])([H])C3=C(C([H])([H])[H])C(=O)N(c4c([H])c([H])c(N([H])C(=O)N5C([H])([H])C([H])([H])C([H])([H])C([H])(n6nc(-c7c([H])c([H])c(Oc8c([H])c([H])c(F)c([H])c8F)c([H])c7[H])c(C(=O)N([H])[H])c6N([H])[H])C5([H])[H])c([H])c4[H])C3=O)c([H])c([H])c2C1([H])[H]

$$$$
1:0:0
     RDKit          3D

 93102  0  0  1  0  0  0  0  0999 V2000
  -30.2590  -23.8130   20.5240 C   0  0  0  0  0  3  0  0  0  0  0  0
  -28.9950  -23.8230   20.1020 C   0  0  0  0  0  0  0  0  0  0  0  0
  -30.7100  -22.4360   20.6540 C   0  0  0  0  0  0  0  0  0  0  0  0
  -28.6140  -22.4060   19.9630 C   0  0  0  0  0  0  0  0  0  0  0  0
  -29.6850  -21.6220   20.2990 N   0  0  0  0  0  0  0  0  0  0  0  0
  -31.8300  -22.0700   21.0320 O   0  0  0  0  0  0  0  0  0  0  0  0
  -27.5150  -21.9780   19.5860 O   0  0  0  0  0  0  0  0  0  0  0  0
  -30.8790  -19.3910   19.8700 C   0  0  0  0  0  3  0  0  0  0  0  0
  -28.6750  -19.3370   20.8130 C   0  0  0  0  0  3  0  0  0  0  0  0
  -30.9500  -17.9600   19.9240 C   0  0  0  0  0  3  0  0  0  0  0  0
  -28.7470  -17.9130   20.8720 C   0  0  0  0  0  3  0  0  0  0  0  0
  -29.7430  -20.1360   20.3170 C   0  0  0  0  0  0  0  0  0  0  0  0
  -29.8820  -17.1760   20.4360 C   0  0  0  0  0  0  0  0  0  0  0  0
  -30.6140  -14.6920   20.0390 C   0  0  0  0  0  0  0  0  0  0  0  0
  -30.3510  -12.4820   18.9210 C   0  0  0  0  0  2  0  0  0  0  0  0
  -29.3360  -12.6440   17.7650 C   0  0  0  0  0  2  0  0  0  0  0  0
  -27.8880  -12.4780   18.2690 C   0  0  0  0  0  2  0  0  0  0  0  0
  -27.6040  -13.3030   19.5530 C   0  0  0  0  0  3  0  0  0  0  0  0
  -28.7220  -13.1020   20.6010 C   0  0  0  0  0  2  0  0  0  0  0  0
  -30.0010  -13.4660   19.9670 N   0  0  0  0  0  0  0  0  0  0  0  0
  -31.7400  -14.8720   19.5650 O   0  0  0  0  0  0  0  0  0  0  0  0
  -29.8390  -15.7110   20.5320 N   0  0  0  0  0  0  0  0  0  0  0  0
  -28.9930  -15.3570   20.9500 H   0  0  0  0  0  0  0  0  0  0  0  0
  -25.2550  -13.8930   20.4110 C   0  0  0  0  0  0  0  0  0  0  0  0
  -24.2050  -13.1150   20.8200 C   0  0  0  0  0  0  0  0  0  0  0  0
  -24.6600  -11.7630   20.7350 C   0  0  0  0  0  0  0  0  0  0  0  0
  -26.2820  -13.0150   20.1010 N   0  0  0  0  0  0  0  0  0  0  0  0
  -25.9310  -11.7280   20.3550 N   0  0  0  0  0  0  0  0  0  0  0  0
  -23.9410  -10.4990   20.9340 C   0  0  0  0  0  0  0  0  0  0  0  0
  -24.3850   -9.5360   21.8660 C   0  0  0  0  0  3  0  0  0  0  0  0
  -23.6650   -8.3370   22.0540 C   0  0  0  0  0  3  0  0  0  0  0  0
  -22.4870   -8.0910   21.3090 C   0  0  0  0  0  0  0  0  0  0  0  0
  -22.0620   -9.0430   20.3660 C   0  0  0  0  0  3  0  0  0  0  0  0
  -22.7830  -10.2340   20.1760 C   0  0  0  0  0  3  0  0  0  0  0  0
  -21.7380   -6.9440   21.4070 O   0  0  0  0  0  0  0  0  0  0  0  0
  -21.6530   -6.2370   22.5810 C   0  0  0  0  0  0  0  0  0  0  0  0
  -21.1710   -6.8230   23.7710 C   0  0  0  0  0  3  0  0  0  0  0  0
  -21.0360   -6.0420   24.9350 C   0  0  0  0  0  3  0  0  0  0  0  0
  -21.3710   -4.6750   24.9100 C   0  0  0  0  0  0  0  0  0  0  0  0
  -21.8460   -4.0880   23.7230 C   0  0  0  0  0  3  0  0  0  0  0  0
  -21.9830   -4.8670   22.5620 C   0  0  0  0  0  0  0  0  0  0  0  0
  -22.4210   -4.2920   21.4150 F   0  0  0  0  0  0  0  0  0  0  0  0
  -21.2340   -3.9220   26.0250 F   0  0  0  0  0  0  0  0  0  0  0  0
  -22.8260  -13.5900   21.1790 C   0  0  0  0  0  0  0  0  0  0  0  0
  -22.1450  -12.8800   22.0710 N   0  0  0  0  0  0  0  0  0  0  0  0
  -22.3630  -14.6260   20.7030 O   0  0  0  0  0  0  0  0  0  0  0  0
  -22.5330  -12.0420   22.4800 H   0  0  0  0  0  0  0  0  0  0  0  0
  -21.2220  -13.1800   22.3510 H   0  0  0  0  0  0  0  0  0  0  0  0
  -25.4150  -15.2680   20.2560 N   0  0  0  0  0  0  0  0  0  0  0  0
  -24.6530  -15.9190   20.4140 H   0  0  0  0  0  0  0  0  0  0  0  0
  -26.2410  -15.7130   19.8770 H   0  0  0  0  0  0  0  0  0  0  0  0
  -28.0460  -25.0200   19.7410 C   0  0  0  0  0  2  0  0  0  0  0  0
  -28.3510  -26.4440   20.0610 O   0  0  0  0  0  0  0  0  0  0  0  0
  -24.6160  -31.8090   23.1910 C   0  0  0  0  0  0  0  0  0  0  0  0
  -27.2510  -27.3320   20.0150 C   0  0  0  0  0  0  0  0  0  0  0  0
  -23.4220  -30.4480   21.5170 C   0  0  0  0  0  3  0  0  0  0  0  0
  -24.8820  -28.9520   20.0480 C   0  0  0  0  0  0  0  0  0  0  0  0
  -25.9640  -30.7790   21.3470 C   0  0  0  0  0  2  0  0  0  0  0  0
  -26.0510  -29.4200   20.6630 C   0  0  0  0  0  0  0  0  0  0  0  0
  -27.2380  -28.6210   20.6410 C   0  0  0  0  0  3  0  0  0  0  0  0
  -26.0540  -26.9420   19.3600 C   0  0  0  0  0  3  0  0  0  0  0  0
  -24.8870  -27.7200   19.3870 C   0  0  0  0  0  3  0  0  0  0  0  0
  -23.6420  -29.8180   20.1170 C   0  0  0  0  0  2  0  0  0  0  0  0
  -24.6870  -31.0270   22.0750 N   0  0  0  0  0  0  0  0  0  0  0  0
  -23.5300  -32.0650   23.7320 O   0  0  0  0  0  0  0  0  0  0  0  0
  -22.7660  -29.3980   22.4480 C   0  0  0  0  0  0  0  0  0  0  0  0
  -21.4410  -29.2140   22.3160 N   0  0  0  0  0  0  0  0  0  0  0  0
  -23.4500  -28.7570   23.2500 O   0  0  0  0  0  0  0  0  0  0  0  0
  -20.9480  -29.7850   21.6430 H   0  0  0  0  0  0  0  0  0  0  0  0
  -18.0700  -27.9960   22.8070 C   0  0  0  0  0  0  0  0  0  0  0  0
  -20.6290  -28.2530   23.0660 C   0  0  0  0  0  3  0  0  0  0  0  0
  -20.7300  -26.8380   22.4510 C   0  0  0  0  0  2  0  0  0  0  0  0
  -19.6230  -26.5400   21.4370 C   0  0  0  0  0  2  0  0  0  0  0  0
  -18.2450  -26.6670   22.0920 C   0  0  0  0  0  2  0  0  0  0  0  0
  -19.1900  -28.7470   23.2510 C   0  0  0  0  0  0  0  0  0  0  0  0
  -18.9720  -29.9930   23.8810 C   0  0  0  0  0  3  0  0  0  0  0  0
  -17.6670  -30.4860   24.0690 C   0  0  0  0  0  3  0  0  0  0  0  0
  -16.5620  -29.7310   23.6400 C   0  0  0  0  0  3  0  0  0  0  0  0
  -16.7640  -28.4880   23.0150 C   0  0  0  0  0  3  0  0  0  0  0  0
  -25.8960  -32.4350   23.8260 C   0  0  0  0  0  3  0  0  0  0  0  0
  -25.5810  -33.8270   24.1790 N   0  0  0  0  0  0  0  0  0  0  0  0
  -25.8870  -34.8910   23.4260 C   0  0  0  0  0  0  0  0  0  0  0  0
  -26.5380  -34.8060   22.3810 O   0  0  0  0  0  0  0  0  0  0  0  0
  -25.0050  -33.9670   24.9970 H   0  0  0  0  0  0  0  0  0  0  0  0
  -24.1270  -36.6630   23.1370 C   0  0  0  0  0  1  0  0  0  0  0  0
  -25.3960  -36.2700   23.9080 C   0  0  0  0  0  3  0  0  0  0  0  0
  -27.5420  -37.1770   24.6860 C   0  0  0  0  0  1  0  0  0  0  0  0
  -26.4120  -37.3370   23.7740 N   0  0  0  0  0  0  0  0  0  0  0  0
  -25.9970  -38.2500   23.9410 H   0  0  0  0  0  0  0  0  0  0  0  0
  -26.4090  -31.6440   25.0900 C   0  0  1  0  0  0  0  0  0  0  0  0
  -25.3120  -31.3840   26.1500 C   0  0  0  0  0  1  0  0  0  0  0  0
  -26.9990  -30.2750   24.6790 C   0  0  0  0  0  1  0  0  0  0  0  0
  -27.5560  -32.4290   25.7690 C   0  0  0  0  0  1  0  0  0  0  0  0
  1  3  1  0
  2  1  2  0
  3  6  2  0
  4  2  1  0
  4  5  1  0
  5 12  1  0
  5  3  1  0
  7  4  2  0
  8 10  2  0
  8 12  1  0
  9 11  1  0
 10 13  1  0
 12  9  2  0
 13 22  1  0
 13 11  2  0
 14 22  1  0
 15 20  1  0
 16 17  1  0
 16 15  1  0
 18 17  1  0
 18 27  1  0
 18 19  1  0
 20 14  1  0
 20 19  1  0
 21 14  2  0
 22 23  1  0
 24 25  2  0
 25 44  1  0
 26 25  1  0
 26 29  1  0
 27 28  1  0
 27 24  1  0
 28 26  2  0
 29 30  1  0
 30 31  2  0
 32 35  1  0
 32 31  1  0
 33 32  2  0
 34 33  1  0
 34 29  2  0
 35 36  1  0
 36 37  1  0
 37 38  2  0
 39 38  1  0
 39 43  1  0
 40 39  2  0
 41 36  2  0
 41 40  1  0
 42 41  1  0
 44 45  1  0
 45 48  1  0
 45 47  1  0
 46 44  2  0
 49 24  1  0
 49 50  1  0
 51 49  1  0
 52 53  1  0
 52  2  1  0
 54 65  2  0
 55 53  1  0
 55 60  1  0
 56 64  1  0
 56 66  1  0
 57 63  1  0
 57 59  1  0
 58 64  1  0
 59 58  1  0
 60 59  2  0
 61 62  1  0
 61 55  2  0
 62 57  2  0
 63 56  1  0
 64 54  1  0
 66 68  2  0
 67 66  1  0
 69 67  1  0
 70 79  2  0
 70 75  1  0
 71 67  1  0
 71 75  1  0
 72 71  1  0
 73 74  1  0
 73 72  1  0
 74 70  1  0
 75 76  2  0
 76 77  1  0
 78 77  2  0
 79 78  1  0
 80 54  1  0
 80 81  1  0
 80 90  1  0
 81 84  1  0
 82 86  1  0
 82 81  1  0
 83 82  2  0
 86 85  1  0
 88 86  1  0
 88 89  1  0
 88 87  1  0
 90 93  1  1
 90 91  1  0
 92 90  1  0
M  ISO  4  14 100  22 100  52 101  53 101
M  END
>  <TORSDO>  (2) 
F 18

>  <SCORE>  (2) 
-14.456

>  <name>  (2) 
1

>  <ligand_id>  (2) 
1

>  <original_smiles>  (2) 
[H]C1=C(C([H])([H])Oc2c([H])c([H])c3c(c2[H])C([H])([H])N(C(=O)C([H])(N([H])C(=O)C([H])(N([H])C([H])([H])[H])C([H])([H])[H])C(C([H])([H])[H])(C([H])([H])[H])C([H])([H])[H])C([H])(C(=O)N([H])C2([H])c4c([H])c([H])c([H])c([H])c4C([H])([H])C([H])([H])C2([H])[H])C3([H])[H])C(=O)N(c2c([H])c([H])c(N([H])C(=O)N3C([H])([H])C([H])([H])C([H])([H])C([H])(n4nc(-c5c([H])c([H])c(Oc6c([H])c([H])c(F)c([H])c6F)c([H])c5[H])c(C(=O)N([H])[H])c4N([H])[H])C3([H])[H])c([H])c2[H])C1=O

>  <smiles>  (2) 
[H]C1=C(C([H])([H])Oc2c([H])c([H])c3c(c2[H])C([H])([H])N(C(=O)C([H])(N([H])C(=O)C([H])(N([H])C([H])([H])[H])C([H])([H])[H])C(C([H])([H])[H])(C([H])([H])[H])C([H])([H])[H])C([H])(C(=O)N([H])C2([H])c4c([H])c([H])c([H])c([H])c4C([H])([H])C([H])([H])C2([H])[H])C3([H])[H])C(=O)N(c2c([H])c([H])c(N([H])C(=O)N3C([H])([H])C([H])([H])C([H])([H])C([H])(n4nc(-c5c([H])c([H])c(Oc6c([H])c([H])c(F)c([H])c6F)c([H])c5[H])c(C(=O)N([H])[H])c4N([H])[H])C3([H])[H])c([H])c2[H])C1=O

$$$$
2:0:0
     RDKit          3D

 94103  0  0  1  0  0  0  0  0999 V2000
  -28.6470  -23.6810   18.7240 C   0  0  0  0  0  3  0  0  0  0  0  0
  -28.5550  -23.6820   20.0670 C   0  0  0  0  0  0  0  0  0  0  0  0
  -28.8930  -22.4800   17.9560 C   0  0  0  0  0  0  0  0  0  0  0  0
  -28.8320  -22.3770   20.8100 C   0  0  0  0  0  0  0  0  0  0  0  0
  -29.1170  -22.5670   16.6350 C   0  0  0  0  0  2  0  0  0  0  0  0
  -28.8540  -21.1300   18.6540 C   0  0  0  0  0  2  0  0  0  0  0  0
  -29.1070  -21.1840   20.1030 N   0  0  0  0  0  0  0  0  0  0  0  0
  -28.8070  -22.3580   22.0440 O   0  0  0  0  0  0  0  0  0  0  0  0
  -31.4280  -18.9180   22.1190 C   0  0  0  0  0  3  0  0  0  0  0  0
  -30.7310  -20.0400   21.6280 C   0  0  0  0  0  3  0  0  0  0  0  0
  -31.1270  -17.6090   21.6920 C   0  0  0  0  0  3  0  0  0  0  0  0
  -29.3930  -18.5430   20.2610 C   0  0  0  0  0  3  0  0  0  0  0  0
  -29.6930  -19.9190   20.6750 C   0  0  0  0  0  0  0  0  0  0  0  0
  -30.0980  -17.3580   20.7600 C   0  0  0  0  0  0  0  0  0  0  0  0
  -30.5680  -14.7970   20.3440 C   0  0  0  0  0  0  0  0  0  0  0  0
  -30.3760  -12.5180   19.3160 C   0  0  0  0  0  2  0  0  0  0  0  0
  -29.4130  -12.5620   18.1090 C   0  0  0  0  0  2  0  0  0  0  0  0
  -27.9540  -12.3770   18.5670 C   0  0  0  0  0  2  0  0  0  0  0  0
  -27.5880  -13.2690   19.7840 C   0  0  0  0  0  3  0  0  0  0  0  0
  -28.6670  -13.2010   20.8850 C   0  0  0  0  0  2  0  0  0  0  0  0
  -29.9420  -13.5720   20.2600 N   0  0  0  0  0  0  0  0  0  0  0  0
  -31.7670  -14.8850   20.0670 O   0  0  0  0  0  0  0  0  0  0  0  0
  -29.7700  -15.9380   20.4440 N   0  0  0  0  0  0  0  0  0  0  0  0
  -28.7850  -15.7460   20.3510 H   0  0  0  0  0  0  0  0  0  0  0  0
  -25.2140  -13.8460   20.5580 C   0  0  0  0  0  0  0  0  0  0  0  0
  -24.1560  -13.0660   20.9390 C   0  0  0  0  0  0  0  0  0  0  0  0
  -24.6240  -11.7170   20.8910 C   0  0  0  0  0  0  0  0  0  0  0  0
  -26.2560  -12.9710   20.2980 N   0  0  0  0  0  0  0  0  0  0  0  0
  -25.9090  -11.6860   20.5640 N   0  0  0  0  0  0  0  0  0  0  0  0
  -23.9040  -10.4510   21.0820 C   0  0  0  0  0  0  0  0  0  0  0  0
  -24.3510   -9.4770   22.0010 C   0  0  0  0  0  3  0  0  0  0  0  0
  -23.6290   -8.2760   22.1790 C   0  0  0  0  0  3  0  0  0  0  0  0
  -22.4470   -8.0430   21.4380 C   0  0  0  0  0  0  0  0  0  0  0  0
  -22.0190   -9.0060   20.5070 C   0  0  0  0  0  3  0  0  0  0  0  0
  -22.7410  -10.1970   20.3270 C   0  0  0  0  0  3  0  0  0  0  0  0
  -21.6950   -6.8960   21.5270 O   0  0  0  0  0  0  0  0  0  0  0  0
  -21.6660   -6.1430   22.6730 C   0  0  0  0  0  0  0  0  0  0  0  0
  -21.2440   -6.6810   23.9090 C   0  0  0  0  0  3  0  0  0  0  0  0
  -21.1630   -5.8530   25.0470 C   0  0  0  0  0  3  0  0  0  0  0  0
  -21.4920   -4.4880   24.9500 C   0  0  0  0  0  0  0  0  0  0  0  0
  -21.9070   -3.9490   23.7200 C   0  0  0  0  0  3  0  0  0  0  0  0
  -21.9910   -4.7740   22.5850 C   0  0  0  0  0  0  0  0  0  0  0  0
  -22.3710   -4.2440   21.3970 F   0  0  0  0  0  0  0  0  0  0  0  0
  -21.4060   -3.6910   26.0410 F   0  0  0  0  0  0  0  0  0  0  0  0
  -22.7610  -13.5370   21.2320 C   0  0  0  0  0  0  0  0  0  0  0  0
  -22.0450  -12.8320   22.1000 N   0  0  0  0  0  0  0  0  0  0  0  0
  -22.3170  -14.5670   20.7260 O   0  0  0  0  0  0  0  0  0  0  0  0
  -22.4180  -12.0000   22.5320 H   0  0  0  0  0  0  0  0  0  0  0  0
  -21.1100  -13.1320   22.3380 H   0  0  0  0  0  0  0  0  0  0  0  0
  -25.3650  -15.2190   20.3860 N   0  0  0  0  0  0  0  0  0  0  0  0
  -24.5870  -15.8580   20.5130 H   0  0  0  0  0  0  0  0  0  0  0  0
  -26.1860  -15.6700   20.0060 H   0  0  0  0  0  0  0  0  0  0  0  0
  -28.1400  -25.0280   20.8270 C   0  0  0  0  0  2  0  0  0  0  0  0
  -28.3120  -26.3920   20.2080 O   0  0  0  0  0  0  0  0  0  0  0  0
  -24.6250  -31.8960   23.2350 C   0  0  0  0  0  0  0  0  0  0  0  0
  -27.2170  -27.2840   20.2050 C   0  0  0  0  0  0  0  0  0  0  0  0
  -23.4210  -30.5010   21.5930 C   0  0  0  0  0  3  0  0  0  0  0  0
  -24.8680  -28.9350   20.1730 C   0  0  0  0  0  0  0  0  0  0  0  0
  -25.9630  -30.8010   21.4150 C   0  0  0  0  0  2  0  0  0  0  0  0
  -26.0400  -29.4150   20.7730 C   0  0  0  0  0  0  0  0  0  0  0  0
  -27.2220  -28.6050   20.7710 C   0  0  0  0  0  3  0  0  0  0  0  0
  -26.0240  -26.8650   19.5830 C   0  0  0  0  0  3  0  0  0  0  0  0
  -24.8650  -27.6680   19.5660 C   0  0  0  0  0  3  0  0  0  0  0  0
  -23.6360  -29.8200   20.2150 C   0  0  0  0  0  2  0  0  0  0  0  0
  -24.6890  -31.0840   22.1380 N   0  0  0  0  0  0  0  0  0  0  0  0
  -23.5410  -32.1780   23.7670 O   0  0  0  0  0  0  0  0  0  0  0  0
  -22.7480  -29.4910   22.5550 C   0  0  0  0  0  0  0  0  0  0  0  0
  -21.4200  -29.3250   22.4290 N   0  0  0  0  0  0  0  0  0  0  0  0
  -23.4210  -28.8590   23.3720 O   0  0  0  0  0  0  0  0  0  0  0  0
  -20.9350  -29.8870   21.7450 H   0  0  0  0  0  0  0  0  0  0  0  0
  -18.0330  -28.1600   22.9420 C   0  0  0  0  0  0  0  0  0  0  0  0
  -20.5950  -28.3930   23.2000 C   0  0  0  0  0  3  0  0  0  0  0  0
  -20.6790  -26.9630   22.6170 C   0  0  0  0  0  2  0  0  0  0  0  0
  -19.5690  -26.6560   21.6070 C   0  0  0  0  0  2  0  0  0  0  0  0
  -18.1920  -26.8120   22.2580 C   0  0  0  0  0  2  0  0  0  0  0  0
  -19.1610  -28.9100   23.3700 C   0  0  0  0  0  0  0  0  0  0  0  0
  -18.9580  -30.1700   23.9710 C   0  0  0  0  0  3  0  0  0  0  0  0
  -17.6580  -30.6830   24.1450 C   0  0  0  0  0  3  0  0  0  0  0  0
  -16.5450  -29.9320   23.7330 C   0  0  0  0  0  3  0  0  0  0  0  0
  -16.7320  -28.6720   23.1370 C   0  0  0  0  0  3  0  0  0  0  0  0
  -25.9090  -32.5240   23.8620 C   0  0  0  0  0  3  0  0  0  0  0  0
  -25.6070  -33.9270   24.1810 N   0  0  0  0  0  0  0  0  0  0  0  0
  -25.9560  -34.9740   23.4210 C   0  0  0  0  0  0  0  0  0  0  0  0
  -26.6330  -34.8590   22.3960 O   0  0  0  0  0  0  0  0  0  0  0  0
  -25.0060  -34.0900   24.9760 H   0  0  0  0  0  0  0  0  0  0  0  0
  -24.2540  -36.7860   23.0380 C   0  0  0  0  0  1  0  0  0  0  0  0
  -25.4780  -36.3690   23.8680 C   0  0  0  0  0  3  0  0  0  0  0  0
  -27.6090  -37.2340   24.7300 C   0  0  0  0  0  1  0  0  0  0  0  0
  -26.5240  -37.4100   23.7680 N   0  0  0  0  0  0  0  0  0  0  0  0
  -26.1250  -38.3350   23.9060 H   0  0  0  0  0  0  0  0  0  0  0  0
  -26.4090  -31.7580   25.1480 C   0  0  1  0  0  0  0  0  0  0  0  0
  -25.3060  -31.5420   26.2100 C   0  0  0  0  0  1  0  0  0  0  0  0
  -26.9830  -30.3720   24.7730 C   0  0  0  0  0  1  0  0  0  0  0  0
  -27.5610  -32.5490   25.8130 C   0  0  0  0  0  1  0  0  0  0  0  0
  1  2  2  0
  2  4  1  0
  2 53  1  0
  3  6  1  0
  3  1  1  0
  4  8  2  0
  5  3  2  0
  6  7  1  0
  7 13  1  0
  7  4  1  0
 10  9  2  0
 11  9  1  0
 12 13  2  0
 12 14  1  0
 13 10  1  0
 14 11  2  0
 15 23  1  0
 16 21  1  0
 17 18  1  0
 17 16  1  0
 19 18  1  0
 19 28  1  0
 19 20  1  0
 21 15  1  0
 21 20  1  0
 22 15  2  0
 23 14  1  0
 24 23  1  0
 25 26  2  0
 26 45  1  0
 27 26  1  0
 27 30  1  0
 28 25  1  0
 28 29  1  0
 29 27  2  0
 30 31  1  0
 31 32  2  0
 33 36  1  0
 33 32  1  0
 34 33  2  0
 35 34  1  0
 35 30  2  0
 36 37  1  0
 37 38  1  0
 38 39  2  0
 40 39  1  0
 40 44  1  0
 41 40  2  0
 42 37  2  0
 42 41  1  0
 43 42  1  0
 45 46  1  0
 46 49  1  0
 46 48  1  0
 47 45  2  0
 50 51  1  0
 50 25  1  0
 52 50  1  0
 54 53  1  0
 55 66  2  0
 56 54  1  0
 56 61  1  0
 57 65  1  0
 57 67  1  0
 58 64  1  0
 58 60  1  0
 59 65  1  0
 60 59  1  0
 61 60  2  0
 62 56  2  0
 63 62  1  0
 63 58  2  0
 64 57  1  0
 65 55  1  0
 67 69  2  0
 68 67  1  0
 70 68  1  0
 71 80  2  0
 71 76  1  0
 72 68  1  0
 72 76  1  0
 73 72  1  0
 74 75  1  0
 74 73  1  0
 75 71  1  0
 76 77  2  0
 77 78  1  0
 79 78  2  0
 80 79  1  0
 81 55  1  0
 81 82  1  0
 81 91  1  0
 82 85  1  0
 83 87  1  0
 83 82  1  0
 84 83  2  0
 87 86  1  0
 89 87  1  0
 89 90  1  0
 89 88  1  0
 91 94  1  1
 91 92  1  0
 93 91  1  0
M  ISO  4  15 100  23 100  53 101  54 101
M  END
>  <TORSDO>  (3) 
F 18

>  <SCORE>  (3) 
-14.939

>  <name>  (3) 
2

>  <ligand_id>  (3) 
2

>  <original_smiles>  (3) 
[H]C([H])=C1C([H])=C(C([H])([H])Oc2c([H])c([H])c3c(c2[H])C([H])([H])N(C(=O)C([H])(N([H])C(=O)C([H])(N([H])C([H])([H])[H])C([H])([H])[H])C(C([H])([H])[H])(C([H])([H])[H])C([H])([H])[H])C([H])(C(=O)N([H])C2([H])c4c([H])c([H])c([H])c([H])c4C([H])([H])C([H])([H])C2([H])[H])C3([H])[H])C(=O)N(c2c([H])c([H])c([H])c(N([H])C(=O)N3C([H])([H])C([H])([H])C([H])([H])C([H])(n4nc(-c5c([H])c([H])c(Oc6c([H])c([H])c(F)c([H])c6F)c([H])c5[H])c(C(=O)N([H])[H])c4N([H])[H])C3([H])[H])c2[H])C1([H])[H]

>  <smiles>  (3) 
[H]C([H])=C1C([H])=C(C([H])([H])Oc2c([H])c([H])c3c(c2[H])C([H])([H])N(C(=O)C([H])(N([H])C(=O)C([H])(N([H])C([H])([H])[H])C([H])([H])[H])C(C([H])([H])[H])(C([H])([H])[H])C([H])([H])[H])C([H])(C(=O)N([H])C2([H])c4c([H])c([H])c([H])c([H])c4C([H])([H])C([H])([H])C2([H])[H])C3([H])[H])C(=O)N(c2c([H])c([H])c([H])c(N([H])C(=O)N3C([H])([H])C([H])([H])C([H])([H])C([H])(n4nc(-c5c([H])c([H])c(Oc6c([H])c([H])c(F)c([H])c6F)c([H])c5[H])c(C(=O)N([H])[H])c4N([H])[H])C3([H])[H])c2[H])C1([H])[H]

$$$$
3:0:0
     RDKit          3D

 93101  0  0  1  0  0  0  0  0999 V2000
  -28.5200  -23.0270   21.0670 C   0  0  0  0  0  0  0  0  0  0  0  0
  -28.8960  -21.9010   20.4150 N   0  0  0  0  0  0  0  0  0  0  0  0
  -27.9350  -22.9700   22.1510 O   0  0  0  0  0  0  0  0  0  0  0  0
  -29.3680  -22.0140   19.5290 H   0  0  0  0  0  0  0  0  0  0  0  0
  -28.8330  -24.2880   20.3740 C   0  0  0  0  0  3  0  0  0  0  0  0
  -28.3350  -25.4660   20.8370 C   0  0  0  0  0  3  0  0  0  0  0  0
  -28.5290  -26.7180   20.2710 O   0  0  0  0  0  0  0  0  0  0  0  0
  -24.6920  -31.9390   23.3070 C   0  0  0  0  0  0  0  0  0  0  0  0
  -27.4070  -27.5240   20.2300 C   0  0  0  0  0  0  0  0  0  0  0  0
  -23.5270  -30.5550   21.6220 C   0  0  0  0  0  3  0  0  0  0  0  0
  -25.0180  -29.0450   20.2020 C   0  0  0  0  0  0  0  0  0  0  0  0
  -26.0570  -30.9220   21.4820 C   0  0  0  0  0  2  0  0  0  0  0  0
  -26.1640  -29.5590   20.8220 C   0  0  0  0  0  0  0  0  0  0  0  0
  -27.3670  -28.8070   20.8300 C   0  0  0  0  0  3  0  0  0  0  0  0
  -26.2460  -27.0360   19.5960 C   0  0  0  0  0  3  0  0  0  0  0  0
  -25.0550  -27.7860   19.5810 C   0  0  0  0  0  3  0  0  0  0  0  0
  -23.7670  -29.8970   20.2400 C   0  0  0  0  0  2  0  0  0  0  0  0
  -24.7770  -31.1530   22.1960 N   0  0  0  0  0  0  0  0  0  0  0  0
  -23.5970  -32.2000   23.8260 O   0  0  0  0  0  0  0  0  0  0  0  0
  -22.8590  -29.5180   22.5550 C   0  0  0  0  0  0  0  0  0  0  0  0
  -21.5360  -29.3390   22.4030 N   0  0  0  0  0  0  0  0  0  0  0  0
  -23.5290  -28.8780   23.3710 O   0  0  0  0  0  0  0  0  0  0  0  0
  -21.0580  -29.9060   21.7160 H   0  0  0  0  0  0  0  0  0  0  0  0
  -18.1430  -28.1830   22.8700 C   0  0  0  0  0  0  0  0  0  0  0  0
  -20.7050  -28.3890   23.1420 C   0  0  0  0  0  3  0  0  0  0  0  0
  -20.7820  -26.9780   22.5150 C   0  0  0  0  0  2  0  0  0  0  0  0
  -19.6740  -26.7110   21.4930 C   0  0  0  0  0  2  0  0  0  0  0  0
  -18.2960  -26.8560   22.1460 C   0  0  0  0  0  2  0  0  0  0  0  0
  -19.2750  -28.9120   23.3230 C   0  0  0  0  0  0  0  0  0  0  0  0
  -19.0800  -30.1570   23.9580 C   0  0  0  0  0  3  0  0  0  0  0  0
  -17.7840  -30.6750   24.1440 C   0  0  0  0  0  3  0  0  0  0  0  0
  -16.6670  -29.9420   23.7090 C   0  0  0  0  0  3  0  0  0  0  0  0
  -16.8470  -28.6980   23.0790 C   0  0  0  0  0  3  0  0  0  0  0  0
  -25.9620  -32.5650   23.9660 C   0  0  0  0  0  3  0  0  0  0  0  0
  -26.4260  -31.8060   25.2700 C   0  0  1  0  0  0  0  0  0  0  0  0
  -25.2930  -31.5880   26.3010 C   0  0  0  0  0  1  0  0  0  0  0  0
  -27.0140  -30.4210   24.9120 C   0  0  0  0  0  1  0  0  0  0  0  0
  -27.5590  -32.6010   25.9640 C   0  0  0  0  0  1  0  0  0  0  0  0
  -25.6600  -33.9710   24.2640 N   0  0  0  0  0  0  0  0  0  0  0  0
  -26.0100  -35.0050   23.4880 C   0  0  0  0  0  0  0  0  0  0  0  0
  -26.6980  -34.8750   22.4700 O   0  0  0  0  0  0  0  0  0  0  0  0
  -25.0570  -34.1460   25.0550 H   0  0  0  0  0  0  0  0  0  0  0  0
  -24.2900  -36.7890   23.0790 C   0  0  0  0  0  1  0  0  0  0  0  0
  -25.5260  -36.4040   23.9070 C   0  0  0  0  0  3  0  0  0  0  0  0
  -27.6560  -37.3060   24.7290 C   0  0  0  0  0  1  0  0  0  0  0  0
  -26.5630  -37.4510   23.7710 N   0  0  0  0  0  0  0  0  0  0  0  0
  -26.1580  -38.3770   23.8890 H   0  0  0  0  0  0  0  0  0  0  0  0
  -27.2270  -20.0980   20.1650 C   0  0  0  0  0  1  0  0  0  0  0  0
  -28.5630  -20.5040   20.8160 C   0  0  0  0  0  3  0  0  0  0  0  0
  -32.0620  -18.9680   20.2740 C   0  0  0  0  0  3  0  0  0  0  0  0
  -31.0120  -19.8940   20.3930 C   0  0  0  0  0  3  0  0  0  0  0  0
  -31.8140  -17.5830   20.3450 C   0  0  0  0  0  3  0  0  0  0  0  0
  -29.4520  -18.0420   20.6730 C   0  0  0  0  0  3  0  0  0  0  0  0
  -29.6870  -19.4530   20.6020 C   0  0  0  0  0  0  0  0  0  0  0  0
  -30.4990  -17.0850   20.5210 C   0  0  0  0  0  0  0  0  0  0  0  0
  -30.8900  -14.6180   20.0480 C   0  0  0  0  0  0  0  0  0  0  0  0
  -30.5760  -12.4160   18.9700 C   0  0  0  0  0  2  0  0  0  0  0  0
  -29.5730  -12.5660   17.8060 C   0  0  0  0  0  2  0  0  0  0  0  0
  -28.1290  -12.3950   18.3120 C   0  0  0  0  0  2  0  0  0  0  0  0
  -27.8330  -13.2540   19.5720 C   0  0  0  0  0  3  0  0  0  0  0  0
  -28.9470  -13.1020   20.6320 C   0  0  0  0  0  2  0  0  0  0  0  0
  -30.2300  -13.4240   19.9890 N   0  0  0  0  0  0  0  0  0  0  0  0
  -31.9970  -14.7560   19.5220 O   0  0  0  0  0  0  0  0  0  0  0  0
  -30.2010  -15.6670   20.5740 N   0  0  0  0  0  0  0  0  0  0  0  0
  -29.2880  -15.4220   20.9230 H   0  0  0  0  0  0  0  0  0  0  0  0
  -25.4880  -13.8260   20.4580 C   0  0  0  0  0  0  0  0  0  0  0  0
  -24.4460  -13.0390   20.8660 C   0  0  0  0  0  0  0  0  0  0  0  0
  -24.9020  -11.6890   20.7540 C   0  0  0  0  0  0  0  0  0  0  0  0
  -26.5150  -12.9560   20.1270 N   0  0  0  0  0  0  0  0  0  0  0  0
  -26.1710  -11.6640   20.3630 N   0  0  0  0  0  0  0  0  0  0  0  0
  -24.1880  -10.4200   20.9450 C   0  0  0  0  0  0  0  0  0  0  0  0
  -24.6290   -9.4570   21.8790 C   0  0  0  0  0  3  0  0  0  0  0  0
  -23.9150   -8.2520   22.0560 C   0  0  0  0  0  3  0  0  0  0  0  0
  -22.7460   -8.0030   21.2980 C   0  0  0  0  0  0  0  0  0  0  0  0
  -22.3250   -8.9540   20.3520 C   0  0  0  0  0  3  0  0  0  0  0  0
  -23.0390  -10.1510   20.1730 C   0  0  0  0  0  3  0  0  0  0  0  0
  -22.0030   -6.8500   21.3840 O   0  0  0  0  0  0  0  0  0  0  0  0
  -21.8810   -6.1580   22.5630 C   0  0  0  0  0  0  0  0  0  0  0  0
  -21.3490   -6.7560   23.7250 C   0  0  0  0  0  3  0  0  0  0  0  0
  -21.1760   -5.9890   24.8960 C   0  0  0  0  0  3  0  0  0  0  0  0
  -21.5260   -4.6250   24.9020 C   0  0  0  0  0  0  0  0  0  0  0  0
  -22.0530   -4.0270   23.7440 C   0  0  0  0  0  3  0  0  0  0  0  0
  -22.2260   -4.7920   22.5770 C   0  0  0  0  0  0  0  0  0  0  0  0
  -22.7140   -4.2060   21.4560 F   0  0  0  0  0  0  0  0  0  0  0  0
  -21.3550   -3.8850   26.0230 F   0  0  0  0  0  0  0  0  0  0  0  0
  -23.0690  -13.5040   21.2460 C   0  0  0  0  0  0  0  0  0  0  0  0
  -22.3990  -12.7760   22.1310 N   0  0  0  0  0  0  0  0  0  0  0  0
  -22.5980  -14.5460   20.7910 O   0  0  0  0  0  0  0  0  0  0  0  0
  -22.7940  -11.9320   22.5190 H   0  0  0  0  0  0  0  0  0  0  0  0
  -21.4780  -13.0670   22.4270 H   0  0  0  0  0  0  0  0  0  0  0  0
  -25.6440  -15.2030   20.3200 N   0  0  0  0  0  0  0  0  0  0  0  0
  -24.8790  -15.8500   20.4880 H   0  0  0  0  0  0  0  0  0  0  0  0
  -26.4630  -15.6510   19.9310 H   0  0  0  0  0  0  0  0  0  0  0  0
  1  3  2  0
  2 49  1  0
  2  1  1  0
  4  2  1  0
  5  6  2  0
  5  1  1  0
  7  6  1  0
  8 19  2  0
  9  7  1  0
  9 14  1  0
 10 18  1  0
 10 20  1  0
 11 17  1  0
 11 13  1  0
 12 18  1  0
 13 14  2  0
 13 12  1  0
 15  9  2  0
 16 15  1  0
 16 11  2  0
 17 10  1  0
 18  8  1  0
 20 22  2  0
 21 20  1  0
 23 21  1  0
 24 33  2  0
 24 29  1  0
 25 21  1  0
 25 29  1  0
 26 25  1  0
 27 28  1  0
 27 26  1  0
 28 24  1  0
 29 30  2  0
 30 31  1  0
 32 31  2  0
 33 32  1  0
 34  8  1  0
 34 39  1  0
 34 35  1  0
 35 38  1  1
 35 36  1  0
 37 35  1  0
 39 42  1  0
 40 44  1  0
 40 39  1  0
 41 40  2  0
 44 43  1  0
 46 47  1  0
 46 44  1  0
 46 45  1  0
 49 48  1  0
 50 52  2  0
 50 51  1  0
 51 54  2  0
 52 55  1  0
 54 53  1  0
 54 49  1  0
 55 64  1  0
 55 53  2  0
 56 64  1  0
 57 62  1  0
 58 59  1  0
 58 57  1  0
 60 59  1  0
 60 69  1  0
 60 61  1  0
 62 56  1  0
 62 61  1  0
 63 56  2  0
 64 65  1  0
 66 67  2  0
 67 86  1  0
 68 67  1  0
 68 71  1  0
 69 70  1  0
 69 66  1  0
 70 68  2  0
 71 72  1  0
 72 73  2  0
 74 77  1  0
 74 73  1  0
 75 74  2  0
 76 75  1  0
 76 71  2  0
 77 78  1  0
 78 83  2  0
 78 79  1  0
 79 80  2  0
 80 81  1  0
 81 85  1  0
 82 81  2  0
 83 82  1  0
 84 83  1  0
 86 87  1  0
 87 90  1  0
 87 89  1  0
 88 86  2  0
 91 66  1  0
 91 92  1  0
 93 91  1  0
M  ISO  4   6 101   7 101  56 100  64 100
M  END
>  <TORSDO>  (4) 
F 19

>  <SCORE>  (4) 
-13.578

>  <name>  (4) 
3

>  <ligand_id>  (4) 
3

>  <original_smiles>  (4) 
[H]C(Oc1c([H])c([H])c2c(c1[H])C([H])([H])N(C(=O)C([H])(N([H])C(=O)C([H])(N([H])C([H])([H])[H])C([H])([H])[H])C(C([H])([H])[H])(C([H])([H])[H])C([H])([H])[H])C([H])(C(=O)N([H])C1([H])c3c([H])c([H])c([H])c([H])c3C([H])([H])C([H])([H])C1([H])[H])C2([H])[H])=C([H])C(=O)N([H])C([H])(c1c([H])c([H])c([H])c(N([H])C(=O)N2C([H])([H])C([H])([H])C([H])([H])C([H])(n3nc(-c4c([H])c([H])c(Oc5c([H])c([H])c(F)c([H])c5F)c([H])c4[H])c(C(=O)N([H])[H])c3N([H])[H])C2([H])[H])c1[H])C([H])([H])[H]

>  <smiles>  (4) 
[H]C(Oc1c([H])c([H])c2c(c1[H])C([H])([H])N(C(=O)C([H])(N([H])C(=O)C([H])(N([H])C([H])([H])[H])C([H])([H])[H])C(C([H])([H])[H])(C([H])([H])[H])C([H])([H])[H])C([H])(C(=O)N([H])C1([H])c3c([H])c([H])c([H])c([H])c3C([H])([H])C([H])([H])C1([H])[H])C2([H])[H])=C([H])C(=O)N([H])C([H])(c1c([H])c([H])c([H])c(N([H])C(=O)N2C([H])([H])C([H])([H])C([H])([H])C([H])(n3nc(-c4c([H])c([H])c(Oc5c([H])c([H])c(F)c([H])c5F)c([H])c4[H])c(C(=O)N([H])[H])c3N([H])[H])C2([H])[H])c1[H])C([H])([H])[H]

$$$$
4:0:0
     RDKit          3D

105112  0  0  1  0  0  0  0  0999 V2000
  -24.2020  -17.0440   20.5350 C   0  0  0  0  0  3  0  0  0  0  0  0
  -26.1650  -16.0170   20.6140 C   0  0  0  0  0  3  0  0  0  0  0  0
  -24.8590  -18.2450   19.8630 C   0  0  0  0  0  3  0  0  0  0  0  0
  -26.8380  -17.2390   19.9530 C   0  0  0  0  0  3  0  0  0  0  0  0
  -24.7430  -15.7430   21.0070 C   0  0  0  0  0  0  0  0  0  0  0  0
  -26.2690  -18.5490   19.4870 C   0  0  0  0  0  0  0  0  0  0  0  0
  -22.5040  -14.2040   21.9710 C   0  0  0  0  0  3  0  0  0  0  0  0
  -23.8660  -14.3700   21.8210 C   0  0  0  0  0  0  0  0  0  0  0  0
  -21.8940  -12.8680   22.4720 C   0  0  0  0  0  0  0  0  0  0  0  0
  -24.0570  -12.8100   22.4480 C   0  0  0  0  0  2  0  0  0  0  0  0
  -22.7620  -11.7870   22.4570 N   0  0  0  0  0  0  0  0  0  0  0  0
  -20.7190  -12.7440   22.8270 O   0  0  0  0  0  0  0  0  0  0  0  0
  -22.1720   -6.7640   21.7360 C   0  0  0  0  0  2  0  0  0  0  0  0
  -24.1290   -6.5700   22.4470 C   0  0  0  0  0 15  0  0  0  0  0  0
  -21.3630   -8.6510   22.0380 C   0  0  0  0  0 15  0  0  0  0  0  0
  -24.2190   -9.7260   23.1650 C   0  0  0  0  0  2  0  0  0  0  0  0
  -25.1370   -8.2450   23.0220 C   0  0  0  0  0  2  0  0  0  0  0  0
  -22.5690  -10.1010   22.6560 C   0  0  0  0  0  2  0  0  0  0  0  0
  -29.2740  -11.0060   22.2390 C   0  0  0  0  0  0  0  0  0  0  0  0
  -30.8400  -11.0040   20.3550 C   0  0  0  0  0  2  0  0  0  0  0  0
  -30.4030  -10.7420   18.9170 C   0  0  0  0  0  2  0  0  0  0  0  0
  -28.8650  -10.8810   18.7620 C   0  0  0  0  0  2  0  0  0  0  0  0
  -28.3600  -12.2340   19.4130 C   0  0  0  0  0  3  0  0  0  0  0  0
  -29.0380  -12.6500   20.6900 C   0  0  0  0  0  2  0  0  0  0  0  0
  -29.6210  -11.4370   21.0630 N   0  0  0  0  0  0  0  0  0  0  0  0
  -30.3540  -11.5390   22.7540 O   0  0  0  0  0  0  0  0  0  0  0  0
  -26.9490   -8.8480   22.9860 C   0  0  0  0  0  0  0  0  0  0  0  0
  -27.8610  -10.1290   22.4510 N   0  0  0  0  0  0  0  0  0  0  0  0
  -27.6590   -7.9750   23.4900 O   0  0  0  0  0  0  0  0  0  0  0  0
  -27.2320  -10.5900   21.7930 H   0  0  0  0  0  0  0  0  0  0  0  0
  -25.9780  -13.1450   19.3690 C   0  0  0  0  0  0  0  0  0  0  0  0
  -24.7740  -12.5430   19.5470 C   0  0  0  0  0  0  0  0  0  0  0  0
  -25.1930  -11.2740   19.8790 C   0  0  0  0  0  0  0  0  0  0  0  0
  -26.9480  -12.2260   19.6730 N   0  0  0  0  0  0  0  0  0  0  0  0
  -26.4370  -11.2010   20.2860 N   0  0  0  0  0  2  0  0  0  0  0  0
  -24.5160  -10.1330   19.7600 C   0  0  0  0  0  0  0  0  0  0  0  0
  -25.1990   -9.0560   20.2610 C   0  0  0  0  0  2  0  0  0  0  0  0
  -24.4840   -7.9700   20.2230 C   0  0  0  0  0  2  0  0  0  0  0  0
  -23.3930   -8.4190   20.9250 C   0  0  0  0  0  2  0  0  0  0  0  0
  -22.7100   -8.7460   19.6460 C   0  0  0  0  0  2  0  0  0  0  0  0
  -23.3050   -9.8500   19.0950 C   0  0  0  0  0  2  0  0  0  0  0  0
  -22.6440   -7.8450   22.9410 O   0  0  0  0  0  0  0  0  0  0  0  0
  -21.5230   -6.9030   23.5670 C   0  0  1  0  0  0  0  0  0  0  0  0
  -20.4450   -7.6380   24.0520 C   0  0  0  0  0  3  0  0  0  0  0  0
  -19.4860   -7.0370   24.8560 C   0  0  0  0  0  3  0  0  0  0  0  0
  -19.5140   -5.6560   25.0820 C   0  0  0  0  0  3  0  0  0  0  0  0
  -20.2560   -4.8260   24.2540 C   0  0  0  0  0  3  0  0  0  0  0  0
  -21.2060   -5.4190   23.4240 C   0  0  0  0  0  0  0  0  0  0  0  0
  -21.7110   -4.5000   22.5180 F   0  0  0  0  0  0  0  0  0  0  0  0
  -18.8280   -5.1430   26.1130 F   0  0  0  0  0  0  0  0  0  0  0  0
  -23.3840  -12.9850   19.1670 C   0  0  0  0  0  0  0  0  0  0  0  0
  -22.3020  -12.3380   19.5910 N   0  0  0  0  0  0  0  0  0  0  0  0
  -23.2230  -13.9720   18.4810 O   0  0  0  0  0  0  0  0  0  0  0  0
  -22.3800  -11.4110   19.9770 H   0  0  0  0  0  0  0  0  0  0  0  0
  -21.3940  -12.6820   19.3070 H   0  0  0  0  0  0  0  0  0  0  0  0
  -26.3740  -14.3610   18.8870 N   0  0  0  0  0  0  0  0  0  0  0  0
  -25.7220  -15.1230   18.7590 H   0  0  0  0  0  0  0  0  0  0  0  0
  -27.3420  -14.6570   18.8830 H   0  0  0  0  0  0  0  0  0  0  0  0
  -28.0000  -20.9120   18.2700 C   0  0  0  0  0  0  0  0  0  0  0  0
  -26.8310  -20.0220   18.7770 N   0  0  0  0  0  0  0  0  0  0  0  0
  -29.1100  -20.3830   18.3640 O   0  0  0  0  0  0  0  0  0  0  0  0
  -26.0200  -20.5930   18.5780 H   0  0  0  0  0  0  0  0  0  0  0  0
  -26.7150  -23.2700   17.7460 C   0  0  0  0  0  1  0  0  0  0  0  0
  -28.0900  -22.6220   17.5170 C   0  0  0  0  0  3  0  0  0  0  0  0
  -29.1360  -24.0330   17.6370 O   0  0  0  0  0  0  0  0  0  0  0  0
  -26.1820  -28.5980   22.7230 C   0  0  0  0  0  0  0  0  0  0  0  0
  -28.6850  -25.4430   17.9740 C   0  0  0  0  0  0  0  0  0  0  0  0
  -25.2410  -28.3940   20.4670 C   0  0  0  0  0  3  0  0  0  0  0  0
  -26.8370  -27.6410   18.5870 C   0  0  0  0  0  0  0  0  0  0  0  0
  -27.7990  -28.2970   20.7710 C   0  0  0  0  0  2  0  0  0  0  0  0
  -27.8840  -27.4140   19.4860 C   0  0  0  0  0  0  0  0  0  0  0  0
  -28.8370  -26.3350   19.1660 C   0  0  0  0  0  3  0  0  0  0  0  0
  -27.7930  -25.9880   17.0430 C   0  0  0  0  0  3  0  0  0  0  0  0
  -26.8530  -26.9910   17.3510 C   0  0  0  0  0  3  0  0  0  0  0  0
  -25.6840  -28.5530   18.9870 C   0  0  0  0  0  2  0  0  0  0  0  0
  -26.4250  -28.4340   21.3840 N   0  0  0  0  0  0  0  0  0  0  0  0
  -25.0290  -28.6910   23.1730 O   0  0  0  0  0  0  0  0  0  0  0  0
  -24.3890  -27.1070   20.6460 C   0  0  0  0  0  0  0  0  0  0  0  0
  -23.0790  -27.1760   20.3470 N   0  0  0  0  0  0  0  0  0  0  0  0
  -24.9180  -26.0650   21.0420 O   0  0  0  0  0  0  0  0  0  0  0  0
  -22.7120  -28.0660   20.0410 H   0  0  0  0  0  0  0  0  0  0  0  0
  -19.5640  -26.3010   20.1060 C   0  0  0  0  0  0  0  0  0  0  0  0
  -22.1230  -26.0640   20.4080 C   0  0  0  0  0  3  0  0  0  0  0  0
  -22.1000  -25.2760   19.0790 C   0  0  0  0  0  2  0  0  0  0  0  0
  -21.0210  -25.7660   18.1070 C   0  0  0  0  0  2  0  0  0  0  0  0
  -19.6330  -25.6390   18.7400 C   0  0  0  0  0  2  0  0  0  0  0  0
  -20.7350  -26.5140   20.8830 C   0  0  0  0  0  0  0  0  0  0  0  0
  -20.6140  -27.1590   22.1340 C   0  0  0  0  0  3  0  0  0  0  0  0
  -19.3590  -27.5870   22.6070 C   0  0  0  0  0  3  0  0  0  0  0  0
  -18.2030  -27.3640   21.8370 C   0  0  0  0  0  3  0  0  0  0  0  0
  -18.3070  -26.7180   20.5930 C   0  0  0  0  0  3  0  0  0  0  0  0
  -27.3430  -28.6940   23.7560 C   0  0  0  0  0  3  0  0  0  0  0  0
  -27.7260  -27.2980   24.3870 C   0  0  1  0  0  0  0  0  0  0  0  0
  -26.5250  -26.5330   24.9920 C   0  0  0  0  0  1  0  0  0  0  0  0
  -28.3780  -26.3700   23.3380 C   0  0  0  0  0  1  0  0  0  0  0  0
  -28.7770  -27.5050   25.5030 C   0  0  0  0  0  1  0  0  0  0  0  0
  -26.9230  -29.6290   24.8170 N   0  0  0  0  0  0  0  0  0  0  0  0
  -27.3380  -30.8970   24.9370 C   0  0  0  0  0  0  0  0  0  0  0  0
  -28.1750  -31.3960   24.1800 O   0  0  0  0  0  0  0  0  0  0  0  0
  -26.1920  -29.3090   25.4340 H   0  0  0  0  0  0  0  0  0  0  0  0
  -25.6560  -32.6830   25.5110 C   0  0  0  0  0  1  0  0  0  0  0  0
  -26.7370  -31.7470   26.0750 C   0  0  0  0  0  3  0  0  0  0  0  0
  -28.6290  -31.7340   27.6430 C   0  0  0  0  0  1  0  0  0  0  0  0
  -27.7400  -32.5450   26.8140 N   0  0  0  0  0  0  0  0  0  0  0  0
  -27.2850  -33.2280   27.4150 H   0  0  0  0  0  0  0  0  0  0  0  0
  1  5  1  0
  2  5  2  0
  3  1  2  0
  4  2  1  0
  5  8  1  0
  6  3  1  0
  6  4  2  0
  7  9  1  0
  8  7  2  0
  8 10  1  0
  9 12  2  0
 10 11  1  0
 11  9  1  0
 11 18  1  0
 13 42  1  0
 17 16  1  0
 18 16  1  0
 19 28  1  0
 19 26  2  0
 20 25  1  0
 21 20  1  0
 22 21  1  0
 23 22  1  0
 23 34  1  0
 23 24  1  0
 24 25  1  0
 25 19  1  0
 27 17  1  0
 27 29  2  0
 28 27  1  0
 30 28  1  0
 31 32  2  0
 31 34  1  0
 32 33  1  0
 33 35  1  0
 34 35  1  0
 36 33  2  0
 36 37  1  0
 38 37  1  0
 38 39  1  0
 40 39  1  0
 41 40  1  0
 41 36  1  0
 42 43  1  0
 43 13  1  6
 43 44  1  0
 44 45  2  0
 45 46  1  0
 46 50  1  0
 47 46  1  0
 48 43  1  0
 48 47  2  0
 49 48  1  0
 51 32  1  0
 51 52  1  0
 52 54  1  0
 53 51  2  0
 55 52  1  0
 56 31  1  0
 57 56  1  0
 58 56  1  0
 59 61  2  0
 59 60  1  0
 60  6  1  0
 62 60  1  0
 64 65  1  0
 64 63  1  0
 64 59  1  0
 65 67  1  0
 66 77  2  0
 67 72  1  0
 68 78  1  0
 68 76  1  0
 69 75  1  0
 69 71  1  0
 70 76  1  0
 71 70  1  0
 72 71  2  0
 73 74  1  0
 73 67  2  0
 74 69  2  0
 75 68  1  0
 76 66  1  0
 78 80  2  0
 79 78  1  0
 81 79  1  0
 82 91  2  0
 82 87  1  0
 83 79  1  0
 83 87  1  0
 84 83  1  0
 85 86  1  0
 85 84  1  0
 86 82  1  0
 87 88  2  0
 88 89  1  0
 90 89  2  0
 91 90  1  0
 92 66  1  0
 92 93  1  0
 92 97  1  0
 93 94  1  1
 93 96  1  0
 95 93  1  0
 97 98  1  0
 97100  1  0
 98102  1  0
 99 98  2  0
102101  1  0
102104  1  0
104105  1  0
104103  1  0
M  ISO  4  19 100  28 100  64 101  65 101
M  END
>  <TORSDO>  (5) 
F 20

>  <SCORE>  (5) 
10.758

>  <name>  (5) 
4

>  <ligand_id>  (5) 
4

>  <original_smiles>  (5) 
[H]C1=C(c2c([H])c([H])c(N([H])C(=O)C([H])(Oc3c([H])c([H])c4c(c3[H])C([H])([H])N(C(=O)C([H])(N([H])C(=O)C([H])(N([H])C([H])([H])[H])C([H])([H])[H])C(C([H])([H])[H])(C([H])([H])[H])C([H])([H])[H])C([H])(C(=O)N([H])C3([H])c5c([H])c([H])c([H])c([H])c5C([H])([H])C([H])([H])C3([H])[H])C4([H])[H])C([H])([H])[H])c([H])c2[H])C([H])([H])N(c2c([H])c([H])c([H])c(C(=O)N([H])C(=O)N3C([H])([H])C([H])([H])C([H])([H])C([H])(n4nc(-c5c([H])c([H])c(Oc6c([H])c([H])c(F)c([H])c6F)c([H])c5[H])c(C(=O)N([H])[H])c4N([H])[H])C3([H])[H])c2[H])C1=O

>  <smiles>  (5) 
[H]C1=C(c2c([H])c([H])c(N([H])C(=O)C([H])(Oc3c([H])c([H])c4c(c3[H])C([H])([H])N(C(=O)C([H])(N([H])C(=O)C([H])(N([H])C([H])([H])[H])C([H])([H])[H])C(C([H])([H])[H])(C([H])([H])[H])C([H])([H])[H])C([H])(C(=O)N([H])C3([H])c5c([H])c([H])c([H])c([H])c5C([H])([H])C([H])([H])C3([H])[H])C4([H])[H])C([H])([H])[H])c([H])c2[H])C([H])([H])N(c2c([H])c([H])c([H])c(C(=O)N([H])C(=O)N3C([H])([H])C([H])([H])C([H])([H])C([H])(n4nc(-c5c([H])c([H])c(Oc6c([H])c([H])c(F)c([H])c6F)c([H])c5[H])c(C(=O)N([H])[H])c4N([H])[H])C3([H])[H])c2[H])C1=O

$$$$
5:0:0
     RDKit          3D

 91100  0  0  1  0  0  0  0  0999 V2000
  -28.5110  -23.7990   20.4680 C   0  0  0  0  0  0  0  0  0  0  0  0
  -28.0130  -22.5840   21.1040 C   0  0  0  0  0  0  0  0  0  0  0  0
  -28.0210  -25.0950   20.6360 C   0  0  0  0  0  3  0  0  0  0  0  0
  -29.5720  -22.9310   19.7250 C   0  0  0  0  0  2  0  0  0  0  0  0
  -28.9690  -21.7740   20.4560 N   0  0  0  0  0  0  0  0  0  0  0  0
  -27.0990  -22.4150   21.8830 O   0  0  0  0  0  0  0  0  0  0  0  0
  -28.5080  -19.3680   21.0940 C   0  0  0  0  0  3  0  0  0  0  0  0
  -30.3780  -19.6550   19.7010 C   0  0  0  0  0  3  0  0  0  0  0  0
  -28.7190  -17.9550   21.1100 C   0  0  0  0  0  3  0  0  0  0  0  0
  -30.6160  -18.2250   19.7090 C   0  0  0  0  0  3  0  0  0  0  0  0
  -29.3070  -20.3190   20.3910 C   0  0  0  0  0  0  0  0  0  0  0  0
  -29.7800  -17.3120   20.4200 C   0  0  0  0  0  0  0  0  0  0  0  0
  -30.6570  -14.8130   20.0010 C   0  0  0  0  0  0  0  0  0  0  0  0
  -30.4620  -12.5560   18.9300 C   0  0  0  0  0  2  0  0  0  0  0  0
  -29.4400  -12.6530   17.7730 C   0  0  0  0  0  2  0  0  0  0  0  0
  -27.9980  -12.4580   18.2880 C   0  0  0  0  0  2  0  0  0  0  0  0
  -27.7000  -13.3050   19.5530 C   0  0  0  0  0  3  0  0  0  0  0  0
  -28.8270  -13.1590   20.6010 C   0  0  0  0  0  2  0  0  0  0  0  0
  -30.0860  -13.5580   19.9540 N   0  0  0  0  0  0  0  0  0  0  0  0
  -31.7810  -15.0070   19.5300 O   0  0  0  0  0  0  0  0  0  0  0  0
  -29.8440  -15.8270   20.4830 N   0  0  0  0  0  0  0  0  0  0  0  0
  -29.0310  -15.4240   20.9240 H   0  0  0  0  0  0  0  0  0  0  0  0
  -25.3600  -13.8760   20.4420 C   0  0  0  0  0  0  0  0  0  0  0  0
  -24.3180  -13.0920   20.8540 C   0  0  0  0  0  0  0  0  0  0  0  0
  -24.7750  -11.7420   20.7490 C   0  0  0  0  0  0  0  0  0  0  0  0
  -26.3850  -13.0050   20.1130 N   0  0  0  0  0  0  0  0  0  0  0  0
  -26.0430  -11.7140   20.3570 N   0  0  0  0  0  0  0  0  0  0  0  0
  -24.0600  -10.4730   20.9440 C   0  0  0  0  0  0  0  0  0  0  0  0
  -24.5080   -9.5080   21.8710 C   0  0  0  0  0  3  0  0  0  0  0  0
  -23.7920   -8.3040   22.0530 C   0  0  0  0  0  3  0  0  0  0  0  0
  -22.6140   -8.0580   21.3070 C   0  0  0  0  0  0  0  0  0  0  0  0
  -22.1860   -9.0140   20.3690 C   0  0  0  0  0  3  0  0  0  0  0  0
  -22.9020  -10.2080   20.1850 C   0  0  0  0  0  3  0  0  0  0  0  0
  -21.8700   -6.9080   21.3990 O   0  0  0  0  0  0  0  0  0  0  0  0
  -21.7770   -6.2020   22.5720 C   0  0  0  0  0  0  0  0  0  0  0  0
  -21.2940   -6.7920   23.7600 C   0  0  0  0  0  3  0  0  0  0  0  0
  -21.1510   -6.0110   24.9260 C   0  0  0  0  0  3  0  0  0  0  0  0
  -21.4780   -4.6430   24.9030 C   0  0  0  0  0  0  0  0  0  0  0  0
  -21.9540   -4.0530   23.7180 C   0  0  0  0  0  3  0  0  0  0  0  0
  -22.1000   -4.8290   22.5560 C   0  0  0  0  0  0  0  0  0  0  0  0
  -22.5390   -4.2510   21.4120 F   0  0  0  0  0  0  0  0  0  0  0  0
  -21.3330   -3.8910   26.0190 F   0  0  0  0  0  0  0  0  0  0  0  0
  -22.9410  -13.5590   21.2300 C   0  0  0  0  0  0  0  0  0  0  0  0
  -22.2700  -12.8360   22.1200 N   0  0  0  0  0  0  0  0  0  0  0  0
  -22.4720  -14.5980   20.7700 O   0  0  0  0  0  0  0  0  0  0  0  0
  -22.6640  -11.9940   22.5130 H   0  0  0  0  0  0  0  0  0  0  0  0
  -21.3490  -13.1290   22.4130 H   0  0  0  0  0  0  0  0  0  0  0  0
  -25.5150  -15.2530   20.2980 N   0  0  0  0  0  0  0  0  0  0  0  0
  -24.7520  -15.8990   20.4690 H   0  0  0  0  0  0  0  0  0  0  0  0
  -26.3280  -15.7000   19.8940 H   0  0  0  0  0  0  0  0  0  0  0  0
  -28.3410  -26.3870   20.1200 O   0  0  0  0  0  0  0  0  0  0  0  0
  -24.6780  -31.8800   23.1900 C   0  0  0  0  0  0  0  0  0  0  0  0
  -27.2810  -27.3220   20.0840 C   0  0  0  0  0  0  0  0  0  0  0  0
  -23.4700  -30.4900   21.5480 C   0  0  0  0  0  3  0  0  0  0  0  0
  -24.9190  -28.9560   20.0960 C   0  0  0  0  0  0  0  0  0  0  0  0
  -26.0100  -30.8090   21.3540 C   0  0  0  0  0  2  0  0  0  0  0  0
  -26.0920  -29.4330   20.6940 C   0  0  0  0  0  0  0  0  0  0  0  0
  -27.2790  -28.6280   20.6800 C   0  0  0  0  0  3  0  0  0  0  0  0
  -26.0860  -26.9160   19.4500 C   0  0  0  0  0  3  0  0  0  0  0  0
  -24.9200  -27.7040   19.4620 C   0  0  0  0  0  3  0  0  0  0  0  0
  -23.6790  -29.8280   20.1610 C   0  0  0  0  0  2  0  0  0  0  0  0
  -24.7390  -31.0780   22.0870 N   0  0  0  0  0  0  0  0  0  0  0  0
  -23.5970  -32.1500   23.7330 O   0  0  0  0  0  0  0  0  0  0  0  0
  -22.8140  -29.4650   22.5060 C   0  0  0  0  0  0  0  0  0  0  0  0
  -21.4870  -29.2850   22.3870 N   0  0  0  0  0  0  0  0  0  0  0  0
  -23.4990  -28.8360   23.3160 O   0  0  0  0  0  0  0  0  0  0  0  0
  -20.9920  -29.8440   21.7070 H   0  0  0  0  0  0  0  0  0  0  0  0
  -18.1180  -28.0670   22.9030 C   0  0  0  0  0  0  0  0  0  0  0  0
  -20.6770  -28.3380   23.1560 C   0  0  0  0  0  3  0  0  0  0  0  0
  -20.7820  -26.9110   22.5720 C   0  0  0  0  0  2  0  0  0  0  0  0
  -19.6740  -26.5890   21.5620 C   0  0  0  0  0  2  0  0  0  0  0  0
  -18.2970  -26.7230   22.2160 C   0  0  0  0  0  2  0  0  0  0  0  0
  -19.2360  -28.8320   23.3300 C   0  0  0  0  0  0  0  0  0  0  0  0
  -19.0150  -30.0900   23.9330 C   0  0  0  0  0  3  0  0  0  0  0  0
  -17.7090  -30.5830   24.1110 C   0  0  0  0  0  3  0  0  0  0  0  0
  -16.6050  -29.8150   23.6990 C   0  0  0  0  0  3  0  0  0  0  0  0
  -16.8110  -28.5590   23.1000 C   0  0  0  0  0  3  0  0  0  0  0  0
  -25.9610  -32.5140   23.8090 C   0  0  0  0  0  3  0  0  0  0  0  0
  -25.6480  -33.9090   24.1520 N   0  0  0  0  0  0  0  0  0  0  0  0
  -25.9720  -34.9700   23.4020 C   0  0  0  0  0  0  0  0  0  0  0  0
  -26.6350  -34.8790   22.3660 O   0  0  0  0  0  0  0  0  0  0  0  0
  -25.0570  -34.0530   24.9580 H   0  0  0  0  0  0  0  0  0  0  0  0
  -24.2380  -36.7640   23.0750 C   0  0  0  0  0  1  0  0  0  0  0  0
  -25.4850  -36.3530   23.8750 C   0  0  0  0  0  3  0  0  0  0  0  0
  -27.6210  -37.2360   24.7050 C   0  0  0  0  0  1  0  0  0  0  0  0
  -26.5140  -37.4100   23.7680 N   0  0  0  0  0  0  0  0  0  0  0  0
  -26.1070  -38.3280   23.9230 H   0  0  0  0  0  0  0  0  0  0  0  0
  -26.4880  -31.7360   25.0770 C   0  0  1  0  0  0  0  0  0  0  0  0
  -25.4020  -31.4890   26.1510 C   0  0  0  0  0  1  0  0  0  0  0  0
  -27.0730  -30.3620   24.6750 C   0  0  0  0  0  1  0  0  0  0  0  0
  -27.6400  -32.5300   25.7370 C   0  0  0  0  0  1  0  0  0  0  0  0
  1  3  2  0
  1  2  1  0
  2  6  2  0
  4  5  1  0
  4  1  1  0
  5  2  1  0
  7  9  1  0
  8 10  2  0
  8 11  1  0
 10 12  1  0
 11  5  1  0
 11  7  2  0
 12 21  1  0
 12  9  2  0
 13 21  1  0
 14 19  1  0
 15 16  1  0
 15 14  1  0
 17 16  1  0
 17 26  1  0
 17 18  1  0
 19 13  1  0
 19 18  1  0
 20 13  2  0
 21 22  1  0
 23 24  2  0
 24 43  1  0
 25 24  1  0
 25 28  1  0
 26 27  1  0
 26 23  1  0
 27 25  2  0
 28 29  1  0
 29 30  2  0
 31 34  1  0
 31 30  1  0
 32 31  2  0
 33 32  1  0
 33 28  2  0
 34 35  1  0
 35 36  1  0
 36 37  2  0
 38 37  1  0
 38 42  1  0
 39 38  2  0
 40 35  2  0
 40 39  1  0
 41 40  1  0
 43 44  1  0
 44 47  1  0
 44 46  1  0
 45 43  2  0
 48 23  1  0
 48 49  1  0
 50 48  1  0
 51  3  1  0
 52 63  2  0
 53 51  1  0
 53 58  1  0
 54 62  1  0
 54 64  1  0
 55 61  1  0
 55 57  1  0
 56 62  1  0
 57 56  1  0
 58 57  2  0
 59 60  1  0
 59 53  2  0
 60 55  2  0
 61 54  1  0
 62 52  1  0
 64 66  2  0
 65 64  1  0
 67 65  1  0
 68 77  2  0
 68 73  1  0
 69 65  1  0
 69 73  1  0
 70 69  1  0
 71 72  1  0
 71 70  1  0
 72 68  1  0
 73 74  2  0
 74 75  1  0
 76 75  2  0
 77 76  1  0
 78 52  1  0
 78 79  1  0
 78 88  1  0
 79 82  1  0
 80 84  1  0
 80 79  1  0
 81 80  2  0
 84 83  1  0
 86 84  1  0
 86 87  1  0
 86 85  1  0
 88 91  1  1
 88 89  1  0
 90 88  1  0
M  ISO  4   3 101  13 100  21 100  51 101
M  END
>  <TORSDO>  (6) 
F 17

>  <SCORE>  (6) 
-13.947

>  <name>  (6) 
5

>  <ligand_id>  (6) 
5

>  <original_smiles>  (6) 
[H]C(Oc1c([H])c([H])c2c(c1[H])C([H])([H])N(C(=O)C([H])(N([H])C(=O)C([H])(N([H])C([H])([H])[H])C([H])([H])[H])C(C([H])([H])[H])(C([H])([H])[H])C([H])([H])[H])C([H])(C(=O)N([H])C1([H])c3c([H])c([H])c([H])c([H])c3C([H])([H])C([H])([H])C1([H])[H])C2([H])[H])=C1C(=O)N(c2c([H])c([H])c(N([H])C(=O)N3C([H])([H])C([H])([H])C([H])([H])C([H])(n4nc(-c5c([H])c([H])c(Oc6c([H])c([H])c(F)c([H])c6F)c([H])c5[H])c(C(=O)N([H])[H])c4N([H])[H])C3([H])[H])c([H])c2[H])C1([H])[H]

>  <smiles>  (6) 
[H]C(Oc1c([H])c([H])c2c(c1[H])C([H])([H])N(C(=O)C([H])(N([H])C(=O)C([H])(N([H])C([H])([H])[H])C([H])([H])[H])C(C([H])([H])[H])(C([H])([H])[H])C([H])([H])[H])C([H])(C(=O)N([H])C1([H])c3c([H])c([H])c([H])c([H])c3C([H])([H])C([H])([H])C1([H])[H])C2([H])[H])=C1C(=O)N(c2c([H])c([H])c(N([H])C(=O)N3C([H])([H])C([H])([H])C([H])([H])C([H])(n4nc(-c5c([H])c([H])c(Oc6c([H])c([H])c(F)c([H])c6F)c([H])c5[H])c(C(=O)N([H])[H])c4N([H])[H])C3([H])[H])c([H])c2[H])C1([H])[H]

$$$$
6:0:0
     RDKit          3D

 86 94  0  0  1  0  0  0  0  0999 V2000
  -28.4930  -19.7250   20.2740 C   0  0  0  0  0  2  0  0  0  0  0  0
  -30.7320  -19.2220   20.2800 C   0  0  0  0  0  3  0  0  0  0  0  0
  -29.5410  -18.5150   20.2780 C   0  0  0  0  0  0  0  0  0  0  0  0
  -28.8380  -21.1940   20.2870 C   0  0  0  0  0  0  0  0  0  0  0  0
  -30.5970  -21.0460   20.2790 S   0  0  0  0  0  0  0  0  0  0  0  0
  -30.2830  -15.5510   20.2040 C   0  0  0  0  0  0  0  0  0  0  0  0
  -30.3740  -13.0610   19.3360 C   0  0  0  0  0  2  0  0  0  0  0  0
  -29.4390  -12.7280   18.1410 C   0  0  0  0  0  2  0  0  0  0  0  0
  -28.0210  -12.3920   18.6250 C   0  0  0  0  0  2  0  0  0  0  0  0
  -27.5410  -13.3780   19.7170 C   0  0  0  0  0  3  0  0  0  0  0  0
  -28.5970  -13.6110   20.8170 C   0  0  0  0  0  2  0  0  0  0  0  0
  -29.7720  -14.2030   20.1410 N   0  0  0  0  0  0  0  0  0  0  0  0
  -31.5120  -15.5450   20.0090 O   0  0  0  0  0  0  0  0  0  0  0  0
  -29.4600  -16.8360   20.2880 N   0  0  0  0  0  0  0  0  0  0  0  0
  -28.4970  -16.5360   20.3530 H   0  0  0  0  0  0  0  0  0  0  0  0
  -25.1850  -13.8970   20.5280 C   0  0  0  0  0  0  0  0  0  0  0  0
  -24.1340  -13.1060   20.8930 C   0  0  0  0  0  0  0  0  0  0  0  0
  -24.6140  -11.7590   20.8420 C   0  0  0  0  0  0  0  0  0  0  0  0
  -26.2310  -13.0370   20.2510 N   0  0  0  0  0  0  0  0  0  0  0  0
  -25.9010  -11.7440   20.5100 N   0  0  0  0  0  0  0  0  0  0  0  0
  -23.9030  -10.4880   21.0280 C   0  0  0  0  0  0  0  0  0  0  0  0
  -24.3430   -9.5220   21.9580 C   0  0  0  0  0  3  0  0  0  0  0  0
  -23.6250   -8.3190   22.1350 C   0  0  0  0  0  3  0  0  0  0  0  0
  -22.4550   -8.0720   21.3800 C   0  0  0  0  0  0  0  0  0  0  0  0
  -22.0330   -9.0280   20.4390 C   0  0  0  0  0  3  0  0  0  0  0  0
  -22.7530  -10.2210   20.2610 C   0  0  0  0  0  3  0  0  0  0  0  0
  -21.7090   -6.9230   21.4660 O   0  0  0  0  0  0  0  0  0  0  0  0
  -21.6460   -6.1900   22.6230 C   0  0  0  0  0  0  0  0  0  0  0  0
  -21.1720   -6.7440   23.8320 C   0  0  0  0  0  3  0  0  0  0  0  0
  -21.0610   -5.9370   24.9810 C   0  0  0  0  0  3  0  0  0  0  0  0
  -21.4130   -4.5750   24.9220 C   0  0  0  0  0  0  0  0  0  0  0  0
  -21.8820   -4.0200   23.7180 C   0  0  0  0  0  3  0  0  0  0  0  0
  -21.9950   -4.8250   22.5710 C   0  0  0  0  0  0  0  0  0  0  0  0
  -22.4260   -4.2820   21.4080 F   0  0  0  0  0  0  0  0  0  0  0  0
  -21.3000   -3.7960   26.0230 F   0  0  0  0  0  0  0  0  0  0  0  0
  -22.7360  -13.5640   21.1860 C   0  0  0  0  0  0  0  0  0  0  0  0
  -22.0270  -12.8550   22.0580 N   0  0  0  0  0  0  0  0  0  0  0  0
  -22.2820  -14.5880   20.6730 O   0  0  0  0  0  0  0  0  0  0  0  0
  -22.4080  -12.0240   22.4880 H   0  0  0  0  0  0  0  0  0  0  0  0
  -21.0910  -13.1460   22.3020 H   0  0  0  0  0  0  0  0  0  0  0  0
  -25.3410  -15.2720   20.3870 N   0  0  0  0  0  0  0  0  0  0  0  0
  -24.5990  -15.9290   20.6010 H   0  0  0  0  0  0  0  0  0  0  0  0
  -26.2170  -15.7250   20.1730 H   0  0  0  0  0  0  0  0  0  0  0  0
  -28.0170  -22.6650   20.3250 C   0  0  0  0  0  0  0  0  0  0  0  0
  -27.6790  -24.1560   20.3460 C   0  0  0  0  0  3  0  0  0  0  0  0
  -28.0930  -25.6740   20.3370 O   0  0  0  0  0  0  0  0  0  0  0  0
  -24.6480  -31.9080   23.2620 C   0  0  0  0  0  0  0  0  0  0  0  0
  -27.1510  -26.8790   20.2890 C   0  0  0  0  0  0  0  0  0  0  0  0
  -23.4540  -30.5150   21.6270 C   0  0  0  0  0  3  0  0  0  0  0  0
  -24.8990  -28.8740   20.2160 C   0  0  0  0  0  0  0  0  0  0  0  0
  -26.0330  -30.6580   21.5180 C   0  0  0  0  0  2  0  0  0  0  0  0
  -26.0890  -29.2330   20.8640 C   0  0  0  0  0  0  0  0  0  0  0  0
  -27.2020  -28.2540   20.8840 C   0  0  0  0  0  3  0  0  0  0  0  0
  -25.9490  -26.7270   19.5550 C   0  0  0  0  0  3  0  0  0  0  0  0
  -24.8650  -27.6470   19.5360 C   0  0  0  0  0  3  0  0  0  0  0  0
  -23.6950  -29.8180   20.2590 C   0  0  0  0  0  2  0  0  0  0  0  0
  -24.7330  -31.0610   22.1850 N   0  0  0  0  0  0  0  0  0  0  0  0
  -23.5570  -32.2140   23.7720 O   0  0  0  0  0  0  0  0  0  0  0  0
  -22.7410  -29.5320   22.5940 C   0  0  0  0  0  0  0  0  0  0  0  0
  -21.4090  -29.3760   22.4630 N   0  0  0  0  0  0  0  0  0  0  0  0
  -23.3940  -28.9090   23.4380 O   0  0  0  0  0  0  0  0  0  0  0  0
  -20.9320  -29.9260   21.7600 H   0  0  0  0  0  0  0  0  0  0  0  0
  -18.0180  -28.1740   22.9630 C   0  0  0  0  0  0  0  0  0  0  0  0
  -20.5770  -28.4490   23.2380 C   0  0  0  0  0  3  0  0  0  0  0  0
  -20.6820  -27.0080   22.6860 C   0  0  0  0  0  2  0  0  0  0  0  0
  -19.5890  -26.6730   21.6650 C   0  0  0  0  0  2  0  0  0  0  0  0
  -18.2020  -26.8200   22.2960 C   0  0  0  0  0  2  0  0  0  0  0  0
  -19.1330  -28.9450   23.3910 C   0  0  0  0  0  0  0  0  0  0  0  0
  -18.9040  -30.2080   23.9770 C   0  0  0  0  0  3  0  0  0  0  0  0
  -17.5960  -30.7050   24.1330 C   0  0  0  0  0  3  0  0  0  0  0  0
  -16.4960  -29.9340   23.7180 C   0  0  0  0  0  3  0  0  0  0  0  0
  -16.7080  -28.6690   23.1410 C   0  0  0  0  0  3  0  0  0  0  0  0
  -25.9180  -32.5540   23.8970 C   0  0  0  0  0  3  0  0  0  0  0  0
  -25.6010  -33.9560   24.2220 N   0  0  0  0  0  0  0  0  0  0  0  0
  -25.9230  -35.0150   23.4640 C   0  0  0  0  0  0  0  0  0  0  0  0
  -26.5780  -34.9120   22.4230 O   0  0  0  0  0  0  0  0  0  0  0  0
  -25.0220  -34.1070   25.0330 H   0  0  0  0  0  0  0  0  0  0  0  0
  -24.1850  -36.8110   23.1610 C   0  0  0  0  0  1  0  0  0  0  0  0
  -25.4500  -36.4060   23.9350 C   0  0  0  0  0  3  0  0  0  0  0  0
  -27.6020  -37.3030   24.7070 C   0  0  0  0  0  1  0  0  0  0  0  0
  -26.4780  -37.4610   23.7880 N   0  0  0  0  0  0  0  0  0  0  0  0
  -26.0730  -38.3820   23.9340 H   0  0  0  0  0  0  0  0  0  0  0  0
  -26.4100  -31.7970   25.1940 C   0  0  1  0  0  0  0  0  0  0  0  0
  -25.2990  -31.5810   26.2480 C   0  0  0  0  0  1  0  0  0  0  0  0
  -26.9960  -30.4100   24.8470 C   0  0  0  0  0  1  0  0  0  0  0  0
  -27.5540  -32.5980   25.8590 C   0  0  0  0  0  1  0  0  0  0  0  0
  1  3  1  0
  1  4  1  0
  3  2  2  0
  3 14  1  0
  4 44  2  0
  5  2  1  0
  5  4  1  0
  6 14  1  0
  7 12  1  0
  8  9  1  0
  8  7  1  0
 10  9  1  0
 10 19  1  0
 10 11  1  0
 12  6  1  0
 12 11  1  0
 13  6  2  0
 14 15  1  0
 16 17  2  0
 17 36  1  0
 18 17  1  0
 18 21  1  0
 19 20  1  0
 19 16  1  0
 20 18  2  0
 21 22  1  0
 22 23  2  0
 24 27  1  0
 24 23  1  0
 25 24  2  0
 26 25  1  0
 26 21  2  0
 27 28  1  0
 28 29  1  0
 29 30  2  0
 31 30  1  0
 31 35  1  0
 32 31  2  0
 33 28  2  0
 33 32  1  0
 34 33  1  0
 36 37  1  0
 37 40  1  0
 37 39  1  0
 38 36  2  0
 41 16  1  0
 41 42  1  0
 43 41  1  0
 44 45  2  0
 46 45  1  0
 47 58  2  0
 48 46  1  0
 48 53  1  0
 49 57  1  0
 49 59  1  0
 50 56  1  0
 50 52  1  0
 51 57  1  0
 52 53  2  0
 52 51  1  0
 54 48  2  0
 55 54  1  0
 55 50  2  0
 56 49  1  0
 57 47  1  0
 59 61  2  0
 60 59  1  0
 62 60  1  0
 63 72  2  0
 63 68  1  0
 64 60  1  0
 64 68  1  0
 65 64  1  0
 66 67  1  0
 66 65  1  0
 67 63  1  0
 68 69  2  0
 69 70  1  0
 71 70  2  0
 72 71  1  0
 73 47  1  0
 73 74  1  0
 73 83  1  0
 74 77  1  0
 75 79  1  0
 75 74  1  0
 76 75  2  0
 79 78  1  0
 81 82  1  0
 81 79  1  0
 81 80  1  0
 83 86  1  1
 83 84  1  0
 85 83  1  0
M  ISO  4   6 100  14 100  45 101  46 101
M  END
>  <TORSDO>  (7) 
F 17

>  <SCORE>  (7) 
-15.354

>  <name>  (7) 
6

>  <ligand_id>  (7) 
6

>  <original_smiles>  (7) 
[H]C(Oc1c([H])c([H])c2c(c1[H])C([H])([H])N(C(=O)C([H])(N([H])C(=O)C([H])(N([H])C([H])([H])[H])C([H])([H])[H])C(C([H])([H])[H])(C([H])([H])[H])C([H])([H])[H])C([H])(C(=O)N([H])C1([H])c3c([H])c([H])c([H])c([H])c3C([H])([H])C([H])([H])C1([H])[H])C2([H])[H])=C([H])c1sc([H])c(N([H])C(=O)N2C([H])([H])C([H])([H])C([H])([H])C([H])(n3nc(-c4c([H])c([H])c(Oc5c([H])c([H])c(F)c([H])c5F)c([H])c4[H])c(C(=O)N([H])[H])c3N([H])[H])C2([H])[H])c1[H]

>  <smiles>  (7) 
[H]C(Oc1c([H])c([H])c2c(c1[H])C([H])([H])N(C(=O)C([H])(N([H])C(=O)C([H])(N([H])C([H])([H])[H])C([H])([H])[H])C(C([H])([H])[H])(C([H])([H])[H])C([H])([H])[H])C([H])(C(=O)N([H])C1([H])c3c([H])c([H])c([H])c([H])c3C([H])([H])C([H])([H])C1([H])[H])C2([H])[H])=C([H])c1sc([H])c(N([H])C(=O)N2C([H])([H])C([H])([H])C([H])([H])C([H])(n3nc(-c4c([H])c([H])c(Oc5c([H])c([H])c(F)c([H])c5F)c([H])c4[H])c(C(=O)N([H])[H])c3N([H])[H])C2([H])[H])c1[H]

$$$$
7:0:0
     RDKit          3D

 91100  0  0  1  0  0  0  0  0999 V2000
  -28.4710  -23.6530   20.4080 C   0  0  0  0  0  0  0  0  0  0  0  0
  -28.1030  -22.3390   20.9930 C   0  0  0  0  0  0  0  0  0  0  0  0
  -27.9620  -24.9500   20.6530 C   0  0  0  0  0  3  0  0  0  0  0  0
  -29.5210  -22.9000   19.5520 C   0  0  0  0  0  2  0  0  0  0  0  0
  -29.0620  -21.6250   20.2130 N   0  0  0  0  0  0  0  0  0  0  0  0
  -27.2780  -22.0560   21.8370 O   0  0  0  0  0  0  0  0  0  0  0  0
  -31.4240  -19.0970   18.6050 C   0  0  0  0  0  3  0  0  0  0  0  0
  -30.7210  -20.2400   19.0180 C   0  0  0  0  0  3  0  0  0  0  0  0
  -31.1210  -17.8170   19.0920 C   0  0  0  0  0  3  0  0  0  0  0  0
  -29.3770  -18.8510   20.4310 C   0  0  0  0  0  3  0  0  0  0  0  0
  -29.6510  -20.2370   19.9500 C   0  0  0  0  0  0  0  0  0  0  0  0
  -30.1010  -17.6060   20.0440 C   0  0  0  0  0  0  0  0  0  0  0  0
  -30.6030  -14.9750   20.3220 C   0  0  0  0  0  0  0  0  0  0  0  0
  -30.4450  -12.6430   19.3890 C   0  0  0  0  0  2  0  0  0  0  0  0
  -29.5180  -12.6490   18.1520 C   0  0  0  0  0  2  0  0  0  0  0  0
  -28.0510  -12.4530   18.5750 C   0  0  0  0  0  2  0  0  0  0  0  0
  -27.6530  -13.3600   19.7710 C   0  0  0  0  0  3  0  0  0  0  0  0
  -28.7050  -13.3480   20.9000 C   0  0  0  0  0  2  0  0  0  0  0  0
  -29.9870  -13.7300   20.2980 N   0  0  0  0  0  0  0  0  0  0  0  0
  -31.8060  -15.0090   20.0490 O   0  0  0  0  0  0  0  0  0  0  0  0
  -29.8450  -16.1650   20.4780 N   0  0  0  0  0  0  0  0  0  0  0  0
  -28.9170  -16.0010   20.8420 H   0  0  0  0  0  0  0  0  0  0  0  0
  -25.2750  -13.9340   20.5170 C   0  0  0  0  0  0  0  0  0  0  0  0
  -24.2090  -13.1570   20.8770 C   0  0  0  0  0  0  0  0  0  0  0  0
  -24.6730  -11.8060   20.8380 C   0  0  0  0  0  0  0  0  0  0  0  0
  -26.3160  -13.0580   20.2670 N   0  0  0  0  0  0  0  0  0  0  0  0
  -25.9650  -11.7710   20.5270 N   0  0  0  0  0  0  0  0  0  0  0  0
  -23.9470  -10.5420   21.0150 C   0  0  0  0  0  0  0  0  0  0  0  0
  -24.3550   -9.5810   21.9660 C   0  0  0  0  0  3  0  0  0  0  0  0
  -23.6270   -8.3830   22.1300 C   0  0  0  0  0  3  0  0  0  0  0  0
  -22.4760   -8.1370   21.3430 C   0  0  0  0  0  0  0  0  0  0  0  0
  -22.0900   -9.0850   20.3800 C   0  0  0  0  0  3  0  0  0  0  0  0
  -22.8180  -10.2750   20.2140 C   0  0  0  0  0  3  0  0  0  0  0  0
  -21.7210   -6.9910   21.4170 O   0  0  0  0  0  0  0  0  0  0  0  0
  -21.6090   -6.2760   22.5840 C   0  0  0  0  0  0  0  0  0  0  0  0
  -21.0810   -6.8500   23.7620 C   0  0  0  0  0  3  0  0  0  0  0  0
  -20.9180   -6.0600   24.9170 C   0  0  0  0  0  3  0  0  0  0  0  0
  -21.2760   -4.6980   24.8960 C   0  0  0  0  0  0  0  0  0  0  0  0
  -21.7960   -4.1250   23.7220 C   0  0  0  0  0  3  0  0  0  0  0  0
  -21.9600   -4.9110   22.5690 C   0  0  0  0  0  0  0  0  0  0  0  0
  -22.4410   -4.3490   21.4340 F   0  0  0  0  0  0  0  0  0  0  0  0
  -21.1120   -3.9360   26.0020 F   0  0  0  0  0  0  0  0  0  0  0  0
  -22.8120  -13.6310   21.1500 C   0  0  0  0  0  0  0  0  0  0  0  0
  -22.0780  -12.9230   22.0010 N   0  0  0  0  0  0  0  0  0  0  0  0
  -22.3790  -14.6640   20.6420 O   0  0  0  0  0  0  0  0  0  0  0  0
  -22.4410  -12.0850   22.4330 H   0  0  0  0  0  0  0  0  0  0  0  0
  -21.1410  -13.2240   22.2280 H   0  0  0  0  0  0  0  0  0  0  0  0
  -25.4410  -15.3070   20.3550 N   0  0  0  0  0  0  0  0  0  0  0  0
  -24.6840  -15.9690   20.4860 H   0  0  0  0  0  0  0  0  0  0  0  0
  -26.2900  -15.7420   20.0190 H   0  0  0  0  0  0  0  0  0  0  0  0
  -28.2610  -26.2930   20.1840 O   0  0  0  0  0  0  0  0  0  0  0  0
  -24.6200  -31.9030   23.2330 C   0  0  0  0  0  0  0  0  0  0  0  0
  -27.2150  -27.2690   20.1660 C   0  0  0  0  0  0  0  0  0  0  0  0
  -23.4190  -30.5110   21.5900 C   0  0  0  0  0  3  0  0  0  0  0  0
  -24.8750  -28.9650   20.1470 C   0  0  0  0  0  0  0  0  0  0  0  0
  -25.9690  -30.8080   21.4130 C   0  0  0  0  0  2  0  0  0  0  0  0
  -26.0520  -29.4230   20.7580 C   0  0  0  0  0  0  0  0  0  0  0  0
  -27.2270  -28.5900   20.7560 C   0  0  0  0  0  3  0  0  0  0  0  0
  -26.0220  -26.9020   19.5120 C   0  0  0  0  0  3  0  0  0  0  0  0
  -24.8720  -27.7160   19.5060 C   0  0  0  0  0  3  0  0  0  0  0  0
  -23.6380  -29.8450   20.2050 C   0  0  0  0  0  2  0  0  0  0  0  0
  -24.6890  -31.0940   22.1350 N   0  0  0  0  0  0  0  0  0  0  0  0
  -23.5340  -32.1770   23.7670 O   0  0  0  0  0  0  0  0  0  0  0  0
  -22.7580  -29.4890   22.5480 C   0  0  0  0  0  0  0  0  0  0  0  0
  -21.4310  -29.3030   22.4220 N   0  0  0  0  0  0  0  0  0  0  0  0
  -23.4370  -28.8670   23.3670 O   0  0  0  0  0  0  0  0  0  0  0  0
  -20.9380  -29.8600   21.7380 H   0  0  0  0  0  0  0  0  0  0  0  0
  -18.0610  -28.0780   22.9330 C   0  0  0  0  0  0  0  0  0  0  0  0
  -20.6190  -28.3560   23.1920 C   0  0  0  0  0  3  0  0  0  0  0  0
  -20.7280  -26.9270   22.6100 C   0  0  0  0  0  2  0  0  0  0  0  0
  -19.6240  -26.6010   21.5990 C   0  0  0  0  0  2  0  0  0  0  0  0
  -18.2440  -26.7340   22.2490 C   0  0  0  0  0  2  0  0  0  0  0  0
  -19.1760  -28.8460   23.3620 C   0  0  0  0  0  0  0  0  0  0  0  0
  -18.9510  -30.1030   23.9650 C   0  0  0  0  0  3  0  0  0  0  0  0
  -17.6420  -30.5920   24.1410 C   0  0  0  0  0  3  0  0  0  0  0  0
  -16.5420  -29.8240   23.7250 C   0  0  0  0  0  3  0  0  0  0  0  0
  -16.7520  -28.5680   23.1280 C   0  0  0  0  0  3  0  0  0  0  0  0
  -25.8970  -32.5400   23.8570 C   0  0  0  0  0  3  0  0  0  0  0  0
  -25.5840  -33.9410   24.1830 N   0  0  0  0  0  0  0  0  0  0  0  0
  -25.9130  -34.9940   23.4230 C   0  0  0  0  0  0  0  0  0  0  0  0
  -26.5810  -34.8900   22.3910 O   0  0  0  0  0  0  0  0  0  0  0  0
  -24.9920  -34.0960   24.9850 H   0  0  0  0  0  0  0  0  0  0  0  0
  -24.1900  -36.7930   23.0650 C   0  0  0  0  0  1  0  0  0  0  0  0
  -25.4280  -36.3840   23.8800 C   0  0  0  0  0  3  0  0  0  0  0  0
  -27.5590  -37.2720   24.7180 C   0  0  0  0  0  1  0  0  0  0  0  0
  -26.4630  -37.4360   23.7660 N   0  0  0  0  0  0  0  0  0  0  0  0
  -26.0590  -38.3580   23.9040 H   0  0  0  0  0  0  0  0  0  0  0  0
  -26.4100  -31.7760   25.1400 C   0  0  1  0  0  0  0  0  0  0  0  0
  -25.3110  -31.5450   26.2040 C   0  0  0  0  0  1  0  0  0  0  0  0
  -26.9950  -30.3960   24.7620 C   0  0  0  0  0  1  0  0  0  0  0  0
  -27.5570  -32.5740   25.8030 C   0  0  0  0  0  1  0  0  0  0  0  0
  1  3  2  0
  1  2  1  0
  2  6  2  0
  4  5  1  0
  4  1  1  0
  5  2  1  0
  7  8  2  0
  7  9  1  0
  8 11  1  0
  9 12  2  0
 11  5  1  0
 11 10  2  0
 12 10  1  0
 12 21  1  0
 13 21  1  0
 14 19  1  0
 15 16  1  0
 15 14  1  0
 17 16  1  0
 17 26  1  0
 17 18  1  0
 19 13  1  0
 19 18  1  0
 20 13  2  0
 21 22  1  0
 23 24  2  0
 24 43  1  0
 25 24  1  0
 25 28  1  0
 26 23  1  0
 26 27  1  0
 27 25  2  0
 28 29  1  0
 29 30  2  0
 31 34  1  0
 31 30  1  0
 32 31  2  0
 33 32  1  0
 33 28  2  0
 34 35  1  0
 35 36  1  0
 36 37  2  0
 38 37  1  0
 38 42  1  0
 39 38  2  0
 40 35  2  0
 40 39  1  0
 41 40  1  0
 43 44  1  0
 44 47  1  0
 44 46  1  0
 45 43  2  0
 48 49  1  0
 48 23  1  0
 50 48  1  0
 51  3  1  0
 52 63  2  0
 53 51  1  0
 53 58  1  0
 54 62  1  0
 54 64  1  0
 55 61  1  0
 55 57  1  0
 56 62  1  0
 57 56  1  0
 58 57  2  0
 59 53  2  0
 60 59  1  0
 60 55  2  0
 61 54  1  0
 62 52  1  0
 64 66  2  0
 65 64  1  0
 67 65  1  0
 68 77  2  0
 68 73  1  0
 69 65  1  0
 69 73  1  0
 70 69  1  0
 71 72  1  0
 71 70  1  0
 72 68  1  0
 73 74  2  0
 74 75  1  0
 76 75  2  0
 77 76  1  0
 78 52  1  0
 78 79  1  0
 78 88  1  0
 79 82  1  0
 80 84  1  0
 80 79  1  0
 81 80  2  0
 84 83  1  0
 86 84  1  0
 86 87  1  0
 86 85  1  0
 88 91  1  1
 88 89  1  0
 90 88  1  0
M  ISO  4   3 101  13 100  21 100  51 101
M  END
>  <TORSDO>  (8) 
F 17

>  <SCORE>  (8) 
-14.926

>  <name>  (8) 
7

>  <ligand_id>  (8) 
7

>  <original_smiles>  (8) 
[H]C(Oc1c([H])c([H])c2c(c1[H])C([H])([H])N(C(=O)C([H])(N([H])C(=O)C([H])(N([H])C([H])([H])[H])C([H])([H])[H])C(C([H])([H])[H])(C([H])([H])[H])C([H])([H])[H])C([H])(C(=O)N([H])C1([H])c3c([H])c([H])c([H])c([H])c3C([H])([H])C([H])([H])C1([H])[H])C2([H])[H])=C1C(=O)N(c2c([H])c([H])c([H])c(N([H])C(=O)N3C([H])([H])C([H])([H])C([H])([H])C([H])(n4nc(-c5c([H])c([H])c(Oc6c([H])c([H])c(F)c([H])c6F)c([H])c5[H])c(C(=O)N([H])[H])c4N([H])[H])C3([H])[H])c2[H])C1([H])[H]

>  <smiles>  (8) 
[H]C(Oc1c([H])c([H])c2c(c1[H])C([H])([H])N(C(=O)C([H])(N([H])C(=O)C([H])(N([H])C([H])([H])[H])C([H])([H])[H])C(C([H])([H])[H])(C([H])([H])[H])C([H])([H])[H])C([H])(C(=O)N([H])C1([H])c3c([H])c([H])c([H])c([H])c3C([H])([H])C([H])([H])C1([H])[H])C2([H])[H])=C1C(=O)N(c2c([H])c([H])c([H])c(N([H])C(=O)N3C([H])([H])C([H])([H])C([H])([H])C([H])(n4nc(-c5c([H])c([H])c(Oc6c([H])c([H])c(F)c([H])c6F)c([H])c5[H])c(C(=O)N([H])[H])c4N([H])[H])C3([H])[H])c2[H])C1([H])[H]

$$$$
8:0:0
     RDKit          3D

 92102  0  0  1  0  0  0  0  0999 V2000
  -29.6960  -22.9480   20.8900 C   0  0  0  0  0  3  0  0  0  0  0  0
  -28.6090  -23.7090   20.5980 C   0  0  0  0  0  3  0  0  0  0  0  0
  -27.9860  -22.5520   20.2730 C   0  0  1  0  0  0  0  0  0  0  0  0
  -29.0800  -21.7260   20.5510 N   0  0  0  0  0  0  0  0  0  0  0  0
  -26.8180  -22.3690   19.9500 O   0  0  0  0  0  1  0  0  0  0  0  0
  -30.6230  -19.6590   20.9220 C   0  0  0  0  0  3  0  0  0  0  0  0
  -28.3650  -19.2780   20.3760 C   0  0  0  0  0  3  0  0  0  0  0  0
  -30.8790  -18.2400   20.9290 C   0  0  0  0  0  3  0  0  0  0  0  0
  -28.5990  -17.8660   20.3780 C   0  0  0  0  0  3  0  0  0  0  0  0
  -29.3610  -20.2680   20.6170 C   0  0  0  0  0  0  0  0  0  0  0  0
  -29.8710  -17.2790   20.6340 C   0  0  0  0  0  0  0  0  0  0  0  0
  -30.7790  -14.8310   21.0090 C   0  0  0  0  0  0  0  0  0  0  0  0
  -30.7220  -12.4610   20.2380 C   0  0  0  0  0  2  0  0  0  0  0  0
  -29.9210  -12.3300   18.9220 C   0  0  0  0  0  2  0  0  0  0  0  0
  -28.4040  -12.2470   19.1810 C   0  0  0  0  0  2  0  0  0  0  0  0
  -27.8840  -13.2410   20.2560 C   0  0  0  0  0  3  0  0  0  0  0  0
  -28.8150  -13.2950   21.4860 C   0  0  0  0  0  2  0  0  0  0  0  0
  -30.1660  -13.5970   20.9990 N   0  0  0  0  0  0  0  0  0  0  0  0
  -32.0070  -14.9020   21.1120 O   0  0  0  0  0  0  0  0  0  0  0  0
  -30.1060  -15.8460   20.3200 N   0  0  0  0  0  0  0  0  0  0  0  0
  -25.4300  -13.8580   20.6920 C   0  0  0  0  0  0  0  0  0  0  0  0
  -24.3270  -13.0960   20.9640 C   0  0  0  0  0  0  0  0  0  0  0  0
  -24.7910  -11.7470   21.0450 C   0  0  0  0  0  0  0  0  0  0  0  0
  -26.4950  -12.9730   20.6160 N   0  0  0  0  0  0  0  0  0  0  0  0
  -26.1090  -11.7040   20.8980 N   0  0  0  0  0  0  0  0  0  0  0  0
  -24.0480  -10.4890   21.1960 C   0  0  0  0  0  0  0  0  0  0  0  0
  -24.4020   -9.5360   22.1760 C   0  0  0  0  0  3  0  0  0  0  0  0
  -23.6610   -8.3430   22.3150 C   0  0  0  0  0  3  0  0  0  0  0  0
  -22.5520   -8.0940   21.4730 C   0  0  0  0  0  0  0  0  0  0  0  0
  -22.2180   -9.0340   20.4820 C   0  0  0  0  0  3  0  0  0  0  0  0
  -22.9600  -10.2190   20.3410 C   0  0  0  0  0  3  0  0  0  0  0  0
  -21.7910   -6.9510   21.5180 O   0  0  0  0  0  0  0  0  0  0  0  0
  -21.6700   -6.2120   22.6670 C   0  0  0  0  0  0  0  0  0  0  0  0
  -21.1640   -6.7700   23.8620 C   0  0  0  0  0  3  0  0  0  0  0  0
  -20.9910   -5.9570   25.0000 C   0  0  0  0  0  3  0  0  0  0  0  0
  -21.3140   -4.5890   24.9450 C   0  0  0  0  0  0  0  0  0  0  0  0
  -21.8130   -4.0300   23.7540 C   0  0  0  0  0  3  0  0  0  0  0  0
  -21.9870   -4.8400   22.6180 C   0  0  0  0  0  0  0  0  0  0  0  0
  -22.4480   -4.2910   21.4670 F   0  0  0  0  0  0  0  0  0  0  0  0
  -21.1410   -3.8050   26.0360 F   0  0  0  0  0  0  0  0  0  0  0  0
  -22.9070  -13.5760   21.0430 C   0  0  0  0  0  0  0  0  0  0  0  0
  -22.0860  -12.9240   21.8600 N   0  0  0  0  0  0  0  0  0  0  0  0
  -22.5280  -14.5640   20.4150 O   0  0  0  0  0  0  0  0  0  0  0  0
  -22.4010  -12.1270   22.3920 H   0  0  0  0  0  0  0  0  0  0  0  0
  -21.1260  -13.2270   21.9540 H   0  0  0  0  0  0  0  0  0  0  0  0
  -25.6160  -15.2200   20.4780 N   0  0  0  0  0  0  0  0  0  0  0  0
  -24.8470  -15.8820   20.4670 H   0  0  0  0  0  0  0  0  0  0  0  0
  -26.5090  -15.6440   20.2700 H   0  0  0  0  0  0  0  0  0  0  0  0
  -31.1420  -15.6100   18.1180 C   0  0  0  0  0  2  0  0  0  0  0  0
  -30.0650  -15.6950   18.9220 C   0  0  0  0  0  3  0  0  0  0  0  0
  -28.1150  -25.1860   20.9390 C   0  0  0  0  0  2  0  0  0  0  0  0
  -28.2510  -26.3710   20.0390 O   0  0  0  0  0  0  0  0  0  0  0  0
  -24.5940  -31.8210   23.1700 C   0  0  0  0  0  0  0  0  0  0  0  0
  -27.1680  -27.2730   20.0460 C   0  0  0  0  0  0  0  0  0  0  0  0
  -23.3760  -30.4520   21.5170 C   0  0  0  0  0  3  0  0  0  0  0  0
  -24.8150  -28.9100   20.0630 C   0  0  0  0  0  0  0  0  0  0  0  0
  -25.9170  -30.7570   21.3220 C   0  0  0  0  0  2  0  0  0  0  0  0
  -25.9920  -29.3850   20.6580 C   0  0  0  0  0  0  0  0  0  0  0  0
  -27.1750  -28.5820   20.6330 C   0  0  0  0  0  3  0  0  0  0  0  0
  -25.9690  -26.8540   19.4350 C   0  0  0  0  0  3  0  0  0  0  0  0
  -24.8080  -27.6500   19.4420 C   0  0  0  0  0  3  0  0  0  0  0  0
  -23.5790  -29.7890   20.1290 C   0  0  0  0  0  2  0  0  0  0  0  0
  -24.6500  -31.0270   22.0600 N   0  0  0  0  0  0  0  0  0  0  0  0
  -23.5150  -32.0980   23.7110 O   0  0  0  0  0  0  0  0  0  0  0  0
  -22.7090  -29.4290   22.4670 C   0  0  0  0  0  0  0  0  0  0  0  0
  -21.3780  -29.2760   22.3550 N   0  0  0  0  0  0  0  0  0  0  0  0
  -23.3870  -28.7740   23.2620 O   0  0  0  0  0  0  0  0  0  0  0  0
  -20.8910  -29.8590   21.6890 H   0  0  0  0  0  0  0  0  0  0  0  0
  -17.9830  -28.1430   22.8880 C   0  0  0  0  0  0  0  0  0  0  0  0
  -20.5520  -28.3370   23.1140 C   0  0  0  0  0  3  0  0  0  0  0  0
  -20.6100  -26.9200   22.4990 C   0  0  0  0  0  2  0  0  0  0  0  0
  -19.4810  -26.6490   21.4990 C   0  0  0  0  0  2  0  0  0  0  0  0
  -18.1160  -26.8070   22.1750 C   0  0  0  0  0  2  0  0  0  0  0  0
  -19.1270  -28.8680   23.3150 C   0  0  0  0  0  0  0  0  0  0  0  0
  -18.9480  -30.1180   23.9450 C   0  0  0  0  0  3  0  0  0  0  0  0
  -17.6580  -30.6440   24.1530 C   0  0  0  0  0  3  0  0  0  0  0  0
  -16.5290  -29.9140   23.7410 C   0  0  0  0  0  3  0  0  0  0  0  0
  -16.6920  -28.6660   23.1140 C   0  0  0  0  0  3  0  0  0  0  0  0
  -25.8820  -32.4380   23.7970 C   0  0  0  0  0  3  0  0  0  0  0  0
  -26.3980  -31.6440   25.0580 C   0  0  1  0  0  0  0  0  0  0  0  0
  -25.3100  -31.4040   26.1310 C   0  0  0  0  0  1  0  0  0  0  0  0
  -26.9600  -30.2640   24.6430 C   0  0  0  0  0  1  0  0  0  0  0  0
  -27.5660  -32.4130   25.7200 C   0  0  0  0  0  1  0  0  0  0  0  0
  -25.5790  -33.8330   24.1520 N   0  0  0  0  0  0  0  0  0  0  0  0
  -25.9310  -34.8980   23.4200 C   0  0  0  0  0  0  0  0  0  0  0  0
  -26.6130  -34.8100   22.3950 O   0  0  0  0  0  0  0  0  0  0  0  0
  -24.9770  -33.9740   24.9500 H   0  0  0  0  0  0  0  0  0  0  0  0
  -24.2340  -36.7220   23.0800 C   0  0  0  0  0  1  0  0  0  0  0  0
  -25.4550  -36.2820   23.9020 C   0  0  0  0  0  3  0  0  0  0  0  0
  -27.5830  -37.1220   24.7930 C   0  0  0  0  0  1  0  0  0  0  0  0
  -26.5040  -37.3220   23.8310 N   0  0  0  0  0  0  0  0  0  0  0  0
  -26.1080  -38.2440   23.9900 H   0  0  0  0  0  0  0  0  0  0  0  0
  1  4  1  0
  2  1  1  0
  2 51  1  0
  3  5  1  6
  3  4  1  0
  3  2  1  0
  3  1  1  0
  4 10  1  0
  6  8  1  0
  7  9  2  0
  7 10  1  0
  9 11  1  0
 10  6  2  0
 11  8  2  0
 12 19  2  0
 13 18  1  0
 14 15  1  0
 14 13  1  0
 16 15  1  0
 16 24  1  0
 16 17  1  0
 18 12  1  0
 18 17  1  0
 20 11  1  0
 20 12  1  0
 21 22  2  0
 22 41  1  0
 22 23  1  0
 23 26  1  0
 24 21  1  0
 24 25  1  0
 25 23  2  0
 26 27  1  0
 27 28  2  0
 29 32  1  0
 29 28  1  0
 30 29  2  0
 31 30  1  0
 31 26  2  0
 32 33  1  0
 33 34  1  0
 34 35  2  0
 36 35  1  0
 36 40  1  0
 37 36  2  0
 38 33  2  0
 38 37  1  0
 39 38  1  0
 41 42  1  0
 42 45  1  0
 42 44  1  0
 43 41  2  0
 46 21  1  0
 47 46  1  0
 48 46  1  0
 49 50  2  0
 50 20  1  0
 52 54  1  0
 52 51  1  0
 53 64  2  0
 54 59  1  0
 55 63  1  0
 55 65  1  0
 56 62  1  0
 56 58  1  0
 57 63  1  0
 58 57  1  0
 59 58  2  0
 60 61  1  0
 60 54  2  0
 61 56  2  0
 62 55  1  0
 63 53  1  0
 65 67  2  0
 66 65  1  0
 68 66  1  0
 69 78  2  0
 69 74  1  0
 70 66  1  0
 70 74  1  0
 71 70  1  0
 72 73  1  0
 72 71  1  0
 73 69  1  0
 74 75  2  0
 75 76  1  0
 77 76  2  0
 78 77  1  0
 79 53  1  0
 79 84  1  0
 79 80  1  0
 80 83  1  1
 80 81  1  0
 82 80  1  0
 84 87  1  0
 85 89  1  0
 85 84  1  0
 86 85  2  0
 89 88  1  0
 91 89  1  0
 91 92  1  0
 91 90  1  0
M  ISO  4  12 100  20 100  51 101  52 101
M  END
>  <TORSDO>  (9) 
F 19

>  <SCORE>  (9) 
-13.862

>  <name>  (9) 
8

>  <ligand_id>  (9) 
8

>  <original_smiles>  (9) 
[H]C([H])=C([H])N(C(=O)N1C([H])([H])C([H])([H])C([H])([H])C([H])(n2nc(-c3c([H])c([H])c(Oc4c([H])c([H])c(F)c([H])c4F)c([H])c3[H])c(C(=O)N([H])[H])c2N([H])[H])C1([H])[H])c1c([H])c([H])c(N2C(=O)C(C([H])([H])Oc3c([H])c([H])c4c(c3[H])C([H])([H])N(C(=O)C([H])(N([H])C(=O)C([H])(N([H])C([H])([H])[H])C([H])([H])[H])C(C([H])([H])[H])(C([H])([H])[H])C([H])([H])[H])C([H])(C(=O)N([H])C3([H])c5c([H])c([H])c([H])c([H])c5C([H])([H])C([H])([H])C3([H])[H])C4([H])[H])=C2[H])c([H])c1[H]

>  <smiles>  (9) 
[H]C([H])=C([H])N(C(=O)N1C([H])([H])C([H])([H])C([H])([H])C([H])(n2nc(-c3c([H])c([H])c(Oc4c([H])c([H])c(F)c([H])c4F)c([H])c3[H])c(C(=O)N([H])[H])c2N([H])[H])C1([H])[H])c1c([H])c([H])c(N2C(=O)C(C([H])([H])Oc3c([H])c([H])c4c(c3[H])C([H])([H])N(C(=O)C([H])(N([H])C(=O)C([H])(N([H])C([H])([H])[H])C([H])([H])[H])C(C([H])([H])[H])(C([H])([H])[H])C([H])([H])[H])C([H])(C(=O)N([H])C3([H])c5c([H])c([H])c([H])c([H])c5C([H])([H])C([H])([H])C3([H])[H])C4([H])[H])=C2[H])c([H])c1[H]

$$$$
9:0:0
     RDKit          3D

 93102  0  0  1  0  0  0  0  0999 V2000
  -28.5350  -24.0240   20.7140 C   0  0  0  0  0  0  0  0  0  0  0  0
  -28.5890  -21.7260   21.6020 C   0  0  0  0  0  0  0  0  0  0  0  0
  -28.2060  -25.3820   20.7420 C   0  0  0  0  0  3  0  0  0  0  0  0
  -28.1320  -23.1540   21.8770 C   0  0  0  0  0  2  0  0  0  0  0  0
  -29.2500  -22.9900   19.7700 C   0  0  0  0  0  2  0  0  0  0  0  0
  -29.2170  -21.5970   20.4130 N   0  0  0  0  0  0  0  0  0  0  0  0
  -28.3720  -20.8340   22.4290 O   0  0  0  0  0  0  0  0  0  0  0  0
  -31.0050  -19.2100   18.0320 C   0  0  0  0  0  3  0  0  0  0  0  0
  -30.9210  -17.9390   18.6450 C   0  0  0  0  0  3  0  0  0  0  0  0
  -30.4480  -20.3670   18.6210 C   0  0  0  0  0  3  0  0  0  0  0  0
  -29.7220  -18.9800   20.4670 C   0  0  0  0  0  3  0  0  0  0  0  0
  -30.2800  -17.7550   19.8910 C   0  0  0  0  0  0  0  0  0  0  0  0
  -29.7820  -20.3150   19.8650 C   0  0  0  0  0  0  0  0  0  0  0  0
  -30.1210  -16.3180   20.5180 C   0  0  0  0  0  0  0  0  0  0  0  0
  -29.3170  -16.2270   21.4930 N   0  0  0  0  0  0  0  0  0  0  0  0
  -28.8910  -17.1200   21.7040 H   0  0  0  0  0  0  0  0  0  0  0  0
  -30.9270  -15.0090   19.9870 C   0  0  0  0  0  0  0  0  0  0  0  0
  -30.7170  -12.7380   18.9520 C   0  0  0  0  0  2  0  0  0  0  0  0
  -29.7030  -12.8290   17.7870 C   0  0  0  0  0  2  0  0  0  0  0  0
  -28.2560  -12.6370   18.2890 C   0  0  0  0  0  2  0  0  0  0  0  0
  -27.9570  -13.4780   19.5600 C   0  0  0  0  0  3  0  0  0  0  0  0
  -29.0800  -13.3080   20.6020 C   0  0  0  0  0  2  0  0  0  0  0  0
  -30.3350  -13.7520   19.9700 N   0  0  0  0  0  0  0  0  0  0  0  0
  -32.0590  -15.1360   19.5030 O   0  0  0  0  0  0  0  0  0  0  0  0
  -25.6260  -14.0550   20.4620 C   0  0  0  0  0  0  0  0  0  0  0  0
  -24.5790  -13.2720   20.8650 C   0  0  0  0  0  0  0  0  0  0  0  0
  -25.0240  -11.9210   20.7400 C   0  0  0  0  0  0  0  0  0  0  0  0
  -26.6430  -13.1780   20.1190 N   0  0  0  0  0  0  0  0  0  0  0  0
  -26.2900  -11.8870   20.3430 N   0  0  0  0  0  0  0  0  0  0  0  0
  -24.2990  -10.6560   20.9200 C   0  0  0  0  0  0  0  0  0  0  0  0
  -24.7120   -9.6970   21.8710 C   0  0  0  0  0  3  0  0  0  0  0  0
  -23.9860   -8.4980   22.0380 C   0  0  0  0  0  3  0  0  0  0  0  0
  -22.8350   -8.2500   21.2540 C   0  0  0  0  0  0  0  0  0  0  0  0
  -22.4410   -9.1980   20.2930 C   0  0  0  0  0  3  0  0  0  0  0  0
  -23.1670  -10.3890   20.1250 C   0  0  0  0  0  3  0  0  0  0  0  0
  -22.0840   -7.1020   21.3280 O   0  0  0  0  0  0  0  0  0  0  0  0
  -21.9020   -6.4360   22.5140 C   0  0  0  0  0  0  0  0  0  0  0  0
  -21.3110   -7.0580   23.6350 C   0  0  0  0  0  3  0  0  0  0  0  0
  -21.0810   -6.3180   24.8120 C   0  0  0  0  0  3  0  0  0  0  0  0
  -21.4310   -4.9560   24.8670 C   0  0  0  0  0  0  0  0  0  0  0  0
  -22.0140   -4.3320   23.7490 C   0  0  0  0  0  3  0  0  0  0  0  0
  -22.2460   -5.0700   22.5750 C   0  0  0  0  0  0  0  0  0  0  0  0
  -22.7890   -4.4600   21.4940 F   0  0  0  0  0  0  0  0  0  0  0  0
  -21.2030   -4.2410   25.9930 F   0  0  0  0  0  0  0  0  0  0  0  0
  -23.2080  -13.7470   21.2540 C   0  0  0  0  0  0  0  0  0  0  0  0
  -22.5390  -13.0220   22.1450 N   0  0  0  0  0  0  0  0  0  0  0  0
  -22.7430  -14.7940   20.8060 O   0  0  0  0  0  0  0  0  0  0  0  0
  -22.9310  -12.1760   22.5290 H   0  0  0  0  0  0  0  0  0  0  0  0
  -21.6230  -13.3230   22.4490 H   0  0  0  0  0  0  0  0  0  0  0  0
  -25.7930  -15.4310   20.3430 N   0  0  0  0  0  0  0  0  0  0  0  0
  -25.0580  -16.0930   20.5640 H   0  0  0  0  0  0  0  0  0  0  0  0
  -26.6640  -15.8760   20.0790 H   0  0  0  0  0  0  0  0  0  0  0  0
  -28.3870  -26.5220   19.9180 O   0  0  0  0  0  0  0  0  0  0  0  0
  -24.7200  -31.9360   23.1320 C   0  0  0  0  0  0  0  0  0  0  0  0
  -27.3200  -27.4480   19.9220 C   0  0  0  0  0  0  0  0  0  0  0  0
  -23.4970  -30.5450   21.5010 C   0  0  0  0  0  3  0  0  0  0  0  0
  -24.9370  -29.0440   20.0040 C   0  0  0  0  0  0  0  0  0  0  0  0
  -26.0290  -30.9020   21.2560 C   0  0  0  0  0  2  0  0  0  0  0  0
  -26.1170  -29.5350   20.5800 C   0  0  0  0  0  0  0  0  0  0  0  0
  -27.3150  -28.7490   20.5300 C   0  0  0  0  0  3  0  0  0  0  0  0
  -26.1180  -27.0230   19.3200 C   0  0  0  0  0  3  0  0  0  0  0  0
  -24.9410  -27.7950   19.3630 C   0  0  0  0  0  3  0  0  0  0  0  0
  -23.6860  -29.8970   20.1040 C   0  0  0  0  0  2  0  0  0  0  0  0
  -24.7680  -31.1450   22.0190 N   0  0  0  0  0  0  0  0  0  0  0  0
  -23.6470  -32.1850   23.7000 O   0  0  0  0  0  0  0  0  0  0  0  0
  -22.8750  -29.5010   22.4620 C   0  0  0  0  0  0  0  0  0  0  0  0
  -21.5500  -29.2990   22.3640 N   0  0  0  0  0  0  0  0  0  0  0  0
  -23.5860  -28.8790   23.2560 O   0  0  0  0  0  0  0  0  0  0  0  0
  -21.0340  -29.8560   21.6970 H   0  0  0  0  0  0  0  0  0  0  0  0
  -18.2140  -28.0080   22.9140 C   0  0  0  0  0  0  0  0  0  0  0  0
  -20.7690  -28.3340   23.1410 C   0  0  0  0  0  3  0  0  0  0  0  0
  -20.8980  -26.9100   22.5500 C   0  0  0  0  0  2  0  0  0  0  0  0
  -19.7880  -26.5680   21.5520 C   0  0  0  0  0  2  0  0  0  0  0  0
  -18.4140  -26.6700   22.2220 C   0  0  0  0  0  2  0  0  0  0  0  0
  -19.3200  -28.7960   23.3320 C   0  0  0  0  0  0  0  0  0  0  0  0
  -19.0780  -30.0460   23.9410 C   0  0  0  0  0  3  0  0  0  0  0  0
  -17.7620  -30.5100   24.1350 C   0  0  0  0  0  3  0  0  0  0  0  0
  -16.6720  -29.7190   23.7330 C   0  0  0  0  0  3  0  0  0  0  0  0
  -16.8990  -28.4700   23.1290 C   0  0  0  0  0  3  0  0  0  0  0  0
  -26.0070  -32.5810   23.7300 C   0  0  0  0  0  3  0  0  0  0  0  0
  -25.6800  -33.9650   24.1020 N   0  0  0  0  0  0  0  0  0  0  0  0
  -25.9690  -35.0430   23.3600 C   0  0  0  0  0  0  0  0  0  0  0  0
  -26.6080  -34.9780   22.3060 O   0  0  0  0  0  0  0  0  0  0  0  0
  -25.1080  -34.0890   24.9240 H   0  0  0  0  0  0  0  0  0  0  0  0
  -24.1970  -36.8110   23.1030 C   0  0  0  0  0  1  0  0  0  0  0  0
  -25.4700  -36.4110   23.8640 C   0  0  0  0  0  3  0  0  0  0  0  0
  -27.6110  -37.3200   24.6520 C   0  0  0  0  0  1  0  0  0  0  0  0
  -26.4790  -37.4870   23.7450 N   0  0  0  0  0  0  0  0  0  0  0  0
  -26.0600  -38.3950   23.9250 H   0  0  0  0  0  0  0  0  0  0  0  0
  -26.5750  -31.7940   24.9750 C   0  0  1  0  0  0  0  0  0  0  0  0
  -25.5180  -31.5110   26.0670 C   0  0  0  0  0  1  0  0  0  0  0  0
  -27.1750  -30.4380   24.5390 C   0  0  0  0  0  1  0  0  0  0  0  0
  -27.7290  -32.5980   25.6210 C   0  0  0  0  0  1  0  0  0  0  0  0
  1  3  2  0
  1  4  1  0
  2  4  1  0
  2  7  2  0
  5  6  1  0
  5  1  1  0
  6  2  1  0
  8 10  2  0
  8  9  1  0
  9 12  2  0
 10 13  1  0
 12 11  1  0
 12 14  1  0
 13  6  1  0
 13 11  2  0
 14 15  2  0
 15 16  1  0
 17 14  1  0
 18 23  1  0
 19 20  1  0
 19 18  1  0
 21 20  1  0
 21 28  1  0
 21 22  1  0
 23 17  1  0
 23 22  1  0
 24 17  2  0
 25 26  2  0
 26 45  1  0
 27 26  1  0
 27 30  1  0
 28 29  1  0
 28 25  1  0
 29 27  2  0
 30 31  1  0
 31 32  2  0
 33 36  1  0
 33 32  1  0
 34 33  2  0
 35 34  1  0
 35 30  2  0
 36 37  1  0
 37 42  2  0
 37 38  1  0
 38 39  2  0
 39 40  1  0
 40 44  1  0
 41 40  2  0
 42 41  1  0
 43 42  1  0
 45 46  1  0
 46 49  1  0
 46 48  1  0
 47 45  2  0
 50 25  1  0
 50 51  1  0
 52 50  1  0
 53 55  1  0
 53  3  1  0
 54 65  2  0
 55 60  1  0
 56 64  1  0
 56 66  1  0
 57 63  1  0
 57 59  1  0
 58 64  1  0
 59 58  1  0
 60 59  2  0
 61 62  1  0
 61 55  2  0
 62 57  2  0
 63 56  1  0
 64 54  1  0
 66 68  2  0
 67 66  1  0
 69 67  1  0
 70 79  2  0
 70 75  1  0
 71 67  1  0
 71 75  1  0
 72 71  1  0
 73 74  1  0
 73 72  1  0
 74 70  1  0
 75 76  2  0
 76 77  1  0
 78 77  2  0
 79 78  1  0
 80 54  1  0
 80 81  1  0
 80 90  1  0
 81 84  1  0
 82 86  1  0
 82 81  1  0
 83 82  2  0
 86 85  1  0
 88 86  1  0
 88 89  1  0
 88 87  1  0
 90 93  1  1
 90 91  1  0
 92 90  1  0
M  ISO  4   3 101  14 100  17 100  53 101
M  END
>  <TORSDO>  (10) 
F 18

>  <SCORE>  (10) 
-13.169

>  <name>  (10) 
9

>  <ligand_id>  (10) 
9

>  <original_smiles>  (10) 
[H]N=C(C(=O)N1C([H])([H])C([H])([H])C([H])([H])C([H])(n2nc(-c3c([H])c([H])c(Oc4c([H])c([H])c(F)c([H])c4F)c([H])c3[H])c(C(=O)N([H])[H])c2N([H])[H])C1([H])[H])c1c([H])c([H])c([H])c(N2C(=O)C([H])([H])C(=C([H])Oc3c([H])c([H])c4c(c3[H])C([H])([H])N(C(=O)C([H])(N([H])C(=O)C([H])(N([H])C([H])([H])[H])C([H])([H])[H])C(C([H])([H])[H])(C([H])([H])[H])C([H])([H])[H])C([H])(C(=O)N([H])C3([H])c5c([H])c([H])c([H])c([H])c5C([H])([H])C([H])([H])C3([H])[H])C4([H])[H])C2([H])[H])c1[H]

>  <smiles>  (10) 
[H]N=C(C(=O)N1C([H])([H])C([H])([H])C([H])([H])C([H])(n2nc(-c3c([H])c([H])c(Oc4c([H])c([H])c(F)c([H])c4F)c([H])c3[H])c(C(=O)N([H])[H])c2N([H])[H])C1([H])[H])c1c([H])c([H])c([H])c(N2C(=O)C([H])([H])C(=C([H])Oc3c([H])c([H])c4c(c3[H])C([H])([H])N(C(=O)C([H])(N([H])C(=O)C([H])(N([H])C([H])([H])[H])C([H])([H])[H])C(C([H])([H])[H])(C([H])([H])[H])C([H])([H])[H])C([H])(C(=O)N([H])C3([H])c5c([H])c([H])c([H])c([H])c5C([H])([H])C([H])([H])C3([H])[H])C4([H])[H])C2([H])[H])c1[H]

$$$$
10:0:0
     RDKit          3D

 94103  0  0  1  0  0  0  0  0999 V2000
  -29.5630  -23.6520   18.9870 C   0  0  0  0  0  3  0  0  0  0  0  0
  -28.9050  -23.8510   20.1310 C   0  0  0  0  0  0  0  0  0  0  0  0
  -29.9230  -22.2480   18.8730 C   0  0  0  0  0  0  0  0  0  0  0  0
  -28.8650  -22.5300   20.7930 C   0  0  0  0  0  0  0  0  0  0  0  0
  -29.4530  -21.6020   19.9690 N   0  0  0  0  0  0  0  0  0  0  0  0
  -30.5410  -21.7290   17.9360 O   0  0  0  0  0  0  0  0  0  0  0  0
  -28.4070  -22.2920   21.9150 O   0  0  0  0  0  0  0  0  0  0  0  0
  -30.8430  -19.4950   20.3570 C   0  0  0  0  0  3  0  0  0  0  0  0
  -31.0150  -18.0750   20.4770 C   0  0  0  0  0  3  0  0  0  0  0  0
  -28.6480  -17.8060   20.2440 C   0  0  0  0  0  3  0  0  0  0  0  0
  -28.4670  -19.2170   20.1060 C   0  0  0  0  0  0  0  0  0  0  0  0
  -29.5730  -20.1260   20.1650 C   0  0  0  0  0  0  0  0  0  0  0  0
  -29.9130  -17.1820   20.4180 C   0  0  0  0  0  0  0  0  0  0  0  0
  -27.0480  -19.7010   19.8610 C   0  0  0  0  0  1  0  0  0  0  0  0
  -30.7590  -14.7170   20.0570 C   0  0  0  0  0  0  0  0  0  0  0  0
  -30.5420  -12.4980   18.9400 C   0  0  0  0  0  2  0  0  0  0  0  0
  -29.5200  -12.6390   17.7870 C   0  0  0  0  0  2  0  0  0  0  0  0
  -28.0760  -12.4500   18.2960 C   0  0  0  0  0  2  0  0  0  0  0  0
  -27.7830  -13.2690   19.5810 C   0  0  0  0  0  3  0  0  0  0  0  0
  -28.9080  -13.0850   20.6240 C   0  0  0  0  0  2  0  0  0  0  0  0
  -30.1760  -13.4760   19.9840 N   0  0  0  0  0  0  0  0  0  0  0  0
  -31.8850  -14.9210   19.5920 O   0  0  0  0  0  0  0  0  0  0  0  0
  -29.9460  -15.7170   20.5340 N   0  0  0  0  0  0  0  0  0  0  0  0
  -29.0940  -15.3320   20.9090 H   0  0  0  0  0  0  0  0  0  0  0  0
  -25.4350  -13.8290   20.4640 C   0  0  0  0  0  0  0  0  0  0  0  0
  -24.3950  -13.0380   20.8700 C   0  0  0  0  0  0  0  0  0  0  0  0
  -24.8580  -11.6910   20.7590 C   0  0  0  0  0  0  0  0  0  0  0  0
  -26.4660  -12.9630   20.1330 N   0  0  0  0  0  0  0  0  0  0  0  0
  -26.1280  -11.6690   20.3690 N   0  0  0  0  0  0  0  0  0  0  0  0
  -24.1490  -10.4180   20.9440 C   0  0  0  0  0  0  0  0  0  0  0  0
  -24.5820   -9.4600   21.8870 C   0  0  0  0  0  3  0  0  0  0  0  0
  -23.8710   -8.2530   22.0610 C   0  0  0  0  0  3  0  0  0  0  0  0
  -22.7120   -7.9960   21.2910 C   0  0  0  0  0  0  0  0  0  0  0  0
  -22.2990   -8.9420   20.3360 C   0  0  0  0  0  3  0  0  0  0  0  0
  -23.0100  -10.1390   20.1610 C   0  0  0  0  0  3  0  0  0  0  0  0
  -21.9740   -6.8390   21.3720 O   0  0  0  0  0  0  0  0  0  0  0  0
  -21.8410   -6.1530   22.5520 C   0  0  0  0  0  0  0  0  0  0  0  0
  -21.2750   -6.7490   23.7010 C   0  0  0  0  0  3  0  0  0  0  0  0
  -21.0900   -5.9880   24.8720 C   0  0  0  0  0  3  0  0  0  0  0  0
  -21.4600   -4.6300   24.8950 C   0  0  0  0  0  0  0  0  0  0  0  0
  -22.0180   -4.0330   23.7510 C   0  0  0  0  0  3  0  0  0  0  0  0
  -22.2050   -4.7920   22.5830 C   0  0  0  0  0  0  0  0  0  0  0  0
  -22.7230   -4.2060   21.4760 F   0  0  0  0  0  0  0  0  0  0  0  0
  -21.2760   -3.8950   26.0170 F   0  0  0  0  0  0  0  0  0  0  0  0
  -23.0150  -13.4970   21.2430 C   0  0  0  0  0  0  0  0  0  0  0  0
  -22.3450  -12.7680   22.1280 N   0  0  0  0  0  0  0  0  0  0  0  0
  -22.5410  -14.5350   20.7870 O   0  0  0  0  0  0  0  0  0  0  0  0
  -22.7400  -11.9260   22.5200 H   0  0  0  0  0  0  0  0  0  0  0  0
  -21.4210  -13.0570   22.4190 H   0  0  0  0  0  0  0  0  0  0  0  0
  -25.5820  -15.2060   20.3230 N   0  0  0  0  0  0  0  0  0  0  0  0
  -24.8110  -15.8470   20.4790 H   0  0  0  0  0  0  0  0  0  0  0  0
  -26.3820  -15.6520   19.8930 H   0  0  0  0  0  0  0  0  0  0  0  0
  -28.2280  -25.1620   20.6760 C   0  0  0  0  0  2  0  0  0  0  0  0
  -28.4350  -26.4660   19.9960 O   0  0  0  0  0  0  0  0  0  0  0  0
  -24.7410  -31.7980   23.1910 C   0  0  0  0  0  0  0  0  0  0  0  0
  -27.3370  -27.3390   19.9970 C   0  0  0  0  0  0  0  0  0  0  0  0
  -23.5300  -30.4560   21.5080 C   0  0  0  0  0  3  0  0  0  0  0  0
  -24.9750  -28.9470   20.0310 C   0  0  0  0  0  0  0  0  0  0  0  0
  -26.0670  -30.7790   21.3270 C   0  0  0  0  0  2  0  0  0  0  0  0
  -26.1460  -29.4190   20.6410 C   0  0  0  0  0  0  0  0  0  0  0  0
  -27.3330  -28.6270   20.6140 C   0  0  0  0  0  3  0  0  0  0  0  0
  -26.1510  -26.9200   19.3580 C   0  0  0  0  0  3  0  0  0  0  0  0
  -24.9810  -27.7040   19.3800 C   0  0  0  0  0  3  0  0  0  0  0  0
  -23.7400  -29.8210   20.1080 C   0  0  0  0  0  2  0  0  0  0  0  0
  -24.7980  -31.0260   22.0660 N   0  0  0  0  0  0  0  0  0  0  0  0
  -23.6600  -32.0620   23.7360 O   0  0  0  0  0  0  0  0  0  0  0  0
  -22.8660  -29.4110   22.4380 C   0  0  0  0  0  0  0  0  0  0  0  0
  -21.5380  -29.2530   22.3180 N   0  0  0  0  0  0  0  0  0  0  0  0
  -23.5460  -28.7470   23.2240 O   0  0  0  0  0  0  0  0  0  0  0  0
  -21.0490  -29.8410   21.6580 H   0  0  0  0  0  0  0  0  0  0  0  0
  -18.1470  -28.1000   22.8330 C   0  0  0  0  0  0  0  0  0  0  0  0
  -20.7150  -28.2980   23.0620 C   0  0  0  0  0  3  0  0  0  0  0  0
  -20.7770  -26.8930   22.4210 C   0  0  0  0  0  2  0  0  0  0  0  0
  -19.6490  -26.6380   21.4150 C   0  0  0  0  0  2  0  0  0  0  0  0
  -18.2840  -26.7790   22.0940 C   0  0  0  0  0  2  0  0  0  0  0  0
  -19.2890  -28.8200   23.2740 C   0  0  0  0  0  0  0  0  0  0  0  0
  -19.1060  -30.0590   23.9270 C   0  0  0  0  0  3  0  0  0  0  0  0
  -17.8150  -30.5760   24.1400 C   0  0  0  0  0  3  0  0  0  0  0  0
  -16.6880  -29.8520   23.7120 C   0  0  0  0  0  3  0  0  0  0  0  0
  -16.8550  -28.6150   23.0660 C   0  0  0  0  0  3  0  0  0  0  0  0
  -26.0280  -32.4050   23.8310 C   0  0  0  0  0  3  0  0  0  0  0  0
  -25.7170  -33.7840   24.2340 N   0  0  0  0  0  0  0  0  0  0  0  0
  -26.0330  -34.8740   23.5220 C   0  0  0  0  0  0  0  0  0  0  0  0
  -26.6900  -34.8230   22.4790 O   0  0  0  0  0  0  0  0  0  0  0  0
  -25.1350  -33.8970   25.0520 H   0  0  0  0  0  0  0  0  0  0  0  0
  -24.2870  -36.6670   23.2830 C   0  0  0  0  0  1  0  0  0  0  0  0
  -25.5460  -36.2360   24.0530 C   0  0  0  0  0  3  0  0  0  0  0  0
  -27.6850  -37.1010   24.8920 C   0  0  0  0  0  1  0  0  0  0  0  0
  -26.5690  -37.3010   23.9710 N   0  0  0  0  0  0  0  0  0  0  0  0
  -26.1590  -38.2100   24.1600 H   0  0  0  0  0  0  0  0  0  0  0  0
  -26.5590  -31.5730   25.0620 C   0  0  1  0  0  0  0  0  0  0  0  0
  -25.4800  -31.2830   26.1310 C   0  0  0  0  0  1  0  0  0  0  0  0
  -27.1380  -30.2170   24.5950 C   0  0  0  0  0  1  0  0  0  0  0  0
  -27.7190  -32.3340   25.7480 C   0  0  0  0  0  1  0  0  0  0  0  0
  1  2  2  0
  2 53  1  0
  2  4  1  0
  3  1  1  0
  3  5  1  0
  4  7  2  0
  5 12  1  0
  5  4  1  0
  6  3  2  0
  8  9  1  0
 10 13  1  0
 11 12  1  0
 11 10  2  0
 12  8  2  0
 13  9  2  0
 13 23  1  0
 14 11  1  0
 15 23  1  0
 16 21  1  0
 17 18  1  0
 17 16  1  0
 19 18  1  0
 19 28  1  0
 19 20  1  0
 21 15  1  0
 21 20  1  0
 22 15  2  0
 23 24  1  0
 25 26  2  0
 26 45  1  0
 27 26  1  0
 27 30  1  0
 28 29  1  0
 28 25  1  0
 29 27  2  0
 30 31  1  0
 31 32  2  0
 33 36  1  0
 33 32  1  0
 34 33  2  0
 35 34  1  0
 35 30  2  0
 36 37  1  0
 37 42  2  0
 37 38  1  0
 38 39  2  0
 39 40  1  0
 40 44  1  0
 41 40  2  0
 42 41  1  0
 43 42  1  0
 45 46  1  0
 46 49  1  0
 46 48  1  0
 47 45  2  0
 50 25  1  0
 50 51  1  0
 52 50  1  0
 54 56  1  0
 54 53  1  0
 55 66  2  0
 56 61  1  0
 57 65  1  0
 57 67  1  0
 58 64  1  0
 58 60  1  0
 59 65  1  0
 60 59  1  0
 61 60  2  0
 62 63  1  0
 62 56  2  0
 63 58  2  0
 64 57  1  0
 65 55  1  0
 67 69  2  0
 68 67  1  0
 70 68  1  0
 71 80  2  0
 71 76  1  0
 72 68  1  0
 72 76  1  0
 73 72  1  0
 74 75  1  0
 74 73  1  0
 75 71  1  0
 76 77  2  0
 77 78  1  0
 79 78  2  0
 80 79  1  0
 81 55  1  0
 81 82  1  0
 81 91  1  0
 82 85  1  0
 83 87  1  0
 83 82  1  0
 84 83  2  0
 87 86  1  0
 89 87  1  0
 89 90  1  0
 89 88  1  0
 91 94  1  1
 91 92  1  0
 93 91  1  0
M  ISO  4  15 100  23 100  53 101  54 101
M  END
>  <TORSDO>  (11) 
F 18

>  <SCORE>  (11) 
-14.172

>  <name>  (11) 
10

>  <ligand_id>  (11) 
10

>  <original_smiles>  (11) 
[H]C1=C(C([H])([H])Oc2c([H])c([H])c3c(c2[H])C([H])([H])N(C(=O)C([H])(N([H])C(=O)C([H])(N([H])C([H])([H])[H])C([H])([H])[H])C(C([H])([H])[H])(C([H])([H])[H])C([H])([H])[H])C([H])(C(=O)N([H])C2([H])c4c([H])c([H])c([H])c([H])c4C([H])([H])C([H])([H])C2([H])[H])C3([H])[H])C(=O)N(c2c([H])c([H])c(N([H])C(=O)N3C([H])([H])C([H])([H])C([H])([H])C([H])(n4nc(-c5c([H])c([H])c(Oc6c([H])c([H])c(F)c([H])c6F)c([H])c5[H])c(C(=O)N([H])[H])c4N([H])[H])C3([H])[H])c([H])c2C([H])([H])[H])C1=O

>  <smiles>  (11) 
[H]C1=C(C([H])([H])Oc2c([H])c([H])c3c(c2[H])C([H])([H])N(C(=O)C([H])(N([H])C(=O)C([H])(N([H])C([H])([H])[H])C([H])([H])[H])C(C([H])([H])[H])(C([H])([H])[H])C([H])([H])[H])C([H])(C(=O)N([H])C2([H])c4c([H])c([H])c([H])c([H])c4C([H])([H])C([H])([H])C2([H])[H])C3([H])[H])C(=O)N(c2c([H])c([H])c(N([H])C(=O)N3C([H])([H])C([H])([H])C([H])([H])C([H])(n4nc(-c5c([H])c([H])c(Oc6c([H])c([H])c(F)c([H])c6F)c([H])c5[H])c(C(=O)N([H])[H])c4N([H])[H])C3([H])[H])c([H])c2C([H])([H])[H])C1=O

$$$$
11:0:0
     RDKit          3D

 95103  0  0  1  0  0  0  0  0999 V2000
  -28.7890  -20.5860   20.7940 C   0  0  0  0  0  0  0  0  0  0  0  0
  -28.3260  -22.9870   20.8420 C   0  0  0  0  0  0  0  0  0  0  0  0
  -29.0850  -21.8950   20.5550 N   0  0  0  0  0  0  0  0  0  0  0  0
  -27.6710  -20.1840   21.1370 O   0  0  0  0  0  0  0  0  0  0  0  0
  -27.2540  -22.9180   21.4570 O   0  0  0  0  0  0  0  0  0  0  0  0
  -29.9760  -22.1030   20.1320 H   0  0  0  0  0  0  0  0  0  0  0  0
  -32.2510  -18.9320   20.5580 C   0  0  0  0  0  3  0  0  0  0  0  0
  -31.2420  -19.9140   20.6040 C   0  0  0  0  0  3  0  0  0  0  0  0
  -31.9230  -17.5630   20.5250 C   0  0  0  0  0  3  0  0  0  0  0  0
  -29.5650  -18.1430   20.5730 C   0  0  0  0  0  3  0  0  0  0  0  0
  -29.8800  -19.5390   20.6150 C   0  0  0  0  0  0  0  0  0  0  0  0
  -30.5730  -17.1350   20.5170 C   0  0  0  0  0  0  0  0  0  0  0  0
  -30.8970  -14.6690   20.0150 C   0  0  0  0  0  0  0  0  0  0  0  0
  -30.5630  -12.4670   18.9380 C   0  0  0  0  0  2  0  0  0  0  0  0
  -29.5620  -12.6230   17.7750 C   0  0  0  0  0  2  0  0  0  0  0  0
  -28.1160  -12.4660   18.2810 C   0  0  0  0  0  2  0  0  0  0  0  0
  -27.8250  -13.3270   19.5400 C   0  0  0  0  0  3  0  0  0  0  0  0
  -28.9410  -13.1720   20.6000 C   0  0  0  0  0  2  0  0  0  0  0  0
  -30.2240  -13.4830   19.9530 N   0  0  0  0  0  0  0  0  0  0  0  0
  -32.0110  -14.7990   19.5030 O   0  0  0  0  0  0  0  0  0  0  0  0
  -30.2050  -15.7330   20.5040 N   0  0  0  0  0  0  0  0  0  0  0  0
  -29.2670  -15.5170   20.8010 H   0  0  0  0  0  0  0  0  0  0  0  0
  -25.4790  -13.9140   20.4140 C   0  0  0  0  0  0  0  0  0  0  0  0
  -24.4320  -13.1330   20.8230 C   0  0  0  0  0  0  0  0  0  0  0  0
  -24.8840  -11.7810   20.7210 C   0  0  0  0  0  0  0  0  0  0  0  0
  -26.5040  -13.0370   20.0940 N   0  0  0  0  0  0  0  0  0  0  0  0
  -26.1530  -11.7480   20.3360 N   0  0  0  0  0  0  0  0  0  0  0  0
  -24.1640  -10.5160   20.9120 C   0  0  0  0  0  0  0  0  0  0  0  0
  -24.5780   -9.5690   21.8750 C   0  0  0  0  0  3  0  0  0  0  0  0
  -23.8580   -8.3670   22.0550 C   0  0  0  0  0  3  0  0  0  0  0  0
  -22.7100   -8.1050   21.2700 C   0  0  0  0  0  0  0  0  0  0  0  0
  -22.3150   -9.0410   20.2980 C   0  0  0  0  0  3  0  0  0  0  0  0
  -23.0350  -10.2330   20.1180 C   0  0  0  0  0  3  0  0  0  0  0  0
  -21.9640   -6.9540   21.3570 O   0  0  0  0  0  0  0  0  0  0  0  0
  -21.7970   -6.2920   22.5470 C   0  0  0  0  0  0  0  0  0  0  0  0
  -21.1640   -6.8980   23.6540 C   0  0  0  0  0  3  0  0  0  0  0  0
  -20.9510   -6.1570   24.8340 C   0  0  0  0  0  3  0  0  0  0  0  0
  -21.3620   -4.8130   24.9070 C   0  0  0  0  0  0  0  0  0  0  0  0
  -21.9890   -4.2070   23.8040 C   0  0  0  0  0  3  0  0  0  0  0  0
  -22.2030   -4.9450   22.6250 C   0  0  0  0  0  0  0  0  0  0  0  0
  -22.7880   -4.3500   21.5580 F   0  0  0  0  0  0  0  0  0  0  0  0
  -21.1520   -4.0990   26.0370 F   0  0  0  0  0  0  0  0  0  0  0  0
  -23.0560  -13.6050   21.1930 C   0  0  0  0  0  0  0  0  0  0  0  0
  -22.3760  -12.8820   22.0770 N   0  0  0  0  0  0  0  0  0  0  0  0
  -22.5930  -14.6490   20.7330 O   0  0  0  0  0  0  0  0  0  0  0  0
  -22.7650  -12.0380   22.4680 H   0  0  0  0  0  0  0  0  0  0  0  0
  -21.4560  -13.1790   22.3670 H   0  0  0  0  0  0  0  0  0  0  0  0
  -25.6400  -15.2880   20.2680 N   0  0  0  0  0  0  0  0  0  0  0  0
  -24.8810  -15.9400   20.4370 H   0  0  0  0  0  0  0  0  0  0  0  0
  -26.4610  -15.7340   19.8790 H   0  0  0  0  0  0  0  0  0  0  0  0
  -28.1890  -25.4190   20.6290 C   0  0  0  0  0  3  0  0  0  0  0  0
  -28.8780  -24.2750   20.3640 C   0  0  0  0  0  0  0  0  0  0  0  0
  -30.0240  -24.3040   19.6690 O   0  0  0  0  0  0  0  0  0  0  0  0
  -30.1880  -25.2150   19.4570 H   0  0  0  0  0  0  0  0  0  0  0  0
  -28.4870  -26.7150   20.2120 O   0  0  0  0  0  0  0  0  0  0  0  0
  -24.6290  -31.9280   23.2430 C   0  0  0  0  0  0  0  0  0  0  0  0
  -27.3830  -27.5520   20.1330 C   0  0  0  0  0  0  0  0  0  0  0  0
  -23.4820  -30.5560   21.5370 C   0  0  0  0  0  3  0  0  0  0  0  0
  -24.9890  -29.0740   20.1060 C   0  0  0  0  0  0  0  0  0  0  0  0
  -26.0140  -30.9330   21.4190 C   0  0  0  0  0  2  0  0  0  0  0  0
  -26.1300  -29.5790   20.7440 C   0  0  0  0  0  0  0  0  0  0  0  0
  -27.3340  -28.8240   20.7570 C   0  0  0  0  0  3  0  0  0  0  0  0
  -26.2300  -27.0880   19.4610 C   0  0  0  0  0  3  0  0  0  0  0  0
  -25.0370  -27.8300   19.4570 C   0  0  0  0  0  3  0  0  0  0  0  0
  -23.7350  -29.9190   20.1460 C   0  0  0  0  0  2  0  0  0  0  0  0
  -24.7250  -31.1530   22.1250 N   0  0  0  0  0  0  0  0  0  0  0  0
  -23.5320  -32.1760   23.7610 O   0  0  0  0  0  0  0  0  0  0  0  0
  -22.8160  -29.5040   22.4540 C   0  0  0  0  0  0  0  0  0  0  0  0
  -21.4950  -29.3160   22.2940 N   0  0  0  0  0  0  0  0  0  0  0  0
  -23.4840  -28.8620   23.2690 O   0  0  0  0  0  0  0  0  0  0  0  0
  -21.0160  -29.8880   21.6130 H   0  0  0  0  0  0  0  0  0  0  0  0
  -18.1060  -28.1430   22.7470 C   0  0  0  0  0  0  0  0  0  0  0  0
  -20.6680  -28.3530   23.0210 C   0  0  0  0  0  3  0  0  0  0  0  0
  -20.7490  -26.9520   22.3750 C   0  0  0  0  0  2  0  0  0  0  0  0
  -19.6400  -26.6940   21.3510 C   0  0  0  0  0  2  0  0  0  0  0  0
  -18.2620  -26.8250   22.0070 C   0  0  0  0  0  2  0  0  0  0  0  0
  -19.2360  -28.8680   23.2090 C   0  0  0  0  0  0  0  0  0  0  0  0
  -19.0360  -30.1050   23.8620 C   0  0  0  0  0  3  0  0  0  0  0  0
  -17.7390  -30.6140   24.0560 C   0  0  0  0  0  3  0  0  0  0  0  0
  -16.6230  -29.8860   23.6100 C   0  0  0  0  0  3  0  0  0  0  0  0
  -16.8070  -28.6520   22.9610 C   0  0  0  0  0  3  0  0  0  0  0  0
  -25.8910  -32.5570   23.9100 C   0  0  0  0  0  3  0  0  0  0  0  0
  -26.3560  -31.7890   25.2090 C   0  0  1  0  0  0  0  0  0  0  0  0
  -25.2170  -31.5430   26.2260 C   0  0  0  0  0  1  0  0  0  0  0  0
  -26.9660  -30.4170   24.8410 C   0  0  0  0  0  1  0  0  0  0  0  0
  -27.4700  -32.5910   25.9210 C   0  0  0  0  0  1  0  0  0  0  0  0
  -25.5760  -33.9590   24.2210 N   0  0  0  0  0  0  0  0  0  0  0  0
  -25.9220  -35.0030   23.4560 C   0  0  0  0  0  0  0  0  0  0  0  0
  -26.6090  -34.8880   22.4380 O   0  0  0  0  0  0  0  0  0  0  0  0
  -24.9670  -34.1210   25.0090 H   0  0  0  0  0  0  0  0  0  0  0  0
  -24.1980  -36.7880   23.0510 C   0  0  0  0  0  1  0  0  0  0  0  0
  -25.4250  -36.3950   23.8890 C   0  0  0  0  0  3  0  0  0  0  0  0
  -27.5370  -37.3000   24.7570 C   0  0  0  0  0  1  0  0  0  0  0  0
  -26.4590  -37.4480   23.7810 N   0  0  0  0  0  0  0  0  0  0  0  0
  -26.0480  -38.3700   23.8990 H   0  0  0  0  0  0  0  0  0  0  0  0
  1  4  2  0
  2  5  2  0
  3  1  1  0
  3  2  1  0
  6  3  1  0
  7  8  1  0
  8 11  2  0
  9  7  2  0
 10 11  1  0
 11  1  1  0
 12  9  1  0
 12 10  2  0
 13 21  1  0
 14 19  1  0
 15 16  1  0
 15 14  1  0
 17 16  1  0
 17 26  1  0
 17 18  1  0
 19 13  1  0
 19 18  1  0
 20 13  2  0
 21 12  1  0
 21 22  1  0
 23 24  2  0
 24 43  1  0
 25 24  1  0
 25 28  1  0
 26 27  1  0
 26 23  1  0
 27 25  2  0
 28 29  1  0
 29 30  2  0
 31 34  1  0
 31 30  1  0
 32 31  2  0
 33 32  1  0
 33 28  2  0
 34 35  1  0
 35 40  2  0
 35 36  1  0
 36 37  2  0
 37 38  1  0
 38 42  1  0
 39 38  2  0
 40 39  1  0
 41 40  1  0
 43 44  1  0
 44 47  1  0
 44 46  1  0
 45 43  2  0
 48 23  1  0
 48 49  1  0
 50 48  1  0
 52 51  2  0
 52  2  1  0
 53 52  1  0
 54 53  1  0
 55 51  1  0
 56 67  2  0
 57 55  1  0
 57 62  1  0
 58 66  1  0
 58 68  1  0
 59 65  1  0
 59 61  1  0
 60 66  1  0
 61 62  2  0
 61 60  1  0
 63 57  2  0
 64 63  1  0
 64 59  2  0
 65 58  1  0
 66 56  1  0
 68 70  2  0
 69 68  1  0
 71 69  1  0
 72 81  2  0
 72 77  1  0
 73 69  1  0
 73 77  1  0
 74 73  1  0
 75 76  1  0
 75 74  1  0
 76 72  1  0
 77 78  2  0
 78 79  1  0
 80 79  2  0
 81 80  1  0
 82 56  1  0
 82 87  1  0
 82 83  1  0
 83 86  1  1
 83 84  1  0
 85 83  1  0
 87 90  1  0
 88 92  1  0
 88 87  1  0
 89 88  2  0
 92 91  1  0
 94 92  1  0
 94 95  1  0
 94 93  1  0
M  ISO  4  13 100  21 100  51 101  55 101
M  END
>  <TORSDO>  (12) 
F 19

>  <SCORE>  (12) 
-14.055

>  <name>  (12) 
11

>  <ligand_id>  (12) 
11

>  <original_smiles>  (12) 
[H]OC(C(=O)N([H])C(=O)c1c([H])c([H])c([H])c(N([H])C(=O)N2C([H])([H])C([H])([H])C([H])([H])C([H])(n3nc(-c4c([H])c([H])c(Oc5c([H])c([H])c(F)c([H])c5F)c([H])c4[H])c(C(=O)N([H])[H])c3N([H])[H])C2([H])[H])c1[H])=C([H])Oc1c([H])c([H])c2c(c1[H])C([H])([H])N(C(=O)C([H])(N([H])C(=O)C([H])(N([H])C([H])([H])[H])C([H])([H])[H])C(C([H])([H])[H])(C([H])([H])[H])C([H])([H])[H])C([H])(C(=O)N([H])C1([H])c3c([H])c([H])c([H])c([H])c3C([H])([H])C([H])([H])C1([H])[H])C2([H])[H]

>  <smiles>  (12) 
[H]OC(C(=O)N([H])C(=O)c1c([H])c([H])c([H])c(N([H])C(=O)N2C([H])([H])C([H])([H])C([H])([H])C([H])(n3nc(-c4c([H])c([H])c(Oc5c([H])c([H])c(F)c([H])c5F)c([H])c4[H])c(C(=O)N([H])[H])c3N([H])[H])C2([H])[H])c1[H])=C([H])Oc1c([H])c([H])c2c(c1[H])C([H])([H])N(C(=O)C([H])(N([H])C(=O)C([H])(N([H])C([H])([H])[H])C([H])([H])[H])C(C([H])([H])[H])(C([H])([H])[H])C([H])([H])[H])C([H])(C(=O)N([H])C1([H])c3c([H])c([H])c([H])c([H])c3C([H])([H])C([H])([H])C1([H])[H])C2([H])[H]

$$$$
12:0:0
     RDKit          3D

 93102  0  0  1  0  0  0  0  0999 V2000
  -28.5570  -23.5770   20.2730 C   0  0  0  0  0  0  0  0  0  0  0  0
  -28.9340  -23.3560   21.6570 C   0  0  0  0  0  0  0  0  0  0  0  0
  -28.6410  -22.1570   19.6800 C   0  0  0  0  0  0  0  0  0  0  0  0
  -28.2370  -24.8400   19.6700 C   0  0  0  0  0  0  0  0  0  0  0  0
  -29.2960  -21.8710   21.8730 C   0  0  0  0  0  2  0  0  0  0  0  0
  -28.0190  -24.9010   18.1620 C   0  0  0  0  0  1  0  0  0  0  0  0
  -29.0470  -21.1600   20.5990 N   0  0  0  0  0  0  0  0  0  0  0  0
  -28.9880  -24.1980   22.5590 O   0  0  0  0  0  0  0  0  0  0  0  0
  -28.3950  -21.8800   18.5020 O   0  0  0  0  0  0  0  0  0  0  0  0
  -30.5950  -17.5420   21.3260 C   0  0  0  0  0  3  0  0  0  0  0  0
  -30.2710  -18.9610   21.3510 C   0  0  0  0  0  3  0  0  0  0  0  0
  -29.0040  -17.2090   19.6410 C   0  0  0  0  0  3  0  0  0  0  0  0
  -29.9820  -16.5570   20.4790 C   0  0  0  0  0  0  0  0  0  0  0  0
  -29.3170  -19.6270   20.5020 C   0  0  0  0  0  0  0  0  0  0  0  0
  -28.6870  -18.6430   19.6460 C   0  0  0  0  0  0  0  0  0  0  0  0
  -27.7290  -19.0610   18.7870 F   0  0  0  0  0  0  0  0  0  0  0  0
  -30.5860  -15.0670   20.2940 C   0  0  0  0  0  0  0  0  0  0  0  0
  -30.3930  -12.7100   19.3790 C   0  0  0  0  0  2  0  0  0  0  0  0
  -29.4570  -12.6510   18.1520 C   0  0  0  0  0  2  0  0  0  0  0  0
  -28.0030  -12.4330   18.6020 C   0  0  0  0  0  2  0  0  0  0  0  0
  -27.6000  -13.3730   19.7690 C   0  0  0  0  0  3  0  0  0  0  0  0
  -28.6650  -13.4440   20.8800 C   0  0  0  0  0  2  0  0  0  0  0  0
  -29.9300  -13.8340   20.2510 N   0  0  0  0  0  0  0  0  0  0  0  0
  -31.7900  -15.0320   20.0170 O   0  0  0  0  0  0  0  0  0  0  0  0
  -25.2430  -13.9290   20.5820 C   0  0  0  0  0  0  0  0  0  0  0  0
  -24.1860  -13.1470   20.9550 C   0  0  0  0  0  0  0  0  0  0  0  0
  -24.6490  -11.7970   20.8850 C   0  0  0  0  0  0  0  0  0  0  0  0
  -26.2790  -13.0580   20.2970 N   0  0  0  0  0  0  0  0  0  0  0  0
  -25.9340  -11.7670   20.5480 N   0  0  0  0  0  0  0  0  0  0  0  0
  -23.9240  -10.5310   21.0630 C   0  0  0  0  0  0  0  0  0  0  0  0
  -24.3510   -9.5560   21.9920 C   0  0  0  0  0  3  0  0  0  0  0  0
  -23.6230   -8.3580   22.1590 C   0  0  0  0  0  3  0  0  0  0  0  0
  -22.4560   -8.1250   21.3950 C   0  0  0  0  0  0  0  0  0  0  0  0
  -22.0470   -9.0870   20.4550 C   0  0  0  0  0  3  0  0  0  0  0  0
  -22.7750  -10.2770   20.2870 C   0  0  0  0  0  3  0  0  0  0  0  0
  -21.7000   -6.9780   21.4710 O   0  0  0  0  0  0  0  0  0  0  0  0
  -21.6170   -6.2460   22.6280 C   0  0  0  0  0  0  0  0  0  0  0  0
  -21.1090   -6.7990   23.8240 C   0  0  0  0  0  3  0  0  0  0  0  0
  -20.9750   -5.9920   24.9710 C   0  0  0  0  0  3  0  0  0  0  0  0
  -21.3390   -4.6320   24.9220 C   0  0  0  0  0  0  0  0  0  0  0  0
  -21.8410   -4.0790   23.7320 C   0  0  0  0  0  3  0  0  0  0  0  0
  -21.9760   -4.8840   22.5860 C   0  0  0  0  0  0  0  0  0  0  0  0
  -22.4400   -4.3410   21.4350 F   0  0  0  0  0  0  0  0  0  0  0  0
  -21.2050   -3.8550   26.0210 F   0  0  0  0  0  0  0  0  0  0  0  0
  -22.7950  -13.6200   21.2610 C   0  0  0  0  0  0  0  0  0  0  0  0
  -22.0840  -12.9100   22.1290 N   0  0  0  0  0  0  0  0  0  0  0  0
  -22.3500  -14.6540   20.7660 O   0  0  0  0  0  0  0  0  0  0  0  0
  -22.4610  -12.0730   22.5510 H   0  0  0  0  0  0  0  0  0  0  0  0
  -21.1520  -13.2070   22.3780 H   0  0  0  0  0  0  0  0  0  0  0  0
  -25.4070  -15.3030   20.4360 N   0  0  0  0  0  0  0  0  0  0  0  0
  -24.6490  -15.9590   20.5910 H   0  0  0  0  0  0  0  0  0  0  0  0
  -26.2630  -15.7520   20.1350 H   0  0  0  0  0  0  0  0  0  0  0  0
  -28.2500  -26.2120   20.2220 O   0  0  0  0  0  0  0  0  0  0  0  0
  -24.6350  -31.8840   23.2670 C   0  0  0  0  0  0  0  0  0  0  0  0
  -27.1940  -27.2060   20.1390 C   0  0  0  0  0  0  0  0  0  0  0  0
  -23.4260  -30.5110   21.6180 C   0  0  0  0  0  3  0  0  0  0  0  0
  -24.8630  -28.9620   20.1570 C   0  0  0  0  0  0  0  0  0  0  0  0
  -25.9800  -30.7790   21.4390 C   0  0  0  0  0  2  0  0  0  0  0  0
  -26.0500  -29.3970   20.7600 C   0  0  0  0  0  0  0  0  0  0  0  0
  -27.2130  -28.5360   20.7330 C   0  0  0  0  0  3  0  0  0  0  0  0
  -25.9670  -26.8690   19.5260 C   0  0  0  0  0  3  0  0  0  0  0  0
  -24.8340  -27.7110   19.5260 C   0  0  0  0  0  3  0  0  0  0  0  0
  -23.6360  -29.8560   20.2280 C   0  0  0  0  0  2  0  0  0  0  0  0
  -24.7010  -31.0800   22.1630 N   0  0  0  0  0  0  0  0  0  0  0  0
  -23.5520  -32.1590   23.8070 O   0  0  0  0  0  0  0  0  0  0  0  0
  -22.7560  -29.4880   22.5710 C   0  0  0  0  0  0  0  0  0  0  0  0
  -21.4300  -29.3000   22.4370 N   0  0  0  0  0  0  0  0  0  0  0  0
  -23.4310  -28.8660   23.3940 O   0  0  0  0  0  0  0  0  0  0  0  0
  -20.9410  -29.8520   21.7460 H   0  0  0  0  0  0  0  0  0  0  0  0
  -18.0650  -28.0430   22.9090 C   0  0  0  0  0  0  0  0  0  0  0  0
  -20.6170  -28.3480   23.1990 C   0  0  0  0  0  3  0  0  0  0  0  0
  -20.7480  -26.9190   22.6220 C   0  0  0  0  0  2  0  0  0  0  0  0
  -19.6600  -26.5810   21.5970 C   0  0  0  0  0  2  0  0  0  0  0  0
  -18.2710  -26.6990   22.2290 C   0  0  0  0  0  2  0  0  0  0  0  0
  -19.1670  -28.8240   23.3490 C   0  0  0  0  0  0  0  0  0  0  0  0
  -18.9190  -30.0800   23.9450 C   0  0  0  0  0  3  0  0  0  0  0  0
  -17.6050  -30.5550   24.1040 C   0  0  0  0  0  3  0  0  0  0  0  0
  -16.5180  -29.7720   23.6780 C   0  0  0  0  0  3  0  0  0  0  0  0
  -16.7480  -28.5170   23.0870 C   0  0  0  0  0  3  0  0  0  0  0  0
  -25.9160  -32.5130   23.8950 C   0  0  0  0  0  3  0  0  0  0  0  0
  -25.6040  -33.9080   24.2460 N   0  0  0  0  0  0  0  0  0  0  0  0
  -25.8910  -34.9720   23.4830 C   0  0  0  0  0  0  0  0  0  0  0  0
  -26.5130  -34.8830   22.4220 O   0  0  0  0  0  0  0  0  0  0  0  0
  -25.0460  -34.0500   25.0750 H   0  0  0  0  0  0  0  0  0  0  0  0
  -24.1190  -36.7420   23.2440 C   0  0  0  0  0  1  0  0  0  0  0  0
  -25.4130  -36.3530   23.9750 C   0  0  0  0  0  3  0  0  0  0  0  0
  -27.5760  -37.2750   24.6850 C   0  0  0  0  0  1  0  0  0  0  0  0
  -26.4210  -37.4210   23.8020 N   0  0  0  0  0  0  0  0  0  0  0  0
  -26.0090  -38.3350   23.9690 H   0  0  0  0  0  0  0  0  0  0  0  0
  -26.4340  -31.7310   25.1650 C   0  0  1  0  0  0  0  0  0  0  0  0
  -25.3420  -31.4820   26.2300 C   0  0  0  0  0  1  0  0  0  0  0  0
  -27.0210  -30.3570   24.7660 C   0  0  0  0  0  1  0  0  0  0  0  0
  -27.5830  -32.5220   25.8330 C   0  0  0  0  0  1  0  0  0  0  0  0
  1  2  1  0
  2  5  1  0
  2  8  2  0
  3  1  1  0
  3  7  1  0
  4 53  1  0
  4  1  2  0
  6  4  1  0
  7  5  1  0
  9  3  2  0
 10 11  1  0
 12 15  2  0
 12 13  1  0
 13 10  2  0
 14  7  1  0
 14 11  2  0
 15 14  1  0
 16 15  1  0
 17 13  1  0
 18 23  1  0
 19 20  1  0
 19 18  1  0
 21 20  1  0
 21 28  1  0
 21 22  1  0
 23 17  1  0
 23 22  1  0
 24 17  2  0
 25 26  2  0
 26 45  1  0
 27 26  1  0
 27 30  1  0
 28 29  1  0
 28 25  1  0
 29 27  2  0
 30 31  1  0
 31 32  2  0
 33 36  1  0
 33 32  1  0
 34 33  2  0
 35 34  1  0
 35 30  2  0
 36 37  1  0
 37 38  1  0
 38 39  2  0
 40 39  1  0
 40 44  1  0
 41 40  2  0
 42 37  2  0
 42 41  1  0
 43 42  1  0
 45 46  1  0
 46 49  1  0
 46 48  1  0
 47 45  2  0
 50 25  1  0
 50 51  1  0
 52 50  1  0
 54 65  2  0
 55 53  1  0
 55 60  1  0
 56 64  1  0
 56 66  1  0
 57 63  1  0
 57 59  1  0
 58 64  1  0
 59 58  1  0
 60 59  2  0
 61 55  2  0
 62 61  1  0
 62 57  2  0
 63 56  1  0
 64 54  1  0
 66 68  2  0
 67 66  1  0
 69 67  1  0
 70 79  2  0
 70 75  1  0
 71 67  1  0
 71 75  1  0
 72 71  1  0
 73 74  1  0
 73 72  1  0
 74 70  1  0
 75 76  2  0
 76 77  1  0
 78 77  2  0
 79 78  1  0
 80 54  1  0
 80 81  1  0
 80 90  1  0
 81 84  1  0
 82 86  1  0
 82 81  1  0
 83 82  2  0
 86 85  1  0
 88 89  1  0
 88 86  1  0
 88 87  1  0
 90 93  1  1
 90 91  1  0
 92 90  1  0
M  ISO  4   4 101  13 100  17 100  53 101
M  END
>  <TORSDO>  (13) 
F 17

>  <SCORE>  (13) 
-15.516

>  <name>  (13) 
12

>  <ligand_id>  (13) 
12

>  <original_smiles>  (13) 
[H]c1c([H])c([H])c2c(c1[H])C([H])([H])C([H])([H])C([H])([H])C2([H])N([H])C(=O)C1([H])N(C(=O)C([H])(N([H])C(=O)C([H])(N([H])C([H])([H])[H])C([H])([H])[H])C(C([H])([H])[H])(C([H])([H])[H])C([H])([H])[H])C([H])([H])c2c([H])c(OC(=C3C(=O)N(c4c([H])c([H])c(C(=O)N5C([H])([H])C([H])([H])C([H])([H])C([H])(n6nc(-c7c([H])c([H])c(Oc8c([H])c([H])c(F)c([H])c8F)c([H])c7[H])c(C(=O)N([H])[H])c6N([H])[H])C5([H])[H])c([H])c4F)C([H])([H])C3=O)C([H])([H])[H])c([H])c([H])c2C1([H])[H]

>  <smiles>  (13) 
[H]c1c([H])c([H])c2c(c1[H])C([H])([H])C([H])([H])C([H])([H])C2([H])N([H])C(=O)C1([H])N(C(=O)C([H])(N([H])C(=O)C([H])(N([H])C([H])([H])[H])C([H])([H])[H])C(C([H])([H])[H])(C([H])([H])[H])C([H])([H])[H])C([H])([H])c2c([H])c(OC(=C3C(=O)N(c4c([H])c([H])c(C(=O)N5C([H])([H])C([H])([H])C([H])([H])C([H])(n6nc(-c7c([H])c([H])c(Oc8c([H])c([H])c(F)c([H])c8F)c([H])c7[H])c(C(=O)N([H])[H])c6N([H])[H])C5([H])[H])c([H])c4F)C([H])([H])C3=O)C([H])([H])[H])c([H])c([H])c2C1([H])[H]

$$$$
13:0:0
     RDKit          3D

 93102  0  0  1  0  0  0  0  0999 V2000
  -28.9350  -23.9760   20.1470 C   0  0  0  0  0  0  0  0  0  0  0  0
  -28.5740  -22.5730   20.4810 C   0  0  0  0  0  0  0  0  0  0  0  0
  -28.1310  -25.0760   20.3890 C   0  0  0  0  0  3  0  0  0  0  0  0
  -30.2910  -23.9680   19.5100 C   0  0  0  0  0  3  0  0  0  0  0  0
  -30.6880  -22.4740   19.5160 C   0  0  0  0  0  3  0  0  0  0  0  0
  -29.5810  -21.7020   20.1090 N   0  0  0  0  0  0  0  0  0  0  0  0
  -27.5170  -22.2300   21.0190 O   0  0  0  0  0  0  0  0  0  0  0  0
  -30.8860  -19.5030   19.9380 C   0  0  0  0  0  3  0  0  0  0  0  0
  -31.0180  -18.0760   20.0280 C   0  0  0  0  0  3  0  0  0  0  0  0
  -28.5990  -19.3600   20.6140 C   0  0  0  0  0  3  0  0  0  0  0  0
  -29.6750  -20.2120   20.2250 C   0  0  0  0  0  0  0  0  0  0  0  0
  -29.9310  -17.2450   20.4140 C   0  0  0  0  0  0  0  0  0  0  0  0
  -28.7240  -17.9380   20.7020 C   0  0  0  0  0  0  0  0  0  0  0  0
  -27.6440  -17.2100   21.0700 F   0  0  0  0  0  0  0  0  0  0  0  0
  -30.7180  -14.7490   20.0760 C   0  0  0  0  0  0  0  0  0  0  0  0
  -30.4920  -12.5170   18.9820 C   0  0  0  0  0  2  0  0  0  0  0  0
  -29.4740  -12.6480   17.8260 C   0  0  0  0  0  2  0  0  0  0  0  0
  -28.0310  -12.4590   18.3360 C   0  0  0  0  0  2  0  0  0  0  0  0
  -27.7340  -13.2920   19.6110 C   0  0  0  0  0  3  0  0  0  0  0  0
  -28.8580  -13.1270   20.6600 C   0  0  0  0  0  2  0  0  0  0  0  0
  -30.1260  -13.5090   20.0160 N   0  0  0  0  0  0  0  0  0  0  0  0
  -31.8490  -14.9330   19.6170 O   0  0  0  0  0  0  0  0  0  0  0  0
  -29.9190  -15.7740   20.5280 N   0  0  0  0  0  0  0  0  0  0  0  0
  -29.0600  -15.4330   20.9330 H   0  0  0  0  0  0  0  0  0  0  0  0
  -25.3900  -13.8570   20.4970 C   0  0  0  0  0  0  0  0  0  0  0  0
  -24.3460  -13.0680   20.8970 C   0  0  0  0  0  0  0  0  0  0  0  0
  -24.8040  -11.7200   20.7820 C   0  0  0  0  0  0  0  0  0  0  0  0
  -26.4180  -12.9880   20.1650 N   0  0  0  0  0  0  0  0  0  0  0  0
  -26.0730  -11.6950   20.3960 N   0  0  0  0  0  0  0  0  0  0  0  0
  -24.0870  -10.4510   20.9640 C   0  0  0  0  0  0  0  0  0  0  0  0
  -24.5160   -9.4880   21.9040 C   0  0  0  0  0  3  0  0  0  0  0  0
  -23.7990   -8.2840   22.0740 C   0  0  0  0  0  3  0  0  0  0  0  0
  -22.6390   -8.0340   21.3020 C   0  0  0  0  0  0  0  0  0  0  0  0
  -22.2300   -8.9860   20.3510 C   0  0  0  0  0  3  0  0  0  0  0  0
  -22.9480  -10.1810   20.1800 C   0  0  0  0  0  3  0  0  0  0  0  0
  -21.8960   -6.8820   21.3790 O   0  0  0  0  0  0  0  0  0  0  0  0
  -21.7590   -6.1910   22.5570 C   0  0  0  0  0  0  0  0  0  0  0  0
  -21.2200   -6.7910   23.7150 C   0  0  0  0  0  3  0  0  0  0  0  0
  -21.0330   -6.0250   24.8840 C   0  0  0  0  0  3  0  0  0  0  0  0
  -21.3760   -4.6610   24.8930 C   0  0  0  0  0  0  0  0  0  0  0  0
  -21.9090   -4.0600   23.7390 C   0  0  0  0  0  3  0  0  0  0  0  0
  -22.0970   -4.8220   22.5730 C   0  0  0  0  0  0  0  0  0  0  0  0
  -22.5900   -4.2340   21.4570 F   0  0  0  0  0  0  0  0  0  0  0  0
  -21.1900   -3.9220   26.0120 F   0  0  0  0  0  0  0  0  0  0  0  0
  -22.9690  -13.5330   21.2730 C   0  0  0  0  0  0  0  0  0  0  0  0
  -22.2990  -12.8070   22.1620 N   0  0  0  0  0  0  0  0  0  0  0  0
  -22.4980  -14.5750   20.8180 O   0  0  0  0  0  0  0  0  0  0  0  0
  -22.6950  -11.9640   22.5520 H   0  0  0  0  0  0  0  0  0  0  0  0
  -21.3780  -13.0990   22.4570 H   0  0  0  0  0  0  0  0  0  0  0  0
  -25.5430  -15.2340   20.3710 N   0  0  0  0  0  0  0  0  0  0  0  0
  -24.7950  -15.8800   20.5930 H   0  0  0  0  0  0  0  0  0  0  0  0
  -26.3980  -15.7040   20.1010 H   0  0  0  0  0  0  0  0  0  0  0  0
  -28.3690  -26.4490   20.1100 O   0  0  0  0  0  0  0  0  0  0  0  0
  -24.6820  -31.8670   23.2160 C   0  0  0  0  0  0  0  0  0  0  0  0
  -27.2710  -27.3300   20.0980 C   0  0  0  0  0  0  0  0  0  0  0  0
  -23.4650  -30.4810   21.5750 C   0  0  0  0  0  3  0  0  0  0  0  0
  -24.9050  -28.9450   20.1200 C   0  0  0  0  0  0  0  0  0  0  0  0
  -26.0020  -30.8030   21.3710 C   0  0  0  0  0  2  0  0  0  0  0  0
  -26.0800  -29.4280   20.7140 C   0  0  0  0  0  0  0  0  0  0  0  0
  -27.2660  -28.6310   20.6970 C   0  0  0  0  0  3  0  0  0  0  0  0
  -26.0780  -26.9100   19.4700 C   0  0  0  0  0  3  0  0  0  0  0  0
  -24.9070  -27.6920   19.4900 C   0  0  0  0  0  3  0  0  0  0  0  0
  -23.6670  -29.8170   20.1870 C   0  0  0  0  0  2  0  0  0  0  0  0
  -24.7360  -31.0670   22.1110 N   0  0  0  0  0  0  0  0  0  0  0  0
  -23.6040  -32.1380   23.7640 O   0  0  0  0  0  0  0  0  0  0  0  0
  -22.8120  -29.4550   22.5330 C   0  0  0  0  0  0  0  0  0  0  0  0
  -21.4880  -29.2620   22.4050 N   0  0  0  0  0  0  0  0  0  0  0  0
  -23.4970  -28.8360   23.3530 O   0  0  0  0  0  0  0  0  0  0  0  0
  -20.9950  -29.8140   21.7170 H   0  0  0  0  0  0  0  0  0  0  0  0
  -18.1230  -28.0340   22.9060 C   0  0  0  0  0  0  0  0  0  0  0  0
  -20.6790  -28.3150   23.1730 C   0  0  0  0  0  3  0  0  0  0  0  0
  -20.7930  -26.8860   22.5920 C   0  0  0  0  0  2  0  0  0  0  0  0
  -19.6920  -26.5570   21.5780 C   0  0  0  0  0  2  0  0  0  0  0  0
  -18.3100  -26.6880   22.2240 C   0  0  0  0  0  2  0  0  0  0  0  0
  -19.2350  -28.8040   23.3370 C   0  0  0  0  0  0  0  0  0  0  0  0
  -19.0050  -30.0630   23.9340 C   0  0  0  0  0  3  0  0  0  0  0  0
  -17.6960  -30.5510   24.1040 C   0  0  0  0  0  3  0  0  0  0  0  0
  -16.5980  -29.7780   23.6890 C   0  0  0  0  0  3  0  0  0  0  0  0
  -16.8130  -28.5200   23.0950 C   0  0  0  0  0  3  0  0  0  0  0  0
  -25.9710  -32.4960   23.8310 C   0  0  0  0  0  3  0  0  0  0  0  0
  -25.6640  -33.8920   24.1730 N   0  0  0  0  0  0  0  0  0  0  0  0
  -25.9850  -34.9500   23.4170 C   0  0  0  0  0  0  0  0  0  0  0  0
  -26.6410  -34.8540   22.3760 O   0  0  0  0  0  0  0  0  0  0  0  0
  -25.0800  -34.0410   24.9840 H   0  0  0  0  0  0  0  0  0  0  0  0
  -24.2530  -36.7460   23.0960 C   0  0  0  0  0  1  0  0  0  0  0  0
  -25.5040  -36.3360   23.8900 C   0  0  0  0  0  3  0  0  0  0  0  0
  -27.6450  -37.2180   24.7070 C   0  0  0  0  0  1  0  0  0  0  0  0
  -26.5350  -37.3890   23.7720 N   0  0  0  0  0  0  0  0  0  0  0  0
  -26.1300  -38.3090   23.9270 H   0  0  0  0  0  0  0  0  0  0  0  0
  -26.4980  -31.7160   25.0980 C   0  0  1  0  0  0  0  0  0  0  0  0
  -25.4130  -31.4700   26.1730 C   0  0  0  0  0  1  0  0  0  0  0  0
  -27.0800  -30.3430   24.6940 C   0  0  0  0  0  1  0  0  0  0  0  0
  -27.6520  -32.5080   25.7580 C   0  0  0  0  0  1  0  0  0  0  0  0
  1  3  2  0
  1  2  1  0
  2  7  2  0
  4  5  2  0
  4  1  1  0
  5  6  1  0
  6 11  1  0
  6  2  1  0
  8  9  2  0
  8 11  1  0
  9 12  1  0
 10 13  1  0
 11 10  2  0
 12 23  1  0
 12 13  2  0
 13 14  1  0
 15 23  1  0
 16 21  1  0
 17 18  1  0
 17 16  1  0
 19 18  1  0
 19 28  1  0
 19 20  1  0
 21 15  1  0
 21 20  1  0
 22 15  2  0
 23 24  1  0
 25 26  2  0
 26 45  1  0
 27 26  1  0
 27 30  1  0
 28 29  1  0
 28 25  1  0
 29 27  2  0
 30 31  1  0
 31 32  2  0
 33 36  1  0
 33 32  1  0
 34 33  2  0
 35 34  1  0
 35 30  2  0
 36 37  1  0
 37 42  2  0
 37 38  1  0
 38 39  2  0
 39 40  1  0
 40 44  1  0
 41 40  2  0
 42 41  1  0
 43 42  1  0
 45 46  1  0
 46 49  1  0
 46 48  1  0
 47 45  2  0
 50 25  1  0
 50 51  1  0
 52 50  1  0
 53  3  1  0
 54 65  2  0
 55 53  1  0
 55 60  1  0
 56 64  1  0
 56 66  1  0
 57 63  1  0
 57 59  1  0
 58 64  1  0
 59 58  1  0
 60 59  2  0
 61 62  1  0
 61 55  2  0
 62 57  2  0
 63 56  1  0
 64 54  1  0
 66 68  2  0
 67 66  1  0
 69 67  1  0
 70 79  2  0
 70 75  1  0
 71 67  1  0
 71 75  1  0
 72 71  1  0
 73 74  1  0
 73 72  1  0
 74 70  1  0
 75 76  2  0
 76 77  1  0
 78 77  2  0
 79 78  1  0
 80 54  1  0
 80 81  1  0
 80 90  1  0
 81 84  1  0
 82 86  1  0
 82 81  1  0
 83 82  2  0
 86 85  1  0
 88 86  1  0
 88 89  1  0
 88 87  1  0
 90 93  1  1
 90 91  1  0
 92 90  1  0
M  ISO  4   3 101  15 100  23 100  53 101
M  END
>  <TORSDO>  (14) 
F 17

>  <SCORE>  (14) 
-14.725

>  <name>  (14) 
13

>  <ligand_id>  (14) 
13

>  <original_smiles>  (14) 
[H]C(Oc1c([H])c([H])c2c(c1[H])C([H])([H])N(C(=O)C([H])(N([H])C(=O)C([H])(N([H])C([H])([H])[H])C([H])([H])[H])C(C([H])([H])[H])(C([H])([H])[H])C([H])([H])[H])C([H])(C(=O)N([H])C1([H])c3c([H])c([H])c([H])c([H])c3C([H])([H])C([H])([H])C1([H])[H])C2([H])[H])=C1C(=O)N(c2c([H])c([H])c(N([H])C(=O)N3C([H])([H])C([H])([H])C([H])([H])C([H])(n4nc(-c5c([H])c([H])c(Oc6c([H])c([H])c(F)c([H])c6F)c([H])c5[H])c(C(=O)N([H])[H])c4N([H])[H])C3([H])[H])c(F)c2[H])C([H])([H])C1([H])[H]

>  <smiles>  (14) 
[H]C(Oc1c([H])c([H])c2c(c1[H])C([H])([H])N(C(=O)C([H])(N([H])C(=O)C([H])(N([H])C([H])([H])[H])C([H])([H])[H])C(C([H])([H])[H])(C([H])([H])[H])C([H])([H])[H])C([H])(C(=O)N([H])C1([H])c3c([H])c([H])c([H])c([H])c3C([H])([H])C([H])([H])C1([H])[H])C2([H])[H])=C1C(=O)N(c2c([H])c([H])c(N([H])C(=O)N3C([H])([H])C([H])([H])C([H])([H])C([H])(n4nc(-c5c([H])c([H])c(Oc6c([H])c([H])c(F)c([H])c6F)c([H])c5[H])c(C(=O)N([H])[H])c4N([H])[H])C3([H])[H])c(F)c2[H])C([H])([H])C1([H])[H]

$$$$
14:0:0
     RDKit          3D

 92101  0  0  1  0  0  0  0  0999 V2000
  -28.4140  -23.5790   20.4900 C   0  0  0  0  0  0  0  0  0  0  0  0
  -29.5630  -22.9240   19.8510 C   0  0  0  0  0  0  0  0  0  0  0  0
  -27.8820  -24.8840   20.6570 C   0  0  0  0  0  3  0  0  0  0  0  0
  -28.0030  -22.1550   21.0090 C   0  0  0  0  0  2  0  0  0  0  0  0
  -29.1120  -21.5890   20.1950 N   0  0  0  0  0  0  0  0  0  0  0  0
  -30.5600  -23.4030   19.3520 O   0  0  0  0  0  0  0  0  0  0  0  0
  -31.9610  -19.2260   21.1120 C   0  0  0  0  0  3  0  0  0  0  0  0
  -31.1280  -20.3310   20.8570 C   0  0  0  0  0  3  0  0  0  0  0  0
  -31.5100  -17.9020   20.9770 C   0  0  0  0  0  3  0  0  0  0  0  0
  -29.7720  -20.2340   20.4620 C   0  0  0  0  0  0  0  0  0  0  0  0
  -30.1880  -17.6090   20.5800 C   0  0  0  0  0  0  0  0  0  0  0  0
  -29.3380  -18.8100   20.3540 C   0  0  0  0  0  0  0  0  0  0  0  0
  -28.0540  -18.5850   19.9850 F   0  0  0  0  0  0  0  0  0  0  0  0
  -30.5520  -14.9460   20.3560 C   0  0  0  0  0  0  0  0  0  0  0  0
  -30.3940  -12.6170   19.3890 C   0  0  0  0  0  2  0  0  0  0  0  0
  -29.4680  -12.6020   18.1520 C   0  0  0  0  0  2  0  0  0  0  0  0
  -28.0010  -12.4010   18.5770 C   0  0  0  0  0  2  0  0  0  0  0  0
  -27.5940  -13.3190   19.7600 C   0  0  0  0  0  3  0  0  0  0  0  0
  -28.6450  -13.3180   20.8910 C   0  0  0  0  0  2  0  0  0  0  0  0
  -29.9240  -13.7080   20.2870 N   0  0  0  0  0  0  0  0  0  0  0  0
  -31.7560  -14.9810   20.0840 O   0  0  0  0  0  0  0  0  0  0  0  0
  -29.7950  -16.1380   20.4810 N   0  0  0  0  0  0  0  0  0  0  0  0
  -28.8000  -15.9800   20.5010 H   0  0  0  0  0  0  0  0  0  0  0  0
  -25.2060  -13.8930   20.4800 C   0  0  0  0  0  0  0  0  0  0  0  0
  -24.1420  -13.1130   20.8440 C   0  0  0  0  0  0  0  0  0  0  0  0
  -24.6120  -11.7650   20.8210 C   0  0  0  0  0  0  0  0  0  0  0  0
  -26.2540  -13.0190   20.2510 N   0  0  0  0  0  0  0  0  0  0  0  0
  -25.9070  -11.7340   20.5220 N   0  0  0  0  0  0  0  0  0  0  0  0
  -23.8900  -10.4990   21.0070 C   0  0  0  0  0  0  0  0  0  0  0  0
  -24.3080   -9.5420   21.9580 C   0  0  0  0  0  3  0  0  0  0  0  0
  -23.5830   -8.3430   22.1320 C   0  0  0  0  0  3  0  0  0  0  0  0
  -22.4260   -8.0930   21.3570 C   0  0  0  0  0  0  0  0  0  0  0  0
  -22.0280   -9.0390   20.3960 C   0  0  0  0  0  3  0  0  0  0  0  0
  -22.7530  -10.2290   20.2190 C   0  0  0  0  0  3  0  0  0  0  0  0
  -21.6750   -6.9460   21.4390 O   0  0  0  0  0  0  0  0  0  0  0  0
  -21.5910   -6.2230   22.6030 C   0  0  0  0  0  0  0  0  0  0  0  0
  -21.0930   -6.7880   23.7970 C   0  0  0  0  0  3  0  0  0  0  0  0
  -20.9590   -5.9900   24.9500 C   0  0  0  0  0  3  0  0  0  0  0  0
  -21.3120   -4.6290   24.9110 C   0  0  0  0  0  0  0  0  0  0  0  0
  -21.8030   -4.0630   23.7220 C   0  0  0  0  0  3  0  0  0  0  0  0
  -21.9390   -4.8570   22.5700 C   0  0  0  0  0  0  0  0  0  0  0  0
  -22.3920   -4.3020   21.4200 F   0  0  0  0  0  0  0  0  0  0  0  0
  -21.1760   -3.8600   26.0170 F   0  0  0  0  0  0  0  0  0  0  0  0
  -22.7400  -13.5850   21.1000 C   0  0  0  0  0  0  0  0  0  0  0  0
  -22.0060  -12.8890   21.9600 N   0  0  0  0  0  0  0  0  0  0  0  0
  -22.3040  -14.6080   20.5720 O   0  0  0  0  0  0  0  0  0  0  0  0
  -22.3730  -12.0620   22.4090 H   0  0  0  0  0  0  0  0  0  0  0  0
  -21.0660  -13.1870   22.1740 H   0  0  0  0  0  0  0  0  0  0  0  0
  -25.3620  -15.2640   20.2980 N   0  0  0  0  0  0  0  0  0  0  0  0
  -24.5850  -15.9070   20.3990 H   0  0  0  0  0  0  0  0  0  0  0  0
  -26.1970  -15.7090   19.9440 H   0  0  0  0  0  0  0  0  0  0  0  0
  -28.2260  -26.2430   20.2670 O   0  0  0  0  0  0  0  0  0  0  0  0
  -24.6140  -31.9210   23.2510 C   0  0  0  0  0  0  0  0  0  0  0  0
  -27.1920  -27.2360   20.2270 C   0  0  0  0  0  0  0  0  0  0  0  0
  -23.4120  -30.5240   21.6120 C   0  0  0  0  0  3  0  0  0  0  0  0
  -24.8620  -28.9540   20.1890 C   0  0  0  0  0  0  0  0  0  0  0  0
  -25.9640  -30.7980   21.4470 C   0  0  0  0  0  2  0  0  0  0  0  0
  -26.0400  -29.4080   20.8000 C   0  0  0  0  0  0  0  0  0  0  0  0
  -27.2090  -28.5620   20.8080 C   0  0  0  0  0  3  0  0  0  0  0  0
  -25.9950  -26.8780   19.5720 C   0  0  0  0  0  3  0  0  0  0  0  0
  -24.8500  -27.7000   19.5610 C   0  0  0  0  0  3  0  0  0  0  0  0
  -23.6340  -29.8460   20.2350 C   0  0  0  0  0  2  0  0  0  0  0  0
  -24.6830  -31.1020   22.1590 N   0  0  0  0  0  0  0  0  0  0  0  0
  -23.5280  -32.2060   23.7790 O   0  0  0  0  0  0  0  0  0  0  0  0
  -22.7350  -29.5160   22.5740 C   0  0  0  0  0  0  0  0  0  0  0  0
  -21.4080  -29.3450   22.4460 N   0  0  0  0  0  0  0  0  0  0  0  0
  -23.4070  -28.8920   23.4000 O   0  0  0  0  0  0  0  0  0  0  0  0
  -20.9230  -29.8990   21.7540 H   0  0  0  0  0  0  0  0  0  0  0  0
  -18.0240  -28.1540   22.9490 C   0  0  0  0  0  0  0  0  0  0  0  0
  -20.5840  -28.4110   23.2180 C   0  0  0  0  0  3  0  0  0  0  0  0
  -20.6830  -26.9770   22.6450 C   0  0  0  0  0  2  0  0  0  0  0  0
  -19.5800  -26.6550   21.6310 C   0  0  0  0  0  2  0  0  0  0  0  0
  -18.1990  -26.8030   22.2740 C   0  0  0  0  0  2  0  0  0  0  0  0
  -19.1450  -28.9150   23.3780 C   0  0  0  0  0  0  0  0  0  0  0  0
  -18.9270  -30.1780   23.9710 C   0  0  0  0  0  3  0  0  0  0  0  0
  -17.6220  -30.6800   24.1370 C   0  0  0  0  0  3  0  0  0  0  0  0
  -16.5170  -29.9160   23.7240 C   0  0  0  0  0  3  0  0  0  0  0  0
  -16.7200  -28.6550   23.1360 C   0  0  0  0  0  3  0  0  0  0  0  0
  -25.8930  -32.5550   23.8760 C   0  0  0  0  0  3  0  0  0  0  0  0
  -25.5830  -33.9550   24.2060 N   0  0  0  0  0  0  0  0  0  0  0  0
  -25.9050  -35.0090   23.4430 C   0  0  0  0  0  0  0  0  0  0  0  0
  -26.5610  -34.9040   22.4040 O   0  0  0  0  0  0  0  0  0  0  0  0
  -24.9980  -34.1090   25.0140 H   0  0  0  0  0  0  0  0  0  0  0  0
  -24.1680  -36.8010   23.1160 C   0  0  0  0  0  1  0  0  0  0  0  0
  -25.4230  -36.3980   23.9060 C   0  0  0  0  0  3  0  0  0  0  0  0
  -27.5680  -37.2930   24.7010 C   0  0  0  0  0  1  0  0  0  0  0  0
  -26.4520  -37.4520   23.7730 N   0  0  0  0  0  0  0  0  0  0  0  0
  -26.0470  -38.3730   23.9190 H   0  0  0  0  0  0  0  0  0  0  0  0
  -26.4020  -31.7870   25.1580 C   0  0  1  0  0  0  0  0  0  0  0  0
  -25.3030  -31.5550   26.2220 C   0  0  0  0  0  1  0  0  0  0  0  0
  -26.9860  -30.4070   24.7780 C   0  0  0  0  0  1  0  0  0  0  0  0
  -27.5500  -32.5830   25.8240 C   0  0  0  0  0  1  0  0  0  0  0  0
  1  3  2  0
  1  4  1  0
  2  5  1  0
  2  1  1  0
  5 10  1  0
  5  4  1  0
  6  2  2  0
  8  7  2  0
  9  7  1  0
 10  8  1  0
 11  9  2  0
 12 10  2  0
 12 11  1  0
 13 12  1  0
 14 22  1  0
 15 20  1  0
 16 17  1  0
 16 15  1  0
 18 17  1  0
 18 27  1  0
 18 19  1  0
 20 14  1  0
 20 19  1  0
 21 14  2  0
 22 23  1  0
 22 11  1  0
 24 25  2  0
 25 44  1  0
 26 25  1  0
 26 29  1  0
 27 24  1  0
 27 28  1  0
 28 26  2  0
 29 30  1  0
 30 31  2  0
 32 35  1  0
 32 31  1  0
 33 32  2  0
 34 33  1  0
 34 29  2  0
 35 36  1  0
 36 37  1  0
 37 38  2  0
 39 38  1  0
 39 43  1  0
 40 39  2  0
 41 36  2  0
 41 40  1  0
 42 41  1  0
 44 45  1  0
 45 48  1  0
 45 47  1  0
 46 44  2  0
 49 50  1  0
 49 24  1  0
 51 49  1  0
 52  3  1  0
 53 64  2  0
 54 52  1  0
 54 59  1  0
 55 63  1  0
 55 65  1  0
 56 62  1  0
 56 58  1  0
 57 63  1  0
 58 59  2  0
 58 57  1  0
 60 54  2  0
 61 60  1  0
 61 56  2  0
 62 55  1  0
 63 53  1  0
 65 67  2  0
 66 65  1  0
 68 66  1  0
 69 78  2  0
 69 74  1  0
 70 66  1  0
 70 74  1  0
 71 70  1  0
 72 73  1  0
 72 71  1  0
 73 69  1  0
 74 75  2  0
 75 76  1  0
 77 76  2  0
 78 77  1  0
 79 53  1  0
 79 80  1  0
 79 89  1  0
 80 83  1  0
 81 85  1  0
 81 80  1  0
 82 81  2  0
 85 84  1  0
 87 85  1  0
 87 88  1  0
 87 86  1  0
 89 92  1  1
 89 90  1  0
 91 89  1  0
M  ISO  4   3 101  14 100  22 100  52 101
M  END
>  <TORSDO>  (15) 
F 17

>  <SCORE>  (15) 
-15.413

>  <name>  (15) 
14

>  <ligand_id>  (15) 
14

>  <original_smiles>  (15) 
[H]C(Oc1c([H])c([H])c2c(c1[H])C([H])([H])N(C(=O)C([H])(N([H])C(=O)C([H])(N([H])C([H])([H])[H])C([H])([H])[H])C(C([H])([H])[H])(C([H])([H])[H])C([H])([H])[H])C([H])(C(=O)N([H])C1([H])c3c([H])c([H])c([H])c([H])c3C([H])([H])C([H])([H])C1([H])[H])C2([H])[H])=C1C(=O)N(c2c([H])c([H])c([H])c(N([H])C(=O)N3C([H])([H])C([H])([H])C([H])([H])C([H])(n4nc(-c5c([H])c([H])c(Oc6c([H])c([H])c(F)c([H])c6F)c([H])c5[H])c(C(=O)N([H])[H])c4N([H])[H])C3([H])[H])c2F)C1([H])[H]

>  <smiles>  (15) 
[H]C(Oc1c([H])c([H])c2c(c1[H])C([H])([H])N(C(=O)C([H])(N([H])C(=O)C([H])(N([H])C([H])([H])[H])C([H])([H])[H])C(C([H])([H])[H])(C([H])([H])[H])C([H])([H])[H])C([H])(C(=O)N([H])C1([H])c3c([H])c([H])c([H])c([H])c3C([H])([H])C([H])([H])C1([H])[H])C2([H])[H])=C1C(=O)N(c2c([H])c([H])c([H])c(N([H])C(=O)N3C([H])([H])C([H])([H])C([H])([H])C([H])(n4nc(-c5c([H])c([H])c(Oc6c([H])c([H])c(F)c([H])c6F)c([H])c5[H])c(C(=O)N([H])[H])c4N([H])[H])C3([H])[H])c2F)C1([H])[H]

$$$$
15:0:0
     RDKit          3D

 92101  0  0  1  0  0  0  0  0999 V2000
  -28.6590  -23.7020   20.0630 C   0  0  0  0  0  0  0  0  0  0  0  0
  -28.4620  -22.4000   19.4000 C   0  0  0  0  0  0  0  0  0  0  0  0
  -28.1670  -24.9700   19.7030 C   0  0  0  0  0  3  0  0  0  0  0  0
  -29.5550  -22.9720   21.0960 C   0  0  0  0  0  2  0  0  0  0  0  0
  -29.1840  -21.6910   20.3970 N   0  0  0  0  0  0  0  0  0  0  0  0
  -27.9530  -22.1280   18.3320 O   0  0  0  0  0  0  0  0  0  0  0  0
  -32.1300  -19.2930   20.9510 C   0  0  0  0  0  3  0  0  0  0  0  0
  -31.6150  -17.9870   20.8580 C   0  0  0  0  0  3  0  0  0  0  0  0
  -31.3130  -20.4340   20.8010 C   0  0  0  0  0  3  0  0  0  0  0  0
  -29.4510  -18.9880   20.4310 C   0  0  0  0  0  3  0  0  0  0  0  0
  -30.2500  -17.7540   20.5960 C   0  0  0  0  0  0  0  0  0  0  0  0
  -29.9240  -20.3800   20.5300 C   0  0  0  0  0  0  0  0  0  0  0  0
  -29.6820  -16.2720   20.6140 C   0  0  0  0  0  0  0  0  0  0  0  0
  -28.4440  -16.1950   20.8640 N   0  0  0  0  0  0  0  0  0  0  0  0
  -28.1590  -15.2250   20.8760 H   0  0  0  0  0  0  0  0  0  0  0  0
  -30.5580  -14.9000   20.3170 C   0  0  0  0  0  0  0  0  0  0  0  0
  -30.3980  -12.6000   19.3000 C   0  0  0  0  0  2  0  0  0  0  0  0
  -29.4390  -12.6280   18.0850 C   0  0  0  0  0  2  0  0  0  0  0  0
  -27.9770  -12.4120   18.5280 C   0  0  0  0  0  2  0  0  0  0  0  0
  -27.6000  -13.2870   19.7490 C   0  0  0  0  0  3  0  0  0  0  0  0
  -28.6790  -13.2020   20.8540 C   0  0  0  0  0  2  0  0  0  0  0  0
  -29.9510  -13.6450   20.2620 N   0  0  0  0  0  0  0  0  0  0  0  0
  -31.7410  -14.9780   19.9680 O   0  0  0  0  0  0  0  0  0  0  0  0
  -25.2240  -13.8640   20.5180 C   0  0  0  0  0  0  0  0  0  0  0  0
  -24.1670  -13.0810   20.8940 C   0  0  0  0  0  0  0  0  0  0  0  0
  -24.6400  -11.7340   20.8510 C   0  0  0  0  0  0  0  0  0  0  0  0
  -26.2680  -12.9900   20.2610 N   0  0  0  0  0  0  0  0  0  0  0  0
  -25.9270  -11.7050   20.5260 N   0  0  0  0  0  0  0  0  0  0  0  0
  -23.9260  -10.4660   21.0440 C   0  0  0  0  0  0  0  0  0  0  0  0
  -24.3760   -9.4990   21.9680 C   0  0  0  0  0  3  0  0  0  0  0  0
  -23.6610   -8.2940   22.1480 C   0  0  0  0  0  3  0  0  0  0  0  0
  -22.4820   -8.0500   21.4030 C   0  0  0  0  0  0  0  0  0  0  0  0
  -22.0520   -9.0080   20.4680 C   0  0  0  0  0  3  0  0  0  0  0  0
  -22.7670  -10.2030   20.2860 C   0  0  0  0  0  3  0  0  0  0  0  0
  -21.7370   -6.9010   21.4930 O   0  0  0  0  0  0  0  0  0  0  0  0
  -21.7020   -6.1540   22.6440 C   0  0  0  0  0  0  0  0  0  0  0  0
  -21.2640   -6.6970   23.8710 C   0  0  0  0  0  3  0  0  0  0  0  0
  -21.1760   -5.8750   25.0120 C   0  0  0  0  0  3  0  0  0  0  0  0
  -21.5190   -4.5120   24.9270 C   0  0  0  0  0  0  0  0  0  0  0  0
  -21.9510   -3.9700   23.7040 C   0  0  0  0  0  3  0  0  0  0  0  0
  -22.0390   -4.7880   22.5650 C   0  0  0  0  0  0  0  0  0  0  0  0
  -22.4370   -4.2550   21.3850 F   0  0  0  0  0  0  0  0  0  0  0  0
  -21.4270   -3.7200   26.0210 F   0  0  0  0  0  0  0  0  0  0  0  0
  -22.7700  -13.5480   21.1870 C   0  0  0  0  0  0  0  0  0  0  0  0
  -22.0620  -12.8460   22.0640 N   0  0  0  0  0  0  0  0  0  0  0  0
  -22.3170  -14.5700   20.6730 O   0  0  0  0  0  0  0  0  0  0  0  0
  -22.4430  -12.0200   22.5010 H   0  0  0  0  0  0  0  0  0  0  0  0
  -21.1250  -13.1400   22.3040 H   0  0  0  0  0  0  0  0  0  0  0  0
  -25.3760  -15.2390   20.3580 N   0  0  0  0  0  0  0  0  0  0  0  0
  -24.6150  -15.8850   20.5370 H   0  0  0  0  0  0  0  0  0  0  0  0
  -26.2550  -15.7130   20.1720 H   0  0  0  0  0  0  0  0  0  0  0  0
  -28.2870  -26.3140   20.2190 O   0  0  0  0  0  0  0  0  0  0  0  0
  -24.6310  -31.8940   23.2400 C   0  0  0  0  0  0  0  0  0  0  0  0
  -27.2060  -27.2540   20.1510 C   0  0  0  0  0  0  0  0  0  0  0  0
  -23.4210  -30.5100   21.5980 C   0  0  0  0  0  3  0  0  0  0  0  0
  -24.8620  -28.9580   20.1580 C   0  0  0  0  0  0  0  0  0  0  0  0
  -25.9720  -30.7920   21.4200 C   0  0  0  0  0  2  0  0  0  0  0  0
  -26.0430  -29.4100   20.7590 C   0  0  0  0  0  0  0  0  0  0  0  0
  -27.2140  -28.5710   20.7470 C   0  0  0  0  0  3  0  0  0  0  0  0
  -25.9860  -26.8870   19.5310 C   0  0  0  0  0  3  0  0  0  0  0  0
  -24.8430  -27.7060   19.5330 C   0  0  0  0  0  3  0  0  0  0  0  0
  -23.6330  -29.8460   20.2140 C   0  0  0  0  0  2  0  0  0  0  0  0
  -24.6950  -31.0850   22.1410 N   0  0  0  0  0  0  0  0  0  0  0  0
  -23.5480  -32.1750   23.7750 O   0  0  0  0  0  0  0  0  0  0  0  0
  -22.7510  -29.4930   22.5540 C   0  0  0  0  0  0  0  0  0  0  0  0
  -21.4240  -29.3170   22.4260 N   0  0  0  0  0  0  0  0  0  0  0  0
  -23.4260  -28.8650   23.3740 O   0  0  0  0  0  0  0  0  0  0  0  0
  -20.9370  -29.8750   21.7390 H   0  0  0  0  0  0  0  0  0  0  0  0
  -18.0450  -28.1150   22.9240 C   0  0  0  0  0  0  0  0  0  0  0  0
  -20.6040  -28.3770   23.1940 C   0  0  0  0  0  3  0  0  0  0  0  0
  -20.7060  -26.9460   22.6160 C   0  0  0  0  0  2  0  0  0  0  0  0
  -19.6050  -26.6250   21.6010 C   0  0  0  0  0  2  0  0  0  0  0  0
  -18.2240  -26.7670   22.2450 C   0  0  0  0  0  2  0  0  0  0  0  0
  -19.1630  -28.8780   23.3560 C   0  0  0  0  0  0  0  0  0  0  0  0
  -18.9420  -30.1370   23.9520 C   0  0  0  0  0  3  0  0  0  0  0  0
  -17.6360  -30.6360   24.1200 C   0  0  0  0  0  3  0  0  0  0  0  0
  -16.5330  -29.8710   23.7040 C   0  0  0  0  0  3  0  0  0  0  0  0
  -16.7380  -28.6120   23.1110 C   0  0  0  0  0  3  0  0  0  0  0  0
  -25.9140  -32.5230   23.8630 C   0  0  0  0  0  3  0  0  0  0  0  0
  -25.6070  -33.9210   24.2000 N   0  0  0  0  0  0  0  0  0  0  0  0
  -25.9230  -34.9760   23.4370 C   0  0  0  0  0  0  0  0  0  0  0  0
  -26.5710  -34.8750   22.3920 O   0  0  0  0  0  0  0  0  0  0  0  0
  -25.0280  -34.0720   25.0120 H   0  0  0  0  0  0  0  0  0  0  0  0
  -24.1820  -36.7670   23.1310 C   0  0  0  0  0  1  0  0  0  0  0  0
  -25.4460  -36.3650   23.9070 C   0  0  0  0  0  3  0  0  0  0  0  0
  -27.5980  -37.2590   24.6810 C   0  0  0  0  0  1  0  0  0  0  0  0
  -26.4730  -37.4200   23.7640 N   0  0  0  0  0  0  0  0  0  0  0  0
  -26.0670  -38.3400   23.9160 H   0  0  0  0  0  0  0  0  0  0  0  0
  -26.4260  -31.7470   25.1390 C   0  0  1  0  0  0  0  0  0  0  0  0
  -25.3320  -31.5130   26.2070 C   0  0  0  0  0  1  0  0  0  0  0  0
  -27.0040  -30.3670   24.7490 C   0  0  0  0  0  1  0  0  0  0  0  0
  -27.5800  -32.5360   25.8020 C   0  0  0  0  0  1  0  0  0  0  0  0
  1  4  1  0
  2  1  1  0
  2  5  1  0
  3  1  2  0
  3 52  1  0
  5 12  1  0
  5  4  1  0
  6  2  2  0
  8  7  1  0
  9  7  2  0
 10 12  2  0
 10 11  1  0
 11 13  1  0
 11  8  2  0
 12  9  1  0
 13 14  2  0
 14 15  1  0
 16 13  1  0
 17 22  1  0
 18 19  1  0
 18 17  1  0
 20 19  1  0
 20 27  1  0
 20 21  1  0
 22 16  1  0
 22 21  1  0
 23 16  2  0
 24 25  2  0
 25 44  1  0
 26 25  1  0
 26 29  1  0
 27 24  1  0
 27 28  1  0
 28 26  2  0
 29 30  1  0
 30 31  2  0
 32 35  1  0
 32 31  1  0
 33 32  2  0
 34 33  1  0
 34 29  2  0
 35 36  1  0
 36 37  1  0
 37 38  2  0
 39 38  1  0
 39 43  1  0
 40 39  2  0
 41 36  2  0
 41 40  1  0
 42 41  1  0
 44 45  1  0
 45 48  1  0
 45 47  1  0
 46 44  2  0
 49 24  1  0
 49 50  1  0
 51 49  1  0
 53 64  2  0
 54 52  1  0
 54 59  1  0
 55 63  1  0
 55 65  1  0
 56 62  1  0
 56 58  1  0
 57 63  1  0
 58 57  1  0
 59 58  2  0
 60 61  1  0
 60 54  2  0
 61 56  2  0
 62 55  1  0
 63 53  1  0
 65 67  2  0
 66 65  1  0
 68 66  1  0
 69 78  2  0
 69 74  1  0
 70 66  1  0
 70 74  1  0
 71 70  1  0
 72 73  1  0
 72 71  1  0
 73 69  1  0
 74 75  2  0
 75 76  1  0
 77 76  2  0
 78 77  1  0
 79 53  1  0
 79 80  1  0
 79 89  1  0
 80 83  1  0
 81 85  1  0
 81 80  1  0
 82 81  2  0
 85 84  1  0
 87 85  1  0
 87 88  1  0
 87 86  1  0
 89 92  1  1
 89 90  1  0
 91 89  1  0
M  ISO  4   3 101  13 100  16 100  52 101
M  END
>  <TORSDO>  (16) 
F 18

>  <SCORE>  (16) 
-14.920

>  <name>  (16) 
15

>  <ligand_id>  (16) 
15

>  <original_smiles>  (16) 
[H]N=C(C(=O)N1C([H])([H])C([H])([H])C([H])([H])C([H])(n2nc(-c3c([H])c([H])c(Oc4c([H])c([H])c(F)c([H])c4F)c([H])c3[H])c(C(=O)N([H])[H])c2N([H])[H])C1([H])[H])c1c([H])c([H])c([H])c(N2C(=O)C(=C([H])Oc3c([H])c([H])c4c(c3[H])C([H])([H])N(C(=O)C([H])(N([H])C(=O)C([H])(N([H])C([H])([H])[H])C([H])([H])[H])C(C([H])([H])[H])(C([H])([H])[H])C([H])([H])[H])C([H])(C(=O)N([H])C3([H])c5c([H])c([H])c([H])c([H])c5C([H])([H])C([H])([H])C3([H])[H])C4([H])[H])C2([H])[H])c1[H]

>  <smiles>  (16) 
[H]N=C(C(=O)N1C([H])([H])C([H])([H])C([H])([H])C([H])(n2nc(-c3c([H])c([H])c(Oc4c([H])c([H])c(F)c([H])c4F)c([H])c3[H])c(C(=O)N([H])[H])c2N([H])[H])C1([H])[H])c1c([H])c([H])c([H])c(N2C(=O)C(=C([H])Oc3c([H])c([H])c4c(c3[H])C([H])([H])N(C(=O)C([H])(N([H])C(=O)C([H])(N([H])C([H])([H])[H])C([H])([H])[H])C(C([H])([H])[H])(C([H])([H])[H])C([H])([H])[H])C([H])(C(=O)N([H])C3([H])c5c([H])c([H])c([H])c([H])c5C([H])([H])C([H])([H])C3([H])[H])C4([H])[H])C2([H])[H])c1[H]

$$$$
16:0:0
     RDKit          3D

 93102  0  0  1  0  0  0  0  0999 V2000
  -28.7190  -23.7660   19.6590 C   0  0  0  0  0  0  0  0  0  0  0  0
  -28.9570  -22.6120   18.7900 C   0  0  0  0  0  0  0  0  0  0  0  0
  -28.5440  -25.1070   19.3040 C   0  0  0  0  0  3  0  0  0  0  0  0
  -28.7660  -22.7960   20.8770 C   0  0  0  0  0  2  0  0  0  0  0  0
  -29.1460  -21.7420   19.8870 N   0  0  0  0  0  0  0  0  0  0  0  0
  -28.9270  -22.5090   17.5810 O   0  0  0  0  0  0  0  0  0  0  0  0
  -30.5180  -19.5630   20.1180 C   0  0  0  0  0  3  0  0  0  0  0  0
  -30.6820  -18.1380   20.2620 C   0  0  0  0  0  3  0  0  0  0  0  0
  -28.1830  -19.3510   20.2780 C   0  0  0  0  0  3  0  0  0  0  0  0
  -29.2680  -20.2660   20.1080 C   0  0  0  0  0  0  0  0  0  0  0  0
  -29.5770  -17.2520   20.3930 C   0  0  0  0  0  0  0  0  0  0  0  0
  -28.3100  -17.9120   20.3970 C   0  0  0  0  0  0  0  0  0  0  0  0
  -30.3830  -14.7250   19.9810 C   0  0  0  0  0  0  0  0  0  0  0  0
  -30.1470  -12.4900   18.8680 C   0  0  0  0  0  2  0  0  0  0  0  0
  -29.1180  -12.6260   17.7200 C   0  0  0  0  0  2  0  0  0  0  0  0
  -27.6800  -12.4390   18.2420 C   0  0  0  0  0  2  0  0  0  0  0  0
  -27.4020  -13.2600   19.5290 C   0  0  0  0  0  3  0  0  0  0  0  0
  -28.5360  -13.0830   20.5640 C   0  0  0  0  0  2  0  0  0  0  0  0
  -29.7920  -13.4800   19.9120 N   0  0  0  0  0  0  0  0  0  0  0  0
  -31.5150  -14.8950   19.5160 O   0  0  0  0  0  0  0  0  0  0  0  0
  -29.5980  -15.7610   20.4680 N   0  0  0  0  0  0  0  0  0  0  0  0
  -28.7660  -15.4050   20.9160 H   0  0  0  0  0  0  0  0  0  0  0  0
  -25.0470  -13.8300   20.3730 C   0  0  0  0  0  0  0  0  0  0  0  0
  -24.0160  -13.0470   20.8140 C   0  0  0  0  0  0  0  0  0  0  0  0
  -24.4960  -11.7030   20.7760 C   0  0  0  0  0  0  0  0  0  0  0  0
  -26.0910  -12.9620   20.0940 N   0  0  0  0  0  0  0  0  0  0  0  0
  -25.7690  -11.6770   20.3980 N   0  0  0  0  0  0  0  0  0  0  0  0
  -23.7990  -10.4340   21.0230 C   0  0  0  0  0  0  0  0  0  0  0  0
  -24.2560   -9.5150   21.9930 C   0  0  0  0  0  3  0  0  0  0  0  0
  -23.5560   -8.3100   22.2250 C   0  0  0  0  0  3  0  0  0  0  0  0
  -22.3850   -8.0160   21.4860 C   0  0  0  0  0  0  0  0  0  0  0  0
  -21.9470   -8.9250   20.5060 C   0  0  0  0  0  3  0  0  0  0  0  0
  -22.6480  -10.1200   20.2730 C   0  0  0  0  0  3  0  0  0  0  0  0
  -21.6560   -6.8600   21.6260 O   0  0  0  0  0  0  0  0  0  0  0  0
  -21.5890   -6.1920   22.8230 C   0  0  0  0  0  0  0  0  0  0  0  0
  -21.1200   -6.8170   23.9990 C   0  0  0  0  0  3  0  0  0  0  0  0
  -21.0010   -6.0740   25.1900 C   0  0  0  0  0  3  0  0  0  0  0  0
  -21.3390   -4.7070   25.2060 C   0  0  0  0  0  0  0  0  0  0  0  0
  -21.8010   -4.0830   24.0340 C   0  0  0  0  0  3  0  0  0  0  0  0
  -21.9210   -4.8230   22.8450 C   0  0  0  0  0  0  0  0  0  0  0  0
  -22.3460   -4.2110   21.7130 F   0  0  0  0  0  0  0  0  0  0  0  0
  -21.2170   -3.9910   26.3480 F   0  0  0  0  0  0  0  0  0  0  0  0
  -22.6290  -13.5100   21.1580 C   0  0  0  0  0  0  0  0  0  0  0  0
  -21.9740  -12.8350   22.0950 N   0  0  0  0  0  0  0  0  0  0  0  0
  -22.1400  -14.5090   20.6320 O   0  0  0  0  0  0  0  0  0  0  0  0
  -22.3850  -12.0270   22.5400 H   0  0  0  0  0  0  0  0  0  0  0  0
  -21.0480  -13.1280   22.3710 H   0  0  0  0  0  0  0  0  0  0  0  0
  -25.1760  -15.1990   20.1610 N   0  0  0  0  0  0  0  0  0  0  0  0
  -24.3990  -15.8350   20.2920 H   0  0  0  0  0  0  0  0  0  0  0  0
  -25.9980  -15.6500   19.7800 H   0  0  0  0  0  0  0  0  0  0  0  0
  -25.9540  -17.5300   20.0560 C   0  0  0  0  0  1  0  0  0  0  0  0
  -27.2220  -17.0680   20.5030 O   0  0  0  0  0  0  0  0  0  0  0  0
  -28.4160  -26.3180   20.0490 O   0  0  0  0  0  0  0  0  0  0  0  0
  -24.5110  -31.6780   22.9810 C   0  0  0  0  0  0  0  0  0  0  0  0
  -27.3020  -27.1870   19.9190 C   0  0  0  0  0  0  0  0  0  0  0  0
  -23.3700  -30.2390   21.3300 C   0  0  0  0  0  3  0  0  0  0  0  0
  -24.8850  -28.7490   19.8960 C   0  0  0  0  0  0  0  0  0  0  0  0
  -25.9000  -30.6410   21.1660 C   0  0  0  0  0  2  0  0  0  0  0  0
  -26.0340  -29.2670   20.5070 C   0  0  0  0  0  0  0  0  0  0  0  0
  -27.2410  -28.4960   20.5110 C   0  0  0  0  0  3  0  0  0  0  0  0
  -26.1260  -26.7370   19.2780 C   0  0  0  0  0  3  0  0  0  0  0  0
  -24.9360  -27.4940   19.2690 C   0  0  0  0  0  3  0  0  0  0  0  0
  -23.6150  -29.5780   19.9480 C   0  0  0  0  0  2  0  0  0  0  0  0
  -24.6120  -30.8720   21.8810 N   0  0  0  0  0  0  0  0  0  0  0  0
  -23.4150  -31.9120   23.5110 O   0  0  0  0  0  0  0  0  0  0  0  0
  -22.7410  -29.1980   22.2870 C   0  0  0  0  0  0  0  0  0  0  0  0
  -21.4190  -28.9840   22.1670 N   0  0  0  0  0  0  0  0  0  0  0  0
  -23.4420  -28.5840   23.0960 O   0  0  0  0  0  0  0  0  0  0  0  0
  -20.9100  -29.5330   21.4880 H   0  0  0  0  0  0  0  0  0  0  0  0
  -18.0750  -27.7040   22.7000 C   0  0  0  0  0  0  0  0  0  0  0  0
  -20.6320  -28.0160   22.9340 C   0  0  0  0  0  3  0  0  0  0  0  0
  -20.7550  -26.5970   22.3340 C   0  0  0  0  0  2  0  0  0  0  0  0
  -19.6450  -26.2660   21.3310 C   0  0  0  0  0  2  0  0  0  0  0  0
  -18.2710  -26.3700   21.9980 C   0  0  0  0  0  2  0  0  0  0  0  0
  -19.1840  -28.4840   23.1250 C   0  0  0  0  0  0  0  0  0  0  0  0
  -18.9450  -29.7310   23.7430 C   0  0  0  0  0  3  0  0  0  0  0  0
  -17.6330  -30.1980   23.9400 C   0  0  0  0  0  3  0  0  0  0  0  0
  -16.5390  -29.4150   23.5310 C   0  0  0  0  0  3  0  0  0  0  0  0
  -16.7620  -28.1700   22.9150 C   0  0  0  0  0  3  0  0  0  0  0  0
  -25.7650  -32.3570   23.6110 C   0  0  0  0  0  3  0  0  0  0  0  0
  -25.3810  -33.7200   24.0100 N   0  0  0  0  0  0  0  0  0  0  0  0
  -25.6450  -34.8250   23.3020 C   0  0  0  0  0  0  0  0  0  0  0  0
  -26.3070  -34.8100   22.2610 O   0  0  0  0  0  0  0  0  0  0  0  0
  -24.7890  -33.8010   24.8230 H   0  0  0  0  0  0  0  0  0  0  0  0
  -23.8170  -36.5380   23.0510 C   0  0  0  0  0  1  0  0  0  0  0  0
  -25.0870  -36.1610   23.8320 C   0  0  0  0  0  3  0  0  0  0  0  0
  -27.1770  -37.1220   24.6910 C   0  0  0  0  0  1  0  0  0  0  0  0
  -26.0590  -37.2750   23.7650 N   0  0  0  0  0  0  0  0  0  0  0  0
  -25.6020  -38.1610   23.9630 H   0  0  0  0  0  0  0  0  0  0  0  0
  -26.3490  -31.5650   24.8460 C   0  0  1  0  0  0  0  0  0  0  0  0
  -25.2910  -31.2180   25.9200 C   0  0  0  0  0  1  0  0  0  0  0  0
  -27.0070  -30.2430   24.3900 C   0  0  0  0  0  1  0  0  0  0  0  0
  -27.4600  -32.3990   25.5250 C   0  0  0  0  0  1  0  0  0  0  0  0
  1  4  1  0
  2  1  1  0
  2  5  1  0
  3  1  2  0
  3 53  1  0
  5 10  1  0
  5  4  1  0
  6  2  2  0
  7  8  1  0
  8 11  2  0
  9 12  2  0
 10  7  2  0
 10  9  1  0
 11 12  1  0
 11 21  1  0
 12 52  1  0
 13 21  1  0
 14 19  1  0
 15 16  1  0
 15 14  1  0
 17 16  1  0
 17 26  1  0
 17 18  1  0
 19 13  1  0
 19 18  1  0
 20 13  2  0
 21 22  1  0
 23 24  2  0
 24 43  1  0
 25 24  1  0
 25 28  1  0
 26 23  1  0
 26 27  1  0
 27 25  2  0
 28 29  1  0
 29 30  2  0
 31 34  1  0
 31 30  1  0
 32 31  2  0
 33 32  1  0
 33 28  2  0
 34 35  1  0
 35 40  2  0
 35 36  1  0
 36 37  2  0
 37 38  1  0
 38 42  1  0
 39 38  2  0
 40 39  1  0
 41 40  1  0
 43 44  1  0
 44 47  1  0
 44 46  1  0
 45 43  2  0
 48 49  1  0
 48 23  1  0
 50 48  1  0
 51 52  1  0
 54 65  2  0
 55 53  1  0
 55 60  1  0
 56 64  1  0
 56 66  1  0
 57 63  1  0
 57 59  1  0
 58 64  1  0
 59 60  2  0
 59 58  1  0
 61 55  2  0
 62 61  1  0
 62 57  2  0
 63 56  1  0
 64 54  1  0
 66 68  2  0
 67 66  1  0
 69 67  1  0
 70 79  2  0
 70 75  1  0
 71 67  1  0
 71 75  1  0
 72 71  1  0
 73 74  1  0
 73 72  1  0
 74 70  1  0
 75 76  2  0
 76 77  1  0
 78 77  2  0
 79 78  1  0
 80 54  1  0
 80 81  1  0
 80 90  1  0
 81 84  1  0
 82 86  1  0
 82 81  1  0
 83 82  2  0
 86 85  1  0
 88 86  1  0
 88 89  1  0
 88 87  1  0
 90 93  1  1
 90 91  1  0
 92 90  1  0
M  ISO  4   3 101  13 100  21 100  53 101
M  END
>  <TORSDO>  (17) 
F 18

>  <SCORE>  (17) 
-14.137

>  <name>  (17) 
16

>  <ligand_id>  (17) 
16

>  <original_smiles>  (17) 
[H]C(Oc1c([H])c([H])c2c(c1[H])C([H])([H])N(C(=O)C([H])(N([H])C(=O)C([H])(N([H])C([H])([H])[H])C([H])([H])[H])C(C([H])([H])[H])(C([H])([H])[H])C([H])([H])[H])C([H])(C(=O)N([H])C1([H])c3c([H])c([H])c([H])c([H])c3C([H])([H])C([H])([H])C1([H])[H])C2([H])[H])=C1C(=O)N(c2c([H])c([H])c(N([H])C(=O)N3C([H])([H])C([H])([H])C([H])([H])C([H])(n4nc(-c5c([H])c([H])c(Oc6c([H])c([H])c(F)c([H])c6F)c([H])c5[H])c(C(=O)N([H])[H])c4N([H])[H])C3([H])[H])c(OC([H])([H])[H])c2[H])C1([H])[H]

>  <smiles>  (17) 
[H]C(Oc1c([H])c([H])c2c(c1[H])C([H])([H])N(C(=O)C([H])(N([H])C(=O)C([H])(N([H])C([H])([H])[H])C([H])([H])[H])C(C([H])([H])[H])(C([H])([H])[H])C([H])([H])[H])C([H])(C(=O)N([H])C1([H])c3c([H])c([H])c([H])c([H])c3C([H])([H])C([H])([H])C1([H])[H])C2([H])[H])=C1C(=O)N(c2c([H])c([H])c(N([H])C(=O)N3C([H])([H])C([H])([H])C([H])([H])C([H])(n4nc(-c5c([H])c([H])c(Oc6c([H])c([H])c(F)c([H])c6F)c([H])c5[H])c(C(=O)N([H])[H])c4N([H])[H])C3([H])[H])c(OC([H])([H])[H])c2[H])C1([H])[H]

$$$$
17:0:0
     RDKit          3D

 90 99  0  0  1  0  0  0  0  0999 V2000
  -29.1540  -23.6850   21.1760 C   0  0  0  0  0  0  0  0  0  0  0  0
  -28.0410  -23.3240   19.4850 C   0  0  0  0  0  2  0  0  0  0  0  0
  -27.9780  -24.5830   20.4910 C   0  0  0  0  0  3  0  0  0  0  0  0
  -28.7220  -22.4770   20.5220 N   0  0  0  0  0  0  0  0  0  0  0  0
  -30.0870  -23.8810   21.9290 O   0  0  0  0  0  0  0  0  0  0  0  0
  -30.0210  -20.1750   21.2150 C   0  0  0  0  0  3  0  0  0  0  0  0
  -28.3360  -19.9670   19.6720 C   0  0  0  0  0  3  0  0  0  0  0  0
  -30.2890  -18.7230   21.1660 C   0  0  0  0  0  3  0  0  0  0  0  0
  -28.5760  -18.5280   19.6200 C   0  0  0  0  0  3  0  0  0  0  0  0
  -29.0340  -20.9460   20.4650 C   0  0  0  0  0  0  0  0  0  0  0  0
  -29.5870  -17.7760   20.3340 C   0  0  0  0  0  0  0  0  0  0  0  0
  -30.5230  -15.1080   20.6100 C   0  0  0  0  0  0  0  0  0  0  0  0
  -30.4880  -12.6860   19.7900 C   0  0  0  0  0  2  0  0  0  0  0  0
  -29.6080  -12.4800   18.5320 C   0  0  0  0  0  2  0  0  0  0  0  0
  -28.1260  -12.3040   18.9090 C   0  0  0  0  0  2  0  0  0  0  0  0
  -27.6510  -13.2920   20.0060 C   0  0  0  0  0  3  0  0  0  0  0  0
  -28.6580  -13.4140   21.1650 C   0  0  0  0  0  2  0  0  0  0  0  0
  -29.9320  -13.8340   20.5640 N   0  0  0  0  0  0  0  0  0  0  0  0
  -31.7610  -15.1170   20.6130 O   0  0  0  0  0  0  0  0  0  0  0  0
  -29.6980  -16.0240   18.5880 C   0  0  0  0  0  1  0  0  0  0  0  0
  -29.8200  -16.2470   20.0450 N   0  0  0  0  0  0  0  0  0  0  0  0
  -25.2490  -13.8920   20.6390 C   0  0  0  0  0  0  0  0  0  0  0  0
  -24.1640  -13.1240   20.9600 C   0  0  0  0  0  0  0  0  0  0  0  0
  -24.6230  -11.7710   20.9690 C   0  0  0  0  0  0  0  0  0  0  0  0
  -26.2970  -13.0050   20.4590 N   0  0  0  0  0  0  0  0  0  0  0  0
  -25.9280  -11.7260   20.7290 N   0  0  0  0  0  0  0  0  0  0  0  0
  -23.8840  -10.5140   21.1330 C   0  0  0  0  0  0  0  0  0  0  0  0
  -24.2800   -9.5420   22.0780 C   0  0  0  0  0  3  0  0  0  0  0  0
  -23.5410   -8.3500   22.2330 C   0  0  0  0  0  3  0  0  0  0  0  0
  -22.3900   -8.1210   21.4410 C   0  0  0  0  0  0  0  0  0  0  0  0
  -22.0130   -9.0820   20.4860 C   0  0  0  0  0  3  0  0  0  0  0  0
  -22.7540  -10.2650   20.3290 C   0  0  0  0  0  3  0  0  0  0  0  0
  -21.6250   -6.9820   21.5050 O   0  0  0  0  0  0  0  0  0  0  0  0
  -21.5460   -6.2310   22.6500 C   0  0  0  0  0  0  0  0  0  0  0  0
  -21.1000   -6.7800   23.8720 C   0  0  0  0  0  3  0  0  0  0  0  0
  -20.9690   -5.9550   25.0070 C   0  0  0  0  0  3  0  0  0  0  0  0
  -21.2740   -4.5830   24.9220 C   0  0  0  0  0  0  0  0  0  0  0  0
  -21.7130   -4.0340   23.7040 C   0  0  0  0  0  3  0  0  0  0  0  0
  -21.8460   -4.8560   22.5700 C   0  0  0  0  0  0  0  0  0  0  0  0
  -22.2490   -4.3180   21.3940 F   0  0  0  0  0  0  0  0  0  0  0  0
  -21.1410   -3.7890   26.0090 F   0  0  0  0  0  0  0  0  0  0  0  0
  -22.7560  -13.6090   21.1510 C   0  0  0  0  0  0  0  0  0  0  0  0
  -21.9820  -12.9290   21.9890 N   0  0  0  0  0  0  0  0  0  0  0  0
  -22.3500  -14.6270   20.5910 O   0  0  0  0  0  0  0  0  0  0  0  0
  -22.3230  -12.1070   22.4640 H   0  0  0  0  0  0  0  0  0  0  0  0
  -21.0350  -13.2360   22.1590 H   0  0  0  0  0  0  0  0  0  0  0  0
  -25.4290  -15.2600   20.4560 N   0  0  0  0  0  0  0  0  0  0  0  0
  -24.6660  -15.9220   20.5350 H   0  0  0  0  0  0  0  0  0  0  0  0
  -26.3070  -15.6930   20.1990 H   0  0  0  0  0  0  0  0  0  0  0  0
  -28.2370  -26.1230   20.2200 O   0  0  0  0  0  0  0  0  0  0  0  0
  -24.6240  -31.8700   23.2090 C   0  0  0  0  0  0  0  0  0  0  0  0
  -27.1800  -27.1170   20.1850 C   0  0  0  0  0  0  0  0  0  0  0  0
  -23.4120  -30.4650   21.5860 C   0  0  0  0  0  3  0  0  0  0  0  0
  -24.8510  -28.8780   20.1570 C   0  0  0  0  0  0  0  0  0  0  0  0
  -25.9650  -30.7270   21.3970 C   0  0  0  0  0  2  0  0  0  0  0  0
  -26.0370  -29.3280   20.7520 C   0  0  0  0  0  0  0  0  0  0  0  0
  -27.2030  -28.4650   20.7400 C   0  0  0  0  0  3  0  0  0  0  0  0
  -25.9650  -26.7720   19.5560 C   0  0  0  0  0  3  0  0  0  0  0  0
  -24.8300  -27.6150   19.5420 C   0  0  0  0  0  3  0  0  0  0  0  0
  -23.6230  -29.7780   20.2100 C   0  0  0  0  0  2  0  0  0  0  0  0
  -24.6880  -31.0440   22.1190 N   0  0  0  0  0  0  0  0  0  0  0  0
  -23.5420  -32.1550   23.7450 O   0  0  0  0  0  0  0  0  0  0  0  0
  -22.7410  -29.4640   22.5600 C   0  0  0  0  0  0  0  0  0  0  0  0
  -21.4130  -29.2880   22.4430 N   0  0  0  0  0  0  0  0  0  0  0  0
  -23.4190  -28.8480   23.3860 O   0  0  0  0  0  0  0  0  0  0  0  0
  -20.9210  -29.8360   21.7510 H   0  0  0  0  0  0  0  0  0  0  0  0
  -18.0420  -28.0670   22.9690 C   0  0  0  0  0  0  0  0  0  0  0  0
  -20.5990  -28.3520   23.2250 C   0  0  0  0  0  3  0  0  0  0  0  0
  -20.7100  -26.9150   22.6640 C   0  0  0  0  0  2  0  0  0  0  0  0
  -19.6070  -26.5740   21.6550 C   0  0  0  0  0  2  0  0  0  0  0  0
  -18.2270  -26.7140   22.3020 C   0  0  0  0  0  2  0  0  0  0  0  0
  -19.1550  -28.8420   23.3880 C   0  0  0  0  0  0  0  0  0  0  0  0
  -18.9270  -30.1060   23.9730 C   0  0  0  0  0  3  0  0  0  0  0  0
  -17.6180  -30.5960   24.1430 C   0  0  0  0  0  3  0  0  0  0  0  0
  -16.5190  -29.8190   23.7390 C   0  0  0  0  0  3  0  0  0  0  0  0
  -16.7310  -28.5550   23.1580 C   0  0  0  0  0  3  0  0  0  0  0  0
  -25.9050  -32.5120   23.8230 C   0  0  0  0  0  3  0  0  0  0  0  0
  -25.5870  -33.9070   24.1690 N   0  0  0  0  0  0  0  0  0  0  0  0
  -25.9040  -34.9720   23.4210 C   0  0  0  0  0  0  0  0  0  0  0  0
  -26.5600  -34.8840   22.3790 O   0  0  0  0  0  0  0  0  0  0  0  0
  -25.0020  -34.0490   24.9780 H   0  0  0  0  0  0  0  0  0  0  0  0
  -24.1660  -36.7660   23.1130 C   0  0  0  0  0  1  0  0  0  0  0  0
  -25.4190  -36.3550   23.9010 C   0  0  0  0  0  3  0  0  0  0  0  0
  -27.5600  -37.2400   24.7160 C   0  0  0  0  0  1  0  0  0  0  0  0
  -26.4470  -37.4130   23.7870 N   0  0  0  0  0  0  0  0  0  0  0  0
  -26.0390  -38.3300   23.9470 H   0  0  0  0  0  0  0  0  0  0  0  0
  -26.4360  -31.7410   25.0940 C   0  0  1  0  0  0  0  0  0  0  0  0
  -25.3540  -31.4990   26.1740 C   0  0  0  0  0  1  0  0  0  0  0  0
  -27.0200  -30.3650   24.6980 C   0  0  0  0  0  1  0  0  0  0  0  0
  -27.5910  -32.5370   25.7460 C   0  0  0  0  0  1  0  0  0  0  0  0
  1  5  2  0
  2  3  1  0
  2  4  1  0
  3 50  1  0
  3  1  1  0
  4  1  1  0
  7 10  1  0
  8  6  1  0
  9  7  2  0
  9 11  1  0
 10  4  1  0
 10  6  2  0
 11  8  2  0
 12 19  2  0
 13 18  1  0
 14 15  1  0
 14 13  1  0
 16 15  1  0
 16 25  1  0
 16 17  1  0
 18 12  1  0
 18 17  1  0
 20 21  1  0
 21 11  1  0
 21 12  1  0
 22 23  2  0
 23 24  1  0
 23 42  1  0
 24 27  1  0
 25 22  1  0
 25 26  1  0
 26 24  2  0
 27 28  1  0
 28 29  2  0
 30 33  1  0
 30 29  1  0
 31 30  2  0
 32 31  1  0
 32 27  2  0
 33 34  1  0
 34 35  1  0
 35 36  2  0
 37 36  1  0
 37 41  1  0
 38 37  2  0
 39 34  2  0
 39 38  1  0
 40 39  1  0
 42 43  1  0
 43 46  1  0
 43 45  1  0
 44 42  2  0
 47 48  1  0
 47 22  1  0
 49 47  1  0
 51 62  2  0
 52 50  1  0
 52 57  1  0
 53 61  1  0
 53 63  1  0
 54 60  1  0
 54 56  1  0
 55 61  1  0
 56 55  1  0
 57 56  2  0
 58 52  2  0
 59 58  1  0
 59 54  2  0
 60 53  1  0
 61 51  1  0
 63 65  2  0
 64 63  1  0
 66 64  1  0
 67 76  2  0
 67 72  1  0
 68 64  1  0
 68 72  1  0
 69 68  1  0
 70 71  1  0
 70 69  1  0
 71 67  1  0
 72 73  2  0
 73 74  1  0
 75 74  2  0
 76 75  1  0
 77 51  1  0
 77 78  1  0
 77 87  1  0
 78 81  1  0
 79 83  1  0
 79 78  1  0
 80 79  2  0
 83 82  1  0
 85 83  1  0
 85 86  1  0
 85 84  1  0
 87 90  1  1
 87 88  1  0
 89 87  1  0
M  ISO  4   3 101  12 100  21 100  50 101
M  END
>  <TORSDO>  (18) 
F 17

>  <SCORE>  (18) 
-14.639

>  <name>  (18) 
17

>  <ligand_id>  (18) 
17

>  <original_smiles>  (18) 
[H]c1c([H])c([H])c2c(c1[H])C([H])([H])C([H])([H])C([H])([H])C2([H])N([H])C(=O)C1([H])N(C(=O)C([H])(N([H])C(=O)C([H])(N([H])C([H])([H])[H])C([H])([H])[H])C(C([H])([H])[H])(C([H])([H])[H])C([H])([H])[H])C([H])([H])c2c([H])c(OC3([H])C(=O)N(c4c([H])c([H])c(N(C(=O)N5C([H])([H])C([H])([H])C([H])([H])C([H])(n6nc(-c7c([H])c([H])c(Oc8c([H])c([H])c(F)c([H])c8F)c([H])c7[H])c(C(=O)N([H])[H])c6N([H])[H])C5([H])[H])C([H])([H])[H])c([H])c4[H])C3([H])[H])c([H])c([H])c2C1([H])[H]

>  <smiles>  (18) 
[H]c1c([H])c([H])c2c(c1[H])C([H])([H])C([H])([H])C([H])([H])C2([H])N([H])C(=O)C1([H])N(C(=O)C([H])(N([H])C(=O)C([H])(N([H])C([H])([H])[H])C([H])([H])[H])C(C([H])([H])[H])(C([H])([H])[H])C([H])([H])[H])C([H])([H])c2c([H])c(OC3([H])C(=O)N(c4c([H])c([H])c(N(C(=O)N5C([H])([H])C([H])([H])C([H])([H])C([H])(n6nc(-c7c([H])c([H])c(Oc8c([H])c([H])c(F)c([H])c8F)c([H])c7[H])c(C(=O)N([H])[H])c6N([H])[H])C5([H])[H])C([H])([H])[H])c([H])c4[H])C3([H])[H])c([H])c([H])c2C1([H])[H]

$$$$
18:0:0
     RDKit          3D

 90 99  0  0  1  0  0  0  0  0999 V2000
  -28.4330  -23.5820   20.4270 C   0  0  0  0  0  0  0  0  0  0  0  0
  -29.6430  -22.9270   19.8990 C   0  0  0  0  0  0  0  0  0  0  0  0
  -27.8840  -24.8770   20.5630 C   0  0  0  0  0  3  0  0  0  0  0  0
  -27.9180  -22.1570   20.8280 C   0  0  0  0  0  2  0  0  0  0  0  0
  -29.1680  -21.6120   20.2510 N   0  0  0  0  0  0  0  0  0  0  0  0
  -30.6370  -23.3920   19.3820 O   0  0  0  0  0  0  0  0  0  0  0  0
  -30.8060  -19.6330   19.8110 C   0  0  0  0  0  3  0  0  0  0  0  0
  -30.9780  -18.1790   19.8590 C   0  0  0  0  0  3  0  0  0  0  0  0
  -29.5870  -20.1500   20.2180 C   0  0  0  0  0  0  0  0  0  0  0  0
  -29.9030  -17.4260   20.3010 C   0  0  0  0  0  0  0  0  0  0  0  0
  -28.6360  -18.6790   20.6780 S   0  0  0  0  0  0  0  0  0  0  0  0
  -30.5370  -14.8900   20.1490 C   0  0  0  0  0  0  0  0  0  0  0  0
  -30.3640  -12.5870   19.1370 C   0  0  0  0  0  2  0  0  0  0  0  0
  -29.3880  -12.6270   17.9400 C   0  0  0  0  0  2  0  0  0  0  0  0
  -27.9350  -12.4260   18.4120 C   0  0  0  0  0  2  0  0  0  0  0  0
  -27.5830  -13.3070   19.6400 C   0  0  0  0  0  3  0  0  0  0  0  0
  -28.6750  -13.2380   20.7300 C   0  0  0  0  0  2  0  0  0  0  0  0
  -29.9420  -13.6380   20.1020 N   0  0  0  0  0  0  0  0  0  0  0  0
  -31.7130  -14.9960   19.7810 O   0  0  0  0  0  0  0  0  0  0  0  0
  -29.7410  -16.0140   20.4370 N   0  0  0  0  0  0  0  0  0  0  0  0
  -28.8210  -15.7430   20.7500 H   0  0  0  0  0  0  0  0  0  0  0  0
  -25.2190  -13.8750   20.4480 C   0  0  0  0  0  0  0  0  0  0  0  0
  -24.1670  -13.0940   20.8400 C   0  0  0  0  0  0  0  0  0  0  0  0
  -24.6330  -11.7440   20.7780 C   0  0  0  0  0  0  0  0  0  0  0  0
  -26.2570  -13.0030   20.1680 N   0  0  0  0  0  0  0  0  0  0  0  0
  -25.9150  -11.7150   20.4310 N   0  0  0  0  0  0  0  0  0  0  0  0
  -23.9160  -10.4770   20.9730 C   0  0  0  0  0  0  0  0  0  0  0  0
  -24.3540   -9.5160   21.9090 C   0  0  0  0  0  3  0  0  0  0  0  0
  -23.6340   -8.3140   22.0910 C   0  0  0  0  0  3  0  0  0  0  0  0
  -22.4630   -8.0670   21.3370 C   0  0  0  0  0  0  0  0  0  0  0  0
  -22.0440   -9.0180   20.3900 C   0  0  0  0  0  3  0  0  0  0  0  0
  -22.7640  -10.2090   20.2060 C   0  0  0  0  0  3  0  0  0  0  0  0
  -21.7150   -6.9180   21.4290 O   0  0  0  0  0  0  0  0  0  0  0  0
  -21.6400   -6.2000   22.5950 C   0  0  0  0  0  0  0  0  0  0  0  0
  -21.1760   -6.7760   23.7980 C   0  0  0  0  0  3  0  0  0  0  0  0
  -21.0500   -5.9840   24.9560 C   0  0  0  0  0  3  0  0  0  0  0  0
  -21.3750   -4.6150   24.9130 C   0  0  0  0  0  0  0  0  0  0  0  0
  -21.8320   -4.0380   23.7150 C   0  0  0  0  0  3  0  0  0  0  0  0
  -21.9600   -4.8270   22.5590 C   0  0  0  0  0  0  0  0  0  0  0  0
  -22.3800   -4.2610   21.4020 F   0  0  0  0  0  0  0  0  0  0  0  0
  -21.2460   -3.8510   26.0230 F   0  0  0  0  0  0  0  0  0  0  0  0
  -22.7770  -13.5640   21.1560 C   0  0  0  0  0  0  0  0  0  0  0  0
  -22.0760  -12.8550   22.0350 N   0  0  0  0  0  0  0  0  0  0  0  0
  -22.3220  -14.5930   20.6610 O   0  0  0  0  0  0  0  0  0  0  0  0
  -22.4570  -12.0220   22.4580 H   0  0  0  0  0  0  0  0  0  0  0  0
  -21.1440  -13.1510   22.2890 H   0  0  0  0  0  0  0  0  0  0  0  0
  -25.3730  -15.2490   20.2820 N   0  0  0  0  0  0  0  0  0  0  0  0
  -24.6010  -15.8940   20.4170 H   0  0  0  0  0  0  0  0  0  0  0  0
  -26.1940  -15.6950   19.8940 H   0  0  0  0  0  0  0  0  0  0  0  0
  -28.2530  -26.2420   20.2370 O   0  0  0  0  0  0  0  0  0  0  0  0
  -24.6370  -31.8870   23.2370 C   0  0  0  0  0  0  0  0  0  0  0  0
  -27.2180  -27.2300   20.1880 C   0  0  0  0  0  0  0  0  0  0  0  0
  -23.4330  -30.4940   21.5960 C   0  0  0  0  0  3  0  0  0  0  0  0
  -24.8820  -28.9350   20.1630 C   0  0  0  0  0  0  0  0  0  0  0  0
  -25.9830  -30.7760   21.4250 C   0  0  0  0  0  2  0  0  0  0  0  0
  -26.0590  -29.3900   20.7720 C   0  0  0  0  0  0  0  0  0  0  0  0
  -27.2300  -28.5500   20.7770 C   0  0  0  0  0  3  0  0  0  0  0  0
  -26.0220  -26.8730   19.5260 C   0  0  0  0  0  3  0  0  0  0  0  0
  -24.8730  -27.6860   19.5240 C   0  0  0  0  0  3  0  0  0  0  0  0
  -23.6510  -29.8230   20.2150 C   0  0  0  0  0  2  0  0  0  0  0  0
  -24.7040  -31.0730   22.1410 N   0  0  0  0  0  0  0  0  0  0  0  0
  -23.5520  -32.1700   23.7680 O   0  0  0  0  0  0  0  0  0  0  0  0
  -22.7610  -29.4820   22.5560 C   0  0  0  0  0  0  0  0  0  0  0  0
  -21.4320  -29.3140   22.4340 N   0  0  0  0  0  0  0  0  0  0  0  0
  -23.4360  -28.8500   23.3720 O   0  0  0  0  0  0  0  0  0  0  0  0
  -20.9450  -29.8750   21.7490 H   0  0  0  0  0  0  0  0  0  0  0  0
  -18.0500  -28.1250   22.9470 C   0  0  0  0  0  0  0  0  0  0  0  0
  -20.6100  -28.3770   23.2060 C   0  0  0  0  0  3  0  0  0  0  0  0
  -20.7050  -26.9460   22.6270 C   0  0  0  0  0  2  0  0  0  0  0  0
  -19.5980  -26.6300   21.6170 C   0  0  0  0  0  2  0  0  0  0  0  0
  -18.2190  -26.7770   22.2670 C   0  0  0  0  0  2  0  0  0  0  0  0
  -19.1730  -28.8830   23.3730 C   0  0  0  0  0  0  0  0  0  0  0  0
  -18.9590  -30.1440   23.9720 C   0  0  0  0  0  3  0  0  0  0  0  0
  -17.6560  -30.6480   24.1470 C   0  0  0  0  0  3  0  0  0  0  0  0
  -16.5480  -29.8870   23.7350 C   0  0  0  0  0  3  0  0  0  0  0  0
  -16.7460  -28.6270   23.1400 C   0  0  0  0  0  3  0  0  0  0  0  0
  -25.9180  -32.5200   23.8610 C   0  0  0  0  0  3  0  0  0  0  0  0
  -25.6060  -33.9170   24.2000 N   0  0  0  0  0  0  0  0  0  0  0  0
  -25.9170  -34.9750   23.4410 C   0  0  0  0  0  0  0  0  0  0  0  0
  -26.5640  -34.8790   22.3950 O   0  0  0  0  0  0  0  0  0  0  0  0
  -25.0280  -34.0640   25.0150 H   0  0  0  0  0  0  0  0  0  0  0  0
  -24.1670  -36.7600   23.1420 C   0  0  0  0  0  1  0  0  0  0  0  0
  -25.4340  -36.3610   23.9150 C   0  0  0  0  0  3  0  0  0  0  0  0
  -27.5870  -37.2590   24.6860 C   0  0  0  0  0  1  0  0  0  0  0  0
  -26.4570  -37.4210   23.7740 N   0  0  0  0  0  0  0  0  0  0  0  0
  -26.0490  -38.3380   23.9330 H   0  0  0  0  0  0  0  0  0  0  0  0
  -26.4350  -31.7440   25.1350 C   0  0  1  0  0  0  0  0  0  0  0  0
  -25.3430  -31.5050   26.2030 C   0  0  0  0  0  1  0  0  0  0  0  0
  -27.0170  -30.3680   24.7420 C   0  0  0  0  0  1  0  0  0  0  0  0
  -27.5860  -32.5360   25.7980 C   0  0  0  0  0  1  0  0  0  0  0  0
  1  3  2  0
  1  4  1  0
  2  5  1  0
  2  1  1  0
  5  4  1  0
  6  2  2  0
  7  8  1  0
  7  9  2  0
  8 10  2  0
  9  5  1  0
  9 11  1  0
 10 20  1  0
 10 11  1  0
 12 20  1  0
 13 18  1  0
 14 15  1  0
 14 13  1  0
 16 15  1  0
 16 25  1  0
 16 17  1  0
 18 12  1  0
 18 17  1  0
 19 12  2  0
 20 21  1  0
 22 23  2  0
 23 42  1  0
 24 23  1  0
 24 27  1  0
 25 26  1  0
 25 22  1  0
 26 24  2  0
 27 28  1  0
 28 29  2  0
 30 33  1  0
 30 29  1  0
 31 30  2  0
 32 31  1  0
 32 27  2  0
 33 34  1  0
 34 35  1  0
 35 36  2  0
 37 36  1  0
 37 41  1  0
 38 37  2  0
 39 34  2  0
 39 38  1  0
 40 39  1  0
 42 43  1  0
 43 46  1  0
 43 45  1  0
 44 42  2  0
 47 48  1  0
 47 22  1  0
 49 47  1  0
 50  3  1  0
 51 62  2  0
 52 50  1  0
 52 57  1  0
 53 61  1  0
 53 63  1  0
 54 60  1  0
 54 56  1  0
 55 61  1  0
 56 57  2  0
 56 55  1  0
 58 52  2  0
 59 58  1  0
 59 54  2  0
 60 53  1  0
 61 51  1  0
 63 65  2  0
 64 63  1  0
 66 64  1  0
 67 76  2  0
 67 72  1  0
 68 64  1  0
 68 72  1  0
 69 68  1  0
 70 71  1  0
 70 69  1  0
 71 67  1  0
 72 73  2  0
 73 74  1  0
 75 74  2  0
 76 75  1  0
 77 51  1  0
 77 78  1  0
 77 87  1  0
 78 81  1  0
 79 83  1  0
 79 78  1  0
 80 79  2  0
 83 82  1  0
 85 83  1  0
 85 86  1  0
 85 84  1  0
 87 90  1  1
 87 88  1  0
 89 87  1  0
M  ISO  4   3 101  12 100  20 100  50 101
M  END
>  <TORSDO>  (19) 
F 17

>  <SCORE>  (19) 
-14.907

>  <name>  (19) 
18

>  <ligand_id>  (19) 
18

>  <original_smiles>  (19) 
[H]C(Oc1c([H])c([H])c2c(c1[H])C([H])([H])N(C(=O)C([H])(N([H])C(=O)C([H])(N([H])C([H])([H])[H])C([H])([H])[H])C(C([H])([H])[H])(C([H])([H])[H])C([H])([H])[H])C([H])(C(=O)N([H])C1([H])c3c([H])c([H])c([H])c([H])c3C([H])([H])C([H])([H])C1([H])[H])C2([H])[H])=C1C(=O)N(c2sc(N([H])C(=O)N3C([H])([H])C([H])([H])C([H])([H])C([H])(n4nc(-c5c([H])c([H])c(Oc6c([H])c([H])c(F)c([H])c6F)c([H])c5[H])c(C(=O)N([H])[H])c4N([H])[H])C3([H])[H])c([H])c2[H])C1([H])[H]

>  <smiles>  (19) 
[H]C(Oc1c([H])c([H])c2c(c1[H])C([H])([H])N(C(=O)C([H])(N([H])C(=O)C([H])(N([H])C([H])([H])[H])C([H])([H])[H])C(C([H])([H])[H])(C([H])([H])[H])C([H])([H])[H])C([H])(C(=O)N([H])C1([H])c3c([H])c([H])c([H])c([H])c3C([H])([H])C([H])([H])C1([H])[H])C2([H])[H])=C1C(=O)N(c2sc(N([H])C(=O)N3C([H])([H])C([H])([H])C([H])([H])C([H])(n4nc(-c5c([H])c([H])c(Oc6c([H])c([H])c(F)c([H])c6F)c([H])c5[H])c(C(=O)N([H])[H])c4N([H])[H])C3([H])[H])c([H])c2[H])C1([H])[H]

$$$$
19:0:0
     RDKit          3D

 95 94  0  0  1  0  0  0  0  0999 V2000
  -25.6270  -19.3090   19.6810 C   0  0  0  0  0  3  0  0  0  0  0  0
  -27.2000  -18.0940   19.3380 C   0  0  0  0  0  3  0  0  0  0  0  0
  -27.0180  -19.6810   19.3570 C   0  0  0  0  0  3  0  0  0  0  0  0
  -25.1940  -17.9290   19.7660 C   0  0  0  0  0  0  0  0  0  0  0  0
  -26.1120  -16.8440   19.5740 N   0  0  0  0  0  0  0  0  0  0  0  0
  -26.1460  -11.3520   18.2420 C   0  0  0  0  0 15  0  0  0  0  0  0
  -27.0960  -10.5290   20.1610 C   0  0  0  0  0 15  0  0  0  0  0  0
  -25.4730  -13.4920   18.0430 C   0  0  0  0  0 15  0  0  0  0  0  0
  -26.6340  -14.1730   21.5280 C   0  0  0  0  0 15  0  0  0  0  0  0
  -27.4020  -12.1730   21.7960 C   0  0  0  0  0  1  0  0  0  0  0  0
  -25.7670  -14.9940   19.7370 C   0  0  0  0  0  1  0  0  0  0  0  0
  -30.9550  -13.0290   21.3600 C   0  0  0  0  0  0  0  0  0  0  0  0
  -31.7460  -11.5000   19.4700 C   0  0  0  0  0  2  0  0  0  0  0  0
  -30.9790  -11.6270   18.0770 C   0  0  0  0  0  2  0  0  0  0  0  0
  -29.4060  -11.6140   18.0700 C   0  0  0  0  0  2  0  0  0  0  0  0
  -29.0420  -12.3030   19.3590 C   0  0  0  0  0  3  0  0  0  0  0  0
  -29.7090  -11.3060   20.3750 C   0  0  0  0  0  2  0  0  0  0  0  0
  -30.9310  -11.9050   20.6270 N   0  0  0  0  0  0  0  0  0  0  0  0
  -31.9340  -13.7910   21.1670 O   0  0  0  0  0  0  0  0  0  0  0  0
  -28.6990  -12.4410   22.6950 C   0  0  0  0  0  0  0  0  0  0  0  0
  -29.8690  -13.1680   22.2790 N   0  0  0  0  0  0  0  0  0  0  0  0
  -28.5790  -12.1780   23.8920 O   0  0  0  0  0  0  0  0  0  0  0  0
  -30.1050  -13.8730   22.9580 H   0  0  0  0  0  0  0  0  0  0  0  0
  -26.8550  -13.2780   19.6500 C   0  0  0  0  0  0  0  0  0  0  0  0
  -25.2080  -12.6870   20.4720 C   0  0  0  0  0  0  0  0  0  0  0  0
  -25.1890  -11.4990   21.1580 C   0  0  0  0  0  2  0  0  0  0  0  0
  -27.6190  -12.7730   19.5970 N   0  0  0  0  0  2  0  0  0  0  0  0
  -25.9230  -12.5430   20.3820 N   0  0  0  0  0  2  0  0  0  0  0  0
  -24.7760   -9.9120   21.0690 C   0  0  0  0  0  3  0  0  0  0  0  0
  -25.0770   -9.0060   22.1500 C   0  0  0  0  0  3  0  0  0  0  0  0
  -24.4820   -7.7130   22.3300 C   0  0  0  0  0  3  0  0  0  0  0  0
  -23.5300   -7.2100   21.4130 C   0  0  0  0  0  0  0  0  0  0  0  0
  -23.3300   -8.0000   20.2530 C   0  0  0  0  0  3  0  0  0  0  0  0
  -23.9430   -9.2880   20.0800 C   0  0  0  0  0  3  0  0  0  0  0  0
  -22.8410   -6.0010   21.5490 O   0  0  0  0  0  0  0  0  0  0  0  0
  -22.4290   -5.4750   22.7680 C   0  0  0  0  0  0  0  0  0  0  0  0
  -21.6570   -6.2200   23.6910 C   0  0  0  0  0  3  0  0  0  0  0  0
  -21.2200   -5.6360   24.9010 C   0  0  0  0  0  3  0  0  0  0  0  0
  -21.5410   -4.2990   25.2050 C   0  0  0  0  0  0  0  0  0  0  0  0
  -22.2840   -3.5410   24.2820 C   0  0  0  0  0  3  0  0  0  0  0  0
  -22.7150   -4.1220   23.0730 C   0  0  0  0  0  0  0  0  0  0  0  0
  -23.4070   -3.3580   22.1920 F   0  0  0  0  0  0  0  0  0  0  0  0
  -21.1340   -3.7420   26.3710 F   0  0  0  0  0  0  0  0  0  0  0  0
  -23.5370  -12.9150   20.4240 C   0  0  0  0  0  0  0  0  0  0  0  0
  -22.7380  -12.3180   21.3350 N   0  0  0  0  0  0  0  0  0  0  0  0
  -22.9570  -13.5390   19.5500 O   0  0  0  0  0  0  0  0  0  0  0  0
  -23.1050  -11.7780   22.1040 H   0  0  0  0  0  0  0  0  0  0  0  0
  -21.7380  -12.4380   21.2540 H   0  0  0  0  0  0  0  0  0  0  0  0
  -27.5460  -14.2910   18.8410 N   0  0  0  0  0  4  0  0  0  0  0  0
  -27.0730  -15.1340   18.5450 H   0  0  0  0  0  0  0  0  0  0  0  0
  -28.3440  -14.0720   18.2630 H   0  0  0  0  0  0  0  0  0  0  0  0
  -23.9100  -17.5610   20.0100 O   0  0  0  0  0  0  0  0  0  0  0  0
  -23.8450  -16.6270   19.8350 H   0  0  0  0  0  0  0  0  0  0  0  0
  -27.8460  -21.5850   18.9000 C   0  0  0  0  0 15  0  0  0  0  0  0
  -28.5570  -23.3420   19.3800 O   0  0  0  0  0  1  0  0  0  0  0  0
  -26.0060  -30.1210   22.5490 C   0  0  0  0  0  0  0  0  0  0  0  0
  -28.1650  -24.9170   19.2850 C   0  0  0  0  0  0  0  0  0  0  0  0
  -24.9140  -28.9000   20.7360 C   0  0  0  0  0  3  0  0  0  0  0  0
  -26.3710  -27.3810   19.1990 C   0  0  0  0  0  0  0  0  0  0  0  0
  -27.4930  -28.8720   20.8160 C   0  0  0  0  0  2  0  0  0  0  0  0
  -27.4980  -27.4830   20.0140 C   0  0  0  0  0  0  0  0  0  0  0  0
  -28.4030  -26.2650   20.0400 C   0  0  0  0  0  3  0  0  0  0  0  0
  -27.2020  -25.2020   18.3140 C   0  0  0  0  0  3  0  0  0  0  0  0
  -26.3080  -26.3020   18.3120 C   0  0  0  0  0  3  0  0  0  0  0  0
  -25.2280  -28.3980   19.2970 C   0  0  0  0  0  2  0  0  0  0  0  0
  -26.1670  -29.3440   21.4170 N   0  0  0  0  0  0  0  0  0  0  0  0
  -24.8810  -30.3830   23.0110 O   0  0  0  0  0  0  0  0  0  0  0  0
  -24.1600  -27.8150   21.5540 C   0  0  0  0  0  0  0  0  0  0  0  0
  -22.8410  -27.6520   21.3350 N   0  0  0  0  0  0  0  0  0  0  0  0
  -24.7730  -27.1270   22.3750 O   0  0  0  0  0  0  0  0  0  0  0  0
  -22.3890  -28.2610   20.6660 H   0  0  0  0  0  0  0  0  0  0  0  0
  -19.4580  -26.3390   21.5340 C   0  0  0  0  0  0  0  0  0  0  0  0
  -21.9910  -26.6370   21.9730 C   0  0  0  0  0  3  0  0  0  0  0  0
  -22.1640  -25.2620   21.2880 C   0  0  0  0  0  2  0  0  0  0  0  0
  -21.1350  -25.0070   20.1830 C   0  0  0  0  0  2  0  0  0  0  0  0
  -19.7120  -25.0630   20.7490 C   0  0  0  0  0  2  0  0  0  0  0  0
  -20.5290  -27.0860   22.0950 C   0  0  0  0  0  0  0  0  0  0  0  0
  -20.2370  -28.2780   22.7940 C   0  0  0  0  0  3  0  0  0  0  0  0
  -18.9100  -28.7260   22.9330 C   0  0  0  0  0  3  0  0  0  0  0  0
  -17.8540  -27.9770   22.3860 C   0  0  0  0  0  3  0  0  0  0  0  0
  -18.1280  -26.7840   21.6920 C   0  0  0  0  0  3  0  0  0  0  0  0
  -27.2150  -30.7340   23.3170 C   0  0  0  0  0  3  0  0  0  0  0  0
  -27.8230  -29.7520   24.3960 C   0  0  1  0  0  0  0  0  0  0  0  0
  -26.7700  -29.1470   25.3570 C   0  0  0  0  0  1  0  0  0  0  0  0
  -28.5680  -28.5750   23.7320 C   0  0  0  0  0  1  0  0  0  0  0  0
  -28.8750  -30.4980   25.2510 C   0  0  0  0  0  1  0  0  0  0  0  0
  -26.7570  -31.9710   23.9920 N   0  0  0  0  0  0  0  0  0  0  0  0
  -27.0500  -33.2230   23.6130 C   0  0  0  0  0  0  0  0  0  0  0  0
  -27.7880  -33.4670   22.6560 O   0  0  0  0  0  0  0  0  0  0  0  0
  -26.1020  -31.8490   24.7490 H   0  0  0  0  0  0  0  0  0  0  0  0
  -25.2390  -34.9810   23.6470 C   0  0  0  0  0  1  0  0  0  0  0  0
  -26.4310  -34.3890   24.4180 C   0  0  0  0  0  3  0  0  0  0  0  0
  -28.4160  -35.0680   25.7000 C   0  0  0  0  0  1  0  0  0  0  0  0
  -27.3930  -35.4690   24.7380 N   0  0  0  0  0  0  0  0  0  0  0  0
  -26.9100  -36.2810   25.1110 H   0  0  0  0  0  0  0  0  0  0  0  0
  1  4  2  0
  2  3  2  0
  2  5  1  0
  3  1  1  0
  4 52  1  0
  5 11  1  0
  5  4  1  0
 10 20  1  0
 12 21  1  0
 13 18  1  0
 14 13  1  0
 15 14  1  0
 15 16  1  0
 16 27  1  0
 16 17  1  0
 17 18  1  0
 18 12  1  0
 19 12  2  0
 20 22  2  0
 21 20  1  0
 21 23  1  0
 24 28  1  0
 25 26  2  0
 27 24  1  0
 28 25  1  0
 29 30  1  0
 30 31  2  0
 32 35  1  0
 32 31  1  0
 33 32  2  0
 34 33  1  0
 34 29  2  0
 35 36  1  0
 36 41  2  0
 36 37  1  0
 37 38  2  0
 38 39  1  0
 39 43  1  0
 40 39  2  0
 41 40  1  0
 42 41  1  0
 44 25  1  0
 44 45  1  0
 45 47  1  0
 46 44  2  0
 48 45  1  0
 49 24  2  0
 50 49  1  0
 51 49  1  0
 53 52  1  0
 56 67  2  0
 57 55  1  0
 57 62  1  0
 58 66  1  0
 58 68  1  0
 59 65  1  0
 59 61  1  0
 60 66  1  0
 61 62  2  0
 61 60  1  0
 63 57  2  0
 64 63  1  0
 64 59  2  0
 65 58  1  0
 66 56  1  0
 68 70  2  0
 69 68  1  0
 71 69  1  0
 72 81  2  0
 72 77  1  0
 73 69  1  0
 73 77  1  0
 74 73  1  0
 75 76  1  0
 75 74  1  0
 76 72  1  0
 77 78  2  0
 78 79  1  0
 80 79  2  0
 81 80  1  0
 82 56  1  0
 82 87  1  0
 82 83  1  0
 83 86  1  1
 83 84  1  0
 85 83  1  0
 87 90  1  0
 88 87  1  0
 88 92  1  0
 89 88  2  0
 92 91  1  0
 92 94  1  0
 94 95  1  0
 94 93  1  0
M  ISO  4  12 100  21 100  54 101  55 101
M  END
>  <TORSDO>  (20) 
F 19

>  <SCORE>  (20) 
3.332

>  <name>  (20) 
19

>  <ligand_id>  (20) 
19

>  <original_smiles>  (20) 
[H]Oc1c([H])c(C([H])([H])Oc2c([H])c([H])c3c(c2[H])C([H])([H])N(C(=O)C([H])(N([H])C(=O)C([H])(N([H])C([H])([H])[H])C([H])([H])[H])C(C([H])([H])[H])(C([H])([H])[H])C([H])([H])[H])C([H])(C(=O)N([H])C2([H])c4c([H])c([H])c([H])c([H])c4C([H])([H])C([H])([H])C2([H])[H])C3([H])[H])c([H])n1-c1c([H])c([H])c([H])c(C(=O)N([H])C(=O)N2C([H])([H])C([H])([H])C([H])([H])C([H])(n3nc(-c4c([H])c([H])c(Oc5c([H])c([H])c(F)c([H])c5F)c([H])c4[H])c(C(=O)N([H])[H])c3N([H])[H])C2([H])[H])c1[H]

>  <smiles>  (20) 
[H]Oc1c([H])c(C([H])([H])Oc2c([H])c([H])c3c(c2[H])C([H])([H])N(C(=O)C([H])(N([H])C(=O)C([H])(N([H])C([H])([H])[H])C([H])([H])[H])C(C([H])([H])[H])(C([H])([H])[H])C([H])([H])[H])C([H])(C(=O)N([H])C2([H])c4c([H])c([H])c([H])c([H])c4C([H])([H])C([H])([H])C2([H])[H])C3([H])[H])c([H])n1-c1c([H])c([H])c([H])c(C(=O)N([H])C(=O)N2C([H])([H])C([H])([H])C([H])([H])C([H])(n3nc(-c4c([H])c([H])c(Oc5c([H])c([H])c(F)c([H])c5F)c([H])c4[H])c(C(=O)N([H])[H])c3N([H])[H])C2([H])[H])c1[H]

$$$$
20:0:0
     RDKit          3D

 94102  0  0  1  0  0  0  0  0999 V2000
  -29.8940  -21.4400   20.0330 C   0  0  0  0  0  0  0  0  0  0  0  0
  -28.5280  -23.4840   20.4850 C   0  0  0  0  0  0  0  0  0  0  0  0
  -28.8520  -22.1530   20.5330 N   0  0  0  0  0  0  0  0  0  0  0  0
  -30.8470  -21.9610   19.4460 O   0  0  0  0  0  0  0  0  0  0  0  0
  -27.9620  -23.9610   21.4720 O   0  0  0  0  0  0  0  0  0  0  0  0
  -28.3140  -21.6280   21.2010 H   0  0  0  0  0  0  0  0  0  0  0  0
  -30.6090  -19.0890   19.2950 C   0  0  0  0  0  3  0  0  0  0  0  0
  -29.2560  -19.2500   21.2860 C   0  0  0  0  0  3  0  0  0  0  0  0
  -30.6770  -17.6770   19.4360 C   0  0  0  0  0  3  0  0  0  0  0  0
  -29.3140  -17.8350   21.4230 C   0  0  0  0  0  3  0  0  0  0  0  0
  -29.8950  -19.9140   20.2050 C   0  0  0  0  0  0  0  0  0  0  0  0
  -30.0290  -17.0160   20.5100 C   0  0  0  0  0  0  0  0  0  0  0  0
  -30.7160  -14.5890   20.0790 C   0  0  0  0  0  0  0  0  0  0  0  0
  -30.4160  -12.4240   18.9170 C   0  0  0  0  0  2  0  0  0  0  0  0
  -29.4020  -12.6480   17.7730 C   0  0  0  0  0  2  0  0  0  0  0  0
  -27.9530  -12.4960   18.2790 C   0  0  0  0  0  2  0  0  0  0  0  0
  -27.6890  -13.2840   19.5910 C   0  0  0  0  0  3  0  0  0  0  0  0
  -28.8070  -13.0290   20.6260 C   0  0  0  0  0  2  0  0  0  0  0  0
  -30.0910  -13.3780   19.9940 N   0  0  0  0  0  0  0  0  0  0  0  0
  -31.8170  -14.7930   19.5560 O   0  0  0  0  0  0  0  0  0  0  0  0
  -29.9960  -15.5770   20.6770 N   0  0  0  0  0  0  0  0  0  0  0  0
  -29.2130  -15.2300   21.2110 H   0  0  0  0  0  0  0  0  0  0  0  0
  -25.3380  -13.8710   20.4570 C   0  0  0  0  0  0  0  0  0  0  0  0
  -24.2900  -13.0900   20.8640 C   0  0  0  0  0  0  0  0  0  0  0  0
  -24.7420  -11.7380   20.7620 C   0  0  0  0  0  0  0  0  0  0  0  0
  -26.3640  -12.9940   20.1360 N   0  0  0  0  0  0  0  0  0  0  0  0
  -26.0110  -11.7050   20.3770 N   0  0  0  0  0  0  0  0  0  0  0  0
  -24.0220  -10.4730   20.9580 C   0  0  0  0  0  0  0  0  0  0  0  0
  -24.4680   -9.5050   21.8850 C   0  0  0  0  0  3  0  0  0  0  0  0
  -23.7490   -8.3040   22.0690 C   0  0  0  0  0  3  0  0  0  0  0  0
  -22.5690   -8.0620   21.3260 C   0  0  0  0  0  0  0  0  0  0  0  0
  -22.1420   -9.0180   20.3870 C   0  0  0  0  0  3  0  0  0  0  0  0
  -22.8620  -10.2110   20.2010 C   0  0  0  0  0  3  0  0  0  0  0  0
  -21.8220   -6.9130   21.4170 O   0  0  0  0  0  0  0  0  0  0  0  0
  -21.7360   -6.2010   22.5870 C   0  0  0  0  0  0  0  0  0  0  0  0
  -21.2360   -6.7770   23.7750 C   0  0  0  0  0  3  0  0  0  0  0  0
  -21.0990   -5.9900   24.9360 C   0  0  0  0  0  3  0  0  0  0  0  0
  -21.4540   -4.6280   24.9100 C   0  0  0  0  0  0  0  0  0  0  0  0
  -21.9470   -4.0520   23.7260 C   0  0  0  0  0  3  0  0  0  0  0  0
  -22.0860   -4.8350   22.5680 C   0  0  0  0  0  0  0  0  0  0  0  0
  -22.5410   -4.2700   21.4230 F   0  0  0  0  0  0  0  0  0  0  0  0
  -21.3160   -3.8690   26.0220 F   0  0  0  0  0  0  0  0  0  0  0  0
  -22.9130  -13.5620   21.2360 C   0  0  0  0  0  0  0  0  0  0  0  0
  -22.2360  -12.8420   22.1240 N   0  0  0  0  0  0  0  0  0  0  0  0
  -22.4490  -14.6030   20.7750 O   0  0  0  0  0  0  0  0  0  0  0  0
  -22.6260  -12.0000   22.5190 H   0  0  0  0  0  0  0  0  0  0  0  0
  -21.3150  -13.1400   22.4140 H   0  0  0  0  0  0  0  0  0  0  0  0
  -25.4990  -15.2460   20.3190 N   0  0  0  0  0  0  0  0  0  0  0  0
  -24.7440  -15.8990   20.5000 H   0  0  0  0  0  0  0  0  0  0  0  0
  -26.3350  -15.6970   19.9690 H   0  0  0  0  0  0  0  0  0  0  0  0
  -28.6210  -25.6310   19.1640 C   0  0  0  0  0  3  0  0  0  0  0  0
  -28.6860  -24.2610   19.2260 C   0  0  0  0  0  0  0  0  0  0  0  0
  -28.8150  -23.5250   17.8960 C   0  0  0  0  0  1  0  0  0  0  0  0
  -28.4190  -26.5690   20.1670 O   0  0  0  0  0  0  0  0  0  0  0  0
  -24.6500  -31.8640   23.2050 C   0  0  0  0  0  0  0  0  0  0  0  0
  -27.2870  -27.3820   20.1070 C   0  0  0  0  0  0  0  0  0  0  0  0
  -23.4470  -30.4670   21.5600 C   0  0  0  0  0  3  0  0  0  0  0  0
  -24.9000  -28.9350   20.1230 C   0  0  0  0  0  0  0  0  0  0  0  0
  -25.9790  -30.8120   21.3680 C   0  0  0  0  0  2  0  0  0  0  0  0
  -26.0640  -29.4420   20.7130 C   0  0  0  0  0  0  0  0  0  0  0  0
  -27.2600  -28.6720   20.7050 C   0  0  0  0  0  3  0  0  0  0  0  0
  -26.0950  -26.9030   19.5170 C   0  0  0  0  0  3  0  0  0  0  0  0
  -24.9130  -27.6670   19.5210 C   0  0  0  0  0  3  0  0  0  0  0  0
  -23.6580  -29.7990   20.1760 C   0  0  0  0  0  2  0  0  0  0  0  0
  -24.7100  -31.0640   22.1020 N   0  0  0  0  0  0  0  0  0  0  0  0
  -23.5670  -32.1330   23.7440 O   0  0  0  0  0  0  0  0  0  0  0  0
  -22.7940  -29.4420   22.5170 C   0  0  0  0  0  0  0  0  0  0  0  0
  -21.4650  -29.2720   22.4050 N   0  0  0  0  0  0  0  0  0  0  0  0
  -23.4800  -28.8050   23.3210 O   0  0  0  0  0  0  0  0  0  0  0  0
  -20.9710  -29.8380   21.7290 H   0  0  0  0  0  0  0  0  0  0  0  0
  -18.0890  -28.0930   22.9310 C   0  0  0  0  0  0  0  0  0  0  0  0
  -20.6520  -28.3320   23.1750 C   0  0  0  0  0  3  0  0  0  0  0  0
  -20.7390  -26.9050   22.5850 C   0  0  0  0  0  2  0  0  0  0  0  0
  -19.6220  -26.6000   21.5820 C   0  0  0  0  0  2  0  0  0  0  0  0
  -18.2490  -26.7490   22.2410 C   0  0  0  0  0  2  0  0  0  0  0  0
  -19.2170  -28.8420   23.3560 C   0  0  0  0  0  0  0  0  0  0  0  0
  -19.0140  -30.1020   23.9630 C   0  0  0  0  0  3  0  0  0  0  0  0
  -17.7150  -30.6100   24.1490 C   0  0  0  0  0  3  0  0  0  0  0  0
  -16.6010  -29.8560   23.7400 C   0  0  0  0  0  3  0  0  0  0  0  0
  -16.7890  -28.6000   23.1370 C   0  0  0  0  0  3  0  0  0  0  0  0
  -25.9330  -32.4970   23.8260 C   0  0  0  0  0  3  0  0  0  0  0  0
  -25.6170  -33.8890   24.1710 N   0  0  0  0  0  0  0  0  0  0  0  0
  -25.9300  -34.9510   23.4160 C   0  0  0  0  0  0  0  0  0  0  0  0
  -26.5860  -34.8610   22.3740 O   0  0  0  0  0  0  0  0  0  0  0  0
  -25.0370  -34.0320   24.9850 H   0  0  0  0  0  0  0  0  0  0  0  0
  -24.1850  -36.7340   23.0940 C   0  0  0  0  0  1  0  0  0  0  0  0
  -25.4370  -36.3320   23.8900 C   0  0  0  0  0  3  0  0  0  0  0  0
  -27.5700  -37.2300   24.7110 C   0  0  0  0  0  1  0  0  0  0  0  0
  -26.4610  -37.3930   23.7740 N   0  0  0  0  0  0  0  0  0  0  0  0
  -26.0500  -38.3100   23.9260 H   0  0  0  0  0  0  0  0  0  0  0  0
  -26.4610  -31.7180   25.0930 C   0  0  1  0  0  0  0  0  0  0  0  0
  -25.3740  -31.4600   26.1640 C   0  0  0  0  0  1  0  0  0  0  0  0
  -27.0540  -30.3500   24.6830 C   0  0  0  0  0  1  0  0  0  0  0  0
  -27.6050  -32.5170   25.7600 C   0  0  0  0  0  1  0  0  0  0  0  0
  1 11  1  0
  1  3  1  0
  2  3  1  0
  2  5  2  0
  3  6  1  0
  4  1  2  0
  7  9  2  0
  7 11  1  0
  8 10  1  0
  9 12  1  0
 11  8  2  0
 12 21  1  0
 12 10  2  0
 13 21  1  0
 14 19  1  0
 15 16  1  0
 15 14  1  0
 17 16  1  0
 17 26  1  0
 17 18  1  0
 19 13  1  0
 19 18  1  0
 20 13  2  0
 21 22  1  0
 23 24  2  0
 24 43  1  0
 25 24  1  0
 25 28  1  0
 26 27  1  0
 26 23  1  0
 27 25  2  0
 28 29  1  0
 29 30  2  0
 31 34  1  0
 31 30  1  0
 32 31  2  0
 33 32  1  0
 33 28  2  0
 34 35  1  0
 35 36  1  0
 36 37  2  0
 38 37  1  0
 38 42  1  0
 39 38  2  0
 40 35  2  0
 40 39  1  0
 41 40  1  0
 43 44  1  0
 44 47  1  0
 44 46  1  0
 45 43  2  0
 48 23  1  0
 48 49  1  0
 50 48  1  0
 51 52  2  0
 51 54  1  0
 52  2  1  0
 53 52  1  0
 55 66  2  0
 56 54  1  0
 56 61  1  0
 57 65  1  0
 57 67  1  0
 58 64  1  0
 58 60  1  0
 59 65  1  0
 60 59  1  0
 61 60  2  0
 62 63  1  0
 62 56  2  0
 63 58  2  0
 64 57  1  0
 65 55  1  0
 67 69  2  0
 68 67  1  0
 70 68  1  0
 71 80  2  0
 71 76  1  0
 72 68  1  0
 72 76  1  0
 73 72  1  0
 74 75  1  0
 74 73  1  0
 75 71  1  0
 76 77  2  0
 77 78  1  0
 79 78  2  0
 80 79  1  0
 81 55  1  0
 81 82  1  0
 81 91  1  0
 82 85  1  0
 83 87  1  0
 83 82  1  0
 84 83  2  0
 87 86  1  0
 89 87  1  0
 89 90  1  0
 89 88  1  0
 91 94  1  1
 91 92  1  0
 93 91  1  0
M  ISO  4  13 100  21 100  51 101  54 101
M  END
>  <TORSDO>  (21) 
F 18

>  <SCORE>  (21) 
-13.885

>  <name>  (21) 
20

>  <ligand_id>  (21) 
20

>  <original_smiles>  (21) 
[H]C(Oc1c([H])c([H])c2c(c1[H])C([H])([H])N(C(=O)C([H])(N([H])C(=O)C([H])(N([H])C([H])([H])[H])C([H])([H])[H])C(C([H])([H])[H])(C([H])([H])[H])C([H])([H])[H])C([H])(C(=O)N([H])C1([H])c3c([H])c([H])c([H])c([H])c3C([H])([H])C([H])([H])C1([H])[H])C2([H])[H])=C(C(=O)N([H])C(=O)c1c([H])c([H])c(N([H])C(=O)N2C([H])([H])C([H])([H])C([H])([H])C([H])(n3nc(-c4c([H])c([H])c(Oc5c([H])c([H])c(F)c([H])c5F)c([H])c4[H])c(C(=O)N([H])[H])c3N([H])[H])C2([H])[H])c([H])c1[H])C([H])([H])[H]

>  <smiles>  (21) 
[H]C(Oc1c([H])c([H])c2c(c1[H])C([H])([H])N(C(=O)C([H])(N([H])C(=O)C([H])(N([H])C([H])([H])[H])C([H])([H])[H])C(C([H])([H])[H])(C([H])([H])[H])C([H])([H])[H])C([H])(C(=O)N([H])C1([H])c3c([H])c([H])c([H])c([H])c3C([H])([H])C([H])([H])C1([H])[H])C2([H])[H])=C(C(=O)N([H])C(=O)c1c([H])c([H])c(N([H])C(=O)N2C([H])([H])C([H])([H])C([H])([H])C([H])(n3nc(-c4c([H])c([H])c(Oc5c([H])c([H])c(F)c([H])c5F)c([H])c4[H])c(C(=O)N([H])[H])c3N([H])[H])C2([H])[H])c([H])c1[H])C([H])([H])[H]

$$$$
21:0:0
     RDKit          3D

 92101  0  0  1  0  0  0  0  0999 V2000
  -28.5230  -23.8100   20.4520 C   0  0  0  0  0  0  0  0  0  0  0  0
  -28.0310  -22.5950   21.0920 C   0  0  0  0  0  0  0  0  0  0  0  0
  -28.0320  -25.1060   20.6200 C   0  0  0  0  0  3  0  0  0  0  0  0
  -29.5810  -22.9420   19.7040 C   0  0  0  0  0  2  0  0  0  0  0  0
  -28.9830  -21.7870   20.4400 N   0  0  0  0  0  0  0  0  0  0  0  0
  -27.1220  -22.4250   21.8780 O   0  0  0  0  0  0  0  0  0  0  0  0
  -28.5270  -19.3820   21.0880 C   0  0  0  0  0  3  0  0  0  0  0  0
  -28.7370  -17.9690   21.1070 C   0  0  0  0  0  3  0  0  0  0  0  0
  -30.6250  -18.2380   19.6960 C   0  0  0  0  0  3  0  0  0  0  0  0
  -29.3220  -20.3310   20.3770 C   0  0  0  0  0  0  0  0  0  0  0  0
  -29.7940  -17.3250   20.4130 C   0  0  0  0  0  0  0  0  0  0  0  0
  -30.3930  -19.6680   19.6800 C   0  0  0  0  0  0  0  0  0  0  0  0
  -31.2420  -20.4350   18.9530 F   0  0  0  0  0  0  0  0  0  0  0  0
  -30.6670  -14.8230   19.9960 C   0  0  0  0  0  0  0  0  0  0  0  0
  -30.4710  -12.5660   18.9260 C   0  0  0  0  0  2  0  0  0  0  0  0
  -29.4460  -12.6620   17.7710 C   0  0  0  0  0  2  0  0  0  0  0  0
  -28.0060  -12.4670   18.2880 C   0  0  0  0  0  2  0  0  0  0  0  0
  -27.7090  -13.3150   19.5530 C   0  0  0  0  0  3  0  0  0  0  0  0
  -28.8370  -13.1690   20.5990 C   0  0  0  0  0  2  0  0  0  0  0  0
  -30.0970  -13.5680   19.9500 N   0  0  0  0  0  0  0  0  0  0  0  0
  -31.7910  -15.0170   19.5220 O   0  0  0  0  0  0  0  0  0  0  0  0
  -29.8570  -15.8370   20.4770 N   0  0  0  0  0  0  0  0  0  0  0  0
  -29.0460  -15.4360   20.9230 H   0  0  0  0  0  0  0  0  0  0  0  0
  -25.3720  -13.8870   20.4490 C   0  0  0  0  0  0  0  0  0  0  0  0
  -24.3300  -13.1030   20.8620 C   0  0  0  0  0  0  0  0  0  0  0  0
  -24.7840  -11.7530   20.7510 C   0  0  0  0  0  0  0  0  0  0  0  0
  -26.3950  -13.0150   20.1150 N   0  0  0  0  0  0  0  0  0  0  0  0
  -26.0510  -11.7240   20.3570 N   0  0  0  0  0  0  0  0  0  0  0  0
  -24.0670  -10.4850   20.9430 C   0  0  0  0  0  0  0  0  0  0  0  0
  -24.5060   -9.5230   21.8790 C   0  0  0  0  0  3  0  0  0  0  0  0
  -23.7890   -8.3200   22.0580 C   0  0  0  0  0  3  0  0  0  0  0  0
  -22.6190   -8.0710   21.3010 C   0  0  0  0  0  0  0  0  0  0  0  0
  -22.1990   -9.0220   20.3550 C   0  0  0  0  0  3  0  0  0  0  0  0
  -22.9170  -10.2180   20.1740 C   0  0  0  0  0  3  0  0  0  0  0  0
  -21.8740   -6.9210   21.3900 O   0  0  0  0  0  0  0  0  0  0  0  0
  -21.7590   -6.2260   22.5680 C   0  0  0  0  0  0  0  0  0  0  0  0
  -21.2490   -6.8260   23.7390 C   0  0  0  0  0  3  0  0  0  0  0  0
  -21.0830   -6.0570   24.9080 C   0  0  0  0  0  3  0  0  0  0  0  0
  -21.4170   -4.6900   24.9070 C   0  0  0  0  0  0  0  0  0  0  0  0
  -21.9200   -4.0890   23.7390 C   0  0  0  0  0  3  0  0  0  0  0  0
  -22.0870   -4.8550   22.5720 C   0  0  0  0  0  0  0  0  0  0  0  0
  -22.5520   -4.2670   21.4430 F   0  0  0  0  0  0  0  0  0  0  0  0
  -21.2500   -3.9490   26.0270 F   0  0  0  0  0  0  0  0  0  0  0  0
  -22.9550  -13.5710   21.2420 C   0  0  0  0  0  0  0  0  0  0  0  0
  -22.2850  -12.8480   22.1320 N   0  0  0  0  0  0  0  0  0  0  0  0
  -22.4850  -14.6120   20.7840 O   0  0  0  0  0  0  0  0  0  0  0  0
  -22.6790  -12.0060   22.5220 H   0  0  0  0  0  0  0  0  0  0  0  0
  -21.3650  -13.1430   22.4290 H   0  0  0  0  0  0  0  0  0  0  0  0
  -25.5290  -15.2640   20.3100 N   0  0  0  0  0  0  0  0  0  0  0  0
  -24.7680  -15.9110   20.4830 H   0  0  0  0  0  0  0  0  0  0  0  0
  -26.3420  -15.7110   19.9040 H   0  0  0  0  0  0  0  0  0  0  0  0
  -28.3480  -26.3960   20.1000 O   0  0  0  0  0  0  0  0  0  0  0  0
  -24.6840  -31.8830   23.1820 C   0  0  0  0  0  0  0  0  0  0  0  0
  -27.2880  -27.3320   20.0660 C   0  0  0  0  0  0  0  0  0  0  0  0
  -23.4770  -30.4970   21.5360 C   0  0  0  0  0  3  0  0  0  0  0  0
  -24.9260  -28.9650   20.0810 C   0  0  0  0  0  0  0  0  0  0  0  0
  -26.0170  -30.8160   21.3440 C   0  0  0  0  0  2  0  0  0  0  0  0
  -26.1010  -29.4420   20.6800 C   0  0  0  0  0  0  0  0  0  0  0  0
  -27.2860  -28.6360   20.6660 C   0  0  0  0  0  3  0  0  0  0  0  0
  -26.0950  -26.9270   19.4310 C   0  0  0  0  0  3  0  0  0  0  0  0
  -24.9270  -27.7150   19.4440 C   0  0  0  0  0  3  0  0  0  0  0  0
  -23.6860  -29.8370   20.1490 C   0  0  0  0  0  2  0  0  0  0  0  0
  -24.7460  -31.0830   22.0770 N   0  0  0  0  0  0  0  0  0  0  0  0
  -23.6030  -32.1510   23.7260 O   0  0  0  0  0  0  0  0  0  0  0  0
  -22.8210  -29.4700   22.4910 C   0  0  0  0  0  0  0  0  0  0  0  0
  -21.4930  -29.2910   22.3730 N   0  0  0  0  0  0  0  0  0  0  0  0
  -23.5060  -28.8370   23.3000 O   0  0  0  0  0  0  0  0  0  0  0  0
  -20.9990  -29.8530   21.6950 H   0  0  0  0  0  0  0  0  0  0  0  0
  -18.1220  -28.0820   22.8930 C   0  0  0  0  0  0  0  0  0  0  0  0
  -20.6830  -28.3420   23.1400 C   0  0  0  0  0  3  0  0  0  0  0  0
  -20.7810  -26.9180   22.5480 C   0  0  0  0  0  2  0  0  0  0  0  0
  -19.6700  -26.6060   21.5400 C   0  0  0  0  0  2  0  0  0  0  0  0
  -18.2940  -26.7410   22.2000 C   0  0  0  0  0  2  0  0  0  0  0  0
  -19.2440  -28.8410   23.3210 C   0  0  0  0  0  0  0  0  0  0  0  0
  -19.0290  -30.0950   23.9320 C   0  0  0  0  0  3  0  0  0  0  0  0
  -17.7250  -30.5920   24.1170 C   0  0  0  0  0  3  0  0  0  0  0  0
  -16.6180  -29.8310   23.7050 C   0  0  0  0  0  3  0  0  0  0  0  0
  -16.8170  -28.5770   23.0980 C   0  0  0  0  0  3  0  0  0  0  0  0
  -25.9670  -32.5160   23.8030 C   0  0  0  0  0  3  0  0  0  0  0  0
  -25.6530  -33.9070   24.1560 N   0  0  0  0  0  0  0  0  0  0  0  0
  -25.9720  -34.9740   23.4110 C   0  0  0  0  0  0  0  0  0  0  0  0
  -26.6330  -34.8880   22.3720 O   0  0  0  0  0  0  0  0  0  0  0  0
  -25.0640  -34.0460   24.9640 H   0  0  0  0  0  0  0  0  0  0  0  0
  -24.2350  -36.7670   23.0980 C   0  0  0  0  0  1  0  0  0  0  0  0
  -25.4840  -36.3530   23.8940 C   0  0  0  0  0  3  0  0  0  0  0  0
  -27.6190  -37.2350   24.7260 C   0  0  0  0  0  1  0  0  0  0  0  0
  -26.5110  -37.4120   23.7890 N   0  0  0  0  0  0  0  0  0  0  0  0
  -26.1030  -38.3290   23.9500 H   0  0  0  0  0  0  0  0  0  0  0  0
  -26.4980  -31.7300   25.0650 C   0  0  1  0  0  0  0  0  0  0  0  0
  -25.4140  -31.4740   26.1390 C   0  0  0  0  0  1  0  0  0  0  0  0
  -27.0850  -30.3600   24.6540 C   0  0  0  0  0  1  0  0  0  0  0  0
  -27.6490  -32.5220   25.7290 C   0  0  0  0  0  1  0  0  0  0  0  0
  1  3  2  0
  1  2  1  0
  2  6  2  0
  4  5  1  0
  4  1  1  0
  5  2  1  0
  7  8  1  0
  9 11  1  0
 10  5  1  0
 10  7  2  0
 11 22  1  0
 11  8  2  0
 12  9  2  0
 12 10  1  0
 13 12  1  0
 14 22  1  0
 15 20  1  0
 16 17  1  0
 16 15  1  0
 18 17  1  0
 18 27  1  0
 18 19  1  0
 20 14  1  0
 20 19  1  0
 21 14  2  0
 22 23  1  0
 24 25  2  0
 25 44  1  0
 26 25  1  0
 26 29  1  0
 27 28  1  0
 27 24  1  0
 28 26  2  0
 29 30  1  0
 30 31  2  0
 32 35  1  0
 32 31  1  0
 33 32  2  0
 34 33  1  0
 34 29  2  0
 35 36  1  0
 36 41  2  0
 36 37  1  0
 37 38  2  0
 39 38  1  0
 39 43  1  0
 40 39  2  0
 41 40  1  0
 42 41  1  0
 44 45  1  0
 45 48  1  0
 45 47  1  0
 46 44  2  0
 49 24  1  0
 49 50  1  0
 51 49  1  0
 52  3  1  0
 53 64  2  0
 54 52  1  0
 54 59  1  0
 55 63  1  0
 55 65  1  0
 56 62  1  0
 56 58  1  0
 57 63  1  0
 58 57  1  0
 59 58  2  0
 60 61  1  0
 60 54  2  0
 61 56  2  0
 62 55  1  0
 63 53  1  0
 65 67  2  0
 66 65  1  0
 68 66  1  0
 69 78  2  0
 69 74  1  0
 70 66  1  0
 70 74  1  0
 71 70  1  0
 72 73  1  0
 72 71  1  0
 73 69  1  0
 74 75  2  0
 75 76  1  0
 77 76  2  0
 78 77  1  0
 79 53  1  0
 79 80  1  0
 79 89  1  0
 80 83  1  0
 81 85  1  0
 81 80  1  0
 82 81  2  0
 85 84  1  0
 87 85  1  0
 87 88  1  0
 87 86  1  0
 89 92  1  1
 89 90  1  0
 91 89  1  0
M  ISO  4   3 101  14 100  22 100  52 101
M  END
>  <TORSDO>  (22) 
F 17

>  <SCORE>  (22) 
-14.033

>  <name>  (22) 
21

>  <ligand_id>  (22) 
21

>  <original_smiles>  (22) 
[H]C(Oc1c([H])c([H])c2c(c1[H])C([H])([H])N(C(=O)C([H])(N([H])C(=O)C([H])(N([H])C([H])([H])[H])C([H])([H])[H])C(C([H])([H])[H])(C([H])([H])[H])C([H])([H])[H])C([H])(C(=O)N([H])C1([H])c3c([H])c([H])c([H])c([H])c3C([H])([H])C([H])([H])C1([H])[H])C2([H])[H])=C1C(=O)N(c2c([H])c([H])c(N([H])C(=O)N3C([H])([H])C([H])([H])C([H])([H])C([H])(n4nc(-c5c([H])c([H])c(Oc6c([H])c([H])c(F)c([H])c6F)c([H])c5[H])c(C(=O)N([H])[H])c4N([H])[H])C3([H])[H])c([H])c2F)C1([H])[H]

>  <smiles>  (22) 
[H]C(Oc1c([H])c([H])c2c(c1[H])C([H])([H])N(C(=O)C([H])(N([H])C(=O)C([H])(N([H])C([H])([H])[H])C([H])([H])[H])C(C([H])([H])[H])(C([H])([H])[H])C([H])([H])[H])C([H])(C(=O)N([H])C1([H])c3c([H])c([H])c([H])c([H])c3C([H])([H])C([H])([H])C1([H])[H])C2([H])[H])=C1C(=O)N(c2c([H])c([H])c(N([H])C(=O)N3C([H])([H])C([H])([H])C([H])([H])C([H])(n4nc(-c5c([H])c([H])c(Oc6c([H])c([H])c(F)c([H])c6F)c([H])c5[H])c(C(=O)N([H])[H])c4N([H])[H])C3([H])[H])c([H])c2F)C1([H])[H]

$$$$
22:0:0
     RDKit          3D

 94103  0  0  1  0  0  0  0  0999 V2000
  -28.9320  -23.8130   20.3150 C   0  0  0  0  0  0  0  0  0  0  0  0
  -28.5420  -22.3610   20.0030 C   0  0  0  0  0  0  0  0  0  0  0  0
  -31.2080  -22.8480   20.9820 C   0  0  0  0  0  0  0  0  0  0  0  0
  -32.5460  -22.8720   20.8650 C   0  0  0  0  0  2  0  0  0  0  0  0
  -28.0290  -24.8670   20.1200 C   0  0  0  0  0  3  0  0  0  0  0  0
  -30.3580  -24.0990   20.7900 C   0  0  0  0  0  2  0  0  0  0  0  0
  -30.4480  -21.5780   21.3300 C   0  0  0  0  0  2  0  0  0  0  0  0
  -29.3980  -21.2900   20.3490 N   0  0  0  0  0  0  0  0  0  0  0  0
  -27.4690  -22.1130   19.4450 O   0  0  0  0  0  0  0  0  0  0  0  0
  -29.1400  -18.4820   17.7660 C   0  0  0  0  0  3  0  0  0  0  0  0
  -29.1040  -19.7360   18.4090 C   0  0  0  0  0  3  0  0  0  0  0  0
  -29.4270  -17.2940   18.4620 C   0  0  0  0  0  3  0  0  0  0  0  0
  -29.6340  -18.6140   20.4980 C   0  0  0  0  0  3  0  0  0  0  0  0
  -29.3560  -19.8790   19.7950 C   0  0  0  0  0  0  0  0  0  0  0  0
  -29.6780  -17.2930   19.8500 C   0  0  0  0  0  0  0  0  0  0  0  0
  -30.5220  -14.8180   20.0800 C   0  0  0  0  0  0  0  0  0  0  0  0
  -30.3020  -12.5260   19.0890 C   0  0  0  0  0  2  0  0  0  0  0  0
  -29.3170  -12.5780   17.8970 C   0  0  0  0  0  2  0  0  0  0  0  0
  -27.8700  -12.3910   18.3870 C   0  0  0  0  0  2  0  0  0  0  0  0
  -27.5350  -13.2790   19.6130 C   0  0  0  0  0  3  0  0  0  0  0  0
  -28.6370  -13.2090   20.6960 C   0  0  0  0  0  2  0  0  0  0  0  0
  -29.9090  -13.5800   20.0620 N   0  0  0  0  0  0  0  0  0  0  0  0
  -31.6680  -14.9250   19.6330 O   0  0  0  0  0  0  0  0  0  0  0  0
  -29.8130  -15.9480   20.4960 N   0  0  0  0  0  0  0  0  0  0  0  0
  -29.0490  -15.7250   21.1180 H   0  0  0  0  0  0  0  0  0  0  0  0
  -25.1740  -13.8410   20.4410 C   0  0  0  0  0  0  0  0  0  0  0  0
  -24.1300  -13.0530   20.8450 C   0  0  0  0  0  0  0  0  0  0  0  0
  -24.6040  -11.7070   20.7860 C   0  0  0  0  0  0  0  0  0  0  0  0
  -26.2150  -12.9730   20.1550 N   0  0  0  0  0  0  0  0  0  0  0  0
  -25.8830  -11.6840   20.4260 N   0  0  0  0  0  0  0  0  0  0  0  0
  -23.8940  -10.4390   20.9930 C   0  0  0  0  0  0  0  0  0  0  0  0
  -24.3490   -9.4780   21.9220 C   0  0  0  0  0  3  0  0  0  0  0  0
  -23.6370   -8.2750   22.1170 C   0  0  0  0  0  3  0  0  0  0  0  0
  -22.4530   -8.0250   21.3820 C   0  0  0  0  0  0  0  0  0  0  0  0
  -22.0190   -8.9720   20.4380 C   0  0  0  0  0  3  0  0  0  0  0  0
  -22.7330  -10.1670   20.2420 C   0  0  0  0  0  3  0  0  0  0  0  0
  -21.7090   -6.8740   21.4890 O   0  0  0  0  0  0  0  0  0  0  0  0
  -21.6770   -6.1430   22.6470 C   0  0  0  0  0  0  0  0  0  0  0  0
  -21.2120   -6.6920   23.8630 C   0  0  0  0  0  3  0  0  0  0  0  0
  -21.1270   -5.8840   25.0140 C   0  0  0  0  0  3  0  0  0  0  0  0
  -21.5010   -4.5280   24.9520 C   0  0  0  0  0  0  0  0  0  0  0  0
  -21.9570   -3.9780   23.7430 C   0  0  0  0  0  3  0  0  0  0  0  0
  -22.0420   -4.7820   22.5930 C   0  0  0  0  0  0  0  0  0  0  0  0
  -22.4640   -4.2410   21.4250 F   0  0  0  0  0  0  0  0  0  0  0  0
  -21.4110   -3.7500   26.0560 F   0  0  0  0  0  0  0  0  0  0  0  0
  -22.7410  -13.5170   21.1700 C   0  0  0  0  0  0  0  0  0  0  0  0
  -22.0510  -12.8070   22.0570 N   0  0  0  0  0  0  0  0  0  0  0  0
  -22.2780  -14.5450   20.6760 O   0  0  0  0  0  0  0  0  0  0  0  0
  -22.4410  -11.9800   22.4840 H   0  0  0  0  0  0  0  0  0  0  0  0
  -21.1180  -13.0980   22.3120 H   0  0  0  0  0  0  0  0  0  0  0  0
  -25.3130  -15.2150   20.2710 N   0  0  0  0  0  0  0  0  0  0  0  0
  -24.5310  -15.8450   20.4100 H   0  0  0  0  0  0  0  0  0  0  0  0
  -26.1310  -15.6770   19.8960 H   0  0  0  0  0  0  0  0  0  0  0  0
  -28.1880  -26.3030   20.2470 O   0  0  0  0  0  0  0  0  0  0  0  0
  -24.5060  -31.8730   23.2230 C   0  0  0  0  0  0  0  0  0  0  0  0
  -27.0930  -27.2220   20.1790 C   0  0  0  0  0  0  0  0  0  0  0  0
  -23.3000  -30.4850   21.5810 C   0  0  0  0  0  3  0  0  0  0  0  0
  -24.7470  -28.9200   20.1560 C   0  0  0  0  0  0  0  0  0  0  0  0
  -25.8510  -30.7620   21.4110 C   0  0  0  0  0  2  0  0  0  0  0  0
  -25.9230  -29.3760   20.7650 C   0  0  0  0  0  0  0  0  0  0  0  0
  -27.0920  -28.5390   20.7700 C   0  0  0  0  0  3  0  0  0  0  0  0
  -25.8950  -26.8630   19.5130 C   0  0  0  0  0  3  0  0  0  0  0  0
  -24.7410  -27.6700   19.5220 C   0  0  0  0  0  3  0  0  0  0  0  0
  -23.5180  -29.8090   20.2010 C   0  0  0  0  0  2  0  0  0  0  0  0
  -24.5730  -31.0610   22.1270 N   0  0  0  0  0  0  0  0  0  0  0  0
  -23.4220  -32.1580   23.7530 O   0  0  0  0  0  0  0  0  0  0  0  0
  -22.6230  -29.4730   22.5370 C   0  0  0  0  0  0  0  0  0  0  0  0
  -21.2970  -29.2970   22.4020 N   0  0  0  0  0  0  0  0  0  0  0  0
  -23.2930  -28.8470   23.3610 O   0  0  0  0  0  0  0  0  0  0  0  0
  -20.8160  -29.8520   21.7080 H   0  0  0  0  0  0  0  0  0  0  0  0
  -17.9100  -28.1170   22.9010 C   0  0  0  0  0  0  0  0  0  0  0  0
  -20.4720  -28.3620   23.1690 C   0  0  0  0  0  3  0  0  0  0  0  0
  -20.5670  -26.9320   22.5890 C   0  0  0  0  0  2  0  0  0  0  0  0
  -19.4620  -26.6180   21.5740 C   0  0  0  0  0  2  0  0  0  0  0  0
  -18.0800  -26.7690   22.2180 C   0  0  0  0  0  2  0  0  0  0  0  0
  -19.0350  -28.8720   23.3320 C   0  0  0  0  0  0  0  0  0  0  0  0
  -18.8230  -30.1340   23.9280 C   0  0  0  0  0  3  0  0  0  0  0  0
  -17.5220  -30.6410   24.0990 C   0  0  0  0  0  3  0  0  0  0  0  0
  -16.4130  -29.8830   23.6850 C   0  0  0  0  0  3  0  0  0  0  0  0
  -16.6080  -28.6220   23.0920 C   0  0  0  0  0  3  0  0  0  0  0  0
  -25.7880  -32.5050   23.8480 C   0  0  0  0  0  3  0  0  0  0  0  0
  -25.4820  -33.9040   24.1840 N   0  0  0  0  0  0  0  0  0  0  0  0
  -25.7850  -34.9560   23.4120 C   0  0  0  0  0  0  0  0  0  0  0  0
  -26.4210  -34.8540   22.3590 O   0  0  0  0  0  0  0  0  0  0  0  0
  -24.9160  -34.0540   25.0060 H   0  0  0  0  0  0  0  0  0  0  0  0
  -24.0270  -36.7330   23.1220 C   0  0  0  0  0  1  0  0  0  0  0  0
  -25.3040  -36.3420   23.8830 C   0  0  0  0  0  3  0  0  0  0  0  0
  -27.4600  -37.2540   24.6240 C   0  0  0  0  0  1  0  0  0  0  0  0
  -26.3210  -37.4040   23.7210 N   0  0  0  0  0  0  0  0  0  0  0  0
  -25.9140  -38.3220   23.8790 H   0  0  0  0  0  0  0  0  0  0  0  0
  -26.2990  -31.7290   25.1240 C   0  0  1  0  0  0  0  0  0  0  0  0
  -25.2020  -31.4890   26.1880 C   0  0  0  0  0  1  0  0  0  0  0  0
  -26.8860  -30.3520   24.7330 C   0  0  0  0  0  1  0  0  0  0  0  0
  -27.4460  -32.5220   25.7940 C   0  0  0  0  0  1  0  0  0  0  0  0
  1  6  1  0
  2  1  1  0
  2  8  1  0
  3  7  1  0
  4  3  2  0
  5 54  1  0
  5  1  2  0
  6  3  1  0
  8  7  1  0
  9  2  2  0
 10 11  2  0
 10 12  1  0
 11 14  1  0
 12 15  2  0
 14  8  1  0
 14 13  2  0
 15 24  1  0
 15 13  1  0
 16 24  1  0
 17 22  1  0
 18 19  1  0
 18 17  1  0
 20 19  1  0
 20 29  1  0
 20 21  1  0
 22 16  1  0
 22 21  1  0
 23 16  2  0
 24 25  1  0
 26 27  2  0
 27 46  1  0
 28 27  1  0
 28 31  1  0
 29 30  1  0
 29 26  1  0
 30 28  2  0
 31 32  1  0
 32 33  2  0
 34 37  1  0
 34 33  1  0
 35 34  2  0
 36 35  1  0
 36 31  2  0
 37 38  1  0
 38 39  1  0
 39 40  2  0
 41 40  1  0
 41 45  1  0
 42 41  2  0
 43 38  2  0
 43 42  1  0
 44 43  1  0
 46 47  1  0
 47 50  1  0
 47 49  1  0
 48 46  2  0
 51 52  1  0
 51 26  1  0
 53 51  1  0
 55 66  2  0
 56 54  1  0
 56 61  1  0
 57 65  1  0
 57 67  1  0
 58 64  1  0
 58 60  1  0
 59 65  1  0
 60 61  2  0
 60 59  1  0
 62 63  1  0
 62 56  2  0
 63 58  2  0
 64 57  1  0
 65 55  1  0
 67 69  2  0
 68 67  1  0
 70 68  1  0
 71 80  2  0
 71 76  1  0
 72 68  1  0
 72 76  1  0
 73 72  1  0
 74 75  1  0
 74 73  1  0
 75 71  1  0
 76 77  2  0
 77 78  1  0
 79 78  2  0
 80 79  1  0
 81 55  1  0
 81 82  1  0
 81 91  1  0
 82 85  1  0
 83 87  1  0
 83 82  1  0
 84 83  2  0
 87 86  1  0
 89 90  1  0
 89 87  1  0
 89 88  1  0
 91 94  1  1
 91 92  1  0
 93 91  1  0
M  ISO  4   5 101  16 100  24 100  54 101
M  END
>  <TORSDO>  (23) 
F 17

>  <SCORE>  (23) 
-14.804

>  <name>  (23) 
22

>  <ligand_id>  (23) 
22

>  <original_smiles>  (23) 
[H]C([H])=C1C([H])([H])C(=C([H])Oc2c([H])c([H])c3c(c2[H])C([H])([H])N(C(=O)C([H])(N([H])C(=O)C([H])(N([H])C([H])([H])[H])C([H])([H])[H])C(C([H])([H])[H])(C([H])([H])[H])C([H])([H])[H])C([H])(C(=O)N([H])C2([H])c4c([H])c([H])c([H])c([H])c4C([H])([H])C([H])([H])C2([H])[H])C3([H])[H])C(=O)N(c2c([H])c([H])c([H])c(N([H])C(=O)N3C([H])([H])C([H])([H])C([H])([H])C([H])(n4nc(-c5c([H])c([H])c(Oc6c([H])c([H])c(F)c([H])c6F)c([H])c5[H])c(C(=O)N([H])[H])c4N([H])[H])C3([H])[H])c2[H])C1([H])[H]

>  <smiles>  (23) 
[H]C([H])=C1C([H])([H])C(=C([H])Oc2c([H])c([H])c3c(c2[H])C([H])([H])N(C(=O)C([H])(N([H])C(=O)C([H])(N([H])C([H])([H])[H])C([H])([H])[H])C(C([H])([H])[H])(C([H])([H])[H])C([H])([H])[H])C([H])(C(=O)N([H])C2([H])c4c([H])c([H])c([H])c([H])c4C([H])([H])C([H])([H])C2([H])[H])C3([H])[H])C(=O)N(c2c([H])c([H])c([H])c(N([H])C(=O)N3C([H])([H])C([H])([H])C([H])([H])C([H])(n4nc(-c5c([H])c([H])c(Oc6c([H])c([H])c(F)c([H])c6F)c([H])c5[H])c(C(=O)N([H])[H])c4N([H])[H])C3([H])[H])c2[H])C1([H])[H]

$$$$
23:0:0
     RDKit          3D

 92101  0  0  1  0  0  0  0  0999 V2000
  -28.7640  -23.8940   19.6410 C   0  0  0  0  0  0  0  0  0  0  0  0
  -28.7790  -23.0220   20.8240 C   0  0  0  0  0  0  0  0  0  0  0  0
  -28.5380  -25.2450   19.3320 C   0  0  0  0  0  0  0  0  0  0  0  0
  -29.1200  -22.6490   18.7780 C   0  0  0  0  0  2  0  0  0  0  0  0
  -28.6700  -25.6990   17.8870 C   0  0  0  0  0  1  0  0  0  0  0  0
  -29.1860  -21.8880   20.0450 N   0  0  0  0  0  0  0  0  0  0  0  0
  -28.4970  -23.2410   21.9830 O   0  0  0  0  0  0  0  0  0  0  0  0
  -28.9250  -19.5790   21.1930 C   0  0  0  0  0  3  0  0  0  0  0  0
  -30.1020  -19.5970   19.1650 C   0  0  0  0  0  3  0  0  0  0  0  0
  -29.0960  -18.1530   21.2800 C   0  0  0  0  0  3  0  0  0  0  0  0
  -30.3120  -18.1680   19.2500 C   0  0  0  0  0  3  0  0  0  0  0  0
  -29.3960  -20.4040   20.1260 C   0  0  0  0  0  0  0  0  0  0  0  0
  -29.8020  -17.3740   20.3180 C   0  0  0  0  0  0  0  0  0  0  0  0
  -30.6130  -14.8370   19.9620 C   0  0  0  0  0  0  0  0  0  0  0  0
  -30.4140  -12.5620   18.9210 C   0  0  0  0  0  2  0  0  0  0  0  0
  -29.3880  -12.6440   17.7660 C   0  0  0  0  0  2  0  0  0  0  0  0
  -27.9520  -12.4460   18.2890 C   0  0  0  0  0  2  0  0  0  0  0  0
  -27.6560  -13.3050   19.5470 C   0  0  0  0  0  3  0  0  0  0  0  0
  -28.7880  -13.1830   20.5930 C   0  0  0  0  0  2  0  0  0  0  0  0
  -30.0410  -13.5800   19.9330 N   0  0  0  0  0  0  0  0  0  0  0  0
  -31.7400  -15.0080   19.4840 O   0  0  0  0  0  0  0  0  0  0  0  0
  -29.8280  -15.8820   20.4390 N   0  0  0  0  0  0  0  0  0  0  0  0
  -29.0390  -15.5170   20.9510 H   0  0  0  0  0  0  0  0  0  0  0  0
  -25.3250  -13.8760   20.4550 C   0  0  0  0  0  0  0  0  0  0  0  0
  -24.2840  -13.0920   20.8720 C   0  0  0  0  0  0  0  0  0  0  0  0
  -24.7390  -11.7420   20.7630 C   0  0  0  0  0  0  0  0  0  0  0  0
  -26.3470  -13.0030   20.1180 N   0  0  0  0  0  0  0  0  0  0  0  0
  -26.0050  -11.7120   20.3630 N   0  0  0  0  0  0  0  0  0  0  0  0
  -24.0220  -10.4750   20.9600 C   0  0  0  0  0  0  0  0  0  0  0  0
  -24.4790   -9.5010   21.8750 C   0  0  0  0  0  3  0  0  0  0  0  0
  -23.7610   -8.3000   22.0610 C   0  0  0  0  0  3  0  0  0  0  0  0
  -22.5730   -8.0630   21.3290 C   0  0  0  0  0  0  0  0  0  0  0  0
  -22.1350   -9.0260   20.4020 C   0  0  0  0  0  3  0  0  0  0  0  0
  -22.8530  -10.2190   20.2150 C   0  0  0  0  0  3  0  0  0  0  0  0
  -21.8240   -6.9150   21.4250 O   0  0  0  0  0  0  0  0  0  0  0  0
  -21.7500   -6.1990   22.5930 C   0  0  0  0  0  0  0  0  0  0  0  0
  -21.2820   -6.7770   23.7930 C   0  0  0  0  0  3  0  0  0  0  0  0
  -21.1570   -5.9880   24.9530 C   0  0  0  0  0  3  0  0  0  0  0  0
  -21.4890   -4.6200   24.9130 C   0  0  0  0  0  0  0  0  0  0  0  0
  -21.9510   -4.0410   23.7180 C   0  0  0  0  0  3  0  0  0  0  0  0
  -22.0780   -4.8290   22.5600 C   0  0  0  0  0  0  0  0  0  0  0  0
  -22.5020   -4.2610   21.4060 F   0  0  0  0  0  0  0  0  0  0  0  0
  -21.3630   -3.8580   26.0250 F   0  0  0  0  0  0  0  0  0  0  0  0
  -22.9110  -13.5620   21.2570 C   0  0  0  0  0  0  0  0  0  0  0  0
  -22.2470  -12.8440   22.1550 N   0  0  0  0  0  0  0  0  0  0  0  0
  -22.4380  -14.6000   20.7960 O   0  0  0  0  0  0  0  0  0  0  0  0
  -22.6450  -12.0030   22.5480 H   0  0  0  0  0  0  0  0  0  0  0  0
  -21.3290  -13.1390   22.4560 H   0  0  0  0  0  0  0  0  0  0  0  0
  -25.4810  -15.2520   20.3120 N   0  0  0  0  0  0  0  0  0  0  0  0
  -24.7220  -15.9000   20.4870 H   0  0  0  0  0  0  0  0  0  0  0  0
  -26.2980  -15.6990   19.9130 H   0  0  0  0  0  0  0  0  0  0  0  0
  -28.3300  -26.3750   20.1840 O   0  0  0  0  0  0  0  0  0  0  0  0
  -24.6280  -31.8600   23.1790 C   0  0  0  0  0  0  0  0  0  0  0  0
  -27.2470  -27.2890   20.0670 C   0  0  0  0  0  0  0  0  0  0  0  0
  -23.4320  -30.4810   21.5180 C   0  0  0  0  0  3  0  0  0  0  0  0
  -24.8860  -28.9440   20.0700 C   0  0  0  0  0  0  0  0  0  0  0  0
  -25.9750  -30.7870   21.3500 C   0  0  0  0  0  2  0  0  0  0  0  0
  -26.0570  -29.4140   20.6790 C   0  0  0  0  0  0  0  0  0  0  0  0
  -27.2360  -28.5980   20.6690 C   0  0  0  0  0  3  0  0  0  0  0  0
  -26.0460  -26.8850   19.4430 C   0  0  0  0  0  3  0  0  0  0  0  0
  -24.8870  -27.6880   19.4410 C   0  0  0  0  0  3  0  0  0  0  0  0
  -23.6500  -29.8230   20.1310 C   0  0  0  0  0  2  0  0  0  0  0  0
  -24.6980  -31.0600   22.0720 N   0  0  0  0  0  0  0  0  0  0  0  0
  -23.5430  -32.1330   23.7130 O   0  0  0  0  0  0  0  0  0  0  0  0
  -22.7610  -29.4580   22.4670 C   0  0  0  0  0  0  0  0  0  0  0  0
  -21.4330  -29.2880   22.3380 N   0  0  0  0  0  0  0  0  0  0  0  0
  -23.4350  -28.8190   23.2790 O   0  0  0  0  0  0  0  0  0  0  0  0
  -20.9470  -29.8540   21.6560 H   0  0  0  0  0  0  0  0  0  0  0  0
  -18.0520  -28.0870   22.8160 C   0  0  0  0  0  0  0  0  0  0  0  0
  -20.6110  -28.3420   23.0960 C   0  0  0  0  0  3  0  0  0  0  0  0
  -20.7130  -26.9170   22.5040 C   0  0  0  0  0  2  0  0  0  0  0  0
  -19.6140  -26.6070   21.4830 C   0  0  0  0  0  2  0  0  0  0  0  0
  -18.2310  -26.7450   22.1250 C   0  0  0  0  0  2  0  0  0  0  0  0
  -19.1710  -28.8430   23.2590 C   0  0  0  0  0  0  0  0  0  0  0  0
  -18.9500  -30.0980   23.8660 C   0  0  0  0  0  3  0  0  0  0  0  0
  -17.6450  -30.5970   24.0360 C   0  0  0  0  0  3  0  0  0  0  0  0
  -16.5420  -29.8380   23.6100 C   0  0  0  0  0  3  0  0  0  0  0  0
  -16.7460  -28.5840   23.0060 C   0  0  0  0  0  3  0  0  0  0  0  0
  -25.9080  -32.4860   23.8140 C   0  0  0  0  0  3  0  0  0  0  0  0
  -25.5950  -33.8800   24.1640 N   0  0  0  0  0  0  0  0  0  0  0  0
  -25.9090  -34.9440   23.4130 C   0  0  0  0  0  0  0  0  0  0  0  0
  -26.5600  -34.8570   22.3690 O   0  0  0  0  0  0  0  0  0  0  0  0
  -25.0140  -34.0220   24.9770 H   0  0  0  0  0  0  0  0  0  0  0  0
  -24.1590  -36.7280   23.1230 C   0  0  0  0  0  1  0  0  0  0  0  0
  -25.4250  -36.3260   23.8960 C   0  0  0  0  0  3  0  0  0  0  0  0
  -27.5730  -37.2210   24.6780 C   0  0  0  0  0  1  0  0  0  0  0  0
  -26.4450  -37.3880   23.7650 N   0  0  0  0  0  0  0  0  0  0  0  0
  -26.0360  -38.3030   23.9300 H   0  0  0  0  0  0  0  0  0  0  0  0
  -26.4200  -31.7000   25.0840 C   0  0  1  0  0  0  0  0  0  0  0  0
  -25.3230  -31.4500   26.1450 C   0  0  0  0  0  1  0  0  0  0  0  0
  -27.0050  -30.3270   24.6790 C   0  0  0  0  0  1  0  0  0  0  0  0
  -27.5680  -32.4860   25.7590 C   0  0  0  0  0  1  0  0  0  0  0  0
  1  2  1  0
  2  7  2  0
  3  1  2  0
  3 52  1  0
  4  1  1  0
  4  6  1  0
  5  3  1  0
  6 12  1  0
  6  2  1  0
  8 10  1  0
  9 11  2  0
  9 12  1  0
 11 13  1  0
 12  8  2  0
 13 22  1  0
 13 10  2  0
 14 22  1  0
 15 20  1  0
 16 17  1  0
 16 15  1  0
 18 17  1  0
 18 27  1  0
 18 19  1  0
 20 14  1  0
 20 19  1  0
 21 14  2  0
 22 23  1  0
 24 25  2  0
 25 44  1  0
 26 25  1  0
 26 29  1  0
 27 28  1  0
 27 24  1  0
 28 26  2  0
 29 30  1  0
 30 31  2  0
 32 35  1  0
 32 31  1  0
 33 32  2  0
 34 33  1  0
 34 29  2  0
 35 36  1  0
 36 37  1  0
 37 38  2  0
 39 38  1  0
 39 43  1  0
 40 39  2  0
 41 36  2  0
 41 40  1  0
 42 41  1  0
 44 45  1  0
 45 48  1  0
 45 47  1  0
 46 44  2  0
 49 24  1  0
 49 50  1  0
 51 49  1  0
 53 64  2  0
 54 52  1  0
 54 59  1  0
 55 63  1  0
 55 65  1  0
 56 62  1  0
 56 58  1  0
 57 63  1  0
 58 57  1  0
 59 58  2  0
 60 54  2  0
 61 60  1  0
 61 56  2  0
 62 55  1  0
 63 53  1  0
 65 67  2  0
 66 65  1  0
 68 66  1  0
 69 78  2  0
 69 74  1  0
 70 66  1  0
 70 74  1  0
 71 70  1  0
 72 73  1  0
 72 71  1  0
 73 69  1  0
 74 75  2  0
 75 76  1  0
 77 76  2  0
 78 77  1  0
 79 53  1  0
 79 80  1  0
 79 89  1  0
 80 83  1  0
 81 85  1  0
 81 80  1  0
 82 81  2  0
 85 84  1  0
 87 85  1  0
 87 88  1  0
 87 86  1  0
 89 92  1  1
 89 90  1  0
 91 89  1  0
M  ISO  4   3 101  14 100  22 100  52 101
M  END
>  <TORSDO>  (24) 
F 17

>  <SCORE>  (24) 
-14.177

>  <name>  (24) 
23

>  <ligand_id>  (24) 
23

>  <original_smiles>  (24) 
[H]c1c([H])c([H])c2c(c1[H])C([H])([H])C([H])([H])C([H])([H])C2([H])N([H])C(=O)C1([H])N(C(=O)C([H])(N([H])C(=O)C([H])(N([H])C([H])([H])[H])C([H])([H])[H])C(C([H])([H])[H])(C([H])([H])[H])C([H])([H])[H])C([H])([H])c2c([H])c(OC(=C3C(=O)N(c4c([H])c([H])c(N([H])C(=O)N5C([H])([H])C([H])([H])C([H])([H])C([H])(n6nc(-c7c([H])c([H])c(Oc8c([H])c([H])c(F)c([H])c8F)c([H])c7[H])c(C(=O)N([H])[H])c6N([H])[H])C5([H])[H])c([H])c4[H])C3([H])[H])C([H])([H])[H])c([H])c([H])c2C1([H])[H]

>  <smiles>  (24) 
[H]c1c([H])c([H])c2c(c1[H])C([H])([H])C([H])([H])C([H])([H])C2([H])N([H])C(=O)C1([H])N(C(=O)C([H])(N([H])C(=O)C([H])(N([H])C([H])([H])[H])C([H])([H])[H])C(C([H])([H])[H])(C([H])([H])[H])C([H])([H])[H])C([H])([H])c2c([H])c(OC(=C3C(=O)N(c4c([H])c([H])c(N([H])C(=O)N5C([H])([H])C([H])([H])C([H])([H])C([H])(n6nc(-c7c([H])c([H])c(Oc8c([H])c([H])c(F)c([H])c8F)c([H])c7[H])c(C(=O)N([H])[H])c6N([H])[H])C5([H])[H])c([H])c4[H])C3([H])[H])C([H])([H])[H])c([H])c([H])c2C1([H])[H]

$$$$
24:0:0
     RDKit          3D

 90 99  0  0  1  0  0  0  0  0999 V2000
  -28.4920  -23.4120   19.8760 C   0  0  0  0  0  0  0  0  0  0  0  0
  -28.5420  -22.2470   18.9450 C   0  0  0  0  0  0  0  0  0  0  0  0
  -28.2100  -24.8030   19.5900 C   0  0  0  0  0  3  0  0  0  0  0  0
  -28.8530  -22.3550   21.0080 C   0  0  0  0  0  2  0  0  0  0  0  0
  -28.8970  -21.2740   19.9470 N   0  0  0  0  0  0  0  0  0  0  0  0
  -28.3620  -22.2120   17.7430 O   0  0  0  0  0  0  0  0  0  0  0  0
  -29.0920  -17.2570   19.2250 C   0  0  0  0  0  3  0  0  0  0  0  0
  -28.7840  -18.6920   19.1740 C   0  0  0  0  0  3  0  0  0  0  0  0
  -30.3870  -17.6410   21.1160 C   0  0  0  0  0  3  0  0  0  0  0  0
  -29.9310  -16.6130   20.2050 C   0  0  0  0  0  0  0  0  0  0  0  0
  -29.2230  -19.7440   20.0780 C   0  0  0  0  0  0  0  0  0  0  0  0
  -30.0400  -19.0680   21.0740 C   0  0  0  0  0  0  0  0  0  0  0  0
  -30.5830  -19.8480   22.0460 F   0  0  0  0  0  0  0  0  0  0  0  0
  -30.5660  -15.1110   20.0940 C   0  0  0  0  0  0  0  0  0  0  0  0
  -30.3760  -12.7480   19.1640 C   0  0  0  0  0  2  0  0  0  0  0  0
  -29.4100  -12.6680   17.9620 C   0  0  0  0  0  2  0  0  0  0  0  0
  -27.9700  -12.4370   18.4490 C   0  0  0  0  0  2  0  0  0  0  0  0
  -27.5890  -13.3770   19.6230 C   0  0  0  0  0  3  0  0  0  0  0  0
  -28.6780  -13.4530   20.7070 C   0  0  0  0  0  2  0  0  0  0  0  0
  -29.9220  -13.8670   20.0490 N   0  0  0  0  0  0  0  0  0  0  0  0
  -31.7750  -15.0710   19.8380 O   0  0  0  0  0  0  0  0  0  0  0  0
  -25.2590  -13.9350   20.5040 C   0  0  0  0  0  0  0  0  0  0  0  0
  -24.2110  -13.1510   20.9050 C   0  0  0  0  0  0  0  0  0  0  0  0
  -24.6690  -11.7990   20.8140 C   0  0  0  0  0  0  0  0  0  0  0  0
  -26.2830  -13.0620   20.1860 N   0  0  0  0  0  0  0  0  0  0  0  0
  -25.9440  -11.7720   20.4430 N   0  0  0  0  0  0  0  0  0  0  0  0
  -23.9460  -10.5340   21.0000 C   0  0  0  0  0  0  0  0  0  0  0  0
  -24.3770   -9.5630   21.9320 C   0  0  0  0  0  3  0  0  0  0  0  0
  -23.6520   -8.3650   22.1050 C   0  0  0  0  0  3  0  0  0  0  0  0
  -22.4810   -8.1280   21.3480 C   0  0  0  0  0  0  0  0  0  0  0  0
  -22.0670   -9.0860   20.4050 C   0  0  0  0  0  3  0  0  0  0  0  0
  -22.7930  -10.2770   20.2290 C   0  0  0  0  0  3  0  0  0  0  0  0
  -21.7250   -6.9830   21.4320 O   0  0  0  0  0  0  0  0  0  0  0  0
  -21.6300   -6.2670   22.5980 C   0  0  0  0  0  0  0  0  0  0  0  0
  -21.1200   -6.8380   23.7840 C   0  0  0  0  0  3  0  0  0  0  0  0
  -20.9760   -6.0460   24.9420 C   0  0  0  0  0  3  0  0  0  0  0  0
  -21.3320   -4.6830   24.9120 C   0  0  0  0  0  0  0  0  0  0  0  0
  -21.8320   -4.1120   23.7290 C   0  0  0  0  0  3  0  0  0  0  0  0
  -21.9780   -4.9020   22.5750 C   0  0  0  0  0  0  0  0  0  0  0  0
  -22.4430   -4.3390   21.4310 F   0  0  0  0  0  0  0  0  0  0  0  0
  -21.1850   -3.9210   26.0210 F   0  0  0  0  0  0  0  0  0  0  0  0
  -22.8300  -13.6230   21.2500 C   0  0  0  0  0  0  0  0  0  0  0  0
  -22.1360  -12.9060   22.1260 N   0  0  0  0  0  0  0  0  0  0  0  0
  -22.3790  -14.6630   20.7750 O   0  0  0  0  0  0  0  0  0  0  0  0
  -22.5210  -12.0660   22.5320 H   0  0  0  0  0  0  0  0  0  0  0  0
  -21.2100  -13.2060   22.3950 H   0  0  0  0  0  0  0  0  0  0  0  0
  -25.4240  -15.3110   20.3630 N   0  0  0  0  0  0  0  0  0  0  0  0
  -24.6740  -15.9660   20.5530 H   0  0  0  0  0  0  0  0  0  0  0  0
  -26.2700  -15.7590   20.0290 H   0  0  0  0  0  0  0  0  0  0  0  0
  -28.2130  -26.1160   20.2740 O   0  0  0  0  0  0  0  0  0  0  0  0
  -24.6340  -31.8710   23.2650 C   0  0  0  0  0  0  0  0  0  0  0  0
  -27.1980  -27.1540   20.1530 C   0  0  0  0  0  0  0  0  0  0  0  0
  -23.4310  -30.4960   21.6120 C   0  0  0  0  0  3  0  0  0  0  0  0
  -24.8740  -28.9330   20.1560 C   0  0  0  0  0  0  0  0  0  0  0  0
  -25.9870  -30.7480   21.4470 C   0  0  0  0  0  2  0  0  0  0  0  0
  -26.0570  -29.3610   20.7710 C   0  0  0  0  0  0  0  0  0  0  0  0
  -27.2140  -28.4840   20.7590 C   0  0  0  0  0  3  0  0  0  0  0  0
  -25.9850  -26.8420   19.4960 C   0  0  0  0  0  3  0  0  0  0  0  0
  -24.8520  -27.6900   19.5050 C   0  0  0  0  0  3  0  0  0  0  0  0
  -23.6480  -29.8320   20.2250 C   0  0  0  0  0  2  0  0  0  0  0  0
  -24.7050  -31.0590   22.1630 N   0  0  0  0  0  0  0  0  0  0  0  0
  -23.5490  -32.1560   23.7960 O   0  0  0  0  0  0  0  0  0  0  0  0
  -22.7490  -29.4820   22.5650 C   0  0  0  0  0  0  0  0  0  0  0  0
  -21.4250  -29.2920   22.4180 N   0  0  0  0  0  0  0  0  0  0  0  0
  -23.4150  -28.8700   23.4030 O   0  0  0  0  0  0  0  0  0  0  0  0
  -20.9440  -29.8400   21.7190 H   0  0  0  0  0  0  0  0  0  0  0  0
  -18.0640  -28.0030   22.8330 C   0  0  0  0  0  0  0  0  0  0  0  0
  -20.6040  -28.3420   23.1760 C   0  0  0  0  0  3  0  0  0  0  0  0
  -20.7640  -26.9070   22.6210 C   0  0  0  0  0  2  0  0  0  0  0  0
  -19.7030  -26.5390   21.5780 C   0  0  0  0  0  2  0  0  0  0  0  0
  -18.2980  -26.6510   22.1800 C   0  0  0  0  0  2  0  0  0  0  0  0
  -19.1460  -28.8030   23.2870 C   0  0  0  0  0  0  0  0  0  0  0  0
  -18.8710  -30.0640   23.8610 C   0  0  0  0  0  3  0  0  0  0  0  0
  -17.5480  -30.5270   23.9830 C   0  0  0  0  0  3  0  0  0  0  0  0
  -16.4800  -29.7260   23.5450 C   0  0  0  0  0  3  0  0  0  0  0  0
  -16.7380  -28.4660   22.9770 C   0  0  0  0  0  3  0  0  0  0  0  0
  -25.9140  -32.4970   23.8990 C   0  0  0  0  0  3  0  0  0  0  0  0
  -25.6090  -33.8970   24.2380 N   0  0  0  0  0  0  0  0  0  0  0  0
  -25.9270  -34.9520   23.4760 C   0  0  0  0  0  0  0  0  0  0  0  0
  -26.5720  -34.8480   22.4290 O   0  0  0  0  0  0  0  0  0  0  0  0
  -25.0330  -34.0510   25.0520 H   0  0  0  0  0  0  0  0  0  0  0  0
  -24.1880  -36.7490   23.1920 C   0  0  0  0  0  1  0  0  0  0  0  0
  -25.4630  -36.3450   23.9500 C   0  0  0  0  0  3  0  0  0  0  0  0
  -27.6140  -37.2570   24.7050 C   0  0  0  0  0  1  0  0  0  0  0  0
  -26.4970  -37.3890   23.7740 N   0  0  0  0  0  0  0  0  0  0  0  0
  -26.0990  -38.3190   23.8690 H   0  0  0  0  0  0  0  0  0  0  0  0
  -26.4140  -31.7190   25.1800 C   0  0  1  0  0  0  0  0  0  0  0  0
  -25.3110  -31.4850   26.2390 C   0  0  0  0  0  1  0  0  0  0  0  0
  -26.9910  -30.3380   24.7930 C   0  0  0  0  0  1  0  0  0  0  0  0
  -27.5680  -32.5020   25.8540 C   0  0  0  0  0  1  0  0  0  0  0  0
  1  4  1  0
  2  1  1  0
  2  5  1  0
  3  1  2  0
  3 50  1  0
  5 11  1  0
  5  4  1  0
  6  2  2  0
  7 10  1  0
  8  7  2  0
  8 11  1  0
 10  9  2  0
 11 12  2  0
 12  9  1  0
 12 13  1  0
 14 10  1  0
 15 20  1  0
 16 17  1  0
 16 15  1  0
 18 17  1  0
 18 25  1  0
 18 19  1  0
 20 14  1  0
 20 19  1  0
 21 14  2  0
 22 23  2  0
 23 42  1  0
 24 23  1  0
 24 27  1  0
 25 26  1  0
 25 22  1  0
 26 24  2  0
 27 28  1  0
 28 29  2  0
 30 33  1  0
 30 29  1  0
 31 30  2  0
 32 31  1  0
 32 27  2  0
 33 34  1  0
 34 35  1  0
 35 36  2  0
 37 36  1  0
 37 41  1  0
 38 37  2  0
 39 34  2  0
 39 38  1  0
 40 39  1  0
 42 43  1  0
 43 46  1  0
 43 45  1  0
 44 42  2  0
 47 22  1  0
 47 48  1  0
 49 47  1  0
 51 62  2  0
 52 50  1  0
 52 57  1  0
 53 61  1  0
 53 63  1  0
 54 60  1  0
 54 56  1  0
 55 61  1  0
 56 55  1  0
 57 56  2  0
 58 59  1  0
 58 52  2  0
 59 54  2  0
 60 53  1  0
 61 51  1  0
 63 65  2  0
 64 63  1  0
 66 64  1  0
 67 76  2  0
 67 72  1  0
 68 64  1  0
 68 72  1  0
 69 68  1  0
 70 71  1  0
 70 69  1  0
 71 67  1  0
 72 73  2  0
 73 74  1  0
 75 74  2  0
 76 75  1  0
 77 51  1  0
 77 78  1  0
 77 87  1  0
 78 81  1  0
 79 83  1  0
 79 78  1  0
 80 79  2  0
 83 82  1  0
 85 86  1  0
 85 83  1  0
 85 84  1  0
 87 90  1  1
 87 88  1  0
 89 87  1  0
M  ISO  4   3 101  10 100  14 100  50 101
M  END
>  <TORSDO>  (25) 
F 17

>  <SCORE>  (25) 
-15.300

>  <name>  (25) 
24

>  <ligand_id>  (25) 
24

>  <original_smiles>  (25) 
[H]C(Oc1c([H])c([H])c2c(c1[H])C([H])([H])N(C(=O)C([H])(N([H])C(=O)C([H])(N([H])C([H])([H])[H])C([H])([H])[H])C(C([H])([H])[H])(C([H])([H])[H])C([H])([H])[H])C([H])(C(=O)N([H])C1([H])c3c([H])c([H])c([H])c([H])c3C([H])([H])C([H])([H])C1([H])[H])C2([H])[H])=C1C(=O)N(c2c([H])c([H])c(C(=O)N3C([H])([H])C([H])([H])C([H])([H])C([H])(n4nc(-c5c([H])c([H])c(Oc6c([H])c([H])c(F)c([H])c6F)c([H])c5[H])c(C(=O)N([H])[H])c4N([H])[H])C3([H])[H])c([H])c2F)C1([H])[H]

>  <smiles>  (25) 
[H]C(Oc1c([H])c([H])c2c(c1[H])C([H])([H])N(C(=O)C([H])(N([H])C(=O)C([H])(N([H])C([H])([H])[H])C([H])([H])[H])C(C([H])([H])[H])(C([H])([H])[H])C([H])([H])[H])C([H])(C(=O)N([H])C1([H])c3c([H])c([H])c([H])c([H])c3C([H])([H])C([H])([H])C1([H])[H])C2([H])[H])=C1C(=O)N(c2c([H])c([H])c(C(=O)N3C([H])([H])C([H])([H])C([H])([H])C([H])(n4nc(-c5c([H])c([H])c(Oc6c([H])c([H])c(F)c([H])c6F)c([H])c5[H])c(C(=O)N([H])[H])c4N([H])[H])C3([H])[H])c([H])c2F)C1([H])[H]

$$$$
25:0:0
     RDKit          3D

 88 96  0  0  1  0  0  0  0  0999 V2000
  -28.7500  -23.5190   20.3260 C   0  0  0  0  0  0  0  0  0  0  0  0
  -30.2250  -23.8010   20.5030 C   0  0  0  0  0  1  0  0  0  0  0  0
  -27.8690  -24.5740   20.2490 N   0  0  0  0  0  0  0  0  0  0  0  0
  -28.2480  -26.0980   20.2740 O   0  0  0  0  0  0  0  0  0  0  0  0
  -24.6560  -31.9100   23.2450 C   0  0  0  0  0  0  0  0  0  0  0  0
  -27.1960  -27.1120   20.2350 C   0  0  0  0  0  0  0  0  0  0  0  0
  -23.4470  -30.5140   21.6120 C   0  0  0  0  0  3  0  0  0  0  0  0
  -24.8840  -28.9160   20.1890 C   0  0  0  0  0  0  0  0  0  0  0  0
  -26.0050  -30.7450   21.4490 C   0  0  0  0  0  2  0  0  0  0  0  0
  -26.0660  -29.3430   20.8060 C   0  0  0  0  0  0  0  0  0  0  0  0
  -27.2180  -28.4550   20.8150 C   0  0  0  0  0  3  0  0  0  0  0  0
  -25.9890  -26.8070   19.5670 C   0  0  0  0  0  3  0  0  0  0  0  0
  -24.8600  -27.6630   19.5540 C   0  0  0  0  0  3  0  0  0  0  0  0
  -23.6630  -29.8280   20.2350 C   0  0  0  0  0  2  0  0  0  0  0  0
  -24.7230  -31.0810   22.1560 N   0  0  0  0  0  0  0  0  0  0  0  0
  -23.5720  -32.2040   23.7720 O   0  0  0  0  0  0  0  0  0  0  0  0
  -22.7580  -29.5180   22.5810 C   0  0  0  0  0  0  0  0  0  0  0  0
  -21.4280  -29.3550   22.4580 N   0  0  0  0  0  0  0  0  0  0  0  0
  -23.4270  -28.8940   23.4110 O   0  0  0  0  0  0  0  0  0  0  0  0
  -20.9450  -29.9090   21.7640 H   0  0  0  0  0  0  0  0  0  0  0  0
  -18.0450  -28.1610   22.9670 C   0  0  0  0  0  0  0  0  0  0  0  0
  -20.6040  -28.4260   23.2360 C   0  0  0  0  0  3  0  0  0  0  0  0
  -20.7060  -26.9880   22.6740 C   0  0  0  0  0  2  0  0  0  0  0  0
  -19.6060  -26.6580   21.6600 C   0  0  0  0  0  2  0  0  0  0  0  0
  -18.2220  -26.8080   22.3000 C   0  0  0  0  0  2  0  0  0  0  0  0
  -19.1630  -28.9280   23.3910 C   0  0  0  0  0  0  0  0  0  0  0  0
  -18.9400  -30.1930   23.9760 C   0  0  0  0  0  3  0  0  0  0  0  0
  -17.6330  -30.6920   24.1410 C   0  0  0  0  0  3  0  0  0  0  0  0
  -16.5310  -29.9230   23.7300 C   0  0  0  0  0  3  0  0  0  0  0  0
  -16.7370  -28.6590   23.1490 C   0  0  0  0  0  3  0  0  0  0  0  0
  -25.9380  -32.5420   23.8680 C   0  0  0  0  0  3  0  0  0  0  0  0
  -25.6290  -33.9420   24.2080 N   0  0  0  0  0  0  0  0  0  0  0  0
  -25.9390  -35.0000   23.4470 C   0  0  0  0  0  0  0  0  0  0  0  0
  -26.5790  -34.9020   22.3970 O   0  0  0  0  0  0  0  0  0  0  0  0
  -25.0550  -34.0920   25.0250 H   0  0  0  0  0  0  0  0  0  0  0  0
  -24.1880  -36.7880   23.1680 C   0  0  0  0  0  1  0  0  0  0  0  0
  -25.4660  -36.3880   23.9250 C   0  0  0  0  0  3  0  0  0  0  0  0
  -27.6280  -37.2870   24.6630 C   0  0  0  0  0  1  0  0  0  0  0  0
  -26.4860  -37.4470   23.7670 N   0  0  0  0  0  0  0  0  0  0  0  0
  -26.0820  -38.3650   23.9300 H   0  0  0  0  0  0  0  0  0  0  0  0
  -26.4520  -31.7710   25.1460 C   0  0  1  0  0  0  0  0  0  0  0  0
  -25.3590  -31.5420   26.2170 C   0  0  0  0  0  1  0  0  0  0  0  0
  -27.0270  -30.3880   24.7630 C   0  0  0  0  0  1  0  0  0  0  0  0
  -27.6070  -32.5600   25.8050 C   0  0  0  0  0  1  0  0  0  0  0  0
  -28.4300  -21.8310   20.2040 C   0  0  0  0  0  2  0  0  0  0  0  0
  -30.4590  -15.1830   20.2670 C   0  0  0  0  0  0  0  0  0  0  0  0
  -30.4060  -12.7630   19.4000 C   0  0  0  0  0  2  0  0  0  0  0  0
  -29.4790  -12.5790   18.1740 C   0  0  0  0  0  2  0  0  0  0  0  0
  -28.0240  -12.3270   18.6180 C   0  0  0  0  0  2  0  0  0  0  0  0
  -27.5740  -13.2830   19.7530 C   0  0  0  0  0  3  0  0  0  0  0  0
  -28.6330  -13.4400   20.8640 C   0  0  0  0  0  2  0  0  0  0  0  0
  -29.8720  -13.8990   20.2170 N   0  0  0  0  0  0  0  0  0  0  0  0
  -31.6940  -15.1860   20.1800 O   0  0  0  0  0  0  0  0  0  0  0  0
  -30.5370  -20.3080   21.1710 C   0  0  0  0  0  3  0  0  0  0  0  0
  -29.3450  -20.4310   20.4810 C   0  0  0  0  0  0  0  0  0  0  0  0
  -29.8520  -17.9220   20.4410 C   0  0  0  0  0  0  0  0  0  0  0  0
  -28.7720  -16.3410   18.9070 C   0  0  0  0  0  1  0  0  0  0  0  0
  -29.0130  -19.0200   20.0970 N   0  0  0  0  0  0  0  0  0  0  0  0
  -29.6880  -16.4130   20.0510 N   0  0  0  0  0  0  0  0  0  0  0  0
  -31.1890  -18.6380   21.3440 S   0  0  0  0  0  0  0  0  0  0  0  0
  -25.2040  -13.8620   20.4950 C   0  0  0  0  0  0  0  0  0  0  0  0
  -24.1410  -13.0850   20.8590 C   0  0  0  0  0  0  0  0  0  0  0  0
  -24.6140  -11.7380   20.8430 C   0  0  0  0  0  0  0  0  0  0  0  0
  -26.2490  -12.9820   20.2670 N   0  0  0  0  0  0  0  0  0  0  0  0
  -25.9070  -11.7030   20.5450 N   0  0  0  0  0  0  0  0  0  0  0  0
  -23.8980  -10.4740   21.0350 C   0  0  0  0  0  0  0  0  0  0  0  0
  -24.3360   -9.5140   21.9740 C   0  0  0  0  0  3  0  0  0  0  0  0
  -23.6190   -8.3130   22.1560 C   0  0  0  0  0  3  0  0  0  0  0  0
  -22.4490   -8.0650   21.3980 C   0  0  0  0  0  0  0  0  0  0  0  0
  -22.0320   -9.0120   20.4470 C   0  0  0  0  0  3  0  0  0  0  0  0
  -22.7500  -10.2060   20.2640 C   0  0  0  0  0  3  0  0  0  0  0  0
  -21.7020   -6.9160   21.4890 O   0  0  0  0  0  0  0  0  0  0  0  0
  -21.6590   -6.1770   22.6440 C   0  0  0  0  0  0  0  0  0  0  0  0
  -21.2200   -6.7310   23.8660 C   0  0  0  0  0  3  0  0  0  0  0  0
  -21.1270   -5.9170   25.0140 C   0  0  0  0  0  3  0  0  0  0  0  0
  -21.4590   -4.5510   24.9380 C   0  0  0  0  0  0  0  0  0  0  0  0
  -21.8900   -3.9970   23.7190 C   0  0  0  0  0  3  0  0  0  0  0  0
  -21.9860   -4.8090   22.5750 C   0  0  0  0  0  0  0  0  0  0  0  0
  -22.3810   -4.2660   21.3980 F   0  0  0  0  0  0  0  0  0  0  0  0
  -21.3600   -3.7670   26.0370 F   0  0  0  0  0  0  0  0  0  0  0  0
  -22.7390  -13.5580   21.1100 C   0  0  0  0  0  0  0  0  0  0  0  0
  -22.0080  -12.8700   21.9770 N   0  0  0  0  0  0  0  0  0  0  0  0
  -22.3000  -14.5730   20.5700 O   0  0  0  0  0  0  0  0  0  0  0  0
  -22.3780  -12.0510   22.4360 H   0  0  0  0  0  0  0  0  0  0  0  0
  -21.0650  -13.1670   22.1880 H   0  0  0  0  0  0  0  0  0  0  0  0
  -25.3600  -15.2330   20.3130 N   0  0  0  0  0  0  0  0  0  0  0  0
  -24.5930  -15.8860   20.4270 H   0  0  0  0  0  0  0  0  0  0  0  0
  -26.2240  -15.6810   20.0360 H   0  0  0  0  0  0  0  0  0  0  0  0
  1  2  1  0
  3  4  1  0
  3  1  2  0
  5 16  2  0
  6  4  1  0
  6 11  1  0
  7 15  1  0
  7 17  1  0
  8 14  1  0
  8 10  1  0
  9 15  1  0
 10 11  2  0
 10  9  1  0
 12  6  2  0
 13 12  1  0
 13  8  2  0
 14  7  1  0
 15  5  1  0
 17 19  2  0
 18 17  1  0
 20 18  1  0
 21 30  2  0
 21 26  1  0
 22 18  1  0
 22 26  1  0
 23 22  1  0
 24 25  1  0
 24 23  1  0
 25 21  1  0
 26 27  2  0
 27 28  1  0
 29 28  2  0
 30 29  1  0
 31  5  1  0
 31 32  1  0
 31 41  1  0
 32 35  1  0
 33 37  1  0
 33 32  1  0
 34 33  2  0
 37 36  1  0
 39 37  1  0
 39 40  1  0
 39 38  1  0
 41 44  1  1
 41 42  1  0
 43 41  1  0
 45  1  1  0
 45 55  1  0
 47 52  1  0
 48 49  1  0
 48 47  1  0
 50 49  1  0
 50 64  1  0
 50 51  1  0
 52 46  1  0
 52 51  1  0
 53 46  2  0
 54 60  1  0
 55 54  2  0
 56 60  1  0
 57 59  1  0
 58 56  2  0
 58 55  1  0
 59 46  1  0
 59 56  1  0
 61 62  2  0
 62 81  1  0
 63 62  1  0
 63 66  1  0
 64 61  1  0
 64 65  1  0
 65 63  2  0
 66 67  1  0
 67 68  2  0
 69 72  1  0
 69 68  1  0
 70 69  2  0
 71 70  1  0
 71 66  2  0
 72 73  1  0
 73 74  1  0
 74 75  2  0
 76 75  1  0
 76 80  1  0
 77 76  2  0
 78 73  2  0
 78 77  1  0
 79 78  1  0
 81 82  1  0
 82 85  1  0
 82 84  1  0
 83 81  2  0
 86 87  1  0
 86 61  1  0
 88 86  1  0
M  ISO  4   3 101   4 101  46 100  59 100
M  END
>  <TORSDO>  (26) 
F 17

>  <SCORE>  (26) 
-15.957

>  <name>  (26) 
25

>  <ligand_id>  (26) 
25

>  <original_smiles>  (26) 
[H]c1sc(N(C(=O)N2C([H])([H])C([H])([H])C([H])([H])C([H])(n3nc(-c4c([H])c([H])c(Oc5c([H])c([H])c(F)c([H])c5F)c([H])c4[H])c(C(=O)N([H])[H])c3N([H])[H])C2([H])[H])C([H])([H])[H])nc1C([H])([H])C(=NOc1c([H])c([H])c2c(c1[H])C([H])([H])N(C(=O)C([H])(N([H])C(=O)C([H])(N([H])C([H])([H])[H])C([H])([H])[H])C(C([H])([H])[H])(C([H])([H])[H])C([H])([H])[H])C([H])(C(=O)N([H])C1([H])c3c([H])c([H])c([H])c([H])c3C([H])([H])C([H])([H])C1([H])[H])C2([H])[H])C([H])([H])[H]

>  <smiles>  (26) 
[H]c1sc(N(C(=O)N2C([H])([H])C([H])([H])C([H])([H])C([H])(n3nc(-c4c([H])c([H])c(Oc5c([H])c([H])c(F)c([H])c5F)c([H])c4[H])c(C(=O)N([H])[H])c3N([H])[H])C2([H])[H])C([H])([H])[H])nc1C([H])([H])C(=NOc1c([H])c([H])c2c(c1[H])C([H])([H])N(C(=O)C([H])(N([H])C(=O)C([H])(N([H])C([H])([H])[H])C([H])([H])[H])C(C([H])([H])[H])(C([H])([H])[H])C([H])([H])[H])C([H])(C(=O)N([H])C1([H])c3c([H])c([H])c([H])c([H])c3C([H])([H])C([H])([H])C1([H])[H])C2([H])[H])C([H])([H])[H]

$$$$
26:0:0
     RDKit          3D

 92101  0  0  1  0  0  0  0  0999 V2000
  -28.5330  -23.7840   20.4570 C   0  0  0  0  0  0  0  0  0  0  0  0
  -28.0270  -22.5530   21.0520 C   0  0  0  0  0  0  0  0  0  0  0  0
  -28.0250  -25.0730   20.6320 C   0  0  0  0  0  3  0  0  0  0  0  0
  -29.6300  -22.9410   19.7370 C   0  0  0  0  0  2  0  0  0  0  0  0
  -29.0100  -21.7640   20.4190 N   0  0  0  0  0  0  0  0  0  0  0  0
  -27.0890  -22.3590   21.7980 O   0  0  0  0  0  0  0  0  0  0  0  0
  -30.4850  -19.6790   19.6990 C   0  0  0  0  0  3  0  0  0  0  0  0
  -30.7350  -18.2510   19.6760 C   0  0  0  0  0  3  0  0  0  0  0  0
  -28.5160  -19.3290   20.9340 C   0  0  0  0  0  3  0  0  0  0  0  0
  -29.3590  -20.3110   20.3300 C   0  0  0  0  0  0  0  0  0  0  0  0
  -29.8530  -17.3120   20.2900 C   0  0  0  0  0  0  0  0  0  0  0  0
  -28.7360  -17.9170   20.9170 C   0  0  0  0  0  0  0  0  0  0  0  0
  -27.8300  -17.1090   21.5210 F   0  0  0  0  0  0  0  0  0  0  0  0
  -30.7090  -14.8220   19.7990 C   0  0  0  0  0  0  0  0  0  0  0  0
  -30.4900  -12.5900   18.6820 C   0  0  0  0  0  2  0  0  0  0  0  0
  -29.4410  -12.7090   17.5510 C   0  0  0  0  0  2  0  0  0  0  0  0
  -28.0130  -12.5000   18.0940 C   0  0  0  0  0  2  0  0  0  0  0  0
  -27.7410  -13.3180   19.3850 C   0  0  0  0  0  3  0  0  0  0  0  0
  -28.8920  -13.1530   20.4030 C   0  0  0  0  0  2  0  0  0  0  0  0
  -30.1370  -13.5690   19.7350 N   0  0  0  0  0  0  0  0  0  0  0  0
  -31.8230  -15.0270   19.3060 O   0  0  0  0  0  0  0  0  0  0  0  0
  -29.9140  -15.8270   20.3180 N   0  0  0  0  0  0  0  0  0  0  0  0
  -29.1070  -15.4380   20.7840 H   0  0  0  0  0  0  0  0  0  0  0  0
  -25.4210  -13.8610   20.3420 C   0  0  0  0  0  0  0  0  0  0  0  0
  -24.3900  -13.0630   20.7560 C   0  0  0  0  0  0  0  0  0  0  0  0
  -24.8450  -11.7180   20.6050 C   0  0  0  0  0  0  0  0  0  0  0  0
  -26.4410  -13.0000   19.9670 N   0  0  0  0  0  0  0  0  0  0  0  0
  -26.1050  -11.7030   20.1840 N   0  0  0  0  0  0  0  0  0  0  0  0
  -24.1350  -10.4440   20.7810 C   0  0  0  0  0  0  0  0  0  0  0  0
  -24.6290   -9.4360   21.6360 C   0  0  0  0  0  3  0  0  0  0  0  0
  -23.9190   -8.2270   21.8030 C   0  0  0  0  0  3  0  0  0  0  0  0
  -22.7000   -8.0200   21.1160 C   0  0  0  0  0  0  0  0  0  0  0  0
  -22.2240   -9.0190   20.2470 C   0  0  0  0  0  3  0  0  0  0  0  0
  -22.9350  -10.2170   20.0780 C   0  0  0  0  0  3  0  0  0  0  0  0
  -21.9550   -6.8680   21.1960 O   0  0  0  0  0  0  0  0  0  0  0  0
  -21.9620   -6.0830   22.3210 C   0  0  0  0  0  0  0  0  0  0  0  0
  -21.6090   -6.5950   23.5890 C   0  0  0  0  0  3  0  0  0  0  0  0
  -21.5640   -5.7370   24.7070 C   0  0  0  0  0  3  0  0  0  0  0  0
  -21.8610   -4.3690   24.5580 C   0  0  0  0  0  0  0  0  0  0  0  0
  -22.2070   -3.8580   23.2950 C   0  0  0  0  0  3  0  0  0  0  0  0
  -22.2550   -4.7110   22.1790 C   0  0  0  0  0  0  0  0  0  0  0  0
  -22.5680   -4.2080   20.9610 F   0  0  0  0  0  0  0  0  0  0  0  0
  -21.8100   -3.5440   25.6290 F   0  0  0  0  0  0  0  0  0  0  0  0
  -23.0220  -13.5190   21.1780 C   0  0  0  0  0  0  0  0  0  0  0  0
  -22.3790  -12.7800   22.0740 N   0  0  0  0  0  0  0  0  0  0  0  0
  -22.5360  -14.5640   20.7470 O   0  0  0  0  0  0  0  0  0  0  0  0
  -22.7870  -11.9330   22.4420 H   0  0  0  0  0  0  0  0  0  0  0  0
  -21.4660  -13.0660   22.4000 H   0  0  0  0  0  0  0  0  0  0  0  0
  -25.5710  -15.2400   20.2320 N   0  0  0  0  0  0  0  0  0  0  0  0
  -24.8230  -15.8840   20.4630 H   0  0  0  0  0  0  0  0  0  0  0  0
  -26.4030  -15.7070   19.8970 H   0  0  0  0  0  0  0  0  0  0  0  0
  -28.3510  -26.3770   20.1520 O   0  0  0  0  0  0  0  0  0  0  0  0
  -24.6480  -31.8910   23.1380 C   0  0  0  0  0  0  0  0  0  0  0  0
  -27.2830  -27.3060   20.1010 C   0  0  0  0  0  0  0  0  0  0  0  0
  -23.4500  -30.4690   21.5160 C   0  0  0  0  0  3  0  0  0  0  0  0
  -24.9100  -28.9240   20.0870 C   0  0  0  0  0  0  0  0  0  0  0  0
  -25.9890  -30.8020   21.3190 C   0  0  0  0  0  2  0  0  0  0  0  0
  -26.0810  -29.4170   20.6780 C   0  0  0  0  0  0  0  0  0  0  0  0
  -27.2720  -28.6200   20.6780 C   0  0  0  0  0  3  0  0  0  0  0  0
  -26.0930  -26.8820   19.4710 C   0  0  0  0  0  3  0  0  0  0  0  0
  -24.9210  -27.6620   19.4710 C   0  0  0  0  0  3  0  0  0  0  0  0
  -23.6640  -29.7870   20.1400 C   0  0  0  0  0  2  0  0  0  0  0  0
  -24.7150  -31.0730   22.0470 N   0  0  0  0  0  0  0  0  0  0  0  0
  -23.5650  -32.1620   23.6770 O   0  0  0  0  0  0  0  0  0  0  0  0
  -22.8020  -29.4540   22.4890 C   0  0  0  0  0  0  0  0  0  0  0  0
  -21.4720  -29.2780   22.3860 N   0  0  0  0  0  0  0  0  0  0  0  0
  -23.4930  -28.8270   23.2950 O   0  0  0  0  0  0  0  0  0  0  0  0
  -20.9720  -29.8360   21.7080 H   0  0  0  0  0  0  0  0  0  0  0  0
  -18.1030  -28.0850   22.9540 C   0  0  0  0  0  0  0  0  0  0  0  0
  -20.6670  -28.3410   23.1710 C   0  0  0  0  0  3  0  0  0  0  0  0
  -20.7540  -26.9090   22.5920 C   0  0  0  0  0  2  0  0  0  0  0  0
  -19.6310  -26.5910   21.6000 C   0  0  0  0  0  2  0  0  0  0  0  0
  -18.2630  -26.7370   22.2720 C   0  0  0  0  0  2  0  0  0  0  0  0
  -19.2320  -28.8450   23.3620 C   0  0  0  0  0  0  0  0  0  0  0  0
  -19.0260  -30.1070   23.9620 C   0  0  0  0  0  3  0  0  0  0  0  0
  -17.7260  -30.6100   24.1560 C   0  0  0  0  0  3  0  0  0  0  0  0
  -16.6120  -29.8470   23.7630 C   0  0  0  0  0  3  0  0  0  0  0  0
  -16.8020  -28.5870   23.1670 C   0  0  0  0  0  3  0  0  0  0  0  0
  -25.9270  -32.5430   23.7480 C   0  0  0  0  0  3  0  0  0  0  0  0
  -25.6030  -33.9380   24.0780 N   0  0  0  0  0  0  0  0  0  0  0  0
  -25.9140  -34.9940   23.3150 C   0  0  0  0  0  0  0  0  0  0  0  0
  -26.5760  -34.8980   22.2780 O   0  0  0  0  0  0  0  0  0  0  0  0
  -25.0120  -34.0850   24.8840 H   0  0  0  0  0  0  0  0  0  0  0  0
  -24.1600  -36.7660   22.9800 C   0  0  0  0  0  1  0  0  0  0  0  0
  -25.4160  -36.3770   23.7760 C   0  0  0  0  0  3  0  0  0  0  0  0
  -27.5510  -37.2890   24.5790 C   0  0  0  0  0  1  0  0  0  0  0  0
  -26.4340  -37.4430   23.6500 N   0  0  0  0  0  0  0  0  0  0  0  0
  -26.0190  -38.3590   23.8010 H   0  0  0  0  0  0  0  0  0  0  0  0
  -26.4640  -31.7810   25.0230 C   0  0  1  0  0  0  0  0  0  0  0  0
  -25.3820  -31.5370   26.1020 C   0  0  0  0  0  1  0  0  0  0  0  0
  -27.0590  -30.4090   24.6340 C   0  0  0  0  0  1  0  0  0  0  0  0
  -27.6100  -32.5930   25.6730 C   0  0  0  0  0  1  0  0  0  0  0  0
  1  3  2  0
  1  2  1  0
  2  6  2  0
  4  5  1  0
  4  1  1  0
  5  2  1  0
  7 10  1  0
  8  7  2  0
  8 11  1  0
 10  5  1  0
 10  9  2  0
 11 22  1  0
 11 12  2  0
 12  9  1  0
 12 13  1  0
 14 22  1  0
 15 20  1  0
 16 17  1  0
 16 15  1  0
 18 17  1  0
 18 27  1  0
 18 19  1  0
 20 14  1  0
 20 19  1  0
 21 14  2  0
 22 23  1  0
 24 25  2  0
 25 44  1  0
 26 25  1  0
 26 29  1  0
 27 28  1  0
 27 24  1  0
 28 26  2  0
 29 30  1  0
 30 31  2  0
 32 35  1  0
 32 31  1  0
 33 32  2  0
 34 33  1  0
 34 29  2  0
 35 36  1  0
 36 37  1  0
 37 38  2  0
 39 38  1  0
 39 43  1  0
 40 39  2  0
 41 36  2  0
 41 40  1  0
 42 41  1  0
 44 45  1  0
 45 48  1  0
 45 47  1  0
 46 44  2  0
 49 24  1  0
 49 50  1  0
 51 49  1  0
 52  3  1  0
 53 64  2  0
 54 52  1  0
 54 59  1  0
 55 63  1  0
 55 65  1  0
 56 62  1  0
 56 58  1  0
 57 63  1  0
 58 57  1  0
 59 58  2  0
 60 54  2  0
 61 60  1  0
 61 56  2  0
 62 55  1  0
 63 53  1  0
 65 67  2  0
 66 65  1  0
 68 66  1  0
 69 78  2  0
 69 74  1  0
 70 66  1  0
 70 74  1  0
 71 70  1  0
 72 73  1  0
 72 71  1  0
 73 69  1  0
 74 75  2  0
 75 76  1  0
 77 76  2  0
 78 77  1  0
 79 53  1  0
 79 80  1  0
 79 89  1  0
 80 83  1  0
 81 85  1  0
 81 80  1  0
 82 81  2  0
 85 84  1  0
 87 85  1  0
 87 88  1  0
 87 86  1  0
 89 92  1  1
 89 90  1  0
 91 89  1  0
M  ISO  4   3 101  14 100  22 100  52 101
M  END
>  <TORSDO>  (27) 
F 17

>  <SCORE>  (27) 
-12.991

>  <name>  (27) 
26

>  <ligand_id>  (27) 
26

>  <original_smiles>  (27) 
[H]C(Oc1c([H])c([H])c2c(c1[H])C([H])([H])N(C(=O)C([H])(N([H])C(=O)C([H])(N([H])C([H])([H])[H])C([H])([H])[H])C(C([H])([H])[H])(C([H])([H])[H])C([H])([H])[H])C([H])(C(=O)N([H])C1([H])c3c([H])c([H])c([H])c([H])c3C([H])([H])C([H])([H])C1([H])[H])C2([H])[H])=C1C(=O)N(c2c([H])c([H])c(N([H])C(=O)N3C([H])([H])C([H])([H])C([H])([H])C([H])(n4nc(-c5c([H])c([H])c(Oc6c([H])c([H])c(F)c([H])c6F)c([H])c5[H])c(C(=O)N([H])[H])c4N([H])[H])C3([H])[H])c(F)c2[H])C1([H])[H]

>  <smiles>  (27) 
[H]C(Oc1c([H])c([H])c2c(c1[H])C([H])([H])N(C(=O)C([H])(N([H])C(=O)C([H])(N([H])C([H])([H])[H])C([H])([H])[H])C(C([H])([H])[H])(C([H])([H])[H])C([H])([H])[H])C([H])(C(=O)N([H])C1([H])c3c([H])c([H])c([H])c([H])c3C([H])([H])C([H])([H])C1([H])[H])C2([H])[H])=C1C(=O)N(c2c([H])c([H])c(N([H])C(=O)N3C([H])([H])C([H])([H])C([H])([H])C([H])(n4nc(-c5c([H])c([H])c(Oc6c([H])c([H])c(F)c([H])c6F)c([H])c5[H])c(C(=O)N([H])[H])c4N([H])[H])C3([H])[H])c(F)c2[H])C1([H])[H]

$$$$
27:0:0
     RDKit          3D

 93102  0  0  1  0  0  0  0  0999 V2000
  -28.9100  -23.9800   20.1980 C   0  0  0  0  0  0  0  0  0  0  0  0
  -30.2120  -23.8990   19.6010 C   0  0  0  0  0  0  0  0  0  0  0  0
  -28.5400  -22.5700   20.5170 C   0  0  0  0  0  0  0  0  0  0  0  0
  -30.9600  -24.9410   19.1960 C   0  0  0  0  0  2  0  0  0  0  0  0
  -28.1150  -25.0870   20.4450 C   0  0  0  0  0  3  0  0  0  0  0  0
  -30.6410  -22.4510   19.5150 C   0  0  0  0  0  2  0  0  0  0  0  0
  -29.5390  -21.6880   20.1290 N   0  0  0  0  0  0  0  0  0  0  0  0
  -27.4800  -22.2310   21.0530 O   0  0  0  0  0  0  0  0  0  0  0  0
  -28.6300  -19.3790   20.8520 C   0  0  0  0  0  3  0  0  0  0  0  0
  -30.7300  -19.4610   19.7180 C   0  0  0  0  0  3  0  0  0  0  0  0
  -28.7430  -17.9550   20.9310 C   0  0  0  0  0  3  0  0  0  0  0  0
  -30.8460  -18.0320   19.7950 C   0  0  0  0  0  3  0  0  0  0  0  0
  -29.6180  -20.2000   20.2360 C   0  0  0  0  0  0  0  0  0  0  0  0
  -29.8470  -17.2260   20.4060 C   0  0  0  0  0  0  0  0  0  0  0  0
  -30.6310  -14.7350   20.0310 C   0  0  0  0  0  0  0  0  0  0  0  0
  -30.3970  -12.5070   18.9320 C   0  0  0  0  0  2  0  0  0  0  0  0
  -29.3770  -12.6460   17.7780 C   0  0  0  0  0  2  0  0  0  0  0  0
  -27.9340  -12.4630   18.2900 C   0  0  0  0  0  2  0  0  0  0  0  0
  -27.6450  -13.2930   19.5690 C   0  0  0  0  0  3  0  0  0  0  0  0
  -28.7710  -13.1160   20.6130 C   0  0  0  0  0  2  0  0  0  0  0  0
  -30.0380  -13.4960   19.9700 N   0  0  0  0  0  0  0  0  0  0  0  0
  -31.7570  -14.9220   19.5570 O   0  0  0  0  0  0  0  0  0  0  0  0
  -29.8400  -15.7550   20.5130 N   0  0  0  0  0  0  0  0  0  0  0  0
  -29.0020  -15.3880   20.9370 H   0  0  0  0  0  0  0  0  0  0  0  0
  -25.3040  -13.8690   20.4580 C   0  0  0  0  0  0  0  0  0  0  0  0
  -24.2610  -13.0850   20.8680 C   0  0  0  0  0  0  0  0  0  0  0  0
  -24.7150  -11.7350   20.7610 C   0  0  0  0  0  0  0  0  0  0  0  0
  -26.3290  -12.9960   20.1270 N   0  0  0  0  0  0  0  0  0  0  0  0
  -25.9830  -11.7050   20.3680 N   0  0  0  0  0  0  0  0  0  0  0  0
  -23.9990  -10.4680   20.9530 C   0  0  0  0  0  0  0  0  0  0  0  0
  -24.4480   -9.4970   21.8760 C   0  0  0  0  0  3  0  0  0  0  0  0
  -23.7320   -8.2950   22.0580 C   0  0  0  0  0  3  0  0  0  0  0  0
  -22.5510   -8.0530   21.3150 C   0  0  0  0  0  0  0  0  0  0  0  0
  -22.1200   -9.0130   20.3810 C   0  0  0  0  0  3  0  0  0  0  0  0
  -22.8380  -10.2060   20.1980 C   0  0  0  0  0  3  0  0  0  0  0  0
  -21.8050   -6.9030   21.4050 O   0  0  0  0  0  0  0  0  0  0  0  0
  -21.7210   -6.1900   22.5740 C   0  0  0  0  0  0  0  0  0  0  0  0
  -21.2400   -6.7720   23.7680 C   0  0  0  0  0  3  0  0  0  0  0  0
  -21.1020   -5.9850   24.9290 C   0  0  0  0  0  3  0  0  0  0  0  0
  -21.4350   -4.6170   24.8970 C   0  0  0  0  0  0  0  0  0  0  0  0
  -21.9090   -4.0350   23.7070 C   0  0  0  0  0  3  0  0  0  0  0  0
  -22.0470   -4.8200   22.5490 C   0  0  0  0  0  0  0  0  0  0  0  0
  -22.4840   -4.2500   21.4000 F   0  0  0  0  0  0  0  0  0  0  0  0
  -21.2970   -3.8590   26.0090 F   0  0  0  0  0  0  0  0  0  0  0  0
  -22.8840  -13.5540   21.2440 C   0  0  0  0  0  0  0  0  0  0  0  0
  -22.2110  -12.8320   22.1330 N   0  0  0  0  0  0  0  0  0  0  0  0
  -22.4160  -14.5960   20.7850 O   0  0  0  0  0  0  0  0  0  0  0  0
  -22.6040  -11.9890   22.5260 H   0  0  0  0  0  0  0  0  0  0  0  0
  -21.2920  -13.1280   22.4270 H   0  0  0  0  0  0  0  0  0  0  0  0
  -25.4610  -15.2440   20.3170 N   0  0  0  0  0  0  0  0  0  0  0  0
  -24.7010  -15.8930   20.4890 H   0  0  0  0  0  0  0  0  0  0  0  0
  -26.2770  -15.6920   19.9150 H   0  0  0  0  0  0  0  0  0  0  0  0
  -28.3530  -26.4630   20.1800 O   0  0  0  0  0  0  0  0  0  0  0  0
  -24.6360  -31.8860   23.2280 C   0  0  0  0  0  0  0  0  0  0  0  0
  -27.2520  -27.3390   20.1520 C   0  0  0  0  0  0  0  0  0  0  0  0
  -23.4320  -30.4890   21.5870 C   0  0  0  0  0  3  0  0  0  0  0  0
  -24.8840  -28.9490   20.1490 C   0  0  0  0  0  0  0  0  0  0  0  0
  -25.9700  -30.8130   21.3980 C   0  0  0  0  0  2  0  0  0  0  0  0
  -26.0530  -29.4360   20.7490 C   0  0  0  0  0  0  0  0  0  0  0  0
  -27.2400  -28.6420   20.7450 C   0  0  0  0  0  3  0  0  0  0  0  0
  -26.0650  -26.9130   19.5180 C   0  0  0  0  0  3  0  0  0  0  0  0
  -24.8920  -27.6920   19.5250 C   0  0  0  0  0  3  0  0  0  0  0  0
  -23.6440  -29.8190   20.2040 C   0  0  0  0  0  2  0  0  0  0  0  0
  -24.6980  -31.0810   22.1270 N   0  0  0  0  0  0  0  0  0  0  0  0
  -23.5540  -32.1590   23.7680 O   0  0  0  0  0  0  0  0  0  0  0  0
  -22.7750  -29.4680   22.5460 C   0  0  0  0  0  0  0  0  0  0  0  0
  -21.4510  -29.2780   22.4130 N   0  0  0  0  0  0  0  0  0  0  0  0
  -23.4550  -28.8490   23.3680 O   0  0  0  0  0  0  0  0  0  0  0  0
  -20.9600  -29.8300   21.7220 H   0  0  0  0  0  0  0  0  0  0  0  0
  -18.0820  -28.0490   22.8970 C   0  0  0  0  0  0  0  0  0  0  0  0
  -20.6360  -28.3340   23.1810 C   0  0  0  0  0  3  0  0  0  0  0  0
  -20.7560  -26.9020   22.6100 C   0  0  0  0  0  2  0  0  0  0  0  0
  -19.6630  -26.5660   21.5900 C   0  0  0  0  0  2  0  0  0  0  0  0
  -18.2760  -26.6990   22.2260 C   0  0  0  0  0  2  0  0  0  0  0  0
  -19.1910  -28.8230   23.3320 C   0  0  0  0  0  0  0  0  0  0  0  0
  -18.9550  -30.0860   23.9180 C   0  0  0  0  0  3  0  0  0  0  0  0
  -17.6450  -30.5740   24.0760 C   0  0  0  0  0  3  0  0  0  0  0  0
  -16.5510  -29.7960   23.6580 C   0  0  0  0  0  3  0  0  0  0  0  0
  -16.7710  -28.5360   23.0740 C   0  0  0  0  0  3  0  0  0  0  0  0
  -25.9190  -32.5200   23.8490 C   0  0  0  0  0  3  0  0  0  0  0  0
  -25.6050  -33.9150   24.1890 N   0  0  0  0  0  0  0  0  0  0  0  0
  -25.9180  -34.9730   23.4280 C   0  0  0  0  0  0  0  0  0  0  0  0
  -26.5700  -34.8770   22.3850 O   0  0  0  0  0  0  0  0  0  0  0  0
  -25.0230  -34.0630   25.0000 H   0  0  0  0  0  0  0  0  0  0  0  0
  -24.1680  -36.7540   23.1180 C   0  0  0  0  0  1  0  0  0  0  0  0
  -25.4300  -36.3570   23.9000 C   0  0  0  0  0  3  0  0  0  0  0  0
  -27.5760  -37.2580   24.6830 C   0  0  0  0  0  1  0  0  0  0  0  0
  -26.4510  -37.4190   23.7640 N   0  0  0  0  0  0  0  0  0  0  0  0
  -26.0410  -38.3350   23.9220 H   0  0  0  0  0  0  0  0  0  0  0  0
  -26.4420  -31.7440   25.1200 C   0  0  1  0  0  0  0  0  0  0  0  0
  -25.3530  -31.4980   26.1910 C   0  0  0  0  0  1  0  0  0  0  0  0
  -27.0300  -30.3710   24.7220 C   0  0  0  0  0  1  0  0  0  0  0  0
  -27.5920  -32.5390   25.7830 C   0  0  0  0  0  1  0  0  0  0  0  0
  1  5  2  0
  1  3  1  0
  2  1  1  0
  3  8  2  0
  4  2  2  0
  6  2  1  0
  6  7  1  0
  7 13  1  0
  7  3  1  0
  9 11  1  0
 10 12  2  0
 10 13  1  0
 12 14  1  0
 13  9  2  0
 14 23  1  0
 14 11  2  0
 15 23  1  0
 16 21  1  0
 17 18  1  0
 17 16  1  0
 19 18  1  0
 19 28  1  0
 19 20  1  0
 21 15  1  0
 21 20  1  0
 22 15  2  0
 23 24  1  0
 25 26  2  0
 26 45  1  0
 27 26  1  0
 27 30  1  0
 28 29  1  0
 28 25  1  0
 29 27  2  0
 30 31  1  0
 31 32  2  0
 33 36  1  0
 33 32  1  0
 34 33  2  0
 35 34  1  0
 35 30  2  0
 36 37  1  0
 37 38  1  0
 38 39  2  0
 40 39  1  0
 40 44  1  0
 41 40  2  0
 42 37  2  0
 42 41  1  0
 43 42  1  0
 45 46  1  0
 46 49  1  0
 46 48  1  0
 47 45  2  0
 50 25  1  0
 50 51  1  0
 52 50  1  0
 53  5  1  0
 54 65  2  0
 55 53  1  0
 55 60  1  0
 56 64  1  0
 56 66  1  0
 57 63  1  0
 57 59  1  0
 58 64  1  0
 59 58  1  0
 60 59  2  0
 61 62  1  0
 61 55  2  0
 62 57  2  0
 63 56  1  0
 64 54  1  0
 66 68  2  0
 67 66  1  0
 69 67  1  0
 70 79  2  0
 70 75  1  0
 71 67  1  0
 71 75  1  0
 72 71  1  0
 73 74  1  0
 73 72  1  0
 74 70  1  0
 75 76  2  0
 76 77  1  0
 78 77  2  0
 79 78  1  0
 80 54  1  0
 80 81  1  0
 80 90  1  0
 81 84  1  0
 82 86  1  0
 82 81  1  0
 83 82  2  0
 86 85  1  0
 88 86  1  0
 88 89  1  0
 88 87  1  0
 90 93  1  1
 90 91  1  0
 92 90  1  0
M  ISO  4   5 101  15 100  23 100  53 101
M  END
>  <TORSDO>  (28) 
F 17

>  <SCORE>  (28) 
-14.716

>  <name>  (28) 
27

>  <ligand_id>  (28) 
27

>  <original_smiles>  (28) 
[H]C([H])=C1C(=C([H])Oc2c([H])c([H])c3c(c2[H])C([H])([H])N(C(=O)C([H])(N([H])C(=O)C([H])(N([H])C([H])([H])[H])C([H])([H])[H])C(C([H])([H])[H])(C([H])([H])[H])C([H])([H])[H])C([H])(C(=O)N([H])C2([H])c4c([H])c([H])c([H])c([H])c4C([H])([H])C([H])([H])C2([H])[H])C3([H])[H])C(=O)N(c2c([H])c([H])c(N([H])C(=O)N3C([H])([H])C([H])([H])C([H])([H])C([H])(n4nc(-c5c([H])c([H])c(Oc6c([H])c([H])c(F)c([H])c6F)c([H])c5[H])c(C(=O)N([H])[H])c4N([H])[H])C3([H])[H])c([H])c2[H])C1([H])[H]

>  <smiles>  (28) 
[H]C([H])=C1C(=C([H])Oc2c([H])c([H])c3c(c2[H])C([H])([H])N(C(=O)C([H])(N([H])C(=O)C([H])(N([H])C([H])([H])[H])C([H])([H])[H])C(C([H])([H])[H])(C([H])([H])[H])C([H])([H])[H])C([H])(C(=O)N([H])C2([H])c4c([H])c([H])c([H])c([H])c4C([H])([H])C([H])([H])C2([H])[H])C3([H])[H])C(=O)N(c2c([H])c([H])c(N([H])C(=O)N3C([H])([H])C([H])([H])C([H])([H])C([H])(n4nc(-c5c([H])c([H])c(Oc6c([H])c([H])c(F)c([H])c6F)c([H])c5[H])c(C(=O)N([H])[H])c4N([H])[H])C3([H])[H])c([H])c2[H])C1([H])[H]

$$$$
28:0:0
     RDKit          3D

 94102  0  0  1  0  0  0  0  0999 V2000
  -29.6780  -20.6220   20.7420 C   0  0  0  0  0  0  0  0  0  0  0  0
  -29.0100  -21.6500   20.1760 N   0  0  0  0  0  0  0  0  0  0  0  0
  -30.4540  -20.7760   21.6870 O   0  0  0  0  0  0  0  0  0  0  0  0
  -28.2820  -21.3870   19.5250 H   0  0  0  0  0  0  0  0  0  0  0  0
  -29.1900  -17.8850   18.1030 C   0  0  0  0  0  3  0  0  0  0  0  0
  -29.2560  -19.1450   18.7270 C   0  0  0  0  0  3  0  0  0  0  0  0
  -29.3920  -16.7130   18.8490 C   0  0  0  0  0  3  0  0  0  0  0  0
  -29.7140  -18.0540   20.8630 C   0  0  0  0  0  3  0  0  0  0  0  0
  -29.5000  -19.2500   20.1190 C   0  0  0  0  0  0  0  0  0  0  0  0
  -29.6830  -16.7790   20.2330 C   0  0  0  0  0  0  0  0  0  0  0  0
  -30.6380  -14.5390   20.4920 C   0  0  0  0  0  0  0  0  0  0  0  0
  -30.3730  -12.3860   19.3350 C   0  0  0  0  0  2  0  0  0  0  0  0
  -29.4160  -12.5890   18.1390 C   0  0  0  0  0  2  0  0  0  0  0  0
  -27.9430  -12.4490   18.5750 C   0  0  0  0  0  2  0  0  0  0  0  0
  -27.6120  -13.2650   19.8550 C   0  0  0  0  0  3  0  0  0  0  0  0
  -28.6750  -13.0190   20.9510 C   0  0  0  0  0  2  0  0  0  0  0  0
  -29.9940  -13.3440   20.3850 N   0  0  0  0  0  0  0  0  0  0  0  0
  -31.7670  -14.7340   20.0310 O   0  0  0  0  0  0  0  0  0  0  0  0
  -29.8970  -15.5640   20.9640 N   0  0  0  0  0  0  0  0  0  0  0  0
  -29.1340  -15.2900   21.5650 H   0  0  0  0  0  0  0  0  0  0  0  0
  -25.2100  -13.8670   20.5590 C   0  0  0  0  0  0  0  0  0  0  0  0
  -24.1420  -13.0910   20.9240 C   0  0  0  0  0  0  0  0  0  0  0  0
  -24.6050  -11.7400   20.8860 C   0  0  0  0  0  0  0  0  0  0  0  0
  -26.2580  -12.9870   20.3300 N   0  0  0  0  0  0  0  0  0  0  0  0
  -25.8960  -11.7030   20.5820 N   0  0  0  0  0  0  0  0  0  0  0  0
  -23.8850  -10.4730   21.0710 C   0  0  0  0  0  0  0  0  0  0  0  0
  -24.3190   -9.5100   22.0070 C   0  0  0  0  0  3  0  0  0  0  0  0
  -23.6020   -8.3070   22.1790 C   0  0  0  0  0  3  0  0  0  0  0  0
  -22.4370   -8.0580   21.4150 C   0  0  0  0  0  0  0  0  0  0  0  0
  -22.0210   -9.0120   20.4700 C   0  0  0  0  0  3  0  0  0  0  0  0
  -22.7380  -10.2070   20.2960 C   0  0  0  0  0  3  0  0  0  0  0  0
  -21.6920   -6.9060   21.4950 O   0  0  0  0  0  0  0  0  0  0  0  0
  -21.6290   -6.1690   22.6510 C   0  0  0  0  0  0  0  0  0  0  0  0
  -21.1530   -6.7170   23.8610 C   0  0  0  0  0  3  0  0  0  0  0  0
  -21.0400   -5.9030   25.0070 C   0  0  0  0  0  3  0  0  0  0  0  0
  -21.3920   -4.5420   24.9420 C   0  0  0  0  0  0  0  0  0  0  0  0
  -21.8610   -3.9920   23.7360 C   0  0  0  0  0  3  0  0  0  0  0  0
  -21.9760   -4.8030   22.5940 C   0  0  0  0  0  0  0  0  0  0  0  0
  -22.4060   -4.2640   21.4270 F   0  0  0  0  0  0  0  0  0  0  0  0
  -21.2770   -3.7590   26.0410 F   0  0  0  0  0  0  0  0  0  0  0  0
  -22.7420  -13.5620   21.1980 C   0  0  0  0  0  0  0  0  0  0  0  0
  -22.0130  -12.8580   22.0530 N   0  0  0  0  0  0  0  0  0  0  0  0
  -22.3050  -14.5920   20.6850 O   0  0  0  0  0  0  0  0  0  0  0  0
  -22.3780  -12.0290   22.4980 H   0  0  0  0  0  0  0  0  0  0  0  0
  -21.0720  -13.1560   22.2740 H   0  0  0  0  0  0  0  0  0  0  0  0
  -25.3800  -15.2380   20.3870 N   0  0  0  0  0  0  0  0  0  0  0  0
  -24.6210  -15.9030   20.4890 H   0  0  0  0  0  0  0  0  0  0  0  0
  -26.2390  -15.6710   20.0710 H   0  0  0  0  0  0  0  0  0  0  0  0
  -30.2630  -23.0980   18.6620 C   0  0  0  0  0  1  0  0  0  0  0  0
  -29.5410  -23.0290   20.0250 C   0  0  0  0  0  3  0  0  0  0  0  0
  -28.5000  -24.1830   20.2880 C   0  0  0  0  0  0  0  0  0  0  0  0
  -27.5760  -24.0450   21.0990 O   0  0  0  0  0  0  0  0  0  0  0  0
  -28.6320  -25.5270   19.5050 C   0  0  0  0  0  2  0  0  0  0  0  0
  -28.4220  -26.7240   20.3000 O   0  0  0  0  0  0  0  0  0  0  0  0
  -24.5560  -31.9260   23.2480 C   0  0  0  0  0  0  0  0  0  0  0  0
  -27.2460  -27.4560   20.2160 C   0  0  0  0  0  0  0  0  0  0  0  0
  -23.3790  -30.5300   21.5800 C   0  0  0  0  0  3  0  0  0  0  0  0
  -24.8570  -28.9970   20.1730 C   0  0  0  0  0  0  0  0  0  0  0  0
  -25.9110  -30.8820   21.4290 C   0  0  0  0  0  2  0  0  0  0  0  0
  -26.0050  -29.5100   20.7870 C   0  0  0  0  0  0  0  0  0  0  0  0
  -27.1990  -28.7470   20.8040 C   0  0  0  0  0  3  0  0  0  0  0  0
  -26.0720  -26.9610   19.6050 C   0  0  0  0  0  3  0  0  0  0  0  0
  -24.8860  -27.7240   19.5790 C   0  0  0  0  0  3  0  0  0  0  0  0
  -23.6180  -29.8670   20.1970 C   0  0  0  0  0  2  0  0  0  0  0  0
  -24.6330  -31.1280   22.1440 N   0  0  0  0  0  0  0  0  0  0  0  0
  -23.4660  -32.1900   23.7730 O   0  0  0  0  0  0  0  0  0  0  0  0
  -22.7170  -29.4990   22.5260 C   0  0  0  0  0  0  0  0  0  0  0  0
  -21.3970  -29.3070   22.3790 N   0  0  0  0  0  0  0  0  0  0  0  0
  -23.3900  -28.8770   23.3540 O   0  0  0  0  0  0  0  0  0  0  0  0
  -20.9090  -29.8630   21.6910 H   0  0  0  0  0  0  0  0  0  0  0  0
  -18.0220  -28.0960   22.8410 C   0  0  0  0  0  0  0  0  0  0  0  0
  -20.5760  -28.3630   23.1410 C   0  0  0  0  0  3  0  0  0  0  0  0
  -20.6890  -26.9320   22.5670 C   0  0  0  0  0  2  0  0  0  0  0  0
  -19.6020  -26.6050   21.5380 C   0  0  0  0  0  2  0  0  0  0  0  0
  -18.2110  -26.7470   22.1660 C   0  0  0  0  0  2  0  0  0  0  0  0
  -19.1340  -28.8590   23.2870 C   0  0  0  0  0  0  0  0  0  0  0  0
  -18.9030  -30.1190   23.8810 C   0  0  0  0  0  3  0  0  0  0  0  0
  -17.5960  -30.6170   24.0300 C   0  0  0  0  0  3  0  0  0  0  0  0
  -16.5000  -29.8510   23.5980 C   0  0  0  0  0  3  0  0  0  0  0  0
  -16.7130  -28.5920   23.0100 C   0  0  0  0  0  3  0  0  0  0  0  0
  -25.8290  -32.5620   23.8850 C   0  0  0  0  0  3  0  0  0  0  0  0
  -26.3220  -31.8090   25.1810 C   0  0  1  0  0  0  0  0  0  0  0  0
  -25.2080  -31.5830   26.2300 C   0  0  0  0  0  1  0  0  0  0  0  0
  -26.9150  -30.4270   24.8180 C   0  0  0  0  0  1  0  0  0  0  0  0
  -27.4550  -32.6130   25.8590 C   0  0  0  0  0  1  0  0  0  0  0  0
  -25.5130  -33.9640   24.1910 N   0  0  0  0  0  0  0  0  0  0  0  0
  -25.8660  -35.0080   23.4300 C   0  0  0  0  0  0  0  0  0  0  0  0
  -26.5610  -34.8940   22.4170 O   0  0  0  0  0  0  0  0  0  0  0  0
  -24.8930  -34.1250   24.9720 H   0  0  0  0  0  0  0  0  0  0  0  0
  -24.1590  -36.8080   23.0030 C   0  0  0  0  0  1  0  0  0  0  0  0
  -25.3680  -36.4020   23.8610 C   0  0  0  0  0  3  0  0  0  0  0  0
  -27.4720  -37.2860   24.7650 C   0  0  0  0  0  1  0  0  0  0  0  0
  -26.4090  -37.4490   23.7800 N   0  0  0  0  0  0  0  0  0  0  0  0
  -26.0010  -38.3720   23.9060 H   0  0  0  0  0  0  0  0  0  0  0  0
  1  3  2  0
  2  1  1  0
  4  2  1  0
  5  6  2  0
  5  7  1  0
  6  9  1  0
  7 10  2  0
  9  1  1  0
  9  8  2  0
 10  8  1  0
 10 19  1  0
 11 19  1  0
 12 17  1  0
 13 14  1  0
 13 12  1  0
 15 14  1  0
 15 24  1  0
 15 16  1  0
 17 11  1  0
 17 16  1  0
 18 11  2  0
 19 20  1  0
 21 22  2  0
 22 41  1  0
 23 22  1  0
 23 26  1  0
 24 21  1  0
 24 25  1  0
 25 23  2  0
 26 27  1  0
 27 28  2  0
 29 32  1  0
 29 28  1  0
 30 29  2  0
 31 30  1  0
 31 26  2  0
 32 33  1  0
 33 34  1  0
 34 35  2  0
 36 35  1  0
 36 40  1  0
 37 36  2  0
 38 33  2  0
 38 37  1  0
 39 38  1  0
 41 42  1  0
 42 45  1  0
 42 44  1  0
 43 41  2  0
 46 47  1  0
 46 21  1  0
 48 46  1  0
 50 49  1  0
 50  2  1  0
 50 51  1  0
 51 52  2  0
 53 51  1  0
 53 54  1  0
 55 66  2  0
 56 54  1  0
 56 61  1  0
 57 65  1  0
 57 67  1  0
 58 64  1  0
 58 60  1  0
 59 65  1  0
 60 61  2  0
 60 59  1  0
 62 56  2  0
 63 62  1  0
 63 58  2  0
 64 57  1  0
 65 55  1  0
 67 69  2  0
 68 67  1  0
 70 68  1  0
 71 80  2  0
 71 76  1  0
 72 68  1  0
 72 76  1  0
 73 72  1  0
 74 75  1  0
 74 73  1  0
 75 71  1  0
 76 77  2  0
 77 78  1  0
 79 78  2  0
 80 79  1  0
 81 55  1  0
 81 86  1  0
 81 82  1  0
 82 85  1  1
 82 83  1  0
 84 82  1  0
 86 89  1  0
 87 91  1  0
 87 86  1  0
 88 87  2  0
 91 90  1  0
 93 91  1  0
 93 94  1  0
 93 92  1  0
M  ISO  4  11 100  19 100  53 101  54 101
M  END
>  <TORSDO>  (29) 
F 20

>  <SCORE>  (29) 
-13.994

>  <name>  (29) 
28

>  <ligand_id>  (29) 
28

>  <original_smiles>  (29) 
[H]c1c([H])c(C(=O)N([H])C([H])(C(=O)C([H])([H])Oc2c([H])c([H])c3c(c2[H])C([H])([H])N(C(=O)C([H])(N([H])C(=O)C([H])(N([H])C([H])([H])[H])C([H])([H])[H])C(C([H])([H])[H])(C([H])([H])[H])C([H])([H])[H])C([H])(C(=O)N([H])C2([H])c4c([H])c([H])c([H])c([H])c4C([H])([H])C([H])([H])C2([H])[H])C3([H])[H])C([H])([H])[H])c([H])c(N([H])C(=O)N2C([H])([H])C([H])([H])C([H])([H])C([H])(n3nc(-c4c([H])c([H])c(Oc5c([H])c([H])c(F)c([H])c5F)c([H])c4[H])c(C(=O)N([H])[H])c3N([H])[H])C2([H])[H])c1[H]

>  <smiles>  (29) 
[H]c1c([H])c(C(=O)N([H])C([H])(C(=O)C([H])([H])Oc2c([H])c([H])c3c(c2[H])C([H])([H])N(C(=O)C([H])(N([H])C(=O)C([H])(N([H])C([H])([H])[H])C([H])([H])[H])C(C([H])([H])[H])(C([H])([H])[H])C([H])([H])[H])C([H])(C(=O)N([H])C2([H])c4c([H])c([H])c([H])c([H])c4C([H])([H])C([H])([H])C2([H])[H])C3([H])[H])C([H])([H])[H])c([H])c(N([H])C(=O)N2C([H])([H])C([H])([H])C([H])([H])C([H])(n3nc(-c4c([H])c([H])c(Oc5c([H])c([H])c(F)c([H])c5F)c([H])c4[H])c(C(=O)N([H])[H])c3N([H])[H])C2([H])[H])c1[H]

$$$$
29:0:0
     RDKit          3D

 99109  0  0  1  0  0  0  0  0999 V2000
  -29.5100  -20.4360   21.5440 C   0  0  0  0  0  3  0  0  0  0  0  0
  -31.7050  -19.4870   21.9600 C   0  0  0  0  0  3  0  0  0  0  0  0
  -31.2510  -21.8160   22.4830 C   0  0  0  0  0  3  0  0  0  0  0  0
  -30.3810  -19.3090   21.4760 C   0  0  0  0  0  0  0  0  0  0  0  0
  -29.9280  -21.7140   21.9950 C   0  0  0  0  0  0  0  0  0  0  0  0
  -32.1310  -20.7210   22.4820 C   0  0  0  0  0  0  0  0  0  0  0  0
  -29.2710  -16.4770   19.4230 C   0  0  0  0  0  2  0  0  0  0  0  0
  -29.9680  -15.8470   20.3630 C   0  0  0  0  0  3  0  0  0  0  0  0
  -30.4440  -16.8230   21.3260 C   0  0  0  0  0  0  0  0  0  0  0  0
  -29.2200  -17.8740   19.7650 C   0  0  0  0  0  0  0  0  0  0  0  0
  -29.9760  -18.0310   20.8990 N   0  0  0  0  0  0  0  0  0  0  0  0
  -31.1200  -16.6100   22.3400 O   0  0  0  0  0  0  0  0  0  0  0  0
  -28.4080  -18.9350   18.7520 S   0  0  0  0  0  0  0  0  0  0  0  0
  -30.7100  -14.6090   20.1240 C   0  0  0  0  0  0  0  0  0  0  0  0
  -30.3110  -12.4340   19.0520 C   0  0  0  0  0  2  0  0  0  0  0  0
  -29.3410  -12.6280   17.8690 C   0  0  0  0  0  2  0  0  0  0  0  0
  -27.8860  -12.4800   18.3510 C   0  0  0  0  0  2  0  0  0  0  0  0
  -27.5790  -13.3450   19.5990 C   0  0  0  0  0  3  0  0  0  0  0  0
  -28.6760  -13.2170   20.6790 C   0  0  0  0  0  2  0  0  0  0  0  0
  -29.9840  -13.4620   20.0500 N   0  0  0  0  0  0  0  0  0  0  0  0
  -31.8840  -14.6580   19.7450 O   0  0  0  0  0  0  0  0  0  0  0  0
  -25.2310  -13.9780   20.4240 C   0  0  0  0  0  0  0  0  0  0  0  0
  -24.1670  -13.2150   20.8210 C   0  0  0  0  0  0  0  0  0  0  0  0
  -24.6070  -11.8580   20.7500 C   0  0  0  0  0  0  0  0  0  0  0  0
  -26.2490  -13.0830   20.1350 N   0  0  0  0  0  0  0  0  0  0  0  0
  -25.8830  -11.8040   20.3960 N   0  0  0  0  0  0  0  0  0  0  0  0
  -23.8690  -10.6050   20.9460 C   0  0  0  0  0  0  0  0  0  0  0  0
  -24.3020   -9.6330   21.8760 C   0  0  0  0  0  3  0  0  0  0  0  0
  -23.5670   -8.4440   22.0610 C   0  0  0  0  0  3  0  0  0  0  0  0
  -22.3850   -8.2190   21.3150 C   0  0  0  0  0  0  0  0  0  0  0  0
  -21.9700   -9.1790   20.3750 C   0  0  0  0  0  3  0  0  0  0  0  0
  -22.7060  -10.3610   20.1880 C   0  0  0  0  0  3  0  0  0  0  0  0
  -21.6240   -7.0800   21.4090 O   0  0  0  0  0  0  0  0  0  0  0  0
  -21.5660   -6.3460   22.5660 C   0  0  0  0  0  0  0  0  0  0  0  0
  -21.1130   -6.9050   23.7800 C   0  0  0  0  0  3  0  0  0  0  0  0
  -21.0000   -6.0970   24.9290 C   0  0  0  0  0  3  0  0  0  0  0  0
  -21.3330   -4.7300   24.8640 C   0  0  0  0  0  0  0  0  0  0  0  0
  -21.7780   -4.1700   23.6540 C   0  0  0  0  0  3  0  0  0  0  0  0
  -21.8920   -4.9760   22.5070 C   0  0  0  0  0  0  0  0  0  0  0  0
  -22.3010   -4.4260   21.3370 F   0  0  0  0  0  0  0  0  0  0  0  0
  -21.2170   -3.9520   25.9650 F   0  0  0  0  0  0  0  0  0  0  0  0
  -22.7880  -13.7120   21.1540 C   0  0  0  0  0  0  0  0  0  0  0  0
  -22.0780  -13.0100   22.0300 N   0  0  0  0  0  0  0  0  0  0  0  0
  -22.3520  -14.7560   20.6740 O   0  0  0  0  0  0  0  0  0  0  0  0
  -22.4460  -12.1660   22.4460 H   0  0  0  0  0  0  0  0  0  0  0  0
  -21.1560  -13.3260   22.2920 H   0  0  0  0  0  0  0  0  0  0  0  0
  -25.4050  -15.3510   20.2640 N   0  0  0  0  0  0  0  0  0  0  0  0
  -24.6360  -15.9970   20.4000 H   0  0  0  0  0  0  0  0  0  0  0  0
  -26.2330  -15.7990   19.8940 H   0  0  0  0  0  0  0  0  0  0  0  0
  -28.8870  -24.7960   21.5410 C   0  0  0  0  0  0  0  0  0  0  0  0
  -29.0380  -24.0100   22.7280 C   0  0  0  0  0  0  0  0  0  0  0  0
  -28.6840  -26.1190   21.3930 C   0  0  0  0  0  3  0  0  0  0  0  0
  -29.0630  -23.5810   20.6680 C   0  0  0  0  0  2  0  0  0  0  0  0
  -29.0680  -22.8460   21.9520 N   0  0  0  0  0  0  0  0  0  0  0  0
  -29.2200  -24.3200   23.8890 O   0  0  0  0  0  0  0  0  0  0  0  0
  -28.5330  -26.7560   20.1860 O   0  0  0  0  0  0  0  0  0  0  0  0
  -24.6740  -31.8700   23.2300 C   0  0  0  0  0  0  0  0  0  0  0  0
  -27.4040  -27.5300   20.1220 C   0  0  0  0  0  0  0  0  0  0  0  0
  -23.4980  -30.4640   21.5660 C   0  0  0  0  0  3  0  0  0  0  0  0
  -24.9880  -28.9740   20.1260 C   0  0  0  0  0  0  0  0  0  0  0  0
  -26.0150  -30.8800   21.3830 C   0  0  0  0  0  2  0  0  0  0  0  0
  -26.1290  -29.5210   20.7240 C   0  0  0  0  0  0  0  0  0  0  0  0
  -27.3460  -28.8060   20.7220 C   0  0  0  0  0  3  0  0  0  0  0  0
  -26.2570  -26.9920   19.5130 C   0  0  0  0  0  3  0  0  0  0  0  0
  -25.0440  -27.7090   19.5130 C   0  0  0  0  0  3  0  0  0  0  0  0
  -23.7230  -29.7990   20.1810 C   0  0  0  0  0  2  0  0  0  0  0  0
  -24.7450  -31.0860   22.1170 N   0  0  0  0  0  0  0  0  0  0  0  0
  -23.5860  -32.1210   23.7690 O   0  0  0  0  0  0  0  0  0  0  0  0
  -22.8610  -29.4230   22.5150 C   0  0  0  0  0  0  0  0  0  0  0  0
  -21.5370  -29.2330   22.3920 N   0  0  0  0  0  0  0  0  0  0  0  0
  -23.5530  -28.7880   23.3160 O   0  0  0  0  0  0  0  0  0  0  0  0
  -21.0380  -29.7980   21.7180 H   0  0  0  0  0  0  0  0  0  0  0  0
  -18.1730  -28.0220   22.8920 C   0  0  0  0  0  0  0  0  0  0  0  0
  -20.7300  -28.2800   23.1520 C   0  0  0  0  0  3  0  0  0  0  0  0
  -20.8320  -26.8590   22.5490 C   0  0  0  0  0  2  0  0  0  0  0  0
  -19.7260  -26.5550   21.5340 C   0  0  0  0  0  2  0  0  0  0  0  0
  -18.3490  -26.6860   22.1890 C   0  0  0  0  0  2  0  0  0  0  0  0
  -19.2920  -28.7780   23.3300 C   0  0  0  0  0  0  0  0  0  0  0  0
  -19.0750  -30.0310   23.9440 C   0  0  0  0  0  3  0  0  0  0  0  0
  -17.7700  -30.5250   24.1270 C   0  0  0  0  0  3  0  0  0  0  0  0
  -16.6650  -29.7640   23.7060 C   0  0  0  0  0  3  0  0  0  0  0  0
  -16.8670  -28.5140   23.0950 C   0  0  0  0  0  3  0  0  0  0  0  0
  -25.9500  -32.5130   23.8620 C   0  0  0  0  0  3  0  0  0  0  0  0
  -26.4750  -31.7410   25.1320 C   0  0  1  0  0  0  0  0  0  0  0  0
  -25.3820  -31.4850   26.1970 C   0  0  0  0  0  1  0  0  0  0  0  0
  -27.0770  -30.3750   24.7290 C   0  0  0  0  0  1  0  0  0  0  0  0
  -27.6110  -32.5480   25.8010 C   0  0  0  0  0  1  0  0  0  0  0  0
  -25.6220  -33.9060   24.1980 N   0  0  0  0  0  0  0  0  0  0  0  0
  -25.9260  -34.9630   23.4340 C   0  0  0  0  0  0  0  0  0  0  0  0
  -26.5860  -34.8740   22.3950 O   0  0  0  0  0  0  0  0  0  0  0  0
  -25.0380  -34.0470   25.0080 H   0  0  0  0  0  0  0  0  0  0  0  0
  -24.1620  -36.7220   23.1040 C   0  0  0  0  0  1  0  0  0  0  0  0
  -25.4190  -36.3420   23.9000 C   0  0  0  0  0  3  0  0  0  0  0  0
  -27.5430  -37.2680   24.7130 C   0  0  0  0  0  1  0  0  0  0  0  0
  -26.4300  -37.4140   23.7790 N   0  0  0  0  0  0  0  0  0  0  0  0
  -26.0050  -38.3240   23.9360 H   0  0  0  0  0  0  0  0  0  0  0  0
  -33.4290  -20.8670   22.9770 N   0  0  0  0  0  0  0  0  0  0  0  0
  -34.0160  -20.0610   23.1710 H   0  0  0  0  0  0  0  0  0  0  0  0
  -33.7220  -21.7190   23.4530 H   0  0  0  0  0  0  0  0  0  0  0  0
  1  5  1  0
  2  6  2  0
  4  1  2  0
  4  2  1  0
  5  3  2  0
  6  3  1  0
  6 97  1  0
  7 10  1  0
  7  8  1  0
  8 14  1  0
  8  9  1  0
  9 12  2  0
 10 11  1  0
 11  9  1  0
 11  4  1  0
 13 10  2  0
 15 20  1  0
 16 17  1  0
 16 15  1  0
 18 17  1  0
 18 25  1  0
 18 19  1  0
 20 14  1  0
 20 19  1  0
 21 14  2  0
 22 23  2  0
 23 42  1  0
 24 23  1  0
 24 27  1  0
 25 26  1  0
 25 22  1  0
 26 24  2  0
 27 28  1  0
 28 29  2  0
 30 33  1  0
 30 29  1  0
 31 30  2  0
 32 31  1  0
 32 27  2  0
 33 34  1  0
 34 35  1  0
 35 36  2  0
 37 36  1  0
 37 41  1  0
 38 37  2  0
 39 34  2  0
 39 38  1  0
 40 39  1  0
 42 43  1  0
 43 46  1  0
 43 45  1  0
 44 42  2  0
 47 48  1  0
 47 22  1  0
 49 47  1  0
 50 51  1  0
 51 55  2  0
 52 50  2  0
 53 50  1  0
 53 54  1  0
 54  5  1  0
 54 51  1  0
 56 52  1  0
 57 68  2  0
 58 56  1  0
 58 63  1  0
 59 67  1  0
 59 69  1  0
 60 66  1  0
 60 62  1  0
 61 67  1  0
 62 61  1  0
 63 62  2  0
 64 65  1  0
 64 58  2  0
 65 60  2  0
 66 59  1  0
 67 57  1  0
 69 71  2  0
 70 69  1  0
 72 70  1  0
 73 82  2  0
 73 78  1  0
 74 70  1  0
 74 78  1  0
 75 74  1  0
 76 77  1  0
 76 75  1  0
 77 73  1  0
 78 79  2  0
 79 80  1  0
 81 80  2  0
 82 81  1  0
 83 57  1  0
 83 88  1  0
 83 84  1  0
 84 87  1  1
 84 85  1  0
 86 84  1  0
 88 91  1  0
 89 93  1  0
 89 88  1  0
 90 89  2  0
 93 92  1  0
 95 93  1  0
 95 96  1  0
 95 94  1  0
 97 98  1  0
 97 99  1  0
M  ISO  4   8 100  14 100  52 101  56 101
M  END
>  <TORSDO>  (30) 
F 19

>  <SCORE>  (30) 
-15.073

>  <name>  (30) 
29

>  <ligand_id>  (30) 
29

>  <original_smiles>  (30) 
[H]C(Oc1c([H])c([H])c2c(c1[H])C([H])([H])N(C(=O)C([H])(N([H])C(=O)C([H])(N([H])C([H])([H])[H])C([H])([H])[H])C(C([H])([H])[H])(C([H])([H])[H])C([H])([H])[H])C([H])(C(=O)N([H])C1([H])c3c([H])c([H])c([H])c([H])c3C([H])([H])C([H])([H])C1([H])[H])C2([H])[H])=C1C(=O)N(c2c([H])c(N([H])[H])c([H])c(N3C(=O)C(C(=O)N4C([H])([H])C([H])([H])C([H])([H])C([H])(n5nc(-c6c([H])c([H])c(Oc7c([H])c([H])c(F)c([H])c7F)c([H])c6[H])c(C(=O)N([H])[H])c5N([H])[H])C4([H])[H])=C([H])C3=S)c2[H])C1([H])[H]

>  <smiles>  (30) 
[H]C(Oc1c([H])c([H])c2c(c1[H])C([H])([H])N(C(=O)C([H])(N([H])C(=O)C([H])(N([H])C([H])([H])[H])C([H])([H])[H])C(C([H])([H])[H])(C([H])([H])[H])C([H])([H])[H])C([H])(C(=O)N([H])C1([H])c3c([H])c([H])c([H])c([H])c3C([H])([H])C([H])([H])C1([H])[H])C2([H])[H])=C1C(=O)N(c2c([H])c(N([H])[H])c([H])c(N3C(=O)C(C(=O)N4C([H])([H])C([H])([H])C([H])([H])C([H])(n5nc(-c6c([H])c([H])c(Oc7c([H])c([H])c(F)c([H])c7F)c([H])c6[H])c(C(=O)N([H])[H])c5N([H])[H])C4([H])[H])=C([H])C3=S)c2[H])C1([H])[H]

$$$$
30:0:0
     RDKit          3D

 91101  0  0  1  0  0  0  0  0999 V2000
  -29.4920  -20.7980   18.3120 C   0  0  0  0  0  2  0  0  0  0  0  0
  -28.1470  -20.5430   18.7340 C   0  0  0  0  0  2  0  0  0  0  0  0
  -30.1580  -20.9020   19.5110 C   0  0  1  0  0  0  0  0  0  0  0  0
  -28.3810  -20.3880   20.0710 C   0  0  2  0  0  0  0  0  0  0  0  0
  -30.9760  -18.5270   20.2310 C   0  0  0  0  0  2  0  0  0  0  0  0
  -31.1160  -19.8830   19.9920 C   0  0  0  0  0  3  0  0  0  0  0  0
  -29.6930  -17.7410   20.3720 C   0  0  0  0  0  0  0  0  0  0  0  0
  -28.5390  -18.8880   20.7370 C   0  0  0  0  0  2  0  0  0  0  0  0
  -29.5250  -16.3550   20.4140 N   0  0  0  0  0  0  0  0  0  0  0  0
  -29.1710  -21.6060   20.2540 N   0  0  0  0  0  0  0  0  0  0  0  0
  -32.3830  -20.3280   20.0630 F   0  0  0  0  0  0  0  0  0  0  0  0
  -30.4310  -15.1580   20.1970 C   0  0  0  0  0  0  0  0  0  0  0  0
  -30.4120  -12.7410   19.3110 C   0  0  0  0  0  2  0  0  0  0  0  0
  -29.4720  -12.6190   18.0860 C   0  0  0  0  0  2  0  0  0  0  0  0
  -28.0180  -12.3650   18.5310 C   0  0  0  0  0  2  0  0  0  0  0  0
  -27.5940  -13.3080   19.6850 C   0  0  0  0  0  3  0  0  0  0  0  0
  -28.6530  -13.3830   20.8000 C   0  0  0  0  0  2  0  0  0  0  0  0
  -29.9060  -13.8480   20.1900 N   0  0  0  0  0  0  0  0  0  0  0  0
  -31.6270  -15.2150   19.8950 O   0  0  0  0  0  0  0  0  0  0  0  0
  -25.2310  -13.8720   20.4760 C   0  0  0  0  0  0  0  0  0  0  0  0
  -24.1720  -13.0940   20.8590 C   0  0  0  0  0  0  0  0  0  0  0  0
  -24.6380  -11.7430   20.8150 C   0  0  0  0  0  0  0  0  0  0  0  0
  -26.2680  -12.9950   20.2080 N   0  0  0  0  0  0  0  0  0  0  0  0
  -25.9240  -11.7090   20.4790 N   0  0  0  0  0  0  0  0  0  0  0  0
  -23.9140  -10.4800   21.0120 C   0  0  0  0  0  0  0  0  0  0  0  0
  -24.3520   -9.5140   21.9440 C   0  0  0  0  0  3  0  0  0  0  0  0
  -23.6260   -8.3170   22.1300 C   0  0  0  0  0  3  0  0  0  0  0  0
  -22.4500   -8.0770   21.3800 C   0  0  0  0  0  0  0  0  0  0  0  0
  -22.0320   -9.0320   20.4360 C   0  0  0  0  0  3  0  0  0  0  0  0
  -22.7580  -10.2200   20.2500 C   0  0  0  0  0  3  0  0  0  0  0  0
  -21.6950   -6.9330   21.4730 O   0  0  0  0  0  0  0  0  0  0  0  0
  -21.6460   -6.1950   22.6300 C   0  0  0  0  0  0  0  0  0  0  0  0
  -21.1970   -6.7490   23.8490 C   0  0  0  0  0  3  0  0  0  0  0  0
  -21.0970   -5.9380   24.9960 C   0  0  0  0  0  3  0  0  0  0  0  0
  -21.4320   -4.5730   24.9260 C   0  0  0  0  0  0  0  0  0  0  0  0
  -21.8730   -4.0170   23.7120 C   0  0  0  0  0  3  0  0  0  0  0  0
  -21.9760   -4.8260   22.5670 C   0  0  0  0  0  0  0  0  0  0  0  0
  -22.3800   -4.2800   21.3950 F   0  0  0  0  0  0  0  0  0  0  0  0
  -21.3280   -3.7920   26.0270 F   0  0  0  0  0  0  0  0  0  0  0  0
  -22.7790  -13.5700   21.1520 C   0  0  0  0  0  0  0  0  0  0  0  0
  -22.0640  -12.8700   22.0260 N   0  0  0  0  0  0  0  0  0  0  0  0
  -22.3350  -14.5970   20.6430 O   0  0  0  0  0  0  0  0  0  0  0  0
  -22.4360  -12.0380   22.4590 H   0  0  0  0  0  0  0  0  0  0  0  0
  -21.1300  -13.1710   22.2650 H   0  0  0  0  0  0  0  0  0  0  0  0
  -25.3960  -15.2440   20.3070 N   0  0  0  0  0  0  0  0  0  0  0  0
  -24.6460  -15.9120   20.4510 H   0  0  0  0  0  0  0  0  0  0  0  0
  -26.2620  -15.6760   20.0090 H   0  0  0  0  0  0  0  0  0  0  0  0
  -28.9540  -23.2200   19.8810 C   0  0  0  0  0  2  0  0  0  0  0  0
  -27.0510  -24.1750   21.3750 C   0  0  0  0  0  2  0  0  0  0  0  0
  -28.0490  -24.4920   20.5340 C   0  0  0  0  0  0  0  0  0  0  0  0
  -28.2760  -25.9650   20.2550 O   0  0  0  0  0  0  0  0  0  0  0  0
  -24.6450  -31.8450   23.2060 C   0  0  0  0  0  0  0  0  0  0  0  0
  -27.2510  -27.0270   20.2330 C   0  0  0  0  0  0  0  0  0  0  0  0
  -23.4710  -30.4400   21.5580 C   0  0  0  0  0  3  0  0  0  0  0  0
  -24.9400  -28.8490   20.1540 C   0  0  0  0  0  0  0  0  0  0  0  0
  -26.0340  -30.6790   21.4310 C   0  0  0  0  0  2  0  0  0  0  0  0
  -26.1160  -29.2730   20.7870 C   0  0  0  0  0  0  0  0  0  0  0  0
  -27.2700  -28.3790   20.8080 C   0  0  0  0  0  3  0  0  0  0  0  0
  -26.0510  -26.7410   19.5450 C   0  0  0  0  0  3  0  0  0  0  0  0
  -24.9270  -27.6010   19.5140 C   0  0  0  0  0  3  0  0  0  0  0  0
  -23.7140  -29.7570   20.1850 C   0  0  0  0  0  2  0  0  0  0  0  0
  -24.7360  -31.0150   22.1180 N   0  0  0  0  0  0  0  0  0  0  0  0
  -23.5500  -32.1300   23.7170 O   0  0  0  0  0  0  0  0  0  0  0  0
  -22.7780  -29.4390   22.5170 C   0  0  0  0  0  0  0  0  0  0  0  0
  -21.4460  -29.2870   22.3970 N   0  0  0  0  0  0  0  0  0  0  0  0
  -23.4440  -28.8000   23.3370 O   0  0  0  0  0  0  0  0  0  0  0  0
  -20.9630  -29.8500   21.7110 H   0  0  0  0  0  0  0  0  0  0  0  0
  -18.0520  -28.1220   22.9240 C   0  0  0  0  0  0  0  0  0  0  0  0
  -20.6180  -28.3500   23.1640 C   0  0  0  0  0  3  0  0  0  0  0  0
  -20.6940  -26.9250   22.5700 C   0  0  0  0  0  2  0  0  0  0  0  0
  -19.5770  -26.6280   21.5660 C   0  0  0  0  0  2  0  0  0  0  0  0
  -18.2050  -26.7800   22.2290 C   0  0  0  0  0  2  0  0  0  0  0  0
  -19.1860  -28.8670   23.3500 C   0  0  0  0  0  0  0  0  0  0  0  0
  -18.9880  -30.1210   23.9670 C   0  0  0  0  0  3  0  0  0  0  0  0
  -17.6910  -30.6330   24.1580 C   0  0  0  0  0  3  0  0  0  0  0  0
  -16.5720  -29.8870   23.7440 C   0  0  0  0  0  3  0  0  0  0  0  0
  -16.7540  -28.6340   23.1350 C   0  0  0  0  0  3  0  0  0  0  0  0
  -25.9100  -32.4910   23.8470 C   0  0  0  0  0  3  0  0  0  0  0  0
  -25.5870  -33.8930   24.1670 N   0  0  0  0  0  0  0  0  0  0  0  0
  -25.9280  -34.9490   23.4180 C   0  0  0  0  0  0  0  0  0  0  0  0
  -26.6110  -34.8480   22.3960 O   0  0  0  0  0  0  0  0  0  0  0  0
  -24.9800  -34.0440   24.9590 H   0  0  0  0  0  0  0  0  0  0  0  0
  -24.2090  -36.7500   23.0430 C   0  0  0  0  0  1  0  0  0  0  0  0
  -25.4360  -36.3390   23.8720 C   0  0  0  0  0  3  0  0  0  0  0  0
  -27.5560  -37.2260   24.7410 C   0  0  0  0  0  1  0  0  0  0  0  0
  -26.4720  -37.3920   23.7760 N   0  0  0  0  0  0  0  0  0  0  0  0
  -26.0640  -38.3120   23.9140 H   0  0  0  0  0  0  0  0  0  0  0  0
  -26.4030  -31.7340   25.1430 C   0  0  1  0  0  0  0  0  0  0  0  0
  -25.2890  -31.5120   26.1930 C   0  0  0  0  0  1  0  0  0  0  0  0
  -26.9920  -30.3510   24.7850 C   0  0  0  0  0  1  0  0  0  0  0  0
  -27.5400  -32.5370   25.8170 C   0  0  0  0  0  1  0  0  0  0  0  0
  1  2  1  0
  3  1  1  6
  3  6  1  0
  3  4  1  0
  3 10  1  0
  4  2  1  6
  4 10  1  0
  4  8  1  0
  5  7  1  0
  6 11  1  0
  6  5  1  0
  7  9  2  0
  7  8  1  0
 12  9  1  0
 13 18  1  0
 14 15  1  0
 14 13  1  0
 16 15  1  0
 16 23  1  0
 16 17  1  0
 18 12  1  0
 18 17  1  0
 19 12  2  0
 20 21  2  0
 21 40  1  0
 22 21  1  0
 22 25  1  0
 23 20  1  0
 23 24  1  0
 24 22  2  0
 25 26  1  0
 26 27  2  0
 28 31  1  0
 28 27  1  0
 29 28  2  0
 30 29  1  0
 30 25  2  0
 31 32  1  0
 32 33  1  0
 33 34  2  0
 35 34  1  0
 35 39  1  0
 36 35  2  0
 37 32  2  0
 37 36  1  0
 38 37  1  0
 40 41  1  0
 41 44  1  0
 41 43  1  0
 42 40  2  0
 45 46  1  0
 45 20  1  0
 47 45  1  0
 48 10  1  0
 48 50  1  0
 50 49  2  0
 51 50  1  0
 52 63  2  0
 53 51  1  0
 53 58  1  0
 54 62  1  0
 54 64  1  0
 55 61  1  0
 55 57  1  0
 56 62  1  0
 57 58  2  0
 57 56  1  0
 59 53  2  0
 60 59  1  0
 60 55  2  0
 61 54  1  0
 62 52  1  0
 64 66  2  0
 65 64  1  0
 67 65  1  0
 68 77  2  0
 68 73  1  0
 69 65  1  0
 69 73  1  0
 70 69  1  0
 71 72  1  0
 71 70  1  0
 72 68  1  0
 73 74  2  0
 74 75  1  0
 76 75  2  0
 77 76  1  0
 78 52  1  0
 78 79  1  0
 78 88  1  0
 79 82  1  0
 80 84  1  0
 80 79  1  0
 81 80  2  0
 84 83  1  0
 86 84  1  0
 86 87  1  0
 86 85  1  0
 88 91  1  1
 88 89  1  0
 90 88  1  0
M  ISO  4   9 100  12 100  50 101  51 101
M  END
>  <TORSDO>  (31) 
F 18

>  <SCORE>  (31) 
-14.735

>  <name>  (31) 
30

>  <ligand_id>  (31) 
30

>  <original_smiles>  (31) 
[H]C([H])=C(Oc1c([H])c([H])c2c(c1[H])C([H])([H])N(C(=O)C([H])(N([H])C(=O)C([H])(N([H])C([H])([H])[H])C([H])([H])[H])C(C([H])([H])[H])(C([H])([H])[H])C([H])([H])[H])C([H])(C(=O)N([H])C1([H])c3c([H])c([H])c([H])c([H])c3C([H])([H])C([H])([H])C1([H])[H])C2([H])[H])C([H])([H])n1c2c([H])c([H])c1C([H])([H])C(=NC(=O)N1C([H])([H])C([H])([H])C([H])([H])C([H])(n3nc(-c4c([H])c([H])c(Oc5c([H])c([H])c(F)c([H])c5F)c([H])c4[H])c(C(=O)N([H])[H])c3N([H])[H])C1([H])[H])C([H])=C2F

>  <smiles>  (31) 
[H]C([H])=C(Oc1c([H])c([H])c2c(c1[H])C([H])([H])N(C(=O)C([H])(N([H])C(=O)C([H])(N([H])C([H])([H])[H])C([H])([H])[H])C(C([H])([H])[H])(C([H])([H])[H])C([H])([H])[H])C([H])(C(=O)N([H])C1([H])c3c([H])c([H])c([H])c([H])c3C([H])([H])C([H])([H])C1([H])[H])C2([H])[H])C([H])([H])n1c2c([H])c([H])c1C([H])([H])C(=NC(=O)N1C([H])([H])C([H])([H])C([H])([H])C([H])(n3nc(-c4c([H])c([H])c(Oc5c([H])c([H])c(F)c([H])c5F)c([H])c4[H])c(C(=O)N([H])[H])c3N([H])[H])C1([H])[H])C([H])=C2F

$$$$
31:0:0
     RDKit          3D

 90 99  0  0  1  0  0  0  0  0999 V2000
  -28.3990  -23.5340   20.3630 C   0  0  0  0  0  0  0  0  0  0  0  0
  -29.6510  -22.8950   19.9230 C   0  0  0  0  0  0  0  0  0  0  0  0
  -27.8400  -24.8330   20.4940 C   0  0  0  0  0  3  0  0  0  0  0  0
  -27.8560  -22.0860   20.6630 C   0  0  0  0  0  2  0  0  0  0  0  0
  -29.1630  -21.5610   20.1960 N   0  0  0  0  0  0  0  0  0  0  0  0
  -30.6840  -23.3830   19.5110 O   0  0  0  0  0  0  0  0  0  0  0  0
  -29.1100  -18.7960   20.3970 C   0  0  0  0  0  3  0  0  0  0  0  0
  -31.2610  -18.0860   19.8390 C   0  0  0  0  0  3  0  0  0  0  0  0
  -30.0280  -17.6140   20.2160 C   0  0  0  0  0  0  0  0  0  0  0  0
  -29.6390  -20.1070   20.1610 C   0  0  0  0  0  0  0  0  0  0  0  0
  -31.3180  -19.8450   19.7030 S   0  0  0  0  0  0  0  0  0  0  0  0
  -30.5220  -14.9470   20.1790 C   0  0  0  0  0  0  0  0  0  0  0  0
  -30.3510  -12.6270   19.2000 C   0  0  0  0  0  2  0  0  0  0  0  0
  -29.3870  -12.6350   17.9920 C   0  0  0  0  0  2  0  0  0  0  0  0
  -27.9330  -12.4320   18.4550 C   0  0  0  0  0  2  0  0  0  0  0  0
  -27.5640  -13.3280   19.6680 C   0  0  0  0  0  3  0  0  0  0  0  0
  -28.6490  -13.2970   20.7650 C   0  0  0  0  0  2  0  0  0  0  0  0
  -29.9130  -13.6990   20.1350 N   0  0  0  0  0  0  0  0  0  0  0  0
  -31.7170  -15.0060   19.8630 O   0  0  0  0  0  0  0  0  0  0  0  0
  -29.7480  -16.1200   20.3770 N   0  0  0  0  0  0  0  0  0  0  0  0
  -28.7950  -15.9060   20.6230 H   0  0  0  0  0  0  0  0  0  0  0  0
  -25.1990  -13.8920   20.4720 C   0  0  0  0  0  0  0  0  0  0  0  0
  -24.1470  -13.1090   20.8610 C   0  0  0  0  0  0  0  0  0  0  0  0
  -24.6150  -11.7610   20.8030 C   0  0  0  0  0  0  0  0  0  0  0  0
  -26.2380  -13.0200   20.1950 N   0  0  0  0  0  0  0  0  0  0  0  0
  -25.8980  -11.7320   20.4610 N   0  0  0  0  0  0  0  0  0  0  0  0
  -23.8960  -10.4940   20.9960 C   0  0  0  0  0  0  0  0  0  0  0  0
  -24.3340   -9.5290   21.9300 C   0  0  0  0  0  3  0  0  0  0  0  0
  -23.6150   -8.3280   22.1100 C   0  0  0  0  0  3  0  0  0  0  0  0
  -22.4430   -8.0830   21.3560 C   0  0  0  0  0  0  0  0  0  0  0  0
  -22.0240   -9.0360   20.4100 C   0  0  0  0  0  3  0  0  0  0  0  0
  -22.7440  -10.2290   20.2290 C   0  0  0  0  0  3  0  0  0  0  0  0
  -21.6940   -6.9340   21.4460 O   0  0  0  0  0  0  0  0  0  0  0  0
  -21.6250   -6.2090   22.6070 C   0  0  0  0  0  0  0  0  0  0  0  0
  -21.1510   -6.7730   23.8120 C   0  0  0  0  0  3  0  0  0  0  0  0
  -21.0320   -5.9720   24.9660 C   0  0  0  0  0  3  0  0  0  0  0  0
  -21.3770   -4.6090   24.9160 C   0  0  0  0  0  0  0  0  0  0  0  0
  -21.8440   -4.0430   23.7160 C   0  0  0  0  0  3  0  0  0  0  0  0
  -21.9650   -4.8410   22.5650 C   0  0  0  0  0  0  0  0  0  0  0  0
  -22.3950   -4.2870   21.4070 F   0  0  0  0  0  0  0  0  0  0  0  0
  -21.2560   -3.8370   26.0220 F   0  0  0  0  0  0  0  0  0  0  0  0
  -22.7550  -13.5790   21.1670 C   0  0  0  0  0  0  0  0  0  0  0  0
  -22.0470  -12.8740   22.0420 N   0  0  0  0  0  0  0  0  0  0  0  0
  -22.3030  -14.6080   20.6640 O   0  0  0  0  0  0  0  0  0  0  0  0
  -22.4230  -12.0400   22.4680 H   0  0  0  0  0  0  0  0  0  0  0  0
  -21.1140  -13.1750   22.2900 H   0  0  0  0  0  0  0  0  0  0  0  0
  -25.3500  -15.2650   20.3020 N   0  0  0  0  0  0  0  0  0  0  0  0
  -24.5740  -15.9070   20.4300 H   0  0  0  0  0  0  0  0  0  0  0  0
  -26.1650  -15.7100   19.9020 H   0  0  0  0  0  0  0  0  0  0  0  0
  -28.2280  -26.2180   20.2510 O   0  0  0  0  0  0  0  0  0  0  0  0
  -24.6220  -31.9110   23.2400 C   0  0  0  0  0  0  0  0  0  0  0  0
  -27.2020  -27.2260   20.2010 C   0  0  0  0  0  0  0  0  0  0  0  0
  -23.4240  -30.5220   21.5930 C   0  0  0  0  0  3  0  0  0  0  0  0
  -24.8770  -28.9570   20.1660 C   0  0  0  0  0  0  0  0  0  0  0  0
  -25.9780  -30.7880   21.4400 C   0  0  0  0  0  2  0  0  0  0  0  0
  -26.0530  -29.4000   20.7860 C   0  0  0  0  0  0  0  0  0  0  0  0
  -27.2180  -28.5480   20.7970 C   0  0  0  0  0  3  0  0  0  0  0  0
  -26.0100  -26.8910   19.5250 C   0  0  0  0  0  3  0  0  0  0  0  0
  -24.8650  -27.7120   19.5200 C   0  0  0  0  0  3  0  0  0  0  0  0
  -23.6480  -29.8500   20.2130 C   0  0  0  0  0  2  0  0  0  0  0  0
  -24.6940  -31.0940   22.1460 N   0  0  0  0  0  0  0  0  0  0  0  0
  -23.5350  -32.1970   23.7650 O   0  0  0  0  0  0  0  0  0  0  0  0
  -22.7420  -29.5120   22.5500 C   0  0  0  0  0  0  0  0  0  0  0  0
  -21.4150  -29.3430   22.4190 N   0  0  0  0  0  0  0  0  0  0  0  0
  -23.4100  -28.8820   23.3750 O   0  0  0  0  0  0  0  0  0  0  0  0
  -20.9330  -29.9010   21.7270 H   0  0  0  0  0  0  0  0  0  0  0  0
  -18.0280  -28.1580   22.9140 C   0  0  0  0  0  0  0  0  0  0  0  0
  -20.5880  -28.4090   23.1860 C   0  0  0  0  0  3  0  0  0  0  0  0
  -20.6850  -26.9770   22.6100 C   0  0  0  0  0  2  0  0  0  0  0  0
  -19.5840  -26.6590   21.5930 C   0  0  0  0  0  2  0  0  0  0  0  0
  -18.2010  -26.8080   22.2350 C   0  0  0  0  0  2  0  0  0  0  0  0
  -19.1490  -28.9150   23.3460 C   0  0  0  0  0  0  0  0  0  0  0  0
  -18.9330  -30.1760   23.9430 C   0  0  0  0  0  3  0  0  0  0  0  0
  -17.6300  -30.6810   24.1100 C   0  0  0  0  0  3  0  0  0  0  0  0
  -16.5240  -29.9220   23.6920 C   0  0  0  0  0  3  0  0  0  0  0  0
  -16.7240  -28.6610   23.0990 C   0  0  0  0  0  3  0  0  0  0  0  0
  -25.9020  -32.5410   23.8700 C   0  0  0  0  0  3  0  0  0  0  0  0
  -25.5900  -33.9390   24.2080 N   0  0  0  0  0  0  0  0  0  0  0  0
  -25.9030  -34.9970   23.4480 C   0  0  0  0  0  0  0  0  0  0  0  0
  -26.5510  -34.8990   22.4040 O   0  0  0  0  0  0  0  0  0  0  0  0
  -25.0090  -34.0880   25.0210 H   0  0  0  0  0  0  0  0  0  0  0  0
  -24.1530  -36.7820   23.1540 C   0  0  0  0  0  1  0  0  0  0  0  0
  -25.4230  -36.3840   23.9220 C   0  0  0  0  0  3  0  0  0  0  0  0
  -27.5730  -37.2910   24.6890 C   0  0  0  0  0  1  0  0  0  0  0  0
  -26.4470  -37.4410   23.7700 N   0  0  0  0  0  0  0  0  0  0  0  0
  -26.0410  -38.3620   23.9130 H   0  0  0  0  0  0  0  0  0  0  0  0
  -26.4100  -31.7640   25.1460 C   0  0  1  0  0  0  0  0  0  0  0  0
  -25.3110  -31.5260   26.2080 C   0  0  0  0  0  1  0  0  0  0  0  0
  -26.9930  -30.3860   24.7580 C   0  0  0  0  0  1  0  0  0  0  0  0
  -27.5590  -32.5540   25.8160 C   0  0  0  0  0  1  0  0  0  0  0  0
  1  3  2  0
  1  4  1  0
  2  5  1  0
  2  1  1  0
  5  4  1  0
  6  2  2  0
  8  9  2  0
  9 20  1  0
  9  7  1  0
 10  5  1  0
 10  7  2  0
 11  8  1  0
 11 10  1  0
 12 20  1  0
 13 18  1  0
 14 15  1  0
 14 13  1  0
 16 15  1  0
 16 25  1  0
 16 17  1  0
 18 12  1  0
 18 17  1  0
 19 12  2  0
 20 21  1  0
 22 23  2  0
 23 42  1  0
 24 23  1  0
 24 27  1  0
 25 26  1  0
 25 22  1  0
 26 24  2  0
 27 28  1  0
 28 29  2  0
 30 33  1  0
 30 29  1  0
 31 30  2  0
 32 31  1  0
 32 27  2  0
 33 34  1  0
 34 35  1  0
 35 36  2  0
 37 36  1  0
 37 41  1  0
 38 37  2  0
 39 34  2  0
 39 38  1  0
 40 39  1  0
 42 43  1  0
 43 46  1  0
 43 45  1  0
 44 42  2  0
 47 48  1  0
 47 22  1  0
 49 47  1  0
 50  3  1  0
 51 62  2  0
 52 50  1  0
 52 57  1  0
 53 61  1  0
 53 63  1  0
 54 60  1  0
 54 56  1  0
 55 61  1  0
 56 57  2  0
 56 55  1  0
 58 52  2  0
 59 58  1  0
 59 54  2  0
 60 53  1  0
 61 51  1  0
 63 65  2  0
 64 63  1  0
 66 64  1  0
 67 76  2  0
 67 72  1  0
 68 64  1  0
 68 72  1  0
 69 68  1  0
 70 71  1  0
 70 69  1  0
 71 67  1  0
 72 73  2  0
 73 74  1  0
 75 74  2  0
 76 75  1  0
 77 51  1  0
 77 78  1  0
 77 87  1  0
 78 81  1  0
 79 83  1  0
 79 78  1  0
 80 79  2  0
 83 82  1  0
 85 86  1  0
 85 83  1  0
 85 84  1  0
 87 90  1  1
 87 88  1  0
 89 87  1  0
M  ISO  4   3 101  12 100  20 100  50 101
M  END
>  <TORSDO>  (32) 
F 17

>  <SCORE>  (32) 
-15.125

>  <name>  (32) 
31

>  <ligand_id>  (32) 
31

>  <original_smiles>  (32) 
[H]C(Oc1c([H])c([H])c2c(c1[H])C([H])([H])N(C(=O)C([H])(N([H])C(=O)C([H])(N([H])C([H])([H])[H])C([H])([H])[H])C(C([H])([H])[H])(C([H])([H])[H])C([H])([H])[H])C([H])(C(=O)N([H])C1([H])c3c([H])c([H])c([H])c([H])c3C([H])([H])C([H])([H])C1([H])[H])C2([H])[H])=C1C(=O)N(c2sc([H])c(N([H])C(=O)N3C([H])([H])C([H])([H])C([H])([H])C([H])(n4nc(-c5c([H])c([H])c(Oc6c([H])c([H])c(F)c([H])c6F)c([H])c5[H])c(C(=O)N([H])[H])c4N([H])[H])C3([H])[H])c2[H])C1([H])[H]

>  <smiles>  (32) 
[H]C(Oc1c([H])c([H])c2c(c1[H])C([H])([H])N(C(=O)C([H])(N([H])C(=O)C([H])(N([H])C([H])([H])[H])C([H])([H])[H])C(C([H])([H])[H])(C([H])([H])[H])C([H])([H])[H])C([H])(C(=O)N([H])C1([H])c3c([H])c([H])c([H])c([H])c3C([H])([H])C([H])([H])C1([H])[H])C2([H])[H])=C1C(=O)N(c2sc([H])c(N([H])C(=O)N3C([H])([H])C([H])([H])C([H])([H])C([H])(n4nc(-c5c([H])c([H])c(Oc6c([H])c([H])c(F)c([H])c6F)c([H])c5[H])c(C(=O)N([H])[H])c4N([H])[H])C3([H])[H])c2[H])C1([H])[H]

$$$$
32:0:0
     RDKit          3D

 94102  0  0  1  0  0  0  0  0999 V2000
  -30.1320  -22.0330   20.4360 N   0  0  0  0  0  0  0  0  0  0  0  0
  -31.0800  -22.4130   20.3890 H   0  0  0  0  0  0  0  0  0  0  0  0
  -27.7520  -22.7590   19.7520 O   0  0  0  0  0  0  0  0  0  0  0  0
  -29.7420  -24.0270   18.8060 O   0  0  0  0  0  0  0  0  0  0  0  0
  -29.0890  -23.3460   19.9350 S   0  0  2  0  0  0  0  0  0  0  0  0
  -28.6790  -25.8630   21.2790 C   0  0  0  0  0  3  0  0  0  0  0  0
  -28.9540  -24.5320   21.3250 C   0  0  0  0  0  3  0  0  0  0  0  0
  -28.4230  -26.6400   20.1710 O   0  0  0  0  0  0  0  0  0  0  0  0
  -24.6060  -31.9010   23.2460 C   0  0  0  0  0  0  0  0  0  0  0  0
  -27.2860  -27.4280   20.2110 C   0  0  0  0  0  0  0  0  0  0  0  0
  -23.4140  -30.4880   21.6050 C   0  0  0  0  0  3  0  0  0  0  0  0
  -24.8890  -28.9450   20.1950 C   0  0  0  0  0  0  0  0  0  0  0  0
  -25.9440  -30.8470   21.4240 C   0  0  0  0  0  2  0  0  0  0  0  0
  -26.0420  -29.4700   20.7950 C   0  0  0  0  0  0  0  0  0  0  0  0
  -27.2470  -28.7190   20.8000 C   0  0  0  0  0  3  0  0  0  0  0  0
  -26.1160  -26.9260   19.6090 C   0  0  0  0  0  3  0  0  0  0  0  0
  -24.9240  -27.6750   19.5930 C   0  0  0  0  0  3  0  0  0  0  0  0
  -23.6370  -29.7990   20.2300 C   0  0  0  0  0  2  0  0  0  0  0  0
  -24.6710  -31.0930   22.1490 N   0  0  0  0  0  0  0  0  0  0  0  0
  -23.5200  -32.1770   23.7770 O   0  0  0  0  0  0  0  0  0  0  0  0
  -22.7610  -29.4730   22.5690 C   0  0  0  0  0  0  0  0  0  0  0  0
  -21.4370  -29.2910   22.4390 N   0  0  0  0  0  0  0  0  0  0  0  0
  -23.4420  -28.8450   23.3840 O   0  0  0  0  0  0  0  0  0  0  0  0
  -20.9470  -29.8490   21.7530 H   0  0  0  0  0  0  0  0  0  0  0  0
  -18.0580  -28.1050   22.9430 C   0  0  0  0  0  0  0  0  0  0  0  0
  -20.6170  -28.3570   23.2110 C   0  0  0  0  0  3  0  0  0  0  0  0
  -20.7150  -26.9250   22.6390 C   0  0  0  0  0  2  0  0  0  0  0  0
  -19.6130  -26.6040   21.6230 C   0  0  0  0  0  2  0  0  0  0  0  0
  -18.2310  -26.7540   22.2660 C   0  0  0  0  0  2  0  0  0  0  0  0
  -19.1800  -28.8640   23.3730 C   0  0  0  0  0  0  0  0  0  0  0  0
  -18.9640  -30.1260   23.9660 C   0  0  0  0  0  3  0  0  0  0  0  0
  -17.6610  -30.6340   24.1250 C   0  0  0  0  0  3  0  0  0  0  0  0
  -16.5540  -29.8740   23.7120 C   0  0  0  0  0  3  0  0  0  0  0  0
  -16.7540  -28.6080   23.1310 C   0  0  0  0  0  3  0  0  0  0  0  0
  -25.8850  -32.5390   23.8710 C   0  0  0  0  0  3  0  0  0  0  0  0
  -26.4040  -31.7700   25.1480 C   0  0  1  0  0  0  0  0  0  0  0  0
  -25.3130  -31.5210   26.2140 C   0  0  0  0  0  1  0  0  0  0  0  0
  -26.9950  -30.3990   24.7510 C   0  0  0  0  0  1  0  0  0  0  0  0
  -27.5510  -32.5680   25.8130 C   0  0  0  0  0  1  0  0  0  0  0  0
  -25.5720  -33.9370   24.2010 N   0  0  0  0  0  0  0  0  0  0  0  0
  -25.8980  -34.9850   23.4390 C   0  0  0  0  0  0  0  0  0  0  0  0
  -26.5650  -34.8810   22.4050 O   0  0  0  0  0  0  0  0  0  0  0  0
  -24.9860  -34.0920   25.0080 H   0  0  0  0  0  0  0  0  0  0  0  0
  -24.1620  -36.7650   23.0780 C   0  0  0  0  0  1  0  0  0  0  0  0
  -25.4060  -36.3750   23.8910 C   0  0  0  0  0  3  0  0  0  0  0  0
  -27.5380  -37.2720   24.7170 C   0  0  0  0  0  1  0  0  0  0  0  0
  -26.4360  -37.4300   23.7720 N   0  0  0  0  0  0  0  0  0  0  0  0
  -26.0270  -38.3500   23.9190 H   0  0  0  0  0  0  0  0  0  0  0  0
  -31.0650  -20.8090   18.5050 C   0  0  0  0  0  1  0  0  0  0  0  0
  -30.1080  -20.7260   19.7100 C   0  0  0  0  0  3  0  0  0  0  0  0
  -31.1060  -18.4420   22.6910 C   0  0  0  0  0  3  0  0  0  0  0  0
  -30.8710  -19.5860   21.8980 C   0  0  0  0  0  3  0  0  0  0  0  0
  -30.8570  -17.1510   22.1840 C   0  0  0  0  0  3  0  0  0  0  0  0
  -30.1460  -18.1420   20.0750 C   0  0  0  0  0  3  0  0  0  0  0  0
  -30.3840  -19.4620   20.5770 C   0  0  0  0  0  0  0  0  0  0  0  0
  -30.3880  -16.9780   20.8660 C   0  0  0  0  0  0  0  0  0  0  0  0
  -30.7780  -14.5840   20.1550 C   0  0  0  0  0  0  0  0  0  0  0  0
  -30.4510  -12.4010   19.0260 C   0  0  0  0  0  2  0  0  0  0  0  0
  -29.4600  -12.5840   17.8550 C   0  0  0  0  0  2  0  0  0  0  0  0
  -28.0030  -12.4450   18.3440 C   0  0  0  0  0  2  0  0  0  0  0  0
  -27.7110  -13.2870   19.6140 C   0  0  0  0  0  3  0  0  0  0  0  0
  -28.8130  -13.0880   20.6800 C   0  0  0  0  0  2  0  0  0  0  0  0
  -30.1050  -13.4010   20.0480 N   0  0  0  0  0  0  0  0  0  0  0  0
  -31.9380  -14.7240   19.7630 O   0  0  0  0  0  0  0  0  0  0  0  0
  -30.0000  -15.6580   20.4470 N   0  0  0  0  0  0  0  0  0  0  0  0
  -29.0220  -15.4440   20.5640 H   0  0  0  0  0  0  0  0  0  0  0  0
  -25.3510  -13.9120   20.4250 C   0  0  0  0  0  0  0  0  0  0  0  0
  -24.2900  -13.1490   20.8260 C   0  0  0  0  0  0  0  0  0  0  0  0
  -24.7360  -11.7910   20.7690 C   0  0  0  0  0  0  0  0  0  0  0  0
  -26.3770  -13.0210   20.1480 N   0  0  0  0  0  0  0  0  0  0  0  0
  -26.0150  -11.7410   20.4140 N   0  0  0  0  0  0  0  0  0  0  0  0
  -24.0030  -10.5370   20.9760 C   0  0  0  0  0  0  0  0  0  0  0  0
  -24.4510   -9.5610   21.8940 C   0  0  0  0  0  3  0  0  0  0  0  0
  -23.7210   -8.3700   22.0870 C   0  0  0  0  0  3  0  0  0  0  0  0
  -22.5260   -8.1440   21.3630 C   0  0  0  0  0  0  0  0  0  0  0  0
  -22.0960   -9.1080   20.4330 C   0  0  0  0  0  3  0  0  0  0  0  0
  -22.8270  -10.2910   20.2380 C   0  0  0  0  0  3  0  0  0  0  0  0
  -21.7640   -7.0060   21.4670 O   0  0  0  0  0  0  0  0  0  0  0  0
  -21.7300   -6.2660   22.6220 C   0  0  0  0  0  0  0  0  0  0  0  0
  -21.3170   -6.8230   23.8510 C   0  0  0  0  0  3  0  0  0  0  0  0
  -21.2290   -6.0090   24.9980 C   0  0  0  0  0  3  0  0  0  0  0  0
  -21.5430   -4.6400   24.9170 C   0  0  0  0  0  0  0  0  0  0  0  0
  -21.9470   -4.0820   23.6920 C   0  0  0  0  0  3  0  0  0  0  0  0
  -22.0380   -4.8930   22.5470 C   0  0  0  0  0  0  0  0  0  0  0  0
  -22.4070   -4.3450   21.3640 F   0  0  0  0  0  0  0  0  0  0  0  0
  -21.4520   -3.8570   26.0170 F   0  0  0  0  0  0  0  0  0  0  0  0
  -22.9070  -13.6390   21.1480 C   0  0  0  0  0  0  0  0  0  0  0  0
  -22.2000  -12.9440   22.0310 N   0  0  0  0  0  0  0  0  0  0  0  0
  -22.4630  -14.6730   20.6520 O   0  0  0  0  0  0  0  0  0  0  0  0
  -22.5720  -12.1070   22.4560 H   0  0  0  0  0  0  0  0  0  0  0  0
  -21.2750  -13.2530   22.2880 H   0  0  0  0  0  0  0  0  0  0  0  0
  -25.5220  -15.2820   20.2520 N   0  0  0  0  0  0  0  0  0  0  0  0
  -24.7590  -15.9360   20.3890 H   0  0  0  0  0  0  0  0  0  0  0  0
  -26.3570  -15.7240   19.8850 H   0  0  0  0  0  0  0  0  0  0  0  0
  2  1  1  0
  3  5  2  0
  4  5  2  0
  5  1  1  1
  5  7  1  0
  6  7  2  0
  8 10  1  0
  8  6  1  0
  9 20  2  0
 10 15  1  0
 11 19  1  0
 11 21  1  0
 12 18  1  0
 12 14  1  0
 13 19  1  0
 14 15  2  0
 14 13  1  0
 16 10  2  0
 17 16  1  0
 17 12  2  0
 18 11  1  0
 19  9  1  0
 21 23  2  0
 22 21  1  0
 24 22  1  0
 25 34  2  0
 25 30  1  0
 26 22  1  0
 26 30  1  0
 27 26  1  0
 28 29  1  0
 28 27  1  0
 29 25  1  0
 30 31  2  0
 31 32  1  0
 33 32  2  0
 34 33  1  0
 35  9  1  0
 35 40  1  0
 35 36  1  0
 36 39  1  1
 36 37  1  0
 38 36  1  0
 40 43  1  0
 41 45  1  0
 41 40  1  0
 42 41  2  0
 45 44  1  0
 47 45  1  0
 47 48  1  0
 47 46  1  0
 50 49  1  0
 50  1  1  0
 50 55  1  0
 52 51  2  0
 53 51  1  0
 54 55  2  0
 54 56  1  0
 55 52  1  0
 56 53  2  0
 57 65  1  0
 58 63  1  0
 59 60  1  0
 59 58  1  0
 61 60  1  0
 61 70  1  0
 61 62  1  0
 63 57  1  0
 63 62  1  0
 64 57  2  0
 65 66  1  0
 65 56  1  0
 67 68  2  0
 68 87  1  0
 69 68  1  0
 69 72  1  0
 70 71  1  0
 70 67  1  0
 71 69  2  0
 72 73  1  0
 73 74  2  0
 75 78  1  0
 75 74  1  0
 76 75  2  0
 77 76  1  0
 77 72  2  0
 78 79  1  0
 79 80  1  0
 80 81  2  0
 82 81  1  0
 82 86  1  0
 83 82  2  0
 84 79  2  0
 84 83  1  0
 85 84  1  0
 87 88  1  0
 88 91  1  0
 88 90  1  0
 89 87  2  0
 92 93  1  0
 92 67  1  0
 94 92  1  0
M  ISO  4   6 101   8 101  57 100  65 100
M  END
>  <TORSDO>  (33) 
F 20

>  <SCORE>  (33) 
-13.800

>  <name>  (33) 
32

>  <ligand_id>  (33) 
32

>  <original_smiles>  (33) 
[H]C(Oc1c([H])c([H])c2c(c1[H])C([H])([H])N(C(=O)C([H])(N([H])C(=O)C([H])(N([H])C([H])([H])[H])C([H])([H])[H])C(C([H])([H])[H])(C([H])([H])[H])C([H])([H])[H])C([H])(C(=O)N([H])C1([H])c3c([H])c([H])c([H])c([H])c3C([H])([H])C([H])([H])C1([H])[H])C2([H])[H])=C([H])S(=O)(=O)N([H])C([H])(c1c([H])c([H])c([H])c(N([H])C(=O)N2C([H])([H])C([H])([H])C([H])([H])C([H])(n3nc(-c4c([H])c([H])c(Oc5c([H])c([H])c(F)c([H])c5F)c([H])c4[H])c(C(=O)N([H])[H])c3N([H])[H])C2([H])[H])c1[H])C([H])([H])[H]

>  <smiles>  (33) 
[H]C(Oc1c([H])c([H])c2c(c1[H])C([H])([H])N(C(=O)C([H])(N([H])C(=O)C([H])(N([H])C([H])([H])[H])C([H])([H])[H])C(C([H])([H])[H])(C([H])([H])[H])C([H])([H])[H])C([H])(C(=O)N([H])C1([H])c3c([H])c([H])c([H])c([H])c3C([H])([H])C([H])([H])C1([H])[H])C2([H])[H])=C([H])S(=O)(=O)N([H])C([H])(c1c([H])c([H])c([H])c(N([H])C(=O)N2C([H])([H])C([H])([H])C([H])([H])C([H])(n3nc(-c4c([H])c([H])c(Oc5c([H])c([H])c(F)c([H])c5F)c([H])c4[H])c(C(=O)N([H])[H])c3N([H])[H])C2([H])[H])c1[H])C([H])([H])[H]

$$$$
33:0:0
     RDKit          3D

 92101  0  0  1  0  0  0  0  0999 V2000
  -28.5250  -23.6620   20.3990 C   0  0  0  0  0  0  0  0  0  0  0  0
  -28.1030  -22.3290   20.8960 C   0  0  0  0  0  0  0  0  0  0  0  0
  -27.9510  -24.9400   20.5920 C   0  0  0  0  0  3  0  0  0  0  0  0
  -29.7120  -22.9490   19.6980 C   0  0  0  0  0  2  0  0  0  0  0  0
  -29.1740  -21.6510   20.2430 N   0  0  0  0  0  0  0  0  0  0  0  0
  -27.1740  -22.0120   21.6090 O   0  0  0  0  0  0  0  0  0  0  0  0
  -29.4620  -18.8750   20.4120 C   0  0  0  0  0  3  0  0  0  0  0  0
  -30.9930  -20.3030   19.2480 C   0  0  0  0  0  3  0  0  0  0  0  0
  -31.3710  -17.8800   19.2910 C   0  0  0  0  0  3  0  0  0  0  0  0
  -29.8030  -20.2730   20.0170 C   0  0  0  0  0  0  0  0  0  0  0  0
  -30.2270  -17.6380   20.0830 C   0  0  0  0  0  0  0  0  0  0  0  0
  -31.7440  -19.1690   18.8900 C   0  0  0  0  0  0  0  0  0  0  0  0
  -32.8550  -19.3270   18.1310 F   0  0  0  0  0  0  0  0  0  0  0  0
  -30.6460  -14.9810   20.2800 C   0  0  0  0  0  0  0  0  0  0  0  0
  -30.4650  -12.6560   19.3340 C   0  0  0  0  0  2  0  0  0  0  0  0
  -29.5290  -12.6620   18.1050 C   0  0  0  0  0  2  0  0  0  0  0  0
  -28.0650  -12.4690   18.5420 C   0  0  0  0  0  2  0  0  0  0  0  0
  -27.6760  -13.3740   19.7430 C   0  0  0  0  0  3  0  0  0  0  0  0
  -28.7410  -13.3590   20.8610 C   0  0  0  0  0  2  0  0  0  0  0  0
  -30.0160  -13.7450   20.2450 N   0  0  0  0  0  0  0  0  0  0  0  0
  -31.8490  -14.9990   20.0090 O   0  0  0  0  0  0  0  0  0  0  0  0
  -29.9070  -16.1840   20.4360 N   0  0  0  0  0  0  0  0  0  0  0  0
  -28.9640  -16.0290   20.7590 H   0  0  0  0  0  0  0  0  0  0  0  0
  -25.2990  -13.9380   20.5080 C   0  0  0  0  0  0  0  0  0  0  0  0
  -24.2400  -13.1550   20.8780 C   0  0  0  0  0  0  0  0  0  0  0  0
  -24.7090  -11.8060   20.8290 C   0  0  0  0  0  0  0  0  0  0  0  0
  -26.3430  -13.0660   20.2490 N   0  0  0  0  0  0  0  0  0  0  0  0
  -25.9980  -11.7780   20.5090 N   0  0  0  0  0  0  0  0  0  0  0  0
  -23.9880  -10.5400   21.0100 C   0  0  0  0  0  0  0  0  0  0  0  0
  -24.4030   -9.5800   21.9590 C   0  0  0  0  0  3  0  0  0  0  0  0
  -23.6800   -8.3790   22.1290 C   0  0  0  0  0  3  0  0  0  0  0  0
  -22.5250   -8.1300   21.3480 C   0  0  0  0  0  0  0  0  0  0  0  0
  -22.1300   -9.0790   20.3890 C   0  0  0  0  0  3  0  0  0  0  0  0
  -22.8540  -10.2710   20.2180 C   0  0  0  0  0  3  0  0  0  0  0  0
  -21.7750   -6.9830   21.4270 O   0  0  0  0  0  0  0  0  0  0  0  0
  -21.6760   -6.2650   22.5910 C   0  0  0  0  0  0  0  0  0  0  0  0
  -21.1570   -6.8340   23.7760 C   0  0  0  0  0  3  0  0  0  0  0  0
  -21.0080   -6.0420   24.9310 C   0  0  0  0  0  3  0  0  0  0  0  0
  -21.3660   -4.6810   24.9040 C   0  0  0  0  0  0  0  0  0  0  0  0
  -21.8770   -4.1110   23.7240 C   0  0  0  0  0  3  0  0  0  0  0  0
  -22.0290   -4.9010   22.5710 C   0  0  0  0  0  0  0  0  0  0  0  0
  -22.5010   -4.3410   21.4320 F   0  0  0  0  0  0  0  0  0  0  0  0
  -21.2160   -3.9170   26.0110 F   0  0  0  0  0  0  0  0  0  0  0  0
  -22.8440  -13.6250   21.1610 C   0  0  0  0  0  0  0  0  0  0  0  0
  -22.1220  -12.9150   22.0220 N   0  0  0  0  0  0  0  0  0  0  0  0
  -22.4010  -14.6550   20.6560 O   0  0  0  0  0  0  0  0  0  0  0  0
  -22.4940  -12.0820   22.4530 H   0  0  0  0  0  0  0  0  0  0  0  0
  -21.1850  -13.2110   22.2550 H   0  0  0  0  0  0  0  0  0  0  0  0
  -25.4540  -15.3120   20.3430 N   0  0  0  0  0  0  0  0  0  0  0  0
  -24.6830  -15.9580   20.4760 H   0  0  0  0  0  0  0  0  0  0  0  0
  -26.2880  -15.7610   19.9890 H   0  0  0  0  0  0  0  0  0  0  0  0
  -28.2670  -26.3010   20.1920 O   0  0  0  0  0  0  0  0  0  0  0  0
  -24.6060  -31.9080   23.2230 C   0  0  0  0  0  0  0  0  0  0  0  0
  -27.2200  -27.2740   20.1610 C   0  0  0  0  0  0  0  0  0  0  0  0
  -23.4130  -30.5100   21.5800 C   0  0  0  0  0  3  0  0  0  0  0  0
  -24.8730  -28.9640   20.1420 C   0  0  0  0  0  0  0  0  0  0  0  0
  -25.9610  -30.8110   21.4080 C   0  0  0  0  0  2  0  0  0  0  0  0
  -26.0460  -29.4260   20.7530 C   0  0  0  0  0  0  0  0  0  0  0  0
  -27.2240  -28.5950   20.7510 C   0  0  0  0  0  3  0  0  0  0  0  0
  -26.0250  -26.9060   19.5060 C   0  0  0  0  0  3  0  0  0  0  0  0
  -24.8710  -27.7140   19.5060 C   0  0  0  0  0  3  0  0  0  0  0  0
  -23.6370  -29.8450   20.1960 C   0  0  0  0  0  2  0  0  0  0  0  0
  -24.6800  -31.0970   22.1250 N   0  0  0  0  0  0  0  0  0  0  0  0
  -23.5200  -32.1790   23.7560 O   0  0  0  0  0  0  0  0  0  0  0  0
  -22.7500  -29.4890   22.5370 C   0  0  0  0  0  0  0  0  0  0  0  0
  -21.4230  -29.3060   22.4130 N   0  0  0  0  0  0  0  0  0  0  0  0
  -23.4300  -28.8630   23.3550 O   0  0  0  0  0  0  0  0  0  0  0  0
  -20.9310  -29.8630   21.7290 H   0  0  0  0  0  0  0  0  0  0  0  0
  -18.0520  -28.0840   22.9210 C   0  0  0  0  0  0  0  0  0  0  0  0
  -20.6100  -28.3600   23.1810 C   0  0  0  0  0  3  0  0  0  0  0  0
  -20.7180  -26.9310   22.5990 C   0  0  0  0  0  2  0  0  0  0  0  0
  -19.6150  -26.6060   21.5870 C   0  0  0  0  0  2  0  0  0  0  0  0
  -18.2340  -26.7400   22.2370 C   0  0  0  0  0  2  0  0  0  0  0  0
  -19.1670  -28.8510   23.3500 C   0  0  0  0  0  0  0  0  0  0  0  0
  -18.9410  -30.1090   23.9520 C   0  0  0  0  0  3  0  0  0  0  0  0
  -17.6340  -30.5990   24.1280 C   0  0  0  0  0  3  0  0  0  0  0  0
  -16.5330  -29.8290   23.7130 C   0  0  0  0  0  3  0  0  0  0  0  0
  -16.7440  -28.5740   23.1160 C   0  0  0  0  0  3  0  0  0  0  0  0
  -25.8820  -32.5500   23.8490 C   0  0  0  0  0  3  0  0  0  0  0  0
  -25.5610  -33.9470   24.1820 N   0  0  0  0  0  0  0  0  0  0  0  0
  -25.8790  -35.0050   23.4240 C   0  0  0  0  0  0  0  0  0  0  0  0
  -26.5390  -34.9090   22.3870 O   0  0  0  0  0  0  0  0  0  0  0  0
  -24.9720  -34.0940   24.9880 H   0  0  0  0  0  0  0  0  0  0  0  0
  -24.1360  -36.7910   23.0930 C   0  0  0  0  0  1  0  0  0  0  0  0
  -25.3870  -36.3890   23.8920 C   0  0  0  0  0  3  0  0  0  0  0  0
  -27.5180  -37.2910   24.7120 C   0  0  0  0  0  1  0  0  0  0  0  0
  -26.4110  -37.4500   23.7740 N   0  0  0  0  0  0  0  0  0  0  0  0
  -25.9990  -38.3660   23.9220 H   0  0  0  0  0  0  0  0  0  0  0  0
  -26.3990  -31.7830   25.1280 C   0  0  1  0  0  0  0  0  0  0  0  0
  -25.3030  -31.5400   26.1930 C   0  0  0  0  0  1  0  0  0  0  0  0
  -26.9910  -30.4080   24.7420 C   0  0  0  0  0  1  0  0  0  0  0  0
  -27.5400  -32.5850   25.7940 C   0  0  0  0  0  1  0  0  0  0  0  0
  1  3  2  0
  1  2  1  0
  2  6  2  0
  4  5  1  0
  4  1  1  0
  5  2  1  0
  8 10  1  0
  9 11  2  0
 10  5  1  0
 10  7  2  0
 11  7  1  0
 11 22  1  0
 12  8  2  0
 12  9  1  0
 13 12  1  0
 14 22  1  0
 15 20  1  0
 16 17  1  0
 16 15  1  0
 18 17  1  0
 18 27  1  0
 18 19  1  0
 20 14  1  0
 20 19  1  0
 21 14  2  0
 22 23  1  0
 24 25  2  0
 25 44  1  0
 26 25  1  0
 26 29  1  0
 27 24  1  0
 27 28  1  0
 28 26  2  0
 29 30  1  0
 30 31  2  0
 32 35  1  0
 32 31  1  0
 33 32  2  0
 34 33  1  0
 34 29  2  0
 35 36  1  0
 36 37  1  0
 37 38  2  0
 39 38  1  0
 39 43  1  0
 40 39  2  0
 41 36  2  0
 41 40  1  0
 42 41  1  0
 44 45  1  0
 45 48  1  0
 45 47  1  0
 46 44  2  0
 49 50  1  0
 49 24  1  0
 51 49  1  0
 52  3  1  0
 53 64  2  0
 54 52  1  0
 54 59  1  0
 55 63  1  0
 55 65  1  0
 56 62  1  0
 56 58  1  0
 57 63  1  0
 58 57  1  0
 59 58  2  0
 60 61  1  0
 60 54  2  0
 61 56  2  0
 62 55  1  0
 63 53  1  0
 65 67  2  0
 66 65  1  0
 68 66  1  0
 69 78  2  0
 69 74  1  0
 70 66  1  0
 70 74  1  0
 71 70  1  0
 72 73  1  0
 72 71  1  0
 73 69  1  0
 74 75  2  0
 75 76  1  0
 77 76  2  0
 78 77  1  0
 79 53  1  0
 79 80  1  0
 79 89  1  0
 80 83  1  0
 81 85  1  0
 81 80  1  0
 82 81  2  0
 85 84  1  0
 87 85  1  0
 87 88  1  0
 87 86  1  0
 89 92  1  1
 89 90  1  0
 91 89  1  0
M  ISO  4   3 101  14 100  22 100  52 101
M  END
>  <TORSDO>  (34) 
F 17

>  <SCORE>  (34) 
-14.984

>  <name>  (34) 
33

>  <ligand_id>  (34) 
33

>  <original_smiles>  (34) 
[H]C(Oc1c([H])c([H])c2c(c1[H])C([H])([H])N(C(=O)C([H])(N([H])C(=O)C([H])(N([H])C([H])([H])[H])C([H])([H])[H])C(C([H])([H])[H])(C([H])([H])[H])C([H])([H])[H])C([H])(C(=O)N([H])C1([H])c3c([H])c([H])c([H])c([H])c3C([H])([H])C([H])([H])C1([H])[H])C2([H])[H])=C1C(=O)N(c2c([H])c(F)c([H])c(N([H])C(=O)N3C([H])([H])C([H])([H])C([H])([H])C([H])(n4nc(-c5c([H])c([H])c(Oc6c([H])c([H])c(F)c([H])c6F)c([H])c5[H])c(C(=O)N([H])[H])c4N([H])[H])C3([H])[H])c2[H])C1([H])[H]

>  <smiles>  (34) 
[H]C(Oc1c([H])c([H])c2c(c1[H])C([H])([H])N(C(=O)C([H])(N([H])C(=O)C([H])(N([H])C([H])([H])[H])C([H])([H])[H])C(C([H])([H])[H])(C([H])([H])[H])C([H])([H])[H])C([H])(C(=O)N([H])C1([H])c3c([H])c([H])c([H])c([H])c3C([H])([H])C([H])([H])C1([H])[H])C2([H])[H])=C1C(=O)N(c2c([H])c(F)c([H])c(N([H])C(=O)N3C([H])([H])C([H])([H])C([H])([H])C([H])(n4nc(-c5c([H])c([H])c(Oc6c([H])c([H])c(F)c([H])c6F)c([H])c5[H])c(C(=O)N([H])[H])c4N([H])[H])C3([H])[H])c2[H])C1([H])[H]

$$$$
34:0:0
     RDKit          3D

 93102  0  0  1  0  0  0  0  0999 V2000
  -28.7790  -23.7000   20.3410 C   0  0  0  0  0  0  0  0  0  0  0  0
  -30.1240  -23.5560   20.8310 C   0  0  0  0  0  0  0  0  0  0  0  0
  -28.3550  -22.2790   20.0670 C   0  0  0  0  0  0  0  0  0  0  0  0
  -30.9320  -24.5710   21.1810 C   0  0  0  0  0  1  0  0  0  0  0  0
  -27.9940  -24.8440   20.1220 C   0  0  0  0  0  2  0  0  0  0  0  0
  -30.5070  -22.0790   20.9070 C   0  0  0  0  0  2  0  0  0  0  0  0
  -29.3470  -21.3450   20.3770 N   0  0  0  0  0  0  0  0  0  0  0  0
  -27.2490  -21.9500   19.6260 O   0  0  0  0  0  0  0  0  0  0  0  0
  -29.8500  -18.5620   17.8440 C   0  0  0  0  0  3  0  0  0  0  0  0
  -29.6130  -19.8050   18.4660 C   0  0  0  0  0  3  0  0  0  0  0  0
  -29.9770  -17.3720   18.5890 C   0  0  0  0  0  3  0  0  0  0  0  0
  -29.6240  -18.6730   20.6220 C   0  0  0  0  0  3  0  0  0  0  0  0
  -29.4950  -19.9320   19.8680 C   0  0  0  0  0  0  0  0  0  0  0  0
  -29.8610  -17.3590   19.9980 C   0  0  0  0  0  0  0  0  0  0  0  0
  -30.5960  -14.8540   20.3380 C   0  0  0  0  0  0  0  0  0  0  0  0
  -30.4140  -12.5490   19.3790 C   0  0  0  0  0  2  0  0  0  0  0  0
  -29.4910  -12.5980   18.1400 C   0  0  0  0  0  2  0  0  0  0  0  0
  -28.0180  -12.4250   18.5530 C   0  0  0  0  0  2  0  0  0  0  0  0
  -27.6300  -13.3210   19.7580 C   0  0  0  0  0  3  0  0  0  0  0  0
  -28.6750  -13.2600   20.8940 C   0  0  0  0  0  2  0  0  0  0  0  0
  -29.9770  -13.6170   20.3170 N   0  0  0  0  0  0  0  0  0  0  0  0
  -31.7670  -14.9380   19.9580 O   0  0  0  0  0  0  0  0  0  0  0  0
  -29.8730  -16.0090   20.6600 N   0  0  0  0  0  0  0  0  0  0  0  0
  -29.0590  -15.8270   21.2300 H   0  0  0  0  0  0  0  0  0  0  0  0
  -25.2330  -13.9100   20.4490 C   0  0  0  0  0  0  0  0  0  0  0  0
  -24.1640  -13.1380   20.8150 C   0  0  0  0  0  0  0  0  0  0  0  0
  -24.6290  -11.7870   20.8050 C   0  0  0  0  0  0  0  0  0  0  0  0
  -26.2810  -13.0300   20.2350 N   0  0  0  0  0  0  0  0  0  0  0  0
  -25.9240  -11.7500   20.5110 N   0  0  0  0  0  0  0  0  0  0  0  0
  -23.8990  -10.5260   20.9990 C   0  0  0  0  0  0  0  0  0  0  0  0
  -24.3260   -9.5650   21.9420 C   0  0  0  0  0  3  0  0  0  0  0  0
  -23.5990   -8.3680   22.1250 C   0  0  0  0  0  3  0  0  0  0  0  0
  -22.4300   -8.1250   21.3650 C   0  0  0  0  0  0  0  0  0  0  0  0
  -22.0220   -9.0750   20.4110 C   0  0  0  0  0  3  0  0  0  0  0  0
  -22.7500  -10.2620   20.2260 C   0  0  0  0  0  3  0  0  0  0  0  0
  -21.6720   -6.9820   21.4600 O   0  0  0  0  0  0  0  0  0  0  0  0
  -21.6200   -6.2450   22.6150 C   0  0  0  0  0  0  0  0  0  0  0  0
  -21.1940   -6.8080   23.8390 C   0  0  0  0  0  3  0  0  0  0  0  0
  -21.0870   -5.9990   24.9870 C   0  0  0  0  0  3  0  0  0  0  0  0
  -21.3980   -4.6270   24.9140 C   0  0  0  0  0  0  0  0  0  0  0  0
  -21.8150   -4.0630   23.6960 C   0  0  0  0  0  3  0  0  0  0  0  0
  -21.9230   -4.8700   22.5500 C   0  0  0  0  0  0  0  0  0  0  0  0
  -22.3060   -4.3160   21.3740 F   0  0  0  0  0  0  0  0  0  0  0  0
  -21.2880   -3.8480   26.0150 F   0  0  0  0  0  0  0  0  0  0  0  0
  -22.7620  -13.6150   21.0620 C   0  0  0  0  0  0  0  0  0  0  0  0
  -22.0230  -12.9300   21.9270 N   0  0  0  0  0  0  0  0  0  0  0  0
  -22.3320  -14.6350   20.5250 O   0  0  0  0  0  0  0  0  0  0  0  0
  -22.3830  -12.1060   22.3850 H   0  0  0  0  0  0  0  0  0  0  0  0
  -21.0820  -13.2330   22.1320 H   0  0  0  0  0  0  0  0  0  0  0  0
  -25.3970  -15.2780   20.2570 N   0  0  0  0  0  0  0  0  0  0  0  0
  -24.6340  -15.9370   20.3550 H   0  0  0  0  0  0  0  0  0  0  0  0
  -26.2500  -15.7120   19.9240 H   0  0  0  0  0  0  0  0  0  0  0  0
  -28.2390  -26.2730   20.2300 O   0  0  0  0  0  0  0  0  0  0  0  0
  -24.6160  -31.8930   23.2260 C   0  0  0  0  0  0  0  0  0  0  0  0
  -27.1750  -27.2310   20.1620 C   0  0  0  0  0  0  0  0  0  0  0  0
  -23.4010  -30.4990   21.5980 C   0  0  0  0  0  3  0  0  0  0  0  0
  -24.8370  -28.9410   20.1580 C   0  0  0  0  0  0  0  0  0  0  0  0
  -25.9490  -30.7790   21.4100 C   0  0  0  0  0  2  0  0  0  0  0  0
  -26.0170  -29.3910   20.7650 C   0  0  0  0  0  0  0  0  0  0  0  0
  -27.1820  -28.5450   20.7670 C   0  0  0  0  0  3  0  0  0  0  0  0
  -25.9800  -26.8980   19.4780 C   0  0  0  0  0  3  0  0  0  0  0  0
  -24.8260  -27.7030   19.5070 C   0  0  0  0  0  3  0  0  0  0  0  0
  -23.6070  -29.8270   20.2160 C   0  0  0  0  0  2  0  0  0  0  0  0
  -24.6750  -31.0780   22.1320 N   0  0  0  0  0  0  0  0  0  0  0  0
  -23.5360  -32.1730   23.7670 O   0  0  0  0  0  0  0  0  0  0  0  0
  -22.7400  -29.4830   22.5630 C   0  0  0  0  0  0  0  0  0  0  0  0
  -21.4120  -29.3030   22.4460 N   0  0  0  0  0  0  0  0  0  0  0  0
  -23.4210  -28.8580   23.3800 O   0  0  0  0  0  0  0  0  0  0  0  0
  -20.9200  -29.8600   21.7610 H   0  0  0  0  0  0  0  0  0  0  0  0
  -18.0410  -28.0930   22.9660 C   0  0  0  0  0  0  0  0  0  0  0  0
  -20.5990  -28.3660   23.2250 C   0  0  0  0  0  3  0  0  0  0  0  0
  -20.7050  -26.9320   22.6570 C   0  0  0  0  0  2  0  0  0  0  0  0
  -19.6020  -26.5980   21.6480 C   0  0  0  0  0  2  0  0  0  0  0  0
  -18.2220  -26.7410   22.2950 C   0  0  0  0  0  2  0  0  0  0  0  0
  -19.1570  -28.8630   23.3880 C   0  0  0  0  0  0  0  0  0  0  0  0
  -18.9320  -30.1270   23.9740 C   0  0  0  0  0  3  0  0  0  0  0  0
  -17.6250  -30.6220   24.1430 C   0  0  0  0  0  3  0  0  0  0  0  0
  -16.5240  -29.8480   23.7380 C   0  0  0  0  0  3  0  0  0  0  0  0
  -16.7330  -28.5860   23.1550 C   0  0  0  0  0  3  0  0  0  0  0  0
  -25.9020  -32.5280   23.8370 C   0  0  0  0  0  3  0  0  0  0  0  0
  -25.5930  -33.9260   24.1740 N   0  0  0  0  0  0  0  0  0  0  0  0
  -25.9120  -34.9820   23.4160 C   0  0  0  0  0  0  0  0  0  0  0  0
  -26.5670  -34.8840   22.3750 O   0  0  0  0  0  0  0  0  0  0  0  0
  -25.0100  -34.0770   24.9850 H   0  0  0  0  0  0  0  0  0  0  0  0
  -24.1750  -36.7750   23.0960 C   0  0  0  0  0  1  0  0  0  0  0  0
  -25.4280  -36.3680   23.8870 C   0  0  0  0  0  3  0  0  0  0  0  0
  -27.5710  -37.2550   24.6920 C   0  0  0  0  0  1  0  0  0  0  0  0
  -26.4550  -37.4240   23.7660 N   0  0  0  0  0  0  0  0  0  0  0  0
  -26.0480  -38.3420   23.9240 H   0  0  0  0  0  0  0  0  0  0  0  0
  -26.4310  -31.7560   25.1090 C   0  0  1  0  0  0  0  0  0  0  0  0
  -25.3470  -31.5180   26.1870 C   0  0  0  0  0  1  0  0  0  0  0  0
  -27.0100  -30.3780   24.7160 C   0  0  0  0  0  1  0  0  0  0  0  0
  -27.5880  -32.5500   25.7590 C   0  0  0  0  0  1  0  0  0  0  0  0
  1  2  2  0
  2  6  1  0
  2  4  1  0
  3  1  1  0
  3  7  1  0
  5 53  1  0
  5  1  1  0
  7  6  1  0
  8  3  2  0
  9 10  2  0
  9 11  1  0
 10 13  1  0
 11 14  2  0
 13  7  1  0
 13 12  2  0
 14 12  1  0
 14 23  1  0
 15 23  1  0
 16 21  1  0
 17 18  1  0
 17 16  1  0
 19 18  1  0
 19 28  1  0
 19 20  1  0
 21 15  1  0
 21 20  1  0
 22 15  2  0
 23 24  1  0
 25 26  2  0
 26 45  1  0
 27 26  1  0
 27 30  1  0
 28 25  1  0
 28 29  1  0
 29 27  2  0
 30 31  1  0
 31 32  2  0
 33 36  1  0
 33 32  1  0
 34 33  2  0
 35 34  1  0
 35 30  2  0
 36 37  1  0
 37 38  1  0
 38 39  2  0
 40 39  1  0
 40 44  1  0
 41 40  2  0
 42 37  2  0
 42 41  1  0
 43 42  1  0
 45 46  1  0
 46 49  1  0
 46 48  1  0
 47 45  2  0
 50 51  1  0
 50 25  1  0
 52 50  1  0
 54 65  2  0
 55 53  1  0
 55 60  1  0
 56 64  1  0
 56 66  1  0
 57 63  1  0
 57 59  1  0
 58 64  1  0
 59 60  2  0
 59 58  1  0
 61 62  1  0
 61 55  2  0
 62 57  2  0
 63 56  1  0
 64 54  1  0
 66 68  2  0
 67 66  1  0
 69 67  1  0
 70 79  2  0
 70 75  1  0
 71 67  1  0
 71 75  1  0
 72 71  1  0
 73 74  1  0
 73 72  1  0
 74 70  1  0
 75 76  2  0
 76 77  1  0
 78 77  2  0
 79 78  1  0
 80 54  1  0
 80 81  1  0
 80 90  1  0
 81 84  1  0
 82 86  1  0
 82 81  1  0
 83 82  2  0
 86 85  1  0
 88 86  1  0
 88 89  1  0
 88 87  1  0
 90 93  1  1
 90 91  1  0
 92 90  1  0
M  ISO  4   5 101  15 100  23 100  53 101
M  END
>  <TORSDO>  (35) 
F 17

>  <SCORE>  (35) 
-15.234

>  <name>  (35) 
34

>  <ligand_id>  (35) 
34

>  <original_smiles>  (35) 
[H]C([H])=C1C(=C([H])Oc2c([H])c([H])c3c(c2[H])C([H])([H])N(C(=O)C([H])(N([H])C(=O)C([H])(N([H])C([H])([H])[H])C([H])([H])[H])C(C([H])([H])[H])(C([H])([H])[H])C([H])([H])[H])C([H])(C(=O)N([H])C2([H])c4c([H])c([H])c([H])c([H])c4C([H])([H])C([H])([H])C2([H])[H])C3([H])[H])C(=O)N(c2c([H])c([H])c([H])c(N([H])C(=O)N3C([H])([H])C([H])([H])C([H])([H])C([H])(n4nc(-c5c([H])c([H])c(Oc6c([H])c([H])c(F)c([H])c6F)c([H])c5[H])c(C(=O)N([H])[H])c4N([H])[H])C3([H])[H])c2[H])C1([H])[H]

>  <smiles>  (35) 
[H]C([H])=C1C(=C([H])Oc2c([H])c([H])c3c(c2[H])C([H])([H])N(C(=O)C([H])(N([H])C(=O)C([H])(N([H])C([H])([H])[H])C([H])([H])[H])C(C([H])([H])[H])(C([H])([H])[H])C([H])([H])[H])C([H])(C(=O)N([H])C2([H])c4c([H])c([H])c([H])c([H])c4C([H])([H])C([H])([H])C2([H])[H])C3([H])[H])C(=O)N(c2c([H])c([H])c([H])c(N([H])C(=O)N3C([H])([H])C([H])([H])C([H])([H])C([H])(n4nc(-c5c([H])c([H])c(Oc6c([H])c([H])c(F)c([H])c6F)c([H])c5[H])c(C(=O)N([H])[H])c4N([H])[H])C3([H])[H])c2[H])C1([H])[H]

$$$$
35:0:0
     RDKit          3D

 89 97  0  0  1  0  0  0  0  0999 V2000
  -27.1590  -21.6590   20.4980 C   0  0  0  0  0  2  0  0  0  0  0  0
  -28.4650  -21.9470   20.3580 C   0  0  0  0  0  0  0  0  0  0  0  0
  -31.7330  -19.7550   20.1180 C   0  0  0  0  0  3  0  0  0  0  0  0
  -30.7950  -20.8170   20.1730 C   0  0  0  0  0  3  0  0  0  0  0  0
  -31.3780  -18.3870   20.1960 C   0  0  0  0  0  3  0  0  0  0  0  0
  -29.0890  -19.1210   20.3950 C   0  0  0  0  0  3  0  0  0  0  0  0
  -29.4090  -20.6020   20.3140 C   0  0  0  0  0  0  0  0  0  0  0  0
  -30.0420  -17.9510   20.3390 C   0  0  0  0  0  0  0  0  0  0  0  0
  -30.5570  -15.1990   20.2700 C   0  0  0  0  0  0  0  0  0  0  0  0
  -30.4740  -12.8210   19.3360 C   0  0  0  0  0  2  0  0  0  0  0  0
  -29.5280  -12.7270   18.1160 C   0  0  0  0  0  2  0  0  0  0  0  0
  -28.0760  -12.4820   18.5680 C   0  0  0  0  0  2  0  0  0  0  0  0
  -27.6650  -13.4020   19.7460 C   0  0  0  0  0  3  0  0  0  0  0  0
  -28.7340  -13.4610   20.8570 C   0  0  0  0  0  2  0  0  0  0  0  0
  -29.9780  -13.9210   20.2230 N   0  0  0  0  0  0  0  0  0  0  0  0
  -31.7640  -15.2330   19.9970 O   0  0  0  0  0  0  0  0  0  0  0  0
  -29.7710  -16.4080   20.4190 N   0  0  0  0  0  0  0  0  0  0  0  0
  -28.8030  -16.1860   20.5860 H   0  0  0  0  0  0  0  0  0  0  0  0
  -25.2960  -13.9390   20.5420 C   0  0  0  0  0  0  0  0  0  0  0  0
  -24.2460  -13.1480   20.9150 C   0  0  0  0  0  0  0  0  0  0  0  0
  -24.7220  -11.8020   20.8510 C   0  0  0  0  0  0  0  0  0  0  0  0
  -26.3420  -13.0750   20.2660 N   0  0  0  0  0  0  0  0  0  0  0  0
  -26.0090  -11.7840   20.5190 N   0  0  0  0  0  0  0  0  0  0  0  0
  -24.0080  -10.5300   21.0260 C   0  0  0  0  0  0  0  0  0  0  0  0
  -24.4330   -9.5680   21.9700 C   0  0  0  0  0  3  0  0  0  0  0  0
  -23.7160   -8.3620   22.1340 C   0  0  0  0  0  3  0  0  0  0  0  0
  -22.5610   -8.1110   21.3570 C   0  0  0  0  0  0  0  0  0  0  0  0
  -22.1560   -9.0620   20.4040 C   0  0  0  0  0  3  0  0  0  0  0  0
  -22.8730  -10.2580   20.2370 C   0  0  0  0  0  3  0  0  0  0  0  0
  -21.8170   -6.9580   21.4310 O   0  0  0  0  0  0  0  0  0  0  0  0
  -21.7120   -6.2440   22.5980 C   0  0  0  0  0  0  0  0  0  0  0  0
  -21.1680   -6.8090   23.7720 C   0  0  0  0  0  3  0  0  0  0  0  0
  -21.0150   -6.0180   24.9290 C   0  0  0  0  0  3  0  0  0  0  0  0
  -21.3930   -4.6630   24.9110 C   0  0  0  0  0  0  0  0  0  0  0  0
  -21.9280   -4.0960   23.7410 C   0  0  0  0  0  3  0  0  0  0  0  0
  -22.0840   -4.8840   22.5860 C   0  0  0  0  0  0  0  0  0  0  0  0
  -22.5810   -4.3280   21.4550 F   0  0  0  0  0  0  0  0  0  0  0  0
  -21.2380   -3.9000   26.0180 F   0  0  0  0  0  0  0  0  0  0  0  0
  -22.8490  -13.6080   21.2130 C   0  0  0  0  0  0  0  0  0  0  0  0
  -22.1420  -12.8940   22.0810 N   0  0  0  0  0  0  0  0  0  0  0  0
  -22.3950  -14.6360   20.7120 O   0  0  0  0  0  0  0  0  0  0  0  0
  -22.5230  -12.0630   22.5080 H   0  0  0  0  0  0  0  0  0  0  0  0
  -21.2050  -13.1840   22.3230 H   0  0  0  0  0  0  0  0  0  0  0  0
  -25.4420  -15.3150   20.3860 N   0  0  0  0  0  0  0  0  0  0  0  0
  -24.6640  -15.9520   20.5120 H   0  0  0  0  0  0  0  0  0  0  0  0
  -26.2630  -15.7660   20.0030 H   0  0  0  0  0  0  0  0  0  0  0  0
  -28.7820  -23.5120   20.2610 C   0  0  0  0  0  3  0  0  0  0  0  0
  -27.9610  -24.6940   20.3570 C   0  0  0  0  0  3  0  0  0  0  0  0
  -28.2330  -26.1600   20.2670 O   0  0  0  0  0  0  0  0  0  0  0  0
  -24.6320  -31.9520   23.2710 C   0  0  0  0  0  0  0  0  0  0  0  0
  -27.1960  -27.1890   20.2350 C   0  0  0  0  0  0  0  0  0  0  0  0
  -23.4330  -30.5610   21.6290 C   0  0  0  0  0  3  0  0  0  0  0  0
  -24.8800  -28.9800   20.1990 C   0  0  0  0  0  0  0  0  0  0  0  0
  -25.9900  -30.8060   21.4720 C   0  0  0  0  0  2  0  0  0  0  0  0
  -26.0620  -29.4100   20.8180 C   0  0  0  0  0  0  0  0  0  0  0  0
  -27.2180  -28.5290   20.8200 C   0  0  0  0  0  3  0  0  0  0  0  0
  -25.9930  -26.8860   19.5640 C   0  0  0  0  0  3  0  0  0  0  0  0
  -24.8620  -27.7340   19.5560 C   0  0  0  0  0  3  0  0  0  0  0  0
  -23.6560  -29.8850   20.2490 C   0  0  0  0  0  2  0  0  0  0  0  0
  -24.7050  -31.1300   22.1780 N   0  0  0  0  0  0  0  0  0  0  0  0
  -23.5450  -32.2380   23.7980 O   0  0  0  0  0  0  0  0  0  0  0  0
  -22.7490  -29.5540   22.5900 C   0  0  0  0  0  0  0  0  0  0  0  0
  -21.4220  -29.3760   22.4560 N   0  0  0  0  0  0  0  0  0  0  0  0
  -23.4170  -28.9350   23.4220 O   0  0  0  0  0  0  0  0  0  0  0  0
  -20.9380  -29.9270   21.7610 H   0  0  0  0  0  0  0  0  0  0  0  0
  -18.0440  -28.1610   22.9520 C   0  0  0  0  0  0  0  0  0  0  0  0
  -20.6010  -28.4350   23.2240 C   0  0  0  0  0  3  0  0  0  0  0  0
  -20.7090  -27.0030   22.6500 C   0  0  0  0  0  2  0  0  0  0  0  0
  -19.6110  -26.6770   21.6320 C   0  0  0  0  0  2  0  0  0  0  0  0
  -18.2280  -26.8140   22.2740 C   0  0  0  0  0  2  0  0  0  0  0  0
  -19.1580  -28.9290   23.3840 C   0  0  0  0  0  0  0  0  0  0  0  0
  -18.9300  -30.1880   23.9810 C   0  0  0  0  0  3  0  0  0  0  0  0
  -17.6220  -30.6800   24.1480 C   0  0  0  0  0  3  0  0  0  0  0  0
  -16.5230  -29.9100   23.7320 C   0  0  0  0  0  3  0  0  0  0  0  0
  -16.7340  -28.6520   23.1400 C   0  0  0  0  0  3  0  0  0  0  0  0
  -25.9080  -32.5880   23.9000 C   0  0  0  0  0  3  0  0  0  0  0  0
  -25.5980  -33.9890   24.2270 N   0  0  0  0  0  0  0  0  0  0  0  0
  -25.9120  -35.0430   23.4610 C   0  0  0  0  0  0  0  0  0  0  0  0
  -26.5570  -34.9370   22.4150 O   0  0  0  0  0  0  0  0  0  0  0  0
  -25.0210  -34.1440   25.0410 H   0  0  0  0  0  0  0  0  0  0  0  0
  -24.1650  -36.8300   23.1550 C   0  0  0  0  0  1  0  0  0  0  0  0
  -25.4340  -36.4330   23.9270 C   0  0  0  0  0  3  0  0  0  0  0  0
  -27.5860  -37.3400   24.6880 C   0  0  0  0  0  1  0  0  0  0  0  0
  -26.4590  -37.4900   23.7720 N   0  0  0  0  0  0  0  0  0  0  0  0
  -26.0520  -38.4090   23.9180 H   0  0  0  0  0  0  0  0  0  0  0  0
  -26.4110  -31.8240   25.1880 C   0  0  1  0  0  0  0  0  0  0  0  0
  -25.3090  -31.5970   26.2480 C   0  0  0  0  0  1  0  0  0  0  0  0
  -26.9940  -30.4410   24.8170 C   0  0  0  0  0  1  0  0  0  0  0  0
  -27.5580  -32.6200   25.8540 C   0  0  0  0  0  1  0  0  0  0  0  0
  2  1  2  0
  3  4  2  0
  3  5  1  0
  4  7  1  0
  5  8  2  0
  7  2  1  0
  7  6  2  0
  8  6  1  0
  8 17  1  0
  9 17  1  0
 10 15  1  0
 11 12  1  0
 11 10  1  0
 13 12  1  0
 13 22  1  0
 13 14  1  0
 15  9  1  0
 15 14  1  0
 16  9  2  0
 17 18  1  0
 19 20  2  0
 20 39  1  0
 21 20  1  0
 21 24  1  0
 22 23  1  0
 22 19  1  0
 23 21  2  0
 24 25  1  0
 25 26  2  0
 27 30  1  0
 27 26  1  0
 28 27  2  0
 29 28  1  0
 29 24  2  0
 30 31  1  0
 31 32  1  0
 32 33  2  0
 34 33  1  0
 34 38  1  0
 35 34  2  0
 36 31  2  0
 36 35  1  0
 37 36  1  0
 39 40  1  0
 40 43  1  0
 40 42  1  0
 41 39  2  0
 44 45  1  0
 44 19  1  0
 46 44  1  0
 47 48  2  0
 47  2  1  0
 49 48  1  0
 50 61  2  0
 51 49  1  0
 51 56  1  0
 52 60  1  0
 52 62  1  0
 53 59  1  0
 53 55  1  0
 54 60  1  0
 55 56  2  0
 55 54  1  0
 57 51  2  0
 58 57  1  0
 58 53  2  0
 59 52  1  0
 60 50  1  0
 62 64  2  0
 63 62  1  0
 65 63  1  0
 66 75  2  0
 66 71  1  0
 67 63  1  0
 67 71  1  0
 68 67  1  0
 69 70  1  0
 69 68  1  0
 70 66  1  0
 71 72  2  0
 72 73  1  0
 74 73  2  0
 75 74  1  0
 76 50  1  0
 76 77  1  0
 76 86  1  0
 77 80  1  0
 78 82  1  0
 78 77  1  0
 79 78  2  0
 82 81  1  0
 84 85  1  0
 84 82  1  0
 84 83  1  0
 86 89  1  1
 86 87  1  0
 88 86  1  0
M  ISO  4   9 100  17 100  48 101  49 101
M  END
>  <TORSDO>  (36) 
F 18

>  <SCORE>  (36) 
-14.327

>  <name>  (36) 
35

>  <ligand_id>  (36) 
35

>  <original_smiles>  (36) 
[H]C([H])=C(C([H])=C([H])Oc1c([H])c([H])c2c(c1[H])C([H])([H])N(C(=O)C([H])(N([H])C(=O)C([H])(N([H])C([H])([H])[H])C([H])([H])[H])C(C([H])([H])[H])(C([H])([H])[H])C([H])([H])[H])C([H])(C(=O)N([H])C1([H])c3c([H])c([H])c([H])c([H])c3C([H])([H])C([H])([H])C1([H])[H])C2([H])[H])c1c([H])c([H])c([H])c(N([H])C(=O)N2C([H])([H])C([H])([H])C([H])([H])C([H])(n3nc(-c4c([H])c([H])c(Oc5c([H])c([H])c(F)c([H])c5F)c([H])c4[H])c(C(=O)N([H])[H])c3N([H])[H])C2([H])[H])c1[H]

>  <smiles>  (36) 
[H]C([H])=C(C([H])=C([H])Oc1c([H])c([H])c2c(c1[H])C([H])([H])N(C(=O)C([H])(N([H])C(=O)C([H])(N([H])C([H])([H])[H])C([H])([H])[H])C(C([H])([H])[H])(C([H])([H])[H])C([H])([H])[H])C([H])(C(=O)N([H])C1([H])c3c([H])c([H])c([H])c([H])c3C([H])([H])C([H])([H])C1([H])[H])C2([H])[H])c1c([H])c([H])c([H])c(N([H])C(=O)N2C([H])([H])C([H])([H])C([H])([H])C([H])(n3nc(-c4c([H])c([H])c(Oc5c([H])c([H])c(F)c([H])c5F)c([H])c4[H])c(C(=O)N([H])[H])c3N([H])[H])C2([H])[H])c1[H]

$$$$
36:0:0
     RDKit          3D

 95104  0  0  1  0  0  0  0  0999 V2000
  -28.5160  -24.0180   20.8310 C   0  0  0  0  0  0  0  0  0  0  0  0
  -28.1010  -23.2730   22.0150 C   0  0  0  0  0  0  0  0  0  0  0  0
  -29.1810  -22.9970   19.9530 C   0  0  0  0  0  0  0  0  0  0  0  0
  -28.2080  -25.3870   20.8010 C   0  0  0  0  0  3  0  0  0  0  0  0
  -28.5310  -21.8300   21.8920 C   0  0  0  0  0  2  0  0  0  0  0  0
  -29.1520  -21.7410   20.5740 N   0  0  0  0  0  0  0  0  0  0  0  0
  -27.4930  -23.7000   23.0040 O   0  0  0  0  0  0  0  0  0  0  0  0
  -29.6760  -23.2020   18.8390 O   0  0  0  0  0  0  0  0  0  0  0  0
  -28.7490  -19.3640   19.7170 C   0  0  0  0  0  3  0  0  0  0  0  0
  -29.0830  -17.9640   19.7150 C   0  0  0  0  0  3  0  0  0  0  0  0
  -31.2330  -18.4840   20.6090 C   0  0  0  0  0  3  0  0  0  0  0  0
  -29.6310  -20.3790   20.1980 C   0  0  0  0  0  0  0  0  0  0  0  0
  -30.3250  -17.4570   20.2010 C   0  0  0  0  0  0  0  0  0  0  0  0
  -30.9020  -19.8850   20.6180 C   0  0  0  0  0  0  0  0  0  0  0  0
  -31.7960  -20.7600   21.1390 F   0  0  0  0  0  0  0  0  0  0  0  0
  -31.0350  -14.9790   19.7710 C   0  0  0  0  0  0  0  0  0  0  0  0
  -30.7080  -12.7360   18.6760 C   0  0  0  0  0  2  0  0  0  0  0  0
  -29.6230  -12.8070   17.5760 C   0  0  0  0  0  2  0  0  0  0  0  0
  -28.2200  -12.5960   18.1750 C   0  0  0  0  0  2  0  0  0  0  0  0
  -27.9880  -13.4520   19.4450 C   0  0  0  0  0  3  0  0  0  0  0  0
  -29.1700  -13.3370   20.4270 C   0  0  0  0  0  2  0  0  0  0  0  0
  -30.3930  -13.7500   19.7150 N   0  0  0  0  0  0  0  0  0  0  0  0
  -32.0640  -15.1490   19.1090 O   0  0  0  0  0  0  0  0  0  0  0  0
  -30.5240  -16.0150   20.5630 N   0  0  0  0  0  0  0  0  0  0  0  0
  -25.7560  -14.0040   20.5850 C   0  0  0  0  0  0  0  0  0  0  0  0
  -24.7220  -13.2160   21.0110 C   0  0  0  0  0  0  0  0  0  0  0  0
  -25.1170  -11.8690   20.7460 C   0  0  0  0  0  0  0  0  0  0  0  0
  -26.7150  -13.1370   20.0890 N   0  0  0  0  0  0  0  0  0  0  0  0
  -26.3460  -11.8390   20.2460 N   0  0  0  0  0  0  0  0  0  0  0  0
  -24.3720  -10.6110   20.8890 C   0  0  0  0  0  0  0  0  0  0  0  0
  -24.8080   -9.5880   21.7580 C   0  0  0  0  0  3  0  0  0  0  0  0
  -24.0640   -8.3950   21.8920 C   0  0  0  0  0  3  0  0  0  0  0  0
  -22.8700   -8.2190   21.1550 C   0  0  0  0  0  0  0  0  0  0  0  0
  -22.4510   -9.2300   20.2720 C   0  0  0  0  0  3  0  0  0  0  0  0
  -23.1960  -10.4150   20.1370 C   0  0  0  0  0  3  0  0  0  0  0  0
  -22.0960   -7.0840   21.2010 O   0  0  0  0  0  0  0  0  0  0  0  0
  -21.9310   -6.3720   22.3610 C   0  0  0  0  0  0  0  0  0  0  0  0
  -21.4060   -6.9650   23.5310 C   0  0  0  0  0  3  0  0  0  0  0  0
  -21.1870   -6.1800   24.6790 C   0  0  0  0  0  3  0  0  0  0  0  0
  -21.4810   -4.8040   24.6600 C   0  0  0  0  0  0  0  0  0  0  0  0
  -21.9980   -4.2100   23.4950 C   0  0  0  0  0  3  0  0  0  0  0  0
  -22.2200   -4.9930   22.3480 C   0  0  0  0  0  0  0  0  0  0  0  0
  -22.6980   -4.4120   21.2220 F   0  0  0  0  0  0  0  0  0  0  0  0
  -21.2620   -4.0480   25.7610 F   0  0  0  0  0  0  0  0  0  0  0  0
  -23.4000  -13.6910   21.5430 C   0  0  0  0  0  0  0  0  0  0  0  0
  -22.8000  -12.9320   22.4530 N   0  0  0  0  0  0  0  0  0  0  0  0
  -22.9160  -14.7650   21.1880 O   0  0  0  0  0  0  0  0  0  0  0  0
  -23.2090  -12.0620   22.7580 H   0  0  0  0  0  0  0  0  0  0  0  0
  -21.9200  -13.2270   22.8510 H   0  0  0  0  0  0  0  0  0  0  0  0
  -25.9500  -15.3810   20.5560 N   0  0  0  0  0  0  0  0  0  0  0  0
  -25.2360  -16.0340   20.8600 H   0  0  0  0  0  0  0  0  0  0  0  0
  -26.7680  -15.8360   20.1730 H   0  0  0  0  0  0  0  0  0  0  0  0
  -30.3450  -16.6610   22.9360 C   0  0  0  0  0  2  0  0  0  0  0  0
  -30.5950  -15.7720   21.9540 C   0  0  0  0  0  3  0  0  0  0  0  0
  -28.3940  -26.5010   19.9420 O   0  0  0  0  0  0  0  0  0  0  0  0
  -24.6830  -31.8790   23.1550 C   0  0  0  0  0  0  0  0  0  0  0  0
  -27.3380  -27.4380   19.9300 C   0  0  0  0  0  0  0  0  0  0  0  0
  -23.4940  -30.5300   21.4650 C   0  0  0  0  0  3  0  0  0  0  0  0
  -24.9640  -29.0490   19.9760 C   0  0  0  0  0  0  0  0  0  0  0  0
  -26.0330  -30.8780   21.2910 C   0  0  0  0  0  2  0  0  0  0  0  0
  -26.1310  -29.5200   20.5930 C   0  0  0  0  0  0  0  0  0  0  0  0
  -27.3240  -28.7280   20.5620 C   0  0  0  0  0  3  0  0  0  0  0  0
  -26.1510  -27.0310   19.2890 C   0  0  0  0  0  3  0  0  0  0  0  0
  -24.9780  -27.8120   19.3130 C   0  0  0  0  0  3  0  0  0  0  0  0
  -23.7180  -29.9090   20.0590 C   0  0  0  0  0  2  0  0  0  0  0  0
  -24.7560  -31.1110   22.0280 N   0  0  0  0  0  0  0  0  0  0  0  0
  -23.5960  -32.1230   23.7000 O   0  0  0  0  0  0  0  0  0  0  0  0
  -22.8410  -29.4720   22.3860 C   0  0  0  0  0  0  0  0  0  0  0  0
  -21.5100  -29.3110   22.2800 N   0  0  0  0  0  0  0  0  0  0  0  0
  -23.5300  -28.8010   23.1590 O   0  0  0  0  0  0  0  0  0  0  0  0
  -21.0120  -29.9070   21.6340 H   0  0  0  0  0  0  0  0  0  0  0  0
  -18.1320  -28.1270   22.8070 C   0  0  0  0  0  0  0  0  0  0  0  0
  -20.6990  -28.3430   23.0220 C   0  0  0  0  0  3  0  0  0  0  0  0
  -20.7670  -26.9440   22.3680 C   0  0  0  0  0  2  0  0  0  0  0  0
  -19.6350  -26.6920   21.3660 C   0  0  0  0  0  2  0  0  0  0  0  0
  -18.2730  -26.8150   22.0530 C   0  0  0  0  0  2  0  0  0  0  0  0
  -19.2700  -28.8510   23.2490 C   0  0  0  0  0  0  0  0  0  0  0  0
  -19.0820  -30.0810   23.9160 C   0  0  0  0  0  3  0  0  0  0  0  0
  -17.7880  -30.5850   24.1470 C   0  0  0  0  0  3  0  0  0  0  0  0
  -16.6640  -29.8560   23.7210 C   0  0  0  0  0  3  0  0  0  0  0  0
  -16.8380  -28.6290   23.0560 C   0  0  0  0  0  3  0  0  0  0  0  0
  -25.9570  -32.5040   23.8010 C   0  0  0  0  0  3  0  0  0  0  0  0
  -25.6140  -33.8650   24.2380 N   0  0  0  0  0  0  0  0  0  0  0  0
  -25.8890  -34.9800   23.5460 C   0  0  0  0  0  0  0  0  0  0  0  0
  -26.5290  -34.9700   22.4910 O   0  0  0  0  0  0  0  0  0  0  0  0
  -25.0400  -33.9430   25.0650 H   0  0  0  0  0  0  0  0  0  0  0  0
  -24.0990  -36.7370   23.3720 C   0  0  0  0  0  1  0  0  0  0  0  0
  -25.3750  -36.3160   24.1160 C   0  0  0  0  0  3  0  0  0  0  0  0
  -27.5100  -37.2060   24.9440 C   0  0  0  0  0  1  0  0  0  0  0  0
  -26.3720  -37.4080   24.0510 N   0  0  0  0  0  0  0  0  0  0  0  0
  -25.9440  -38.3000   24.2800 H   0  0  0  0  0  0  0  0  0  0  0  0
  -26.5150  -31.6580   25.0110 C   0  0  1  0  0  0  0  0  0  0  0  0
  -25.4450  -31.3010   26.0690 C   0  0  0  0  0  1  0  0  0  0  0  0
  -27.1430  -30.3380   24.5110 C   0  0  0  0  0  1  0  0  0  0  0  0
  -27.6450  -32.4430   25.7210 C   0  0  0  0  0  1  0  0  0  0  0  0
  1  2  1  0
  2  7  2  0
  3  6  1  0
  3  1  1  0
  4  1  2  0
  5  2  1  0
  6  5  1  0
  8  3  2  0
  9 12  1  0
 10  9  2  0
 10 13  1  0
 11 14  1  0
 12  6  1  0
 12 14  2  0
 13 24  1  0
 13 11  2  0
 14 15  1  0
 16 24  1  0
 17 22  1  0
 18 19  1  0
 18 17  1  0
 20 19  1  0
 20 28  1  0
 20 21  1  0
 22 16  1  0
 22 21  1  0
 23 16  2  0
 24 54  1  0
 25 26  2  0
 26 45  1  0
 27 30  1  0
 27 26  1  0
 28 29  1  0
 28 25  1  0
 29 27  2  0
 30 31  1  0
 31 32  2  0
 33 36  1  0
 33 32  1  0
 34 33  2  0
 35 34  1  0
 35 30  2  0
 36 37  1  0
 37 38  1  0
 38 39  2  0
 40 39  1  0
 40 44  1  0
 41 40  2  0
 42 37  2  0
 42 41  1  0
 43 42  1  0
 45 46  1  0
 46 48  1  0
 46 49  1  0
 47 45  2  0
 50 25  1  0
 50 51  1  0
 52 50  1  0
 54 53  2  0
 55  4  1  0
 56 67  2  0
 57 55  1  0
 57 62  1  0
 58 66  1  0
 58 68  1  0
 59 65  1  0
 59 61  1  0
 60 66  1  0
 61 60  1  0
 62 61  2  0
 63 64  1  0
 63 57  2  0
 64 59  2  0
 65 58  1  0
 66 56  1  0
 68 70  2  0
 69 68  1  0
 71 69  1  0
 72 81  2  0
 72 77  1  0
 73 69  1  0
 73 77  1  0
 74 73  1  0
 75 76  1  0
 75 74  1  0
 76 72  1  0
 77 78  2  0
 78 79  1  0
 80 79  2  0
 81 80  1  0
 82 56  1  0
 82 83  1  0
 82 92  1  0
 83 86  1  0
 84 88  1  0
 84 83  1  0
 85 84  2  0
 88 87  1  0
 90 88  1  0
 90 91  1  0
 90 89  1  0
 92 95  1  1
 92 93  1  0
 94 92  1  0
M  ISO  4   4 101  16 100  24 100  55 101
M  END
>  <TORSDO>  (37) 
F 18

>  <SCORE>  (37) 
-11.855

>  <name>  (37) 
36

>  <ligand_id>  (37) 
36

>  <original_smiles>  (37) 
[H]C([H])=C([H])N(C(=O)N1C([H])([H])C([H])([H])C([H])([H])C([H])(n2nc(-c3c([H])c([H])c(Oc4c([H])c([H])c(F)c([H])c4F)c([H])c3[H])c(C(=O)N([H])[H])c2N([H])[H])C1([H])[H])c1c([H])c([H])c(N2C(=O)C(=C([H])Oc3c([H])c([H])c4c(c3[H])C([H])([H])N(C(=O)C([H])(N([H])C(=O)C([H])(N([H])C([H])([H])[H])C([H])([H])[H])C(C([H])([H])[H])(C([H])([H])[H])C([H])([H])[H])C([H])(C(=O)N([H])C3([H])c5c([H])c([H])c([H])c([H])c5C([H])([H])C([H])([H])C3([H])[H])C4([H])[H])C(=O)C2([H])[H])c(F)c1[H]

>  <smiles>  (37) 
[H]C([H])=C([H])N(C(=O)N1C([H])([H])C([H])([H])C([H])([H])C([H])(n2nc(-c3c([H])c([H])c(Oc4c([H])c([H])c(F)c([H])c4F)c([H])c3[H])c(C(=O)N([H])[H])c2N([H])[H])C1([H])[H])c1c([H])c([H])c(N2C(=O)C(=C([H])Oc3c([H])c([H])c4c(c3[H])C([H])([H])N(C(=O)C([H])(N([H])C(=O)C([H])(N([H])C([H])([H])[H])C([H])([H])[H])C(C([H])([H])[H])(C([H])([H])[H])C([H])([H])[H])C([H])(C(=O)N([H])C3([H])c5c([H])c([H])c([H])c([H])c5C([H])([H])C([H])([H])C3([H])[H])C4([H])[H])C(=O)C2([H])[H])c(F)c1[H]

$$$$
37:0:0
     RDKit          3D

 91 99  0  0  1  0  0  0  0  0999 V2000
  -29.8280  -20.5550   18.8230 C   0  0  0  0  0  3  0  0  0  0  0  0
  -30.2670  -19.2350   19.1250 C   0  0  0  0  0  3  0  0  0  0  0  0
  -29.5850  -21.0340   21.1630 C   0  0  0  0  0  3  0  0  0  0  0  0
  -29.5180  -21.5130   19.8250 C   0  0  0  0  0  0  0  0  0  0  0  0
  -30.0220  -19.7050   21.4770 C   0  0  0  0  0  0  0  0  0  0  0  0
  -30.4130  -18.7810   20.4590 C   0  0  0  0  0  0  0  0  0  0  0  0
  -30.1010  -19.3660   22.7870 F   0  0  0  0  0  0  0  0  0  0  0  0
  -32.6010  -17.4890   19.8220 O   0  0  0  0  0  0  0  0  0  0  0  0
  -31.8940  -17.3590   22.1980 O   0  0  0  0  0  0  0  0  0  0  0  0
  -31.4960  -17.2860   20.7790 S   0  0  1  0  0  0  0  0  0  0  0  0
  -30.6410  -15.8940   20.5060 N   0  0  0  0  0  2  0  0  0  0  0  0
  -31.2130  -14.7310   20.0180 C   0  0  0  0  0  0  0  0  0  0  0  0
  -30.8150  -12.5020   18.9520 C   0  0  0  0  0  2  0  0  0  0  0  0
  -29.8460  -12.6790   17.7650 C   0  0  0  0  0  2  0  0  0  0  0  0
  -28.3860  -12.5750   18.2450 C   0  0  0  0  0  2  0  0  0  0  0  0
  -28.1050  -13.4540   19.4940 C   0  0  0  0  0  3  0  0  0  0  0  0
  -29.1980  -13.2870   20.5700 C   0  0  0  0  0  2  0  0  0  0  0  0
  -30.4980  -13.5580   19.9410 N   0  0  0  0  0  0  0  0  0  0  0  0
  -32.3640  -14.6720   19.5880 O   0  0  0  0  0  0  0  0  0  0  0  0
  -25.7770  -14.1310   20.3350 C   0  0  0  0  0  0  0  0  0  0  0  0
  -24.6920  -13.3970   20.7300 C   0  0  0  0  0  0  0  0  0  0  0  0
  -25.0910  -12.0280   20.6490 C   0  0  0  0  0  0  0  0  0  0  0  0
  -26.7690  -13.2130   20.0350 N   0  0  0  0  0  0  0  0  0  0  0  0
  -26.3650  -11.9410   20.2850 N   0  0  0  0  0  0  0  0  0  0  0  0
  -24.3150  -10.7940   20.8390 C   0  0  0  0  0  0  0  0  0  0  0  0
  -24.7270   -9.7940   21.7490 C   0  0  0  0  0  3  0  0  0  0  0  0
  -23.9550   -8.6270   21.9290 C   0  0  0  0  0  3  0  0  0  0  0  0
  -22.7560   -8.4500   21.1990 C   0  0  0  0  0  0  0  0  0  0  0  0
  -22.3620   -9.4360   20.2780 C   0  0  0  0  0  3  0  0  0  0  0  0
  -23.1350  -10.5950   20.0960 C   0  0  0  0  0  3  0  0  0  0  0  0
  -21.9550   -7.3370   21.2890 O   0  0  0  0  0  0  0  0  0  0  0  0
  -21.8730   -6.6010   22.4430 C   0  0  0  0  0  0  0  0  0  0  0  0
  -21.4550   -7.1730   23.6640 C   0  0  0  0  0  3  0  0  0  0  0  0
  -21.3180   -6.3650   24.8100 C   0  0  0  0  0  3  0  0  0  0  0  0
  -21.5870   -4.9860   24.7350 C   0  0  0  0  0  0  0  0  0  0  0  0
  -21.9970   -4.4120   23.5190 C   0  0  0  0  0  3  0  0  0  0  0  0
  -22.1360   -5.2170   22.3750 C   0  0  0  0  0  0  0  0  0  0  0  0
  -22.5120   -4.6570   21.2000 F   0  0  0  0  0  0  0  0  0  0  0  0
  -21.4470   -4.2070   25.8330 F   0  0  0  0  0  0  0  0  0  0  0  0
  -23.3300  -13.9280   21.0710 C   0  0  0  0  0  0  0  0  0  0  0  0
  -22.6110  -13.2520   21.9600 N   0  0  0  0  0  0  0  0  0  0  0  0
  -22.9140  -14.9780   20.5820 O   0  0  0  0  0  0  0  0  0  0  0  0
  -22.9640  -12.4020   22.3770 H   0  0  0  0  0  0  0  0  0  0  0  0
  -21.6980  -13.5890   22.2280 H   0  0  0  0  0  0  0  0  0  0  0  0
  -25.9970  -15.4970   20.1850 N   0  0  0  0  0  0  0  0  0  0  0  0
  -25.2760  -16.1910   20.3520 H   0  0  0  0  0  0  0  0  0  0  0  0
  -26.8790  -15.8980   19.8880 H   0  0  0  0  0  0  0  0  0  0  0  0
  -29.0150  -23.9370   20.0660 C   0  0  0  0  0  3  0  0  0  0  0  0
  -29.1730  -22.8390   19.3830 N   0  0  0  0  0  0  0  0  0  0  0  0
  -28.7370  -25.3170   19.3540 C   0  0  0  0  0  2  0  0  0  0  0  0
  -28.5560  -26.5480   20.1520 O   0  0  0  0  0  0  0  0  0  0  0  0
  -24.6270  -31.7490   23.2110 C   0  0  0  0  0  0  0  0  0  0  0  0
  -27.3890  -27.3230   20.0920 C   0  0  0  0  0  0  0  0  0  0  0  0
  -23.4750  -30.3430   21.5410 C   0  0  0  0  0  3  0  0  0  0  0  0
  -24.9750  -28.8590   20.1010 C   0  0  0  0  0  0  0  0  0  0  0  0
  -26.0030  -30.7390   21.3790 C   0  0  0  0  0  2  0  0  0  0  0  0
  -26.1240  -29.3740   20.7110 C   0  0  0  0  0  0  0  0  0  0  0  0
  -27.3300  -28.6160   20.7000 C   0  0  0  0  0  3  0  0  0  0  0  0
  -26.2050  -26.8470   19.4840 C   0  0  0  0  0  3  0  0  0  0  0  0
  -25.0160  -27.6000   19.4830 C   0  0  0  0  0  3  0  0  0  0  0  0
  -23.7150  -29.6960   20.1510 C   0  0  0  0  0  2  0  0  0  0  0  0
  -24.7200  -30.9600   22.1000 N   0  0  0  0  0  0  0  0  0  0  0  0
  -23.5330  -31.9870   23.7410 O   0  0  0  0  0  0  0  0  0  0  0  0
  -22.8370  -29.2910   22.4790 C   0  0  0  0  0  0  0  0  0  0  0  0
  -21.5210  -29.0640   22.3250 N   0  0  0  0  0  0  0  0  0  0  0  0
  -23.5240  -28.6840   23.3050 O   0  0  0  0  0  0  0  0  0  0  0  0
  -21.0250  -29.6060   21.6330 H   0  0  0  0  0  0  0  0  0  0  0  0
  -18.1870  -27.7220   22.7330 C   0  0  0  0  0  0  0  0  0  0  0  0
  -20.7240  -28.0900   23.0740 C   0  0  0  0  0  3  0  0  0  0  0  0
  -20.9030  -26.6660   22.5010 C   0  0  0  0  0  2  0  0  0  0  0  0
  -19.8450  -26.2980   21.4550 C   0  0  0  0  0  2  0  0  0  0  0  0
  -18.4410  -26.3820   22.0610 C   0  0  0  0  0  2  0  0  0  0  0  0
  -19.2600  -28.5300   23.1940 C   0  0  0  0  0  0  0  0  0  0  0  0
  -18.9710  -29.7810   23.7800 C   0  0  0  0  0  3  0  0  0  0  0  0
  -17.6420  -30.2250   23.9130 C   0  0  0  0  0  3  0  0  0  0  0  0
  -16.5830  -29.4150   23.4690 C   0  0  0  0  0  3  0  0  0  0  0  0
  -16.8570  -28.1650   22.8840 C   0  0  0  0  0  3  0  0  0  0  0  0
  -25.8870  -32.4070   23.8520 C   0  0  0  0  0  3  0  0  0  0  0  0
  -26.4070  -31.6410   25.1300 C   0  0  1  0  0  0  0  0  0  0  0  0
  -25.3080  -31.3760   26.1850 C   0  0  0  0  0  1  0  0  0  0  0  0
  -27.0230  -30.2770   24.7390 C   0  0  0  0  0  1  0  0  0  0  0  0
  -27.5340  -32.4550   25.8070 C   0  0  0  0  0  1  0  0  0  0  0  0
  -25.5400  -33.7960   24.1860 N   0  0  0  0  0  0  0  0  0  0  0  0
  -25.8450  -34.8610   23.4330 C   0  0  0  0  0  0  0  0  0  0  0  0
  -26.5200  -34.7800   22.4030 O   0  0  0  0  0  0  0  0  0  0  0  0
  -24.9380  -33.9300   24.9850 H   0  0  0  0  0  0  0  0  0  0  0  0
  -24.0610  -36.6020   23.0940 C   0  0  0  0  0  1  0  0  0  0  0  0
  -25.3190  -36.2330   23.8960 C   0  0  0  0  0  3  0  0  0  0  0  0
  -27.4340  -37.1800   24.7120 C   0  0  0  0  0  1  0  0  0  0  0  0
  -26.3180  -37.3180   23.7800 N   0  0  0  0  0  0  0  0  0  0  0  0
  -25.8840  -38.2240   23.9390 H   0  0  0  0  0  0  0  0  0  0  0  0
  1  2  2  0
  1  4  1  0
  2  6  1  0
  3  5  1  0
  4  3  2  0
  5  7  1  0
  6 10  1  0
  6  5  2  0
  8 10  2  0
 10  9  2  0
 10 11  1  6
 12 11  1  0
 13 18  1  0
 14 15  1  0
 14 13  1  0
 16 15  1  0
 16 23  1  0
 16 17  1  0
 18 12  1  0
 18 17  1  0
 19 12  2  0
 20 21  2  0
 21 40  1  0
 22 21  1  0
 22 25  1  0
 23 24  1  0
 23 20  1  0
 24 22  2  0
 25 26  1  0
 26 27  2  0
 28 31  1  0
 28 27  1  0
 29 28  2  0
 30 29  1  0
 30 25  2  0
 31 32  1  0
 32 33  1  0
 33 34  2  0
 35 34  1  0
 35 39  1  0
 36 35  2  0
 37 32  2  0
 37 36  1  0
 38 37  1  0
 40 41  1  0
 41 44  1  0
 41 43  1  0
 42 40  2  0
 45 20  1  0
 45 46  1  0
 47 45  1  0
 49  4  1  0
 49 48  2  0
 50 48  1  0
 50 51  1  0
 52 63  2  0
 53 51  1  0
 53 58  1  0
 54 62  1  0
 54 64  1  0
 55 61  1  0
 55 57  1  0
 56 62  1  0
 57 56  1  0
 58 57  2  0
 59 53  2  0
 60 59  1  0
 60 55  2  0
 61 54  1  0
 62 52  1  0
 64 66  2  0
 65 64  1  0
 67 65  1  0
 68 77  2  0
 68 73  1  0
 69 65  1  0
 69 73  1  0
 70 69  1  0
 71 72  1  0
 71 70  1  0
 72 68  1  0
 73 74  2  0
 74 75  1  0
 76 75  2  0
 77 76  1  0
 78 52  1  0
 78 83  1  0
 78 79  1  0
 79 82  1  1
 79 80  1  0
 81 79  1  0
 83 86  1  0
 84 88  1  0
 84 83  1  0
 85 84  2  0
 88 87  1  0
 90 88  1  0
 90 91  1  0
 90 89  1  0
M  ISO  4  11 100  12 100  50 101  51 101
M  END
>  <TORSDO>  (38) 
F 20

>  <SCORE>  (38) 
-12.469

>  <name>  (38) 
37

>  <ligand_id>  (38) 
37

>  <original_smiles>  (38) 
[H]C(=Nc1c([H])c([H])c(S(=O)(=O)[N-]C(=O)N2C([H])([H])C([H])([H])C([H])([H])C([H])(n3nc(-c4c([H])c([H])c(Oc5c([H])c([H])c(F)c([H])c5F)c([H])c4[H])c(C(=O)N([H])[H])c3N([H])[H])C2([H])[H])c(F)c1[H])C([H])([H])Oc1c([H])c([H])c2c(c1[H])C([H])([H])N(C(=O)C([H])(N([H])C(=O)C([H])(N([H])C([H])([H])[H])C([H])([H])[H])C(C([H])([H])[H])(C([H])([H])[H])C([H])([H])[H])C([H])(C(=O)N([H])C1([H])c3c([H])c([H])c([H])c([H])c3C([H])([H])C([H])([H])C1([H])[H])C2([H])[H]

>  <smiles>  (38) 
[H]C(=Nc1c([H])c([H])c(S(=O)(=O)[N-]C(=O)N2C([H])([H])C([H])([H])C([H])([H])C([H])(n3nc(-c4c([H])c([H])c(Oc5c([H])c([H])c(F)c([H])c5F)c([H])c4[H])c(C(=O)N([H])[H])c3N([H])[H])C2([H])[H])c(F)c1[H])C([H])([H])Oc1c([H])c([H])c2c(c1[H])C([H])([H])N(C(=O)C([H])(N([H])C(=O)C([H])(N([H])C([H])([H])[H])C([H])([H])[H])C(C([H])([H])[H])(C([H])([H])[H])C([H])([H])[H])C([H])(C(=O)N([H])C1([H])c3c([H])c([H])c([H])c([H])c3C([H])([H])C([H])([H])C1([H])[H])C2([H])[H]

$$$$
38:0:0
     RDKit          3D

 94102  0  0  1  0  0  0  0  0999 V2000
  -29.8940  -21.4400   20.0330 C   0  0  0  0  0  0  0  0  0  0  0  0
  -28.5280  -23.4840   20.4850 C   0  0  0  0  0  0  0  0  0  0  0  0
  -28.8520  -22.1530   20.5330 N   0  0  0  0  0  0  0  0  0  0  0  0
  -30.8470  -21.9610   19.4460 O   0  0  0  0  0  0  0  0  0  0  0  0
  -27.9620  -23.9610   21.4720 O   0  0  0  0  0  0  0  0  0  0  0  0
  -28.3140  -21.6280   21.2010 H   0  0  0  0  0  0  0  0  0  0  0  0
  -30.6090  -19.0890   19.2950 C   0  0  0  0  0  3  0  0  0  0  0  0
  -29.2560  -19.2500   21.2860 C   0  0  0  0  0  3  0  0  0  0  0  0
  -30.6770  -17.6770   19.4360 C   0  0  0  0  0  3  0  0  0  0  0  0
  -29.3140  -17.8350   21.4230 C   0  0  0  0  0  3  0  0  0  0  0  0
  -29.8950  -19.9140   20.2050 C   0  0  0  0  0  0  0  0  0  0  0  0
  -30.0290  -17.0160   20.5100 C   0  0  0  0  0  0  0  0  0  0  0  0
  -30.7160  -14.5890   20.0790 C   0  0  0  0  0  0  0  0  0  0  0  0
  -30.4160  -12.4240   18.9170 C   0  0  0  0  0  2  0  0  0  0  0  0
  -29.4020  -12.6480   17.7730 C   0  0  0  0  0  2  0  0  0  0  0  0
  -27.9530  -12.4960   18.2790 C   0  0  0  0  0  2  0  0  0  0  0  0
  -27.6890  -13.2840   19.5910 C   0  0  0  0  0  3  0  0  0  0  0  0
  -28.8070  -13.0290   20.6260 C   0  0  0  0  0  2  0  0  0  0  0  0
  -30.0910  -13.3780   19.9940 N   0  0  0  0  0  0  0  0  0  0  0  0
  -31.8170  -14.7930   19.5560 O   0  0  0  0  0  0  0  0  0  0  0  0
  -29.9960  -15.5770   20.6770 N   0  0  0  0  0  0  0  0  0  0  0  0
  -29.2130  -15.2300   21.2110 H   0  0  0  0  0  0  0  0  0  0  0  0
  -25.3380  -13.8710   20.4570 C   0  0  0  0  0  0  0  0  0  0  0  0
  -24.2900  -13.0900   20.8640 C   0  0  0  0  0  0  0  0  0  0  0  0
  -24.7420  -11.7380   20.7620 C   0  0  0  0  0  0  0  0  0  0  0  0
  -26.3640  -12.9940   20.1360 N   0  0  0  0  0  0  0  0  0  0  0  0
  -26.0110  -11.7050   20.3770 N   0  0  0  0  0  0  0  0  0  0  0  0
  -24.0220  -10.4730   20.9580 C   0  0  0  0  0  0  0  0  0  0  0  0
  -24.4680   -9.5050   21.8850 C   0  0  0  0  0  3  0  0  0  0  0  0
  -23.7490   -8.3040   22.0690 C   0  0  0  0  0  3  0  0  0  0  0  0
  -22.5690   -8.0620   21.3260 C   0  0  0  0  0  0  0  0  0  0  0  0
  -22.1420   -9.0180   20.3870 C   0  0  0  0  0  3  0  0  0  0  0  0
  -22.8620  -10.2110   20.2010 C   0  0  0  0  0  3  0  0  0  0  0  0
  -21.8220   -6.9130   21.4170 O   0  0  0  0  0  0  0  0  0  0  0  0
  -21.7360   -6.2010   22.5870 C   0  0  0  0  0  0  0  0  0  0  0  0
  -21.2360   -6.7770   23.7750 C   0  0  0  0  0  3  0  0  0  0  0  0
  -21.0990   -5.9900   24.9360 C   0  0  0  0  0  3  0  0  0  0  0  0
  -21.4540   -4.6280   24.9100 C   0  0  0  0  0  0  0  0  0  0  0  0
  -21.9470   -4.0520   23.7260 C   0  0  0  0  0  3  0  0  0  0  0  0
  -22.0860   -4.8350   22.5680 C   0  0  0  0  0  0  0  0  0  0  0  0
  -22.5410   -4.2700   21.4230 F   0  0  0  0  0  0  0  0  0  0  0  0
  -21.3160   -3.8690   26.0220 F   0  0  0  0  0  0  0  0  0  0  0  0
  -22.9130  -13.5620   21.2360 C   0  0  0  0  0  0  0  0  0  0  0  0
  -22.2360  -12.8420   22.1240 N   0  0  0  0  0  0  0  0  0  0  0  0
  -22.4490  -14.6030   20.7750 O   0  0  0  0  0  0  0  0  0  0  0  0
  -22.6260  -12.0000   22.5190 H   0  0  0  0  0  0  0  0  0  0  0  0
  -21.3150  -13.1400   22.4140 H   0  0  0  0  0  0  0  0  0  0  0  0
  -25.4990  -15.2460   20.3190 N   0  0  0  0  0  0  0  0  0  0  0  0
  -24.7440  -15.8990   20.5000 H   0  0  0  0  0  0  0  0  0  0  0  0
  -26.3350  -15.6970   19.9690 H   0  0  0  0  0  0  0  0  0  0  0  0
  -28.6210  -25.6310   19.1640 C   0  0  0  0  0  3  0  0  0  0  0  0
  -28.6860  -24.2610   19.2260 C   0  0  0  0  0  0  0  0  0  0  0  0
  -28.8150  -23.5250   17.8960 C   0  0  0  0  0  1  0  0  0  0  0  0
  -28.4190  -26.5690   20.1670 O   0  0  0  0  0  0  0  0  0  0  0  0
  -24.6500  -31.8640   23.2050 C   0  0  0  0  0  0  0  0  0  0  0  0
  -27.2870  -27.3820   20.1070 C   0  0  0  0  0  0  0  0  0  0  0  0
  -23.4470  -30.4670   21.5600 C   0  0  0  0  0  3  0  0  0  0  0  0
  -24.9000  -28.9350   20.1230 C   0  0  0  0  0  0  0  0  0  0  0  0
  -25.9790  -30.8120   21.3680 C   0  0  0  0  0  2  0  0  0  0  0  0
  -26.0640  -29.4420   20.7130 C   0  0  0  0  0  0  0  0  0  0  0  0
  -27.2600  -28.6720   20.7050 C   0  0  0  0  0  3  0  0  0  0  0  0
  -26.0950  -26.9030   19.5170 C   0  0  0  0  0  3  0  0  0  0  0  0
  -24.9130  -27.6670   19.5210 C   0  0  0  0  0  3  0  0  0  0  0  0
  -23.6580  -29.7990   20.1760 C   0  0  0  0  0  2  0  0  0  0  0  0
  -24.7100  -31.0640   22.1020 N   0  0  0  0  0  0  0  0  0  0  0  0
  -23.5670  -32.1330   23.7440 O   0  0  0  0  0  0  0  0  0  0  0  0
  -22.7940  -29.4420   22.5170 C   0  0  0  0  0  0  0  0  0  0  0  0
  -21.4650  -29.2720   22.4050 N   0  0  0  0  0  0  0  0  0  0  0  0
  -23.4800  -28.8050   23.3210 O   0  0  0  0  0  0  0  0  0  0  0  0
  -20.9710  -29.8380   21.7290 H   0  0  0  0  0  0  0  0  0  0  0  0
  -18.0890  -28.0930   22.9310 C   0  0  0  0  0  0  0  0  0  0  0  0
  -20.6520  -28.3320   23.1750 C   0  0  0  0  0  3  0  0  0  0  0  0
  -20.7390  -26.9050   22.5850 C   0  0  0  0  0  2  0  0  0  0  0  0
  -19.6220  -26.6000   21.5820 C   0  0  0  0  0  2  0  0  0  0  0  0
  -18.2490  -26.7490   22.2410 C   0  0  0  0  0  2  0  0  0  0  0  0
  -19.2170  -28.8420   23.3560 C   0  0  0  0  0  0  0  0  0  0  0  0
  -19.0140  -30.1020   23.9630 C   0  0  0  0  0  3  0  0  0  0  0  0
  -17.7150  -30.6100   24.1490 C   0  0  0  0  0  3  0  0  0  0  0  0
  -16.6010  -29.8560   23.7400 C   0  0  0  0  0  3  0  0  0  0  0  0
  -16.7890  -28.6000   23.1370 C   0  0  0  0  0  3  0  0  0  0  0  0
  -25.9330  -32.4970   23.8260 C   0  0  0  0  0  3  0  0  0  0  0  0
  -25.6170  -33.8890   24.1710 N   0  0  0  0  0  0  0  0  0  0  0  0
  -25.9300  -34.9510   23.4160 C   0  0  0  0  0  0  0  0  0  0  0  0
  -26.5860  -34.8610   22.3740 O   0  0  0  0  0  0  0  0  0  0  0  0
  -25.0370  -34.0320   24.9850 H   0  0  0  0  0  0  0  0  0  0  0  0
  -24.1850  -36.7340   23.0940 C   0  0  0  0  0  1  0  0  0  0  0  0
  -25.4370  -36.3320   23.8900 C   0  0  0  0  0  3  0  0  0  0  0  0
  -27.5700  -37.2300   24.7110 C   0  0  0  0  0  1  0  0  0  0  0  0
  -26.4610  -37.3930   23.7740 N   0  0  0  0  0  0  0  0  0  0  0  0
  -26.0500  -38.3100   23.9260 H   0  0  0  0  0  0  0  0  0  0  0  0
  -26.4610  -31.7180   25.0930 C   0  0  1  0  0  0  0  0  0  0  0  0
  -25.3740  -31.4600   26.1640 C   0  0  0  0  0  1  0  0  0  0  0  0
  -27.0540  -30.3500   24.6830 C   0  0  0  0  0  1  0  0  0  0  0  0
  -27.6050  -32.5170   25.7600 C   0  0  0  0  0  1  0  0  0  0  0  0
  1 11  1  0
  1  3  1  0
  2  3  1  0
  2  5  2  0
  3  6  1  0
  4  1  2  0
  7  9  2  0
  7 11  1  0
  8 10  1  0
  9 12  1  0
 11  8  2  0
 12 21  1  0
 12 10  2  0
 13 21  1  0
 14 19  1  0
 15 16  1  0
 15 14  1  0
 17 16  1  0
 17 26  1  0
 17 18  1  0
 19 13  1  0
 19 18  1  0
 20 13  2  0
 21 22  1  0
 23 24  2  0
 24 43  1  0
 25 24  1  0
 25 28  1  0
 26 27  1  0
 26 23  1  0
 27 25  2  0
 28 29  1  0
 29 30  2  0
 31 34  1  0
 31 30  1  0
 32 31  2  0
 33 32  1  0
 33 28  2  0
 34 35  1  0
 35 36  1  0
 36 37  2  0
 38 37  1  0
 38 42  1  0
 39 38  2  0
 40 35  2  0
 40 39  1  0
 41 40  1  0
 43 44  1  0
 44 47  1  0
 44 46  1  0
 45 43  2  0
 48 23  1  0
 48 49  1  0
 50 48  1  0
 51 52  2  0
 51 54  1  0
 52  2  1  0
 53 52  1  0
 55 66  2  0
 56 54  1  0
 56 61  1  0
 57 65  1  0
 57 67  1  0
 58 64  1  0
 58 60  1  0
 59 65  1  0
 60 59  1  0
 61 60  2  0
 62 63  1  0
 62 56  2  0
 63 58  2  0
 64 57  1  0
 65 55  1  0
 67 69  2  0
 68 67  1  0
 70 68  1  0
 71 80  2  0
 71 76  1  0
 72 68  1  0
 72 76  1  0
 73 72  1  0
 74 75  1  0
 74 73  1  0
 75 71  1  0
 76 77  2  0
 77 78  1  0
 79 78  2  0
 80 79  1  0
 81 55  1  0
 81 82  1  0
 81 91  1  0
 82 85  1  0
 83 87  1  0
 83 82  1  0
 84 83  2  0
 87 86  1  0
 89 87  1  0
 89 90  1  0
 89 88  1  0
 91 94  1  1
 91 92  1  0
 93 91  1  0
M  ISO  4  13 100  21 100  51 101  54 101
M  END
>  <TORSDO>  (39) 
F 18

>  <SCORE>  (39) 
-13.885

>  <name>  (39) 
38

>  <ligand_id>  (39) 
38

>  <original_smiles>  (39) 
[H]C(Oc1c([H])c([H])c2c(c1[H])C([H])([H])N(C(=O)C([H])(N([H])C(=O)C([H])(N([H])C([H])([H])[H])C([H])([H])[H])C(C([H])([H])[H])(C([H])([H])[H])C([H])([H])[H])C([H])(C(=O)N([H])C1([H])c3c([H])c([H])c([H])c([H])c3C([H])([H])C([H])([H])C1([H])[H])C2([H])[H])=C(C(=O)N([H])C(=O)c1c([H])c([H])c(N([H])C(=O)N2C([H])([H])C([H])([H])C([H])([H])C([H])(n3nc(-c4c([H])c([H])c(Oc5c([H])c([H])c(F)c([H])c5F)c([H])c4[H])c(C(=O)N([H])[H])c3N([H])[H])C2([H])[H])c([H])c1[H])C([H])([H])[H]

>  <smiles>  (39) 
[H]C(Oc1c([H])c([H])c2c(c1[H])C([H])([H])N(C(=O)C([H])(N([H])C(=O)C([H])(N([H])C([H])([H])[H])C([H])([H])[H])C(C([H])([H])[H])(C([H])([H])[H])C([H])([H])[H])C([H])(C(=O)N([H])C1([H])c3c([H])c([H])c([H])c([H])c3C([H])([H])C([H])([H])C1([H])[H])C2([H])[H])=C(C(=O)N([H])C(=O)c1c([H])c([H])c(N([H])C(=O)N2C([H])([H])C([H])([H])C([H])([H])C([H])(n3nc(-c4c([H])c([H])c(Oc5c([H])c([H])c(F)c([H])c5F)c([H])c4[H])c(C(=O)N([H])[H])c3N([H])[H])C2([H])[H])c([H])c1[H])C([H])([H])[H]

$$$$
39:0:0
     RDKit          3D

 95103  0  0  1  0  0  0  0  0999 V2000
  -28.9030  -20.6810   20.9970 C   0  0  0  0  0  0  0  0  0  0  0  0
  -28.3980  -23.0820   20.9480 C   0  0  0  0  0  0  0  0  0  0  0  0
  -29.0430  -21.9570   20.5380 N   0  0  0  0  0  0  0  0  0  0  0  0
  -28.0440  -20.3240   21.8110 O   0  0  0  0  0  0  0  0  0  0  0  0
  -27.5610  -23.0850   21.8590 O   0  0  0  0  0  0  0  0  0  0  0  0
  -29.7330  -22.0760   19.8140 H   0  0  0  0  0  0  0  0  0  0  0  0
  -29.6010  -18.2260   20.6330 C   0  0  0  0  0  3  0  0  0  0  0  0
  -31.0590  -20.0090   19.8310 C   0  0  0  0  0  3  0  0  0  0  0  0
  -31.6960  -17.6760   19.5420 C   0  0  0  0  0  3  0  0  0  0  0  0
  -29.8550  -19.6240   20.4570 C   0  0  0  0  0  0  0  0  0  0  0  0
  -30.5140  -17.2260   20.1900 C   0  0  0  0  0  0  0  0  0  0  0  0
  -31.9770  -19.0540   19.3670 C   0  0  0  0  0  0  0  0  0  0  0  0
  -30.8980  -14.7070   20.0140 C   0  0  0  0  0  0  0  0  0  0  0  0
  -30.5320  -12.5220   18.9350 C   0  0  0  0  0  2  0  0  0  0  0  0
  -29.5280  -12.7090   17.7790 C   0  0  0  0  0  2  0  0  0  0  0  0
  -28.0850  -12.5530   18.2930 C   0  0  0  0  0  2  0  0  0  0  0  0
  -27.8060  -13.3910   19.5690 C   0  0  0  0  0  3  0  0  0  0  0  0
  -28.9300  -13.2280   20.6180 C   0  0  0  0  0  2  0  0  0  0  0  0
  -30.2090  -13.5310   19.9600 N   0  0  0  0  0  0  0  0  0  0  0  0
  -32.0460  -14.7790   19.5770 O   0  0  0  0  0  0  0  0  0  0  0  0
  -30.2010  -15.8160   20.3930 N   0  0  0  0  0  0  0  0  0  0  0  0
  -29.2900  -15.6200   20.7780 H   0  0  0  0  0  0  0  0  0  0  0  0
  -25.4600  -13.9580   20.4520 C   0  0  0  0  0  0  0  0  0  0  0  0
  -24.4210  -13.1700   20.8660 C   0  0  0  0  0  0  0  0  0  0  0  0
  -24.8850  -11.8220   20.7680 C   0  0  0  0  0  0  0  0  0  0  0  0
  -26.4910  -13.0900   20.1300 N   0  0  0  0  0  0  0  0  0  0  0  0
  -26.1540  -11.7990   20.3800 N   0  0  0  0  0  0  0  0  0  0  0  0
  -24.1760  -10.5510   20.9680 C   0  0  0  0  0  0  0  0  0  0  0  0
  -24.6300   -9.5880   21.8960 C   0  0  0  0  0  3  0  0  0  0  0  0
  -23.9200   -8.3830   22.0830 C   0  0  0  0  0  3  0  0  0  0  0  0
  -22.7430   -8.1300   21.3400 C   0  0  0  0  0  0  0  0  0  0  0  0
  -22.3080   -9.0810   20.4010 C   0  0  0  0  0  3  0  0  0  0  0  0
  -23.0180  -10.2780   20.2110 C   0  0  0  0  0  3  0  0  0  0  0  0
  -22.0030   -6.9760   21.4370 O   0  0  0  0  0  0  0  0  0  0  0  0
  -21.9220   -6.2690   22.6100 C   0  0  0  0  0  0  0  0  0  0  0  0
  -21.3960   -6.8390   23.7890 C   0  0  0  0  0  3  0  0  0  0  0  0
  -21.2680   -6.0550   24.9530 C   0  0  0  0  0  3  0  0  0  0  0  0
  -21.6550   -4.7010   24.9380 C   0  0  0  0  0  0  0  0  0  0  0  0
  -22.1730   -4.1310   23.7620 C   0  0  0  0  0  3  0  0  0  0  0  0
  -22.3030   -4.9110   22.6010 C   0  0  0  0  0  0  0  0  0  0  0  0
  -22.7840   -4.3510   21.4650 F   0  0  0  0  0  0  0  0  0  0  0  0
  -21.5240   -3.9460   26.0530 F   0  0  0  0  0  0  0  0  0  0  0  0
  -23.0420  -13.6310   21.2380 C   0  0  0  0  0  0  0  0  0  0  0  0
  -22.3690  -12.9040   22.1220 N   0  0  0  0  0  0  0  0  0  0  0  0
  -22.5710  -14.6710   20.7780 O   0  0  0  0  0  0  0  0  0  0  0  0
  -22.7640  -12.0620   22.5140 H   0  0  0  0  0  0  0  0  0  0  0  0
  -21.4460  -13.1950   22.4120 H   0  0  0  0  0  0  0  0  0  0  0  0
  -25.6090  -15.3340   20.3010 N   0  0  0  0  0  0  0  0  0  0  0  0
  -24.8450  -15.9800   20.4710 H   0  0  0  0  0  0  0  0  0  0  0  0
  -26.4270  -15.7840   19.9110 H   0  0  0  0  0  0  0  0  0  0  0  0
  -34.1000  -18.6220   18.3150 C   0  0  0  0  0  1  0  0  0  0  0  0
  -33.1160  -19.5460   18.7650 O   0  0  0  0  0  0  0  0  0  0  0  0
  -28.7730  -24.3090   20.2220 C   0  0  0  0  0  3  0  0  0  0  0  0
  -28.2140  -25.4970   20.5750 C   0  0  0  0  0  3  0  0  0  0  0  0
  -28.4260  -26.7300   19.9700 O   0  0  0  0  0  0  0  0  0  0  0  0
  -24.6900  -31.9060   23.1960 C   0  0  0  0  0  0  0  0  0  0  0  0
  -27.3160  -27.5560   19.9540 C   0  0  0  0  0  0  0  0  0  0  0  0
  -23.4800  -30.5630   21.5090 C   0  0  0  0  0  3  0  0  0  0  0  0
  -24.9320  -29.0840   20.0180 C   0  0  0  0  0  0  0  0  0  0  0  0
  -26.0080  -30.9270   21.3160 C   0  0  0  0  0  2  0  0  0  0  0  0
  -26.0950  -29.5790   20.6230 C   0  0  0  0  0  0  0  0  0  0  0  0
  -27.2950  -28.8240   20.5870 C   0  0  0  0  0  3  0  0  0  0  0  0
  -26.1390  -27.0890   19.3310 C   0  0  0  0  0  3  0  0  0  0  0  0
  -24.9500  -27.8400   19.3650 C   0  0  0  0  0  3  0  0  0  0  0  0
  -23.6860  -29.9380   20.1030 C   0  0  0  0  0  2  0  0  0  0  0  0
  -24.7450  -31.1450   22.0650 N   0  0  0  0  0  0  0  0  0  0  0  0
  -23.6090  -32.1560   23.7500 O   0  0  0  0  0  0  0  0  0  0  0  0
  -22.8330  -29.5060   22.4350 C   0  0  0  0  0  0  0  0  0  0  0  0
  -21.5080  -29.3300   22.3100 N   0  0  0  0  0  0  0  0  0  0  0  0
  -23.5220  -28.8490   23.2210 O   0  0  0  0  0  0  0  0  0  0  0  0
  -21.0130  -29.9130   21.6480 H   0  0  0  0  0  0  0  0  0  0  0  0
  -18.1300  -28.1450   22.8130 C   0  0  0  0  0  0  0  0  0  0  0  0
  -20.6940  -28.3640   23.0500 C   0  0  0  0  0  3  0  0  0  0  0  0
  -20.7710  -26.9610   22.4040 C   0  0  0  0  0  2  0  0  0  0  0  0
  -19.6470  -26.7000   21.3960 C   0  0  0  0  0  2  0  0  0  0  0  0
  -18.2790  -26.8280   22.0710 C   0  0  0  0  0  2  0  0  0  0  0  0
  -19.2640  -28.8740   23.2590 C   0  0  0  0  0  0  0  0  0  0  0  0
  -19.0690  -30.1110   23.9130 C   0  0  0  0  0  3  0  0  0  0  0  0
  -17.7730  -30.6180   24.1250 C   0  0  0  0  0  3  0  0  0  0  0  0
  -16.6540  -29.8840   23.6960 C   0  0  0  0  0  3  0  0  0  0  0  0
  -16.8330  -28.6490   23.0460 C   0  0  0  0  0  3  0  0  0  0  0  0
  -25.9770  -32.5170   23.8320 C   0  0  0  0  0  3  0  0  0  0  0  0
  -26.4860  -31.7180   25.0950 C   0  0  1  0  0  0  0  0  0  0  0  0
  -25.3880  -31.4630   26.1530 C   0  0  0  0  0  1  0  0  0  0  0  0
  -27.0640  -30.3460   24.6760 C   0  0  0  0  0  1  0  0  0  0  0  0
  -27.6370  -32.4930   25.7770 C   0  0  0  0  0  1  0  0  0  0  0  0
  -25.6770  -33.9110   24.1870 N   0  0  0  0  0  0  0  0  0  0  0  0
  -26.0130  -34.9730   23.4440 C   0  0  0  0  0  0  0  0  0  0  0  0
  -26.6790  -34.8840   22.4090 O   0  0  0  0  0  0  0  0  0  0  0  0
  -25.0840  -34.0540   24.9920 H   0  0  0  0  0  0  0  0  0  0  0  0
  -24.2970  -36.7820   23.1160 C   0  0  0  0  0  1  0  0  0  0  0  0
  -25.5330  -36.3570   23.9240 C   0  0  0  0  0  3  0  0  0  0  0  0
  -27.6660  -37.2180   24.7810 C   0  0  0  0  0  1  0  0  0  0  0  0
  -26.5720  -37.4040   23.8320 N   0  0  0  0  0  0  0  0  0  0  0  0
  -26.1700  -38.3250   23.9880 H   0  0  0  0  0  0  0  0  0  0  0  0
  1  4  2  0
  2  5  2  0
  3  2  1  0
  3  1  1  0
  6  3  1  0
  8 10  2  0
  9 11  1  0
 10  7  1  0
 10  1  1  0
 11 21  1  0
 11  7  2  0
 12  9  2  0
 12  8  1  0
 13 21  1  0
 14 19  1  0
 15 16  1  0
 15 14  1  0
 17 16  1  0
 17 26  1  0
 17 18  1  0
 19 13  1  0
 19 18  1  0
 20 13  2  0
 21 22  1  0
 23 24  2  0
 24 43  1  0
 25 24  1  0
 25 28  1  0
 26 27  1  0
 26 23  1  0
 27 25  2  0
 28 29  1  0
 29 30  2  0
 31 34  1  0
 31 30  1  0
 32 31  2  0
 33 32  1  0
 33 28  2  0
 34 35  1  0
 35 36  1  0
 36 37  2  0
 38 37  1  0
 38 42  1  0
 39 38  2  0
 40 35  2  0
 40 39  1  0
 41 40  1  0
 43 44  1  0
 44 47  1  0
 44 46  1  0
 45 43  2  0
 48 23  1  0
 48 49  1  0
 50 48  1  0
 51 52  1  0
 52 12  1  0
 53 54  2  0
 53  2  1  0
 55 54  1  0
 56 67  2  0
 57 55  1  0
 57 62  1  0
 58 66  1  0
 58 68  1  0
 59 65  1  0
 59 61  1  0
 60 66  1  0
 61 60  1  0
 62 61  2  0
 63 64  1  0
 63 57  2  0
 64 59  2  0
 65 58  1  0
 66 56  1  0
 68 70  2  0
 69 68  1  0
 71 69  1  0
 72 81  2  0
 72 77  1  0
 73 69  1  0
 73 77  1  0
 74 73  1  0
 75 76  1  0
 75 74  1  0
 76 72  1  0
 77 78  2  0
 78 79  1  0
 80 79  2  0
 81 80  1  0
 82 56  1  0
 82 87  1  0
 82 83  1  0
 83 86  1  1
 83 84  1  0
 85 83  1  0
 87 90  1  0
 88 92  1  0
 88 87  1  0
 89 88  2  0
 92 91  1  0
 94 92  1  0
 94 95  1  0
 94 93  1  0
M  ISO  4  13 100  21 100  54 101  55 101
M  END
>  <TORSDO>  (40) 
F 19

>  <SCORE>  (40) 
-12.962

>  <name>  (40) 
39

>  <ligand_id>  (40) 
39

>  <original_smiles>  (40) 
[H]C(Oc1c([H])c([H])c2c(c1[H])C([H])([H])N(C(=O)C([H])(N([H])C(=O)C([H])(N([H])C([H])([H])[H])C([H])([H])[H])C(C([H])([H])[H])(C([H])([H])[H])C([H])([H])[H])C([H])(C(=O)N([H])C1([H])c3c([H])c([H])c([H])c([H])c3C([H])([H])C([H])([H])C1([H])[H])C2([H])[H])=C([H])C(=O)N([H])C(=O)c1c([H])c(OC([H])([H])[H])c([H])c(N([H])C(=O)N2C([H])([H])C([H])([H])C([H])([H])C([H])(n3nc(-c4c([H])c([H])c(Oc5c([H])c([H])c(F)c([H])c5F)c([H])c4[H])c(C(=O)N([H])[H])c3N([H])[H])C2([H])[H])c1[H]

>  <smiles>  (40) 
[H]C(Oc1c([H])c([H])c2c(c1[H])C([H])([H])N(C(=O)C([H])(N([H])C(=O)C([H])(N([H])C([H])([H])[H])C([H])([H])[H])C(C([H])([H])[H])(C([H])([H])[H])C([H])([H])[H])C([H])(C(=O)N([H])C1([H])c3c([H])c([H])c([H])c([H])c3C([H])([H])C([H])([H])C1([H])[H])C2([H])[H])=C([H])C(=O)N([H])C(=O)c1c([H])c(OC([H])([H])[H])c([H])c(N([H])C(=O)N2C([H])([H])C([H])([H])C([H])([H])C([H])(n3nc(-c4c([H])c([H])c(Oc5c([H])c([H])c(F)c([H])c5F)c([H])c4[H])c(C(=O)N([H])[H])c3N([H])[H])C2([H])[H])c1[H]

$$$$
40:0:0
     RDKit          3D

 98107  0  0  1  0  0  0  0  0999 V2000
  -29.3130  -18.5630   19.8470 C   0  0  0  0  0  3  0  0  0  0  0  0
  -28.7990  -19.8780   19.7240 C   0  0  0  0  0  3  0  0  0  0  0  0
  -30.7760  -19.3150   21.6330 C   0  0  0  0  0  3  0  0  0  0  0  0
  -30.3250  -18.2690   20.7930 C   0  0  0  0  0  0  0  0  0  0  0  0
  -29.2800  -20.9280   20.5440 C   0  0  0  0  0  0  0  0  0  0  0  0
  -30.2550  -20.6220   21.5310 C   0  0  0  0  0  0  0  0  0  0  0  0
  -31.0000  -14.6840   19.9970 C   0  0  0  0  0  0  0  0  0  0  0  0
  -30.5700  -12.4990   18.9270 C   0  0  0  0  0  2  0  0  0  0  0  0
  -29.5700  -12.6460   17.7690 C   0  0  0  0  0  2  0  0  0  0  0  0
  -28.1310  -12.4990   18.2950 C   0  0  0  0  0  2  0  0  0  0  0  0
  -27.8510  -13.3970   19.5290 C   0  0  0  0  0  3  0  0  0  0  0  0
  -28.9720  -13.2820   20.5870 C   0  0  0  0  0  2  0  0  0  0  0  0
  -30.2510  -13.5490   19.9140 N   0  0  0  0  0  0  0  0  0  0  0  0
  -32.1240  -14.7300   19.4900 O   0  0  0  0  0  0  0  0  0  0  0  0
  -31.0570  -16.9440   20.8070 C   0  0  0  0  0  0  0  0  0  0  0  0
  -30.4010  -15.8070   20.4680 N   0  0  0  0  0  0  0  0  0  0  0  0
  -32.2410  -16.9610   21.1670 O   0  0  0  0  0  0  0  0  0  0  0  0
  -29.3960  -15.8220   20.5030 H   0  0  0  0  0  0  0  0  0  0  0  0
  -25.5270  -14.0160   20.4350 C   0  0  0  0  0  0  0  0  0  0  0  0
  -24.4680  -13.2500   20.8440 C   0  0  0  0  0  0  0  0  0  0  0  0
  -24.8950  -11.8910   20.7230 C   0  0  0  0  0  0  0  0  0  0  0  0
  -26.5320  -13.1260   20.0950 N   0  0  0  0  0  0  0  0  0  0  0  0
  -26.1610  -11.8410   20.3280 N   0  0  0  0  0  0  0  0  0  0  0  0
  -24.1520  -10.6370   20.9050 C   0  0  0  0  0  0  0  0  0  0  0  0
  -24.6060   -9.6310   21.7860 C   0  0  0  0  0  3  0  0  0  0  0  0
  -23.8660   -8.4410   21.9600 C   0  0  0  0  0  3  0  0  0  0  0  0
  -22.6560   -8.2500   21.2510 C   0  0  0  0  0  0  0  0  0  0  0  0
  -22.2190   -9.2430   20.3570 C   0  0  0  0  0  3  0  0  0  0  0  0
  -22.9600  -10.4240   20.1830 C   0  0  0  0  0  3  0  0  0  0  0  0
  -21.8850   -7.1160   21.3360 O   0  0  0  0  0  0  0  0  0  0  0  0
  -21.8540   -6.3500   22.4730 C   0  0  0  0  0  0  0  0  0  0  0  0
  -21.4330   -6.8760   23.7140 C   0  0  0  0  0  3  0  0  0  0  0  0
  -21.3510   -6.0370   24.8430 C   0  0  0  0  0  3  0  0  0  0  0  0
  -21.6770   -4.6720   24.7320 C   0  0  0  0  0  0  0  0  0  0  0  0
  -22.0910   -4.1450   23.4960 C   0  0  0  0  0  3  0  0  0  0  0  0
  -22.1760   -4.9820   22.3700 C   0  0  0  0  0  0  0  0  0  0  0  0
  -22.5540   -4.4650   21.1750 F   0  0  0  0  0  0  0  0  0  0  0  0
  -21.5910   -3.8630   25.8140 F   0  0  0  0  0  0  0  0  0  0  0  0
  -23.1040  -13.7450   21.2280 C   0  0  0  0  0  0  0  0  0  0  0  0
  -22.4290  -13.0380   22.1280 N   0  0  0  0  0  0  0  0  0  0  0  0
  -22.6480  -14.7880   20.7650 O   0  0  0  0  0  0  0  0  0  0  0  0
  -22.8070  -12.1890   22.5190 H   0  0  0  0  0  0  0  0  0  0  0  0
  -21.5180  -13.3550   22.4310 H   0  0  0  0  0  0  0  0  0  0  0  0
  -25.7170  -15.3890   20.3030 N   0  0  0  0  0  0  0  0  0  0  0  0
  -24.9850  -16.0620   20.5010 H   0  0  0  0  0  0  0  0  0  0  0  0
  -26.5470  -15.8130   19.9080 H   0  0  0  0  0  0  0  0  0  0  0  0
  -27.7190  -24.2130   20.6690 C   0  0  0  0  0  3  0  0  0  0  0  0
  -29.2290  -23.1690   19.3880 C   0  0  0  0  0  3  0  0  0  0  0  0
  -28.6060  -24.3890   19.5660 C   0  0  0  0  0  0  0  0  0  0  0  0
  -27.8740  -22.9370   21.1320 C   0  0  0  0  0  0  0  0  0  0  0  0
  -28.8080  -22.2660   20.3610 N   0  0  0  0  0  0  0  0  0  0  0  0
  -27.2660  -22.3290   22.1850 O   0  0  0  0  0  0  0  0  0  0  0  0
  -27.8350  -21.6070   22.4510 H   0  0  0  0  0  0  0  0  0  0  0  0
  -28.8210  -25.6630   18.7490 C   0  0  0  0  0  2  0  0  0  0  0  0
  -28.6470  -26.8940   19.4780 O   0  0  0  0  0  0  0  0  0  0  0  0
  -24.6770  -31.6540   22.9810 C   0  0  0  0  0  0  0  0  0  0  0  0
  -27.4280  -27.5510   19.5190 C   0  0  0  0  0  0  0  0  0  0  0  0
  -23.5030  -30.3740   21.2240 C   0  0  0  0  0  3  0  0  0  0  0  0
  -24.9890  -28.9980   19.6680 C   0  0  0  0  0  0  0  0  0  0  0  0
  -26.0180  -30.8060   21.0540 C   0  0  0  0  0  2  0  0  0  0  0  0
  -26.1330  -29.4930   20.3020 C   0  0  0  0  0  0  0  0  0  0  0  0
  -27.3500  -28.7730   20.2320 C   0  0  0  0  0  3  0  0  0  0  0  0
  -26.2580  -27.0690   18.8850 C   0  0  0  0  0  3  0  0  0  0  0  0
  -25.0480  -27.7870   18.9570 C   0  0  0  0  0  3  0  0  0  0  0  0
  -23.7250  -29.8200   19.7910 C   0  0  0  0  0  2  0  0  0  0  0  0
  -24.7520  -30.9540   21.8140 N   0  0  0  0  0  0  0  0  0  0  0  0
  -23.5890  -31.8530   23.5430 O   0  0  0  0  0  0  0  0  0  0  0  0
  -22.8740  -29.2600   22.0910 C   0  0  0  0  0  0  0  0  0  0  0  0
  -21.5430  -29.1120   22.0010 N   0  0  0  0  0  0  0  0  0  0  0  0
  -23.5790  -28.5360   22.7980 O   0  0  0  0  0  0  0  0  0  0  0  0
  -21.0340  -29.7510   21.4050 H   0  0  0  0  0  0  0  0  0  0  0  0
  -18.1630  -27.9520   22.5530 C   0  0  0  0  0  0  0  0  0  0  0  0
  -20.7410  -28.1020   22.6920 C   0  0  0  0  0  3  0  0  0  0  0  0
  -20.7580  -26.7600   21.9250 C   0  0  0  0  0  2  0  0  0  0  0  0
  -19.5850  -26.6050   20.9530 C   0  0  0  0  0  2  0  0  0  0  0  0
  -18.2490  -26.7000   21.6980 C   0  0  0  0  0  2  0  0  0  0  0  0
  -19.3320  -28.6200   23.0060 C   0  0  0  0  0  0  0  0  0  0  0  0
  -19.1970  -29.7990   23.7690 C   0  0  0  0  0  3  0  0  0  0  0  0
  -17.9250  -30.3100   24.0840 C   0  0  0  0  0  3  0  0  0  0  0  0
  -16.7700  -29.6400   23.6470 C   0  0  0  0  0  3  0  0  0  0  0  0
  -16.8900  -28.4620   22.8870 C   0  0  0  0  0  3  0  0  0  0  0  0
  -25.9470  -32.2590   23.6580 C   0  0  0  0  0  3  0  0  0  0  0  0
  -26.4350  -31.4330   24.9120 C   0  0  1  0  0  0  0  0  0  0  0  0
  -25.3210  -31.1680   25.9530 C   0  0  0  0  0  1  0  0  0  0  0  0
  -27.0100  -30.0670   24.4710 C   0  0  0  0  0  1  0  0  0  0  0  0
  -27.5760  -32.1930   25.6250 C   0  0  0  0  0  1  0  0  0  0  0  0
  -25.6300  -33.6420   24.0390 N   0  0  0  0  0  0  0  0  0  0  0  0
  -25.9830  -34.7260   23.3340 C   0  0  0  0  0  0  0  0  0  0  0  0
  -26.6800  -34.6640   22.3180 O   0  0  0  0  0  0  0  0  0  0  0  0
  -25.0140  -33.7640   24.8310 H   0  0  0  0  0  0  0  0  0  0  0  0
  -24.2570  -36.5290   23.0240 C   0  0  0  0  0  1  0  0  0  0  0  0
  -25.4850  -36.0950   23.8390 C   0  0  0  0  0  3  0  0  0  0  0  0
  -27.5960  -36.9540   24.7520 C   0  0  0  0  0  1  0  0  0  0  0  0
  -26.5170  -37.1530   23.7880 N   0  0  0  0  0  0  0  0  0  0  0  0
  -26.1050  -38.0660   23.9580 H   0  0  0  0  0  0  0  0  0  0  0  0
  -30.7310  -21.5940   22.4130 N   0  0  0  0  0  0  0  0  0  0  0  0
  -31.5970  -21.4160   22.9100 H   0  0  0  0  0  0  0  0  0  0  0  0
  -30.6280  -22.5690   22.1410 H   0  0  0  0  0  0  0  0  0  0  0  0
  1  4  1  0
  2  1  2  0
  2  5  1  0
  4 15  1  0
  4  3  2  0
  5  6  2  0
  6  3  1  0
  6 96  1  0
  7 16  1  0
  8 13  1  0
  9 10  1  0
  9  8  1  0
 11 10  1  0
 11 22  1  0
 11 12  1  0
 13  7  1  0
 13 12  1  0
 14  7  2  0
 15 17  2  0
 16 18  1  0
 16 15  1  0
 19 20  2  0
 20 39  1  0
 21 20  1  0
 21 24  1  0
 22 23  1  0
 22 19  1  0
 23 21  2  0
 24 25  1  0
 25 26  2  0
 27 30  1  0
 27 26  1  0
 28 27  2  0
 29 28  1  0
 29 24  2  0
 30 31  1  0
 31 32  1  0
 32 33  2  0
 34 33  1  0
 34 38  1  0
 35 34  2  0
 36 31  2  0
 36 35  1  0
 37 36  1  0
 39 40  1  0
 40 43  1  0
 40 42  1  0
 41 39  2  0
 44 19  1  0
 44 45  1  0
 46 44  1  0
 47 50  2  0
 48 49  2  0
 48 51  1  0
 49 47  1  0
 50 52  1  0
 51  5  1  0
 51 50  1  0
 52 53  1  0
 54 55  1  0
 54 49  1  0
 55 57  1  0
 56 67  2  0
 57 62  1  0
 58 66  1  0
 58 68  1  0
 59 65  1  0
 59 61  1  0
 60 66  1  0
 61 60  1  0
 62 61  2  0
 63 64  1  0
 63 57  2  0
 64 59  2  0
 65 58  1  0
 66 56  1  0
 68 70  2  0
 69 68  1  0
 71 69  1  0
 72 81  2  0
 72 77  1  0
 73 69  1  0
 73 77  1  0
 74 73  1  0
 75 76  1  0
 75 74  1  0
 76 72  1  0
 77 78  2  0
 78 79  1  0
 80 79  2  0
 81 80  1  0
 82 56  1  0
 82 87  1  0
 82 83  1  0
 83 86  1  1
 83 84  1  0
 85 83  1  0
 87 90  1  0
 88 92  1  0
 88 87  1  0
 89 88  2  0
 92 91  1  0
 94 92  1  0
 94 95  1  0
 94 93  1  0
 96 97  1  0
 98 96  1  0
M  ISO  4   7 100  16 100  54 101  55 101
M  END
>  <TORSDO>  (41) 
F 20

>  <SCORE>  (41) 
-13.691

>  <name>  (41) 
40

>  <ligand_id>  (41) 
40

>  <original_smiles>  (41) 
[H]Oc1c([H])c(C([H])([H])Oc2c([H])c([H])c3c(c2[H])C([H])([H])N(C(=O)C([H])(N([H])C(=O)C([H])(N([H])C([H])([H])[H])C([H])([H])[H])C(C([H])([H])[H])(C([H])([H])[H])C([H])([H])[H])C([H])(C(=O)N([H])C2([H])c4c([H])c([H])c([H])c([H])c4C([H])([H])C([H])([H])C2([H])[H])C3([H])[H])c([H])n1-c1c([H])c([H])c(C(=O)N([H])C(=O)N2C([H])([H])C([H])([H])C([H])([H])C([H])(n3nc(-c4c([H])c([H])c(Oc5c([H])c([H])c(F)c([H])c5F)c([H])c4[H])c(C(=O)N([H])[H])c3N([H])[H])C2([H])[H])c([H])c1N([H])[H]

>  <smiles>  (41) 
[H]Oc1c([H])c(C([H])([H])Oc2c([H])c([H])c3c(c2[H])C([H])([H])N(C(=O)C([H])(N([H])C(=O)C([H])(N([H])C([H])([H])[H])C([H])([H])[H])C(C([H])([H])[H])(C([H])([H])[H])C([H])([H])[H])C([H])(C(=O)N([H])C2([H])c4c([H])c([H])c([H])c([H])c4C([H])([H])C([H])([H])C2([H])[H])C3([H])[H])c([H])n1-c1c([H])c([H])c(C(=O)N([H])C(=O)N2C([H])([H])C([H])([H])C([H])([H])C([H])(n3nc(-c4c([H])c([H])c(Oc5c([H])c([H])c(F)c([H])c5F)c([H])c4[H])c(C(=O)N([H])[H])c3N([H])[H])C2([H])[H])c([H])c1N([H])[H]

$$$$
41:0:0
     RDKit          3D

 95104  0  0  1  0  0  0  0  0999 V2000
  -28.7640  -24.0500   20.7470 C   0  0  0  0  0  0  0  0  0  0  0  0
  -28.6700  -23.5550   22.1050 C   0  0  0  0  0  0  0  0  0  0  0  0
  -29.1210  -22.9010   19.7860 C   0  0  0  0  0  0  0  0  0  0  0  0
  -29.4050  -24.0640   23.1140 C   0  0  0  0  0  2  0  0  0  0  0  0
  -28.5070  -25.4400   20.6350 C   0  0  0  0  0  3  0  0  0  0  0  0
  -27.7550  -22.3950   22.2980 C   0  0  0  0  0  2  0  0  0  0  0  0
  -28.3100  -21.2200   21.4950 C   0  0  0  0  0  2  0  0  0  0  0  0
  -29.0850  -21.5360   20.2700 N   0  0  0  0  0  0  0  0  0  0  0  0
  -29.4160  -23.1550   18.6180 O   0  0  0  0  0  0  0  0  0  0  0  0
  -30.5450  -20.3320   18.5450 C   0  0  0  0  0  3  0  0  0  0  0  0
  -31.0590  -17.9160   18.5780 C   0  0  0  0  0  3  0  0  0  0  0  0
  -29.5750  -18.8820   20.2260 C   0  0  0  0  0  3  0  0  0  0  0  0
  -31.1910  -19.1960   18.0030 C   0  0  0  0  0  0  0  0  0  0  0  0
  -29.7170  -20.2610   19.6920 C   0  0  0  0  0  0  0  0  0  0  0  0
  -30.2490  -17.6790   19.7110 C   0  0  0  0  0  0  0  0  0  0  0  0
  -32.0260  -19.3430   16.7470 C   0  0  0  0  0  1  0  0  0  0  0  0
  -30.8650  -15.1000   20.0030 C   0  0  0  0  0  0  0  0  0  0  0  0
  -30.6900  -12.7520   19.1380 C   0  0  0  0  0  2  0  0  0  0  0  0
  -29.7210  -12.7560   17.9340 C   0  0  0  0  0  2  0  0  0  0  0  0
  -28.2660  -12.5710   18.4070 C   0  0  0  0  0  2  0  0  0  0  0  0
  -27.9120  -13.4900   19.6080 C   0  0  0  0  0  3  0  0  0  0  0  0
  -29.0070  -13.4810   20.6960 C   0  0  0  0  0  2  0  0  0  0  0  0
  -30.2720  -13.8500   20.0490 N   0  0  0  0  0  0  0  0  0  0  0  0
  -32.0420  -15.1670   19.6370 O   0  0  0  0  0  0  0  0  0  0  0  0
  -30.0970  -16.2590   20.2120 N   0  0  0  0  0  0  0  0  0  0  0  0
  -29.2280  -16.0710   20.6890 H   0  0  0  0  0  0  0  0  0  0  0  0
  -25.5750  -14.0710   20.4900 C   0  0  0  0  0  0  0  0  0  0  0  0
  -24.5210  -13.2960   20.8870 C   0  0  0  0  0  0  0  0  0  0  0  0
  -24.9660  -11.9410   20.7830 C   0  0  0  0  0  0  0  0  0  0  0  0
  -26.5920  -13.1930   20.1630 N   0  0  0  0  0  0  0  0  0  0  0  0
  -26.2380  -11.9040   20.4050 N   0  0  0  0  0  0  0  0  0  0  0  0
  -24.2370  -10.6810   20.9700 C   0  0  0  0  0  0  0  0  0  0  0  0
  -24.6320   -9.7240   21.9320 C   0  0  0  0  0  3  0  0  0  0  0  0
  -23.8930   -8.5330   22.1050 C   0  0  0  0  0  3  0  0  0  0  0  0
  -22.7460   -8.2890   21.3130 C   0  0  0  0  0  0  0  0  0  0  0  0
  -22.3680   -9.2330   20.3430 C   0  0  0  0  0  3  0  0  0  0  0  0
  -23.1090  -10.4150   20.1700 C   0  0  0  0  0  3  0  0  0  0  0  0
  -21.9910   -7.1440   21.3870 O   0  0  0  0  0  0  0  0  0  0  0  0
  -21.8080   -6.4800   22.5720 C   0  0  0  0  0  0  0  0  0  0  0  0
  -21.2090   -7.1000   23.6910 C   0  0  0  0  0  3  0  0  0  0  0  0
  -20.9740   -6.3580   24.8660 C   0  0  0  0  0  3  0  0  0  0  0  0
  -21.3320   -4.9990   24.9220 C   0  0  0  0  0  0  0  0  0  0  0  0
  -21.9280   -4.3800   23.8110 C   0  0  0  0  0  3  0  0  0  0  0  0
  -22.1630   -5.1180   22.6380 C   0  0  0  0  0  0  0  0  0  0  0  0
  -22.7180   -4.5090   21.5610 F   0  0  0  0  0  0  0  0  0  0  0  0
  -21.1000   -4.2880   26.0510 F   0  0  0  0  0  0  0  0  0  0  0  0
  -23.1470  -13.7840   21.2460 C   0  0  0  0  0  0  0  0  0  0  0  0
  -22.4540  -13.0810   22.1350 N   0  0  0  0  0  0  0  0  0  0  0  0
  -22.7000  -14.8270   20.7770 O   0  0  0  0  0  0  0  0  0  0  0  0
  -22.8240  -12.2380   22.5470 H   0  0  0  0  0  0  0  0  0  0  0  0
  -21.5430  -13.4120   22.4160 H   0  0  0  0  0  0  0  0  0  0  0  0
  -25.7400  -15.4470   20.3500 N   0  0  0  0  0  0  0  0  0  0  0  0
  -24.9630  -16.0880   20.4730 H   0  0  0  0  0  0  0  0  0  0  0  0
  -26.5480  -15.8850   19.9260 H   0  0  0  0  0  0  0  0  0  0  0  0
  -28.4890  -26.5000   19.6720 O   0  0  0  0  0  0  0  0  0  0  0  0
  -24.7550  -31.8440   23.0700 C   0  0  0  0  0  0  0  0  0  0  0  0
  -27.4190  -27.4390   19.7430 C   0  0  0  0  0  0  0  0  0  0  0  0
  -23.5640  -30.5020   21.3800 C   0  0  0  0  0  3  0  0  0  0  0  0
  -25.0330  -29.0600   19.8450 C   0  0  0  0  0  0  0  0  0  0  0  0
  -26.1000  -30.8710   21.1800 C   0  0  0  0  0  2  0  0  0  0  0  0
  -26.2060  -29.5240   20.4540 C   0  0  0  0  0  0  0  0  0  0  0  0
  -27.4060  -28.7290   20.3880 C   0  0  0  0  0  3  0  0  0  0  0  0
  -26.2200  -27.0540   19.1130 C   0  0  0  0  0  3  0  0  0  0  0  0
  -25.0500  -27.8370   19.1570 C   0  0  0  0  0  3  0  0  0  0  0  0
  -23.7740  -29.9030   19.9630 C   0  0  0  0  0  2  0  0  0  0  0  0
  -24.8270  -31.0890   21.9320 N   0  0  0  0  0  0  0  0  0  0  0  0
  -23.6720  -32.0650   23.6330 O   0  0  0  0  0  0  0  0  0  0  0  0
  -22.9330  -29.4250   22.2970 C   0  0  0  0  0  0  0  0  0  0  0  0
  -21.6040  -29.2480   22.2050 N   0  0  0  0  0  0  0  0  0  0  0  0
  -23.6400  -28.7540   23.0520 O   0  0  0  0  0  0  0  0  0  0  0  0
  -21.0920  -29.8330   21.5590 H   0  0  0  0  0  0  0  0  0  0  0  0
  -18.2480  -28.0100   22.7810 C   0  0  0  0  0  0  0  0  0  0  0  0
  -20.8170  -28.2570   22.9440 C   0  0  0  0  0  3  0  0  0  0  0  0
  -20.8910  -26.8700   22.2640 C   0  0  0  0  0  2  0  0  0  0  0  0
  -19.7410  -26.6210   21.2820 C   0  0  0  0  0  2  0  0  0  0  0  0
  -18.3910  -26.7170   21.9980 C   0  0  0  0  0  2  0  0  0  0  0  0
  -19.3870  -28.7420   23.2110 C   0  0  0  0  0  0  0  0  0  0  0  0
  -19.1960  -29.9550   23.9060 C   0  0  0  0  0  3  0  0  0  0  0  0
  -17.8990  -30.4370   24.1710 C   0  0  0  0  0  3  0  0  0  0  0  0
  -16.7760  -29.7030   23.7500 C   0  0  0  0  0  3  0  0  0  0  0  0
  -16.9520  -28.4910   23.0610 C   0  0  0  0  0  3  0  0  0  0  0  0
  -26.0280  -32.4780   23.7070 C   0  0  0  0  0  3  0  0  0  0  0  0
  -25.6870  -33.8510   24.1090 N   0  0  0  0  0  0  0  0  0  0  0  0
  -25.9950  -34.9480   23.4070 C   0  0  0  0  0  0  0  0  0  0  0  0
  -26.6620  -34.9110   22.3680 O   0  0  0  0  0  0  0  0  0  0  0  0
  -25.0920  -33.9500   24.9180 H   0  0  0  0  0  0  0  0  0  0  0  0
  -24.2310  -36.7250   23.1480 C   0  0  0  0  0  1  0  0  0  0  0  0
  -25.4820  -36.3030   23.9370 C   0  0  0  0  0  3  0  0  0  0  0  0
  -27.6020  -37.1850   24.8090 C   0  0  0  0  0  1  0  0  0  0  0  0
  -26.4940  -37.3820   23.8780 N   0  0  0  0  0  0  0  0  0  0  0  0
  -26.0710  -38.2870   24.0740 H   0  0  0  0  0  0  0  0  0  0  0  0
  -26.5700  -31.6610   24.9450 C   0  0  1  0  0  0  0  0  0  0  0  0
  -25.4880  -31.3630   26.0090 C   0  0  0  0  0  1  0  0  0  0  0  0
  -27.1750  -30.3120   24.4940 C   0  0  0  0  0  1  0  0  0  0  0  0
  -27.7140  -32.4480   25.6280 C   0  0  0  0  0  1  0  0  0  0  0  0
  1  2  1  0
  2  6  1  0
  2  4  2  0
  3  8  1  0
  3  1  1  0
  5  1  2  0
  7  6  1  0
  8  7  1  0
  9  3  2  0
 10 14  1  0
 11 15  2  0
 13 10  2  0
 13 11  1  0
 14 12  2  0
 14  8  1  0
 15 25  1  0
 15 12  1  0
 16 13  1  0
 17 23  1  0
 17 25  1  0
 18 23  1  0
 19 20  1  0
 19 18  1  0
 21 20  1  0
 21 30  1  0
 21 22  1  0
 23 22  1  0
 24 17  2  0
 25 26  1  0
 27 28  2  0
 28 47  1  0
 29 28  1  0
 29 32  1  0
 30 31  1  0
 30 27  1  0
 31 29  2  0
 32 33  1  0
 33 34  2  0
 35 38  1  0
 35 34  1  0
 36 35  2  0
 37 36  1  0
 37 32  2  0
 38 39  1  0
 39 44  2  0
 39 40  1  0
 40 41  2  0
 41 42  1  0
 42 46  1  0
 43 42  2  0
 44 43  1  0
 45 44  1  0
 47 48  1  0
 48 51  1  0
 48 50  1  0
 49 47  2  0
 52 53  1  0
 52 27  1  0
 54 52  1  0
 55 57  1  0
 55  5  1  0
 56 67  2  0
 57 62  1  0
 58 66  1  0
 58 68  1  0
 59 65  1  0
 59 61  1  0
 60 66  1  0
 61 60  1  0
 62 61  2  0
 63 64  1  0
 63 57  2  0
 64 59  2  0
 65 58  1  0
 66 56  1  0
 68 70  2  0
 69 68  1  0
 71 69  1  0
 72 81  2  0
 72 77  1  0
 73 69  1  0
 73 77  1  0
 74 73  1  0
 75 76  1  0
 75 74  1  0
 76 72  1  0
 77 78  2  0
 78 79  1  0
 80 79  2  0
 81 80  1  0
 82 56  1  0
 82 83  1  0
 82 92  1  0
 83 86  1  0
 84 88  1  0
 84 83  1  0
 85 84  2  0
 88 87  1  0
 90 88  1  0
 90 91  1  0
 90 89  1  0
 92 95  1  1
 92 93  1  0
 94 92  1  0
M  ISO  4   5 101  17 100  25 100  55 101
M  END
>  <TORSDO>  (42) 
F 17

>  <SCORE>  (42) 
-13.736

>  <name>  (42) 
41

>  <ligand_id>  (42) 
41

>  <original_smiles>  (42) 
[H]C([H])=C1C(=C([H])Oc2c([H])c([H])c3c(c2[H])C([H])([H])N(C(=O)C([H])(N([H])C(=O)C([H])(N([H])C([H])([H])[H])C([H])([H])[H])C(C([H])([H])[H])(C([H])([H])[H])C([H])([H])[H])C([H])(C(=O)N([H])C2([H])c4c([H])c([H])c([H])c([H])c4C([H])([H])C([H])([H])C2([H])[H])C3([H])[H])C(=O)N(c2c([H])c(N([H])C(=O)N3C([H])([H])C([H])([H])C([H])([H])C([H])(n4nc(-c5c([H])c([H])c(Oc6c([H])c([H])c(F)c([H])c6F)c([H])c5[H])c(C(=O)N([H])[H])c4N([H])[H])C3([H])[H])c([H])c(C([H])([H])[H])c2[H])C([H])([H])C1([H])[H]

>  <smiles>  (42) 
[H]C([H])=C1C(=C([H])Oc2c([H])c([H])c3c(c2[H])C([H])([H])N(C(=O)C([H])(N([H])C(=O)C([H])(N([H])C([H])([H])[H])C([H])([H])[H])C(C([H])([H])[H])(C([H])([H])[H])C([H])([H])[H])C([H])(C(=O)N([H])C2([H])c4c([H])c([H])c([H])c([H])c4C([H])([H])C([H])([H])C2([H])[H])C3([H])[H])C(=O)N(c2c([H])c(N([H])C(=O)N3C([H])([H])C([H])([H])C([H])([H])C([H])(n4nc(-c5c([H])c([H])c(Oc6c([H])c([H])c(F)c([H])c6F)c([H])c5[H])c(C(=O)N([H])[H])c4N([H])[H])C3([H])[H])c([H])c(C([H])([H])[H])c2[H])C([H])([H])C1([H])[H]

$$$$
42:0:0
     RDKit          3D

 93102  0  0  1  0  0  0  0  0999 V2000
  -28.6630  -24.0790   20.2510 C   0  0  0  0  0  0  0  0  0  0  0  0
  -28.9970  -22.8600   21.0260 C   0  0  0  0  0  0  0  0  0  0  0  0
  -28.4790  -25.3350   20.7870 C   0  0  0  0  0  3  0  0  0  0  0  0
  -28.5600  -23.6950   18.8030 C   0  0  0  0  0  2  0  0  0  0  0  0
  -28.5350  -22.1510   18.8530 C   0  0  0  0  0  2  0  0  0  0  0  0
  -29.0150  -21.7640   20.1890 N   0  0  0  0  0  0  0  0  0  0  0  0
  -29.2430  -22.8230   22.2350 O   0  0  0  0  0  0  0  0  0  0  0  0
  -28.6630  -19.3530   19.9530 C   0  0  0  0  0  3  0  0  0  0  0  0
  -28.7350  -17.9860   20.0000 C   0  0  0  0  0  3  0  0  0  0  0  0
  -30.5120  -20.1190   21.1960 C   0  0  0  0  0  3  0  0  0  0  0  0
  -31.0190  -17.6750   21.1220 C   0  0  0  0  0  3  0  0  0  0  0  0
  -29.3820  -20.3800   20.4910 C   0  0  0  0  0  3  0  0  0  0  0  0
  -31.2240  -18.9830   21.4320 C   0  0  0  0  0  0  0  0  0  0  0  0
  -29.8160  -17.0640   20.4930 C   0  0  0  0  0  0  0  0  0  0  0  0
  -29.5930  -15.7770   20.3470 N   0  0  0  0  0  2  0  0  0  0  0  0
  -32.3890  -19.2030   22.0650 F   0  0  0  0  0  0  0  0  0  0  0  0
  -30.5370  -14.7090   20.3590 C   0  0  0  0  0  0  0  0  0  0  0  0
  -30.3800  -12.4430   19.3670 C   0  0  0  0  0  2  0  0  0  0  0  0
  -29.4350  -12.5680   18.1490 C   0  0  0  0  0  2  0  0  0  0  0  0
  -27.9620  -12.3950   18.5710 C   0  0  0  0  0  2  0  0  0  0  0  0
  -27.5930  -13.2620   19.8030 C   0  0  0  0  0  3  0  0  0  0  0  0
  -28.6510  -13.1280   20.9170 C   0  0  0  0  0  2  0  0  0  0  0  0
  -29.9670  -13.4610   20.3540 N   0  0  0  0  0  0  0  0  0  0  0  0
  -31.7420  -14.8320   20.1290 O   0  0  0  0  0  0  0  0  0  0  0  0
  -25.2050  -13.8600   20.5390 C   0  0  0  0  0  0  0  0  0  0  0  0
  -24.1370  -13.0860   20.9030 C   0  0  0  0  0  0  0  0  0  0  0  0
  -24.5970  -11.7340   20.8620 C   0  0  0  0  0  0  0  0  0  0  0  0
  -26.2460  -12.9780   20.2940 N   0  0  0  0  0  0  0  0  0  0  0  0
  -25.8870  -11.6950   20.5510 N   0  0  0  0  0  0  0  0  0  0  0  0
  -23.8700  -10.4710   21.0440 C   0  0  0  0  0  0  0  0  0  0  0  0
  -24.2890   -9.5060   21.9870 C   0  0  0  0  0  3  0  0  0  0  0  0
  -23.5620   -8.3080   22.1560 C   0  0  0  0  0  3  0  0  0  0  0  0
  -22.4030   -8.0670   21.3810 C   0  0  0  0  0  0  0  0  0  0  0  0
  -22.0030   -9.0210   20.4290 C   0  0  0  0  0  3  0  0  0  0  0  0
  -22.7300  -10.2100   20.2580 C   0  0  0  0  0  3  0  0  0  0  0  0
  -21.6490   -6.9210   21.4590 O   0  0  0  0  0  0  0  0  0  0  0  0
  -21.5640   -6.1920   22.6190 C   0  0  0  0  0  0  0  0  0  0  0  0
  -21.0710   -6.7560   23.8160 C   0  0  0  0  0  3  0  0  0  0  0  0
  -20.9330   -5.9530   24.9660 C   0  0  0  0  0  3  0  0  0  0  0  0
  -21.2780   -4.5880   24.9200 C   0  0  0  0  0  0  0  0  0  0  0  0
  -21.7630   -4.0250   23.7270 C   0  0  0  0  0  3  0  0  0  0  0  0
  -21.9020   -4.8250   22.5780 C   0  0  0  0  0  0  0  0  0  0  0  0
  -22.3500   -4.2720   21.4250 F   0  0  0  0  0  0  0  0  0  0  0  0
  -21.1380   -3.8160   26.0220 F   0  0  0  0  0  0  0  0  0  0  0  0
  -22.7400  -13.5630   21.1800 C   0  0  0  0  0  0  0  0  0  0  0  0
  -22.0110  -12.8560   22.0360 N   0  0  0  0  0  0  0  0  0  0  0  0
  -22.3050  -14.5950   20.6730 O   0  0  0  0  0  0  0  0  0  0  0  0
  -22.3760  -12.0200   22.4660 H   0  0  0  0  0  0  0  0  0  0  0  0
  -21.0730  -13.1570   22.2660 H   0  0  0  0  0  0  0  0  0  0  0  0
  -25.3750  -15.2310   20.3750 N   0  0  0  0  0  0  0  0  0  0  0  0
  -24.6250  -15.8990   20.5080 H   0  0  0  0  0  0  0  0  0  0  0  0
  -26.2520  -15.6590   20.1060 H   0  0  0  0  0  0  0  0  0  0  0  0
  -28.3690  -26.5520   20.0910 O   0  0  0  0  0  0  0  0  0  0  0  0
  -24.5860  -31.8790   23.2320 C   0  0  0  0  0  0  0  0  0  0  0  0
  -27.2230  -27.3480   20.1820 C   0  0  0  0  0  0  0  0  0  0  0  0
  -23.3840  -30.4730   21.5920 C   0  0  0  0  0  3  0  0  0  0  0  0
  -24.8420  -28.9210   20.1750 C   0  0  0  0  0  0  0  0  0  0  0  0
  -25.9170  -30.8120   21.4000 C   0  0  0  0  0  2  0  0  0  0  0  0
  -26.0060  -29.4290   20.7660 C   0  0  0  0  0  0  0  0  0  0  0  0
  -27.2030  -28.6540   20.7570 C   0  0  0  0  0  3  0  0  0  0  0  0
  -26.0370  -26.8770   19.5860 C   0  0  0  0  0  3  0  0  0  0  0  0
  -24.8560  -27.6490   19.5780 C   0  0  0  0  0  3  0  0  0  0  0  0
  -23.6000  -29.7900   20.2150 C   0  0  0  0  0  2  0  0  0  0  0  0
  -24.6480  -31.0720   22.1330 N   0  0  0  0  0  0  0  0  0  0  0  0
  -23.5030  -32.1510   23.7700 O   0  0  0  0  0  0  0  0  0  0  0  0
  -22.7280  -29.4570   22.5560 C   0  0  0  0  0  0  0  0  0  0  0  0
  -21.4030  -29.2760   22.4320 N   0  0  0  0  0  0  0  0  0  0  0  0
  -23.4110  -28.8320   23.3720 O   0  0  0  0  0  0  0  0  0  0  0  0
  -20.9120  -29.8320   21.7460 H   0  0  0  0  0  0  0  0  0  0  0  0
  -18.0270  -28.0840   22.9470 C   0  0  0  0  0  0  0  0  0  0  0  0
  -20.5870  -28.3370   23.2030 C   0  0  0  0  0  3  0  0  0  0  0  0
  -20.6830  -26.9080   22.6190 C   0  0  0  0  0  2  0  0  0  0  0  0
  -19.5740  -26.5920   21.6110 C   0  0  0  0  0  2  0  0  0  0  0  0
  -18.1970  -26.7380   22.2650 C   0  0  0  0  0  2  0  0  0  0  0  0
  -19.1500  -28.8420   23.3740 C   0  0  0  0  0  0  0  0  0  0  0  0
  -18.9370  -30.1030   23.9730 C   0  0  0  0  0  3  0  0  0  0  0  0
  -17.6350  -30.6060   24.1500 C   0  0  0  0  0  3  0  0  0  0  0  0
  -16.5260  -29.8440   23.7410 C   0  0  0  0  0  3  0  0  0  0  0  0
  -16.7230  -28.5850   23.1450 C   0  0  0  0  0  3  0  0  0  0  0  0
  -25.8690  -32.5160   23.8510 C   0  0  0  0  0  3  0  0  0  0  0  0
  -25.5580  -33.9140   24.1780 N   0  0  0  0  0  0  0  0  0  0  0  0
  -25.8920  -34.9660   23.4190 C   0  0  0  0  0  0  0  0  0  0  0  0
  -26.5660  -34.8610   22.3910 O   0  0  0  0  0  0  0  0  0  0  0  0
  -24.9620  -34.0690   24.9780 H   0  0  0  0  0  0  0  0  0  0  0  0
  -24.1730  -36.7640   23.0450 C   0  0  0  0  0  1  0  0  0  0  0  0
  -25.4040  -36.3560   23.8710 C   0  0  0  0  0  3  0  0  0  0  0  0
  -27.5310  -37.2350   24.7280 C   0  0  0  0  0  1  0  0  0  0  0  0
  -26.4410  -37.4070   23.7720 N   0  0  0  0  0  0  0  0  0  0  0  0
  -26.0350  -38.3270   23.9160 H   0  0  0  0  0  0  0  0  0  0  0  0
  -26.3860  -31.7490   25.1300 C   0  0  1  0  0  0  0  0  0  0  0  0
  -25.2920  -31.5110   26.1980 C   0  0  0  0  0  1  0  0  0  0  0  0
  -26.9720  -30.3710   24.7420 C   0  0  0  0  0  1  0  0  0  0  0  0
  -27.5350  -32.5470   25.7910 C   0  0  0  0  0  1  0  0  0  0  0  0
  1  3  2  0
  1  2  1  0
  2  7  2  0
  4  5  1  0
  4  1  1  0
  5  6  1  0
  6 12  1  0
  6  2  1  0
  8  9  2  0
  9 14  1  0
 10 13  2  0
 11 13  1  0
 12  8  1  0
 12 10  1  0
 13 16  1  0
 14 11  2  0
 15 17  1  0
 15 14  1  0
 18 23  1  0
 19 20  1  0
 19 18  1  0
 21 20  1  0
 21 28  1  0
 21 22  1  0
 23 17  1  0
 23 22  1  0
 24 17  2  0
 25 26  2  0
 26 45  1  0
 27 26  1  0
 27 30  1  0
 28 25  1  0
 28 29  1  0
 29 27  2  0
 30 31  1  0
 31 32  2  0
 33 36  1  0
 33 32  1  0
 34 33  2  0
 35 34  1  0
 35 30  2  0
 36 37  1  0
 37 38  1  0
 38 39  2  0
 40 39  1  0
 40 44  1  0
 41 40  2  0
 42 37  2  0
 42 41  1  0
 43 42  1  0
 45 46  1  0
 46 49  1  0
 46 48  1  0
 47 45  2  0
 50 51  1  0
 50 25  1  0
 52 50  1  0
 53 55  1  0
 53  3  1  0
 54 65  2  0
 55 60  1  0
 56 64  1  0
 56 66  1  0
 57 63  1  0
 57 59  1  0
 58 64  1  0
 59 58  1  0
 60 59  2  0
 61 55  2  0
 62 61  1  0
 62 57  2  0
 63 56  1  0
 64 54  1  0
 66 68  2  0
 67 66  1  0
 69 67  1  0
 70 79  2  0
 70 75  1  0
 71 67  1  0
 71 75  1  0
 72 71  1  0
 73 74  1  0
 73 72  1  0
 74 70  1  0
 75 76  2  0
 76 77  1  0
 78 77  2  0
 79 78  1  0
 80 54  1  0
 80 81  1  0
 80 90  1  0
 81 84  1  0
 82 86  1  0
 82 81  1  0
 83 82  2  0
 86 85  1  0
 88 86  1  0
 88 89  1  0
 88 87  1  0
 90 93  1  1
 90 91  1  0
 92 90  1  0
M  ISO  4   3 101  15 100  17 100  53 101
M  END
>  <TORSDO>  (43) 
F 17

>  <SCORE>  (43) 
-15.640

>  <name>  (43) 
42

>  <ligand_id>  (43) 
42

>  <original_smiles>  (43) 
[H]C(Oc1c([H])c([H])c2c(c1[H])C([H])([H])N(C(=O)C([H])(N([H])C(=O)C([H])(N([H])C([H])([H])[H])C([H])([H])[H])C(C([H])([H])[H])(C([H])([H])[H])C([H])([H])[H])C([H])(C(=O)N([H])C1([H])c3c([H])c([H])c([H])c([H])c3C([H])([H])C([H])([H])C1([H])[H])C2([H])[H])=C1C(=O)N(c2c([H])c(F)c([H])c(=NC(=O)N3C([H])([H])C([H])([H])C([H])([H])C([H])(n4nc(-c5c([H])c([H])c(Oc6c([H])c([H])c(F)c([H])c6F)c([H])c5[H])c(C(=O)N([H])[H])c4N([H])[H])C3([H])[H])c([H])c2[H])C([H])([H])C1([H])[H]

>  <smiles>  (43) 
[H]C(Oc1c([H])c([H])c2c(c1[H])C([H])([H])N(C(=O)C([H])(N([H])C(=O)C([H])(N([H])C([H])([H])[H])C([H])([H])[H])C(C([H])([H])[H])(C([H])([H])[H])C([H])([H])[H])C([H])(C(=O)N([H])C1([H])c3c([H])c([H])c([H])c([H])c3C([H])([H])C([H])([H])C1([H])[H])C2([H])[H])=C1C(=O)N(c2c([H])c(F)c([H])c(=NC(=O)N3C([H])([H])C([H])([H])C([H])([H])C([H])(n4nc(-c5c([H])c([H])c(Oc6c([H])c([H])c(F)c([H])c6F)c([H])c5[H])c(C(=O)N([H])[H])c4N([H])[H])C3([H])[H])c([H])c2[H])C([H])([H])C1([H])[H]

$$$$
43:0:0
     RDKit          3D

 94103  0  0  1  0  0  0  0  0999 V2000
  -28.2750  -23.5970   20.8440 C   0  0  0  0  0  3  0  0  0  0  0  0
  -28.6710  -24.1010   19.6740 C   0  0  0  0  0  0  0  0  0  0  0  0
  -28.6460  -22.1850   20.9430 C   0  0  0  0  0  0  0  0  0  0  0  0
  -29.9710  -20.6510   19.5080 C   0  0  0  0  0  0  0  0  0  0  0  0
  -29.3340  -22.9900   18.8870 C   0  0  0  0  0  2  0  0  0  0  0  0
  -29.3570  -21.8430   19.8320 N   0  0  0  0  0  0  0  0  0  0  0  0
  -28.3440  -21.4460   21.8830 O   0  0  0  0  0  0  0  0  0  0  0  0
  -30.3290  -20.4530   18.3390 O   0  0  0  0  0  0  0  0  0  0  0  0
  -31.1650  -18.7190   22.6500 C   0  0  0  0  0  3  0  0  0  0  0  0
  -30.8510  -19.7710   21.7660 C   0  0  0  0  0  3  0  0  0  0  0  0
  -30.9580  -17.3770   22.2750 C   0  0  0  0  0  3  0  0  0  0  0  0
  -30.1190  -18.1400   20.1180 C   0  0  0  0  0  3  0  0  0  0  0  0
  -30.2750  -19.5140   20.4980 C   0  0  0  0  0  0  0  0  0  0  0  0
  -30.4610  -17.0630   20.9940 C   0  0  0  0  0  0  0  0  0  0  0  0
  -30.9390  -14.6720   20.2680 C   0  0  0  0  0  0  0  0  0  0  0  0
  -30.6940  -12.4620   19.1560 C   0  0  0  0  0  2  0  0  0  0  0  0
  -29.7280  -12.6030   17.9580 C   0  0  0  0  0  2  0  0  0  0  0  0
  -28.2540  -12.4850   18.4000 C   0  0  0  0  0  2  0  0  0  0  0  0
  -27.9310  -13.3460   19.6500 C   0  0  0  0  0  3  0  0  0  0  0  0
  -28.9990  -13.1400   20.7460 C   0  0  0  0  0  2  0  0  0  0  0  0
  -30.3080  -13.4660   20.1610 N   0  0  0  0  0  0  0  0  0  0  0  0
  -32.0790  -14.8580   19.8290 O   0  0  0  0  0  0  0  0  0  0  0  0
  -30.1470  -15.6880   20.7060 N   0  0  0  0  0  0  0  0  0  0  0  0
  -29.2200  -15.3960   20.9800 H   0  0  0  0  0  0  0  0  0  0  0  0
  -25.5520  -13.9950   20.3800 C   0  0  0  0  0  0  0  0  0  0  0  0
  -24.4710  -13.2420   20.7590 C   0  0  0  0  0  0  0  0  0  0  0  0
  -24.9080  -11.8830   20.7260 C   0  0  0  0  0  0  0  0  0  0  0  0
  -26.5790  -13.0940   20.1450 N   0  0  0  0  0  0  0  0  0  0  0  0
  -26.1950  -11.8190   20.4090 N   0  0  0  0  0  0  0  0  0  0  0  0
  -24.1610  -10.6340   20.9240 C   0  0  0  0  0  0  0  0  0  0  0  0
  -24.5540   -9.6810   21.8890 C   0  0  0  0  0  3  0  0  0  0  0  0
  -23.8070   -8.4970   22.0730 C   0  0  0  0  0  3  0  0  0  0  0  0
  -22.6530   -8.2580   21.2900 C   0  0  0  0  0  0  0  0  0  0  0  0
  -22.2770   -9.1990   20.3150 C   0  0  0  0  0  3  0  0  0  0  0  0
  -23.0250  -10.3750   20.1310 C   0  0  0  0  0  3  0  0  0  0  0  0
  -21.8820   -7.1230   21.3810 O   0  0  0  0  0  0  0  0  0  0  0  0
  -21.7510   -6.4340   22.5590 C   0  0  0  0  0  0  0  0  0  0  0  0
  -21.2320   -7.0430   23.7230 C   0  0  0  0  0  3  0  0  0  0  0  0
  -21.0490   -6.2810   24.8950 C   0  0  0  0  0  3  0  0  0  0  0  0
  -21.3740   -4.9120   24.9010 C   0  0  0  0  0  0  0  0  0  0  0  0
  -21.8850   -4.3030   23.7410 C   0  0  0  0  0  3  0  0  0  0  0  0
  -22.0690   -5.0610   22.5730 C   0  0  0  0  0  0  0  0  0  0  0  0
  -22.5430   -4.4660   21.4520 F   0  0  0  0  0  0  0  0  0  0  0  0
  -21.1920   -4.1780   26.0240 F   0  0  0  0  0  0  0  0  0  0  0  0
  -23.0840  -13.7460   21.0380 C   0  0  0  0  0  0  0  0  0  0  0  0
  -22.3540  -13.0770   21.9210 N   0  0  0  0  0  0  0  0  0  0  0  0
  -22.6590  -14.7720   20.5080 O   0  0  0  0  0  0  0  0  0  0  0  0
  -22.7080  -12.2480   22.3750 H   0  0  0  0  0  0  0  0  0  0  0  0
  -21.4250  -13.4010   22.1470 H   0  0  0  0  0  0  0  0  0  0  0  0
  -25.7330  -15.3620   20.1910 N   0  0  0  0  0  0  0  0  0  0  0  0
  -24.9580  -16.0120   20.2680 H   0  0  0  0  0  0  0  0  0  0  0  0
  -26.5720  -15.7890   19.8170 H   0  0  0  0  0  0  0  0  0  0  0  0
  -28.5320  -25.5410   19.1070 C   0  0  0  0  0  2  0  0  0  0  0  0
  -28.3050  -26.6300   20.0560 O   0  0  0  0  0  0  0  0  0  0  0  0
  -24.5410  -31.9020   23.1740 C   0  0  0  0  0  0  0  0  0  0  0  0
  -27.1330  -27.3890   20.0420 C   0  0  0  0  0  0  0  0  0  0  0  0
  -23.3090  -30.4890   21.5640 C   0  0  0  0  0  3  0  0  0  0  0  0
  -24.7370  -28.9360   20.1150 C   0  0  0  0  0  0  0  0  0  0  0  0
  -25.8360  -30.8270   21.3220 C   0  0  0  0  0  2  0  0  0  0  0  0
  -25.9080  -29.4450   20.6870 C   0  0  0  0  0  0  0  0  0  0  0  0
  -27.1030  -28.6760   20.6530 C   0  0  0  0  0  3  0  0  0  0  0  0
  -25.9330  -26.9070   19.4710 C   0  0  0  0  0  3  0  0  0  0  0  0
  -24.7470  -27.6690   19.5080 C   0  0  0  0  0  3  0  0  0  0  0  0
  -23.4950  -29.8000   20.1850 C   0  0  0  0  0  2  0  0  0  0  0  0
  -24.5830  -31.0890   22.0790 N   0  0  0  0  0  0  0  0  0  0  0  0
  -23.4680  -32.1770   23.7300 O   0  0  0  0  0  0  0  0  0  0  0  0
  -22.6700  -29.4730   22.5400 C   0  0  0  0  0  0  0  0  0  0  0  0
  -21.3440  -29.2830   22.4300 N   0  0  0  0  0  0  0  0  0  0  0  0
  -23.3670  -28.8590   23.3530 O   0  0  0  0  0  0  0  0  0  0  0  0
  -20.8440  -29.8310   21.7440 H   0  0  0  0  0  0  0  0  0  0  0  0
  -17.9840  -28.0590   22.9730 C   0  0  0  0  0  0  0  0  0  0  0  0
  -20.5430  -28.3410   23.2140 C   0  0  0  0  0  3  0  0  0  0  0  0
  -20.6510  -26.9050   22.6470 C   0  0  0  0  0  2  0  0  0  0  0  0
  -19.5380  -26.5600   21.6520 C   0  0  0  0  0  2  0  0  0  0  0  0
  -18.1610  -26.7070   22.3040 C   0  0  0  0  0  2  0  0  0  0  0  0
  -19.1010  -28.8340   23.3860 C   0  0  0  0  0  0  0  0  0  0  0  0
  -18.8780  -30.0970   23.9720 C   0  0  0  0  0  3  0  0  0  0  0  0
  -17.5710  -30.5930   24.1440 C   0  0  0  0  0  3  0  0  0  0  0  0
  -16.4690  -29.8170   23.7460 C   0  0  0  0  0  3  0  0  0  0  0  0
  -16.6770  -28.5530   23.1680 C   0  0  0  0  0  3  0  0  0  0  0  0
  -25.8350  -32.5400   23.7690 C   0  0  0  0  0  3  0  0  0  0  0  0
  -25.5240  -33.9330   24.1180 N   0  0  0  0  0  0  0  0  0  0  0  0
  -25.8510  -34.9950   23.3710 C   0  0  0  0  0  0  0  0  0  0  0  0
  -26.5180  -34.9050   22.3360 O   0  0  0  0  0  0  0  0  0  0  0  0
  -24.9360  -34.0760   24.9260 H   0  0  0  0  0  0  0  0  0  0  0  0
  -24.1400  -36.8040   23.0150 C   0  0  0  0  0  1  0  0  0  0  0  0
  -25.3630  -36.3780   23.8450 C   0  0  0  0  0  3  0  0  0  0  0  0
  -27.4830  -37.2380   24.7380 C   0  0  0  0  0  1  0  0  0  0  0  0
  -26.4030  -37.4280   23.7730 N   0  0  0  0  0  0  0  0  0  0  0  0
  -26.0000  -38.3480   23.9260 H   0  0  0  0  0  0  0  0  0  0  0  0
  -26.3860  -31.7630   25.0270 C   0  0  1  0  0  0  0  0  0  0  0  0
  -25.3150  -31.5090   26.1150 C   0  0  0  0  0  1  0  0  0  0  0  0
  -26.9740  -30.3970   24.6090 C   0  0  0  0  0  1  0  0  0  0  0  0
  -27.5450  -32.5620   25.6710 C   0  0  0  0  0  1  0  0  0  0  0  0
  1  3  1  0
  2  1  2  0
  3  7  2  0
  4  6  1  0
  4 13  1  0
  5  2  1  0
  5  6  1  0
  6  3  1  0
  8  4  2  0
 10  9  2  0
 11  9  1  0
 12 13  2  0
 12 14  1  0
 13 10  1  0
 14 11  2  0
 15 23  1  0
 16 21  1  0
 17 18  1  0
 17 16  1  0
 19 18  1  0
 19 28  1  0
 19 20  1  0
 21 15  1  0
 21 20  1  0
 22 15  2  0
 23 24  1  0
 23 14  1  0
 25 26  2  0
 26 45  1  0
 27 26  1  0
 27 30  1  0
 28 25  1  0
 28 29  1  0
 29 27  2  0
 30 31  1  0
 31 32  2  0
 33 36  1  0
 33 32  1  0
 34 33  2  0
 35 34  1  0
 35 30  2  0
 36 37  1  0
 37 42  2  0
 37 38  1  0
 38 39  2  0
 39 40  1  0
 40 44  1  0
 41 40  2  0
 42 41  1  0
 43 42  1  0
 45 46  1  0
 46 49  1  0
 46 48  1  0
 47 45  2  0
 50 51  1  0
 50 25  1  0
 52 50  1  0
 53  2  1  0
 53 54  1  0
 55 66  2  0
 56 54  1  0
 56 61  1  0
 57 65  1  0
 57 67  1  0
 58 64  1  0
 58 60  1  0
 59 65  1  0
 60 59  1  0
 61 60  2  0
 62 63  1  0
 62 56  2  0
 63 58  2  0
 64 57  1  0
 65 55  1  0
 67 69  2  0
 68 67  1  0
 70 68  1  0
 71 80  2  0
 71 76  1  0
 72 68  1  0
 72 76  1  0
 73 72  1  0
 74 75  1  0
 74 73  1  0
 75 71  1  0
 76 77  2  0
 77 78  1  0
 79 78  2  0
 80 79  1  0
 81 55  1  0
 81 82  1  0
 81 91  1  0
 82 85  1  0
 83 87  1  0
 83 82  1  0
 84 83  2  0
 87 86  1  0
 89 87  1  0
 89 90  1  0
 89 88  1  0
 91 94  1  1
 91 92  1  0
 93 91  1  0
M  ISO  4  15 100  23 100  53 101  54 101
M  END
>  <TORSDO>  (44) 
F 18

>  <SCORE>  (44) 
-14.514

>  <name>  (44) 
43

>  <ligand_id>  (44) 
43

>  <original_smiles>  (44) 
[H]C1=C(C([H])([H])Oc2c([H])c([H])c3c(c2[H])C([H])([H])N(C(=O)C([H])(N([H])C(=O)C([H])(N([H])C([H])([H])[H])C([H])([H])[H])C(C([H])([H])[H])(C([H])([H])[H])C([H])([H])[H])C([H])(C(=O)N([H])C2([H])c4c([H])c([H])c([H])c([H])c4C([H])([H])C([H])([H])C2([H])[H])C3([H])[H])C([H])([H])N(C(=O)c2c([H])c([H])c([H])c(N([H])C(=O)N3C([H])([H])C([H])([H])C([H])([H])C([H])(n4nc(-c5c([H])c([H])c(Oc6c([H])c([H])c(F)c([H])c6F)c([H])c5[H])c(C(=O)N([H])[H])c4N([H])[H])C3([H])[H])c2[H])C1=O

>  <smiles>  (44) 
[H]C1=C(C([H])([H])Oc2c([H])c([H])c3c(c2[H])C([H])([H])N(C(=O)C([H])(N([H])C(=O)C([H])(N([H])C([H])([H])[H])C([H])([H])[H])C(C([H])([H])[H])(C([H])([H])[H])C([H])([H])[H])C([H])(C(=O)N([H])C2([H])c4c([H])c([H])c([H])c([H])c4C([H])([H])C([H])([H])C2([H])[H])C3([H])[H])C([H])([H])N(C(=O)c2c([H])c([H])c([H])c(N([H])C(=O)N3C([H])([H])C([H])([H])C([H])([H])C([H])(n4nc(-c5c([H])c([H])c(Oc6c([H])c([H])c(F)c([H])c6F)c([H])c5[H])c(C(=O)N([H])[H])c4N([H])[H])C3([H])[H])c2[H])C1=O

$$$$
44:0:0
     RDKit          3D

 93102  0  0  1  0  0  0  0  0999 V2000
  -28.4400  -24.2450   20.7050 C   0  0  0  0  0  0  0  0  0  0  0  0
  -28.1530  -23.0770   21.5060 C   0  0  0  0  0  0  0  0  0  0  0  0
  -28.1920  -25.5550   20.9630 C   0  0  0  0  0  3  0  0  0  0  0  0
  -29.0660  -23.3840   19.6260 C   0  0  0  0  0  2  0  0  0  0  0  0
  -28.5930  -22.2560   20.4640 N   0  0  0  0  0  0  0  0  0  0  0  0
  -27.8090  -22.9520   22.6630 O   0  0  0  0  0  0  0  0  0  0  0  0
  -31.0580  -19.3770   20.0640 C   0  0  0  0  0  3  0  0  0  0  0  0
  -28.9450  -18.4530   20.7730 C   0  0  0  0  0  3  0  0  0  0  0  0
  -30.4960  -20.6730   20.0340 C   0  0  0  0  0  3  0  0  0  0  0  0
  -28.4010  -19.7690   20.7690 C   0  0  0  0  0  3  0  0  0  0  0  0
  -30.3010  -18.2390   20.4310 C   0  0  0  0  0  0  0  0  0  0  0  0
  -29.1520  -20.9280   20.4100 C   0  0  0  0  0  0  0  0  0  0  0  0
  -30.9900  -14.6140   19.8070 C   0  0  0  0  0  0  0  0  0  0  0  0
  -30.5540  -12.4320   18.7180 C   0  0  0  0  0  2  0  0  0  0  0  0
  -29.5200  -12.5900   17.5880 C   0  0  0  0  0  2  0  0  0  0  0  0
  -28.0900  -12.4520   18.1450 C   0  0  0  0  0  2  0  0  0  0  0  0
  -27.8520  -13.3150   19.4140 C   0  0  0  0  0  3  0  0  0  0  0  0
  -29.0030  -13.1650   20.4330 C   0  0  0  0  0  2  0  0  0  0  0  0
  -30.2580  -13.4650   19.7310 N   0  0  0  0  0  0  0  0  0  0  0  0
  -32.1010  -14.6720   19.2720 O   0  0  0  0  0  0  0  0  0  0  0  0
  -31.0230  -16.9050   20.5610 C   0  0  0  0  0  0  0  0  0  0  0  0
  -30.3850  -15.7300   20.3060 N   0  0  0  0  0  0  0  0  0  0  0  0
  -32.2270  -16.9640   20.8480 O   0  0  0  0  0  0  0  0  0  0  0  0
  -29.3820  -15.7180   20.3890 H   0  0  0  0  0  0  0  0  0  0  0  0
  -25.5620  -13.9170   20.4100 C   0  0  0  0  0  0  0  0  0  0  0  0
  -24.5220  -13.1450   20.8490 C   0  0  0  0  0  0  0  0  0  0  0  0
  -24.9450  -11.7870   20.7020 C   0  0  0  0  0  0  0  0  0  0  0  0
  -26.5550  -13.0320   20.0220 N   0  0  0  0  0  0  0  0  0  0  0  0
  -26.1950  -11.7430   20.2550 N   0  0  0  0  0  0  0  0  0  0  0  0
  -24.2130  -10.5300   20.9000 C   0  0  0  0  0  0  0  0  0  0  0  0
  -24.6470   -9.5570   21.8270 C   0  0  0  0  0  3  0  0  0  0  0  0
  -23.9120   -8.3680   22.0150 C   0  0  0  0  0  3  0  0  0  0  0  0
  -22.7280   -8.1410   21.2740 C   0  0  0  0  0  0  0  0  0  0  0  0
  -22.3120   -9.1010   20.3350 C   0  0  0  0  0  3  0  0  0  0  0  0
  -23.0480  -10.2820   20.1460 C   0  0  0  0  0  3  0  0  0  0  0  0
  -21.9660   -7.0020   21.3710 O   0  0  0  0  0  0  0  0  0  0  0  0
  -21.8310   -6.3230   22.5540 C   0  0  0  0  0  0  0  0  0  0  0  0
  -21.3210   -6.9420   23.7160 C   0  0  0  0  0  3  0  0  0  0  0  0
  -21.1340   -6.1880   24.8920 C   0  0  0  0  0  3  0  0  0  0  0  0
  -21.4490   -4.8170   24.9060 C   0  0  0  0  0  0  0  0  0  0  0  0
  -21.9540   -4.1970   23.7500 C   0  0  0  0  0  3  0  0  0  0  0  0
  -22.1400   -4.9480   22.5750 C   0  0  0  0  0  0  0  0  0  0  0  0
  -22.6060   -4.3410   21.4570 F   0  0  0  0  0  0  0  0  0  0  0  0
  -21.2630   -4.0900   26.0330 F   0  0  0  0  0  0  0  0  0  0  0  0
  -23.1720  -13.6310   21.2930 C   0  0  0  0  0  0  0  0  0  0  0  0
  -22.5230  -12.9040   22.1950 N   0  0  0  0  0  0  0  0  0  0  0  0
  -22.7050  -14.6880   20.8700 O   0  0  0  0  0  0  0  0  0  0  0  0
  -22.9140  -12.0500   22.5620 H   0  0  0  0  0  0  0  0  0  0  0  0
  -21.6190  -13.2090   22.5250 H   0  0  0  0  0  0  0  0  0  0  0  0
  -25.7390  -15.2920   20.2880 N   0  0  0  0  0  0  0  0  0  0  0  0
  -24.9960  -15.9510   20.5000 H   0  0  0  0  0  0  0  0  0  0  0  0
  -26.5460  -15.7390   19.8740 H   0  0  0  0  0  0  0  0  0  0  0  0
  -28.4350  -26.6520   20.1450 O   0  0  0  0  0  0  0  0  0  0  0  0
  -24.6580  -31.8800   23.1850 C   0  0  0  0  0  0  0  0  0  0  0  0
  -27.3500  -27.5010   20.0560 C   0  0  0  0  0  0  0  0  0  0  0  0
  -23.4800  -30.5030   21.5060 C   0  0  0  0  0  3  0  0  0  0  0  0
  -24.9620  -29.0160   20.0500 C   0  0  0  0  0  0  0  0  0  0  0  0
  -26.0060  -30.8860   21.3390 C   0  0  0  0  0  2  0  0  0  0  0  0
  -26.1140  -29.5300   20.6630 C   0  0  0  0  0  0  0  0  0  0  0  0
  -27.3170  -28.7820   20.6620 C   0  0  0  0  0  3  0  0  0  0  0  0
  -26.1900  -27.0170   19.4180 C   0  0  0  0  0  3  0  0  0  0  0  0
  -24.9990  -27.7630   19.4170 C   0  0  0  0  0  3  0  0  0  0  0  0
  -23.7070  -29.8590   20.1120 C   0  0  0  0  0  2  0  0  0  0  0  0
  -24.7320  -31.1030   22.0680 N   0  0  0  0  0  0  0  0  0  0  0  0
  -23.5690  -32.1320   23.7190 O   0  0  0  0  0  0  0  0  0  0  0  0
  -22.8300  -29.4530   22.4360 C   0  0  0  0  0  0  0  0  0  0  0  0
  -21.5080  -29.2570   22.2930 N   0  0  0  0  0  0  0  0  0  0  0  0
  -23.5140  -28.8180   23.2450 O   0  0  0  0  0  0  0  0  0  0  0  0
  -21.0180  -29.8230   21.6150 H   0  0  0  0  0  0  0  0  0  0  0  0
  -18.1490  -28.0010   22.7110 C   0  0  0  0  0  0  0  0  0  0  0  0
  -20.6950  -28.2960   23.0370 C   0  0  0  0  0  3  0  0  0  0  0  0
  -20.8320  -26.8750   22.4440 C   0  0  0  0  0  2  0  0  0  0  0  0
  -19.7550  -26.5470   21.4050 C   0  0  0  0  0  2  0  0  0  0  0  0
  -18.3590  -26.6630   22.0240 C   0  0  0  0  0  2  0  0  0  0  0  0
  -19.2460  -28.7750   23.1740 C   0  0  0  0  0  0  0  0  0  0  0  0
  -18.9940  -30.0280   23.7750 C   0  0  0  0  0  3  0  0  0  0  0  0
  -17.6780  -30.5050   23.9200 C   0  0  0  0  0  3  0  0  0  0  0  0
  -16.5950  -29.7270   23.4750 C   0  0  0  0  0  3  0  0  0  0  0  0
  -16.8310  -28.4760   22.8760 C   0  0  0  0  0  3  0  0  0  0  0  0
  -25.9330  -32.5100   23.8280 C   0  0  0  0  0  3  0  0  0  0  0  0
  -25.6110  -33.9010   24.1700 N   0  0  0  0  0  0  0  0  0  0  0  0
  -25.9380  -34.9630   23.4200 C   0  0  0  0  0  0  0  0  0  0  0  0
  -26.6100  -34.8740   22.3900 O   0  0  0  0  0  0  0  0  0  0  0  0
  -25.0130  -34.0440   24.9690 H   0  0  0  0  0  0  0  0  0  0  0  0
  -24.1920  -36.7400   23.0810 C   0  0  0  0  0  1  0  0  0  0  0  0
  -25.4380  -36.3420   23.8880 C   0  0  0  0  0  3  0  0  0  0  0  0
  -27.5650  -37.2440   24.7220 C   0  0  0  0  0  1  0  0  0  0  0  0
  -26.4600  -37.4060   23.7810 N   0  0  0  0  0  0  0  0  0  0  0  0
  -26.0450  -38.3210   23.9340 H   0  0  0  0  0  0  0  0  0  0  0  0
  -26.4370  -31.7250   25.1000 C   0  0  1  0  0  0  0  0  0  0  0  0
  -25.3320  -31.4720   26.1500 C   0  0  0  0  0  1  0  0  0  0  0  0
  -27.0310  -30.3530   24.6970 C   0  0  0  0  0  1  0  0  0  0  0  0
  -27.5750  -32.5160   25.7860 C   0  0  0  0  0  1  0  0  0  0  0  0
  1  3  2  0
  1  2  1  0
  2  6  2  0
  4  5  1  0
  4  1  1  0
  5  2  1  0
  7 11  1  0
  9  7  2  0
  9 12  1  0
 10  8  1  0
 11 21  1  0
 11  8  2  0
 12  5  1  0
 12 10  2  0
 13 22  1  0
 14 19  1  0
 15 16  1  0
 15 14  1  0
 17 16  1  0
 17 28  1  0
 17 18  1  0
 19 13  1  0
 19 18  1  0
 20 13  2  0
 21 23  2  0
 22 24  1  0
 22 21  1  0
 25 26  2  0
 26 45  1  0
 27 26  1  0
 27 30  1  0
 28 29  1  0
 28 25  1  0
 29 27  2  0
 30 31  1  0
 31 32  2  0
 33 36  1  0
 33 32  1  0
 34 33  2  0
 35 34  1  0
 35 30  2  0
 36 37  1  0
 37 42  2  0
 37 38  1  0
 38 39  2  0
 39 40  1  0
 40 44  1  0
 41 40  2  0
 42 41  1  0
 43 42  1  0
 45 46  1  0
 46 49  1  0
 46 48  1  0
 47 45  2  0
 50 25  1  0
 50 51  1  0
 52 50  1  0
 53  3  1  0
 54 65  2  0
 55 53  1  0
 55 60  1  0
 56 64  1  0
 56 66  1  0
 57 63  1  0
 57 59  1  0
 58 64  1  0
 59 58  1  0
 60 59  2  0
 61 55  2  0
 62 61  1  0
 62 57  2  0
 63 56  1  0
 64 54  1  0
 66 68  2  0
 67 66  1  0
 69 67  1  0
 70 79  2  0
 70 75  1  0
 71 67  1  0
 71 75  1  0
 72 71  1  0
 73 74  1  0
 73 72  1  0
 74 70  1  0
 75 76  2  0
 76 77  1  0
 78 77  2  0
 79 78  1  0
 80 54  1  0
 80 81  1  0
 80 90  1  0
 81 84  1  0
 82 86  1  0
 82 81  1  0
 83 82  2  0
 86 85  1  0
 88 86  1  0
 88 89  1  0
 88 87  1  0
 90 93  1  1
 90 91  1  0
 92 90  1  0
M  ISO  4   3 101  13 100  22 100  53 101
M  END
>  <TORSDO>  (45) 
F 17

>  <SCORE>  (45) 
-14.036

>  <name>  (45) 
44

>  <ligand_id>  (45) 
44

>  <original_smiles>  (45) 
[H]C(Oc1c([H])c([H])c2c(c1[H])C([H])([H])N(C(=O)C([H])(N([H])C(=O)C([H])(N([H])C([H])([H])[H])C([H])([H])[H])C(C([H])([H])[H])(C([H])([H])[H])C([H])([H])[H])C([H])(C(=O)N([H])C1([H])c3c([H])c([H])c([H])c([H])c3C([H])([H])C([H])([H])C1([H])[H])C2([H])[H])=C1C(=O)N(c2c([H])c([H])c(C(=O)N([H])C(=O)N3C([H])([H])C([H])([H])C([H])([H])C([H])(n4nc(-c5c([H])c([H])c(Oc6c([H])c([H])c(F)c([H])c6F)c([H])c5[H])c(C(=O)N([H])[H])c4N([H])[H])C3([H])[H])c([H])c2[H])C1([H])[H]

>  <smiles>  (45) 
[H]C(Oc1c([H])c([H])c2c(c1[H])C([H])([H])N(C(=O)C([H])(N([H])C(=O)C([H])(N([H])C([H])([H])[H])C([H])([H])[H])C(C([H])([H])[H])(C([H])([H])[H])C([H])([H])[H])C([H])(C(=O)N([H])C1([H])c3c([H])c([H])c([H])c([H])c3C([H])([H])C([H])([H])C1([H])[H])C2([H])[H])=C1C(=O)N(c2c([H])c([H])c(C(=O)N([H])C(=O)N3C([H])([H])C([H])([H])C([H])([H])C([H])(n4nc(-c5c([H])c([H])c(Oc6c([H])c([H])c(F)c([H])c6F)c([H])c5[H])c(C(=O)N([H])[H])c4N([H])[H])C3([H])[H])c([H])c2[H])C1([H])[H]

$$$$
45:0:0
     RDKit          3D

 92101  0  0  1  0  0  0  0  0999 V2000
  -28.3080  -23.3400   20.2970 C   0  0  0  0  0  0  0  0  0  0  0  0
  -29.5050  -22.5940   19.8190 C   0  0  0  0  0  0  0  0  0  0  0  0
  -27.8120  -24.6820   20.4600 C   0  0  0  0  0  3  0  0  0  0  0  0
  -27.6870  -21.9130   20.6030 C   0  0  0  0  0  2  0  0  0  0  0  0
  -28.9480  -21.2770   20.1220 N   0  0  0  0  0  0  0  0  0  0  0  0
  -30.5500  -23.0080   19.3590 O   0  0  0  0  0  0  0  0  0  0  0  0
  -28.8860  -17.1770   20.5260 C   0  0  0  0  0  3  0  0  0  0  0  0
  -28.5220  -18.6080   20.5800 C   0  0  0  0  0  3  0  0  0  0  0  0
  -30.4240  -19.1710   19.4370 C   0  0  0  0  0  3  0  0  0  0  0  0
  -30.0710  -16.6340   19.9060 C   0  0  0  0  0  0  0  0  0  0  0  0
  -29.2620  -19.7460   20.0610 C   0  0  0  0  0  0  0  0  0  0  0  0
  -30.8110  -17.7640   19.3490 C   0  0  0  0  0  0  0  0  0  0  0  0
  -30.6120  -15.0780   19.8830 C   0  0  0  0  0  0  0  0  0  0  0  0
  -30.3520  -12.7150   18.9840 C   0  0  0  0  0  2  0  0  0  0  0  0
  -29.3650  -12.6410   17.7990 C   0  0  0  0  0  2  0  0  0  0  0  0
  -27.9340  -12.4180   18.3140 C   0  0  0  0  0  2  0  0  0  0  0  0
  -27.5810  -13.3500   19.5030 C   0  0  0  0  0  3  0  0  0  0  0  0
  -28.7010  -13.4380   20.5600 C   0  0  0  0  0  2  0  0  0  0  0  0
  -29.9280  -13.8520   19.8680 N   0  0  0  0  0  0  0  0  0  0  0  0
  -31.8160  -14.9490   19.6280 O   0  0  0  0  0  0  0  0  0  0  0  0
  -25.2610  -13.8870   20.4200 C   0  0  0  0  0  0  0  0  0  0  0  0
  -24.2250  -13.0990   20.8350 C   0  0  0  0  0  0  0  0  0  0  0  0
  -24.6910  -11.7510   20.7430 C   0  0  0  0  0  0  0  0  0  0  0  0
  -26.2880  -13.0230   20.0900 N   0  0  0  0  0  0  0  0  0  0  0  0
  -25.9630  -11.7300   20.3540 N   0  0  0  0  0  0  0  0  0  0  0  0
  -23.9790  -10.4820   20.9450 C   0  0  0  0  0  0  0  0  0  0  0  0
  -24.4340   -9.5150   21.8690 C   0  0  0  0  0  3  0  0  0  0  0  0
  -23.7190   -8.3130   22.0600 C   0  0  0  0  0  3  0  0  0  0  0  0
  -22.5330   -8.0680   21.3290 C   0  0  0  0  0  0  0  0  0  0  0  0
  -22.0960   -9.0220   20.3930 C   0  0  0  0  0  3  0  0  0  0  0  0
  -22.8120  -10.2160   20.1990 C   0  0  0  0  0  3  0  0  0  0  0  0
  -21.7870   -6.9190   21.4310 O   0  0  0  0  0  0  0  0  0  0  0  0
  -21.7240   -6.2030   22.6000 C   0  0  0  0  0  0  0  0  0  0  0  0
  -21.2670   -6.7810   23.8040 C   0  0  0  0  0  3  0  0  0  0  0  0
  -21.1520   -5.9920   24.9650 C   0  0  0  0  0  3  0  0  0  0  0  0
  -21.4820   -4.6240   24.9240 C   0  0  0  0  0  0  0  0  0  0  0  0
  -21.9290   -4.0440   23.7220 C   0  0  0  0  0  3  0  0  0  0  0  0
  -22.0460   -4.8310   22.5640 C   0  0  0  0  0  0  0  0  0  0  0  0
  -22.4590   -4.2630   21.4060 F   0  0  0  0  0  0  0  0  0  0  0  0
  -21.3640   -3.8620   26.0360 F   0  0  0  0  0  0  0  0  0  0  0  0
  -22.8460  -13.5640   21.1960 C   0  0  0  0  0  0  0  0  0  0  0  0
  -22.1690  -12.8470   22.0840 N   0  0  0  0  0  0  0  0  0  0  0  0
  -22.3760  -14.5990   20.7230 O   0  0  0  0  0  0  0  0  0  0  0  0
  -22.5660  -12.0120   22.4900 H   0  0  0  0  0  0  0  0  0  0  0  0
  -21.2420  -13.1350   22.3640 H   0  0  0  0  0  0  0  0  0  0  0  0
  -25.4100  -15.2630   20.2660 N   0  0  0  0  0  0  0  0  0  0  0  0
  -24.6460  -15.9070   20.4370 H   0  0  0  0  0  0  0  0  0  0  0  0
  -26.2270  -15.7100   19.8700 H   0  0  0  0  0  0  0  0  0  0  0  0
  -32.0040  -17.5580   18.6480 N   0  0  0  0  0  0  0  0  0  0  0  0
  -32.4890  -18.2890   18.1370 H   0  0  0  0  0  0  0  0  0  0  0  0
  -32.4370  -16.6360   18.6140 H   0  0  0  0  0  0  0  0  0  0  0  0
  -28.2210  -26.0920   20.2590 O   0  0  0  0  0  0  0  0  0  0  0  0
  -24.6590  -31.8970   23.2440 C   0  0  0  0  0  0  0  0  0  0  0  0
  -27.2180  -27.1450   20.2170 C   0  0  0  0  0  0  0  0  0  0  0  0
  -23.4610  -30.5010   21.6050 C   0  0  0  0  0  3  0  0  0  0  0  0
  -24.9100  -28.9260   20.1790 C   0  0  0  0  0  0  0  0  0  0  0  0
  -26.0190  -30.7520   21.4510 C   0  0  0  0  0  2  0  0  0  0  0  0
  -26.0900  -29.3570   20.7990 C   0  0  0  0  0  0  0  0  0  0  0  0
  -27.2460  -28.4790   20.8060 C   0  0  0  0  0  3  0  0  0  0  0  0
  -26.0210  -26.8410   19.5360 C   0  0  0  0  0  3  0  0  0  0  0  0
  -24.8900  -27.6830   19.5290 C   0  0  0  0  0  3  0  0  0  0  0  0
  -23.6860  -29.8270   20.2260 C   0  0  0  0  0  2  0  0  0  0  0  0
  -24.7340  -31.0730   22.1530 N   0  0  0  0  0  0  0  0  0  0  0  0
  -23.5710  -32.1840   23.7680 O   0  0  0  0  0  0  0  0  0  0  0  0
  -22.7790  -29.4950   22.5660 C   0  0  0  0  0  0  0  0  0  0  0  0
  -21.4490  -29.3300   22.4400 N   0  0  0  0  0  0  0  0  0  0  0  0
  -23.4480  -28.8660   23.3890 O   0  0  0  0  0  0  0  0  0  0  0  0
  -20.9660  -29.8890   21.7520 H   0  0  0  0  0  0  0  0  0  0  0  0
  -18.0630  -28.1400   22.9510 C   0  0  0  0  0  0  0  0  0  0  0  0
  -20.6240  -28.3930   23.2110 C   0  0  0  0  0  3  0  0  0  0  0  0
  -20.7170  -26.9610   22.6340 C   0  0  0  0  0  2  0  0  0  0  0  0
  -19.6120  -26.6430   21.6220 C   0  0  0  0  0  2  0  0  0  0  0  0
  -18.2340  -26.7900   22.2710 C   0  0  0  0  0  2  0  0  0  0  0  0
  -19.1860  -28.8980   23.3780 C   0  0  0  0  0  0  0  0  0  0  0  0
  -18.9720  -30.1600   23.9760 C   0  0  0  0  0  3  0  0  0  0  0  0
  -17.6680  -30.6630   24.1500 C   0  0  0  0  0  3  0  0  0  0  0  0
  -16.5600  -29.9020   23.7370 C   0  0  0  0  0  3  0  0  0  0  0  0
  -16.7600  -28.6410   23.1450 C   0  0  0  0  0  3  0  0  0  0  0  0
  -25.9350  -32.5330   23.8710 C   0  0  0  0  0  3  0  0  0  0  0  0
  -25.6200  -33.9310   24.2120 N   0  0  0  0  0  0  0  0  0  0  0  0
  -25.9310  -34.9910   23.4540 C   0  0  0  0  0  0  0  0  0  0  0  0
  -26.5800  -34.8960   22.4090 O   0  0  0  0  0  0  0  0  0  0  0  0
  -25.0400  -34.0770   25.0250 H   0  0  0  0  0  0  0  0  0  0  0  0
  -24.1750  -36.7710   23.1590 C   0  0  0  0  0  1  0  0  0  0  0  0
  -25.4470  -36.3770   23.9280 C   0  0  0  0  0  3  0  0  0  0  0  0
  -27.5960  -37.2850   24.6940 C   0  0  0  0  0  1  0  0  0  0  0  0
  -26.4680  -37.4380   23.7790 N   0  0  0  0  0  0  0  0  0  0  0  0
  -26.0580  -38.3560   23.9300 H   0  0  0  0  0  0  0  0  0  0  0  0
  -26.4470  -31.7610   25.1500 C   0  0  1  0  0  0  0  0  0  0  0  0
  -25.3520  -31.5260   26.2160 C   0  0  0  0  0  1  0  0  0  0  0  0
  -27.0300  -30.3810   24.7650 C   0  0  0  0  0  1  0  0  0  0  0  0
  -27.5970  -32.5540   25.8150 C   0  0  0  0  0  1  0  0  0  0  0  0
  1  3  2  0
  1  4  1  0
  2  5  1  0
  2  1  1  0
  5  4  1  0
  6  2  2  0
  7  8  1  0
  9 11  1  0
 10  7  2  0
 11  5  1  0
 11  8  2  0
 12  9  2  0
 12 10  1  0
 13 10  1  0
 14 19  1  0
 15 16  1  0
 15 14  1  0
 17 16  1  0
 17 24  1  0
 17 18  1  0
 19 13  1  0
 19 18  1  0
 20 13  2  0
 21 22  2  0
 22 41  1  0
 23 22  1  0
 23 26  1  0
 24 25  1  0
 24 21  1  0
 25 23  2  0
 26 27  1  0
 27 28  2  0
 29 32  1  0
 29 28  1  0
 30 29  2  0
 31 30  1  0
 31 26  2  0
 32 33  1  0
 33 34  1  0
 34 35  2  0
 36 35  1  0
 36 40  1  0
 37 36  2  0
 38 33  2  0
 38 37  1  0
 39 38  1  0
 41 42  1  0
 42 45  1  0
 42 44  1  0
 43 41  2  0
 46 21  1  0
 46 47  1  0
 48 46  1  0
 49 12  1  0
 50 49  1  0
 51 49  1  0
 52  3  1  0
 53 64  2  0
 54 52  1  0
 54 59  1  0
 55 63  1  0
 55 65  1  0
 56 62  1  0
 56 58  1  0
 57 63  1  0
 58 59  2  0
 58 57  1  0
 60 54  2  0
 61 60  1  0
 61 56  2  0
 62 55  1  0
 63 53  1  0
 65 67  2  0
 66 65  1  0
 68 66  1  0
 69 78  2  0
 69 74  1  0
 70 66  1  0
 70 74  1  0
 71 70  1  0
 72 73  1  0
 72 71  1  0
 73 69  1  0
 74 75  2  0
 75 76  1  0
 77 76  2  0
 78 77  1  0
 79 53  1  0
 79 80  1  0
 79 89  1  0
 80 83  1  0
 81 85  1  0
 81 80  1  0
 82 81  2  0
 85 84  1  0
 87 85  1  0
 87 88  1  0
 87 86  1  0
 89 92  1  1
 89 90  1  0
 91 89  1  0
M  ISO  4   3 101  10 100  13 100  52 101
M  END
>  <TORSDO>  (46) 
F 18

>  <SCORE>  (46) 
-14.833

>  <name>  (46) 
45

>  <ligand_id>  (46) 
45

>  <original_smiles>  (46) 
[H]C(Oc1c([H])c([H])c2c(c1[H])C([H])([H])N(C(=O)C([H])(N([H])C(=O)C([H])(N([H])C([H])([H])[H])C([H])([H])[H])C(C([H])([H])[H])(C([H])([H])[H])C([H])([H])[H])C([H])(C(=O)N([H])C1([H])c3c([H])c([H])c([H])c([H])c3C([H])([H])C([H])([H])C1([H])[H])C2([H])[H])=C1C(=O)N(c2c([H])c([H])c(C(=O)N3C([H])([H])C([H])([H])C([H])([H])C([H])(n4nc(-c5c([H])c([H])c(Oc6c([H])c([H])c(F)c([H])c6F)c([H])c5[H])c(C(=O)N([H])[H])c4N([H])[H])C3([H])[H])c(N([H])[H])c2[H])C1([H])[H]

>  <smiles>  (46) 
[H]C(Oc1c([H])c([H])c2c(c1[H])C([H])([H])N(C(=O)C([H])(N([H])C(=O)C([H])(N([H])C([H])([H])[H])C([H])([H])[H])C(C([H])([H])[H])(C([H])([H])[H])C([H])([H])[H])C([H])(C(=O)N([H])C1([H])c3c([H])c([H])c([H])c([H])c3C([H])([H])C([H])([H])C1([H])[H])C2([H])[H])=C1C(=O)N(c2c([H])c([H])c(C(=O)N3C([H])([H])C([H])([H])C([H])([H])C([H])(n4nc(-c5c([H])c([H])c(Oc6c([H])c([H])c(F)c([H])c6F)c([H])c5[H])c(C(=O)N([H])[H])c4N([H])[H])C3([H])[H])c(N([H])[H])c2[H])C1([H])[H]

$$$$
46:0:0
     RDKit          3D

 91100  0  0  1  0  0  0  0  0999 V2000
  -28.7280  -24.3580   20.7340 C   0  0  0  0  0  0  0  0  0  0  0  0
  -28.6010  -23.2470   21.6440 C   0  0  0  0  0  0  0  0  0  0  0  0
  -28.3980  -25.6600   20.9200 C   0  0  0  0  0  3  0  0  0  0  0  0
  -29.2730  -23.4490   19.6390 C   0  0  0  0  0  2  0  0  0  0  0  0
  -29.0500  -22.3890   20.6430 N   0  0  0  0  0  0  0  0  0  0  0  0
  -28.2280  -23.1740   22.7970 O   0  0  0  0  0  0  0  0  0  0  0  0
  -29.7900  -19.0520   18.9760 C   0  0  0  0  0  3  0  0  0  0  0  0
  -29.5640  -18.6660   21.3400 C   0  0  0  0  0  3  0  0  0  0  0  0
  -29.5420  -20.4280   19.1700 C   0  0  0  0  0  3  0  0  0  0  0  0
  -29.3100  -20.0520   21.5200 C   0  0  0  0  0  3  0  0  0  0  0  0
  -29.8180  -18.1400   20.0540 C   0  0  0  0  0  0  0  0  0  0  0  0
  -29.2980  -20.9870   20.4470 C   0  0  0  0  0  0  0  0  0  0  0  0
  -30.1720  -16.7110   19.7670 C   0  0  0  0  0  2  0  0  0  0  0  0
  -30.2580  -15.6990   20.5620 N   0  0  0  0  0  2  0  0  0  0  0  0
  -30.9150  -14.5980   19.9900 C   0  0  0  0  0  0  0  0  0  0  0  0
  -30.5090  -12.4540   18.8320 C   0  0  0  0  0  2  0  0  0  0  0  0
  -29.4960  -12.6820   17.6940 C   0  0  0  0  0  2  0  0  0  0  0  0
  -28.0550  -12.5250   18.2190 C   0  0  0  0  0  2  0  0  0  0  0  0
  -27.7980  -13.3430   19.5120 C   0  0  0  0  0  3  0  0  0  0  0  0
  -28.9270  -13.1320   20.5450 C   0  0  0  0  0  2  0  0  0  0  0  0
  -30.2080  -13.4350   19.8900 N   0  0  0  0  0  0  0  0  0  0  0  0
  -32.0150  -14.7040   19.4420 O   0  0  0  0  0  0  0  0  0  0  0  0
  -25.4620  -13.9260   20.4140 C   0  0  0  0  0  0  0  0  0  0  0  0
  -24.4180  -13.1440   20.8310 C   0  0  0  0  0  0  0  0  0  0  0  0
  -24.8690  -11.7920   20.7200 C   0  0  0  0  0  0  0  0  0  0  0  0
  -26.4840  -13.0520   20.0770 N   0  0  0  0  0  0  0  0  0  0  0  0
  -26.1340  -11.7600   20.3180 N   0  0  0  0  0  0  0  0  0  0  0  0
  -24.1520  -10.5260   20.9180 C   0  0  0  0  0  0  0  0  0  0  0  0
  -24.5980   -9.5590   21.8450 C   0  0  0  0  0  3  0  0  0  0  0  0
  -23.8800   -8.3570   22.0290 C   0  0  0  0  0  3  0  0  0  0  0  0
  -22.7000   -8.1150   21.2860 C   0  0  0  0  0  0  0  0  0  0  0  0
  -22.2710   -9.0710   20.3490 C   0  0  0  0  0  3  0  0  0  0  0  0
  -22.9920  -10.2620   20.1620 C   0  0  0  0  0  3  0  0  0  0  0  0
  -21.9530   -6.9660   21.3800 O   0  0  0  0  0  0  0  0  0  0  0  0
  -21.8540   -6.2660   22.5560 C   0  0  0  0  0  0  0  0  0  0  0  0
  -21.3470   -6.8570   23.7340 C   0  0  0  0  0  3  0  0  0  0  0  0
  -21.1960   -6.0830   24.9010 C   0  0  0  0  0  3  0  0  0  0  0  0
  -21.5430   -4.7180   24.8920 C   0  0  0  0  0  0  0  0  0  0  0  0
  -22.0420   -4.1270   23.7180 C   0  0  0  0  0  3  0  0  0  0  0  0
  -22.1930   -4.8980   22.5520 C   0  0  0  0  0  0  0  0  0  0  0  0
  -22.6540   -4.3190   21.4180 F   0  0  0  0  0  0  0  0  0  0  0  0
  -21.3910   -3.9720   26.0110 F   0  0  0  0  0  0  0  0  0  0  0  0
  -23.0470  -13.6140   21.2220 C   0  0  0  0  0  0  0  0  0  0  0  0
  -22.3810  -12.8900   22.1140 N   0  0  0  0  0  0  0  0  0  0  0  0
  -22.5780  -14.6590   20.7710 O   0  0  0  0  0  0  0  0  0  0  0  0
  -22.7740  -12.0430   22.5000 H   0  0  0  0  0  0  0  0  0  0  0  0
  -21.4640  -13.1870   22.4190 H   0  0  0  0  0  0  0  0  0  0  0  0
  -25.6250  -15.3020   20.2750 N   0  0  0  0  0  0  0  0  0  0  0  0
  -24.8770  -15.9600   20.4620 H   0  0  0  0  0  0  0  0  0  0  0  0
  -26.4720  -15.7450   19.9400 H   0  0  0  0  0  0  0  0  0  0  0  0
  -28.4790  -26.6910   20.0040 O   0  0  0  0  0  0  0  0  0  0  0  0
  -24.7360  -31.8680   23.1970 C   0  0  0  0  0  0  0  0  0  0  0  0
  -27.3620  -27.4990   19.9920 C   0  0  0  0  0  0  0  0  0  0  0  0
  -23.5160  -30.4800   21.5530 C   0  0  0  0  0  3  0  0  0  0  0  0
  -24.9610  -28.9920   20.0660 C   0  0  0  0  0  0  0  0  0  0  0  0
  -26.0360  -30.8700   21.3170 C   0  0  0  0  0  2  0  0  0  0  0  0
  -26.1270  -29.5140   20.6450 C   0  0  0  0  0  0  0  0  0  0  0  0
  -27.3350  -28.7740   20.6070 C   0  0  0  0  0  3  0  0  0  0  0  0
  -26.1850  -26.9960   19.4020 C   0  0  0  0  0  3  0  0  0  0  0  0
  -24.9850  -27.7320   19.4390 C   0  0  0  0  0  3  0  0  0  0  0  0
  -23.7070  -29.8320   20.1560 C   0  0  0  0  0  2  0  0  0  0  0  0
  -24.7810  -31.0870   22.0810 N   0  0  0  0  0  0  0  0  0  0  0  0
  -23.6620  -32.1180   23.7620 O   0  0  0  0  0  0  0  0  0  0  0  0
  -22.8930  -29.4350   22.5050 C   0  0  0  0  0  0  0  0  0  0  0  0
  -21.5730  -29.2210   22.3820 N   0  0  0  0  0  0  0  0  0  0  0  0
  -23.5940  -28.8200   23.3120 O   0  0  0  0  0  0  0  0  0  0  0  0
  -21.0650  -29.7720   21.7030 H   0  0  0  0  0  0  0  0  0  0  0  0
  -18.2400  -27.9050   22.8400 C   0  0  0  0  0  0  0  0  0  0  0  0
  -20.7820  -28.2570   23.1450 C   0  0  0  0  0  3  0  0  0  0  0  0
  -20.9440  -26.8280   22.5770 C   0  0  0  0  0  2  0  0  0  0  0  0
  -19.8690  -26.4630   21.5480 C   0  0  0  0  0  2  0  0  0  0  0  0
  -18.4740  -26.5600   22.1740 C   0  0  0  0  0  2  0  0  0  0  0  0
  -19.3230  -28.7100   23.2830 C   0  0  0  0  0  0  0  0  0  0  0  0
  -19.0520  -29.9670   23.8630 C   0  0  0  0  0  3  0  0  0  0  0  0
  -17.7270  -30.4220   24.0080 C   0  0  0  0  0  3  0  0  0  0  0  0
  -16.6570  -29.6160   23.5840 C   0  0  0  0  0  3  0  0  0  0  0  0
  -16.9150  -28.3600   23.0060 C   0  0  0  0  0  3  0  0  0  0  0  0
  -26.0290  -32.5000   23.8040 C   0  0  0  0  0  3  0  0  0  0  0  0
  -25.7190  -33.8920   24.1530 N   0  0  0  0  0  0  0  0  0  0  0  0
  -26.0370  -34.9550   23.4010 C   0  0  0  0  0  0  0  0  0  0  0  0
  -26.6950  -34.8650   22.3610 O   0  0  0  0  0  0  0  0  0  0  0  0
  -25.1320  -34.0340   24.9620 H   0  0  0  0  0  0  0  0  0  0  0  0
  -24.2940  -36.7380   23.0820 C   0  0  0  0  0  1  0  0  0  0  0  0
  -25.5460  -36.3340   23.8780 C   0  0  0  0  0  3  0  0  0  0  0  0
  -27.6840  -37.2220   24.6940 C   0  0  0  0  0  1  0  0  0  0  0  0
  -26.5710  -37.3950   23.7650 N   0  0  0  0  0  0  0  0  0  0  0  0
  -26.1610  -38.3100   23.9290 H   0  0  0  0  0  0  0  0  0  0  0  0
  -26.5710  -31.7150   25.0600 C   0  0  1  0  0  0  0  0  0  0  0  0
  -25.4980  -31.4620   26.1440 C   0  0  0  0  0  1  0  0  0  0  0  0
  -27.1520  -30.3450   24.6390 C   0  0  0  0  0  1  0  0  0  0  0  0
  -27.7300  -32.5060   25.7120 C   0  0  0  0  0  1  0  0  0  0  0  0
  1  3  2  0
  1  2  1  0
  2  6  2  0
  4  5  1  0
  4  1  1  0
  5  2  1  0
  7  9  2  0
  7 11  1  0
  8 10  1  0
  9 12  1  0
 11  8  2  0
 12  5  1  0
 12 10  2  0
 13 11  1  0
 13 14  1  0
 15 14  1  0
 16 21  1  0
 17 18  1  0
 17 16  1  0
 19 18  1  0
 19 26  1  0
 19 20  1  0
 21 15  1  0
 21 20  1  0
 22 15  2  0
 23 24  2  0
 24 43  1  0
 25 24  1  0
 25 28  1  0
 26 27  1  0
 26 23  1  0
 27 25  2  0
 28 29  1  0
 29 30  2  0
 31 34  1  0
 31 30  1  0
 32 31  2  0
 33 32  1  0
 33 28  2  0
 34 35  1  0
 35 36  1  0
 36 37  2  0
 38 37  1  0
 38 42  1  0
 39 38  2  0
 40 35  2  0
 40 39  1  0
 41 40  1  0
 43 44  1  0
 44 47  1  0
 44 46  1  0
 45 43  2  0
 48 23  1  0
 48 49  1  0
 50 48  1  0
 51  3  1  0
 52 63  2  0
 53 51  1  0
 53 58  1  0
 54 62  1  0
 54 64  1  0
 55 61  1  0
 55 57  1  0
 56 62  1  0
 57 56  1  0
 58 57  2  0
 59 60  1  0
 59 53  2  0
 60 55  2  0
 61 54  1  0
 62 52  1  0
 64 66  2  0
 65 64  1  0
 67 65  1  0
 68 77  2  0
 68 73  1  0
 69 65  1  0
 69 73  1  0
 70 69  1  0
 71 72  1  0
 71 70  1  0
 72 68  1  0
 73 74  2  0
 74 75  1  0
 76 75  2  0
 77 76  1  0
 78 52  1  0
 78 79  1  0
 78 88  1  0
 79 82  1  0
 80 84  1  0
 80 79  1  0
 81 80  2  0
 84 83  1  0
 86 84  1  0
 86 87  1  0
 86 85  1  0
 88 91  1  1
 88 89  1  0
 90 88  1  0
M  ISO  4   3 101  14 100  15 100  51 101
M  END
>  <TORSDO>  (47) 
F 18

>  <SCORE>  (47) 
-13.129

>  <name>  (47) 
46

>  <ligand_id>  (47) 
46

>  <original_smiles>  (47) 
[H]C(=NC(=O)N1C([H])([H])C([H])([H])C([H])([H])C([H])(n2nc(-c3c([H])c([H])c(Oc4c([H])c([H])c(F)c([H])c4F)c([H])c3[H])c(C(=O)N([H])[H])c2N([H])[H])C1([H])[H])c1c([H])c([H])c(N2C(=O)C(=C([H])Oc3c([H])c([H])c4c(c3[H])C([H])([H])N(C(=O)C([H])(N([H])C(=O)C([H])(N([H])C([H])([H])[H])C([H])([H])[H])C(C([H])([H])[H])(C([H])([H])[H])C([H])([H])[H])C([H])(C(=O)N([H])C3([H])c5c([H])c([H])c([H])c([H])c5C([H])([H])C([H])([H])C3([H])[H])C4([H])[H])C2([H])[H])c([H])c1[H]

>  <smiles>  (47) 
[H]C(=NC(=O)N1C([H])([H])C([H])([H])C([H])([H])C([H])(n2nc(-c3c([H])c([H])c(Oc4c([H])c([H])c(F)c([H])c4F)c([H])c3[H])c(C(=O)N([H])[H])c2N([H])[H])C1([H])[H])c1c([H])c([H])c(N2C(=O)C(=C([H])Oc3c([H])c([H])c4c(c3[H])C([H])([H])N(C(=O)C([H])(N([H])C(=O)C([H])(N([H])C([H])([H])[H])C([H])([H])[H])C(C([H])([H])[H])(C([H])([H])[H])C([H])([H])[H])C([H])(C(=O)N([H])C3([H])c5c([H])c([H])c([H])c([H])c5C([H])([H])C([H])([H])C3([H])[H])C4([H])[H])C2([H])[H])c([H])c1[H]

$$$$
47:0:0
     RDKit          3D

 91100  0  0  1  0  0  0  0  0999 V2000
  -28.5220  -23.8140   20.4410 C   0  0  0  0  0  0  0  0  0  0  0  0
  -28.0350  -22.5990   21.0870 C   0  0  0  0  0  0  0  0  0  0  0  0
  -28.0260  -25.1080   20.6080 C   0  0  0  0  0  3  0  0  0  0  0  0
  -29.5820  -22.9470   19.6950 C   0  0  0  0  0  2  0  0  0  0  0  0
  -28.9890  -21.7900   20.4350 N   0  0  0  0  0  0  0  0  0  0  0  0
  -27.1270  -22.4290   21.8750 O   0  0  0  0  0  0  0  0  0  0  0  0
  -28.5410  -19.3850   21.0860 C   0  0  0  0  0  3  0  0  0  0  0  0
  -30.4040  -19.6740   19.6830 C   0  0  0  0  0  3  0  0  0  0  0  0
  -28.7600  -17.9730   21.1060 C   0  0  0  0  0  3  0  0  0  0  0  0
  -30.6490  -18.2460   19.6970 C   0  0  0  0  0  3  0  0  0  0  0  0
  -29.3340  -20.3370   20.3760 C   0  0  0  0  0  0  0  0  0  0  0  0
  -29.8210  -17.3330   20.4150 C   0  0  0  0  0  0  0  0  0  0  0  0
  -30.7030  -14.8350   19.9970 C   0  0  0  0  0  0  0  0  0  0  0  0
  -30.5110  -12.5750   18.9330 C   0  0  0  0  0  2  0  0  0  0  0  0
  -29.4810  -12.6640   17.7830 C   0  0  0  0  0  2  0  0  0  0  0  0
  -28.0430  -12.4640   18.3070 C   0  0  0  0  0  2  0  0  0  0  0  0
  -27.7500  -13.3140   19.5720 C   0  0  0  0  0  3  0  0  0  0  0  0
  -28.8840  -13.1760   20.6130 C   0  0  0  0  0  2  0  0  0  0  0  0
  -30.1390  -13.5770   19.9560 N   0  0  0  0  0  0  0  0  0  0  0  0
  -31.8250  -15.0330   19.5180 O   0  0  0  0  0  0  0  0  0  0  0  0
  -29.8910  -15.8470   20.4800 N   0  0  0  0  0  0  0  0  0  0  0  0
  -29.0830  -15.4430   20.9290 H   0  0  0  0  0  0  0  0  0  0  0  0
  -25.4190  -13.8790   20.4890 C   0  0  0  0  0  0  0  0  0  0  0  0
  -24.3800  -13.0920   20.9030 C   0  0  0  0  0  0  0  0  0  0  0  0
  -24.8330  -11.7430   20.7790 C   0  0  0  0  0  0  0  0  0  0  0  0
  -26.4400  -13.0100   20.1410 N   0  0  0  0  0  0  0  0  0  0  0  0
  -26.0980  -11.7170   20.3760 N   0  0  0  0  0  0  0  0  0  0  0  0
  -24.1180  -10.4730   20.9670 C   0  0  0  0  0  0  0  0  0  0  0  0
  -24.5570   -9.5100   21.9010 C   0  0  0  0  0  3  0  0  0  0  0  0
  -23.8410   -8.3050   22.0750 C   0  0  0  0  0  3  0  0  0  0  0  0
  -22.6720   -8.0570   21.3160 C   0  0  0  0  0  0  0  0  0  0  0  0
  -22.2530   -9.0100   20.3720 C   0  0  0  0  0  3  0  0  0  0  0  0
  -22.9690  -10.2050   20.1950 C   0  0  0  0  0  3  0  0  0  0  0  0
  -21.9280   -6.9050   21.4010 O   0  0  0  0  0  0  0  0  0  0  0  0
  -21.8000   -6.2150   22.5800 C   0  0  0  0  0  0  0  0  0  0  0  0
  -21.2720   -6.8190   23.7430 C   0  0  0  0  0  3  0  0  0  0  0  0
  -21.0940   -6.0550   24.9130 C   0  0  0  0  0  3  0  0  0  0  0  0
  -21.4330   -4.6890   24.9220 C   0  0  0  0  0  0  0  0  0  0  0  0
  -21.9530   -4.0840   23.7640 C   0  0  0  0  0  3  0  0  0  0  0  0
  -22.1340   -4.8460   22.5950 C   0  0  0  0  0  0  0  0  0  0  0  0
  -22.6160   -4.2540   21.4760 F   0  0  0  0  0  0  0  0  0  0  0  0
  -21.2540   -3.9520   26.0430 F   0  0  0  0  0  0  0  0  0  0  0  0
  -23.0070  -13.5570   21.2960 C   0  0  0  0  0  0  0  0  0  0  0  0
  -22.3430  -12.8260   22.1850 N   0  0  0  0  0  0  0  0  0  0  0  0
  -22.5350  -14.6020   20.8520 O   0  0  0  0  0  0  0  0  0  0  0  0
  -22.7400  -11.9810   22.5650 H   0  0  0  0  0  0  0  0  0  0  0  0
  -21.4260  -13.1190   22.4900 H   0  0  0  0  0  0  0  0  0  0  0  0
  -25.5750  -15.2570   20.3590 N   0  0  0  0  0  0  0  0  0  0  0  0
  -24.8150  -15.9030   20.5430 H   0  0  0  0  0  0  0  0  0  0  0  0
  -26.3860  -15.7070   19.9520 H   0  0  0  0  0  0  0  0  0  0  0  0
  -28.3370  -26.3980   20.0830 O   0  0  0  0  0  0  0  0  0  0  0  0
  -24.6380  -31.8620   23.1650 C   0  0  0  0  0  0  0  0  0  0  0  0
  -27.2730  -27.3290   20.0480 C   0  0  0  0  0  0  0  0  0  0  0  0
  -23.4420  -30.4740   21.5120 C   0  0  0  0  0  3  0  0  0  0  0  0
  -24.9030  -28.9520   20.0590 C   0  0  0  0  0  0  0  0  0  0  0  0
  -25.9820  -30.8060   21.3280 C   0  0  0  0  0  2  0  0  0  0  0  0
  -26.0740  -29.4320   20.6630 C   0  0  0  0  0  0  0  0  0  0  0  0
  -27.2630  -28.6320   20.6510 C   0  0  0  0  0  3  0  0  0  0  0  0
  -26.0840  -26.9200   19.4090 C   0  0  0  0  0  3  0  0  0  0  0  0
  -24.9120  -27.7020   19.4200 C   0  0  0  0  0  3  0  0  0  0  0  0
  -23.6590  -29.8180   20.1240 C   0  0  0  0  0  2  0  0  0  0  0  0
  -24.7070  -31.0640   22.0580 N   0  0  0  0  0  0  0  0  0  0  0  0
  -23.5540  -32.1250   23.7050 O   0  0  0  0  0  0  0  0  0  0  0  0
  -22.7880  -29.4420   22.4640 C   0  0  0  0  0  0  0  0  0  0  0  0
  -21.4610  -29.2600   22.3430 N   0  0  0  0  0  0  0  0  0  0  0  0
  -23.4740  -28.8080   23.2700 O   0  0  0  0  0  0  0  0  0  0  0  0
  -20.9660  -29.8230   21.6670 H   0  0  0  0  0  0  0  0  0  0  0  0
  -18.0910  -28.0490   22.8650 C   0  0  0  0  0  0  0  0  0  0  0  0
  -20.6530  -28.3070   23.1060 C   0  0  0  0  0  3  0  0  0  0  0  0
  -20.7490  -26.8860   22.5050 C   0  0  0  0  0  2  0  0  0  0  0  0
  -19.6350  -26.5800   21.4980 C   0  0  0  0  0  2  0  0  0  0  0  0
  -18.2610  -26.7120   22.1620 C   0  0  0  0  0  2  0  0  0  0  0  0
  -19.2140  -28.8040   23.2940 C   0  0  0  0  0  0  0  0  0  0  0  0
  -19.0010  -30.0550   23.9130 C   0  0  0  0  0  3  0  0  0  0  0  0
  -17.6970  -30.5510   24.1040 C   0  0  0  0  0  3  0  0  0  0  0  0
  -16.5890  -29.7910   23.6900 C   0  0  0  0  0  3  0  0  0  0  0  0
  -16.7870  -28.5420   23.0760 C   0  0  0  0  0  3  0  0  0  0  0  0
  -25.9160  -32.5000   23.7900 C   0  0  0  0  0  3  0  0  0  0  0  0
  -25.5950  -33.8910   24.1410 N   0  0  0  0  0  0  0  0  0  0  0  0
  -25.9160  -34.9570   23.3980 C   0  0  0  0  0  0  0  0  0  0  0  0
  -26.5830  -34.8750   22.3620 O   0  0  0  0  0  0  0  0  0  0  0  0
  -25.0020  -34.0270   24.9460 H   0  0  0  0  0  0  0  0  0  0  0  0
  -24.1750  -36.7450   23.0740 C   0  0  0  0  0  1  0  0  0  0  0  0
  -25.4200  -36.3350   23.8780 C   0  0  0  0  0  3  0  0  0  0  0  0
  -27.5480  -37.2240   24.7230 C   0  0  0  0  0  1  0  0  0  0  0  0
  -26.4450  -37.3970   23.7790 N   0  0  0  0  0  0  0  0  0  0  0  0
  -26.0330  -38.3130   23.9370 H   0  0  0  0  0  0  0  0  0  0  0  0
  -26.4440  -31.7170   25.0560 C   0  0  1  0  0  0  0  0  0  0  0  0
  -25.3560  -31.4560   26.1240 C   0  0  0  0  0  1  0  0  0  0  0  0
  -27.0390  -30.3490   24.6480 C   0  0  0  0  0  1  0  0  0  0  0  0
  -27.5880  -32.5140   25.7250 C   0  0  0  0  0  1  0  0  0  0  0  0
  1  3  2  0
  1  2  1  0
  2  6  2  0
  4  5  1  0
  4  1  1  0
  5  2  1  0
  7  9  1  0
  8 10  2  0
  8 11  1  0
 10 12  1  0
 11  5  1  0
 11  7  2  0
 12 21  1  0
 12  9  2  0
 13 21  1  0
 14 19  1  0
 15 16  1  0
 15 14  1  0
 17 16  1  0
 17 26  1  0
 17 18  1  0
 19 13  1  0
 19 18  1  0
 20 13  2  0
 21 22  1  0
 23 24  2  0
 24 43  1  0
 25 24  1  0
 25 28  1  0
 26 27  1  0
 26 23  1  0
 27 25  2  0
 28 29  1  0
 29 30  2  0
 31 34  1  0
 31 30  1  0
 32 31  2  0
 33 32  1  0
 33 28  2  0
 34 35  1  0
 35 40  2  0
 35 36  1  0
 36 37  2  0
 37 38  1  0
 38 42  1  0
 39 38  2  0
 40 39  1  0
 41 40  1  0
 43 44  1  0
 44 47  1  0
 44 46  1  0
 45 43  2  0
 48 23  1  0
 48 49  1  0
 50 48  1  0
 51  3  1  0
 52 63  2  0
 53 51  1  0
 53 58  1  0
 54 62  1  0
 54 64  1  0
 55 61  1  0
 55 57  1  0
 56 62  1  0
 57 56  1  0
 58 57  2  0
 59 60  1  0
 59 53  2  0
 60 55  2  0
 61 54  1  0
 62 52  1  0
 64 66  2  0
 65 64  1  0
 67 65  1  0
 68 77  2  0
 68 73  1  0
 69 65  1  0
 69 73  1  0
 70 69  1  0
 71 72  1  0
 71 70  1  0
 72 68  1  0
 73 74  2  0
 74 75  1  0
 76 75  2  0
 77 76  1  0
 78 52  1  0
 78 79  1  0
 78 88  1  0
 79 82  1  0
 80 84  1  0
 80 79  1  0
 81 80  2  0
 84 83  1  0
 86 84  1  0
 86 87  1  0
 86 85  1  0
 88 91  1  1
 88 89  1  0
 90 88  1  0
M  ISO  4   3 101  13 100  21 100  51 101
M  END
>  <TORSDO>  (48) 
F 17

>  <SCORE>  (48) 
-13.939

>  <name>  (48) 
47

>  <ligand_id>  (48) 
47

>  <original_smiles>  (48) 
[H]C(Oc1c([H])c([H])c2c(c1[H])C([H])([H])N(C(=O)C([H])(N([H])C(=O)C([H])(N([H])C([H])([H])[H])C([H])([H])[H])C(C([H])([H])[H])(C([H])([H])[H])C([H])([H])[H])C([H])(C(=O)N([H])C1([H])c3c([H])c([H])c([H])c([H])c3C([H])([H])C([H])([H])C1([H])[H])C2([H])[H])=C1C(=O)N(c2c([H])c([H])c(N([H])C(=O)N3C([H])([H])C([H])([H])C([H])([H])C([H])(n4nc(-c5c([H])c([H])c(Oc6c([H])c([H])c(F)c([H])c6F)c([H])c5[H])c(C(=O)N([H])[H])c4N([H])[H])C3([H])[H])c([H])c2[H])C1([H])[H]

>  <smiles>  (48) 
[H]C(Oc1c([H])c([H])c2c(c1[H])C([H])([H])N(C(=O)C([H])(N([H])C(=O)C([H])(N([H])C([H])([H])[H])C([H])([H])[H])C(C([H])([H])[H])(C([H])([H])[H])C([H])([H])[H])C([H])(C(=O)N([H])C1([H])c3c([H])c([H])c([H])c([H])c3C([H])([H])C([H])([H])C1([H])[H])C2([H])[H])=C1C(=O)N(c2c([H])c([H])c(N([H])C(=O)N3C([H])([H])C([H])([H])C([H])([H])C([H])(n4nc(-c5c([H])c([H])c(Oc6c([H])c([H])c(F)c([H])c6F)c([H])c5[H])c(C(=O)N([H])[H])c4N([H])[H])C3([H])[H])c([H])c2[H])C1([H])[H]

$$$$
48:0:0
     RDKit          3D

 94103  0  0  1  0  0  0  0  0999 V2000
  -30.0020  -19.9400   18.4380 C   0  0  0  0  0  3  0  0  0  0  0  0
  -29.4550  -18.7880   20.4630 C   0  0  0  0  0  3  0  0  0  0  0  0
  -30.3320  -17.5060   18.5900 C   0  0  0  0  0  3  0  0  0  0  0  0
  -29.5140  -20.1050   19.7650 C   0  0  0  0  0  0  0  0  0  0  0  0
  -30.3770  -18.7050   17.8580 C   0  0  0  0  0  0  0  0  0  0  0  0
  -29.8720  -17.4680   19.9200 C   0  0  0  0  0  0  0  0  0  0  0  0
  -30.5360  -14.9080   20.3040 C   0  0  0  0  0  0  0  0  0  0  0  0
  -30.3830  -12.5770   19.3700 C   0  0  0  0  0  2  0  0  0  0  0  0
  -29.4660  -12.6120   18.1280 C   0  0  0  0  0  2  0  0  0  0  0  0
  -27.9810  -12.4720   18.5280 C   0  0  0  0  0  2  0  0  0  0  0  0
  -27.5970  -13.3440   19.7550 C   0  0  0  0  0  3  0  0  0  0  0  0
  -28.6480  -13.2700   20.8810 C   0  0  0  0  0  2  0  0  0  0  0  0
  -29.9350  -13.6560   20.2920 N   0  0  0  0  0  0  0  0  0  0  0  0
  -31.7250  -14.9770   19.9730 O   0  0  0  0  0  0  0  0  0  0  0  0
  -29.7740  -16.0780   20.5360 N   0  0  0  0  0  0  0  0  0  0  0  0
  -28.9010  -15.9010   21.0130 H   0  0  0  0  0  0  0  0  0  0  0  0
  -25.2140  -13.9310   20.4810 C   0  0  0  0  0  0  0  0  0  0  0  0
  -24.1450  -13.1580   20.8460 C   0  0  0  0  0  0  0  0  0  0  0  0
  -24.6060  -11.8040   20.8150 C   0  0  0  0  0  0  0  0  0  0  0  0
  -26.2540  -13.0490   20.2400 N   0  0  0  0  0  0  0  0  0  0  0  0
  -25.8980  -11.7670   20.5090 N   0  0  0  0  0  0  0  0  0  0  0  0
  -23.8770  -10.5430   21.0050 C   0  0  0  0  0  0  0  0  0  0  0  0
  -24.2950   -9.5760   21.9460 C   0  0  0  0  0  3  0  0  0  0  0  0
  -23.5600   -8.3840   22.1230 C   0  0  0  0  0  3  0  0  0  0  0  0
  -22.3910   -8.1490   21.3600 C   0  0  0  0  0  0  0  0  0  0  0  0
  -21.9900   -9.1080   20.4140 C   0  0  0  0  0  3  0  0  0  0  0  0
  -22.7250  -10.2910   20.2330 C   0  0  0  0  0  3  0  0  0  0  0  0
  -21.6310   -7.0080   21.4450 O   0  0  0  0  0  0  0  0  0  0  0  0
  -21.5650   -6.2710   22.6010 C   0  0  0  0  0  0  0  0  0  0  0  0
  -21.1130   -6.8300   23.8160 C   0  0  0  0  0  3  0  0  0  0  0  0
  -20.9970   -6.0190   24.9630 C   0  0  0  0  0  3  0  0  0  0  0  0
  -21.3230   -4.6510   24.8960 C   0  0  0  0  0  0  0  0  0  0  0  0
  -21.7680   -4.0940   23.6850 C   0  0  0  0  0  3  0  0  0  0  0  0
  -21.8870   -4.9010   22.5390 C   0  0  0  0  0  0  0  0  0  0  0  0
  -22.2940   -4.3510   21.3710 F   0  0  0  0  0  0  0  0  0  0  0  0
  -21.2060   -3.8700   25.9950 F   0  0  0  0  0  0  0  0  0  0  0  0
  -22.7480  -13.6390   21.1070 C   0  0  0  0  0  0  0  0  0  0  0  0
  -22.0130  -12.9470   21.9680 N   0  0  0  0  0  0  0  0  0  0  0  0
  -22.3180  -14.6660   20.5840 O   0  0  0  0  0  0  0  0  0  0  0  0
  -22.3720  -12.1170   22.4180 H   0  0  0  0  0  0  0  0  0  0  0  0
  -21.0770  -13.2540   22.1850 H   0  0  0  0  0  0  0  0  0  0  0  0
  -25.3800  -15.3030   20.3160 N   0  0  0  0  0  0  0  0  0  0  0  0
  -24.6220  -15.9590   20.4760 H   0  0  0  0  0  0  0  0  0  0  0  0
  -26.2390  -15.7520   20.0230 H   0  0  0  0  0  0  0  0  0  0  0  0
  -28.6170  -23.5950   20.4040 C   0  0  0  0  0  0  0  0  0  0  0  0
  -28.3170  -22.2950   21.0540 C   0  0  0  0  0  0  0  0  0  0  0  0
  -28.1460  -24.9030   20.6980 C   0  0  0  0  0  3  0  0  0  0  0  0
  -29.5370  -22.8000   19.4260 C   0  0  0  0  0  2  0  0  0  0  0  0
  -29.1460  -21.5450   20.1660 N   0  0  0  0  0  0  0  0  0  0  0  0
  -27.5750  -22.0330   21.9810 O   0  0  0  0  0  0  0  0  0  0  0  0
  -28.3740  -26.2560   20.2050 O   0  0  0  0  0  0  0  0  0  0  0  0
  -24.6710  -31.8860   23.2310 C   0  0  0  0  0  0  0  0  0  0  0  0
  -27.3140  -27.2240   20.2090 C   0  0  0  0  0  0  0  0  0  0  0  0
  -23.4870  -30.4730   21.5950 C   0  0  0  0  0  3  0  0  0  0  0  0
  -24.9560  -28.9140   20.1790 C   0  0  0  0  0  0  0  0  0  0  0  0
  -26.0370  -30.7750   21.4280 C   0  0  0  0  0  2  0  0  0  0  0  0
  -26.1300  -29.3850   20.7820 C   0  0  0  0  0  0  0  0  0  0  0  0
  -27.3130  -28.5560   20.7810 C   0  0  0  0  0  3  0  0  0  0  0  0
  -26.1110  -26.8420   19.5770 C   0  0  0  0  0  3  0  0  0  0  0  0
  -24.9560  -27.6520   19.5650 C   0  0  0  0  0  3  0  0  0  0  0  0
  -23.7210  -29.7960   20.2180 C   0  0  0  0  0  2  0  0  0  0  0  0
  -24.7510  -31.0660   22.1400 N   0  0  0  0  0  0  0  0  0  0  0  0
  -23.5810  -32.1610   23.7580 O   0  0  0  0  0  0  0  0  0  0  0  0
  -22.8200  -29.4600   22.5570 C   0  0  0  0  0  0  0  0  0  0  0  0
  -21.4930  -29.2730   22.4250 N   0  0  0  0  0  0  0  0  0  0  0  0
  -23.4970  -28.8430   23.3830 O   0  0  0  0  0  0  0  0  0  0  0  0
  -21.0060  -29.8220   21.7320 H   0  0  0  0  0  0  0  0  0  0  0  0
  -18.1220  -28.0430   22.9190 C   0  0  0  0  0  0  0  0  0  0  0  0
  -20.6780  -28.3290   23.1940 C   0  0  0  0  0  3  0  0  0  0  0  0
  -20.7950  -26.8950   22.6220 C   0  0  0  0  0  2  0  0  0  0  0  0
  -19.6980  -26.5610   21.6070 C   0  0  0  0  0  2  0  0  0  0  0  0
  -18.3130  -26.6950   22.2450 C   0  0  0  0  0  2  0  0  0  0  0  0
  -19.2320  -28.8160   23.3500 C   0  0  0  0  0  0  0  0  0  0  0  0
  -18.9990  -30.0780   23.9420 C   0  0  0  0  0  3  0  0  0  0  0  0
  -17.6880  -30.5650   24.1080 C   0  0  0  0  0  3  0  0  0  0  0  0
  -16.5930  -29.7870   23.6930 C   0  0  0  0  0  3  0  0  0  0  0  0
  -16.8110  -28.5300   23.1040 C   0  0  0  0  0  3  0  0  0  0  0  0
  -25.9420  -32.5330   23.8590 C   0  0  0  0  0  3  0  0  0  0  0  0
  -25.6180  -33.9330   24.1790 N   0  0  0  0  0  0  0  0  0  0  0  0
  -25.9360  -34.9870   23.4140 C   0  0  0  0  0  0  0  0  0  0  0  0
  -26.5980  -34.8840   22.3770 O   0  0  0  0  0  0  0  0  0  0  0  0
  -25.0300  -34.0870   24.9840 H   0  0  0  0  0  0  0  0  0  0  0  0
  -24.1850  -36.7610   23.0740 C   0  0  0  0  0  1  0  0  0  0  0  0
  -25.4410  -36.3720   23.8700 C   0  0  0  0  0  3  0  0  0  0  0  0
  -27.5750  -37.2870   24.6700 C   0  0  0  0  0  1  0  0  0  0  0  0
  -26.4590  -37.4360   23.7380 N   0  0  0  0  0  0  0  0  0  0  0  0
  -26.0460  -38.3510   23.8860 H   0  0  0  0  0  0  0  0  0  0  0  0
  -26.4520  -31.7760   25.1470 C   0  0  1  0  0  0  0  0  0  0  0  0
  -25.3540  -31.5470   26.2100 C   0  0  0  0  0  1  0  0  0  0  0  0
  -27.0400  -30.3950   24.7730 C   0  0  0  0  0  1  0  0  0  0  0  0
  -27.5920  -32.5820   25.8100 C   0  0  0  0  0  1  0  0  0  0  0  0
  -30.7870  -18.6520   16.5210 N   0  0  0  0  0  0  0  0  0  0  0  0
  -30.4060  -19.3360   15.8720 H   0  0  0  0  0  0  0  0  0  0  0  0
  -30.8650  -17.7360   16.0870 H   0  0  0  0  0  0  0  0  0  0  0  0
  1  4  1  0
  3  6  2  0
  4 49  1  0
  4  2  2  0
  5  1  2  0
  5  3  1  0
  6  2  1  0
  6 15  1  0
  7 15  1  0
  8 13  1  0
  9 10  1  0
  9  8  1  0
 11 10  1  0
 11 20  1  0
 11 12  1  0
 13  7  1  0
 13 12  1  0
 14  7  2  0
 15 16  1  0
 17 18  2  0
 18 37  1  0
 19 18  1  0
 19 22  1  0
 20 17  1  0
 20 21  1  0
 21 19  2  0
 22 23  1  0
 23 24  2  0
 25 28  1  0
 25 24  1  0
 26 25  2  0
 27 26  1  0
 27 22  2  0
 28 29  1  0
 29 30  1  0
 30 31  2  0
 32 31  1  0
 32 36  1  0
 33 32  2  0
 34 29  2  0
 34 33  1  0
 35 34  1  0
 37 38  1  0
 38 41  1  0
 38 40  1  0
 39 37  2  0
 42 43  1  0
 42 17  1  0
 44 42  1  0
 45 47  2  0
 45 46  1  0
 46 50  2  0
 48 49  1  0
 48 45  1  0
 49 46  1  0
 51 53  1  0
 51 47  1  0
 52 63  2  0
 53 58  1  0
 54 62  1  0
 54 64  1  0
 55 61  1  0
 55 57  1  0
 56 62  1  0
 57 56  1  0
 58 57  2  0
 59 53  2  0
 60 59  1  0
 60 55  2  0
 61 54  1  0
 62 52  1  0
 64 66  2  0
 65 64  1  0
 67 65  1  0
 68 77  2  0
 68 73  1  0
 69 65  1  0
 69 73  1  0
 70 69  1  0
 71 72  1  0
 71 70  1  0
 72 68  1  0
 73 74  2  0
 74 75  1  0
 76 75  2  0
 77 76  1  0
 78 52  1  0
 78 79  1  0
 78 88  1  0
 79 82  1  0
 80 84  1  0
 80 79  1  0
 81 80  2  0
 84 83  1  0
 86 84  1  0
 86 87  1  0
 86 85  1  0
 88 91  1  1
 88 89  1  0
 90 88  1  0
 92  5  1  0
 93 92  1  0
 94 92  1  0
M  ISO  4   7 100  15 100  47 101  51 101
M  END
>  <TORSDO>  (49) 
F 18

>  <SCORE>  (49) 
-14.860

>  <name>  (49) 
48

>  <ligand_id>  (49) 
48

>  <original_smiles>  (49) 
[H]C(Oc1c([H])c([H])c2c(c1[H])C([H])([H])N(C(=O)C([H])(N([H])C(=O)C([H])(N([H])C([H])([H])[H])C([H])([H])[H])C(C([H])([H])[H])(C([H])([H])[H])C([H])([H])[H])C([H])(C(=O)N([H])C1([H])c3c([H])c([H])c([H])c([H])c3C([H])([H])C([H])([H])C1([H])[H])C2([H])[H])=C1C(=O)N(c2c([H])c(N([H])[H])c([H])c(N([H])C(=O)N3C([H])([H])C([H])([H])C([H])([H])C([H])(n4nc(-c5c([H])c([H])c(Oc6c([H])c([H])c(F)c([H])c6F)c([H])c5[H])c(C(=O)N([H])[H])c4N([H])[H])C3([H])[H])c2[H])C1([H])[H]

>  <smiles>  (49) 
[H]C(Oc1c([H])c([H])c2c(c1[H])C([H])([H])N(C(=O)C([H])(N([H])C(=O)C([H])(N([H])C([H])([H])[H])C([H])([H])[H])C(C([H])([H])[H])(C([H])([H])[H])C([H])([H])[H])C([H])(C(=O)N([H])C1([H])c3c([H])c([H])c([H])c([H])c3C([H])([H])C([H])([H])C1([H])[H])C2([H])[H])=C1C(=O)N(c2c([H])c(N([H])[H])c([H])c(N([H])C(=O)N3C([H])([H])C([H])([H])C([H])([H])C([H])(n4nc(-c5c([H])c([H])c(Oc6c([H])c([H])c(F)c([H])c6F)c([H])c5[H])c(C(=O)N([H])[H])c4N([H])[H])C3([H])[H])c2[H])C1([H])[H]

$$$$
49:0:0
     RDKit          3D

 94103  0  0  1  0  0  0  0  0999 V2000
  -28.5030  -24.0360   20.6500 C   0  0  0  0  0  0  0  0  0  0  0  0
  -29.4840  -23.3140   19.8510 C   0  0  0  0  0  0  0  0  0  0  0  0
  -28.0790  -25.3270   20.8580 C   0  0  0  0  0  0  0  0  0  0  0  0
  -28.0780  -22.7290   21.3010 C   0  0  0  0  0  2  0  0  0  0  0  0
  -27.0940  -25.5690   22.0100 C   0  0  0  0  0  1  0  0  0  0  0  0
  -29.0710  -22.0800   20.4280 N   0  0  0  0  0  0  0  0  0  0  0  0
  -30.3820  -23.7000   19.1310 O   0  0  0  0  0  0  0  0  0  0  0  0
  -30.6830  -19.5900   22.8130 C   0  0  0  0  0  3  0  0  0  0  0  0
  -30.7170  -18.3890   22.0830 C   0  0  0  0  0  3  0  0  0  0  0  0
  -30.1900  -20.7730   22.2300 C   0  0  0  0  0  3  0  0  0  0  0  0
  -29.7790  -19.5960   20.1810 C   0  0  0  0  0  3  0  0  0  0  0  0
  -30.2910  -18.3690   20.7410 C   0  0  0  0  0  0  0  0  0  0  0  0
  -29.6770  -20.8390   20.9080 C   0  0  0  0  0  0  0  0  0  0  0  0
  -31.0230  -14.7280   19.9770 C   0  0  0  0  0  0  0  0  0  0  0  0
  -30.6570  -12.4940   18.9880 C   0  0  0  0  0  2  0  0  0  0  0  0
  -29.6760  -12.6620   17.8060 C   0  0  0  0  0  2  0  0  0  0  0  0
  -28.2220  -12.5440   18.2990 C   0  0  0  0  0  2  0  0  0  0  0  0
  -27.9420  -13.4240   19.5470 C   0  0  0  0  0  3  0  0  0  0  0  0
  -29.0450  -13.2650   20.6200 C   0  0  0  0  0  2  0  0  0  0  0  0
  -30.3400  -13.5390   19.9870 N   0  0  0  0  0  0  0  0  0  0  0  0
  -32.1530  -14.7830   19.4830 O   0  0  0  0  0  0  0  0  0  0  0  0
  -30.5780  -17.1260   19.8910 C   0  0  0  0  0  0  0  0  0  0  0  0
  -30.3770  -15.8640   20.3900 N   0  0  0  0  0  0  0  0  0  0  0  0
  -30.9860  -17.3270   18.7410 O   0  0  0  0  0  0  0  0  0  0  0  0
  -29.6880  -15.7660   21.1180 H   0  0  0  0  0  0  0  0  0  0  0  0
  -25.6050  -14.0750   20.3970 C   0  0  0  0  0  0  0  0  0  0  0  0
  -24.5330  -13.3270   20.8020 C   0  0  0  0  0  0  0  0  0  0  0  0
  -24.9500  -11.9630   20.7210 C   0  0  0  0  0  0  0  0  0  0  0  0
  -26.6100  -13.1690   20.0920 N   0  0  0  0  0  0  0  0  0  0  0  0
  -26.2230  -11.8930   20.3480 N   0  0  0  0  0  0  0  0  0  0  0  0
  -24.1940  -10.7170   20.9220 C   0  0  0  0  0  0  0  0  0  0  0  0
  -24.6110   -9.7430   21.8550 C   0  0  0  0  0  3  0  0  0  0  0  0
  -23.8570   -8.5640   22.0460 C   0  0  0  0  0  3  0  0  0  0  0  0
  -22.6720   -8.3520   21.3030 C   0  0  0  0  0  0  0  0  0  0  0  0
  -22.2710   -9.3160   20.3600 C   0  0  0  0  0  3  0  0  0  0  0  0
  -23.0260  -10.4850   20.1680 C   0  0  0  0  0  3  0  0  0  0  0  0
  -21.8920   -7.2250   21.3990 O   0  0  0  0  0  0  0  0  0  0  0  0
  -21.7900   -6.5190   22.5710 C   0  0  0  0  0  0  0  0  0  0  0  0
  -21.3220   -7.1180   23.7620 C   0  0  0  0  0  3  0  0  0  0  0  0
  -21.1660   -6.3410   24.9270 C   0  0  0  0  0  3  0  0  0  0  0  0
  -21.4670   -4.9660   24.9020 C   0  0  0  0  0  0  0  0  0  0  0  0
  -21.9290   -4.3670   23.7160 C   0  0  0  0  0  3  0  0  0  0  0  0
  -22.0860   -5.1400   22.5530 C   0  0  0  0  0  0  0  0  0  0  0  0
  -22.5100   -4.5550   21.4080 F   0  0  0  0  0  0  0  0  0  0  0  0
  -21.3110   -4.2180   26.0180 F   0  0  0  0  0  0  0  0  0  0  0  0
  -23.1670  -13.8400   21.1560 C   0  0  0  0  0  0  0  0  0  0  0  0
  -22.4710  -13.1600   22.0600 N   0  0  0  0  0  0  0  0  0  0  0  0
  -22.7270  -14.8770   20.6630 O   0  0  0  0  0  0  0  0  0  0  0  0
  -22.8410  -12.3200   22.4780 H   0  0  0  0  0  0  0  0  0  0  0  0
  -21.5560  -13.4850   22.3380 H   0  0  0  0  0  0  0  0  0  0  0  0
  -25.8050  -15.4430   20.2390 N   0  0  0  0  0  0  0  0  0  0  0  0
  -25.0670  -16.1220   20.3950 H   0  0  0  0  0  0  0  0  0  0  0  0
  -26.6500  -15.8580   19.8700 H   0  0  0  0  0  0  0  0  0  0  0  0
  -28.4190  -26.5110   20.1550 O   0  0  0  0  0  0  0  0  0  0  0  0
  -24.6110  -31.7510   23.1950 C   0  0  0  0  0  0  0  0  0  0  0  0
  -27.3630  -27.4120   19.9960 C   0  0  0  0  0  0  0  0  0  0  0  0
  -23.4430  -30.3270   21.5490 C   0  0  0  0  0  3  0  0  0  0  0  0
  -24.9380  -28.8920   20.0480 C   0  0  0  0  0  0  0  0  0  0  0  0
  -25.9560  -30.7790   21.3250 C   0  0  0  0  0  2  0  0  0  0  0  0
  -26.0900  -29.4270   20.6410 C   0  0  0  0  0  0  0  0  0  0  0  0
  -27.3120  -28.6970   20.6090 C   0  0  0  0  0  3  0  0  0  0  0  0
  -26.2060  -26.9400   19.3440 C   0  0  0  0  0  3  0  0  0  0  0  0
  -24.9970  -27.6560   19.3850 C   0  0  0  0  0  3  0  0  0  0  0  0
  -23.6580  -29.6950   20.1500 C   0  0  0  0  0  2  0  0  0  0  0  0
  -24.6890  -30.9680   22.0790 N   0  0  0  0  0  0  0  0  0  0  0  0
  -23.5270  -31.9680   23.7550 O   0  0  0  0  0  0  0  0  0  0  0  0
  -22.8490  -29.2610   22.5010 C   0  0  0  0  0  0  0  0  0  0  0  0
  -21.5420  -28.9850   22.3560 N   0  0  0  0  0  0  0  0  0  0  0  0
  -23.5620  -28.6870   23.3280 O   0  0  0  0  0  0  0  0  0  0  0  0
  -21.0230  -29.5040   21.6610 H   0  0  0  0  0  0  0  0  0  0  0  0
  -18.2850  -27.4510   22.7230 C   0  0  0  0  0  0  0  0  0  0  0  0
  -20.7830  -27.9920   23.1190 C   0  0  0  0  0  3  0  0  0  0  0  0
  -21.0680  -26.5610   22.6060 C   0  0  0  0  0  2  0  0  0  0  0  0
  -20.0650  -26.0870   21.5490 C   0  0  0  0  0  2  0  0  0  0  0  0
  -18.6410  -26.1060   22.1120 C   0  0  0  0  0  2  0  0  0  0  0  0
  -19.2920  -28.3430   23.1820 C   0  0  0  0  0  0  0  0  0  0  0  0
  -18.9080  -29.5930   23.7130 C   0  0  0  0  0  3  0  0  0  0  0  0
  -17.5500  -29.9580   23.7870 C   0  0  0  0  0  3  0  0  0  0  0  0
  -16.5580  -29.0670   23.3440 C   0  0  0  0  0  3  0  0  0  0  0  0
  -16.9250  -27.8150   22.8200 C   0  0  0  0  0  3  0  0  0  0  0  0
  -25.8750  -32.4310   23.8030 C   0  0  0  0  0  3  0  0  0  0  0  0
  -25.5210  -33.8200   24.1270 N   0  0  0  0  0  0  0  0  0  0  0  0
  -25.8700  -34.8850   23.3930 C   0  0  0  0  0  0  0  0  0  0  0  0
  -26.5950  -34.8020   22.3960 O   0  0  0  0  0  0  0  0  0  0  0  0
  -24.8850  -33.9600   24.8990 H   0  0  0  0  0  0  0  0  0  0  0  0
  -24.1420  -36.6570   22.9460 C   0  0  0  0  0  1  0  0  0  0  0  0
  -25.3330  -36.2600   23.8340 C   0  0  0  0  0  3  0  0  0  0  0  0
  -27.3950  -37.1620   24.8140 C   0  0  0  0  0  1  0  0  0  0  0  0
  -26.3550  -37.3280   23.8020 N   0  0  0  0  0  0  0  0  0  0  0  0
  -25.9280  -38.2400   23.9360 H   0  0  0  0  0  0  0  0  0  0  0  0
  -26.4280  -31.6860   25.0810 C   0  0  1  0  0  0  0  0  0  0  0  0
  -25.3490  -31.4140   26.1550 C   0  0  0  0  0  1  0  0  0  0  0  0
  -27.0570  -30.3280   24.6910 C   0  0  0  0  0  1  0  0  0  0  0  0
  -27.5520  -32.5250   25.7320 C   0  0  0  0  0  1  0  0  0  0  0  0
  1  3  2  0
  1  4  1  0
  2  6  1  0
  2  1  1  0
  3  5  1  0
  6 13  1  0
  6  4  1  0
  7  2  2  0
  9  8  2  0
 10  8  1  0
 11 12  2  0
 11 13  1  0
 12  9  1  0
 13 10  2  0
 14 20  1  0
 14 23  1  0
 15 20  1  0
 16 17  1  0
 16 15  1  0
 18 17  1  0
 18 29  1  0
 18 19  1  0
 20 19  1  0
 21 14  2  0
 22 23  1  0
 22 12  1  0
 23 25  1  0
 24 22  2  0
 26 27  2  0
 27 46  1  0
 28 27  1  0
 28 31  1  0
 29 30  1  0
 29 26  1  0
 30 28  2  0
 31 32  1  0
 32 33  2  0
 34 37  1  0
 34 33  1  0
 35 34  2  0
 36 35  1  0
 36 31  2  0
 37 38  1  0
 38 39  1  0
 39 40  2  0
 41 40  1  0
 41 45  1  0
 42 41  2  0
 43 38  2  0
 43 42  1  0
 44 43  1  0
 46 47  1  0
 47 50  1  0
 47 49  1  0
 48 46  2  0
 51 52  1  0
 51 26  1  0
 53 51  1  0
 54  3  1  0
 55 66  2  0
 56 54  1  0
 56 61  1  0
 57 65  1  0
 57 67  1  0
 58 64  1  0
 58 60  1  0
 59 65  1  0
 60 59  1  0
 61 60  2  0
 62 63  1  0
 62 56  2  0
 63 58  2  0
 64 57  1  0
 65 55  1  0
 67 69  2  0
 68 67  1  0
 70 68  1  0
 71 80  2  0
 71 76  1  0
 72 68  1  0
 72 76  1  0
 73 72  1  0
 74 75  1  0
 74 73  1  0
 75 71  1  0
 76 77  2  0
 77 78  1  0
 79 78  2  0
 80 79  1  0
 81 55  1  0
 81 82  1  0
 81 91  1  0
 82 85  1  0
 83 87  1  0
 83 82  1  0
 84 83  2  0
 87 86  1  0
 89 87  1  0
 89 90  1  0
 89 88  1  0
 91 94  1  1
 91 92  1  0
 93 91  1  0
M  ISO  4   3 101  14 100  23 100  54 101
M  END
>  <TORSDO>  (50) 
F 17

>  <SCORE>  (50) 
-14.431

>  <name>  (50) 
49

>  <ligand_id>  (50) 
49

>  <original_smiles>  (50) 
[H]c1c([H])c(C(=O)N([H])C(=O)N2C([H])([H])C([H])([H])C([H])([H])C([H])(n3nc(-c4c([H])c([H])c(Oc5c([H])c([H])c(F)c([H])c5F)c([H])c4[H])c(C(=O)N([H])[H])c3N([H])[H])C2([H])[H])c([H])c(N2C(=O)C(=C(Oc3c([H])c([H])c4c(c3[H])C([H])([H])N(C(=O)C([H])(N([H])C(=O)C([H])(N([H])C([H])([H])[H])C([H])([H])[H])C(C([H])([H])[H])(C([H])([H])[H])C([H])([H])[H])C([H])(C(=O)N([H])C3([H])c5c([H])c([H])c([H])c([H])c5C([H])([H])C([H])([H])C3([H])[H])C4([H])[H])C([H])([H])[H])C2([H])[H])c1[H]

>  <smiles>  (50) 
[H]c1c([H])c(C(=O)N([H])C(=O)N2C([H])([H])C([H])([H])C([H])([H])C([H])(n3nc(-c4c([H])c([H])c(Oc5c([H])c([H])c(F)c([H])c5F)c([H])c4[H])c(C(=O)N([H])[H])c3N([H])[H])C2([H])[H])c([H])c(N2C(=O)C(=C(Oc3c([H])c([H])c4c(c3[H])C([H])([H])N(C(=O)C([H])(N([H])C(=O)C([H])(N([H])C([H])([H])[H])C([H])([H])[H])C(C([H])([H])[H])(C([H])([H])[H])C([H])([H])[H])C([H])(C(=O)N([H])C3([H])c5c([H])c([H])c([H])c([H])c5C([H])([H])C([H])([H])C3([H])[H])C4([H])[H])C([H])([H])[H])C2([H])[H])c1[H]

$$$$
50:0:0
     RDKit          3D

 92101  0  0  1  0  0  0  0  0999 V2000
  -28.5120  -24.1780   20.6110 C   0  0  0  0  0  0  0  0  0  0  0  0
  -28.1090  -23.0160   21.3700 C   0  0  0  0  0  0  0  0  0  0  0  0
  -28.1980  -25.4850   20.8620 C   0  0  0  0  0  3  0  0  0  0  0  0
  -29.2350  -23.2800   19.5980 C   0  0  0  0  0  2  0  0  0  0  0  0
  -28.8630  -22.1920   20.5330 N   0  0  0  0  0  0  0  0  0  0  0  0
  -27.3440  -22.8810   22.3010 O   0  0  0  0  0  0  0  0  0  0  0  0
  -28.3760  -18.4620   20.2980 C   0  0  0  0  0  3  0  0  0  0  0  0
  -27.9680  -19.8290   20.4990 C   0  0  0  0  0  3  0  0  0  0  0  0
  -29.6890  -18.3230   19.9210 C   0  0  0  0  0  0  0  0  0  0  0  0
  -28.9510  -20.7700   20.2740 C   0  0  0  0  0  0  0  0  0  0  0  0
  -30.4120  -19.9380   19.7560 S   0  0  0  0  0  0  0  0  0  0  0  0
  -30.8670  -14.6950   19.8030 C   0  0  0  0  0  0  0  0  0  0  0  0
  -30.5480  -12.3860   18.9780 C   0  0  0  0  0  2  0  0  0  0  0  0
  -29.5700  -12.4170   17.7870 C   0  0  0  0  0  2  0  0  0  0  0  0
  -28.1200  -12.2870   18.2880 C   0  0  0  0  0  2  0  0  0  0  0  0
  -27.7980  -13.2570   19.4580 C   0  0  0  0  0  3  0  0  0  0  0  0
  -28.9060  -13.2510   20.5370 C   0  0  0  0  0  2  0  0  0  0  0  0
  -30.1870  -13.5090   19.8680 N   0  0  0  0  0  0  0  0  0  0  0  0
  -32.0320  -14.6960   19.3980 O   0  0  0  0  0  0  0  0  0  0  0  0
  -30.6020  -17.1320   19.7390 C   0  0  0  0  0  0  0  0  0  0  0  0
  -30.1620  -15.8560   19.9910 N   0  0  0  0  0  0  0  0  0  0  0  0
  -31.7460  -17.3820   19.3430 O   0  0  0  0  0  0  0  0  0  0  0  0
  -29.2070  -15.7620   20.2900 H   0  0  0  0  0  0  0  0  0  0  0  0
  -25.4800  -13.8840   20.3660 C   0  0  0  0  0  0  0  0  0  0  0  0
  -24.4200  -13.1250   20.7780 C   0  0  0  0  0  0  0  0  0  0  0  0
  -24.8400  -11.7640   20.6660 C   0  0  0  0  0  0  0  0  0  0  0  0
  -26.4810  -12.9880   20.0280 N   0  0  0  0  0  0  0  0  0  0  0  0
  -26.1060  -11.7050   20.2700 N   0  0  0  0  0  0  0  0  0  0  0  0
  -24.0920  -10.5140   20.8580 C   0  0  0  0  0  0  0  0  0  0  0  0
  -24.4720   -9.5670   21.8350 C   0  0  0  0  0  3  0  0  0  0  0  0
  -23.7250   -8.3840   22.0140 C   0  0  0  0  0  3  0  0  0  0  0  0
  -22.5820   -8.1380   21.2150 C   0  0  0  0  0  0  0  0  0  0  0  0
  -22.2210   -9.0730   20.2300 C   0  0  0  0  0  3  0  0  0  0  0  0
  -22.9690  -10.2480   20.0490 C   0  0  0  0  0  3  0  0  0  0  0  0
  -21.8110   -7.0040   21.3020 O   0  0  0  0  0  0  0  0  0  0  0  0
  -21.5860   -6.3760   22.5000 C   0  0  0  0  0  0  0  0  0  0  0  0
  -20.9790   -7.0410   23.5880 C   0  0  0  0  0  3  0  0  0  0  0  0
  -20.7020   -6.3370   24.7770 C   0  0  0  0  0  3  0  0  0  0  0  0
  -21.0230   -4.9700   24.8790 C   0  0  0  0  0  0  0  0  0  0  0  0
  -21.6220   -4.3060   23.7940 C   0  0  0  0  0  3  0  0  0  0  0  0
  -21.8990   -5.0060   22.6080 C   0  0  0  0  0  0  0  0  0  0  0  0
  -22.4580   -4.3550   21.5590 F   0  0  0  0  0  0  0  0  0  0  0  0
  -20.7510   -4.2930   26.0190 F   0  0  0  0  0  0  0  0  0  0  0  0
  -23.0580  -13.6280   21.1600 C   0  0  0  0  0  0  0  0  0  0  0  0
  -22.3700  -12.9210   22.0490 N   0  0  0  0  0  0  0  0  0  0  0  0
  -22.6150  -14.6810   20.7040 O   0  0  0  0  0  0  0  0  0  0  0  0
  -22.7440  -12.0680   22.4400 H   0  0  0  0  0  0  0  0  0  0  0  0
  -21.4590  -13.2370   22.3470 H   0  0  0  0  0  0  0  0  0  0  0  0
  -25.6710  -15.2570   20.2280 N   0  0  0  0  0  0  0  0  0  0  0  0
  -24.9280  -15.9210   20.4160 H   0  0  0  0  0  0  0  0  0  0  0  0
  -26.4940  -15.6870   19.8260 H   0  0  0  0  0  0  0  0  0  0  0  0
  -28.4760  -26.6500   20.1470 O   0  0  0  0  0  0  0  0  0  0  0  0
  -24.6580  -31.8850   23.2200 C   0  0  0  0  0  0  0  0  0  0  0  0
  -27.3900  -27.5120   20.0730 C   0  0  0  0  0  0  0  0  0  0  0  0
  -23.4980  -30.5090   21.5270 C   0  0  0  0  0  3  0  0  0  0  0  0
  -24.9950  -29.0330   20.0750 C   0  0  0  0  0  0  0  0  0  0  0  0
  -26.0270  -30.8960   21.3790 C   0  0  0  0  0  2  0  0  0  0  0  0
  -26.1430  -29.5420   20.6980 C   0  0  0  0  0  0  0  0  0  0  0  0
  -27.3500  -28.7900   20.6940 C   0  0  0  0  0  3  0  0  0  0  0  0
  -26.2300  -27.0410   19.4280 C   0  0  0  0  0  3  0  0  0  0  0  0
  -25.0360  -27.7850   19.4310 C   0  0  0  0  0  3  0  0  0  0  0  0
  -23.7390  -29.8750   20.1310 C   0  0  0  0  0  2  0  0  0  0  0  0
  -24.7450  -31.1110   22.1000 N   0  0  0  0  0  0  0  0  0  0  0  0
  -23.5640  -32.1280   23.7500 O   0  0  0  0  0  0  0  0  0  0  0  0
  -22.8460  -29.4540   22.4520 C   0  0  0  0  0  0  0  0  0  0  0  0
  -21.5240  -29.2630   22.3090 N   0  0  0  0  0  0  0  0  0  0  0  0
  -23.5280  -28.8120   23.2540 O   0  0  0  0  0  0  0  0  0  0  0  0
  -21.0330  -29.8350   21.6340 H   0  0  0  0  0  0  0  0  0  0  0  0
  -18.1490  -28.0550   22.7870 C   0  0  0  0  0  0  0  0  0  0  0  0
  -20.7100  -28.2960   23.0460 C   0  0  0  0  0  3  0  0  0  0  0  0
  -20.8030  -26.8900   22.4100 C   0  0  0  0  0  2  0  0  0  0  0  0
  -19.6920  -26.6140   21.3910 C   0  0  0  0  0  2  0  0  0  0  0  0
  -18.3170  -26.7340   22.0540 C   0  0  0  0  0  2  0  0  0  0  0  0
  -19.2740  -28.7950   23.2390 C   0  0  0  0  0  0  0  0  0  0  0  0
  -19.0640  -30.0330   23.8860 C   0  0  0  0  0  3  0  0  0  0  0  0
  -17.7620  -30.5290   24.0850 C   0  0  0  0  0  3  0  0  0  0  0  0
  -16.6520  -29.7870   23.6470 C   0  0  0  0  0  3  0  0  0  0  0  0
  -16.8470  -28.5500   23.0040 C   0  0  0  0  0  3  0  0  0  0  0  0
  -25.9230  -32.5210   23.8730 C   0  0  0  0  0  3  0  0  0  0  0  0
  -25.6060  -33.9210   24.1860 N   0  0  0  0  0  0  0  0  0  0  0  0
  -25.9400  -34.9660   23.4190 C   0  0  0  0  0  0  0  0  0  0  0  0
  -26.6190  -34.8560   22.3940 O   0  0  0  0  0  0  0  0  0  0  0  0
  -25.0030  -34.0800   24.9790 H   0  0  0  0  0  0  0  0  0  0  0  0
  -24.2000  -36.7420   23.0380 C   0  0  0  0  0  1  0  0  0  0  0  0
  -25.4420  -36.3570   23.8560 C   0  0  0  0  0  3  0  0  0  0  0  0
  -27.5650  -37.2710   24.6840 C   0  0  0  0  0  1  0  0  0  0  0  0
  -26.4670  -37.4160   23.7320 N   0  0  0  0  0  0  0  0  0  0  0  0
  -26.0540  -38.3350   23.8620 H   0  0  0  0  0  0  0  0  0  0  0  0
  -26.4050  -31.7550   25.1670 C   0  0  1  0  0  0  0  0  0  0  0  0
  -25.2820  -31.5150   26.2010 C   0  0  0  0  0  1  0  0  0  0  0  0
  -27.0080  -30.3800   24.7960 C   0  0  0  0  0  1  0  0  0  0  0  0
  -27.5300  -32.5580   25.8620 C   0  0  0  0  0  1  0  0  0  0  0  0
  1  3  2  0
  1  2  1  0
  2  6  2  0
  4  5  1  0
  4  1  1  0
  5  2  1  0
  7  8  1  0
  9  7  2  0
 10  8  2  0
 10  5  1  0
 11  9  1  0
 11 10  1  0
 12 18  1  0
 12 21  1  0
 13 18  1  0
 14 15  1  0
 14 13  1  0
 16 15  1  0
 16 27  1  0
 16 17  1  0
 18 17  1  0
 19 12  2  0
 20  9  1  0
 20 21  1  0
 21 23  1  0
 22 20  2  0
 24 25  2  0
 25 44  1  0
 26 25  1  0
 26 29  1  0
 27 28  1  0
 27 24  1  0
 28 26  2  0
 29 30  1  0
 30 31  2  0
 32 35  1  0
 32 31  1  0
 33 32  2  0
 34 33  1  0
 34 29  2  0
 35 36  1  0
 36 41  2  0
 36 37  1  0
 37 38  2  0
 38 39  1  0
 39 43  1  0
 40 39  2  0
 41 40  1  0
 42 41  1  0
 44 45  1  0
 45 48  1  0
 45 47  1  0
 46 44  2  0
 49 24  1  0
 49 50  1  0
 51 49  1  0
 52  3  1  0
 53 64  2  0
 54 52  1  0
 54 59  1  0
 55 63  1  0
 55 65  1  0
 56 62  1  0
 56 58  1  0
 57 63  1  0
 58 57  1  0
 59 58  2  0
 60 61  1  0
 60 54  2  0
 61 56  2  0
 62 55  1  0
 63 53  1  0
 65 67  2  0
 66 65  1  0
 68 66  1  0
 69 78  2  0
 69 74  1  0
 70 66  1  0
 70 74  1  0
 71 70  1  0
 72 73  1  0
 72 71  1  0
 73 69  1  0
 74 75  2  0
 75 76  1  0
 77 76  2  0
 78 77  1  0
 79 53  1  0
 79 80  1  0
 79 89  1  0
 80 83  1  0
 81 85  1  0
 81 80  1  0
 82 81  2  0
 85 84  1  0
 87 85  1  0
 87 88  1  0
 87 86  1  0
 89 92  1  1
 89 90  1  0
 91 89  1  0
M  ISO  4   3 101  12 100  21 100  52 101
M  END
>  <TORSDO>  (51) 
F 17

>  <SCORE>  (51) 
-14.397

>  <name>  (51) 
50

>  <ligand_id>  (51) 
50

>  <original_smiles>  (51) 
[H]C(Oc1c([H])c([H])c2c(c1[H])C([H])([H])N(C(=O)C([H])(N([H])C(=O)C([H])(N([H])C([H])([H])[H])C([H])([H])[H])C(C([H])([H])[H])(C([H])([H])[H])C([H])([H])[H])C([H])(C(=O)N([H])C1([H])c3c([H])c([H])c([H])c([H])c3C([H])([H])C([H])([H])C1([H])[H])C2([H])[H])=C1C(=O)N(c2sc(C(=O)N([H])C(=O)N3C([H])([H])C([H])([H])C([H])([H])C([H])(n4nc(-c5c([H])c([H])c(Oc6c([H])c([H])c(F)c([H])c6F)c([H])c5[H])c(C(=O)N([H])[H])c4N([H])[H])C3([H])[H])c([H])c2[H])C1([H])[H]

>  <smiles>  (51) 
[H]C(Oc1c([H])c([H])c2c(c1[H])C([H])([H])N(C(=O)C([H])(N([H])C(=O)C([H])(N([H])C([H])([H])[H])C([H])([H])[H])C(C([H])([H])[H])(C([H])([H])[H])C([H])([H])[H])C([H])(C(=O)N([H])C1([H])c3c([H])c([H])c([H])c([H])c3C([H])([H])C([H])([H])C1([H])[H])C2([H])[H])=C1C(=O)N(c2sc(C(=O)N([H])C(=O)N3C([H])([H])C([H])([H])C([H])([H])C([H])(n4nc(-c5c([H])c([H])c(Oc6c([H])c([H])c(F)c([H])c6F)c([H])c5[H])c(C(=O)N([H])[H])c4N([H])[H])C3([H])[H])c([H])c2[H])C1([H])[H]

$$$$
51:0:0
     RDKit          3D

 91 99  0  0  1  0  0  0  0  0999 V2000
  -31.2970  -21.0820   21.3750 C   0  0  0  0  0  3  0  0  0  0  0  0
  -30.4350  -22.1800   21.1050 C   0  0  0  0  0  3  0  0  0  0  0  0
  -30.9240  -19.7160   21.2100 C   0  0  0  0  0  3  0  0  0  0  0  0
  -28.8030  -20.5250   20.4500 C   0  0  0  0  0  3  0  0  0  0  0  0
  -29.1160  -21.9800   20.6470 C   0  0  0  0  0  0  0  0  0  0  0  0
  -29.6530  -19.3160   20.7380 C   0  0  0  0  0  0  0  0  0  0  0  0
  -30.6780  -15.0280   20.5410 C   0  0  0  0  0  0  0  0  0  0  0  0
  -30.5220  -12.6470   19.6950 C   0  0  0  0  0  2  0  0  0  0  0  0
  -29.6820  -12.5120   18.4000 C   0  0  0  0  0  2  0  0  0  0  0  0
  -28.2060  -12.2880   18.7580 C   0  0  0  0  0  2  0  0  0  0  0  0
  -27.7150  -13.2690   19.8590 C   0  0  0  0  0  3  0  0  0  0  0  0
  -28.6930  -13.4110   21.0480 C   0  0  0  0  0  2  0  0  0  0  0  0
  -29.9980  -13.7970   20.5110 N   0  0  0  0  0  0  0  0  0  0  0  0
  -31.8660  -15.0810   20.1910 O   0  0  0  0  0  0  0  0  0  0  0  0
  -29.3980  -17.6910   20.5010 C   0  0  0  0  0  3  0  0  0  0  0  0
  -30.1000  -16.6620   21.0800 N   0  0  0  0  0  0  0  0  0  0  0  0
  -30.6790  -16.9400   21.8700 H   0  0  0  0  0  0  0  0  0  0  0  0
  -25.3010  -13.8150   20.4810 C   0  0  0  0  0  0  0  0  0  0  0  0
  -24.2280  -13.0440   20.8180 C   0  0  0  0  0  0  0  0  0  0  0  0
  -24.7070  -11.6990   20.8430 C   0  0  0  0  0  0  0  0  0  0  0  0
  -26.3640  -12.9510   20.3080 N   0  0  0  0  0  0  0  0  0  0  0  0
  -26.0140  -11.6700   20.5950 N   0  0  0  0  0  0  0  0  0  0  0  0
  -23.9800  -10.4390   21.0310 C   0  0  0  0  0  0  0  0  0  0  0  0
  -24.3730   -9.5010   22.0100 C   0  0  0  0  0  3  0  0  0  0  0  0
  -23.6440   -8.3060   22.1850 C   0  0  0  0  0  3  0  0  0  0  0  0
  -22.5090   -8.0410   21.3810 C   0  0  0  0  0  0  0  0  0  0  0  0
  -22.1380   -8.9690   20.3920 C   0  0  0  0  0  3  0  0  0  0  0  0
  -22.8670  -10.1550   20.2150 C   0  0  0  0  0  3  0  0  0  0  0  0
  -21.7550   -6.8950   21.4640 O   0  0  0  0  0  0  0  0  0  0  0  0
  -21.6400   -6.1930   22.6360 C   0  0  0  0  0  0  0  0  0  0  0  0
  -21.0980   -6.7730   23.8060 C   0  0  0  0  0  3  0  0  0  0  0  0
  -20.9360   -5.9940   24.9680 C   0  0  0  0  0  3  0  0  0  0  0  0
  -21.3060   -4.6340   24.9640 C   0  0  0  0  0  0  0  0  0  0  0  0
  -21.8400   -4.0550   23.8010 C   0  0  0  0  0  3  0  0  0  0  0  0
  -22.0050   -4.8310   22.6400 C   0  0  0  0  0  0  0  0  0  0  0  0
  -22.5010   -4.2610   21.5150 F   0  0  0  0  0  0  0  0  0  0  0  0
  -21.1410   -3.8840   26.0780 F   0  0  0  0  0  0  0  0  0  0  0  0
  -22.8180  -13.5220   21.0090 C   0  0  0  0  0  0  0  0  0  0  0  0
  -22.0640  -12.8700   21.8860 N   0  0  0  0  0  0  0  0  0  0  0  0
  -22.3960  -14.5130   20.4130 O   0  0  0  0  0  0  0  0  0  0  0  0
  -22.4220  -12.0720   22.3900 H   0  0  0  0  0  0  0  0  0  0  0  0
  -21.1150  -13.1690   22.0570 H   0  0  0  0  0  0  0  0  0  0  0  0
  -25.4620  -15.1760   20.2860 N   0  0  0  0  0  0  0  0  0  0  0  0
  -24.6920  -15.8280   20.3780 H   0  0  0  0  0  0  0  0  0  0  0  0
  -26.3560  -15.6120   20.0930 H   0  0  0  0  0  0  0  0  0  0  0  0
  -27.2980  -17.7710   19.4500 C   0  0  0  0  0  2  0  0  0  0  0  0
  -26.4590  -18.6320   20.3950 C   0  0  0  0  0  1  0  0  0  0  0  0
  -28.4150  -17.1990   19.7000 N   0  0  0  0  0  2  0  0  0  0  0  0
  -28.0790  -23.2110   20.4920 C   0  0  0  0  0  3  0  0  0  0  0  0
  -27.7280  -24.6090   20.3830 C   0  0  0  0  0  3  0  0  0  0  0  0
  -28.2080  -26.0060   20.2520 O   0  0  0  0  0  0  0  0  0  0  0  0
  -24.6080  -31.7860   23.1920 C   0  0  0  0  0  0  0  0  0  0  0  0
  -27.2250  -27.0850   20.1410 C   0  0  0  0  0  0  0  0  0  0  0  0
  -23.4320  -30.4150   21.5160 C   0  0  0  0  0  3  0  0  0  0  0  0
  -24.9070  -28.8720   20.0730 C   0  0  0  0  0  0  0  0  0  0  0  0
  -25.9900  -30.6770   21.3930 C   0  0  0  0  0  2  0  0  0  0  0  0
  -26.0750  -29.2900   20.7240 C   0  0  0  0  0  0  0  0  0  0  0  0
  -27.2320  -28.4120   20.7510 C   0  0  0  0  0  3  0  0  0  0  0  0
  -26.0500  -26.8170   19.3980 C   0  0  0  0  0  3  0  0  0  0  0  0
  -24.9130  -27.6530   19.3890 C   0  0  0  0  0  3  0  0  0  0  0  0
  -23.6760  -29.7670   20.1260 C   0  0  0  0  0  2  0  0  0  0  0  0
  -24.6950  -30.9840   22.0870 N   0  0  0  0  0  0  0  0  0  0  0  0
  -23.5170  -32.0580   23.7120 O   0  0  0  0  0  0  0  0  0  0  0  0
  -22.7440  -29.3890   22.4510 C   0  0  0  0  0  0  0  0  0  0  0  0
  -21.4130  -29.2360   22.3260 N   0  0  0  0  0  0  0  0  0  0  0  0
  -23.4110  -28.7320   23.2550 O   0  0  0  0  0  0  0  0  0  0  0  0
  -20.9330  -29.8200   21.6560 H   0  0  0  0  0  0  0  0  0  0  0  0
  -18.0110  -28.0950   22.8470 C   0  0  0  0  0  0  0  0  0  0  0  0
  -20.5810  -28.2900   23.0760 C   0  0  0  0  0  3  0  0  0  0  0  0
  -20.6380  -26.8790   22.4440 C   0  0  0  0  0  2  0  0  0  0  0  0
  -19.5090  -26.6210   21.4390 C   0  0  0  0  0  2  0  0  0  0  0  0
  -18.1440  -26.7710   22.1150 C   0  0  0  0  0  2  0  0  0  0  0  0
  -19.1550  -28.8160   23.2840 C   0  0  0  0  0  0  0  0  0  0  0  0
  -18.9730  -30.0570   23.9340 C   0  0  0  0  0  3  0  0  0  0  0  0
  -17.6840  -30.5780   24.1470 C   0  0  0  0  0  3  0  0  0  0  0  0
  -16.5550  -29.8540   23.7240 C   0  0  0  0  0  3  0  0  0  0  0  0
  -16.7200  -28.6140   23.0810 C   0  0  0  0  0  3  0  0  0  0  0  0
  -25.8770  -32.4120   23.8460 C   0  0  0  0  0  3  0  0  0  0  0  0
  -25.5690  -33.8140   24.1680 N   0  0  0  0  0  0  0  0  0  0  0  0
  -25.9170  -34.8670   23.4130 C   0  0  0  0  0  0  0  0  0  0  0  0
  -26.5970  -34.7580   22.3890 O   0  0  0  0  0  0  0  0  0  0  0  0
  -24.9710  -33.9740   24.9650 H   0  0  0  0  0  0  0  0  0  0  0  0
  -24.2090  -36.6800   23.0410 C   0  0  0  0  0  1  0  0  0  0  0  0
  -25.4360  -36.2590   23.8670 C   0  0  0  0  0  3  0  0  0  0  0  0
  -27.5600  -37.1350   24.7370 C   0  0  0  0  0  1  0  0  0  0  0  0
  -26.4800  -37.3030   23.7690 N   0  0  0  0  0  0  0  0  0  0  0  0
  -26.0780  -38.2300   23.9010 H   0  0  0  0  0  0  0  0  0  0  0  0
  -26.3560  -31.6440   25.1390 C   0  0  1  0  0  0  0  0  0  0  0  0
  -25.2350  -31.4240   26.1820 C   0  0  0  0  0  1  0  0  0  0  0  0
  -26.9340  -30.2570   24.7740 C   0  0  0  0  0  1  0  0  0  0  0  0
  -27.4960  -32.4330   25.8260 C   0  0  0  0  0  1  0  0  0  0  0  0
  2  1  2  0
  3  1  1  0
  4  5  2  0
  4  6  1  0
  5  2  1  0
  6  3  2  0
  7 16  1  0
  8 13  1  0
  9 10  1  0
  9  8  1  0
 11 10  1  0
 11 21  1  0
 11 12  1  0
 13  7  1  0
 13 12  1  0
 14  7  2  0
 15 48  1  0
 15  6  1  0
 15 16  1  0
 16 17  1  0
 18 19  2  0
 19 20  1  0
 19 38  1  0
 20 23  1  0
 21 18  1  0
 21 22  1  0
 22 20  2  0
 23 24  1  0
 24 25  2  0
 26 29  1  0
 26 25  1  0
 27 26  2  0
 28 27  1  0
 28 23  2  0
 29 30  1  0
 30 35  2  0
 30 31  1  0
 31 32  2  0
 33 32  1  0
 33 37  1  0
 34 33  2  0
 35 34  1  0
 36 35  1  0
 38 39  1  0
 39 42  1  0
 39 41  1  0
 40 38  2  0
 43 44  1  0
 43 18  1  0
 45 43  1  0
 46 48  1  0
 46 47  1  0
 49  5  1  0
 50 49  2  0
 51 50  1  0
 52 63  2  0
 53 51  1  0
 53 58  1  0
 54 62  1  0
 54 64  1  0
 55 61  1  0
 55 57  1  0
 56 62  1  0
 57 58  2  0
 57 56  1  0
 59 53  2  0
 60 59  1  0
 60 55  2  0
 61 54  1  0
 62 52  1  0
 64 66  2  0
 65 64  1  0
 67 65  1  0
 68 77  2  0
 68 73  1  0
 69 65  1  0
 69 73  1  0
 70 69  1  0
 71 72  1  0
 71 70  1  0
 72 68  1  0
 73 74  2  0
 74 75  1  0
 76 75  2  0
 77 76  1  0
 78 52  1  0
 78 79  1  0
 78 88  1  0
 79 82  1  0
 80 84  1  0
 80 79  1  0
 81 80  2  0
 84 83  1  0
 86 84  1  0
 86 87  1  0
 86 85  1  0
 88 91  1  1
 88 89  1  0
 90 88  1  0
M  ISO  4   7 100  16 100  50 101  51 101
M  END
>  <TORSDO>  (52) 
F 18

>  <SCORE>  (52) 
-13.949

>  <name>  (52) 
51

>  <ligand_id>  (52) 
51

>  <original_smiles>  (52) 
[H]C(=NC(c1c([H])c([H])c([H])c(C([H])=C([H])Oc2c([H])c([H])c3c(c2[H])C([H])([H])N(C(=O)C([H])(N([H])C(=O)C([H])(N([H])C([H])([H])[H])C([H])([H])[H])C(C([H])([H])[H])(C([H])([H])[H])C([H])([H])[H])C([H])(C(=O)N([H])C2([H])c4c([H])c([H])c([H])c([H])c4C([H])([H])C([H])([H])C2([H])[H])C3([H])[H])c1[H])=[N+]([H])C(=O)N1C([H])([H])C([H])([H])C([H])([H])C([H])(n2nc(-c3c([H])c([H])c(Oc4c([H])c([H])c(F)c([H])c4F)c([H])c3[H])c(C(=O)N([H])[H])c2N([H])[H])C1([H])[H])C([H])([H])[H]

>  <smiles>  (52) 
[H]C(=NC(c1c([H])c([H])c([H])c(C([H])=C([H])Oc2c([H])c([H])c3c(c2[H])C([H])([H])N(C(=O)C([H])(N([H])C(=O)C([H])(N([H])C([H])([H])[H])C([H])([H])[H])C(C([H])([H])[H])(C([H])([H])[H])C([H])([H])[H])C([H])(C(=O)N([H])C2([H])c4c([H])c([H])c([H])c([H])c4C([H])([H])C([H])([H])C2([H])[H])C3([H])[H])c1[H])=[N+]([H])C(=O)N1C([H])([H])C([H])([H])C([H])([H])C([H])(n2nc(-c3c([H])c([H])c(Oc4c([H])c([H])c(F)c([H])c4F)c([H])c3[H])c(C(=O)N([H])[H])c2N([H])[H])C1([H])[H])C([H])([H])[H]

$$$$
52:0:0
     RDKit          3D

 94102  0  0  1  0  0  0  0  0999 V2000
  -29.3010  -20.8780   20.7520 C   0  0  0  0  0  0  0  0  0  0  0  0
  -29.3710  -22.0350   20.0400 N   0  0  0  0  0  0  0  0  0  0  0  0
  -28.8670  -20.8490   21.9070 O   0  0  0  0  0  0  0  0  0  0  0  0
  -29.7060  -21.9240   19.0940 H   0  0  0  0  0  0  0  0  0  0  0  0
  -30.8510  -18.4800   18.1650 C   0  0  0  0  0  3  0  0  0  0  0  0
  -30.4020  -19.6470   18.8090 C   0  0  0  0  0  3  0  0  0  0  0  0
  -30.7010  -17.2210   18.7720 C   0  0  0  0  0  3  0  0  0  0  0  0
  -29.6320  -18.2870   20.6830 C   0  0  0  0  0  3  0  0  0  0  0  0
  -29.7760  -19.5850   20.0760 C   0  0  0  0  0  0  0  0  0  0  0  0
  -30.1060  -17.0870   20.0520 C   0  0  0  0  0  0  0  0  0  0  0  0
  -30.6650  -14.6410   20.3580 C   0  0  0  0  0  0  0  0  0  0  0  0
  -30.3800  -12.4180   19.3270 C   0  0  0  0  0  2  0  0  0  0  0  0
  -29.4510  -12.5800   18.1060 C   0  0  0  0  0  2  0  0  0  0  0  0
  -27.9790  -12.4360   18.5360 C   0  0  0  0  0  2  0  0  0  0  0  0
  -27.6250  -13.3100   19.7680 C   0  0  0  0  0  3  0  0  0  0  0  0
  -28.6780  -13.1630   20.8900 C   0  0  0  0  0  2  0  0  0  0  0  0
  -29.9980  -13.4490   20.3110 N   0  0  0  0  0  0  0  0  0  0  0  0
  -31.8410  -14.7310   19.9950 O   0  0  0  0  0  0  0  0  0  0  0  0
  -29.9350  -15.7610   20.6340 N   0  0  0  0  0  0  0  0  0  0  0  0
  -29.0730  -15.6040   21.1360 H   0  0  0  0  0  0  0  0  0  0  0  0
  -25.2320  -13.9170   20.4810 C   0  0  0  0  0  0  0  0  0  0  0  0
  -24.1630  -13.1480   20.8510 C   0  0  0  0  0  0  0  0  0  0  0  0
  -24.6210  -11.7940   20.8250 C   0  0  0  0  0  0  0  0  0  0  0  0
  -26.2740  -13.0340   20.2500 N   0  0  0  0  0  0  0  0  0  0  0  0
  -25.9110  -11.7520   20.5180 N   0  0  0  0  0  0  0  0  0  0  0  0
  -23.8920  -10.5350   21.0160 C   0  0  0  0  0  0  0  0  0  0  0  0
  -24.3190   -9.5700   21.9560 C   0  0  0  0  0  3  0  0  0  0  0  0
  -23.5900   -8.3740   22.1360 C   0  0  0  0  0  3  0  0  0  0  0  0
  -22.4210   -8.1350   21.3760 C   0  0  0  0  0  0  0  0  0  0  0  0
  -22.0130   -9.0880   20.4260 C   0  0  0  0  0  3  0  0  0  0  0  0
  -22.7430  -10.2750   20.2450 C   0  0  0  0  0  3  0  0  0  0  0  0
  -21.6650   -6.9910   21.4650 O   0  0  0  0  0  0  0  0  0  0  0  0
  -21.6100   -6.2530   22.6200 C   0  0  0  0  0  0  0  0  0  0  0  0
  -21.1720   -6.8110   23.8410 C   0  0  0  0  0  3  0  0  0  0  0  0
  -21.0620   -5.9990   24.9880 C   0  0  0  0  0  3  0  0  0  0  0  0
  -21.3820   -4.6300   24.9150 C   0  0  0  0  0  0  0  0  0  0  0  0
  -21.8130   -4.0720   23.6980 C   0  0  0  0  0  3  0  0  0  0  0  0
  -21.9240   -4.8810   22.5540 C   0  0  0  0  0  0  0  0  0  0  0  0
  -22.3200   -4.3320   21.3800 F   0  0  0  0  0  0  0  0  0  0  0  0
  -21.2700   -3.8470   26.0130 F   0  0  0  0  0  0  0  0  0  0  0  0
  -22.7660  -13.6280   21.1200 C   0  0  0  0  0  0  0  0  0  0  0  0
  -22.0350  -12.9340   21.9840 N   0  0  0  0  0  0  0  0  0  0  0  0
  -22.3320  -14.6540   20.5990 O   0  0  0  0  0  0  0  0  0  0  0  0
  -22.3990  -12.1040   22.4290 H   0  0  0  0  0  0  0  0  0  0  0  0
  -21.0970  -13.2370   22.2070 H   0  0  0  0  0  0  0  0  0  0  0  0
  -25.4000  -15.2870   20.2990 N   0  0  0  0  0  0  0  0  0  0  0  0
  -24.6330  -15.9420   20.4040 H   0  0  0  0  0  0  0  0  0  0  0  0
  -26.2440  -15.7230   19.9510 H   0  0  0  0  0  0  0  0  0  0  0  0
  -30.0660  -23.9870   21.4170 C   0  0  0  0  0  1  0  0  0  0  0  0
  -29.0310  -23.4440   20.4150 C   0  0  0  0  0  3  0  0  0  0  0  0
  -28.6110  -25.7350   19.1600 C   0  0  0  0  0  3  0  0  0  0  0  0
  -28.9010  -24.3960   19.1850 C   0  0  0  0  0  0  0  0  0  0  0  0
  -29.1300  -23.7140   17.8400 C   0  0  0  0  0  1  0  0  0  0  0  0
  -28.3660  -26.6150   20.2040 O   0  0  0  0  0  0  0  0  0  0  0  0
  -24.5820  -31.9100   23.2210 C   0  0  0  0  0  0  0  0  0  0  0  0
  -27.2380  -27.4310   20.1410 C   0  0  0  0  0  0  0  0  0  0  0  0
  -23.3860  -30.5090   21.5760 C   0  0  0  0  0  3  0  0  0  0  0  0
  -24.8490  -28.9800   20.1430 C   0  0  0  0  0  0  0  0  0  0  0  0
  -25.9180  -30.8620   21.3860 C   0  0  0  0  0  2  0  0  0  0  0  0
  -26.0100  -29.4900   20.7370 C   0  0  0  0  0  0  0  0  0  0  0  0
  -27.2070  -28.7240   20.7340 C   0  0  0  0  0  3  0  0  0  0  0  0
  -26.0500  -26.9490   19.5460 C   0  0  0  0  0  3  0  0  0  0  0  0
  -24.8670  -27.7110   19.5430 C   0  0  0  0  0  3  0  0  0  0  0  0
  -23.6030  -29.8390   20.1930 C   0  0  0  0  0  2  0  0  0  0  0  0
  -24.6470  -31.1090   22.1190 N   0  0  0  0  0  0  0  0  0  0  0  0
  -23.4990  -32.1780   23.7600 O   0  0  0  0  0  0  0  0  0  0  0  0
  -22.7340  -29.4840   22.5320 C   0  0  0  0  0  0  0  0  0  0  0  0
  -21.4080  -29.3000   22.4070 N   0  0  0  0  0  0  0  0  0  0  0  0
  -23.4170  -28.8580   23.3480 O   0  0  0  0  0  0  0  0  0  0  0  0
  -20.9170  -29.8560   21.7220 H   0  0  0  0  0  0  0  0  0  0  0  0
  -18.0370  -28.0900   22.9000 C   0  0  0  0  0  0  0  0  0  0  0  0
  -20.5930  -28.3580   23.1760 C   0  0  0  0  0  3  0  0  0  0  0  0
  -20.7030  -26.9280   22.5990 C   0  0  0  0  0  2  0  0  0  0  0  0
  -19.6040  -26.6020   21.5830 C   0  0  0  0  0  2  0  0  0  0  0  0
  -18.2210  -26.7410   22.2250 C   0  0  0  0  0  2  0  0  0  0  0  0
  -19.1520  -28.8550   23.3340 C   0  0  0  0  0  0  0  0  0  0  0  0
  -18.9270  -30.1180   23.9240 C   0  0  0  0  0  3  0  0  0  0  0  0
  -17.6200  -30.6150   24.0870 C   0  0  0  0  0  3  0  0  0  0  0  0
  -16.5200  -29.8460   23.6710 C   0  0  0  0  0  3  0  0  0  0  0  0
  -16.7300  -28.5860   23.0820 C   0  0  0  0  0  3  0  0  0  0  0  0
  -25.8650  -32.5470   23.8420 C   0  0  0  0  0  3  0  0  0  0  0  0
  -26.3860  -31.7770   25.1170 C   0  0  1  0  0  0  0  0  0  0  0  0
  -25.2950  -31.5330   26.1850 C   0  0  0  0  0  1  0  0  0  0  0  0
  -26.9750  -30.4030   24.7220 C   0  0  0  0  0  1  0  0  0  0  0  0
  -27.5330  -32.5770   25.7800 C   0  0  0  0  0  1  0  0  0  0  0  0
  -25.5490  -33.9440   24.1730 N   0  0  0  0  0  0  0  0  0  0  0  0
  -25.8760  -34.9970   23.4130 C   0  0  0  0  0  0  0  0  0  0  0  0
  -26.5450  -34.8970   22.3810 O   0  0  0  0  0  0  0  0  0  0  0  0
  -24.9510  -34.0950   24.9720 H   0  0  0  0  0  0  0  0  0  0  0  0
  -24.1420  -36.7840   23.0590 C   0  0  0  0  0  1  0  0  0  0  0  0
  -25.3830  -36.3830   23.8720 C   0  0  0  0  0  3  0  0  0  0  0  0
  -27.5100  -37.2770   24.7100 C   0  0  0  0  0  1  0  0  0  0  0  0
  -26.4110  -37.4400   23.7630 N   0  0  0  0  0  0  0  0  0  0  0  0
  -26.0000  -38.3580   23.9110 H   0  0  0  0  0  0  0  0  0  0  0  0
  1  3  2  0
  2 50  1  0
  2  1  1  0
  4  2  1  0
  5  7  2  0
  5  6  1  0
  6  9  2  0
  7 10  1  0
  9  8  1  0
  9  1  1  0
 10 19  1  0
 10  8  2  0
 11 19  1  0
 12 17  1  0
 13 14  1  0
 13 12  1  0
 15 14  1  0
 15 24  1  0
 15 16  1  0
 17 11  1  0
 17 16  1  0
 18 11  2  0
 19 20  1  0
 21 22  2  0
 22 41  1  0
 23 22  1  0
 23 26  1  0
 24 21  1  0
 24 25  1  0
 25 23  2  0
 26 27  1  0
 27 28  2  0
 29 32  1  0
 29 28  1  0
 30 29  2  0
 31 30  1  0
 31 26  2  0
 32 33  1  0
 33 34  1  0
 34 35  2  0
 36 35  1  0
 36 40  1  0
 37 36  2  0
 38 33  2  0
 38 37  1  0
 39 38  1  0
 41 42  1  0
 42 45  1  0
 42 44  1  0
 43 41  2  0
 46 47  1  0
 46 21  1  0
 48 46  1  0
 50 49  1  0
 51 52  2  0
 51 54  1  0
 52 50  1  0
 53 52  1  0
 55 66  2  0
 56 54  1  0
 56 61  1  0
 57 65  1  0
 57 67  1  0
 58 64  1  0
 58 60  1  0
 59 65  1  0
 60 59  1  0
 61 60  2  0
 62 56  2  0
 63 62  1  0
 63 58  2  0
 64 57  1  0
 65 55  1  0
 67 69  2  0
 68 67  1  0
 70 68  1  0
 71 80  2  0
 71 76  1  0
 72 68  1  0
 72 76  1  0
 73 72  1  0
 74 75  1  0
 74 73  1  0
 75 71  1  0
 76 77  2  0
 77 78  1  0
 79 78  2  0
 80 79  1  0
 81 55  1  0
 81 86  1  0
 81 82  1  0
 82 85  1  1
 82 83  1  0
 84 82  1  0
 86 89  1  0
 87 91  1  0
 87 86  1  0
 88 87  2  0
 91 90  1  0
 93 91  1  0
 93 94  1  0
 93 92  1  0
M  ISO  4  11 100  19 100  51 101  54 101
M  END
>  <TORSDO>  (53) 
F 19

>  <SCORE>  (53) 
-14.273

>  <name>  (53) 
52

>  <ligand_id>  (53) 
52

>  <original_smiles>  (53) 
[H]C(Oc1c([H])c([H])c2c(c1[H])C([H])([H])N(C(=O)C([H])(N([H])C(=O)C([H])(N([H])C([H])([H])[H])C([H])([H])[H])C(C([H])([H])[H])(C([H])([H])[H])C([H])([H])[H])C([H])(C(=O)N([H])C1([H])c3c([H])c([H])c([H])c([H])c3C([H])([H])C([H])([H])C1([H])[H])C2([H])[H])=C(C([H])([H])[H])C([H])(N([H])C(=O)c1c([H])c([H])c([H])c(N([H])C(=O)N2C([H])([H])C([H])([H])C([H])([H])C([H])(n3nc(-c4c([H])c([H])c(Oc5c([H])c([H])c(F)c([H])c5F)c([H])c4[H])c(C(=O)N([H])[H])c3N([H])[H])C2([H])[H])c1[H])C([H])([H])[H]

>  <smiles>  (53) 
[H]C(Oc1c([H])c([H])c2c(c1[H])C([H])([H])N(C(=O)C([H])(N([H])C(=O)C([H])(N([H])C([H])([H])[H])C([H])([H])[H])C(C([H])([H])[H])(C([H])([H])[H])C([H])([H])[H])C([H])(C(=O)N([H])C1([H])c3c([H])c([H])c([H])c([H])c3C([H])([H])C([H])([H])C1([H])[H])C2([H])[H])=C(C([H])([H])[H])C([H])(N([H])C(=O)c1c([H])c([H])c([H])c(N([H])C(=O)N2C([H])([H])C([H])([H])C([H])([H])C([H])(n3nc(-c4c([H])c([H])c(Oc5c([H])c([H])c(F)c([H])c5F)c([H])c4[H])c(C(=O)N([H])[H])c3N([H])[H])C2([H])[H])c1[H])C([H])([H])[H]

$$$$
53:0:0
     RDKit          3D

 92101  0  0  1  0  0  0  0  0999 V2000
  -27.1770  -22.9770   21.5840 C   0  0  0  0  0  0  0  0  0  0  0  0
  -28.0080  -23.6490   20.7730 C   0  0  0  0  0  0  0  0  0  0  0  0
  -25.9180  -23.0950   22.0500 C   0  0  0  0  0  2  0  0  0  0  0  0
  -27.6570  -25.0180   20.5060 C   0  0  0  0  0  3  0  0  0  0  0  0
  -28.3350  -22.1790   22.0780 C   0  0  0  0  0  2  0  0  0  0  0  0
  -28.9420  -22.4410   20.7460 N   0  0  0  0  0  0  0  0  0  0  0  0
  -28.2060  -19.9110   20.1240 C   0  0  0  0  0  3  0  0  0  0  0  0
  -28.4260  -18.4760   20.0630 C   0  0  0  0  0  3  0  0  0  0  0  0
  -30.4560  -20.2330   20.5420 C   0  0  0  0  0  3  0  0  0  0  0  0
  -29.1840  -20.9310   20.4300 C   0  0  0  0  0  0  0  0  0  0  0  0
  -29.6820  -17.8100   20.2790 C   0  0  0  0  0  0  0  0  0  0  0  0
  -30.7080  -18.7900   20.4710 C   0  0  0  0  0  0  0  0  0  0  0  0
  -31.9810  -18.3570   20.6210 F   0  0  0  0  0  0  0  0  0  0  0  0
  -30.6860  -15.2140   20.2630 C   0  0  0  0  0  0  0  0  0  0  0  0
  -30.6720  -12.8430   19.3490 C   0  0  0  0  0  2  0  0  0  0  0  0
  -29.7350  -12.8020   18.1200 C   0  0  0  0  0  2  0  0  0  0  0  0
  -28.2580  -12.6090   18.5380 C   0  0  0  0  0  2  0  0  0  0  0  0
  -27.8530  -13.5080   19.7400 C   0  0  0  0  0  3  0  0  0  0  0  0
  -28.9140  -13.4810   20.8620 C   0  0  0  0  0  2  0  0  0  0  0  0
  -30.1780  -13.9170   20.2540 N   0  0  0  0  0  0  0  0  0  0  0  0
  -31.8850  -15.3620   20.0030 O   0  0  0  0  0  0  0  0  0  0  0  0
  -29.7490  -16.2770   20.3300 N   0  0  0  0  0  0  0  0  0  0  0  0
  -28.8280  -15.8840   20.4120 H   0  0  0  0  0  0  0  0  0  0  0  0
  -25.4670  -14.0780   20.4890 C   0  0  0  0  0  0  0  0  0  0  0  0
  -24.4100  -13.2940   20.8630 C   0  0  0  0  0  0  0  0  0  0  0  0
  -24.8770  -11.9460   20.8130 C   0  0  0  0  0  0  0  0  0  0  0  0
  -26.5140  -13.2050   20.2310 N   0  0  0  0  0  0  0  0  0  0  0  0
  -26.1670  -11.9170   20.4960 N   0  0  0  0  0  0  0  0  0  0  0  0
  -24.1560  -10.6790   20.9930 C   0  0  0  0  0  0  0  0  0  0  0  0
  -24.5480   -9.7330   21.9640 C   0  0  0  0  0  3  0  0  0  0  0  0
  -23.8260   -8.5310   22.1240 C   0  0  0  0  0  3  0  0  0  0  0  0
  -22.6970   -8.2670   21.3100 C   0  0  0  0  0  0  0  0  0  0  0  0
  -22.3250   -9.2030   20.3270 C   0  0  0  0  0  3  0  0  0  0  0  0
  -23.0480  -10.3940   20.1670 C   0  0  0  0  0  3  0  0  0  0  0  0
  -21.9460   -7.1170   21.3830 O   0  0  0  0  0  0  0  0  0  0  0  0
  -21.7830   -6.4340   22.5600 C   0  0  0  0  0  0  0  0  0  0  0  0
  -21.1780   -7.0260   23.6890 C   0  0  0  0  0  3  0  0  0  0  0  0
  -20.9710   -6.2650   24.8580 C   0  0  0  0  0  3  0  0  0  0  0  0
  -21.3590   -4.9130   24.8980 C   0  0  0  0  0  0  0  0  0  0  0  0
  -21.9570   -4.3180   23.7710 C   0  0  0  0  0  3  0  0  0  0  0  0
  -22.1660   -5.0760   22.6050 C   0  0  0  0  0  0  0  0  0  0  0  0
  -22.7240   -4.4920   21.5180 F   0  0  0  0  0  0  0  0  0  0  0  0
  -21.1510   -4.1790   26.0160 F   0  0  0  0  0  0  0  0  0  0  0  0
  -23.0110  -13.7630   21.1410 C   0  0  0  0  0  0  0  0  0  0  0  0
  -22.2810  -13.0610   22.0020 N   0  0  0  0  0  0  0  0  0  0  0  0
  -22.5690  -14.7880   20.6230 O   0  0  0  0  0  0  0  0  0  0  0  0
  -22.6470  -12.2340   22.4520 H   0  0  0  0  0  0  0  0  0  0  0  0
  -21.3410  -13.3610   22.2220 H   0  0  0  0  0  0  0  0  0  0  0  0
  -25.6190  -15.4500   20.3120 N   0  0  0  0  0  0  0  0  0  0  0  0
  -24.8150  -16.0640   20.3980 H   0  0  0  0  0  0  0  0  0  0  0  0
  -26.3750  -15.8580   19.7770 H   0  0  0  0  0  0  0  0  0  0  0  0
  -28.1510  -26.3050   20.0070 O   0  0  0  0  0  0  0  0  0  0  0  0
  -24.6460  -31.9480   23.2300 C   0  0  0  0  0  0  0  0  0  0  0  0
  -27.1830  -27.3800   19.9670 C   0  0  0  0  0  0  0  0  0  0  0  0
  -23.4230  -30.6100   21.5590 C   0  0  0  0  0  3  0  0  0  0  0  0
  -24.8580  -29.1130   20.0390 C   0  0  0  0  0  0  0  0  0  0  0  0
  -25.9750  -30.9020   21.3620 C   0  0  0  0  0  2  0  0  0  0  0  0
  -26.0480  -29.5400   20.6490 C   0  0  0  0  0  0  0  0  0  0  0  0
  -27.2160  -28.6840   20.6070 C   0  0  0  0  0  3  0  0  0  0  0  0
  -25.9780  -27.0770   19.2990 C   0  0  0  0  0  3  0  0  0  0  0  0
  -24.8350  -27.8910   19.3520 C   0  0  0  0  0  3  0  0  0  0  0  0
  -23.6250  -29.9940   20.1480 C   0  0  0  0  0  2  0  0  0  0  0  0
  -24.7010  -31.1750   22.1020 N   0  0  0  0  0  0  0  0  0  0  0  0
  -23.5700  -32.2050   23.7900 O   0  0  0  0  0  0  0  0  0  0  0  0
  -22.7710  -29.5580   22.4960 C   0  0  0  0  0  0  0  0  0  0  0  0
  -21.4470  -29.3620   22.3680 N   0  0  0  0  0  0  0  0  0  0  0  0
  -23.4600  -28.9260   23.3000 O   0  0  0  0  0  0  0  0  0  0  0  0
  -20.9470  -29.9200   21.6910 H   0  0  0  0  0  0  0  0  0  0  0  0
  -18.0930  -28.0720   22.8450 C   0  0  0  0  0  0  0  0  0  0  0  0
  -20.6460  -28.3880   23.1160 C   0  0  0  0  0  3  0  0  0  0  0  0
  -20.7820  -26.9740   22.5040 C   0  0  0  0  0  2  0  0  0  0  0  0
  -19.6850  -26.6520   21.4850 C   0  0  0  0  0  2  0  0  0  0  0  0
  -18.3010  -26.7470   22.1320 C   0  0  0  0  0  2  0  0  0  0  0  0
  -19.1940  -28.8500   23.2930 C   0  0  0  0  0  0  0  0  0  0  0  0
  -18.9450  -30.0900   23.9210 C   0  0  0  0  0  3  0  0  0  0  0  0
  -17.6280  -30.5510   24.1050 C   0  0  0  0  0  3  0  0  0  0  0  0
  -16.5420  -29.7700   23.6720 C   0  0  0  0  0  3  0  0  0  0  0  0
  -16.7760  -28.5320   23.0470 C   0  0  0  0  0  3  0  0  0  0  0  0
  -25.9350  -32.5640   23.8550 C   0  0  0  0  0  3  0  0  0  0  0  0
  -25.6380  -33.9660   24.1910 N   0  0  0  0  0  0  0  0  0  0  0  0
  -25.9630  -35.0210   23.4330 C   0  0  0  0  0  0  0  0  0  0  0  0
  -26.6120  -34.9160   22.3890 O   0  0  0  0  0  0  0  0  0  0  0  0
  -25.0490  -34.1240   24.9960 H   0  0  0  0  0  0  0  0  0  0  0  0
  -24.2370  -36.8300   23.1380 C   0  0  0  0  0  1  0  0  0  0  0  0
  -25.5010  -36.4110   23.9090 C   0  0  0  0  0  3  0  0  0  0  0  0
  -27.6560  -37.2910   24.6900 C   0  0  0  0  0  1  0  0  0  0  0  0
  -26.5350  -37.4590   23.7670 N   0  0  0  0  0  0  0  0  0  0  0  0
  -26.1340  -38.3830   23.9160 H   0  0  0  0  0  0  0  0  0  0  0  0
  -26.4370  -31.7850   25.1350 C   0  0  1  0  0  0  0  0  0  0  0  0
  -25.3310  -31.5630   26.1930 C   0  0  0  0  0  1  0  0  0  0  0  0
  -27.0090  -30.4000   24.7500 C   0  0  0  0  0  1  0  0  0  0  0  0
  -27.5900  -32.5710   25.8050 C   0  0  0  0  0  1  0  0  0  0  0  0
  1  3  2  0
  1  5  1  0
  2  1  1  0
  4  2  2  0
  6  2  1  0
  6  5  1  0
  7 10  1  0
  8  7  2  0
  8 11  1  0
 10  9  2  0
 10  6  1  0
 11 22  1  0
 11 12  2  0
 12  9  1  0
 12 13  1  0
 14 22  1  0
 15 20  1  0
 16 17  1  0
 16 15  1  0
 18 17  1  0
 18 27  1  0
 18 19  1  0
 20 14  1  0
 20 19  1  0
 21 14  2  0
 22 23  1  0
 24 25  2  0
 25 44  1  0
 26 25  1  0
 26 29  1  0
 27 24  1  0
 27 28  1  0
 28 26  2  0
 29 30  1  0
 30 31  2  0
 32 35  1  0
 32 31  1  0
 33 32  2  0
 34 33  1  0
 34 29  2  0
 35 36  1  0
 36 41  2  0
 36 37  1  0
 37 38  2  0
 38 39  1  0
 39 43  1  0
 40 39  2  0
 41 40  1  0
 42 41  1  0
 44 45  1  0
 45 48  1  0
 45 47  1  0
 46 44  2  0
 49 50  1  0
 49 24  1  0
 51 49  1  0
 52  4  1  0
 53 64  2  0
 54 52  1  0
 54 59  1  0
 55 63  1  0
 55 65  1  0
 56 62  1  0
 56 58  1  0
 57 63  1  0
 58 57  1  0
 59 58  2  0
 60 61  1  0
 60 54  2  0
 61 56  2  0
 62 55  1  0
 63 53  1  0
 65 67  2  0
 66 65  1  0
 68 66  1  0
 69 78  2  0
 69 74  1  0
 70 66  1  0
 70 74  1  0
 71 70  1  0
 72 73  1  0
 72 71  1  0
 73 69  1  0
 74 75  2  0
 75 76  1  0
 77 76  2  0
 78 77  1  0
 79 53  1  0
 79 80  1  0
 79 89  1  0
 80 83  1  0
 81 85  1  0
 81 80  1  0
 82 81  2  0
 85 84  1  0
 87 85  1  0
 87 88  1  0
 87 86  1  0
 89 92  1  1
 89 90  1  0
 91 89  1  0
M  ISO  4   4 101  14 100  22 100  52 101
M  END
>  <TORSDO>  (54) 
F 17

>  <SCORE>  (54) 
-14.795

>  <name>  (54) 
53

>  <ligand_id>  (54) 
53

>  <original_smiles>  (54) 
[H]C([H])=C1C(=C([H])Oc2c([H])c([H])c3c(c2[H])C([H])([H])N(C(=O)C([H])(N([H])C(=O)C([H])(N([H])C([H])([H])[H])C([H])([H])[H])C(C([H])([H])[H])(C([H])([H])[H])C([H])([H])[H])C([H])(C(=O)N([H])C2([H])c4c([H])c([H])c([H])c([H])c4C([H])([H])C([H])([H])C2([H])[H])C3([H])[H])N(c2c([H])c([H])c(N([H])C(=O)N3C([H])([H])C([H])([H])C([H])([H])C([H])(n4nc(-c5c([H])c([H])c(Oc6c([H])c([H])c(F)c([H])c6F)c([H])c5[H])c(C(=O)N([H])[H])c4N([H])[H])C3([H])[H])c(F)c2[H])C1([H])[H]

>  <smiles>  (54) 
[H]C([H])=C1C(=C([H])Oc2c([H])c([H])c3c(c2[H])C([H])([H])N(C(=O)C([H])(N([H])C(=O)C([H])(N([H])C([H])([H])[H])C([H])([H])[H])C(C([H])([H])[H])(C([H])([H])[H])C([H])([H])[H])C([H])(C(=O)N([H])C2([H])c4c([H])c([H])c([H])c([H])c4C([H])([H])C([H])([H])C2([H])[H])C3([H])[H])N(c2c([H])c([H])c(N([H])C(=O)N3C([H])([H])C([H])([H])C([H])([H])C([H])(n4nc(-c5c([H])c([H])c(Oc6c([H])c([H])c(F)c([H])c6F)c([H])c5[H])c(C(=O)N([H])[H])c4N([H])[H])C3([H])[H])c(F)c2[H])C1([H])[H]

$$$$
54:0:0
     RDKit          3D

 94103  0  0  1  0  0  0  0  0999 V2000
  -30.2630  -23.7890   20.5270 C   0  0  0  0  0  3  0  0  0  0  0  0
  -29.0300  -23.7910   20.0200 C   0  0  0  0  0  0  0  0  0  0  0  0
  -30.7110  -22.4160   20.6930 C   0  0  0  0  0  0  0  0  0  0  0  0
  -28.6690  -22.3700   19.8570 C   0  0  0  0  0  0  0  0  0  0  0  0
  -29.7190  -21.5940   20.2680 N   0  0  0  0  0  0  0  0  0  0  0  0
  -31.8030  -22.0580   21.1520 O   0  0  0  0  0  0  0  0  0  0  0  0
  -27.6010  -21.9350   19.4090 O   0  0  0  0  0  0  0  0  0  0  0  0
  -30.9930  -19.3760   20.0380 C   0  0  0  0  0  3  0  0  0  0  0  0
  -31.0740  -17.9480   20.1060 C   0  0  0  0  0  3  0  0  0  0  0  0
  -28.6620  -19.2890   20.5980 C   0  0  0  0  0  3  0  0  0  0  0  0
  -29.7880  -20.1050   20.2900 C   0  0  0  0  0  0  0  0  0  0  0  0
  -29.9430  -17.1520   20.4320 C   0  0  0  0  0  0  0  0  0  0  0  0
  -28.7410  -17.8650   20.6690 C   0  0  0  0  0  0  0  0  0  0  0  0
  -27.6250  -17.1590   20.9760 F   0  0  0  0  0  0  0  0  0  0  0  0
  -30.6480  -14.6650   20.0420 C   0  0  0  0  0  0  0  0  0  0  0  0
  -30.3590  -12.4610   18.9240 C   0  0  0  0  0  2  0  0  0  0  0  0
  -29.3400  -12.6330   17.7750 C   0  0  0  0  0  2  0  0  0  0  0  0
  -27.8940  -12.4740   18.2870 C   0  0  0  0  0  2  0  0  0  0  0  0
  -27.6230  -13.3000   19.5730 C   0  0  0  0  0  3  0  0  0  0  0  0
  -28.7460  -13.0910   20.6140 C   0  0  0  0  0  2  0  0  0  0  0  0
  -30.0230  -13.4450   19.9720 N   0  0  0  0  0  0  0  0  0  0  0  0
  -31.7720  -14.8380   19.5620 O   0  0  0  0  0  0  0  0  0  0  0  0
  -29.8890  -15.6910   20.5370 N   0  0  0  0  0  0  0  0  0  0  0  0
  -29.0330  -15.3660   20.9610 H   0  0  0  0  0  0  0  0  0  0  0  0
  -25.2810  -13.9000   20.4470 C   0  0  0  0  0  0  0  0  0  0  0  0
  -24.2290  -13.1270   20.8560 C   0  0  0  0  0  0  0  0  0  0  0  0
  -24.6740  -11.7730   20.7630 C   0  0  0  0  0  0  0  0  0  0  0  0
  -26.3010  -13.0170   20.1290 N   0  0  0  0  0  0  0  0  0  0  0  0
  -25.9440  -11.7310   20.3790 N   0  0  0  0  0  0  0  0  0  0  0  0
  -23.9480  -10.5130   20.9630 C   0  0  0  0  0  0  0  0  0  0  0  0
  -24.3820   -9.5490   21.8990 C   0  0  0  0  0  3  0  0  0  0  0  0
  -23.6550   -8.3550   22.0860 C   0  0  0  0  0  3  0  0  0  0  0  0
  -22.4780   -8.1140   21.3370 C   0  0  0  0  0  0  0  0  0  0  0  0
  -22.0630   -9.0670   20.3900 C   0  0  0  0  0  3  0  0  0  0  0  0
  -22.7910  -10.2530   20.2010 C   0  0  0  0  0  3  0  0  0  0  0  0
  -21.7220   -6.9720   21.4330 O   0  0  0  0  0  0  0  0  0  0  0  0
  -21.6200   -6.2730   22.6090 C   0  0  0  0  0  0  0  0  0  0  0  0
  -21.1360   -6.8710   23.7940 C   0  0  0  0  0  3  0  0  0  0  0  0
  -20.9830   -6.0980   24.9610 C   0  0  0  0  0  3  0  0  0  0  0  0
  -21.3030   -4.7270   24.9460 C   0  0  0  0  0  0  0  0  0  0  0  0
  -21.7810   -4.1280   23.7650 C   0  0  0  0  0  3  0  0  0  0  0  0
  -21.9360   -4.8990   22.6010 C   0  0  0  0  0  0  0  0  0  0  0  0
  -22.3760   -4.3130   21.4610 F   0  0  0  0  0  0  0  0  0  0  0  0
  -21.1500   -3.9810   26.0640 F   0  0  0  0  0  0  0  0  0  0  0  0
  -22.8550  -13.6100   21.2250 C   0  0  0  0  0  0  0  0  0  0  0  0
  -22.1780  -12.9060   22.1250 N   0  0  0  0  0  0  0  0  0  0  0  0
  -22.3940  -14.6480   20.7500 O   0  0  0  0  0  0  0  0  0  0  0  0
  -22.5650  -12.0670   22.5300 H   0  0  0  0  0  0  0  0  0  0  0  0
  -21.2590  -13.2140   22.4130 H   0  0  0  0  0  0  0  0  0  0  0  0
  -25.4470  -15.2740   20.3030 N   0  0  0  0  0  0  0  0  0  0  0  0
  -24.7040  -15.9300   20.5160 H   0  0  0  0  0  0  0  0  0  0  0  0
  -26.3140  -15.7340   20.0520 H   0  0  0  0  0  0  0  0  0  0  0  0
  -28.1010  -24.9830   19.5980 C   0  0  0  0  0  2  0  0  0  0  0  0
  -28.3850  -26.4130   19.9270 O   0  0  0  0  0  0  0  0  0  0  0  0
  -24.5580  -31.6880   23.0940 C   0  0  0  0  0  0  0  0  0  0  0  0
  -27.2730  -27.2850   19.8850 C   0  0  0  0  0  0  0  0  0  0  0  0
  -23.3900  -30.3240   21.4040 C   0  0  0  0  0  3  0  0  0  0  0  0
  -24.8780  -28.8670   19.9250 C   0  0  0  0  0  0  0  0  0  0  0  0
  -25.9250  -30.7000   21.2420 C   0  0  0  0  0  2  0  0  0  0  0  0
  -26.0370  -29.3480   20.5460 C   0  0  0  0  0  0  0  0  0  0  0  0
  -27.2370  -28.5680   20.5200 C   0  0  0  0  0  3  0  0  0  0  0  0
  -26.0850  -26.8800   19.2240 C   0  0  0  0  0  3  0  0  0  0  0  0
  -24.9040  -27.6390   19.2540 C   0  0  0  0  0  3  0  0  0  0  0  0
  -23.6240  -29.7120   19.9990 C   0  0  0  0  0  2  0  0  0  0  0  0
  -24.6430  -30.9200   21.9700 N   0  0  0  0  0  0  0  0  0  0  0  0
  -23.4660  -31.9220   23.6340 O   0  0  0  0  0  0  0  0  0  0  0  0
  -22.7480  -29.2560   22.3230 C   0  0  0  0  0  0  0  0  0  0  0  0
  -21.4260  -29.0550   22.1890 N   0  0  0  0  0  0  0  0  0  0  0  0
  -23.4410  -28.6150   23.1190 O   0  0  0  0  0  0  0  0  0  0  0  0
  -20.9260  -29.6260   21.5220 H   0  0  0  0  0  0  0  0  0  0  0  0
  -18.0690  -27.7980   22.6800 C   0  0  0  0  0  0  0  0  0  0  0  0
  -20.6280  -28.0750   22.9270 C   0  0  0  0  0  3  0  0  0  0  0  0
  -20.7390  -26.6720   22.2880 C   0  0  0  0  0  2  0  0  0  0  0  0
  -19.6260  -26.3810   21.2750 C   0  0  0  0  0  2  0  0  0  0  0  0
  -18.2510  -26.4820   21.9410 C   0  0  0  0  0  2  0  0  0  0  0  0
  -19.1840  -28.5530   23.1290 C   0  0  0  0  0  0  0  0  0  0  0  0
  -18.9590  -29.7840   23.7810 C   0  0  0  0  0  3  0  0  0  0  0  0
  -17.6510  -30.2640   23.9860 C   0  0  0  0  0  3  0  0  0  0  0  0
  -16.5500  -29.5060   23.5490 C   0  0  0  0  0  3  0  0  0  0  0  0
  -16.7600  -28.2750   22.9030 C   0  0  0  0  0  3  0  0  0  0  0  0
  -25.8240  -32.3270   23.7400 C   0  0  0  0  0  3  0  0  0  0  0  0
  -25.4880  -33.7140   24.0980 N   0  0  0  0  0  0  0  0  0  0  0  0
  -25.7890  -34.7860   23.3540 C   0  0  0  0  0  0  0  0  0  0  0  0
  -26.4510  -34.7150   22.3150 O   0  0  0  0  0  0  0  0  0  0  0  0
  -24.9000  -33.8400   24.9080 H   0  0  0  0  0  0  0  0  0  0  0  0
  -24.0100  -36.5390   23.0570 C   0  0  0  0  0  1  0  0  0  0  0  0
  -25.2760  -36.1550   23.8400 C   0  0  0  0  0  3  0  0  0  0  0  0
  -27.4040  -37.0840   24.6430 C   0  0  0  0  0  1  0  0  0  0  0  0
  -26.2790  -37.2360   23.7230 N   0  0  0  0  0  0  0  0  0  0  0  0
  -25.8510  -38.1430   23.8930 H   0  0  0  0  0  0  0  0  0  0  0  0
  -26.3410  -31.5370   25.0050 C   0  0  1  0  0  0  0  0  0  0  0  0
  -25.2410  -31.2600   26.0560 C   0  0  0  0  0  1  0  0  0  0  0  0
  -26.9490  -30.1760   24.5900 C   0  0  0  0  0  1  0  0  0  0  0  0
  -27.4720  -32.3340   25.6930 C   0  0  0  0  0  1  0  0  0  0  0  0
  1  3  1  0
  2  1  2  0
  3  6  2  0
  4  2  1  0
  4  5  1  0
  5 11  1  0
  5  3  1  0
  7  4  2  0
  8  9  2  0
  8 11  1  0
  9 12  1  0
 10 13  1  0
 11 10  2  0
 12 23  1  0
 12 13  2  0
 13 14  1  0
 15 23  1  0
 16 21  1  0
 17 18  1  0
 17 16  1  0
 19 18  1  0
 19 28  1  0
 19 20  1  0
 21 15  1  0
 21 20  1  0
 22 15  2  0
 23 24  1  0
 25 26  2  0
 26 45  1  0
 27 26  1  0
 27 30  1  0
 28 29  1  0
 28 25  1  0
 29 27  2  0
 30 31  1  0
 31 32  2  0
 33 36  1  0
 33 32  1  0
 34 33  2  0
 35 34  1  0
 35 30  2  0
 36 37  1  0
 37 38  1  0
 38 39  2  0
 40 39  1  0
 40 44  1  0
 41 40  2  0
 42 37  2  0
 42 41  1  0
 43 42  1  0
 45 46  1  0
 46 49  1  0
 46 48  1  0
 47 45  2  0
 50 25  1  0
 50 51  1  0
 52 50  1  0
 53 54  1  0
 53  2  1  0
 55 66  2  0
 56 54  1  0
 56 61  1  0
 57 65  1  0
 57 67  1  0
 58 64  1  0
 58 60  1  0
 59 65  1  0
 60 59  1  0
 61 60  2  0
 62 63  1  0
 62 56  2  0
 63 58  2  0
 64 57  1  0
 65 55  1  0
 67 69  2  0
 68 67  1  0
 70 68  1  0
 71 80  2  0
 71 76  1  0
 72 68  1  0
 72 76  1  0
 73 72  1  0
 74 75  1  0
 74 73  1  0
 75 71  1  0
 76 77  2  0
 77 78  1  0
 79 78  2  0
 80 79  1  0
 81 55  1  0
 81 82  1  0
 81 91  1  0
 82 85  1  0
 83 87  1  0
 83 82  1  0
 84 83  2  0
 87 86  1  0
 89 87  1  0
 89 90  1  0
 89 88  1  0
 91 94  1  1
 91 92  1  0
 93 91  1  0
M  ISO  4  15 100  23 100  53 101  54 101
M  END
>  <TORSDO>  (55) 
F 18

>  <SCORE>  (55) 
-14.406

>  <name>  (55) 
54

>  <ligand_id>  (55) 
54

>  <original_smiles>  (55) 
[H]C1=C(C([H])([H])Oc2c([H])c([H])c3c(c2[H])C([H])([H])N(C(=O)C([H])(N([H])C(=O)C([H])(N([H])C([H])([H])[H])C([H])([H])[H])C(C([H])([H])[H])(C([H])([H])[H])C([H])([H])[H])C([H])(C(=O)N([H])C2([H])c4c([H])c([H])c([H])c([H])c4C([H])([H])C([H])([H])C2([H])[H])C3([H])[H])C(=O)N(c2c([H])c([H])c(N([H])C(=O)N3C([H])([H])C([H])([H])C([H])([H])C([H])(n4nc(-c5c([H])c([H])c(Oc6c([H])c([H])c(F)c([H])c6F)c([H])c5[H])c(C(=O)N([H])[H])c4N([H])[H])C3([H])[H])c(F)c2[H])C1=O

>  <smiles>  (55) 
[H]C1=C(C([H])([H])Oc2c([H])c([H])c3c(c2[H])C([H])([H])N(C(=O)C([H])(N([H])C(=O)C([H])(N([H])C([H])([H])[H])C([H])([H])[H])C(C([H])([H])[H])(C([H])([H])[H])C([H])([H])[H])C([H])(C(=O)N([H])C2([H])c4c([H])c([H])c([H])c([H])c4C([H])([H])C([H])([H])C2([H])[H])C3([H])[H])C(=O)N(c2c([H])c([H])c(N([H])C(=O)N3C([H])([H])C([H])([H])C([H])([H])C([H])(n4nc(-c5c([H])c([H])c(Oc6c([H])c([H])c(F)c([H])c6F)c([H])c5[H])c(C(=O)N([H])[H])c4N([H])[H])C3([H])[H])c(F)c2[H])C1=O

$$$$
55:0:0
     RDKit          3D

 92101  0  0  1  0  0  0  0  0999 V2000
  -28.6420  -23.8100   19.8650 C   0  0  0  0  0  0  0  0  0  0  0  0
  -28.4660  -22.5710   19.1260 C   0  0  0  0  0  0  0  0  0  0  0  0
  -29.3120  -23.0150   20.8910 C   0  0  0  0  0  0  0  0  0  0  0  0
  -28.2380  -25.1120   19.5570 C   0  0  0  0  0  3  0  0  0  0  0  0
  -29.1170  -21.8040   20.1300 N   0  0  0  0  0  0  0  0  0  0  0  0
  -27.9260  -22.3540   18.0590 O   0  0  0  0  0  0  0  0  0  0  0  0
  -29.8000  -23.3270   21.9600 O   0  0  0  0  0  0  0  0  0  0  0  0
  -28.3370  -19.3750   19.9660 C   0  0  0  0  0  3  0  0  0  0  0  0
  -30.5440  -19.6690   20.7220 C   0  0  0  0  0  3  0  0  0  0  0  0
  -28.4800  -17.9550   20.0820 C   0  0  0  0  0  3  0  0  0  0  0  0
  -30.7200  -18.2350   20.8080 C   0  0  0  0  0  3  0  0  0  0  0  0
  -29.3460  -20.3340   20.2870 C   0  0  0  0  0  0  0  0  0  0  0  0
  -29.6780  -17.3140   20.4960 C   0  0  0  0  0  0  0  0  0  0  0  0
  -30.5400  -14.7870   20.4170 C   0  0  0  0  0  0  0  0  0  0  0  0
  -30.4080  -12.5030   19.3950 C   0  0  0  0  0  2  0  0  0  0  0  0
  -29.4720  -12.5710   18.1650 C   0  0  0  0  0  2  0  0  0  0  0  0
  -27.9970  -12.3900   18.5800 C   0  0  0  0  0  2  0  0  0  0  0  0
  -27.6080  -13.2710   19.7960 C   0  0  0  0  0  3  0  0  0  0  0  0
  -28.6570  -13.1620   20.9260 C   0  0  0  0  0  2  0  0  0  0  0  0
  -29.9620  -13.5360   20.3570 N   0  0  0  0  0  0  0  0  0  0  0  0
  -31.7190  -14.9480   20.0840 O   0  0  0  0  0  0  0  0  0  0  0  0
  -29.6750  -15.8380   20.6780 N   0  0  0  0  0  0  0  0  0  0  0  0
  -28.7570  -15.4730   20.8790 H   0  0  0  0  0  0  0  0  0  0  0  0
  -25.2060  -13.8640   20.4820 C   0  0  0  0  0  0  0  0  0  0  0  0
  -24.1380  -13.0900   20.8480 C   0  0  0  0  0  0  0  0  0  0  0  0
  -24.6070  -11.7410   20.8350 C   0  0  0  0  0  0  0  0  0  0  0  0
  -26.2570  -12.9860   20.2690 N   0  0  0  0  0  0  0  0  0  0  0  0
  -25.9010  -11.7040   20.5420 N   0  0  0  0  0  0  0  0  0  0  0  0
  -23.8820  -10.4770   21.0260 C   0  0  0  0  0  0  0  0  0  0  0  0
  -24.3100   -9.5170   21.9690 C   0  0  0  0  0  3  0  0  0  0  0  0
  -23.5850   -8.3190   22.1490 C   0  0  0  0  0  3  0  0  0  0  0  0
  -22.4190   -8.0730   21.3850 C   0  0  0  0  0  0  0  0  0  0  0  0
  -22.0120   -9.0220   20.4310 C   0  0  0  0  0  3  0  0  0  0  0  0
  -22.7370  -10.2120   20.2500 C   0  0  0  0  0  3  0  0  0  0  0  0
  -21.6680   -6.9270   21.4720 O   0  0  0  0  0  0  0  0  0  0  0  0
  -21.6120   -6.1890   22.6280 C   0  0  0  0  0  0  0  0  0  0  0  0
  -21.1680   -6.7470   23.8460 C   0  0  0  0  0  3  0  0  0  0  0  0
  -21.0610   -5.9360   24.9940 C   0  0  0  0  0  3  0  0  0  0  0  0
  -21.3860   -4.5680   24.9240 C   0  0  0  0  0  0  0  0  0  0  0  0
  -21.8230   -4.0100   23.7090 C   0  0  0  0  0  3  0  0  0  0  0  0
  -21.9320   -4.8180   22.5640 C   0  0  0  0  0  0  0  0  0  0  0  0
  -22.3330   -4.2710   21.3910 F   0  0  0  0  0  0  0  0  0  0  0  0
  -21.2760   -3.7870   26.0230 F   0  0  0  0  0  0  0  0  0  0  0  0
  -22.7350  -13.5650   21.0950 C   0  0  0  0  0  0  0  0  0  0  0  0
  -21.9970  -12.8730   21.9560 N   0  0  0  0  0  0  0  0  0  0  0  0
  -22.3020  -14.5850   20.5610 O   0  0  0  0  0  0  0  0  0  0  0  0
  -22.3610  -12.0490   22.4110 H   0  0  0  0  0  0  0  0  0  0  0  0
  -21.0560  -13.1730   22.1640 H   0  0  0  0  0  0  0  0  0  0  0  0
  -25.3640  -15.2330   20.2890 N   0  0  0  0  0  0  0  0  0  0  0  0
  -24.5820  -15.8740   20.3620 H   0  0  0  0  0  0  0  0  0  0  0  0
  -26.1880  -15.6590   19.8900 H   0  0  0  0  0  0  0  0  0  0  0  0
  -28.3040  -26.3830   20.2080 O   0  0  0  0  0  0  0  0  0  0  0  0
  -24.6150  -31.8850   23.2430 C   0  0  0  0  0  0  0  0  0  0  0  0
  -27.2070  -27.2880   20.1490 C   0  0  0  0  0  0  0  0  0  0  0  0
  -23.4050  -30.4940   21.6060 C   0  0  0  0  0  3  0  0  0  0  0  0
  -24.8470  -28.9480   20.1650 C   0  0  0  0  0  0  0  0  0  0  0  0
  -25.9500  -30.7960   21.4160 C   0  0  0  0  0  2  0  0  0  0  0  0
  -26.0260  -29.4180   20.7580 C   0  0  0  0  0  0  0  0  0  0  0  0
  -27.2060  -28.6010   20.7390 C   0  0  0  0  0  3  0  0  0  0  0  0
  -25.9870  -26.8860   19.5510 C   0  0  0  0  0  3  0  0  0  0  0  0
  -24.8330  -27.6890   19.5530 C   0  0  0  0  0  3  0  0  0  0  0  0
  -23.6130  -29.8270   20.2220 C   0  0  0  0  0  2  0  0  0  0  0  0
  -24.6760  -31.0770   22.1440 N   0  0  0  0  0  0  0  0  0  0  0  0
  -23.5330  -32.1630   23.7810 O   0  0  0  0  0  0  0  0  0  0  0  0
  -22.7430  -29.4740   22.5650 C   0  0  0  0  0  0  0  0  0  0  0  0
  -21.4150  -29.2960   22.4420 N   0  0  0  0  0  0  0  0  0  0  0  0
  -23.4230  -28.8470   23.3820 O   0  0  0  0  0  0  0  0  0  0  0  0
  -20.9250  -29.8540   21.7570 H   0  0  0  0  0  0  0  0  0  0  0  0
  -18.0400  -28.0910   22.9500 C   0  0  0  0  0  0  0  0  0  0  0  0
  -20.5990  -28.3570   23.2140 C   0  0  0  0  0  3  0  0  0  0  0  0
  -20.7020  -26.9250   22.6370 C   0  0  0  0  0  2  0  0  0  0  0  0
  -19.5990  -26.6010   21.6260 C   0  0  0  0  0  2  0  0  0  0  0  0
  -18.2180  -26.7420   22.2740 C   0  0  0  0  0  2  0  0  0  0  0  0
  -19.1580  -28.8550   23.3780 C   0  0  0  0  0  0  0  0  0  0  0  0
  -18.9370  -30.1170   23.9720 C   0  0  0  0  0  3  0  0  0  0  0  0
  -17.6320  -30.6150   24.1420 C   0  0  0  0  0  3  0  0  0  0  0  0
  -16.5280  -29.8470   23.7300 C   0  0  0  0  0  3  0  0  0  0  0  0
  -16.7330  -28.5870   23.1400 C   0  0  0  0  0  3  0  0  0  0  0  0
  -25.8990  -32.5170   23.8600 C   0  0  0  0  0  3  0  0  0  0  0  0
  -25.5890  -33.9150   24.1940 N   0  0  0  0  0  0  0  0  0  0  0  0
  -25.9100  -34.9700   23.4330 C   0  0  0  0  0  0  0  0  0  0  0  0
  -26.5660  -34.8690   22.3930 O   0  0  0  0  0  0  0  0  0  0  0  0
  -25.0060  -34.0680   25.0040 H   0  0  0  0  0  0  0  0  0  0  0  0
  -24.1740  -36.7610   23.1080 C   0  0  0  0  0  1  0  0  0  0  0  0
  -25.4280  -36.3580   23.8990 C   0  0  0  0  0  3  0  0  0  0  0  0
  -27.5730  -37.2470   24.6990 C   0  0  0  0  0  1  0  0  0  0  0  0
  -26.4570  -37.4130   23.7710 N   0  0  0  0  0  0  0  0  0  0  0  0
  -26.0520  -38.3320   23.9230 H   0  0  0  0  0  0  0  0  0  0  0  0
  -26.4170  -31.7450   25.1360 C   0  0  1  0  0  0  0  0  0  0  0  0
  -25.3270  -31.5090   26.2070 C   0  0  0  0  0  1  0  0  0  0  0  0
  -26.9970  -30.3660   24.7440 C   0  0  0  0  0  1  0  0  0  0  0  0
  -27.5710  -32.5380   25.7950 C   0  0  0  0  0  1  0  0  0  0  0  0
  1  3  1  0
  2  1  1  0
  2  5  1  0
  3  7  2  0
  4  1  2  0
  4 52  1  0
  5 12  1  0
  5  3  1  0
  6  2  2  0
  8 10  2  0
  8 12  1  0
  9 11  1  0
 10 13  1  0
 12  9  2  0
 13 22  1  0
 13 11  2  0
 14 22  1  0
 15 20  1  0
 16 17  1  0
 16 15  1  0
 18 17  1  0
 18 27  1  0
 18 19  1  0
 20 14  1  0
 20 19  1  0
 21 14  2  0
 22 23  1  0
 24 25  2  0
 25 44  1  0
 26 25  1  0
 26 29  1  0
 27 24  1  0
 27 28  1  0
 28 26  2  0
 29 30  1  0
 30 31  2  0
 32 35  1  0
 32 31  1  0
 33 32  2  0
 34 33  1  0
 34 29  2  0
 35 36  1  0
 36 37  1  0
 37 38  2  0
 39 38  1  0
 39 43  1  0
 40 39  2  0
 41 36  2  0
 41 40  1  0
 42 41  1  0
 44 45  1  0
 45 48  1  0
 45 47  1  0
 46 44  2  0
 49 50  1  0
 49 24  1  0
 51 49  1  0
 53 64  2  0
 54 52  1  0
 54 59  1  0
 55 63  1  0
 55 65  1  0
 56 62  1  0
 56 58  1  0
 57 63  1  0
 58 57  1  0
 59 58  2  0
 60 61  1  0
 60 54  2  0
 61 56  2  0
 62 55  1  0
 63 53  1  0
 65 67  2  0
 66 65  1  0
 68 66  1  0
 69 78  2  0
 69 74  1  0
 70 66  1  0
 70 74  1  0
 71 70  1  0
 72 73  1  0
 72 71  1  0
 73 69  1  0
 74 75  2  0
 75 76  1  0
 77 76  2  0
 78 77  1  0
 79 53  1  0
 79 80  1  0
 79 89  1  0
 80 83  1  0
 81 85  1  0
 81 80  1  0
 82 81  2  0
 85 84  1  0
 87 85  1  0
 87 88  1  0
 87 86  1  0
 89 92  1  1
 89 90  1  0
 91 89  1  0
M  ISO  4   4 101  14 100  22 100  52 101
M  END
>  <TORSDO>  (56) 
F 17

>  <SCORE>  (56) 
-15.405

>  <name>  (56) 
55

>  <ligand_id>  (56) 
55

>  <original_smiles>  (56) 
[H]C(Oc1c([H])c([H])c2c(c1[H])C([H])([H])N(C(=O)C([H])(N([H])C(=O)C([H])(N([H])C([H])([H])[H])C([H])([H])[H])C(C([H])([H])[H])(C([H])([H])[H])C([H])([H])[H])C([H])(C(=O)N([H])C1([H])c3c([H])c([H])c([H])c([H])c3C([H])([H])C([H])([H])C1([H])[H])C2([H])[H])=C1C(=O)N(c2c([H])c([H])c(N([H])C(=O)N3C([H])([H])C([H])([H])C([H])([H])C([H])(n4nc(-c5c([H])c([H])c(Oc6c([H])c([H])c(F)c([H])c6F)c([H])c5[H])c(C(=O)N([H])[H])c4N([H])[H])C3([H])[H])c([H])c2[H])C1=O

>  <smiles>  (56) 
[H]C(Oc1c([H])c([H])c2c(c1[H])C([H])([H])N(C(=O)C([H])(N([H])C(=O)C([H])(N([H])C([H])([H])[H])C([H])([H])[H])C(C([H])([H])[H])(C([H])([H])[H])C([H])([H])[H])C([H])(C(=O)N([H])C1([H])c3c([H])c([H])c([H])c([H])c3C([H])([H])C([H])([H])C1([H])[H])C2([H])[H])=C1C(=O)N(c2c([H])c([H])c(N([H])C(=O)N3C([H])([H])C([H])([H])C([H])([H])C([H])(n4nc(-c5c([H])c([H])c(Oc6c([H])c([H])c(F)c([H])c6F)c([H])c5[H])c(C(=O)N([H])[H])c4N([H])[H])C3([H])[H])c([H])c2[H])C1=O

$$$$
56:0:0
     RDKit          3D

 93102  0  0  1  0  0  0  0  0999 V2000
  -28.8870  -23.9710   20.3920 C   0  0  0  0  0  0  0  0  0  0  0  0
  -28.5290  -22.5750   20.7650 C   0  0  0  0  0  0  0  0  0  0  0  0
  -30.6380  -22.4400   20.0520 C   0  0  0  0  0  0  0  0  0  0  0  0
  -28.0470  -25.0660   20.4790 C   0  0  0  0  0  3  0  0  0  0  0  0
  -30.3000  -23.9230   19.9070 C   0  0  0  0  0  2  0  0  0  0  0  0
  -29.5940  -21.7250   20.5400 N   0  0  0  0  0  0  0  0  0  0  0  0
  -27.4400  -22.2110   21.2250 O   0  0  0  0  0  0  0  0  0  0  0  0
  -31.7490  -21.9990   19.7360 O   0  0  0  0  0  0  0  0  0  0  0  0
  -28.5810  -19.3990   20.2260 C   0  0  0  0  0  3  0  0  0  0  0  0
  -30.7540  -19.5230   21.2230 C   0  0  0  0  0  3  0  0  0  0  0  0
  -28.6920  -17.9740   20.2020 C   0  0  0  0  0  3  0  0  0  0  0  0
  -30.8660  -18.0910   21.1990 C   0  0  0  0  0  3  0  0  0  0  0  0
  -29.6300  -20.2380   20.6910 C   0  0  0  0  0  0  0  0  0  0  0  0
  -29.8520  -17.2670   20.6380 C   0  0  0  0  0  0  0  0  0  0  0  0
  -30.7170  -14.7990   20.8400 C   0  0  0  0  0  0  0  0  0  0  0  0
  -30.6050  -12.4510   20.0070 C   0  0  0  0  0  2  0  0  0  0  0  0
  -29.7710  -12.3740   18.7080 C   0  0  0  0  0  2  0  0  0  0  0  0
  -28.2630  -12.2770   19.0170 C   0  0  0  0  0  2  0  0  0  0  0  0
  -27.7820  -13.2460   20.1330 C   0  0  0  0  0  3  0  0  0  0  0  0
  -28.7500  -13.2690   21.3360 C   0  0  0  0  0  2  0  0  0  0  0  0
  -30.0860  -13.5760   20.8110 N   0  0  0  0  0  0  0  0  0  0  0  0
  -31.9500  -14.8510   20.8410 O   0  0  0  0  0  0  0  0  0  0  0  0
  -30.0330  -15.7610   18.7630 C   0  0  0  0  0  1  0  0  0  0  0  0
  -30.0220  -15.8500   20.2380 N   0  0  0  0  0  0  0  0  0  0  0  0
  -25.3490  -13.8640   20.6520 C   0  0  0  0  0  0  0  0  0  0  0  0
  -24.2520  -13.1010   20.9460 C   0  0  0  0  0  0  0  0  0  0  0  0
  -24.7130  -11.7490   20.9920 C   0  0  0  0  0  0  0  0  0  0  0  0
  -26.4060  -12.9770   20.5300 N   0  0  0  0  0  0  0  0  0  0  0  0
  -26.0250  -11.7030   20.8020 N   0  0  0  0  0  0  0  0  0  0  0  0
  -23.9700  -10.4920   21.1480 C   0  0  0  0  0  0  0  0  0  0  0  0
  -24.3450   -9.5290   22.1110 C   0  0  0  0  0  3  0  0  0  0  0  0
  -23.6040   -8.3370   22.2560 C   0  0  0  0  0  3  0  0  0  0  0  0
  -22.4740   -8.1000   21.4380 C   0  0  0  0  0  0  0  0  0  0  0  0
  -22.1190   -9.0510   20.4650 C   0  0  0  0  0  3  0  0  0  0  0  0
  -22.8610  -10.2340   20.3180 C   0  0  0  0  0  3  0  0  0  0  0  0
  -21.7100   -6.9590   21.4920 O   0  0  0  0  0  0  0  0  0  0  0  0
  -21.6170   -6.2080   22.6370 C   0  0  0  0  0  0  0  0  0  0  0  0
  -21.1690   -6.7630   23.8560 C   0  0  0  0  0  3  0  0  0  0  0  0
  -21.0210   -5.9400   24.9900 C   0  0  0  0  0  3  0  0  0  0  0  0
  -21.3110   -4.5650   24.9070 C   0  0  0  0  0  0  0  0  0  0  0  0
  -21.7520   -4.0110   23.6940 C   0  0  0  0  0  3  0  0  0  0  0  0
  -21.9020   -4.8300   22.5600 C   0  0  0  0  0  0  0  0  0  0  0  0
  -22.3060   -4.2860   21.3870 F   0  0  0  0  0  0  0  0  0  0  0  0
  -21.1610   -3.7730   25.9950 F   0  0  0  0  0  0  0  0  0  0  0  0
  -22.8380  -13.5860   21.0810 C   0  0  0  0  0  0  0  0  0  0  0  0
  -22.0380  -12.9190   21.9050 N   0  0  0  0  0  0  0  0  0  0  0  0
  -22.4480  -14.5930   20.4910 O   0  0  0  0  0  0  0  0  0  0  0  0
  -22.3660  -12.1060   22.4040 H   0  0  0  0  0  0  0  0  0  0  0  0
  -21.0860  -13.2280   22.0380 H   0  0  0  0  0  0  0  0  0  0  0  0
  -25.5340  -15.2300   20.4550 N   0  0  0  0  0  0  0  0  0  0  0  0
  -24.7700  -15.8960   20.4930 H   0  0  0  0  0  0  0  0  0  0  0  0
  -26.4230  -15.6570   20.2310 H   0  0  0  0  0  0  0  0  0  0  0  0
  -28.2870  -26.4210   20.1270 O   0  0  0  0  0  0  0  0  0  0  0  0
  -24.6200  -31.8750   23.1690 C   0  0  0  0  0  0  0  0  0  0  0  0
  -27.1910  -27.3050   20.0930 C   0  0  0  0  0  0  0  0  0  0  0  0
  -23.3940  -30.4740   21.5480 C   0  0  0  0  0  3  0  0  0  0  0  0
  -24.8280  -28.9220   20.1010 C   0  0  0  0  0  0  0  0  0  0  0  0
  -25.9310  -30.7910   21.3290 C   0  0  0  0  0  2  0  0  0  0  0  0
  -26.0040  -29.4100   20.6860 C   0  0  0  0  0  0  0  0  0  0  0  0
  -27.1890  -28.6110   20.6760 C   0  0  0  0  0  3  0  0  0  0  0  0
  -25.9990  -26.8820   19.4660 C   0  0  0  0  0  3  0  0  0  0  0  0
  -24.8270  -27.6630   19.4800 C   0  0  0  0  0  3  0  0  0  0  0  0
  -23.5890  -29.7950   20.1660 C   0  0  0  0  0  2  0  0  0  0  0  0
  -24.6690  -31.0650   22.0720 N   0  0  0  0  0  0  0  0  0  0  0  0
  -23.5450  -32.1540   23.7180 O   0  0  0  0  0  0  0  0  0  0  0  0
  -22.7450  -29.4580   22.5190 C   0  0  0  0  0  0  0  0  0  0  0  0
  -21.4170  -29.2820   22.4120 N   0  0  0  0  0  0  0  0  0  0  0  0
  -23.4340  -28.8340   23.3300 O   0  0  0  0  0  0  0  0  0  0  0  0
  -20.9190  -29.8360   21.7290 H   0  0  0  0  0  0  0  0  0  0  0  0
  -18.0460  -28.0870   22.9600 C   0  0  0  0  0  0  0  0  0  0  0  0
  -20.6080  -28.3470   23.1960 C   0  0  0  0  0  3  0  0  0  0  0  0
  -20.7030  -26.9130   22.6240 C   0  0  0  0  0  2  0  0  0  0  0  0
  -19.5870  -26.5870   21.6250 C   0  0  0  0  0  2  0  0  0  0  0  0
  -18.2140  -26.7350   22.2860 C   0  0  0  0  0  2  0  0  0  0  0  0
  -19.1700  -28.8510   23.3730 C   0  0  0  0  0  0  0  0  0  0  0  0
  -18.9580  -30.1150   23.9630 C   0  0  0  0  0  3  0  0  0  0  0  0
  -17.6550  -30.6160   24.1450 C   0  0  0  0  0  3  0  0  0  0  0  0
  -16.5460  -29.8490   23.7470 C   0  0  0  0  0  3  0  0  0  0  0  0
  -16.7420  -28.5870   23.1600 C   0  0  0  0  0  3  0  0  0  0  0  0
  -25.9120  -32.5090   23.7710 C   0  0  0  0  0  3  0  0  0  0  0  0
  -25.5980  -33.8980   24.1330 N   0  0  0  0  0  0  0  0  0  0  0  0
  -25.9070  -34.9680   23.3880 C   0  0  0  0  0  0  0  0  0  0  0  0
  -26.5570  -34.8890   22.3420 O   0  0  0  0  0  0  0  0  0  0  0  0
  -25.0190  -34.0340   24.9480 H   0  0  0  0  0  0  0  0  0  0  0  0
  -24.1610  -36.7560   23.1000 C   0  0  0  0  0  1  0  0  0  0  0  0
  -25.4190  -36.3440   23.8810 C   0  0  0  0  0  3  0  0  0  0  0  0
  -27.5650  -37.2250   24.6870 C   0  0  0  0  0  1  0  0  0  0  0  0
  -26.4420  -37.4070   23.7710 N   0  0  0  0  0  0  0  0  0  0  0  0
  -26.0330  -38.3210   23.9480 H   0  0  0  0  0  0  0  0  0  0  0  0
  -26.4640  -31.7220   25.0230 C   0  0  1  0  0  0  0  0  0  0  0  0
  -25.3990  -31.4610   26.1130 C   0  0  0  0  0  1  0  0  0  0  0  0
  -27.0460  -30.3540   24.5970 C   0  0  0  0  0  1  0  0  0  0  0  0
  -27.6260  -32.5120   25.6690 C   0  0  0  0  0  1  0  0  0  0  0  0
  1  4  2  0
  1  2  1  0
  2  7  2  0
  3  6  1  0
  5  3  1  0
  5  1  1  0
  6 13  1  0
  6  2  1  0
  8  3  2  0
  9 13  1  0
 11  9  2  0
 11 14  1  0
 12 10  1  0
 13 10  2  0
 14 12  2  0
 15 22  2  0
 16 21  1  0
 17 18  1  0
 17 16  1  0
 19 18  1  0
 19 28  1  0
 19 20  1  0
 21 15  1  0
 21 20  1  0
 23 24  1  0
 24 14  1  0
 24 15  1  0
 25 26  2  0
 26 27  1  0
 26 45  1  0
 27 30  1  0
 28 25  1  0
 28 29  1  0
 29 27  2  0
 30 31  1  0
 31 32  2  0
 33 36  1  0
 33 32  1  0
 34 33  2  0
 35 34  1  0
 35 30  2  0
 36 37  1  0
 37 38  1  0
 38 39  2  0
 40 39  1  0
 40 44  1  0
 41 40  2  0
 42 37  2  0
 42 41  1  0
 43 42  1  0
 45 46  1  0
 46 49  1  0
 46 48  1  0
 47 45  2  0
 50 51  1  0
 50 25  1  0
 52 50  1  0
 53  4  1  0
 54 65  2  0
 55 53  1  0
 55 60  1  0
 56 64  1  0
 56 66  1  0
 57 63  1  0
 57 59  1  0
 58 64  1  0
 59 58  1  0
 60 59  2  0
 61 62  1  0
 61 55  2  0
 62 57  2  0
 63 56  1  0
 64 54  1  0
 66 68  2  0
 67 66  1  0
 69 67  1  0
 70 79  2  0
 70 75  1  0
 71 67  1  0
 71 75  1  0
 72 71  1  0
 73 74  1  0
 73 72  1  0
 74 70  1  0
 75 76  2  0
 76 77  1  0
 78 77  2  0
 79 78  1  0
 80 54  1  0
 80 81  1  0
 80 90  1  0
 81 84  1  0
 82 86  1  0
 82 81  1  0
 83 82  2  0
 86 85  1  0
 88 86  1  0
 88 89  1  0
 88 87  1  0
 90 93  1  1
 90 91  1  0
 92 90  1  0
M  ISO  4   4 101  15 100  24 100  53 101
M  END
>  <TORSDO>  (57) 
F 17

>  <SCORE>  (57) 
-15.098

>  <name>  (57) 
56

>  <ligand_id>  (57) 
56

>  <original_smiles>  (57) 
[H]C(Oc1c([H])c([H])c2c(c1[H])C([H])([H])N(C(=O)C([H])(N([H])C(=O)C([H])(N([H])C([H])([H])[H])C([H])([H])[H])C(C([H])([H])[H])(C([H])([H])[H])C([H])([H])[H])C([H])(C(=O)N([H])C1([H])c3c([H])c([H])c([H])c([H])c3C([H])([H])C([H])([H])C1([H])[H])C2([H])[H])=C1C(=O)N(c2c([H])c([H])c(N(C(=O)N3C([H])([H])C([H])([H])C([H])([H])C([H])(n4nc(-c5c([H])c([H])c(Oc6c([H])c([H])c(F)c([H])c6F)c([H])c5[H])c(C(=O)N([H])[H])c4N([H])[H])C3([H])[H])C([H])([H])[H])c([H])c2[H])C(=O)C1([H])[H]

>  <smiles>  (57) 
[H]C(Oc1c([H])c([H])c2c(c1[H])C([H])([H])N(C(=O)C([H])(N([H])C(=O)C([H])(N([H])C([H])([H])[H])C([H])([H])[H])C(C([H])([H])[H])(C([H])([H])[H])C([H])([H])[H])C([H])(C(=O)N([H])C1([H])c3c([H])c([H])c([H])c([H])c3C([H])([H])C([H])([H])C1([H])[H])C2([H])[H])=C1C(=O)N(c2c([H])c([H])c(N(C(=O)N3C([H])([H])C([H])([H])C([H])([H])C([H])(n4nc(-c5c([H])c([H])c(Oc6c([H])c([H])c(F)c([H])c6F)c([H])c5[H])c(C(=O)N([H])[H])c4N([H])[H])C3([H])[H])C([H])([H])[H])c([H])c2[H])C(=O)C1([H])[H]

$$$$
57:0:0
     RDKit          3D

 94102  0  0  1  0  0  0  0  0999 V2000
  -29.9350  -21.6510   19.7030 C   0  0  0  0  0  0  0  0  0  0  0  0
  -29.1680  -24.0090   19.9560 C   0  0  0  0  0  0  0  0  0  0  0  0
  -29.1860  -22.6560   20.2810 N   0  0  0  0  0  0  0  0  0  0  0  0
  -30.7600  -21.8960   18.8150 O   0  0  0  0  0  0  0  0  0  0  0  0
  -29.8020  -24.4700   18.9980 O   0  0  0  0  0  0  0  0  0  0  0  0
  -28.6000  -22.3720   21.0480 H   0  0  0  0  0  0  0  0  0  0  0  0
  -31.0400  -19.3410   20.0310 C   0  0  0  0  0  3  0  0  0  0  0  0
  -28.6820  -19.4450   20.4430 C   0  0  0  0  0  3  0  0  0  0  0  0
  -31.0380  -17.9230   20.2110 C   0  0  0  0  0  3  0  0  0  0  0  0
  -28.6790  -18.0210   20.6270 C   0  0  0  0  0  3  0  0  0  0  0  0
  -29.8710  -20.1560   20.1250 C   0  0  0  0  0  0  0  0  0  0  0  0
  -29.8460  -17.2090   20.4950 C   0  0  0  0  0  0  0  0  0  0  0  0
  -30.5630  -14.6920   20.3020 C   0  0  0  0  0  0  0  0  0  0  0  0
  -30.3570  -12.4550   19.2280 C   0  0  0  0  0  2  0  0  0  0  0  0
  -29.3950  -12.5820   18.0250 C   0  0  0  0  0  2  0  0  0  0  0  0
  -27.9270  -12.4160   18.4710 C   0  0  0  0  0  2  0  0  0  0  0  0
  -27.5850  -13.2720   19.7180 C   0  0  0  0  0  3  0  0  0  0  0  0
  -28.6550  -13.1080   20.8190 C   0  0  0  0  0  2  0  0  0  0  0  0
  -29.9540  -13.4640   20.2290 N   0  0  0  0  0  0  0  0  0  0  0  0
  -31.7270  -14.8430   19.9180 O   0  0  0  0  0  0  0  0  0  0  0  0
  -29.7480  -15.7470   20.6530 N   0  0  0  0  0  0  0  0  0  0  0  0
  -28.8400  -15.4260   20.9550 H   0  0  0  0  0  0  0  0  0  0  0  0
  -25.1990  -13.8760   20.4550 C   0  0  0  0  0  0  0  0  0  0  0  0
  -24.1350  -13.1060   20.8390 C   0  0  0  0  0  0  0  0  0  0  0  0
  -24.5960  -11.7530   20.8070 C   0  0  0  0  0  0  0  0  0  0  0  0
  -26.2400  -12.9930   20.2150 N   0  0  0  0  0  0  0  0  0  0  0  0
  -25.8830  -11.7120   20.4880 N   0  0  0  0  0  0  0  0  0  0  0  0
  -23.8710  -10.4930   21.0040 C   0  0  0  0  0  0  0  0  0  0  0  0
  -24.3070   -9.5280   21.9400 C   0  0  0  0  0  3  0  0  0  0  0  0
  -23.5810   -8.3310   22.1250 C   0  0  0  0  0  3  0  0  0  0  0  0
  -22.4060   -8.0910   21.3740 C   0  0  0  0  0  0  0  0  0  0  0  0
  -21.9900   -9.0430   20.4270 C   0  0  0  0  0  3  0  0  0  0  0  0
  -22.7160  -10.2310   20.2410 C   0  0  0  0  0  3  0  0  0  0  0  0
  -21.6530   -6.9460   21.4680 O   0  0  0  0  0  0  0  0  0  0  0  0
  -21.6050   -6.2090   22.6240 C   0  0  0  0  0  0  0  0  0  0  0  0
  -21.1760   -6.7670   23.8470 C   0  0  0  0  0  3  0  0  0  0  0  0
  -21.0770   -5.9560   24.9950 C   0  0  0  0  0  3  0  0  0  0  0  0
  -21.3960   -4.5880   24.9210 C   0  0  0  0  0  0  0  0  0  0  0  0
  -21.8200   -4.0280   23.7020 C   0  0  0  0  0  3  0  0  0  0  0  0
  -21.9210   -4.8370   22.5570 C   0  0  0  0  0  0  0  0  0  0  0  0
  -22.3080   -4.2890   21.3800 F   0  0  0  0  0  0  0  0  0  0  0  0
  -21.2940   -3.8070   26.0210 F   0  0  0  0  0  0  0  0  0  0  0  0
  -22.7410  -13.5840   21.1220 C   0  0  0  0  0  0  0  0  0  0  0  0
  -22.0190  -12.8890   21.9940 N   0  0  0  0  0  0  0  0  0  0  0  0
  -22.3000  -14.6110   20.6050 O   0  0  0  0  0  0  0  0  0  0  0  0
  -22.3870  -12.0580   22.4310 H   0  0  0  0  0  0  0  0  0  0  0  0
  -21.0840  -13.1950   22.2270 H   0  0  0  0  0  0  0  0  0  0  0  0
  -25.3600  -15.2450   20.2640 N   0  0  0  0  0  0  0  0  0  0  0  0
  -24.5750  -15.8840   20.3300 H   0  0  0  0  0  0  0  0  0  0  0  0
  -26.1690  -15.6610   19.8180 H   0  0  0  0  0  0  0  0  0  0  0  0
  -29.0070  -25.2730   22.1590 C   0  0  0  0  0  1  0  0  0  0  0  0
  -26.9100  -24.4830   21.0380 C   0  0  0  0  0  1  0  0  0  0  0  0
  -28.3230  -25.0730   20.7940 C   0  0  2  0  0  0  0  0  0  0  0  0
  -28.3610  -26.4550   20.1900 O   0  0  0  0  0  0  0  0  0  0  0  0
  -24.6230  -31.8670   23.2530 C   0  0  0  0  0  0  0  0  0  0  0  0
  -27.2470  -27.3150   20.1950 C   0  0  0  0  0  0  0  0  0  0  0  0
  -23.4290  -30.4730   21.6030 C   0  0  0  0  0  3  0  0  0  0  0  0
  -24.8890  -28.9370   20.1700 C   0  0  0  0  0  0  0  0  0  0  0  0
  -25.9690  -30.7950   21.4320 C   0  0  0  0  0  2  0  0  0  0  0  0
  -26.0540  -29.4190   20.7830 C   0  0  0  0  0  0  0  0  0  0  0  0
  -27.2360  -28.6180   20.7900 C   0  0  0  0  0  3  0  0  0  0  0  0
  -26.0770  -26.9180   19.5160 C   0  0  0  0  0  3  0  0  0  0  0  0
  -24.9040  -27.6920   19.5250 C   0  0  0  0  0  3  0  0  0  0  0  0
  -23.6510  -29.8080   20.2180 C   0  0  0  0  0  2  0  0  0  0  0  0
  -24.6920  -31.0630   22.1520 N   0  0  0  0  0  0  0  0  0  0  0  0
  -23.5360  -32.1390   23.7840 O   0  0  0  0  0  0  0  0  0  0  0  0
  -22.7680  -29.4480   22.5560 C   0  0  0  0  0  0  0  0  0  0  0  0
  -21.4400  -29.2740   22.4320 N   0  0  0  0  0  0  0  0  0  0  0  0
  -23.4480  -28.8130   23.3670 O   0  0  0  0  0  0  0  0  0  0  0  0
  -20.9500  -29.8380   21.7530 H   0  0  0  0  0  0  0  0  0  0  0  0
  -18.0620  -28.0870   22.9340 C   0  0  0  0  0  0  0  0  0  0  0  0
  -20.6220  -28.3330   23.1980 C   0  0  0  0  0  3  0  0  0  0  0  0
  -20.7160  -26.9070   22.6100 C   0  0  0  0  0  2  0  0  0  0  0  0
  -19.6090  -26.5970   21.5960 C   0  0  0  0  0  2  0  0  0  0  0  0
  -18.2310  -26.7420   22.2460 C   0  0  0  0  0  2  0  0  0  0  0  0
  -19.1850  -28.8400   23.3670 C   0  0  0  0  0  0  0  0  0  0  0  0
  -18.9730  -30.0970   23.9730 C   0  0  0  0  0  3  0  0  0  0  0  0
  -17.6720  -30.6020   24.1500 C   0  0  0  0  0  3  0  0  0  0  0  0
  -16.5620  -29.8450   23.7350 C   0  0  0  0  0  3  0  0  0  0  0  0
  -16.7580  -28.5890   23.1310 C   0  0  0  0  0  3  0  0  0  0  0  0
  -25.9020  -32.5010   23.8810 C   0  0  0  0  0  3  0  0  0  0  0  0
  -25.5920  -33.9010   24.2050 N   0  0  0  0  0  0  0  0  0  0  0  0
  -25.9280  -34.9510   23.4440 C   0  0  0  0  0  0  0  0  0  0  0  0
  -26.6000  -34.8420   22.4150 O   0  0  0  0  0  0  0  0  0  0  0  0
  -24.9970  -34.0590   25.0050 H   0  0  0  0  0  0  0  0  0  0  0  0
  -24.2030  -36.7440   23.0790 C   0  0  0  0  0  1  0  0  0  0  0  0
  -25.4410  -36.3410   23.8960 C   0  0  0  0  0  3  0  0  0  0  0  0
  -27.5730  -37.2270   24.7310 C   0  0  0  0  0  1  0  0  0  0  0  0
  -26.4740  -37.3930   23.7820 N   0  0  0  0  0  0  0  0  0  0  0  0
  -26.0690  -38.3140   23.9260 H   0  0  0  0  0  0  0  0  0  0  0  0
  -26.4110  -31.7330   25.1630 C   0  0  1  0  0  0  0  0  0  0  0  0
  -25.3120  -31.5050   26.2260 C   0  0  0  0  0  1  0  0  0  0  0  0
  -26.9950  -30.3530   24.7790 C   0  0  0  0  0  1  0  0  0  0  0  0
  -27.5590  -32.5270   25.8280 C   0  0  0  0  0  1  0  0  0  0  0  0
  1 11  1  0
  1  3  1  0
  2  3  1  0
  2 53  1  0
  3  6  1  0
  4  1  2  0
  5  2  2  0
  7 11  2  0
  7  9  1  0
  8 10  2  0
  9 12  2  0
 11  8  1  0
 12 10  1  0
 12 21  1  0
 13 21  1  0
 14 19  1  0
 15 16  1  0
 15 14  1  0
 17 16  1  0
 17 26  1  0
 17 18  1  0
 19 13  1  0
 19 18  1  0
 20 13  2  0
 21 22  1  0
 23 24  2  0
 24 43  1  0
 25 24  1  0
 25 28  1  0
 26 23  1  0
 26 27  1  0
 27 25  2  0
 28 29  1  0
 29 30  2  0
 31 34  1  0
 31 30  1  0
 32 31  2  0
 33 32  1  0
 33 28  2  0
 34 35  1  0
 35 36  1  0
 36 37  2  0
 38 37  1  0
 38 42  1  0
 39 38  2  0
 40 35  2  0
 40 39  1  0
 41 40  1  0
 43 44  1  0
 44 47  1  0
 44 46  1  0
 45 43  2  0
 48 49  1  0
 48 23  1  0
 50 48  1  0
 53 52  1  1
 53 51  1  0
 54 56  1  0
 54 53  1  0
 55 66  2  0
 56 61  1  0
 57 65  1  0
 57 67  1  0
 58 64  1  0
 58 60  1  0
 59 65  1  0
 60 61  2  0
 60 59  1  0
 62 63  1  0
 62 56  2  0
 63 58  2  0
 64 57  1  0
 65 55  1  0
 67 69  2  0
 68 67  1  0
 70 68  1  0
 71 80  2  0
 71 76  1  0
 72 68  1  0
 72 76  1  0
 73 72  1  0
 74 75  1  0
 74 73  1  0
 75 71  1  0
 76 77  2  0
 77 78  1  0
 79 78  2  0
 80 79  1  0
 81 55  1  0
 81 82  1  0
 81 91  1  0
 82 85  1  0
 83 87  1  0
 83 82  1  0
 84 83  2  0
 87 86  1  0
 89 87  1  0
 89 90  1  0
 89 88  1  0
 91 94  1  1
 91 92  1  0
 93 91  1  0
M  ISO  4  13 100  21 100  53 101  54 101
M  END
>  <TORSDO>  (58) 
F 18

>  <SCORE>  (58) 
-14.829

>  <name>  (58) 
57

>  <ligand_id>  (58) 
57

>  <original_smiles>  (58) 
[H]c1c([H])c([H])c2c(c1[H])C([H])([H])C([H])([H])C([H])([H])C2([H])N([H])C(=O)C1([H])N(C(=O)C([H])(N([H])C(=O)C([H])(N([H])C([H])([H])[H])C([H])([H])[H])C(C([H])([H])[H])(C([H])([H])[H])C([H])([H])[H])C([H])([H])c2c([H])c(OC(C(=O)N([H])C(=O)c3c([H])c([H])c(N([H])C(=O)N4C([H])([H])C([H])([H])C([H])([H])C([H])(n5nc(-c6c([H])c([H])c(Oc7c([H])c([H])c(F)c([H])c7F)c([H])c6[H])c(C(=O)N([H])[H])c5N([H])[H])C4([H])[H])c([H])c3[H])(C([H])([H])[H])C([H])([H])[H])c([H])c([H])c2C1([H])[H]

>  <smiles>  (58) 
[H]c1c([H])c([H])c2c(c1[H])C([H])([H])C([H])([H])C([H])([H])C2([H])N([H])C(=O)C1([H])N(C(=O)C([H])(N([H])C(=O)C([H])(N([H])C([H])([H])[H])C([H])([H])[H])C(C([H])([H])[H])(C([H])([H])[H])C([H])([H])[H])C([H])([H])c2c([H])c(OC(C(=O)N([H])C(=O)c3c([H])c([H])c(N([H])C(=O)N4C([H])([H])C([H])([H])C([H])([H])C([H])(n5nc(-c6c([H])c([H])c(Oc7c([H])c([H])c(F)c([H])c7F)c([H])c6[H])c(C(=O)N([H])[H])c5N([H])[H])C4([H])[H])c([H])c3[H])(C([H])([H])[H])C([H])([H])[H])c([H])c([H])c2C1([H])[H]

$$$$
58:0:0
     RDKit          3D

 96105  0  0  1  0  0  0  0  0999 V2000
  -32.3740  -19.0110   18.5060 C   0  0  0  0  0  3  0  0  0  0  0  0
  -31.8010  -17.9500   19.2250 C   0  0  0  0  0  3  0  0  0  0  0  0
  -31.7920  -20.2900   18.5430 C   0  0  0  0  0  3  0  0  0  0  0  0
  -30.1120  -19.4800   20.0930 C   0  0  0  0  0  3  0  0  0  0  0  0
  -30.6490  -18.1300   20.0150 C   0  0  0  0  0  0  0  0  0  0  0  0
  -30.6440  -20.5820   19.3260 C   0  0  0  0  0  0  0  0  0  0  0  0
  -29.2160  -24.0830   19.6180 C   0  0  0  0  0  0  0  0  0  0  0  0
  -29.4650  -22.7350   20.1850 C   0  0  0  0  0  0  0  0  0  0  0  0
  -28.5870  -25.1290   20.2420 C   0  0  0  0  0  3  0  0  0  0  0  0
  -29.7780  -24.1420   18.2350 C   0  0  0  0  0  2  0  0  0  0  0  0
  -30.1450  -22.6840   17.9580 C   0  0  0  0  0  2  0  0  0  0  0  0
  -30.0790  -21.9500   19.2380 N   0  0  0  0  0  0  0  0  0  0  0  0
  -29.1970  -22.3720   21.3330 O   0  0  0  0  0  0  0  0  0  0  0  0
  -28.5180  -26.4320   19.7350 O   0  0  0  0  0  0  0  0  0  0  0  0
  -24.6540  -31.5870   23.0100 C   0  0  0  0  0  0  0  0  0  0  0  0
  -27.3480  -27.1840   19.8310 C   0  0  0  0  0  0  0  0  0  0  0  0
  -23.4650  -30.2140   21.3320 C   0  0  0  0  0  3  0  0  0  0  0  0
  -24.9380  -28.7120   19.8730 C   0  0  0  0  0  0  0  0  0  0  0  0
  -25.9930  -30.5850   21.1500 C   0  0  0  0  0  2  0  0  0  0  0  0
  -26.0950  -29.2220   20.4760 C   0  0  0  0  0  0  0  0  0  0  0  0
  -27.3030  -28.4680   20.4460 C   0  0  0  0  0  3  0  0  0  0  0  0
  -26.1670  -26.7070   19.2220 C   0  0  0  0  0  3  0  0  0  0  0  0
  -24.9690  -27.4530   19.2480 C   0  0  0  0  0  3  0  0  0  0  0  0
  -23.6870  -29.5660   19.9410 C   0  0  0  0  0  2  0  0  0  0  0  0
  -24.7230  -30.8080   21.8900 N   0  0  0  0  0  0  0  0  0  0  0  0
  -23.5710  -31.8430   23.5470 O   0  0  0  0  0  0  0  0  0  0  0  0
  -22.8110  -29.1710   22.2650 C   0  0  0  0  0  0  0  0  0  0  0  0
  -21.4850  -29.0010   22.1460 N   0  0  0  0  0  0  0  0  0  0  0  0
  -23.5000  -28.5140   23.0500 O   0  0  0  0  0  0  0  0  0  0  0  0
  -20.9940  -29.5790   21.4770 H   0  0  0  0  0  0  0  0  0  0  0  0
  -18.0960  -27.8730   22.7310 C   0  0  0  0  0  0  0  0  0  0  0  0
  -20.6700  -28.0410   22.8930 C   0  0  0  0  0  3  0  0  0  0  0  0
  -20.7030  -26.6500   22.2200 C   0  0  0  0  0  2  0  0  0  0  0  0
  -19.5450  -26.4260   21.2430 C   0  0  0  0  0  2  0  0  0  0  0  0
  -18.1980  -26.5680   21.9600 C   0  0  0  0  0  2  0  0  0  0  0  0
  -19.2570  -28.5730   23.1530 C   0  0  0  0  0  0  0  0  0  0  0  0
  -19.1070  -29.7970   23.8410 C   0  0  0  0  0  3  0  0  0  0  0  0
  -17.8300  -30.3270   24.0990 C   0  0  0  0  0  3  0  0  0  0  0  0
  -16.6820  -29.6250   23.6880 C   0  0  0  0  0  3  0  0  0  0  0  0
  -16.8200  -28.3980   23.0150 C   0  0  0  0  0  3  0  0  0  0  0  0
  -25.9320  -32.2100   23.6510 C   0  0  0  0  0  3  0  0  0  0  0  0
  -26.4880  -31.3770   24.8730 C   0  0  1  0  0  0  0  0  0  0  0  0
  -25.4140  -31.0550   25.9360 C   0  0  0  0  0  1  0  0  0  0  0  0
  -27.0930  -30.0360   24.3950 C   0  0  0  0  0  1  0  0  0  0  0  0
  -27.6320  -32.1580   25.5630 C   0  0  0  0  0  1  0  0  0  0  0  0
  -25.5990  -33.5810   24.0580 N   0  0  0  0  0  0  0  0  0  0  0  0
  -25.8830  -34.6780   23.3440 C   0  0  0  0  0  0  0  0  0  0  0  0
  -26.5270  -34.6470   22.2940 O   0  0  0  0  0  0  0  0  0  0  0  0
  -25.0220  -33.6820   24.8810 H   0  0  0  0  0  0  0  0  0  0  0  0
  -24.0930  -36.4330   23.1380 C   0  0  0  0  0  1  0  0  0  0  0  0
  -25.3700  -36.0270   23.8880 C   0  0  0  0  0  3  0  0  0  0  0  0
  -27.4990  -36.9370   24.7060 C   0  0  0  0  0  1  0  0  0  0  0  0
  -26.3700  -37.1130   23.7970 N   0  0  0  0  0  0  0  0  0  0  0  0
  -25.9430  -38.0140   23.9980 H   0  0  0  0  0  0  0  0  0  0  0  0
  -31.1100  -16.6810   22.0240 C   0  0  0  0  0  1  0  0  0  0  0  0
  -30.1310  -16.8850   20.8490 C   0  0  2  0  0  0  0  0  0  0  0  0
  -30.7080  -14.5180   19.7110 C   0  0  0  0  0  0  0  0  0  0  0  0
  -30.3570  -12.3840   18.4790 C   0  0  0  0  0  2  0  0  0  0  0  0
  -29.2950  -12.6160   17.3810 C   0  0  0  0  0  2  0  0  0  0  0  0
  -27.8660  -12.4420   17.9380 C   0  0  0  0  0  2  0  0  0  0  0  0
  -27.6450  -13.2020   19.2760 C   0  0  0  0  0  3  0  0  0  0  0  0
  -28.8080  -12.9360   20.2540 C   0  0  0  0  0  2  0  0  0  0  0  0
  -30.0540  -13.3230   19.5720 N   0  0  0  0  0  0  0  0  0  0  0  0
  -31.8600  -14.6670   19.2950 O   0  0  0  0  0  0  0  0  0  0  0  0
  -29.9390  -15.5480   20.1750 N   0  0  0  0  0  0  0  0  0  0  0  0
  -28.9840  -15.2460   20.2820 H   0  0  0  0  0  0  0  0  0  0  0  0
  -25.3120  -13.7640   20.1980 C   0  0  0  0  0  0  0  0  0  0  0  0
  -24.2890  -12.9750   20.6540 C   0  0  0  0  0  0  0  0  0  0  0  0
  -24.7660  -11.6290   20.5760 C   0  0  0  0  0  0  0  0  0  0  0  0
  -26.3430  -12.8990   19.8690 N   0  0  0  0  0  0  0  0  0  0  0  0
  -26.0250  -11.6120   20.1540 N   0  0  0  0  0  0  0  0  0  0  0  0
  -24.0730  -10.3580   20.8180 C   0  0  0  0  0  0  0  0  0  0  0  0
  -24.5090   -9.4560   21.8150 C   0  0  0  0  0  3  0  0  0  0  0  0
  -23.8130   -8.2480   22.0410 C   0  0  0  0  0  3  0  0  0  0  0  0
  -22.6710   -7.9310   21.2690 C   0  0  0  0  0  0  0  0  0  0  0  0
  -22.2540   -8.8210   20.2630 C   0  0  0  0  0  3  0  0  0  0  0  0
  -22.9500  -10.0200   20.0360 C   0  0  0  0  0  3  0  0  0  0  0  0
  -21.9530   -6.7680   21.3990 O   0  0  0  0  0  0  0  0  0  0  0  0
  -21.7700   -6.1650   22.6190 C   0  0  0  0  0  0  0  0  0  0  0  0
  -21.1360   -6.8320   23.6880 C   0  0  0  0  0  3  0  0  0  0  0  0
  -20.9070   -6.1550   24.9040 C   0  0  0  0  0  3  0  0  0  0  0  0
  -21.3050   -4.8110   25.0460 C   0  0  0  0  0  0  0  0  0  0  0  0
  -21.9300   -4.1430   23.9790 C   0  0  0  0  0  3  0  0  0  0  0  0
  -22.1580   -4.8190   22.7660 C   0  0  0  0  0  0  0  0  0  0  0  0
  -22.7460   -4.1660   21.7340 F   0  0  0  0  0  0  0  0  0  0  0  0
  -21.0760   -4.1550   26.2090 F   0  0  0  0  0  0  0  0  0  0  0  0
  -22.9150  -13.4330   21.0450 C   0  0  0  0  0  0  0  0  0  0  0  0
  -22.2800  -12.7370   21.9830 N   0  0  0  0  0  0  0  0  0  0  0  0
  -22.4140  -14.4450   20.5560 O   0  0  0  0  0  0  0  0  0  0  0  0
  -22.7010  -11.9190   22.3990 H   0  0  0  0  0  0  0  0  0  0  0  0
  -21.3620  -13.0260   22.2840 H   0  0  0  0  0  0  0  0  0  0  0  0
  -25.4390  -15.1360   20.0100 N   0  0  0  0  0  0  0  0  0  0  0  0
  -24.6690  -15.7730   20.1820 H   0  0  0  0  0  0  0  0  0  0  0  0
  -26.2450  -15.5910   19.6010 H   0  0  0  0  0  0  0  0  0  0  0  0
  -27.8540  -16.1890   21.7660 C   0  0  0  0  0  2  0  0  0  0  0  0
  -28.7390  -17.1450   21.4340 C   0  0  0  0  0  3  0  0  0  0  0  0
  1  3  2  0
  1  2  1  0
  2  5  2  0
  3  6  1  0
  5  4  1  0
  5 56  1  0
  6  4  2  0
  7  8  1  0
  7  9  2  0
  8 13  2  0
 10  7  1  0
 11 10  1  0
 11 12  1  0
 12  6  1  0
 12  8  1  0
 14 16  1  0
 14  9  1  0
 15 26  2  0
 16 21  1  0
 17 25  1  0
 17 27  1  0
 18 24  1  0
 18 20  1  0
 19 25  1  0
 20 19  1  0
 21 20  2  0
 22 23  1  0
 22 16  2  0
 23 18  2  0
 24 17  1  0
 25 15  1  0
 27 29  2  0
 28 27  1  0
 30 28  1  0
 31 40  2  0
 31 36  1  0
 32 28  1  0
 32 36  1  0
 33 32  1  0
 34 35  1  0
 34 33  1  0
 35 31  1  0
 36 37  2  0
 37 38  1  0
 39 38  2  0
 40 39  1  0
 41 15  1  0
 41 46  1  0
 41 42  1  0
 42 45  1  1
 42 43  1  0
 44 42  1  0
 46 49  1  0
 47 51  1  0
 47 46  1  0
 48 47  2  0
 51 50  1  0
 53 51  1  0
 53 54  1  0
 53 52  1  0
 56 96  1  0
 56 55  1  1
 57 65  1  0
 58 63  1  0
 59 60  1  0
 59 58  1  0
 61 60  1  0
 61 70  1  0
 61 62  1  0
 63 57  1  0
 63 62  1  0
 64 57  2  0
 65 66  1  0
 65 56  1  0
 67 68  2  0
 68 87  1  0
 69 68  1  0
 69 72  1  0
 70 71  1  0
 70 67  1  0
 71 69  2  0
 72 73  1  0
 73 74  2  0
 75 78  1  0
 75 74  1  0
 76 75  2  0
 77 76  1  0
 77 72  2  0
 78 79  1  0
 79 84  2  0
 79 80  1  0
 80 81  2  0
 81 82  1  0
 82 86  1  0
 83 82  2  0
 84 83  1  0
 85 84  1  0
 87 88  1  0
 88 91  1  0
 88 90  1  0
 89 87  2  0
 92 93  1  0
 92 67  1  0
 94 92  1  0
 96 95  2  0
M  ISO  4   9 101  14 101  57 100  65 100
M  END
>  <TORSDO>  (59) 
F 19

>  <SCORE>  (59) 
-10.018

>  <name>  (59) 
58

>  <ligand_id>  (59) 
58

>  <original_smiles>  (59) 
[H]C([H])=C([H])C(c1c([H])c([H])c([H])c(N2C(=O)C(=C([H])Oc3c([H])c([H])c4c(c3[H])C([H])([H])N(C(=O)C([H])(N([H])C(=O)C([H])(N([H])C([H])([H])[H])C([H])([H])[H])C(C([H])([H])[H])(C([H])([H])[H])C([H])([H])[H])C([H])(C(=O)N([H])C3([H])c5c([H])c([H])c([H])c([H])c5C([H])([H])C([H])([H])C3([H])[H])C4([H])[H])C([H])([H])C2([H])[H])c1[H])(N([H])C(=O)N1C([H])([H])C([H])([H])C([H])([H])C([H])(n2nc(-c3c([H])c([H])c(Oc4c([H])c([H])c(F)c([H])c4F)c([H])c3[H])c(C(=O)N([H])[H])c2N([H])[H])C1([H])[H])C([H])([H])[H]

>  <smiles>  (59) 
[H]C([H])=C([H])C(c1c([H])c([H])c([H])c(N2C(=O)C(=C([H])Oc3c([H])c([H])c4c(c3[H])C([H])([H])N(C(=O)C([H])(N([H])C(=O)C([H])(N([H])C([H])([H])[H])C([H])([H])[H])C(C([H])([H])[H])(C([H])([H])[H])C([H])([H])[H])C([H])(C(=O)N([H])C3([H])c5c([H])c([H])c([H])c([H])c5C([H])([H])C([H])([H])C3([H])[H])C4([H])[H])C([H])([H])C2([H])[H])c1[H])(N([H])C(=O)N1C([H])([H])C([H])([H])C([H])([H])C([H])(n2nc(-c3c([H])c([H])c(Oc4c([H])c([H])c(F)c([H])c4F)c([H])c3[H])c(C(=O)N([H])[H])c2N([H])[H])C1([H])[H])C([H])([H])[H]

$$$$
59:0:0
     RDKit          3D

 90 98  0  0  1  0  0  0  0  0999 V2000
  -30.2040  -20.1570   20.8290 C   0  0  0  0  0  3  0  0  0  0  0  0
  -30.4900  -18.7120   20.7850 C   0  0  0  0  0  3  0  0  0  0  0  0
  -28.0430  -19.7490   20.0170 C   0  0  0  0  0  3  0  0  0  0  0  0
  -28.9480  -20.7760   20.4590 C   0  0  0  0  0  0  0  0  0  0  0  0
  -29.5420  -17.6940   20.3900 C   0  0  0  0  0  0  0  0  0  0  0  0
  -28.3110  -18.3200   19.9950 C   0  0  0  0  0  0  0  0  0  0  0  0
  -27.3050  -17.4970   19.6110 F   0  0  0  0  0  0  0  0  0  0  0  0
  -30.4750  -15.0330   20.3310 C   0  0  0  0  0  0  0  0  0  0  0  0
  -30.4160  -12.6730   19.3760 C   0  0  0  0  0  2  0  0  0  0  0  0
  -29.4830  -12.6220   18.1420 C   0  0  0  0  0  2  0  0  0  0  0  0
  -28.0170  -12.4030   18.5650 C   0  0  0  0  0  2  0  0  0  0  0  0
  -27.6010  -13.3180   19.7460 C   0  0  0  0  0  3  0  0  0  0  0  0
  -28.6520  -13.3150   20.8760 C   0  0  0  0  0  2  0  0  0  0  0  0
  -29.9230  -13.7500   20.2800 N   0  0  0  0  0  0  0  0  0  0  0  0
  -31.6790  -15.1430   20.0720 O   0  0  0  0  0  0  0  0  0  0  0  0
  -29.5950  -16.1470   20.4660 N   0  0  0  0  0  0  0  0  0  0  0  0
  -28.6560  -15.7850   20.5340 H   0  0  0  0  0  0  0  0  0  0  0  0
  -25.2100  -13.8930   20.4580 C   0  0  0  0  0  0  0  0  0  0  0  0
  -24.1470  -13.1160   20.8260 C   0  0  0  0  0  0  0  0  0  0  0  0
  -24.6180  -11.7670   20.8110 C   0  0  0  0  0  0  0  0  0  0  0  0
  -26.2600  -13.0180   20.2350 N   0  0  0  0  0  0  0  0  0  0  0  0
  -25.9120  -11.7350   20.5130 N   0  0  0  0  0  0  0  0  0  0  0  0
  -23.8940  -10.5030   21.0050 C   0  0  0  0  0  0  0  0  0  0  0  0
  -24.3180   -9.5470   21.9540 C   0  0  0  0  0  3  0  0  0  0  0  0
  -23.5930   -8.3490   22.1360 C   0  0  0  0  0  3  0  0  0  0  0  0
  -22.4310   -8.0990   21.3680 C   0  0  0  0  0  0  0  0  0  0  0  0
  -22.0270   -9.0440   20.4080 C   0  0  0  0  0  3  0  0  0  0  0  0
  -22.7520  -10.2330   20.2240 C   0  0  0  0  0  3  0  0  0  0  0  0
  -21.6790   -6.9520   21.4570 O   0  0  0  0  0  0  0  0  0  0  0  0
  -21.6150   -6.2230   22.6180 C   0  0  0  0  0  0  0  0  0  0  0  0
  -21.1680   -6.7900   23.8300 C   0  0  0  0  0  3  0  0  0  0  0  0
  -21.0510   -5.9870   24.9820 C   0  0  0  0  0  3  0  0  0  0  0  0
  -21.3710   -4.6180   24.9220 C   0  0  0  0  0  0  0  0  0  0  0  0
  -21.8120   -4.0500   23.7140 C   0  0  0  0  0  3  0  0  0  0  0  0
  -21.9300   -4.8500   22.5640 C   0  0  0  0  0  0  0  0  0  0  0  0
  -22.3350   -4.2930   21.3970 F   0  0  0  0  0  0  0  0  0  0  0  0
  -21.2520   -3.8440   26.0270 F   0  0  0  0  0  0  0  0  0  0  0  0
  -22.7450  -13.5880   21.0770 C   0  0  0  0  0  0  0  0  0  0  0  0
  -22.0090  -12.8960   21.9400 N   0  0  0  0  0  0  0  0  0  0  0  0
  -22.3080  -14.6090   20.5440 O   0  0  0  0  0  0  0  0  0  0  0  0
  -22.3740  -12.0720   22.3940 H   0  0  0  0  0  0  0  0  0  0  0  0
  -21.0680  -13.1960   22.1510 H   0  0  0  0  0  0  0  0  0  0  0  0
  -25.3600  -15.2640   20.2700 N   0  0  0  0  0  0  0  0  0  0  0  0
  -24.5740  -15.8960   20.3700 H   0  0  0  0  0  0  0  0  0  0  0  0
  -26.1820  -15.7290   19.9020 H   0  0  0  0  0  0  0  0  0  0  0  0
  -28.4210  -22.2700   20.8080 C   0  0  0  0  0  0  0  0  0  0  0  0
  -27.5490  -22.2160   21.6770 O   0  0  0  0  0  0  0  0  0  0  0  0
  -28.0520  -24.7220   20.5160 C   0  0  0  0  0  3  0  0  0  0  0  0
  -28.7750  -23.5960   20.2330 N   0  0  0  0  0  0  0  0  0  0  0  0
  -28.2670  -26.1510   20.2040 O   0  0  0  0  0  0  0  0  0  0  0  0
  -24.6320  -31.8870   23.2170 C   0  0  0  0  0  0  0  0  0  0  0  0
  -27.2110  -27.1470   20.2030 C   0  0  0  0  0  0  0  0  0  0  0  0
  -23.4320  -30.4830   21.5870 C   0  0  0  0  0  3  0  0  0  0  0  0
  -24.8810  -28.9010   20.1670 C   0  0  0  0  0  0  0  0  0  0  0  0
  -25.9860  -30.7460   21.4160 C   0  0  0  0  0  2  0  0  0  0  0  0
  -26.0620  -29.3470   20.7740 C   0  0  0  0  0  0  0  0  0  0  0  0
  -27.2280  -28.4860   20.7750 C   0  0  0  0  0  3  0  0  0  0  0  0
  -26.0040  -26.8110   19.5500 C   0  0  0  0  0  3  0  0  0  0  0  0
  -24.8650  -27.6470   19.5400 C   0  0  0  0  0  3  0  0  0  0  0  0
  -23.6520  -29.7990   20.2110 C   0  0  0  0  0  2  0  0  0  0  0  0
  -24.7040  -31.0620   22.1280 N   0  0  0  0  0  0  0  0  0  0  0  0
  -23.5470  -32.1730   23.7460 O   0  0  0  0  0  0  0  0  0  0  0  0
  -22.7560  -29.4790   22.5550 C   0  0  0  0  0  0  0  0  0  0  0  0
  -21.4270  -29.3100   22.4360 N   0  0  0  0  0  0  0  0  0  0  0  0
  -23.4310  -28.8550   23.3780 O   0  0  0  0  0  0  0  0  0  0  0  0
  -20.9380  -29.8640   21.7470 H   0  0  0  0  0  0  0  0  0  0  0  0
  -18.0490  -28.1090   22.9600 C   0  0  0  0  0  0  0  0  0  0  0  0
  -20.6090  -28.3750   23.2140 C   0  0  0  0  0  3  0  0  0  0  0  0
  -20.7080  -26.9410   22.6440 C   0  0  0  0  0  2  0  0  0  0  0  0
  -19.6030  -26.6130   21.6360 C   0  0  0  0  0  2  0  0  0  0  0  0
  -18.2240  -26.7590   22.2850 C   0  0  0  0  0  2  0  0  0  0  0  0
  -19.1690  -28.8750   23.3810 C   0  0  0  0  0  0  0  0  0  0  0  0
  -18.9490  -30.1380   23.9730 C   0  0  0  0  0  3  0  0  0  0  0  0
  -17.6450  -30.6350   24.1470 C   0  0  0  0  0  3  0  0  0  0  0  0
  -16.5400  -29.8670   23.7400 C   0  0  0  0  0  3  0  0  0  0  0  0
  -16.7420  -28.6060   23.1530 C   0  0  0  0  0  3  0  0  0  0  0  0
  -25.9100  -32.5290   23.8380 C   0  0  0  0  0  3  0  0  0  0  0  0
  -25.5920  -33.9270   24.1760 N   0  0  0  0  0  0  0  0  0  0  0  0
  -25.9120  -34.9870   23.4220 C   0  0  0  0  0  0  0  0  0  0  0  0
  -26.5710  -34.8920   22.3830 O   0  0  0  0  0  0  0  0  0  0  0  0
  -25.0050  -34.0730   24.9830 H   0  0  0  0  0  0  0  0  0  0  0  0
  -24.1700  -36.7770   23.1020 C   0  0  0  0  0  1  0  0  0  0  0  0
  -25.4250  -36.3710   23.8930 C   0  0  0  0  0  3  0  0  0  0  0  0
  -27.5660  -37.2650   24.7000 C   0  0  0  0  0  1  0  0  0  0  0  0
  -26.4510  -37.4310   23.7710 N   0  0  0  0  0  0  0  0  0  0  0  0
  -26.0420  -38.3490   23.9270 H   0  0  0  0  0  0  0  0  0  0  0  0
  -26.4300  -31.7620   25.1170 C   0  0  1  0  0  0  0  0  0  0  0  0
  -25.3400  -31.5240   26.1870 C   0  0  0  0  0  1  0  0  0  0  0  0
  -27.0160  -30.3840   24.7310 C   0  0  0  0  0  1  0  0  0  0  0  0
  -27.5810  -32.5600   25.7740 C   0  0  0  0  0  1  0  0  0  0  0  0
  2  1  1  0
  3  4  1  0
  4 46  1  0
  4  1  2  0
  5 16  1  0
  5  2  2  0
  6  3  2  0
  6  5  1  0
  7  6  1  0
  8 16  1  0
  9 14  1  0
 10 11  1  0
 10  9  1  0
 12 11  1  0
 12 21  1  0
 12 13  1  0
 14  8  1  0
 14 13  1  0
 15  8  2  0
 16 17  1  0
 18 19  2  0
 19 38  1  0
 20 19  1  0
 20 23  1  0
 21 18  1  0
 21 22  1  0
 22 20  2  0
 23 24  1  0
 24 25  2  0
 26 29  1  0
 26 25  1  0
 27 26  2  0
 28 27  1  0
 28 23  2  0
 29 30  1  0
 30 31  1  0
 31 32  2  0
 33 32  1  0
 33 37  1  0
 34 33  2  0
 35 30  2  0
 35 34  1  0
 36 35  1  0
 38 39  1  0
 39 42  1  0
 39 41  1  0
 40 38  2  0
 43 44  1  0
 43 18  1  0
 45 43  1  0
 46 47  2  0
 49 48  2  0
 49 46  1  0
 50 48  1  0
 51 62  2  0
 52 50  1  0
 52 57  1  0
 53 61  1  0
 53 63  1  0
 54 60  1  0
 54 56  1  0
 55 61  1  0
 56 57  2  0
 56 55  1  0
 58 52  2  0
 59 58  1  0
 59 54  2  0
 60 53  1  0
 61 51  1  0
 63 65  2  0
 64 63  1  0
 66 64  1  0
 67 76  2  0
 67 72  1  0
 68 64  1  0
 68 72  1  0
 69 68  1  0
 70 71  1  0
 70 69  1  0
 71 67  1  0
 72 73  2  0
 73 74  1  0
 75 74  2  0
 76 75  1  0
 77 51  1  0
 77 78  1  0
 77 87  1  0
 78 81  1  0
 79 83  1  0
 79 78  1  0
 80 79  2  0
 83 82  1  0
 85 83  1  0
 85 86  1  0
 85 84  1  0
 87 90  1  1
 87 88  1  0
 89 87  1  0
M  ISO  4   8 100  16 100  48 101  50 101
M  END
>  <TORSDO>  (60) 
F 18

>  <SCORE>  (60) 
-14.949

>  <name>  (60) 
59

>  <ligand_id>  (60) 
59

>  <original_smiles>  (60) 
[H]C(=NC(=O)c1c([H])c([H])c(N([H])C(=O)N2C([H])([H])C([H])([H])C([H])([H])C([H])(n3nc(-c4c([H])c([H])c(Oc5c([H])c([H])c(F)c([H])c5F)c([H])c4[H])c(C(=O)N([H])[H])c3N([H])[H])C2([H])[H])c(F)c1[H])Oc1c([H])c([H])c2c(c1[H])C([H])([H])N(C(=O)C([H])(N([H])C(=O)C([H])(N([H])C([H])([H])[H])C([H])([H])[H])C(C([H])([H])[H])(C([H])([H])[H])C([H])([H])[H])C([H])(C(=O)N([H])C1([H])c3c([H])c([H])c([H])c([H])c3C([H])([H])C([H])([H])C1([H])[H])C2([H])[H]

>  <smiles>  (60) 
[H]C(=NC(=O)c1c([H])c([H])c(N([H])C(=O)N2C([H])([H])C([H])([H])C([H])([H])C([H])(n3nc(-c4c([H])c([H])c(Oc5c([H])c([H])c(F)c([H])c5F)c([H])c4[H])c(C(=O)N([H])[H])c3N([H])[H])C2([H])[H])c(F)c1[H])Oc1c([H])c([H])c2c(c1[H])C([H])([H])N(C(=O)C([H])(N([H])C(=O)C([H])(N([H])C([H])([H])[H])C([H])([H])[H])C(C([H])([H])[H])(C([H])([H])[H])C([H])([H])[H])C([H])(C(=O)N([H])C1([H])c3c([H])c([H])c([H])c([H])c3C([H])([H])C([H])([H])C1([H])[H])C2([H])[H]

$$$$
60:0:0
     RDKit          3D

 92101  0  0  1  0  0  0  0  0999 V2000
  -28.6520  -23.8590   19.7530 C   0  0  0  0  0  0  0  0  0  0  0  0
  -28.6520  -22.6990   18.8550 C   0  0  0  0  0  0  0  0  0  0  0  0
  -28.2970  -25.1840   19.4680 C   0  0  0  0  0  3  0  0  0  0  0  0
  -29.1390  -22.9180   20.8940 C   0  0  0  0  0  2  0  0  0  0  0  0
  -29.1020  -21.8250   19.8730 N   0  0  0  0  0  0  0  0  0  0  0  0
  -28.3530  -22.6020   17.6830 O   0  0  0  0  0  0  0  0  0  0  0  0
  -29.9130  -19.7850   21.2610 C   0  0  0  0  0  3  0  0  0  0  0  0
  -30.1820  -18.3880   21.4460 C   0  0  0  0  0  3  0  0  0  0  0  0
  -29.2440  -19.3490   19.0650 C   0  0  0  0  0  3  0  0  0  0  0  0
  -29.5090  -17.9300   19.2220 C   0  0  0  0  0  0  0  0  0  0  0  0
  -29.4110  -20.3690   20.0630 C   0  0  0  0  0  0  0  0  0  0  0  0
  -29.9940  -17.3700   20.4520 C   0  0  0  0  0  0  0  0  0  0  0  0
  -29.2120  -17.0220   18.0400 C   0  0  0  0  0  1  0  0  0  0  0  0
  -30.7300  -14.8620   20.0160 C   0  0  0  0  0  0  0  0  0  0  0  0
  -30.4330  -12.6200   18.9080 C   0  0  0  0  0  2  0  0  0  0  0  0
  -29.4060  -12.7130   17.7600 C   0  0  0  0  0  2  0  0  0  0  0  0
  -27.9760  -12.5000   18.2910 C   0  0  0  0  0  2  0  0  0  0  0  0
  -27.6900  -13.3520   19.5530 C   0  0  0  0  0  3  0  0  0  0  0  0
  -28.8230  -13.2380   20.5880 C   0  0  0  0  0  2  0  0  0  0  0  0
  -30.0800  -13.6390   19.9300 N   0  0  0  0  0  0  0  0  0  0  0  0
  -31.7950  -15.0160   19.4100 O   0  0  0  0  0  0  0  0  0  0  0  0
  -30.3240  -15.6170   22.2270 C   0  0  0  0  0  1  0  0  0  0  0  0
  -30.1930  -15.9030   20.7860 N   0  0  0  0  0  0  0  0  0  0  0  0
  -25.3810  -13.9250   20.5120 C   0  0  0  0  0  0  0  0  0  0  0  0
  -24.3420  -13.1400   20.9320 C   0  0  0  0  0  0  0  0  0  0  0  0
  -24.7870  -11.7890   20.7970 C   0  0  0  0  0  0  0  0  0  0  0  0
  -26.3890  -13.0500   20.1400 N   0  0  0  0  0  0  0  0  0  0  0  0
  -26.0460  -11.7580   20.3750 N   0  0  0  0  0  0  0  0  0  0  0  0
  -24.0690  -10.5230   20.9880 C   0  0  0  0  0  0  0  0  0  0  0  0
  -24.5270   -9.5420   21.8930 C   0  0  0  0  0  3  0  0  0  0  0  0
  -23.8060   -8.3410   22.0710 C   0  0  0  0  0  3  0  0  0  0  0  0
  -22.6130   -8.1150   21.3440 C   0  0  0  0  0  0  0  0  0  0  0  0
  -22.1740   -9.0870   20.4270 C   0  0  0  0  0  3  0  0  0  0  0  0
  -22.8950  -10.2780   20.2470 C   0  0  0  0  0  3  0  0  0  0  0  0
  -21.8600   -6.9690   21.4350 O   0  0  0  0  0  0  0  0  0  0  0  0
  -21.7790   -6.2510   22.6010 C   0  0  0  0  0  0  0  0  0  0  0  0
  -21.3170   -6.8320   23.8030 C   0  0  0  0  0  3  0  0  0  0  0  0
  -21.1820   -6.0410   24.9610 C   0  0  0  0  0  3  0  0  0  0  0  0
  -21.4990   -4.6700   24.9180 C   0  0  0  0  0  0  0  0  0  0  0  0
  -21.9540   -4.0890   23.7210 C   0  0  0  0  0  3  0  0  0  0  0  0
  -22.0900   -4.8770   22.5650 C   0  0  0  0  0  0  0  0  0  0  0  0
  -22.5080   -4.3080   21.4090 F   0  0  0  0  0  0  0  0  0  0  0  0
  -21.3620   -3.9070   26.0280 F   0  0  0  0  0  0  0  0  0  0  0  0
  -22.9770  -13.6120   21.3430 C   0  0  0  0  0  0  0  0  0  0  0  0
  -22.3250  -12.8880   22.2450 N   0  0  0  0  0  0  0  0  0  0  0  0
  -22.5020  -14.6570   20.9010 O   0  0  0  0  0  0  0  0  0  0  0  0
  -22.7240  -12.0430   22.6260 H   0  0  0  0  0  0  0  0  0  0  0  0
  -21.4140  -13.1870   22.5630 H   0  0  0  0  0  0  0  0  0  0  0  0
  -25.5440  -15.3020   20.3910 N   0  0  0  0  0  0  0  0  0  0  0  0
  -24.8030  -15.9550   20.6190 H   0  0  0  0  0  0  0  0  0  0  0  0
  -26.3820  -15.7570   20.0530 H   0  0  0  0  0  0  0  0  0  0  0  0
  -28.2790  -26.4020   20.2190 O   0  0  0  0  0  0  0  0  0  0  0  0
  -24.6080  -31.9130   23.2570 C   0  0  0  0  0  0  0  0  0  0  0  0
  -27.1930  -27.3200   20.1400 C   0  0  0  0  0  0  0  0  0  0  0  0
  -23.3940  -30.5240   21.6200 C   0  0  0  0  0  3  0  0  0  0  0  0
  -24.8340  -28.9820   20.1650 C   0  0  0  0  0  0  0  0  0  0  0  0
  -25.9390  -30.8270   21.4220 C   0  0  0  0  0  2  0  0  0  0  0  0
  -26.0130  -29.4490   20.7580 C   0  0  0  0  0  0  0  0  0  0  0  0
  -27.1910  -28.6300   20.7400 C   0  0  0  0  0  3  0  0  0  0  0  0
  -25.9800  -26.9210   19.5300 C   0  0  0  0  0  3  0  0  0  0  0  0
  -24.8240  -27.7250   19.5410 C   0  0  0  0  0  3  0  0  0  0  0  0
  -23.6000  -29.8620   20.2320 C   0  0  0  0  0  2  0  0  0  0  0  0
  -24.6670  -31.1070   22.1550 N   0  0  0  0  0  0  0  0  0  0  0  0
  -23.5280  -32.1870   23.8000 O   0  0  0  0  0  0  0  0  0  0  0  0
  -22.7380  -29.5020   22.5790 C   0  0  0  0  0  0  0  0  0  0  0  0
  -21.4120  -29.3160   22.4550 N   0  0  0  0  0  0  0  0  0  0  0  0
  -23.4210  -28.8810   23.3980 O   0  0  0  0  0  0  0  0  0  0  0  0
  -20.9190  -29.8690   21.7690 H   0  0  0  0  0  0  0  0  0  0  0  0
  -18.0440  -28.0830   22.9570 C   0  0  0  0  0  0  0  0  0  0  0  0
  -20.5990  -28.3710   23.2270 C   0  0  0  0  0  3  0  0  0  0  0  0
  -20.7180  -26.9400   22.6540 C   0  0  0  0  0  2  0  0  0  0  0  0
  -19.6200  -26.6040   21.6390 C   0  0  0  0  0  2  0  0  0  0  0  0
  -18.2360  -26.7340   22.2820 C   0  0  0  0  0  2  0  0  0  0  0  0
  -19.1550  -28.8580   23.3860 C   0  0  0  0  0  0  0  0  0  0  0  0
  -18.9200  -30.1180   23.9780 C   0  0  0  0  0  3  0  0  0  0  0  0
  -17.6100  -30.6040   24.1440 C   0  0  0  0  0  3  0  0  0  0  0  0
  -16.5140  -29.8260   23.7300 C   0  0  0  0  0  3  0  0  0  0  0  0
  -16.7330  -28.5670   23.1420 C   0  0  0  0  0  3  0  0  0  0  0  0
  -25.8930  -32.5460   23.8730 C   0  0  0  0  0  3  0  0  0  0  0  0
  -25.5890  -33.9500   24.1900 N   0  0  0  0  0  0  0  0  0  0  0  0
  -25.9090  -34.9940   23.4140 C   0  0  0  0  0  0  0  0  0  0  0  0
  -26.5600  -34.8760   22.3720 O   0  0  0  0  0  0  0  0  0  0  0  0
  -25.0090  -34.1140   24.9990 H   0  0  0  0  0  0  0  0  0  0  0  0
  -24.1750  -36.7860   23.0750 C   0  0  0  0  0  1  0  0  0  0  0  0
  -25.4350  -36.3890   23.8640 C   0  0  0  0  0  3  0  0  0  0  0  0
  -27.5890  -37.2840   24.6330 C   0  0  0  0  0  1  0  0  0  0  0  0
  -26.4660  -37.4390   23.7120 N   0  0  0  0  0  0  0  0  0  0  0  0
  -26.0640  -38.3630   23.8560 H   0  0  0  0  0  0  0  0  0  0  0  0
  -26.4020  -31.7870   25.1600 C   0  0  1  0  0  0  0  0  0  0  0  0
  -25.3050  -31.5690   26.2300 C   0  0  0  0  0  1  0  0  0  0  0  0
  -26.9780  -30.4020   24.7880 C   0  0  0  0  0  1  0  0  0  0  0  0
  -27.5550  -32.5850   25.8150 C   0  0  0  0  0  1  0  0  0  0  0  0
  1  4  1  0
  2  1  1  0
  2  5  1  0
  3  1  2  0
  3 52  1  0
  5 11  1  0
  5  4  1  0
  6  2  2  0
  7  8  1  0
  9 10  2  0
  9 11  1  0
 10 12  1  0
 11  7  2  0
 12 23  1  0
 12  8  2  0
 13 10  1  0
 14 23  1  0
 15 20  1  0
 16 17  1  0
 16 15  1  0
 18 17  1  0
 18 27  1  0
 18 19  1  0
 20 14  1  0
 20 19  1  0
 21 14  2  0
 23 22  1  0
 24 25  2  0
 25 44  1  0
 26 25  1  0
 26 29  1  0
 27 28  1  0
 27 24  1  0
 28 26  2  0
 29 30  1  0
 30 31  2  0
 32 35  1  0
 32 31  1  0
 33 32  2  0
 34 33  1  0
 34 29  2  0
 35 36  1  0
 36 37  1  0
 37 38  2  0
 39 38  1  0
 39 43  1  0
 40 39  2  0
 41 36  2  0
 41 40  1  0
 42 41  1  0
 44 45  1  0
 45 48  1  0
 45 47  1  0
 46 44  2  0
 49 24  1  0
 49 50  1  0
 51 49  1  0
 53 64  2  0
 54 52  1  0
 54 59  1  0
 55 63  1  0
 55 65  1  0
 56 62  1  0
 56 58  1  0
 57 63  1  0
 58 57  1  0
 59 58  2  0
 60 61  1  0
 60 54  2  0
 61 56  2  0
 62 55  1  0
 63 53  1  0
 65 67  2  0
 66 65  1  0
 68 66  1  0
 69 78  2  0
 69 74  1  0
 70 66  1  0
 70 74  1  0
 71 70  1  0
 72 73  1  0
 72 71  1  0
 73 69  1  0
 74 75  2  0
 75 76  1  0
 77 76  2  0
 78 77  1  0
 79 53  1  0
 79 80  1  0
 79 89  1  0
 80 83  1  0
 81 85  1  0
 81 80  1  0
 82 81  2  0
 85 84  1  0
 87 88  1  0
 87 85  1  0
 87 86  1  0
 89 92  1  1
 89 90  1  0
 91 89  1  0
M  ISO  4   3 101  14 100  23 100  52 101
M  END
>  <TORSDO>  (61) 
F 17

>  <SCORE>  (61) 
-13.791

>  <name>  (61) 
60

>  <ligand_id>  (61) 
60

>  <original_smiles>  (61) 
[H]C(Oc1c([H])c([H])c2c(c1[H])C([H])([H])N(C(=O)C([H])(N([H])C(=O)C([H])(N([H])C([H])([H])[H])C([H])([H])[H])C(C([H])([H])[H])(C([H])([H])[H])C([H])([H])[H])C([H])(C(=O)N([H])C1([H])c3c([H])c([H])c([H])c([H])c3C([H])([H])C([H])([H])C1([H])[H])C2([H])[H])=C1C(=O)N(c2c([H])c([H])c(N(C(=O)N3C([H])([H])C([H])([H])C([H])([H])C([H])(n4nc(-c5c([H])c([H])c(Oc6c([H])c([H])c(F)c([H])c6F)c([H])c5[H])c(C(=O)N([H])[H])c4N([H])[H])C3([H])[H])C([H])([H])[H])c(C([H])([H])[H])c2[H])C1([H])[H]

>  <smiles>  (61) 
[H]C(Oc1c([H])c([H])c2c(c1[H])C([H])([H])N(C(=O)C([H])(N([H])C(=O)C([H])(N([H])C([H])([H])[H])C([H])([H])[H])C(C([H])([H])[H])(C([H])([H])[H])C([H])([H])[H])C([H])(C(=O)N([H])C1([H])c3c([H])c([H])c([H])c([H])c3C([H])([H])C([H])([H])C1([H])[H])C2([H])[H])=C1C(=O)N(c2c([H])c([H])c(N(C(=O)N3C([H])([H])C([H])([H])C([H])([H])C([H])(n4nc(-c5c([H])c([H])c(Oc6c([H])c([H])c(F)c([H])c6F)c([H])c5[H])c(C(=O)N([H])[H])c4N([H])[H])C3([H])[H])C([H])([H])[H])c(C([H])([H])[H])c2[H])C1([H])[H]

$$$$
61:0:0
     RDKit          3D

 92100  0  0  1  0  0  0  0  0999 V2000
  -30.1940  -21.7380   20.5810 C   0  0  0  0  0  0  0  0  0  0  0  0
  -29.3180  -24.0650   20.4040 C   0  0  0  0  0  0  0  0  0  0  0  0
  -29.2260  -22.6810   20.2980 N   0  0  0  0  0  0  0  0  0  0  0  0
  -31.3260  -22.0690   20.9530 O   0  0  0  0  0  0  0  0  0  0  0  0
  -30.3260  -24.6380   20.8380 O   0  0  0  0  0  0  0  0  0  0  0  0
  -28.3520  -22.3160   19.9550 H   0  0  0  0  0  0  0  0  0  0  0  0
  -31.1170  -19.3710   20.1190 C   0  0  0  0  0  3  0  0  0  0  0  0
  -28.8060  -19.4960   20.7410 C   0  0  0  0  0  3  0  0  0  0  0  0
  -31.0750  -17.9420   20.1460 C   0  0  0  0  0  3  0  0  0  0  0  0
  -28.7630  -18.0620   20.7690 C   0  0  0  0  0  3  0  0  0  0  0  0
  -29.9970  -20.2030   20.4260 C   0  0  0  0  0  0  0  0  0  0  0  0
  -29.8940  -17.2350   20.4920 C   0  0  0  0  0  0  0  0  0  0  0  0
  -30.5680  -14.7130   20.2000 C   0  0  0  0  0  0  0  0  0  0  0  0
  -30.3280  -12.4810   19.1160 C   0  0  0  0  0  2  0  0  0  0  0  0
  -29.3470  -12.6240   17.9320 C   0  0  0  0  0  2  0  0  0  0  0  0
  -27.8870  -12.4620   18.4040 C   0  0  0  0  0  2  0  0  0  0  0  0
  -27.5700  -13.3070   19.6650 C   0  0  0  0  0  3  0  0  0  0  0  0
  -28.6620  -13.1350   20.7450 C   0  0  0  0  0  2  0  0  0  0  0  0
  -29.9510  -13.4880   20.1310 N   0  0  0  0  0  0  0  0  0  0  0  0
  -31.7230  -14.8610   19.7890 O   0  0  0  0  0  0  0  0  0  0  0  0
  -29.7710  -15.7690   20.5810 N   0  0  0  0  0  0  0  0  0  0  0  0
  -28.8730  -15.4540   20.9150 H   0  0  0  0  0  0  0  0  0  0  0  0
  -25.2040  -13.9080   20.4660 C   0  0  0  0  0  0  0  0  0  0  0  0
  -24.1450  -13.1370   20.8580 C   0  0  0  0  0  0  0  0  0  0  0  0
  -24.5970  -11.7830   20.7910 C   0  0  0  0  0  0  0  0  0  0  0  0
  -26.2350  -13.0250   20.1870 N   0  0  0  0  0  0  0  0  0  0  0  0
  -25.8760  -11.7410   20.4430 N   0  0  0  0  0  0  0  0  0  0  0  0
  -23.8670  -10.5220   20.9830 C   0  0  0  0  0  0  0  0  0  0  0  0
  -24.3070   -9.5490   21.9060 C   0  0  0  0  0  3  0  0  0  0  0  0
  -23.5790   -8.3520   22.0860 C   0  0  0  0  0  3  0  0  0  0  0  0
  -22.3970   -8.1220   21.3420 C   0  0  0  0  0  0  0  0  0  0  0  0
  -21.9780   -9.0850   20.4070 C   0  0  0  0  0  3  0  0  0  0  0  0
  -22.7070  -10.2710   20.2260 C   0  0  0  0  0  3  0  0  0  0  0  0
  -21.6400   -6.9790   21.4320 O   0  0  0  0  0  0  0  0  0  0  0  0
  -21.5780   -6.2470   22.5900 C   0  0  0  0  0  0  0  0  0  0  0  0
  -21.1290   -6.8080   23.8050 C   0  0  0  0  0  3  0  0  0  0  0  0
  -21.0140   -6.0010   24.9540 C   0  0  0  0  0  3  0  0  0  0  0  0
  -21.3390   -4.6330   24.8900 C   0  0  0  0  0  0  0  0  0  0  0  0
  -21.7820   -4.0710   23.6800 C   0  0  0  0  0  3  0  0  0  0  0  0
  -21.8980   -4.8740   22.5330 C   0  0  0  0  0  0  0  0  0  0  0  0
  -22.3050   -4.3230   21.3640 F   0  0  0  0  0  0  0  0  0  0  0  0
  -21.2220   -3.8560   25.9920 F   0  0  0  0  0  0  0  0  0  0  0  0
  -22.7590  -13.6180   21.1790 C   0  0  0  0  0  0  0  0  0  0  0  0
  -22.0540  -12.9140   22.0570 N   0  0  0  0  0  0  0  0  0  0  0  0
  -22.3110  -14.6520   20.6850 O   0  0  0  0  0  0  0  0  0  0  0  0
  -22.4290  -12.0770   22.4770 H   0  0  0  0  0  0  0  0  0  0  0  0
  -21.1260  -13.2190   22.3150 H   0  0  0  0  0  0  0  0  0  0  0  0
  -25.3720  -15.2810   20.3040 N   0  0  0  0  0  0  0  0  0  0  0  0
  -24.6050  -15.9330   20.4350 H   0  0  0  0  0  0  0  0  0  0  0  0
  -26.1960  -15.7160   19.9080 H   0  0  0  0  0  0  0  0  0  0  0  0
  -28.1290  -25.0170   19.9720 C   0  0  0  0  0  2  0  0  0  0  0  0
  -28.3410  -26.4810   20.1960 O   0  0  0  0  0  0  0  0  0  0  0  0
  -24.6120  -31.8710   23.2470 C   0  0  0  0  0  0  0  0  0  0  0  0
  -27.2230  -27.3360   20.1470 C   0  0  0  0  0  0  0  0  0  0  0  0
  -23.4070  -30.4890   21.5940 C   0  0  0  0  0  3  0  0  0  0  0  0
  -24.8580  -28.9540   20.1510 C   0  0  0  0  0  0  0  0  0  0  0  0
  -25.9470  -30.8080   21.4130 C   0  0  0  0  0  2  0  0  0  0  0  0
  -26.0280  -29.4360   20.7520 C   0  0  0  0  0  0  0  0  0  0  0  0
  -27.2140  -28.6390   20.7390 C   0  0  0  0  0  3  0  0  0  0  0  0
  -26.0280  -26.9120   19.5200 C   0  0  0  0  0  3  0  0  0  0  0  0
  -24.8610  -27.6980   19.5270 C   0  0  0  0  0  3  0  0  0  0  0  0
  -23.6210  -29.8280   20.2080 C   0  0  0  0  0  2  0  0  0  0  0  0
  -24.6750  -31.0730   22.1410 N   0  0  0  0  0  0  0  0  0  0  0  0
  -23.5280  -32.1440   23.7840 O   0  0  0  0  0  0  0  0  0  0  0  0
  -22.7450  -29.4630   22.5450 C   0  0  0  0  0  0  0  0  0  0  0  0
  -21.4180  -29.2870   22.4170 N   0  0  0  0  0  0  0  0  0  0  0  0
  -23.4240  -28.8290   23.3560 O   0  0  0  0  0  0  0  0  0  0  0  0
  -20.9300  -29.8510   21.7350 H   0  0  0  0  0  0  0  0  0  0  0  0
  -18.0380  -28.1030   22.9200 C   0  0  0  0  0  0  0  0  0  0  0  0
  -20.5990  -28.3440   23.1790 C   0  0  0  0  0  3  0  0  0  0  0  0
  -20.6900  -26.9200   22.5830 C   0  0  0  0  0  2  0  0  0  0  0  0
  -19.5800  -26.6170   21.5700 C   0  0  0  0  0  2  0  0  0  0  0  0
  -18.2030  -26.7620   22.2250 C   0  0  0  0  0  2  0  0  0  0  0  0
  -19.1630  -28.8530   23.3540 C   0  0  0  0  0  0  0  0  0  0  0  0
  -18.9540  -30.1080   23.9650 C   0  0  0  0  0  3  0  0  0  0  0  0
  -17.6530  -30.6140   24.1440 C   0  0  0  0  0  3  0  0  0  0  0  0
  -16.5420  -29.8610   23.7260 C   0  0  0  0  0  3  0  0  0  0  0  0
  -16.7350  -28.6070   23.1190 C   0  0  0  0  0  3  0  0  0  0  0  0
  -25.8940  -32.4980   23.8750 C   0  0  0  0  0  3  0  0  0  0  0  0
  -25.5870  -33.8960   24.2100 N   0  0  0  0  0  0  0  0  0  0  0  0
  -25.9040  -34.9500   23.4460 C   0  0  0  0  0  0  0  0  0  0  0  0
  -26.5550  -34.8480   22.4030 O   0  0  0  0  0  0  0  0  0  0  0  0
  -25.0060  -34.0490   25.0210 H   0  0  0  0  0  0  0  0  0  0  0  0
  -24.1570  -36.7340   23.1360 C   0  0  0  0  0  1  0  0  0  0  0  0
  -25.4220  -36.3380   23.9130 C   0  0  0  0  0  3  0  0  0  0  0  0
  -27.5730  -37.2390   24.6830 C   0  0  0  0  0  1  0  0  0  0  0  0
  -26.4460  -37.3950   23.7670 N   0  0  0  0  0  0  0  0  0  0  0  0
  -26.0390  -38.3150   23.9190 H   0  0  0  0  0  0  0  0  0  0  0  0
  -26.4050  -31.7220   25.1500 C   0  0  1  0  0  0  0  0  0  0  0  0
  -25.3060  -31.4800   26.2130 C   0  0  0  0  0  1  0  0  0  0  0  0
  -26.9880  -30.3450   24.7560 C   0  0  0  0  0  1  0  0  0  0  0  0
  -27.5520  -32.5120   25.8210 C   0  0  0  0  0  1  0  0  0  0  0  0
  1  4  2  0
  2  5  2  0
  3  2  1  0
  3  1  1  0
  6  3  1  0
  7  9  2  0
  7 11  1  0
  8 10  1  0
  9 12  1  0
 11  1  1  0
 11  8  2  0
 12 21  1  0
 12 10  2  0
 13 21  1  0
 14 19  1  0
 15 16  1  0
 15 14  1  0
 17 16  1  0
 17 26  1  0
 17 18  1  0
 19 13  1  0
 19 18  1  0
 20 13  2  0
 21 22  1  0
 23 24  2  0
 24 43  1  0
 25 24  1  0
 25 28  1  0
 26 27  1  0
 26 23  1  0
 27 25  2  0
 28 29  1  0
 29 30  2  0
 31 34  1  0
 31 30  1  0
 32 31  2  0
 33 32  1  0
 33 28  2  0
 34 35  1  0
 35 36  1  0
 36 37  2  0
 38 37  1  0
 38 42  1  0
 39 38  2  0
 40 35  2  0
 40 39  1  0
 41 40  1  0
 43 44  1  0
 44 47  1  0
 44 46  1  0
 45 43  2  0
 48 49  1  0
 48 23  1  0
 50 48  1  0
 51 52  1  0
 51  2  1  0
 53 64  2  0
 54 52  1  0
 54 59  1  0
 55 63  1  0
 55 65  1  0
 56 62  1  0
 56 58  1  0
 57 63  1  0
 58 57  1  0
 59 58  2  0
 60 61  1  0
 60 54  2  0
 61 56  2  0
 62 55  1  0
 63 53  1  0
 65 67  2  0
 66 65  1  0
 68 66  1  0
 69 78  2  0
 69 74  1  0
 70 66  1  0
 70 74  1  0
 71 70  1  0
 72 73  1  0
 72 71  1  0
 73 69  1  0
 74 75  2  0
 75 76  1  0
 77 76  2  0
 78 77  1  0
 79 53  1  0
 79 80  1  0
 79 89  1  0
 80 83  1  0
 81 85  1  0
 81 80  1  0
 82 81  2  0
 85 84  1  0
 87 85  1  0
 87 88  1  0
 87 86  1  0
 89 92  1  1
 89 90  1  0
 91 89  1  0
M  ISO  4  13 100  21 100  51 101  52 101
M  END
>  <TORSDO>  (62) 
F 18

>  <SCORE>  (62) 
-14.623

>  <name>  (62) 
61

>  <ligand_id>  (62) 
61

>  <original_smiles>  (62) 
[H]c1c([H])c([H])c2c(c1[H])C([H])([H])C([H])([H])C([H])([H])C2([H])N([H])C(=O)C1([H])N(C(=O)C([H])(N([H])C(=O)C([H])(N([H])C([H])([H])[H])C([H])([H])[H])C(C([H])([H])[H])(C([H])([H])[H])C([H])([H])[H])C([H])([H])c2c([H])c(OC([H])([H])C(=O)N([H])C(=O)c3c([H])c([H])c(N([H])C(=O)N4C([H])([H])C([H])([H])C([H])([H])C([H])(n5nc(-c6c([H])c([H])c(Oc7c([H])c([H])c(F)c([H])c7F)c([H])c6[H])c(C(=O)N([H])[H])c5N([H])[H])C4([H])[H])c([H])c3[H])c([H])c([H])c2C1([H])[H]

>  <smiles>  (62) 
[H]c1c([H])c([H])c2c(c1[H])C([H])([H])C([H])([H])C([H])([H])C2([H])N([H])C(=O)C1([H])N(C(=O)C([H])(N([H])C(=O)C([H])(N([H])C([H])([H])[H])C([H])([H])[H])C(C([H])([H])[H])(C([H])([H])[H])C([H])([H])[H])C([H])([H])c2c([H])c(OC([H])([H])C(=O)N([H])C(=O)c3c([H])c([H])c(N([H])C(=O)N4C([H])([H])C([H])([H])C([H])([H])C([H])(n5nc(-c6c([H])c([H])c(Oc7c([H])c([H])c(F)c([H])c7F)c([H])c6[H])c(C(=O)N([H])[H])c5N([H])[H])C4([H])[H])c([H])c3[H])c([H])c([H])c2C1([H])[H]

$$$$
62:0:0
     RDKit          3D

 94103  0  0  1  0  0  0  0  0999 V2000
  -30.7060  -19.4240   20.9030 C   0  0  0  0  0  3  0  0  0  0  0  0
  -30.1640  -20.7190   21.0340 C   0  0  0  0  0  3  0  0  0  0  0  0
  -28.0180  -19.8780   20.3950 C   0  0  0  0  0  3  0  0  0  0  0  0
  -29.9240  -18.3150   20.4980 C   0  0  0  0  0  0  0  0  0  0  0  0
  -28.8060  -21.0050   20.7650 C   0  0  0  0  0  0  0  0  0  0  0  0
  -28.5490  -18.5590   20.2610 C   0  0  0  0  0  0  0  0  0  0  0  0
  -27.7340  -17.5450   19.8730 F   0  0  0  0  0  0  0  0  0  0  0  0
  -30.7920  -14.5970   20.2910 C   0  0  0  0  0  0  0  0  0  0  0  0
  -30.4370  -12.3670   19.3140 C   0  0  0  0  0  2  0  0  0  0  0  0
  -29.5300  -12.5070   18.0760 C   0  0  0  0  0  2  0  0  0  0  0  0
  -28.0510  -12.3940   18.4890 C   0  0  0  0  0  2  0  0  0  0  0  0
  -27.6920  -13.2900   19.7070 C   0  0  0  0  0  3  0  0  0  0  0  0
  -28.7420  -13.1910   20.8390 C   0  0  0  0  0  2  0  0  0  0  0  0
  -30.0620  -13.4420   20.2530 N   0  0  0  0  0  0  0  0  0  0  0  0
  -31.9830  -14.5610   19.9760 O   0  0  0  0  0  0  0  0  0  0  0  0
  -30.6460  -17.0160   20.1640 C   0  0  0  0  0  0  0  0  0  0  0  0
  -30.1340  -15.7820   20.4730 N   0  0  0  0  0  0  0  0  0  0  0  0
  -31.7430  -17.1750   19.6110 O   0  0  0  0  0  0  0  0  0  0  0  0
  -29.1850  -15.7570   20.8120 H   0  0  0  0  0  0  0  0  0  0  0  0
  -25.2960  -13.8960   20.4090 C   0  0  0  0  0  0  0  0  0  0  0  0
  -24.2280  -13.1270   20.7810 C   0  0  0  0  0  0  0  0  0  0  0  0
  -24.6910  -11.7760   20.7760 C   0  0  0  0  0  0  0  0  0  0  0  0
  -26.3430  -13.0140   20.1950 N   0  0  0  0  0  0  0  0  0  0  0  0
  -25.9860  -11.7350   20.4800 N   0  0  0  0  0  0  0  0  0  0  0  0
  -23.9640  -10.5160   20.9800 C   0  0  0  0  0  0  0  0  0  0  0  0
  -24.3970   -9.5570   21.9230 C   0  0  0  0  0  3  0  0  0  0  0  0
  -23.6690   -8.3630   22.1150 C   0  0  0  0  0  3  0  0  0  0  0  0
  -22.4960   -8.1170   21.3630 C   0  0  0  0  0  0  0  0  0  0  0  0
  -22.0820   -9.0640   20.4090 C   0  0  0  0  0  3  0  0  0  0  0  0
  -22.8100  -10.2500   20.2160 C   0  0  0  0  0  3  0  0  0  0  0  0
  -21.7400   -6.9750   21.4640 O   0  0  0  0  0  0  0  0  0  0  0  0
  -21.6980   -6.2390   22.6190 C   0  0  0  0  0  0  0  0  0  0  0  0
  -21.2780   -6.8000   23.8450 C   0  0  0  0  0  3  0  0  0  0  0  0
  -21.1820   -5.9890   24.9950 C   0  0  0  0  0  3  0  0  0  0  0  0
  -21.4980   -4.6200   24.9200 C   0  0  0  0  0  0  0  0  0  0  0  0
  -21.9110   -4.0580   23.6990 C   0  0  0  0  0  3  0  0  0  0  0  0
  -22.0070   -4.8650   22.5520 C   0  0  0  0  0  0  0  0  0  0  0  0
  -22.3830   -4.3130   21.3730 F   0  0  0  0  0  0  0  0  0  0  0  0
  -21.3990   -3.8390   26.0220 F   0  0  0  0  0  0  0  0  0  0  0  0
  -22.8290  -13.6080   21.0340 C   0  0  0  0  0  0  0  0  0  0  0  0
  -22.0960  -12.9270   21.9080 N   0  0  0  0  0  0  0  0  0  0  0  0
  -22.3940  -14.6220   20.4900 O   0  0  0  0  0  0  0  0  0  0  0  0
  -22.4630  -12.1120   22.3750 H   0  0  0  0  0  0  0  0  0  0  0  0
  -21.1560  -13.2310   22.1190 H   0  0  0  0  0  0  0  0  0  0  0  0
  -25.4600  -15.2650   20.2150 N   0  0  0  0  0  0  0  0  0  0  0  0
  -24.6920  -15.9170   20.3400 H   0  0  0  0  0  0  0  0  0  0  0  0
  -26.3210  -15.7260   19.9420 H   0  0  0  0  0  0  0  0  0  0  0  0
  -28.4920  -24.3490   20.8050 C   0  0  0  0  0  0  0  0  0  0  0  0
  -28.5950  -23.3520   21.8350 C   0  0  0  0  0  0  0  0  0  0  0  0
  -28.5340  -25.7060   20.9110 C   0  0  0  0  0  3  0  0  0  0  0  0
  -28.3840  -23.2610   19.7480 C   0  0  0  0  0  2  0  0  0  0  0  0
  -28.2920  -22.3420   20.9090 N   0  0  0  0  0  0  0  0  0  0  0  0
  -28.9780  -23.4180   22.9870 O   0  0  0  0  0  0  0  0  0  0  0  0
  -28.4680  -26.6390   19.8940 O   0  0  0  0  0  0  0  0  0  0  0  0
  -24.6010  -31.7850   23.0580 C   0  0  0  0  0  0  0  0  0  0  0  0
  -27.3420  -27.4360   19.9050 C   0  0  0  0  0  0  0  0  0  0  0  0
  -23.4400  -30.3990   21.3730 C   0  0  0  0  0  3  0  0  0  0  0  0
  -24.9360  -28.9250   19.9230 C   0  0  0  0  0  0  0  0  0  0  0  0
  -25.9660  -30.7990   21.2180 C   0  0  0  0  0  2  0  0  0  0  0  0
  -26.0830  -29.4460   20.5400 C   0  0  0  0  0  0  0  0  0  0  0  0
  -27.2940  -28.7070   20.5320 C   0  0  0  0  0  3  0  0  0  0  0  0
  -26.1860  -26.9390   19.2760 C   0  0  0  0  0  3  0  0  0  0  0  0
  -24.9850  -27.6720   19.2880 C   0  0  0  0  0  3  0  0  0  0  0  0
  -23.6760  -29.7600   19.9800 C   0  0  0  0  0  2  0  0  0  0  0  0
  -24.6850  -31.0080   21.9400 N   0  0  0  0  0  0  0  0  0  0  0  0
  -23.5090  -32.0260   23.5920 O   0  0  0  0  0  0  0  0  0  0  0  0
  -22.7980  -29.3440   22.3020 C   0  0  0  0  0  0  0  0  0  0  0  0
  -21.4740  -29.1580   22.1750 N   0  0  0  0  0  0  0  0  0  0  0  0
  -23.4890  -28.6930   23.0900 O   0  0  0  0  0  0  0  0  0  0  0  0
  -20.9760  -29.7340   21.5110 H   0  0  0  0  0  0  0  0  0  0  0  0
  -18.1030  -27.9610   22.6830 C   0  0  0  0  0  0  0  0  0  0  0  0
  -20.6660  -28.1920   22.9200 C   0  0  0  0  0  3  0  0  0  0  0  0
  -20.7490  -26.7870   22.2800 C   0  0  0  0  0  2  0  0  0  0  0  0
  -19.6280  -26.5160   21.2710 C   0  0  0  0  0  2  0  0  0  0  0  0
  -18.2590  -26.6410   21.9470 C   0  0  0  0  0  2  0  0  0  0  0  0
  -19.2340  -28.6960   23.1260 C   0  0  0  0  0  0  0  0  0  0  0  0
  -19.0340  -29.9350   23.7740 C   0  0  0  0  0  3  0  0  0  0  0  0
  -17.7350  -30.4350   23.9870 C   0  0  0  0  0  3  0  0  0  0  0  0
  -16.6190  -29.6960   23.5600 C   0  0  0  0  0  3  0  0  0  0  0  0
  -16.8050  -28.4600   22.9140 C   0  0  0  0  0  3  0  0  0  0  0  0
  -25.8700  -32.4260   23.7050 C   0  0  0  0  0  3  0  0  0  0  0  0
  -25.5300  -33.8060   24.0710 N   0  0  0  0  0  0  0  0  0  0  0  0
  -25.8450  -34.8870   23.3440 C   0  0  0  0  0  0  0  0  0  0  0  0
  -26.5230  -34.8260   22.3140 O   0  0  0  0  0  0  0  0  0  0  0  0
  -24.9240  -33.9260   24.8710 H   0  0  0  0  0  0  0  0  0  0  0  0
  -24.0820  -36.6510   23.0200 C   0  0  0  0  0  1  0  0  0  0  0  0
  -25.3220  -36.2500   23.8350 C   0  0  0  0  0  3  0  0  0  0  0  0
  -27.4310  -37.1510   24.7140 C   0  0  0  0  0  1  0  0  0  0  0  0
  -26.3310  -37.3300   23.7690 N   0  0  0  0  0  0  0  0  0  0  0  0
  -25.9010  -38.2320   23.9520 H   0  0  0  0  0  0  0  0  0  0  0  0
  -26.3940  -31.6300   24.9620 C   0  0  1  0  0  0  0  0  0  0  0  0
  -25.3010  -31.3480   26.0200 C   0  0  0  0  0  1  0  0  0  0  0  0
  -27.0020  -30.2720   24.5380 C   0  0  0  0  0  1  0  0  0  0  0  0
  -27.5260  -32.4280   25.6510 C   0  0  0  0  0  1  0  0  0  0  0  0
  1  2  1  0
  3  5  1  0
  4  1  2  0
  5 52  1  0
  5  2  2  0
  6  3  2  0
  6  4  1  0
  7  6  1  0
  8 17  1  0
  9 14  1  0
 10 11  1  0
 10  9  1  0
 12 11  1  0
 12 23  1  0
 12 13  1  0
 14  8  1  0
 14 13  1  0
 15  8  2  0
 16 17  1  0
 16  4  1  0
 17 19  1  0
 18 16  2  0
 20 21  2  0
 21 40  1  0
 22 21  1  0
 22 25  1  0
 23 20  1  0
 23 24  1  0
 24 22  2  0
 25 26  1  0
 26 27  2  0
 28 31  1  0
 28 27  1  0
 29 28  2  0
 30 29  1  0
 30 25  2  0
 31 32  1  0
 32 33  1  0
 33 34  2  0
 35 34  1  0
 35 39  1  0
 36 35  2  0
 37 32  2  0
 37 36  1  0
 38 37  1  0
 40 41  1  0
 41 44  1  0
 41 43  1  0
 42 40  2  0
 45 46  1  0
 45 20  1  0
 47 45  1  0
 48 50  2  0
 48 49  1  0
 49 53  2  0
 51 48  1  0
 51 52  1  0
 52 49  1  0
 54 56  1  0
 54 50  1  0
 55 66  2  0
 56 61  1  0
 57 65  1  0
 57 67  1  0
 58 64  1  0
 58 60  1  0
 59 65  1  0
 60 59  1  0
 61 60  2  0
 62 63  1  0
 62 56  2  0
 63 58  2  0
 64 57  1  0
 65 55  1  0
 67 69  2  0
 68 67  1  0
 70 68  1  0
 71 80  2  0
 71 76  1  0
 72 68  1  0
 72 76  1  0
 73 72  1  0
 74 75  1  0
 74 73  1  0
 75 71  1  0
 76 77  2  0
 77 78  1  0
 79 78  2  0
 80 79  1  0
 81 55  1  0
 81 82  1  0
 81 91  1  0
 82 85  1  0
 83 87  1  0
 83 82  1  0
 84 83  2  0
 87 86  1  0
 89 87  1  0
 89 90  1  0
 89 88  1  0
 91 94  1  1
 91 92  1  0
 93 91  1  0
M  ISO  4   8 100  17 100  50 101  54 101
M  END
>  <TORSDO>  (63) 
F 17

>  <SCORE>  (63) 
-15.176

>  <name>  (63) 
62

>  <ligand_id>  (63) 
62

>  <original_smiles>  (63) 
[H]C(Oc1c([H])c([H])c2c(c1[H])C([H])([H])N(C(=O)C([H])(N([H])C(=O)C([H])(N([H])C([H])([H])[H])C([H])([H])[H])C(C([H])([H])[H])(C([H])([H])[H])C([H])([H])[H])C([H])(C(=O)N([H])C1([H])c3c([H])c([H])c([H])c([H])c3C([H])([H])C([H])([H])C1([H])[H])C2([H])[H])=C1C(=O)N(c2c([H])c([H])c(C(=O)N([H])C(=O)N3C([H])([H])C([H])([H])C([H])([H])C([H])(n4nc(-c5c([H])c([H])c(Oc6c([H])c([H])c(F)c([H])c6F)c([H])c5[H])c(C(=O)N([H])[H])c4N([H])[H])C3([H])[H])c(F)c2[H])C1([H])[H]

>  <smiles>  (63) 
[H]C(Oc1c([H])c([H])c2c(c1[H])C([H])([H])N(C(=O)C([H])(N([H])C(=O)C([H])(N([H])C([H])([H])[H])C([H])([H])[H])C(C([H])([H])[H])(C([H])([H])[H])C([H])([H])[H])C([H])(C(=O)N([H])C1([H])c3c([H])c([H])c([H])c([H])c3C([H])([H])C([H])([H])C1([H])[H])C2([H])[H])=C1C(=O)N(c2c([H])c([H])c(C(=O)N([H])C(=O)N3C([H])([H])C([H])([H])C([H])([H])C([H])(n4nc(-c5c([H])c([H])c(Oc6c([H])c([H])c(F)c([H])c6F)c([H])c5[H])c(C(=O)N([H])[H])c4N([H])[H])C3([H])[H])c(F)c2[H])C1([H])[H]

$$$$
63:0:0
     RDKit          3D

 93102  0  0  1  0  0  0  0  0999 V2000
  -28.4400  -24.2450   20.7050 C   0  0  0  0  0  0  0  0  0  0  0  0
  -28.1530  -23.0770   21.5060 C   0  0  0  0  0  0  0  0  0  0  0  0
  -28.1920  -25.5550   20.9630 C   0  0  0  0  0  3  0  0  0  0  0  0
  -29.0660  -23.3840   19.6260 C   0  0  0  0  0  2  0  0  0  0  0  0
  -28.5930  -22.2560   20.4640 N   0  0  0  0  0  0  0  0  0  0  0  0
  -27.8090  -22.9520   22.6630 O   0  0  0  0  0  0  0  0  0  0  0  0
  -31.0580  -19.3770   20.0640 C   0  0  0  0  0  3  0  0  0  0  0  0
  -28.9450  -18.4530   20.7730 C   0  0  0  0  0  3  0  0  0  0  0  0
  -30.4960  -20.6730   20.0340 C   0  0  0  0  0  3  0  0  0  0  0  0
  -28.4010  -19.7690   20.7690 C   0  0  0  0  0  3  0  0  0  0  0  0
  -30.3010  -18.2390   20.4310 C   0  0  0  0  0  0  0  0  0  0  0  0
  -29.1520  -20.9280   20.4100 C   0  0  0  0  0  0  0  0  0  0  0  0
  -30.9900  -14.6140   19.8070 C   0  0  0  0  0  0  0  0  0  0  0  0
  -30.5540  -12.4320   18.7180 C   0  0  0  0  0  2  0  0  0  0  0  0
  -29.5200  -12.5900   17.5880 C   0  0  0  0  0  2  0  0  0  0  0  0
  -28.0900  -12.4520   18.1450 C   0  0  0  0  0  2  0  0  0  0  0  0
  -27.8520  -13.3150   19.4140 C   0  0  0  0  0  3  0  0  0  0  0  0
  -29.0030  -13.1650   20.4330 C   0  0  0  0  0  2  0  0  0  0  0  0
  -30.2580  -13.4650   19.7310 N   0  0  0  0  0  0  0  0  0  0  0  0
  -32.1010  -14.6720   19.2720 O   0  0  0  0  0  0  0  0  0  0  0  0
  -31.0230  -16.9050   20.5610 C   0  0  0  0  0  0  0  0  0  0  0  0
  -30.3850  -15.7300   20.3060 N   0  0  0  0  0  0  0  0  0  0  0  0
  -32.2270  -16.9640   20.8480 O   0  0  0  0  0  0  0  0  0  0  0  0
  -29.3820  -15.7180   20.3890 H   0  0  0  0  0  0  0  0  0  0  0  0
  -25.5620  -13.9170   20.4100 C   0  0  0  0  0  0  0  0  0  0  0  0
  -24.5220  -13.1450   20.8490 C   0  0  0  0  0  0  0  0  0  0  0  0
  -24.9450  -11.7870   20.7020 C   0  0  0  0  0  0  0  0  0  0  0  0
  -26.5550  -13.0320   20.0220 N   0  0  0  0  0  0  0  0  0  0  0  0
  -26.1950  -11.7430   20.2550 N   0  0  0  0  0  0  0  0  0  0  0  0
  -24.2130  -10.5300   20.9000 C   0  0  0  0  0  0  0  0  0  0  0  0
  -24.6470   -9.5570   21.8270 C   0  0  0  0  0  3  0  0  0  0  0  0
  -23.9120   -8.3680   22.0150 C   0  0  0  0  0  3  0  0  0  0  0  0
  -22.7280   -8.1410   21.2740 C   0  0  0  0  0  0  0  0  0  0  0  0
  -22.3120   -9.1010   20.3350 C   0  0  0  0  0  3  0  0  0  0  0  0
  -23.0480  -10.2820   20.1460 C   0  0  0  0  0  3  0  0  0  0  0  0
  -21.9660   -7.0020   21.3710 O   0  0  0  0  0  0  0  0  0  0  0  0
  -21.8310   -6.3230   22.5540 C   0  0  0  0  0  0  0  0  0  0  0  0
  -21.3210   -6.9420   23.7160 C   0  0  0  0  0  3  0  0  0  0  0  0
  -21.1340   -6.1880   24.8920 C   0  0  0  0  0  3  0  0  0  0  0  0
  -21.4490   -4.8170   24.9060 C   0  0  0  0  0  0  0  0  0  0  0  0
  -21.9540   -4.1970   23.7500 C   0  0  0  0  0  3  0  0  0  0  0  0
  -22.1400   -4.9480   22.5750 C   0  0  0  0  0  0  0  0  0  0  0  0
  -22.6060   -4.3410   21.4570 F   0  0  0  0  0  0  0  0  0  0  0  0
  -21.2630   -4.0900   26.0330 F   0  0  0  0  0  0  0  0  0  0  0  0
  -23.1720  -13.6310   21.2930 C   0  0  0  0  0  0  0  0  0  0  0  0
  -22.5230  -12.9040   22.1950 N   0  0  0  0  0  0  0  0  0  0  0  0
  -22.7050  -14.6880   20.8700 O   0  0  0  0  0  0  0  0  0  0  0  0
  -22.9140  -12.0500   22.5620 H   0  0  0  0  0  0  0  0  0  0  0  0
  -21.6190  -13.2090   22.5250 H   0  0  0  0  0  0  0  0  0  0  0  0
  -25.7390  -15.2920   20.2880 N   0  0  0  0  0  0  0  0  0  0  0  0
  -24.9960  -15.9510   20.5000 H   0  0  0  0  0  0  0  0  0  0  0  0
  -26.5460  -15.7390   19.8740 H   0  0  0  0  0  0  0  0  0  0  0  0
  -28.4350  -26.6520   20.1450 O   0  0  0  0  0  0  0  0  0  0  0  0
  -24.6580  -31.8800   23.1850 C   0  0  0  0  0  0  0  0  0  0  0  0
  -27.3500  -27.5010   20.0560 C   0  0  0  0  0  0  0  0  0  0  0  0
  -23.4800  -30.5030   21.5060 C   0  0  0  0  0  3  0  0  0  0  0  0
  -24.9620  -29.0160   20.0500 C   0  0  0  0  0  0  0  0  0  0  0  0
  -26.0060  -30.8860   21.3390 C   0  0  0  0  0  2  0  0  0  0  0  0
  -26.1140  -29.5300   20.6630 C   0  0  0  0  0  0  0  0  0  0  0  0
  -27.3170  -28.7820   20.6620 C   0  0  0  0  0  3  0  0  0  0  0  0
  -26.1900  -27.0170   19.4180 C   0  0  0  0  0  3  0  0  0  0  0  0
  -24.9990  -27.7630   19.4170 C   0  0  0  0  0  3  0  0  0  0  0  0
  -23.7070  -29.8590   20.1120 C   0  0  0  0  0  2  0  0  0  0  0  0
  -24.7320  -31.1030   22.0680 N   0  0  0  0  0  0  0  0  0  0  0  0
  -23.5690  -32.1320   23.7190 O   0  0  0  0  0  0  0  0  0  0  0  0
  -22.8300  -29.4530   22.4360 C   0  0  0  0  0  0  0  0  0  0  0  0
  -21.5080  -29.2570   22.2930 N   0  0  0  0  0  0  0  0  0  0  0  0
  -23.5140  -28.8180   23.2450 O   0  0  0  0  0  0  0  0  0  0  0  0
  -21.0180  -29.8230   21.6150 H   0  0  0  0  0  0  0  0  0  0  0  0
  -18.1490  -28.0010   22.7110 C   0  0  0  0  0  0  0  0  0  0  0  0
  -20.6950  -28.2960   23.0370 C   0  0  0  0  0  3  0  0  0  0  0  0
  -20.8320  -26.8750   22.4440 C   0  0  0  0  0  2  0  0  0  0  0  0
  -19.7550  -26.5470   21.4050 C   0  0  0  0  0  2  0  0  0  0  0  0
  -18.3590  -26.6630   22.0240 C   0  0  0  0  0  2  0  0  0  0  0  0
  -19.2460  -28.7750   23.1740 C   0  0  0  0  0  0  0  0  0  0  0  0
  -18.9940  -30.0280   23.7750 C   0  0  0  0  0  3  0  0  0  0  0  0
  -17.6780  -30.5050   23.9200 C   0  0  0  0  0  3  0  0  0  0  0  0
  -16.5950  -29.7270   23.4750 C   0  0  0  0  0  3  0  0  0  0  0  0
  -16.8310  -28.4760   22.8760 C   0  0  0  0  0  3  0  0  0  0  0  0
  -25.9330  -32.5100   23.8280 C   0  0  0  0  0  3  0  0  0  0  0  0
  -25.6110  -33.9010   24.1700 N   0  0  0  0  0  0  0  0  0  0  0  0
  -25.9380  -34.9630   23.4200 C   0  0  0  0  0  0  0  0  0  0  0  0
  -26.6100  -34.8740   22.3900 O   0  0  0  0  0  0  0  0  0  0  0  0
  -25.0130  -34.0440   24.9690 H   0  0  0  0  0  0  0  0  0  0  0  0
  -24.1920  -36.7400   23.0810 C   0  0  0  0  0  1  0  0  0  0  0  0
  -25.4380  -36.3420   23.8880 C   0  0  0  0  0  3  0  0  0  0  0  0
  -27.5650  -37.2440   24.7220 C   0  0  0  0  0  1  0  0  0  0  0  0
  -26.4600  -37.4060   23.7810 N   0  0  0  0  0  0  0  0  0  0  0  0
  -26.0450  -38.3210   23.9340 H   0  0  0  0  0  0  0  0  0  0  0  0
  -26.4370  -31.7250   25.1000 C   0  0  1  0  0  0  0  0  0  0  0  0
  -25.3320  -31.4720   26.1500 C   0  0  0  0  0  1  0  0  0  0  0  0
  -27.0310  -30.3530   24.6970 C   0  0  0  0  0  1  0  0  0  0  0  0
  -27.5750  -32.5160   25.7860 C   0  0  0  0  0  1  0  0  0  0  0  0
  1  3  2  0
  1  2  1  0
  2  6  2  0
  4  5  1  0
  4  1  1  0
  5  2  1  0
  7 11  1  0
  9  7  2  0
  9 12  1  0
 10  8  1  0
 11 21  1  0
 11  8  2  0
 12  5  1  0
 12 10  2  0
 13 22  1  0
 14 19  1  0
 15 16  1  0
 15 14  1  0
 17 16  1  0
 17 28  1  0
 17 18  1  0
 19 13  1  0
 19 18  1  0
 20 13  2  0
 21 23  2  0
 22 24  1  0
 22 21  1  0
 25 26  2  0
 26 45  1  0
 27 26  1  0
 27 30  1  0
 28 29  1  0
 28 25  1  0
 29 27  2  0
 30 31  1  0
 31 32  2  0
 33 36  1  0
 33 32  1  0
 34 33  2  0
 35 34  1  0
 35 30  2  0
 36 37  1  0
 37 42  2  0
 37 38  1  0
 38 39  2  0
 39 40  1  0
 40 44  1  0
 41 40  2  0
 42 41  1  0
 43 42  1  0
 45 46  1  0
 46 49  1  0
 46 48  1  0
 47 45  2  0
 50 25  1  0
 50 51  1  0
 52 50  1  0
 53  3  1  0
 54 65  2  0
 55 53  1  0
 55 60  1  0
 56 64  1  0
 56 66  1  0
 57 63  1  0
 57 59  1  0
 58 64  1  0
 59 58  1  0
 60 59  2  0
 61 55  2  0
 62 61  1  0
 62 57  2  0
 63 56  1  0
 64 54  1  0
 66 68  2  0
 67 66  1  0
 69 67  1  0
 70 79  2  0
 70 75  1  0
 71 67  1  0
 71 75  1  0
 72 71  1  0
 73 74  1  0
 73 72  1  0
 74 70  1  0
 75 76  2  0
 76 77  1  0
 78 77  2  0
 79 78  1  0
 80 54  1  0
 80 81  1  0
 80 90  1  0
 81 84  1  0
 82 86  1  0
 82 81  1  0
 83 82  2  0
 86 85  1  0
 88 86  1  0
 88 89  1  0
 88 87  1  0
 90 93  1  1
 90 91  1  0
 92 90  1  0
M  ISO  4   3 101  13 100  22 100  53 101
M  END
>  <TORSDO>  (64) 
F 17

>  <SCORE>  (64) 
-14.036

>  <name>  (64) 
63

>  <ligand_id>  (64) 
63

>  <original_smiles>  (64) 
[H]C(Oc1c([H])c([H])c2c(c1[H])C([H])([H])N(C(=O)C([H])(N([H])C(=O)C([H])(N([H])C([H])([H])[H])C([H])([H])[H])C(C([H])([H])[H])(C([H])([H])[H])C([H])([H])[H])C([H])(C(=O)N([H])C1([H])c3c([H])c([H])c([H])c([H])c3C([H])([H])C([H])([H])C1([H])[H])C2([H])[H])=C1C(=O)N(c2c([H])c([H])c(C(=O)N([H])C(=O)N3C([H])([H])C([H])([H])C([H])([H])C([H])(n4nc(-c5c([H])c([H])c(Oc6c([H])c([H])c(F)c([H])c6F)c([H])c5[H])c(C(=O)N([H])[H])c4N([H])[H])C3([H])[H])c([H])c2[H])C1([H])[H]

>  <smiles>  (64) 
[H]C(Oc1c([H])c([H])c2c(c1[H])C([H])([H])N(C(=O)C([H])(N([H])C(=O)C([H])(N([H])C([H])([H])[H])C([H])([H])[H])C(C([H])([H])[H])(C([H])([H])[H])C([H])([H])[H])C([H])(C(=O)N([H])C1([H])c3c([H])c([H])c([H])c([H])c3C([H])([H])C([H])([H])C1([H])[H])C2([H])[H])=C1C(=O)N(c2c([H])c([H])c(C(=O)N([H])C(=O)N3C([H])([H])C([H])([H])C([H])([H])C([H])(n4nc(-c5c([H])c([H])c(Oc6c([H])c([H])c(F)c([H])c6F)c([H])c5[H])c(C(=O)N([H])[H])c4N([H])[H])C3([H])[H])c([H])c2[H])C1([H])[H]

$$$$
64:0:0
     RDKit          3D

 93102  0  0  1  0  0  0  0  0999 V2000
  -30.2590  -23.8130   20.5240 C   0  0  0  0  0  3  0  0  0  0  0  0
  -28.9950  -23.8230   20.1020 C   0  0  0  0  0  0  0  0  0  0  0  0
  -30.7100  -22.4360   20.6540 C   0  0  0  0  0  0  0  0  0  0  0  0
  -28.6140  -22.4060   19.9630 C   0  0  0  0  0  0  0  0  0  0  0  0
  -29.6850  -21.6220   20.2990 N   0  0  0  0  0  0  0  0  0  0  0  0
  -31.8300  -22.0700   21.0320 O   0  0  0  0  0  0  0  0  0  0  0  0
  -27.5150  -21.9780   19.5860 O   0  0  0  0  0  0  0  0  0  0  0  0
  -30.8790  -19.3910   19.8700 C   0  0  0  0  0  3  0  0  0  0  0  0
  -28.6750  -19.3370   20.8130 C   0  0  0  0  0  3  0  0  0  0  0  0
  -30.9500  -17.9600   19.9240 C   0  0  0  0  0  3  0  0  0  0  0  0
  -28.7470  -17.9130   20.8720 C   0  0  0  0  0  3  0  0  0  0  0  0
  -29.7430  -20.1360   20.3170 C   0  0  0  0  0  0  0  0  0  0  0  0
  -29.8820  -17.1760   20.4360 C   0  0  0  0  0  0  0  0  0  0  0  0
  -30.6140  -14.6920   20.0390 C   0  0  0  0  0  0  0  0  0  0  0  0
  -30.3510  -12.4820   18.9210 C   0  0  0  0  0  2  0  0  0  0  0  0
  -29.3360  -12.6440   17.7650 C   0  0  0  0  0  2  0  0  0  0  0  0
  -27.8880  -12.4780   18.2690 C   0  0  0  0  0  2  0  0  0  0  0  0
  -27.6040  -13.3030   19.5530 C   0  0  0  0  0  3  0  0  0  0  0  0
  -28.7220  -13.1020   20.6010 C   0  0  0  0  0  2  0  0  0  0  0  0
  -30.0010  -13.4660   19.9670 N   0  0  0  0  0  0  0  0  0  0  0  0
  -31.7400  -14.8720   19.5650 O   0  0  0  0  0  0  0  0  0  0  0  0
  -29.8390  -15.7110   20.5320 N   0  0  0  0  0  0  0  0  0  0  0  0
  -28.9930  -15.3570   20.9500 H   0  0  0  0  0  0  0  0  0  0  0  0
  -25.2550  -13.8930   20.4110 C   0  0  0  0  0  0  0  0  0  0  0  0
  -24.2050  -13.1150   20.8200 C   0  0  0  0  0  0  0  0  0  0  0  0
  -24.6600  -11.7630   20.7350 C   0  0  0  0  0  0  0  0  0  0  0  0
  -26.2820  -13.0150   20.1010 N   0  0  0  0  0  0  0  0  0  0  0  0
  -25.9310  -11.7280   20.3550 N   0  0  0  0  0  0  0  0  0  0  0  0
  -23.9410  -10.4990   20.9340 C   0  0  0  0  0  0  0  0  0  0  0  0
  -24.3850   -9.5360   21.8660 C   0  0  0  0  0  3  0  0  0  0  0  0
  -23.6650   -8.3370   22.0540 C   0  0  0  0  0  3  0  0  0  0  0  0
  -22.4870   -8.0910   21.3090 C   0  0  0  0  0  0  0  0  0  0  0  0
  -22.0620   -9.0430   20.3660 C   0  0  0  0  0  3  0  0  0  0  0  0
  -22.7830  -10.2340   20.1760 C   0  0  0  0  0  3  0  0  0  0  0  0
  -21.7380   -6.9440   21.4070 O   0  0  0  0  0  0  0  0  0  0  0  0
  -21.6530   -6.2370   22.5810 C   0  0  0  0  0  0  0  0  0  0  0  0
  -21.1710   -6.8230   23.7710 C   0  0  0  0  0  3  0  0  0  0  0  0
  -21.0360   -6.0420   24.9350 C   0  0  0  0  0  3  0  0  0  0  0  0
  -21.3710   -4.6750   24.9100 C   0  0  0  0  0  0  0  0  0  0  0  0
  -21.8460   -4.0880   23.7230 C   0  0  0  0  0  3  0  0  0  0  0  0
  -21.9830   -4.8670   22.5620 C   0  0  0  0  0  0  0  0  0  0  0  0
  -22.4210   -4.2920   21.4150 F   0  0  0  0  0  0  0  0  0  0  0  0
  -21.2340   -3.9220   26.0250 F   0  0  0  0  0  0  0  0  0  0  0  0
  -22.8260  -13.5900   21.1790 C   0  0  0  0  0  0  0  0  0  0  0  0
  -22.1450  -12.8800   22.0710 N   0  0  0  0  0  0  0  0  0  0  0  0
  -22.3630  -14.6260   20.7030 O   0  0  0  0  0  0  0  0  0  0  0  0
  -22.5330  -12.0420   22.4800 H   0  0  0  0  0  0  0  0  0  0  0  0
  -21.2220  -13.1800   22.3510 H   0  0  0  0  0  0  0  0  0  0  0  0
  -25.4150  -15.2680   20.2560 N   0  0  0  0  0  0  0  0  0  0  0  0
  -24.6530  -15.9190   20.4140 H   0  0  0  0  0  0  0  0  0  0  0  0
  -26.2410  -15.7130   19.8770 H   0  0  0  0  0  0  0  0  0  0  0  0
  -28.0460  -25.0200   19.7410 C   0  0  0  0  0  2  0  0  0  0  0  0
  -28.3510  -26.4440   20.0610 O   0  0  0  0  0  0  0  0  0  0  0  0
  -24.6160  -31.8090   23.1910 C   0  0  0  0  0  0  0  0  0  0  0  0
  -27.2510  -27.3320   20.0150 C   0  0  0  0  0  0  0  0  0  0  0  0
  -23.4220  -30.4480   21.5170 C   0  0  0  0  0  3  0  0  0  0  0  0
  -24.8820  -28.9520   20.0480 C   0  0  0  0  0  0  0  0  0  0  0  0
  -25.9640  -30.7790   21.3470 C   0  0  0  0  0  2  0  0  0  0  0  0
  -26.0510  -29.4200   20.6630 C   0  0  0  0  0  0  0  0  0  0  0  0
  -27.2380  -28.6210   20.6410 C   0  0  0  0  0  3  0  0  0  0  0  0
  -26.0540  -26.9420   19.3600 C   0  0  0  0  0  3  0  0  0  0  0  0
  -24.8870  -27.7200   19.3870 C   0  0  0  0  0  3  0  0  0  0  0  0
  -23.6420  -29.8180   20.1170 C   0  0  0  0  0  2  0  0  0  0  0  0
  -24.6870  -31.0270   22.0750 N   0  0  0  0  0  0  0  0  0  0  0  0
  -23.5300  -32.0650   23.7320 O   0  0  0  0  0  0  0  0  0  0  0  0
  -22.7660  -29.3980   22.4480 C   0  0  0  0  0  0  0  0  0  0  0  0
  -21.4410  -29.2140   22.3160 N   0  0  0  0  0  0  0  0  0  0  0  0
  -23.4500  -28.7570   23.2500 O   0  0  0  0  0  0  0  0  0  0  0  0
  -20.9480  -29.7850   21.6430 H   0  0  0  0  0  0  0  0  0  0  0  0
  -18.0700  -27.9960   22.8070 C   0  0  0  0  0  0  0  0  0  0  0  0
  -20.6290  -28.2530   23.0660 C   0  0  0  0  0  3  0  0  0  0  0  0
  -20.7300  -26.8380   22.4510 C   0  0  0  0  0  2  0  0  0  0  0  0
  -19.6230  -26.5400   21.4370 C   0  0  0  0  0  2  0  0  0  0  0  0
  -18.2450  -26.6670   22.0920 C   0  0  0  0  0  2  0  0  0  0  0  0
  -19.1900  -28.7470   23.2510 C   0  0  0  0  0  0  0  0  0  0  0  0
  -18.9720  -29.9930   23.8810 C   0  0  0  0  0  3  0  0  0  0  0  0
  -17.6670  -30.4860   24.0690 C   0  0  0  0  0  3  0  0  0  0  0  0
  -16.5620  -29.7310   23.6400 C   0  0  0  0  0  3  0  0  0  0  0  0
  -16.7640  -28.4880   23.0150 C   0  0  0  0  0  3  0  0  0  0  0  0
  -25.8960  -32.4350   23.8260 C   0  0  0  0  0  3  0  0  0  0  0  0
  -25.5810  -33.8270   24.1790 N   0  0  0  0  0  0  0  0  0  0  0  0
  -25.8870  -34.8910   23.4260 C   0  0  0  0  0  0  0  0  0  0  0  0
  -26.5380  -34.8060   22.3810 O   0  0  0  0  0  0  0  0  0  0  0  0
  -25.0050  -33.9670   24.9970 H   0  0  0  0  0  0  0  0  0  0  0  0
  -24.1270  -36.6630   23.1370 C   0  0  0  0  0  1  0  0  0  0  0  0
  -25.3960  -36.2700   23.9080 C   0  0  0  0  0  3  0  0  0  0  0  0
  -27.5420  -37.1770   24.6860 C   0  0  0  0  0  1  0  0  0  0  0  0
  -26.4120  -37.3370   23.7740 N   0  0  0  0  0  0  0  0  0  0  0  0
  -25.9970  -38.2500   23.9410 H   0  0  0  0  0  0  0  0  0  0  0  0
  -26.4090  -31.6440   25.0900 C   0  0  1  0  0  0  0  0  0  0  0  0
  -25.3120  -31.3840   26.1500 C   0  0  0  0  0  1  0  0  0  0  0  0
  -26.9990  -30.2750   24.6790 C   0  0  0  0  0  1  0  0  0  0  0  0
  -27.5560  -32.4290   25.7690 C   0  0  0  0  0  1  0  0  0  0  0  0
  1  3  1  0
  2  1  2  0
  3  6  2  0
  4  2  1  0
  4  5  1  0
  5 12  1  0
  5  3  1  0
  7  4  2  0
  8 10  2  0
  8 12  1  0
  9 11  1  0
 10 13  1  0
 12  9  2  0
 13 22  1  0
 13 11  2  0
 14 22  1  0
 15 20  1  0
 16 17  1  0
 16 15  1  0
 18 17  1  0
 18 27  1  0
 18 19  1  0
 20 14  1  0
 20 19  1  0
 21 14  2  0
 22 23  1  0
 24 25  2  0
 25 44  1  0
 26 25  1  0
 26 29  1  0
 27 28  1  0
 27 24  1  0
 28 26  2  0
 29 30  1  0
 30 31  2  0
 32 35  1  0
 32 31  1  0
 33 32  2  0
 34 33  1  0
 34 29  2  0
 35 36  1  0
 36 37  1  0
 37 38  2  0
 39 38  1  0
 39 43  1  0
 40 39  2  0
 41 36  2  0
 41 40  1  0
 42 41  1  0
 44 45  1  0
 45 48  1  0
 45 47  1  0
 46 44  2  0
 49 24  1  0
 49 50  1  0
 51 49  1  0
 52 53  1  0
 52  2  1  0
 54 65  2  0
 55 53  1  0
 55 60  1  0
 56 64  1  0
 56 66  1  0
 57 63  1  0
 57 59  1  0
 58 64  1  0
 59 58  1  0
 60 59  2  0
 61 62  1  0
 61 55  2  0
 62 57  2  0
 63 56  1  0
 64 54  1  0
 66 68  2  0
 67 66  1  0
 69 67  1  0
 70 79  2  0
 70 75  1  0
 71 67  1  0
 71 75  1  0
 72 71  1  0
 73 74  1  0
 73 72  1  0
 74 70  1  0
 75 76  2  0
 76 77  1  0
 78 77  2  0
 79 78  1  0
 80 54  1  0
 80 81  1  0
 80 90  1  0
 81 84  1  0
 82 86  1  0
 82 81  1  0
 83 82  2  0
 86 85  1  0
 88 86  1  0
 88 89  1  0
 88 87  1  0
 90 93  1  1
 90 91  1  0
 92 90  1  0
M  ISO  4  14 100  22 100  52 101  53 101
M  END
>  <TORSDO>  (65) 
F 18

>  <SCORE>  (65) 
-14.456

>  <name>  (65) 
64

>  <ligand_id>  (65) 
64

>  <original_smiles>  (65) 
[H]C1=C(C([H])([H])Oc2c([H])c([H])c3c(c2[H])C([H])([H])N(C(=O)C([H])(N([H])C(=O)C([H])(N([H])C([H])([H])[H])C([H])([H])[H])C(C([H])([H])[H])(C([H])([H])[H])C([H])([H])[H])C([H])(C(=O)N([H])C2([H])c4c([H])c([H])c([H])c([H])c4C([H])([H])C([H])([H])C2([H])[H])C3([H])[H])C(=O)N(c2c([H])c([H])c(N([H])C(=O)N3C([H])([H])C([H])([H])C([H])([H])C([H])(n4nc(-c5c([H])c([H])c(Oc6c([H])c([H])c(F)c([H])c6F)c([H])c5[H])c(C(=O)N([H])[H])c4N([H])[H])C3([H])[H])c([H])c2[H])C1=O

>  <smiles>  (65) 
[H]C1=C(C([H])([H])Oc2c([H])c([H])c3c(c2[H])C([H])([H])N(C(=O)C([H])(N([H])C(=O)C([H])(N([H])C([H])([H])[H])C([H])([H])[H])C(C([H])([H])[H])(C([H])([H])[H])C([H])([H])[H])C([H])(C(=O)N([H])C2([H])c4c([H])c([H])c([H])c([H])c4C([H])([H])C([H])([H])C2([H])[H])C3([H])[H])C(=O)N(c2c([H])c([H])c(N([H])C(=O)N3C([H])([H])C([H])([H])C([H])([H])C([H])(n4nc(-c5c([H])c([H])c(Oc6c([H])c([H])c(F)c([H])c6F)c([H])c5[H])c(C(=O)N([H])[H])c4N([H])[H])C3([H])[H])c([H])c2[H])C1=O

$$$$
65:0:0
     RDKit          3D

 92101  0  0  1  0  0  0  0  0999 V2000
  -28.3530  -23.6410   20.1700 C   0  0  0  0  0  0  0  0  0  0  0  0
  -30.5340  -24.3700   21.8030 C   0  0  0  0  0  2  0  0  0  0  0  0
  -29.2520  -25.1500   22.1070 C   0  0  0  0  0  2  0  0  0  0  0  0
  -30.2220  -22.8730   21.6010 C   0  0  0  0  0  2  0  0  0  0  0  0
  -28.2510  -25.0810   20.9390 C   0  0  0  0  0  3  0  0  0  0  0  0
  -29.1340  -22.5650   20.6480 N   0  0  0  0  0  0  0  0  0  0  0  0
  -27.6840  -23.5110   19.1390 O   0  0  0  0  0  0  0  0  0  0  0  0
  -29.8880  -20.0850   20.4760 C   0  0  0  0  0  3  0  0  0  0  0  0
  -28.0270  -18.7650   20.0660 C   0  0  0  0  0  3  0  0  0  0  0  0
  -29.3830  -18.7040   20.2560 C   0  0  0  0  0  0  0  0  0  0  0  0
  -28.9730  -21.1690   20.3940 C   0  0  0  0  0  0  0  0  0  0  0  0
  -27.4100  -20.4270   20.0610 S   0  0  0  0  0  0  0  0  0  0  0  0
  -30.2060  -17.3520   20.1390 C   0  0  0  0  0  0  0  0  0  0  0  0
  -31.4940  -17.6370   19.3660 C   0  0  0  0  0  1  0  0  0  0  0  0
  -29.8730  -16.1060   20.5220 N   0  0  0  0  0  0  0  0  0  0  0  0
  -30.7040  -14.9140   20.3390 C   0  0  0  0  0  0  0  0  0  0  0  0
  -30.5770  -12.5680   19.4450 C   0  0  0  0  0  2  0  0  0  0  0  0
  -29.6810  -12.5650   18.1860 C   0  0  0  0  0  2  0  0  0  0  0  0
  -28.2020  -12.3750   18.5750 C   0  0  0  0  0  2  0  0  0  0  0  0
  -27.7730  -13.3070   19.7390 C   0  0  0  0  0  3  0  0  0  0  0  0
  -28.7960  -13.3130   20.8900 C   0  0  0  0  0  2  0  0  0  0  0  0
  -30.1030  -13.6670   20.3260 N   0  0  0  0  0  0  0  0  0  0  0  0
  -31.9040  -14.9350   20.0580 O   0  0  0  0  0  0  0  0  0  0  0  0
  -25.3730  -13.8790   20.4310 C   0  0  0  0  0  0  0  0  0  0  0  0
  -24.3070  -13.1020   20.7890 C   0  0  0  0  0  0  0  0  0  0  0  0
  -24.7800  -11.7540   20.7800 C   0  0  0  0  0  0  0  0  0  0  0  0
  -26.4250  -13.0060   20.2140 N   0  0  0  0  0  0  0  0  0  0  0  0
  -26.0750  -11.7230   20.4900 N   0  0  0  0  0  0  0  0  0  0  0  0
  -24.0580  -10.4880   20.9700 C   0  0  0  0  0  0  0  0  0  0  0  0
  -24.4620   -9.5430   21.9380 C   0  0  0  0  0  3  0  0  0  0  0  0
  -23.7390   -8.3440   22.1140 C   0  0  0  0  0  3  0  0  0  0  0  0
  -22.5960   -8.0810   21.3210 C   0  0  0  0  0  0  0  0  0  0  0  0
  -22.2110   -9.0150   20.3430 C   0  0  0  0  0  3  0  0  0  0  0  0
  -22.9350  -10.2060   20.1650 C   0  0  0  0  0  3  0  0  0  0  0  0
  -21.8450   -6.9340   21.4040 O   0  0  0  0  0  0  0  0  0  0  0  0
  -21.7300   -6.2320   22.5780 C   0  0  0  0  0  0  0  0  0  0  0  0
  -21.2020   -6.8200   23.7470 C   0  0  0  0  0  3  0  0  0  0  0  0
  -21.0390   -6.0440   24.9130 C   0  0  0  0  0  3  0  0  0  0  0  0
  -21.3900   -4.6790   24.9060 C   0  0  0  0  0  0  0  0  0  0  0  0
  -21.9080   -4.0920   23.7390 C   0  0  0  0  0  3  0  0  0  0  0  0
  -22.0740   -4.8660   22.5770 C   0  0  0  0  0  0  0  0  0  0  0  0
  -22.5550   -4.2890   21.4500 F   0  0  0  0  0  0  0  0  0  0  0  0
  -21.2250   -3.9330   26.0230 F   0  0  0  0  0  0  0  0  0  0  0  0
  -22.9020  -13.5720   21.0330 C   0  0  0  0  0  0  0  0  0  0  0  0
  -22.1630  -12.8800   21.8920 N   0  0  0  0  0  0  0  0  0  0  0  0
  -22.4690  -14.5920   20.4960 O   0  0  0  0  0  0  0  0  0  0  0  0
  -22.5280  -12.0560   22.3480 H   0  0  0  0  0  0  0  0  0  0  0  0
  -21.2190  -13.1760   22.0980 H   0  0  0  0  0  0  0  0  0  0  0  0
  -25.5360  -15.2480   20.2450 N   0  0  0  0  0  0  0  0  0  0  0  0
  -24.7740  -15.9120   20.3290 H   0  0  0  0  0  0  0  0  0  0  0  0
  -26.4070  -15.6670   19.9440 H   0  0  0  0  0  0  0  0  0  0  0  0
  -28.3520  -26.3980   20.1880 O   0  0  0  0  0  0  0  0  0  0  0  0
  -24.5980  -31.8830   23.2460 C   0  0  0  0  0  0  0  0  0  0  0  0
  -27.2630  -27.3080   20.2000 C   0  0  0  0  0  0  0  0  0  0  0  0
  -23.4270  -30.4950   21.5740 C   0  0  0  0  0  3  0  0  0  0  0  0
  -24.9080  -28.9600   20.1520 C   0  0  0  0  0  0  0  0  0  0  0  0
  -25.9710  -30.8160   21.4330 C   0  0  0  0  0  2  0  0  0  0  0  0
  -26.0700  -29.4380   20.7730 C   0  0  0  0  0  0  0  0  0  0  0  0
  -27.2550  -28.6270   20.7780 C   0  0  0  0  0  3  0  0  0  0  0  0
  -26.0810  -26.9010   19.5510 C   0  0  0  0  0  3  0  0  0  0  0  0
  -24.9220  -27.7030   19.5260 C   0  0  0  0  0  3  0  0  0  0  0  0
  -23.6680  -29.8350   20.1890 C   0  0  0  0  0  2  0  0  0  0  0  0
  -24.6830  -31.0840   22.1410 N   0  0  0  0  0  0  0  0  0  0  0  0
  -23.5060  -32.1480   23.7690 O   0  0  0  0  0  0  0  0  0  0  0  0
  -22.7520  -29.4670   22.5160 C   0  0  0  0  0  0  0  0  0  0  0  0
  -21.4240  -29.3030   22.3870 N   0  0  0  0  0  0  0  0  0  0  0  0
  -23.4250  -28.8220   23.3250 O   0  0  0  0  0  0  0  0  0  0  0  0
  -20.9420  -29.8750   21.7090 H   0  0  0  0  0  0  0  0  0  0  0  0
  -18.0360  -28.1220   22.8720 C   0  0  0  0  0  0  0  0  0  0  0  0
  -20.5980  -28.3550   23.1390 C   0  0  0  0  0  3  0  0  0  0  0  0
  -20.6860  -26.9360   22.5320 C   0  0  0  0  0  2  0  0  0  0  0  0
  -19.5780  -26.6450   21.5140 C   0  0  0  0  0  2  0  0  0  0  0  0
  -18.1990  -26.7870   22.1640 C   0  0  0  0  0  2  0  0  0  0  0  0
  -19.1620  -28.8650   23.3150 C   0  0  0  0  0  0  0  0  0  0  0  0
  -18.9540  -30.1150   23.9380 C   0  0  0  0  0  3  0  0  0  0  0  0
  -17.6530  -30.6220   24.1220 C   0  0  0  0  0  3  0  0  0  0  0  0
  -16.5420  -29.8730   23.6960 C   0  0  0  0  0  3  0  0  0  0  0  0
  -16.7340  -28.6260   23.0760 C   0  0  0  0  0  3  0  0  0  0  0  0
  -25.8670  -32.5180   23.8930 C   0  0  0  0  0  3  0  0  0  0  0  0
  -25.5490  -33.9130   24.2270 N   0  0  0  0  0  0  0  0  0  0  0  0
  -25.8860  -34.9730   23.4790 C   0  0  0  0  0  0  0  0  0  0  0  0
  -26.5660  -34.8760   22.4530 O   0  0  0  0  0  0  0  0  0  0  0  0
  -24.9500  -34.0630   25.0260 H   0  0  0  0  0  0  0  0  0  0  0  0
  -24.1640  -36.7670   23.1080 C   0  0  0  0  0  1  0  0  0  0  0  0
  -25.3900  -36.3570   23.9390 C   0  0  0  0  0  3  0  0  0  0  0  0
  -27.5050  -37.2390   24.8190 C   0  0  0  0  0  1  0  0  0  0  0  0
  -26.4240  -37.4130   23.8530 N   0  0  0  0  0  0  0  0  0  0  0  0
  -26.0120  -38.3300   23.9970 H   0  0  0  0  0  0  0  0  0  0  0  0
  -26.3620  -31.7430   25.1770 C   0  0  1  0  0  0  0  0  0  0  0  0
  -25.2500  -31.4960   26.2230 C   0  0  0  0  0  1  0  0  0  0  0  0
  -26.9580  -30.3680   24.7940 C   0  0  0  0  0  1  0  0  0  0  0  0
  -27.4980  -32.5380   25.8620 C   0  0  0  0  0  1  0  0  0  0  0  0
  1  6  1  0
  1  5  1  0
  2  3  1  0
  4  2  1  0
  5 52  1  0
  5  3  1  0
  6  4  1  0
  7  1  2  0
  9 10  2  0
 10  8  1  0
 11  8  2  0
 11  6  1  0
 12  9  1  0
 12 11  1  0
 13 10  1  0
 13 15  2  0
 14 13  1  0
 16 15  1  0
 17 22  1  0
 18 19  1  0
 18 17  1  0
 20 19  1  0
 20 27  1  0
 20 21  1  0
 22 16  1  0
 22 21  1  0
 23 16  2  0
 24 25  2  0
 25 44  1  0
 26 25  1  0
 26 29  1  0
 27 24  1  0
 27 28  1  0
 28 26  2  0
 29 30  1  0
 30 31  2  0
 32 35  1  0
 32 31  1  0
 33 32  2  0
 34 33  1  0
 34 29  2  0
 35 36  1  0
 36 37  1  0
 37 38  2  0
 39 38  1  0
 39 43  1  0
 40 39  2  0
 41 36  2  0
 41 40  1  0
 42 41  1  0
 44 45  1  0
 45 48  1  0
 45 47  1  0
 46 44  2  0
 49 50  1  0
 49 24  1  0
 51 49  1  0
 52 54  1  0
 53 64  2  0
 54 59  1  0
 55 63  1  0
 55 65  1  0
 56 62  1  0
 56 58  1  0
 57 63  1  0
 58 59  2  0
 58 57  1  0
 60 54  2  0
 61 60  1  0
 61 56  2  0
 62 55  1  0
 63 53  1  0
 65 67  2  0
 66 65  1  0
 68 66  1  0
 69 78  2  0
 69 74  1  0
 70 66  1  0
 70 74  1  0
 71 70  1  0
 72 73  1  0
 72 71  1  0
 73 69  1  0
 74 75  2  0
 75 76  1  0
 77 76  2  0
 78 77  1  0
 79 53  1  0
 79 80  1  0
 79 89  1  0
 80 83  1  0
 81 85  1  0
 81 80  1  0
 82 81  2  0
 85 84  1  0
 87 85  1  0
 87 88  1  0
 87 86  1  0
 89 92  1  1
 89 90  1  0
 91 89  1  0
M  ISO  4   5 101  15 100  16 100  52 101
M  END
>  <TORSDO>  (66) 
F 18

>  <SCORE>  (66) 
-14.449

>  <name>  (66) 
65

>  <ligand_id>  (66) 
65

>  <original_smiles>  (66) 
[H]c1sc(N2C(=O)C([H])(Oc3c([H])c([H])c4c(c3[H])C([H])([H])N(C(=O)C([H])(N([H])C(=O)C([H])(N([H])C([H])([H])[H])C([H])([H])[H])C(C([H])([H])[H])(C([H])([H])[H])C([H])([H])[H])C([H])(C(=O)N([H])C3([H])c5c([H])c([H])c([H])c([H])c5C([H])([H])C([H])([H])C3([H])[H])C4([H])[H])C([H])([H])C([H])([H])C2([H])[H])c([H])c1C(=NC(=O)N1C([H])([H])C([H])([H])C([H])([H])C([H])(n2nc(-c3c([H])c([H])c(Oc4c([H])c([H])c(F)c([H])c4F)c([H])c3[H])c(C(=O)N([H])[H])c2N([H])[H])C1([H])[H])C([H])([H])[H]

>  <smiles>  (66) 
[H]c1sc(N2C(=O)C([H])(Oc3c([H])c([H])c4c(c3[H])C([H])([H])N(C(=O)C([H])(N([H])C(=O)C([H])(N([H])C([H])([H])[H])C([H])([H])[H])C(C([H])([H])[H])(C([H])([H])[H])C([H])([H])[H])C([H])(C(=O)N([H])C3([H])c5c([H])c([H])c([H])c([H])c5C([H])([H])C([H])([H])C3([H])[H])C4([H])[H])C([H])([H])C([H])([H])C2([H])[H])c([H])c1C(=NC(=O)N1C([H])([H])C([H])([H])C([H])([H])C([H])(n2nc(-c3c([H])c([H])c(Oc4c([H])c([H])c(F)c([H])c4F)c([H])c3[H])c(C(=O)N([H])[H])c2N([H])[H])C1([H])[H])C([H])([H])[H]

$$$$
66:0:0
     RDKit          3D

 88 97  0  0  1  0  0  0  0  0999 V2000
  -28.4540  -23.2620   20.2700 C   0  0  0  0  0  0  0  0  0  0  0  0
  -27.7670  -21.9620   20.5480 C   0  0  0  0  0  0  0  0  0  0  0  0
  -27.9150  -24.6150   20.3970 C   0  0  0  0  0  3  0  0  0  0  0  0
  -29.7120  -22.3290   19.8900 C   0  0  0  0  0  2  0  0  0  0  0  0
  -28.8770  -21.0940   20.2080 N   0  0  0  0  0  0  0  0  0  0  0  0
  -26.6340  -21.7710   20.9390 O   0  0  0  0  0  0  0  0  0  0  0  0
  -28.5980  -17.1060   20.5300 C   0  0  0  0  0  3  0  0  0  0  0  0
  -28.2420  -18.5460   20.5910 C   0  0  0  0  0  3  0  0  0  0  0  0
  -29.8460  -16.7250   20.0460 C   0  0  0  0  0  0  0  0  0  0  0  0
  -29.1550  -19.5250   20.1910 C   0  0  0  0  0  0  0  0  0  0  0  0
  -30.5760  -18.4190   19.7090 S   0  0  0  0  0  0  0  0  0  0  0  0
  -30.6070  -15.2600   19.8280 C   0  0  0  0  0  0  0  0  0  0  0  0
  -30.5230  -12.8480   18.9480 C   0  0  0  0  0  2  0  0  0  0  0  0
  -29.5270  -12.7140   17.7700 C   0  0  0  0  0  2  0  0  0  0  0  0
  -28.1020  -12.4440   18.2900 C   0  0  0  0  0  2  0  0  0  0  0  0
  -27.7270  -13.3770   19.4690 C   0  0  0  0  0  3  0  0  0  0  0  0
  -28.8450  -13.4780   20.5280 C   0  0  0  0  0  2  0  0  0  0  0  0
  -30.0540  -13.9590   19.8450 N   0  0  0  0  0  0  0  0  0  0  0  0
  -31.7910  -15.2800   19.4660 O   0  0  0  0  0  0  0  0  0  0  0  0
  -25.4100  -13.8890   20.4110 C   0  0  0  0  0  0  0  0  0  0  0  0
  -24.3850  -13.0890   20.8310 C   0  0  0  0  0  0  0  0  0  0  0  0
  -24.8550  -11.7460   20.7120 C   0  0  0  0  0  0  0  0  0  0  0  0
  -26.4390  -13.0340   20.0580 N   0  0  0  0  0  0  0  0  0  0  0  0
  -26.1200  -11.7360   20.3040 N   0  0  0  0  0  0  0  0  0  0  0  0
  -24.1510  -10.4710   20.9030 C   0  0  0  0  0  0  0  0  0  0  0  0
  -24.5910   -9.5150   21.8460 C   0  0  0  0  0  3  0  0  0  0  0  0
  -23.8820   -8.3080   22.0260 C   0  0  0  0  0  3  0  0  0  0  0  0
  -22.7190   -8.0460   21.2630 C   0  0  0  0  0  0  0  0  0  0  0  0
  -22.2980   -8.9890   20.3090 C   0  0  0  0  0  3  0  0  0  0  0  0
  -23.0080  -10.1890   20.1280 C   0  0  0  0  0  3  0  0  0  0  0  0
  -21.9830   -6.8880   21.3510 O   0  0  0  0  0  0  0  0  0  0  0  0
  -21.8480   -6.2100   22.5360 C   0  0  0  0  0  0  0  0  0  0  0  0
  -21.3030   -6.8200   23.6860 C   0  0  0  0  0  3  0  0  0  0  0  0
  -21.1170   -6.0660   24.8620 C   0  0  0  0  0  3  0  0  0  0  0  0
  -21.4670   -4.7040   24.8880 C   0  0  0  0  0  0  0  0  0  0  0  0
  -22.0060   -4.0930   23.7410 C   0  0  0  0  0  3  0  0  0  0  0  0
  -22.1920   -4.8440   22.5680 C   0  0  0  0  0  0  0  0  0  0  0  0
  -22.6910   -4.2450   21.4600 F   0  0  0  0  0  0  0  0  0  0  0  0
  -21.2830   -3.9770   26.0160 F   0  0  0  0  0  0  0  0  0  0  0  0
  -23.0080  -13.5440   21.2190 C   0  0  0  0  0  0  0  0  0  0  0  0
  -22.3490  -12.8110   22.1090 N   0  0  0  0  0  0  0  0  0  0  0  0
  -22.5300  -14.5850   20.7700 O   0  0  0  0  0  0  0  0  0  0  0  0
  -22.7520  -11.9690   22.4940 H   0  0  0  0  0  0  0  0  0  0  0  0
  -21.4290  -13.0950   22.4120 H   0  0  0  0  0  0  0  0  0  0  0  0
  -25.5450  -15.2670   20.2690 N   0  0  0  0  0  0  0  0  0  0  0  0
  -24.7630  -15.8940   20.4290 H   0  0  0  0  0  0  0  0  0  0  0  0
  -26.3200  -15.7130   19.7980 H   0  0  0  0  0  0  0  0  0  0  0  0
  -28.2830  -26.0640   20.2450 O   0  0  0  0  0  0  0  0  0  0  0  0
  -24.6690  -31.9120   23.2330 C   0  0  0  0  0  0  0  0  0  0  0  0
  -27.2770  -27.1370   20.2080 C   0  0  0  0  0  0  0  0  0  0  0  0
  -23.4940  -30.5240   21.5720 C   0  0  0  0  0  3  0  0  0  0  0  0
  -24.9630  -28.9520   20.1510 C   0  0  0  0  0  0  0  0  0  0  0  0
  -26.0560  -30.7680   21.4480 C   0  0  0  0  0  2  0  0  0  0  0  0
  -26.1390  -29.3700   20.7880 C   0  0  0  0  0  0  0  0  0  0  0  0
  -27.2940  -28.4800   20.8000 C   0  0  0  0  0  3  0  0  0  0  0  0
  -26.0790  -26.8570   19.5140 C   0  0  0  0  0  3  0  0  0  0  0  0
  -24.9520  -27.7110   19.4960 C   0  0  0  0  0  3  0  0  0  0  0  0
  -23.7360  -29.8560   20.1920 C   0  0  0  0  0  2  0  0  0  0  0  0
  -24.7600  -31.0920   22.1390 N   0  0  0  0  0  0  0  0  0  0  0  0
  -23.5750  -32.1920   23.7470 O   0  0  0  0  0  0  0  0  0  0  0  0
  -22.8000  -29.5130   22.5210 C   0  0  0  0  0  0  0  0  0  0  0  0
  -21.4710  -29.3500   22.3880 N   0  0  0  0  0  0  0  0  0  0  0  0
  -23.4630  -28.8780   23.3450 O   0  0  0  0  0  0  0  0  0  0  0  0
  -20.9910  -29.9130   21.7010 H   0  0  0  0  0  0  0  0  0  0  0  0
  -18.0790  -28.1750   22.8960 C   0  0  0  0  0  0  0  0  0  0  0  0
  -20.6430  -28.4060   23.1470 C   0  0  0  0  0  3  0  0  0  0  0  0
  -20.7240  -26.9850   22.5420 C   0  0  0  0  0  2  0  0  0  0  0  0
  -19.6110  -26.6950   21.5300 C   0  0  0  0  0  2  0  0  0  0  0  0
  -18.2350  -26.8400   22.1880 C   0  0  0  0  0  2  0  0  0  0  0  0
  -19.2090  -28.9170   23.3320 C   0  0  0  0  0  0  0  0  0  0  0  0
  -19.0060  -30.1670   23.9570 C   0  0  0  0  0  3  0  0  0  0  0  0
  -17.7060  -30.6750   24.1490 C   0  0  0  0  0  3  0  0  0  0  0  0
  -16.5910  -29.9300   23.7270 C   0  0  0  0  0  3  0  0  0  0  0  0
  -16.7790  -28.6810   23.1070 C   0  0  0  0  0  3  0  0  0  0  0  0
  -25.9350  -32.5510   23.8800 C   0  0  0  0  0  3  0  0  0  0  0  0
  -25.6150  -33.9500   24.2080 N   0  0  0  0  0  0  0  0  0  0  0  0
  -25.9370  -35.0080   23.4510 C   0  0  0  0  0  0  0  0  0  0  0  0
  -26.5970  -34.9080   22.4140 O   0  0  0  0  0  0  0  0  0  0  0  0
  -25.0260  -34.1000   25.0140 H   0  0  0  0  0  0  0  0  0  0  0  0
  -24.1850  -36.7900   23.1390 C   0  0  0  0  0  1  0  0  0  0  0  0
  -25.4510  -36.3960   23.9180 C   0  0  0  0  0  3  0  0  0  0  0  0
  -27.5950  -37.3080   24.6940 C   0  0  0  0  0  1  0  0  0  0  0  0
  -26.4730  -37.4570   23.7720 N   0  0  0  0  0  0  0  0  0  0  0  0
  -26.0620  -38.3750   23.9150 H   0  0  0  0  0  0  0  0  0  0  0  0
  -26.4240  -31.7850   25.1710 C   0  0  1  0  0  0  0  0  0  0  0  0
  -25.3090  -31.5530   26.2180 C   0  0  0  0  0  1  0  0  0  0  0  0
  -27.0130  -30.4040   24.8040 C   0  0  0  0  0  1  0  0  0  0  0  0
  -27.5630  -32.5800   25.8510 C   0  0  0  0  0  1  0  0  0  0  0  0
  1  3  2  0
  1  2  1  0
  2  6  2  0
  4  5  1  0
  4  1  1  0
  5  2  1  0
  7  8  1  0
  9  7  2  0
 10  5  1  0
 10  8  2  0
 11  9  1  0
 11 10  1  0
 12 18  1  0
 12  9  1  0
 13 18  1  0
 14 15  1  0
 14 13  1  0
 16 15  1  0
 16 23  1  0
 16 17  1  0
 18 17  1  0
 19 12  2  0
 20 21  2  0
 21 40  1  0
 22 21  1  0
 22 25  1  0
 23 24  1  0
 23 20  1  0
 24 22  2  0
 25 26  1  0
 26 27  2  0
 28 31  1  0
 28 27  1  0
 29 28  2  0
 30 29  1  0
 30 25  2  0
 31 32  1  0
 32 37  2  0
 32 33  1  0
 33 34  2  0
 34 35  1  0
 35 39  1  0
 36 35  2  0
 37 36  1  0
 38 37  1  0
 40 41  1  0
 41 44  1  0
 41 43  1  0
 42 40  2  0
 45 20  1  0
 45 46  1  0
 47 45  1  0
 48  3  1  0
 49 60  2  0
 50 48  1  0
 50 55  1  0
 51 59  1  0
 51 61  1  0
 52 58  1  0
 52 54  1  0
 53 59  1  0
 54 55  2  0
 54 53  1  0
 56 50  2  0
 57 56  1  0
 57 52  2  0
 58 51  1  0
 59 49  1  0
 61 63  2  0
 62 61  1  0
 64 62  1  0
 65 74  2  0
 65 70  1  0
 66 62  1  0
 66 70  1  0
 67 66  1  0
 68 69  1  0
 68 67  1  0
 69 65  1  0
 70 71  2  0
 71 72  1  0
 73 72  2  0
 74 73  1  0
 75 49  1  0
 75 76  1  0
 75 85  1  0
 76 79  1  0
 77 81  1  0
 77 76  1  0
 78 77  2  0
 81 80  1  0
 83 84  1  0
 83 81  1  0
 83 82  1  0
 85 88  1  1
 85 86  1  0
 87 85  1  0
M  ISO  4   3 101   9 100  12 100  48 101
M  END
>  <TORSDO>  (67) 
F 17

>  <SCORE>  (67) 
-14.027

>  <name>  (67) 
66

>  <ligand_id>  (67) 
66

>  <original_smiles>  (67) 
[H]C(Oc1c([H])c([H])c2c(c1[H])C([H])([H])N(C(=O)C([H])(N([H])C(=O)C([H])(N([H])C([H])([H])[H])C([H])([H])[H])C(C([H])([H])[H])(C([H])([H])[H])C([H])([H])[H])C([H])(C(=O)N([H])C1([H])c3c([H])c([H])c([H])c([H])c3C([H])([H])C([H])([H])C1([H])[H])C2([H])[H])=C1C(=O)N(c2sc(C(=O)N3C([H])([H])C([H])([H])C([H])([H])C([H])(n4nc(-c5c([H])c([H])c(Oc6c([H])c([H])c(F)c([H])c6F)c([H])c5[H])c(C(=O)N([H])[H])c4N([H])[H])C3([H])[H])c([H])c2[H])C1([H])[H]

>  <smiles>  (67) 
[H]C(Oc1c([H])c([H])c2c(c1[H])C([H])([H])N(C(=O)C([H])(N([H])C(=O)C([H])(N([H])C([H])([H])[H])C([H])([H])[H])C(C([H])([H])[H])(C([H])([H])[H])C([H])([H])[H])C([H])(C(=O)N([H])C1([H])c3c([H])c([H])c([H])c([H])c3C([H])([H])C([H])([H])C1([H])[H])C2([H])[H])=C1C(=O)N(c2sc(C(=O)N3C([H])([H])C([H])([H])C([H])([H])C([H])(n4nc(-c5c([H])c([H])c(Oc6c([H])c([H])c(F)c([H])c6F)c([H])c5[H])c(C(=O)N([H])[H])c4N([H])[H])C3([H])[H])c([H])c2[H])C1([H])[H]

$$$$
67:0:0
     RDKit          3D

 94103  0  0  1  0  0  0  0  0999 V2000
  -28.8680  -24.1310   20.1300 C   0  0  0  0  0  0  0  0  0  0  0  0
  -28.1120  -22.8820   20.2320 C   0  0  0  0  0  0  0  0  0  0  0  0
  -28.2760  -25.3260   20.4120 C   0  0  0  0  0  3  0  0  0  0  0  0
  -30.2640  -23.8490   19.6620 C   0  0  0  0  0  3  0  0  0  0  0  0
  -30.2310  -22.3240   19.4210 C   0  0  0  0  0  3  0  0  0  0  0  0
  -28.9140  -21.8380   19.8680 N   0  0  0  0  0  0  0  0  0  0  0  0
  -26.9210  -22.8030   20.5590 O   0  0  0  0  0  0  0  0  0  0  0  0
  -26.9970  -18.5460   20.2270 C   0  0  0  0  0  3  0  0  0  0  0  0
  -27.9780  -17.5950   19.9070 C   0  0  0  0  0  3  0  0  0  0  0  0
  -27.2980  -19.9230   20.2260 C   0  0  0  0  0  3  0  0  0  0  0  0
  -29.5610  -19.4160   19.5390 C   0  0  0  0  0  3  0  0  0  0  0  0
  -29.2820  -18.0110   19.5590 C   0  0  0  0  0  0  0  0  0  0  0  0
  -28.5850  -20.4080   19.8730 C   0  0  0  0  0  0  0  0  0  0  0  0
  -31.0200  -14.6470   19.4970 C   0  0  0  0  0  0  0  0  0  0  0  0
  -30.9390  -12.2350   19.0030 C   0  0  0  0  0  2  0  0  0  0  0  0
  -29.9050  -11.9840   17.8860 C   0  0  0  0  0  2  0  0  0  0  0  0
  -28.5040  -11.7800   18.4900 C   0  0  0  0  0  2  0  0  0  0  0  0
  -28.1220  -12.9060   19.4890 C   0  0  0  0  0  3  0  0  0  0  0  0
  -29.2600  -13.1330   20.5120 C   0  0  0  0  0  2  0  0  0  0  0  0
  -30.4910  -13.4180   19.7610 N   0  0  0  0  0  0  0  0  0  0  0  0
  -32.1320  -14.7550   18.9720 O   0  0  0  0  0  0  0  0  0  0  0  0
  -30.3820  -16.9940   19.2790 C   0  0  0  0  0  0  0  0  0  0  0  0
  -30.1870  -15.7080   19.6780 N   0  0  0  0  0  0  0  0  0  0  0  0
  -31.3810  -17.3910   18.6650 O   0  0  0  0  0  0  0  0  0  0  0  0
  -29.3090  -15.5100   20.1240 H   0  0  0  0  0  0  0  0  0  0  0  0
  -25.8880  -13.5160   20.6150 C   0  0  0  0  0  0  0  0  0  0  0  0
  -24.8510  -12.7420   21.0650 C   0  0  0  0  0  0  0  0  0  0  0  0
  -25.2340  -11.3880   20.8280 C   0  0  0  0  0  0  0  0  0  0  0  0
  -26.8440  -12.6290   20.1420 N   0  0  0  0  0  0  0  0  0  0  0  0
  -26.4610  -11.3380   20.3260 N   0  0  0  0  0  0  0  0  0  0  0  0
  -24.4840  -10.1360   20.9930 C   0  0  0  0  0  0  0  0  0  0  0  0
  -24.8870   -9.1490   21.9210 C   0  0  0  0  0  3  0  0  0  0  0  0
  -24.1390   -7.9610   22.0710 C   0  0  0  0  0  3  0  0  0  0  0  0
  -22.9770   -7.7510   21.2920 C   0  0  0  0  0  0  0  0  0  0  0  0
  -22.5910   -8.7260   20.3560 C   0  0  0  0  0  3  0  0  0  0  0  0
  -23.3400   -9.9050   20.2050 C   0  0  0  0  0  3  0  0  0  0  0  0
  -22.2050   -6.6150   21.3540 O   0  0  0  0  0  0  0  0  0  0  0  0
  -21.9370   -5.9900   22.5460 C   0  0  0  0  0  0  0  0  0  0  0  0
  -21.3110   -6.6680   23.6170 C   0  0  0  0  0  3  0  0  0  0  0  0
  -20.9930   -5.9720   24.7980 C   0  0  0  0  0  3  0  0  0  0  0  0
  -21.2840   -4.5980   24.9100 C   0  0  0  0  0  0  0  0  0  0  0  0
  -21.9020   -3.9220   23.8420 C   0  0  0  0  0  3  0  0  0  0  0  0
  -22.2240   -4.6170   22.6630 C   0  0  0  0  0  0  0  0  0  0  0  0
  -22.8000   -3.9530   21.6300 F   0  0  0  0  0  0  0  0  0  0  0  0
  -20.9680   -3.9260   26.0420 F   0  0  0  0  0  0  0  0  0  0  0  0
  -23.5350  -13.2330   21.5950 C   0  0  0  0  0  0  0  0  0  0  0  0
  -22.9200  -12.4800   22.5020 N   0  0  0  0  0  0  0  0  0  0  0  0
  -23.0670  -14.3160   21.2400 O   0  0  0  0  0  0  0  0  0  0  0  0
  -23.3270  -11.6130   22.8210 H   0  0  0  0  0  0  0  0  0  0  0  0
  -22.0480  -12.7910   22.9050 H   0  0  0  0  0  0  0  0  0  0  0  0
  -26.0910  -14.8880   20.5400 N   0  0  0  0  0  0  0  0  0  0  0  0
  -25.3590  -15.5510   20.7690 H   0  0  0  0  0  0  0  0  0  0  0  0
  -26.8610  -15.3120   20.0410 H   0  0  0  0  0  0  0  0  0  0  0  0
  -28.7700  -26.6270   20.2720 O   0  0  0  0  0  0  0  0  0  0  0  0
  -25.2450  -31.6820   23.9050 C   0  0  0  0  0  0  0  0  0  0  0  0
  -27.7790  -27.6010   20.2460 C   0  0  0  0  0  0  0  0  0  0  0  0
  -24.0800  -30.6970   21.9620 C   0  0  0  0  0  3  0  0  0  0  0  0
  -25.5350  -29.3410   20.3610 C   0  0  0  0  0  0  0  0  0  0  0  0
  -26.6360  -30.8590   22.0040 C   0  0  0  0  0  2  0  0  0  0  0  0
  -26.6780  -29.6250   21.1190 C   0  0  0  0  0  0  0  0  0  0  0  0
  -27.8050  -28.7630   21.0640 C   0  0  0  0  0  3  0  0  0  0  0  0
  -26.6360  -27.3770   19.4460 C   0  0  0  0  0  3  0  0  0  0  0  0
  -25.5160  -28.2250   19.5100 C   0  0  0  0  0  3  0  0  0  0  0  0
  -24.3490  -30.2720   20.4960 C   0  0  0  0  0  2  0  0  0  0  0  0
  -25.3340  -31.0820   22.6820 N   0  0  0  0  0  0  0  0  0  0  0  0
  -24.1470  -31.9430   24.4120 O   0  0  0  0  0  0  0  0  0  0  0  0
  -23.2850  -29.5770   22.6700 C   0  0  0  0  0  0  0  0  0  0  0  0
  -21.9680  -29.5150   22.4100 N   0  0  0  0  0  0  0  0  0  0  0  0
  -23.8520  -28.7750   23.4170 O   0  0  0  0  0  0  0  0  0  0  0  0
  -21.5770  -30.2100   21.7900 H   0  0  0  0  0  0  0  0  0  0  0  0
  -18.4870  -28.5420   22.4810 C   0  0  0  0  0  0  0  0  0  0  0  0
  -21.0300  -28.5220   22.9390 C   0  0  0  0  0  3  0  0  0  0  0  0
  -21.0670  -27.2210   22.1050 C   0  0  0  0  0  2  0  0  0  0  0  0
  -20.0210  -27.1940   20.9870 C   0  0  0  0  0  2  0  0  0  0  0  0
  -18.6100  -27.3330   21.5680 C   0  0  0  0  0  2  0  0  0  0  0  0
  -19.6250  -29.1110   23.1120 C   0  0  0  0  0  0  0  0  0  0  0  0
  -19.4580  -30.2550   23.9220 C   0  0  0  0  0  3  0  0  0  0  0  0
  -18.1850  -30.8280   24.1060 C   0  0  0  0  0  3  0  0  0  0  0  0
  -17.0610  -30.2520   23.4920 C   0  0  0  0  0  3  0  0  0  0  0  0
  -17.2120  -29.1090   22.6860 C   0  0  0  0  0  3  0  0  0  0  0  0
  -26.5200  -32.0850   24.7100 C   0  0  0  0  0  3  0  0  0  0  0  0
  -26.3090  -33.4490   25.2120 N   0  0  0  0  0  0  0  0  0  0  0  0
  -26.7560  -34.5590   24.6090 C   0  0  0  0  0  0  0  0  0  0  0  0
  -27.4580  -34.5330   23.5940 O   0  0  0  0  0  0  0  0  0  0  0  0
  -25.6890  -33.5480   26.0020 H   0  0  0  0  0  0  0  0  0  0  0  0
  -25.1690  -36.5050   24.4630 C   0  0  0  0  0  1  0  0  0  0  0  0
  -26.3620  -35.9130   25.2310 C   0  0  0  0  0  3  0  0  0  0  0  0
  -28.5350  -36.5260   26.1900 C   0  0  0  0  0  1  0  0  0  0  0  0
  -27.4720  -36.8900   25.2590 N   0  0  0  0  0  0  0  0  0  0  0  0
  -27.1330  -37.8140   25.5140 H   0  0  0  0  0  0  0  0  0  0  0  0
  -26.8410  -31.0980   25.8980 C   0  0  1  0  0  0  0  0  0  0  0  0
  -25.6310  -30.8310   26.8250 C   0  0  0  0  0  1  0  0  0  0  0  0
  -27.3340  -29.7340   25.3620 C   0  0  0  0  0  1  0  0  0  0  0  0
  -27.9920  -31.6720   26.7580 C   0  0  0  0  0  1  0  0  0  0  0  0
  1  2  1  0
  1  3  2  0
  2  7  2  0
  4  1  1  0
  5  4  2  0
  5  6  1  0
  6 13  1  0
  6  2  1  0
  9  8  2  0
 10  8  1  0
 11 12  2  0
 11 13  1  0
 12  9  1  0
 13 10  2  0
 14 23  1  0
 14 20  1  0
 15 20  1  0
 16 17  1  0
 16 15  1  0
 18 17  1  0
 18 29  1  0
 18 19  1  0
 20 19  1  0
 21 14  2  0
 22 12  1  0
 22 23  1  0
 23 25  1  0
 24 22  2  0
 26 27  2  0
 27 46  1  0
 28 31  1  0
 28 27  1  0
 29 30  1  0
 29 26  1  0
 30 28  2  0
 31 32  1  0
 32 33  2  0
 34 37  1  0
 34 33  1  0
 35 34  2  0
 36 35  1  0
 36 31  2  0
 37 38  1  0
 38 43  2  0
 38 39  1  0
 39 40  2  0
 40 41  1  0
 41 45  1  0
 42 41  2  0
 43 42  1  0
 44 43  1  0
 46 47  1  0
 47 49  1  0
 47 50  1  0
 48 46  2  0
 51 26  1  0
 51 52  1  0
 53 51  1  0
 54  3  1  0
 55 66  2  0
 56 54  1  0
 56 61  1  0
 57 67  1  0
 57 65  1  0
 58 64  1  0
 58 60  1  0
 59 65  1  0
 60 59  1  0
 61 60  2  0
 62 63  1  0
 62 56  2  0
 63 58  2  0
 64 57  1  0
 65 55  1  0
 67 69  2  0
 68 67  1  0
 70 68  1  0
 71 80  2  0
 71 76  1  0
 72 68  1  0
 72 76  1  0
 73 72  1  0
 74 75  1  0
 74 73  1  0
 75 71  1  0
 76 77  2  0
 77 78  1  0
 79 78  2  0
 80 79  1  0
 81 55  1  0
 81 82  1  0
 81 91  1  0
 82 85  1  0
 83 82  1  0
 83 87  1  0
 84 83  2  0
 87 86  1  0
 87 89  1  0
 89 90  1  0
 89 88  1  0
 91 94  1  1
 91 92  1  0
 93 91  1  0
M  ISO  4   3 101  14 100  23 100  54 101
M  END
>  <TORSDO>  (68) 
F 17

>  <SCORE>  (68) 
-11.193

>  <name>  (68) 
67

>  <ligand_id>  (68) 
67

>  <original_smiles>  (68) 
[H]C(Oc1c([H])c([H])c2c(c1[H])C([H])([H])N(C(=O)C([H])(N([H])C(=O)C([H])(N([H])C([H])([H])[H])C([H])([H])[H])C(C([H])([H])[H])(C([H])([H])[H])C([H])([H])[H])C([H])(C(=O)N([H])C1([H])c3c([H])c([H])c([H])c([H])c3C([H])([H])C([H])([H])C1([H])[H])C2([H])[H])=C1C(=O)N(c2c([H])c([H])c([H])c(C(=O)N([H])C(=O)N3C([H])([H])C([H])([H])C([H])([H])C([H])(n4nc(-c5c([H])c([H])c(Oc6c([H])c([H])c(F)c([H])c6F)c([H])c5[H])c(C(=O)N([H])[H])c4N([H])[H])C3([H])[H])c2[H])C([H])([H])C1([H])[H]

>  <smiles>  (68) 
[H]C(Oc1c([H])c([H])c2c(c1[H])C([H])([H])N(C(=O)C([H])(N([H])C(=O)C([H])(N([H])C([H])([H])[H])C([H])([H])[H])C(C([H])([H])[H])(C([H])([H])[H])C([H])([H])[H])C([H])(C(=O)N([H])C1([H])c3c([H])c([H])c([H])c([H])c3C([H])([H])C([H])([H])C1([H])[H])C2([H])[H])=C1C(=O)N(c2c([H])c([H])c([H])c(C(=O)N([H])C(=O)N3C([H])([H])C([H])([H])C([H])([H])C([H])(n4nc(-c5c([H])c([H])c(Oc6c([H])c([H])c(F)c([H])c6F)c([H])c5[H])c(C(=O)N([H])[H])c4N([H])[H])C3([H])[H])c2[H])C([H])([H])C1([H])[H]

$$$$
68:0:0
     RDKit          3D

 94103  0  0  1  0  0  0  0  0999 V2000
  -28.8330  -24.1560   20.9920 C   0  0  0  0  0  0  0  0  0  0  0  0
  -28.8190  -23.5480   22.3160 C   0  0  0  0  0  0  0  0  0  0  0  0
  -29.1770  -23.0340   20.0570 C   0  0  0  0  0  0  0  0  0  0  0  0
  -28.5280  -25.5210   20.9080 C   0  0  0  0  0  3  0  0  0  0  0  0
  -29.1280  -22.0740   22.2070 C   0  0  0  0  0  2  0  0  0  0  0  0
  -29.3420  -21.8450   20.7780 N   0  0  0  0  0  0  0  0  0  0  0  0
  -28.6030  -24.1040   23.4010 O   0  0  0  0  0  0  0  0  0  0  0  0
  -29.2990  -23.1160   18.8280 O   0  0  0  0  0  0  0  0  0  0  0  0
  -28.4760  -19.5110   20.3950 C   0  0  0  0  0  3  0  0  0  0  0  0
  -28.6490  -18.0920   20.3440 C   0  0  0  0  0  3  0  0  0  0  0  0
  -31.0200  -18.3620   20.2310 C   0  0  0  0  0  3  0  0  0  0  0  0
  -29.5640  -20.4250   20.3910 C   0  0  0  0  0  0  0  0  0  0  0  0
  -29.9190  -17.4490   20.2820 C   0  0  0  0  0  0  0  0  0  0  0  0
  -30.8490  -19.7990   20.2950 C   0  0  0  0  0  0  0  0  0  0  0  0
  -31.9530  -20.5840   20.3380 F   0  0  0  0  0  0  0  0  0  0  0  0
  -30.7970  -14.9220   19.9980 C   0  0  0  0  0  0  0  0  0  0  0  0
  -30.6080  -12.6510   18.9480 C   0  0  0  0  0  2  0  0  0  0  0  0
  -29.6000  -12.7370   17.7800 C   0  0  0  0  0  2  0  0  0  0  0  0
  -28.1510  -12.5540   18.2800 C   0  0  0  0  0  2  0  0  0  0  0  0
  -27.8400  -13.4180   19.5280 C   0  0  0  0  0  3  0  0  0  0  0  0
  -28.9530  -13.2850   20.5920 C   0  0  0  0  0  2  0  0  0  0  0  0
  -30.2220  -13.6690   19.9510 N   0  0  0  0  0  0  0  0  0  0  0  0
  -31.9510  -15.0960   19.5940 O   0  0  0  0  0  0  0  0  0  0  0  0
  -29.9400  -15.9590   20.3350 N   0  0  0  0  0  0  0  0  0  0  0  0
  -29.0490  -15.5750   20.6100 H   0  0  0  0  0  0  0  0  0  0  0  0
  -25.4910  -14.0150   20.3800 C   0  0  0  0  0  0  0  0  0  0  0  0
  -24.4400  -13.2420   20.7930 C   0  0  0  0  0  0  0  0  0  0  0  0
  -24.8910  -11.8880   20.7140 C   0  0  0  0  0  0  0  0  0  0  0  0
  -26.5170  -13.1330   20.0770 N   0  0  0  0  0  0  0  0  0  0  0  0
  -26.1630  -11.8480   20.3390 N   0  0  0  0  0  0  0  0  0  0  0  0
  -24.1670  -10.6270   20.9150 C   0  0  0  0  0  0  0  0  0  0  0  0
  -24.6010   -9.6690   21.8570 C   0  0  0  0  0  3  0  0  0  0  0  0
  -23.8760   -8.4730   22.0470 C   0  0  0  0  0  3  0  0  0  0  0  0
  -22.7040   -8.2250   21.2950 C   0  0  0  0  0  0  0  0  0  0  0  0
  -22.2890   -9.1720   20.3410 C   0  0  0  0  0  3  0  0  0  0  0  0
  -23.0140  -10.3590   20.1500 C   0  0  0  0  0  3  0  0  0  0  0  0
  -21.9520   -7.0790   21.3930 O   0  0  0  0  0  0  0  0  0  0  0  0
  -21.8590   -6.3780   22.5680 C   0  0  0  0  0  0  0  0  0  0  0  0
  -21.3480   -6.9640   23.7470 C   0  0  0  0  0  3  0  0  0  0  0  0
  -21.2050   -6.1870   24.9140 C   0  0  0  0  0  3  0  0  0  0  0  0
  -21.5620   -4.8260   24.9030 C   0  0  0  0  0  0  0  0  0  0  0  0
  -22.0660   -4.2390   23.7290 C   0  0  0  0  0  3  0  0  0  0  0  0
  -22.2110   -5.0130   22.5640 C   0  0  0  0  0  0  0  0  0  0  0  0
  -22.6770   -4.4370   21.4300 F   0  0  0  0  0  0  0  0  0  0  0  0
  -21.4170   -4.0780   26.0230 F   0  0  0  0  0  0  0  0  0  0  0  0
  -23.0600  -13.7210   21.1390 C   0  0  0  0  0  0  0  0  0  0  0  0
  -22.3690  -13.0150   22.0300 N   0  0  0  0  0  0  0  0  0  0  0  0
  -22.6030  -14.7570   20.6570 O   0  0  0  0  0  0  0  0  0  0  0  0
  -22.7480  -12.1780   22.4450 H   0  0  0  0  0  0  0  0  0  0  0  0
  -21.4450  -13.3210   22.3000 H   0  0  0  0  0  0  0  0  0  0  0  0
  -25.6510  -15.3880   20.2080 N   0  0  0  0  0  0  0  0  0  0  0  0
  -24.8710  -16.0270   20.3180 H   0  0  0  0  0  0  0  0  0  0  0  0
  -26.4320  -15.8050   19.7210 H   0  0  0  0  0  0  0  0  0  0  0  0
  -28.4560  -26.5080   19.8980 O   0  0  0  0  0  0  0  0  0  0  0  0
  -24.6750  -31.8330   23.1540 C   0  0  0  0  0  0  0  0  0  0  0  0
  -27.3670  -27.4040   19.9440 C   0  0  0  0  0  0  0  0  0  0  0  0
  -23.4920  -30.4630   21.4740 C   0  0  0  0  0  3  0  0  0  0  0  0
  -24.9710  -28.9820   19.9960 C   0  0  0  0  0  0  0  0  0  0  0  0
  -26.0250  -30.8350   21.2870 C   0  0  0  0  0  2  0  0  0  0  0  0
  -26.1360  -29.4720   20.6040 C   0  0  0  0  0  0  0  0  0  0  0  0
  -27.3390  -28.6940   20.5710 C   0  0  0  0  0  3  0  0  0  0  0  0
  -26.1790  -26.9720   19.3200 C   0  0  0  0  0  3  0  0  0  0  0  0
  -24.9950  -27.7360   19.3470 C   0  0  0  0  0  3  0  0  0  0  0  0
  -23.7160  -29.8330   20.0740 C   0  0  0  0  0  2  0  0  0  0  0  0
  -24.7500  -31.0600   22.0290 N   0  0  0  0  0  0  0  0  0  0  0  0
  -23.5890  -32.0700   23.7020 O   0  0  0  0  0  0  0  0  0  0  0  0
  -22.8520  -29.4070   22.4060 C   0  0  0  0  0  0  0  0  0  0  0  0
  -21.5300  -29.2010   22.2720 N   0  0  0  0  0  0  0  0  0  0  0  0
  -23.5430  -28.7750   23.2090 O   0  0  0  0  0  0  0  0  0  0  0  0
  -21.0290  -29.7630   21.5990 H   0  0  0  0  0  0  0  0  0  0  0  0
  -18.1890  -27.8830   22.7110 C   0  0  0  0  0  0  0  0  0  0  0  0
  -20.7350  -28.2220   23.0150 C   0  0  0  0  0  3  0  0  0  0  0  0
  -20.8900  -26.8050   22.4130 C   0  0  0  0  0  2  0  0  0  0  0  0
  -19.8110  -26.4670   21.3790 C   0  0  0  0  0  2  0  0  0  0  0  0
  -18.4180  -26.5540   22.0090 C   0  0  0  0  0  2  0  0  0  0  0  0
  -19.2760  -28.6720   23.1690 C   0  0  0  0  0  0  0  0  0  0  0  0
  -19.0080  -29.9140   23.7860 C   0  0  0  0  0  3  0  0  0  0  0  0
  -17.6850  -30.3670   23.9460 C   0  0  0  0  0  3  0  0  0  0  0  0
  -16.6130  -29.5760   23.5000 C   0  0  0  0  0  3  0  0  0  0  0  0
  -16.8650  -28.3340   22.8900 C   0  0  0  0  0  3  0  0  0  0  0  0
  -25.9470  -32.4720   23.7910 C   0  0  0  0  0  3  0  0  0  0  0  0
  -25.6240  -33.8650   24.1290 N   0  0  0  0  0  0  0  0  0  0  0  0
  -25.9540  -34.9270   23.3810 C   0  0  0  0  0  0  0  0  0  0  0  0
  -26.6310  -34.8350   22.3530 O   0  0  0  0  0  0  0  0  0  0  0  0
  -25.0200  -34.0080   24.9250 H   0  0  0  0  0  0  0  0  0  0  0  0
  -24.2220  -36.7160   23.0190 C   0  0  0  0  0  1  0  0  0  0  0  0
  -25.4550  -36.3090   23.8440 C   0  0  0  0  0  3  0  0  0  0  0  0
  -27.5740  -37.1950   24.7140 C   0  0  0  0  0  1  0  0  0  0  0  0
  -26.4840  -37.3680   23.7570 N   0  0  0  0  0  0  0  0  0  0  0  0
  -26.0720  -38.2850   23.9110 H   0  0  0  0  0  0  0  0  0  0  0  0
  -26.4550  -31.6960   25.0670 C   0  0  1  0  0  0  0  0  0  0  0  0
  -25.3530  -31.4430   26.1230 C   0  0  0  0  0  1  0  0  0  0  0  0
  -27.0480  -30.3240   24.6700 C   0  0  0  0  0  1  0  0  0  0  0  0
  -27.5960  -32.4900   25.7440 C   0  0  0  0  0  1  0  0  0  0  0  0
  1  2  1  0
  2  7  2  0
  3  6  1  0
  3  1  1  0
  4  1  2  0
  5  2  1  0
  6  5  1  0
  8  3  2  0
 10  9  2  0
 11 13  2  0
 11 14  1  0
 12  9  1  0
 12  6  1  0
 13 24  1  0
 13 10  1  0
 14 15  1  0
 14 12  2  0
 16 24  1  0
 17 22  1  0
 18 19  1  0
 18 17  1  0
 20 19  1  0
 20 29  1  0
 20 21  1  0
 22 16  1  0
 22 21  1  0
 23 16  2  0
 24 25  1  0
 26 27  2  0
 27 46  1  0
 28 27  1  0
 28 31  1  0
 29 30  1  0
 29 26  1  0
 30 28  2  0
 31 32  1  0
 32 33  2  0
 34 37  1  0
 34 33  1  0
 35 34  2  0
 36 35  1  0
 36 31  2  0
 37 38  1  0
 38 39  1  0
 39 40  2  0
 41 40  1  0
 41 45  1  0
 42 41  2  0
 43 38  2  0
 43 42  1  0
 44 43  1  0
 46 47  1  0
 47 50  1  0
 47 49  1  0
 48 46  2  0
 51 52  1  0
 51 26  1  0
 53 51  1  0
 54 56  1  0
 54  4  1  0
 55 66  2  0
 56 61  1  0
 57 65  1  0
 57 67  1  0
 58 64  1  0
 58 60  1  0
 59 65  1  0
 60 59  1  0
 61 60  2  0
 62 63  1  0
 62 56  2  0
 63 58  2  0
 64 57  1  0
 65 55  1  0
 67 69  2  0
 68 67  1  0
 70 68  1  0
 71 80  2  0
 71 76  1  0
 72 68  1  0
 72 76  1  0
 73 72  1  0
 74 75  1  0
 74 73  1  0
 75 71  1  0
 76 77  2  0
 77 78  1  0
 79 78  2  0
 80 79  1  0
 81 55  1  0
 81 82  1  0
 81 91  1  0
 82 85  1  0
 83 87  1  0
 83 82  1  0
 84 83  2  0
 87 86  1  0
 89 87  1  0
 89 90  1  0
 89 88  1  0
 91 94  1  1
 91 92  1  0
 93 91  1  0
M  ISO  4   4 101  16 100  24 100  54 101
M  END
>  <TORSDO>  (69) 
F 17

>  <SCORE>  (69) 
-14.638

>  <name>  (69) 
68

>  <ligand_id>  (69) 
68

>  <original_smiles>  (69) 
[H]C(Oc1c([H])c([H])c2c(c1[H])C([H])([H])N(C(=O)C([H])(N([H])C(=O)C([H])(N([H])C([H])([H])[H])C([H])([H])[H])C(C([H])([H])[H])(C([H])([H])[H])C([H])([H])[H])C([H])(C(=O)N([H])C1([H])c3c([H])c([H])c([H])c([H])c3C([H])([H])C([H])([H])C1([H])[H])C2([H])[H])=C1C(=O)N(c2c([H])c([H])c(N([H])C(=O)N3C([H])([H])C([H])([H])C([H])([H])C([H])(n4nc(-c5c([H])c([H])c(Oc6c([H])c([H])c(F)c([H])c6F)c([H])c5[H])c(C(=O)N([H])[H])c4N([H])[H])C3([H])[H])c([H])c2F)C([H])([H])C1=O

>  <smiles>  (69) 
[H]C(Oc1c([H])c([H])c2c(c1[H])C([H])([H])N(C(=O)C([H])(N([H])C(=O)C([H])(N([H])C([H])([H])[H])C([H])([H])[H])C(C([H])([H])[H])(C([H])([H])[H])C([H])([H])[H])C([H])(C(=O)N([H])C1([H])c3c([H])c([H])c([H])c([H])c3C([H])([H])C([H])([H])C1([H])[H])C2([H])[H])=C1C(=O)N(c2c([H])c([H])c(N([H])C(=O)N3C([H])([H])C([H])([H])C([H])([H])C([H])(n4nc(-c5c([H])c([H])c(Oc6c([H])c([H])c(F)c([H])c6F)c([H])c5[H])c(C(=O)N([H])[H])c4N([H])[H])C3([H])[H])c([H])c2F)C([H])([H])C1=O

$$$$
69:0:0
     RDKit          3D

 92101  0  0  1  0  0  0  0  0999 V2000
  -28.7090  -24.0380   19.5970 C   0  0  0  0  0  0  0  0  0  0  0  0
  -28.7800  -23.1930   20.7770 C   0  0  0  0  0  0  0  0  0  0  0  0
  -28.5130  -25.3800   19.3290 C   0  0  0  0  0  3  0  0  0  0  0  0
  -28.8620  -22.7840   18.7260 C   0  0  0  0  0  2  0  0  0  0  0  0
  -29.1550  -22.0700   19.9850 N   0  0  0  0  0  0  0  0  0  0  0  0
  -28.4710  -23.4010   21.9320 O   0  0  0  0  0  0  0  0  0  0  0  0
  -28.1560  -18.4990   20.3220 C   0  0  0  0  0  3  0  0  0  0  0  0
  -27.8210  -19.8940   20.3970 C   0  0  0  0  0  3  0  0  0  0  0  0
  -29.4660  -18.3920   19.9310 C   0  0  0  0  0  0  0  0  0  0  0  0
  -28.9250  -20.6240   20.0410 C   0  0  0  0  0  0  0  0  0  0  0  0
  -29.9330  -19.7060   19.7500 O   0  0  0  0  0  0  0  0  0  0  0  0
  -30.7710  -14.7390   19.8810 C   0  0  0  0  0  0  0  0  0  0  0  0
  -30.5330  -12.4060   19.0590 C   0  0  0  0  0  2  0  0  0  0  0  0
  -29.5500  -12.3870   17.8710 C   0  0  0  0  0  2  0  0  0  0  0  0
  -28.1050  -12.2190   18.3760 C   0  0  0  0  0  2  0  0  0  0  0  0
  -27.7610  -13.1840   19.5430 C   0  0  0  0  0  3  0  0  0  0  0  0
  -28.8690  -13.2120   20.6200 C   0  0  0  0  0  2  0  0  0  0  0  0
  -30.1340  -13.5230   19.9440 N   0  0  0  0  0  0  0  0  0  0  0  0
  -31.9460  -14.7670   19.5040 O   0  0  0  0  0  0  0  0  0  0  0  0
  -30.4150  -17.1970   19.7810 C   0  0  0  0  0  0  0  0  0  0  0  0
  -30.0230  -15.8940   20.0350 N   0  0  0  0  0  0  0  0  0  0  0  0
  -31.5540  -17.4830   19.3930 O   0  0  0  0  0  0  0  0  0  0  0  0
  -29.0660  -15.7740   20.3190 H   0  0  0  0  0  0  0  0  0  0  0  0
  -25.4330  -13.7710   20.4450 C   0  0  0  0  0  0  0  0  0  0  0  0
  -24.3860  -12.9960   20.8630 C   0  0  0  0  0  0  0  0  0  0  0  0
  -24.8330  -11.6420   20.7620 C   0  0  0  0  0  0  0  0  0  0  0  0
  -26.4500  -12.8920   20.1150 N   0  0  0  0  0  0  0  0  0  0  0  0
  -26.1000  -11.6040   20.3680 N   0  0  0  0  0  0  0  0  0  0  0  0
  -24.1080  -10.3800   20.9630 C   0  0  0  0  0  0  0  0  0  0  0  0
  -24.5370   -9.4230   21.9080 C   0  0  0  0  0  3  0  0  0  0  0  0
  -23.8120   -8.2270   22.0960 C   0  0  0  0  0  3  0  0  0  0  0  0
  -22.6430   -7.9790   21.3380 C   0  0  0  0  0  0  0  0  0  0  0  0
  -22.2330   -8.9230   20.3820 C   0  0  0  0  0  3  0  0  0  0  0  0
  -22.9590  -10.1110   20.1910 C   0  0  0  0  0  3  0  0  0  0  0  0
  -21.8890   -6.8340   21.4350 O   0  0  0  0  0  0  0  0  0  0  0  0
  -21.7540   -6.1580   22.6210 C   0  0  0  0  0  0  0  0  0  0  0  0
  -21.2140   -6.7740   23.7720 C   0  0  0  0  0  3  0  0  0  0  0  0
  -21.0280   -6.0240   24.9500 C   0  0  0  0  0  3  0  0  0  0  0  0
  -21.3740   -4.6600   24.9790 C   0  0  0  0  0  0  0  0  0  0  0  0
  -21.9090   -4.0440   23.8330 C   0  0  0  0  0  3  0  0  0  0  0  0
  -22.0950   -4.7910   22.6580 C   0  0  0  0  0  0  0  0  0  0  0  0
  -22.5900   -4.1890   21.5500 F   0  0  0  0  0  0  0  0  0  0  0  0
  -21.1890   -3.9370   26.1090 F   0  0  0  0  0  0  0  0  0  0  0  0
  -23.0140  -13.4760   21.2380 C   0  0  0  0  0  0  0  0  0  0  0  0
  -22.3390  -12.7640   22.1330 N   0  0  0  0  0  0  0  0  0  0  0  0
  -22.5530  -14.5160   20.7710 O   0  0  0  0  0  0  0  0  0  0  0  0
  -22.7270  -11.9220   22.5320 H   0  0  0  0  0  0  0  0  0  0  0  0
  -21.4210  -13.0670   22.4250 H   0  0  0  0  0  0  0  0  0  0  0  0
  -25.5960  -15.1460   20.2930 N   0  0  0  0  0  0  0  0  0  0  0  0
  -24.8330  -15.7940   20.4560 H   0  0  0  0  0  0  0  0  0  0  0  0
  -26.4010  -15.5840   19.8650 H   0  0  0  0  0  0  0  0  0  0  0  0
  -28.3940  -26.4940   20.1840 O   0  0  0  0  0  0  0  0  0  0  0  0
  -24.5830  -31.7660   23.2970 C   0  0  0  0  0  0  0  0  0  0  0  0
  -27.2870  -27.3560   20.0990 C   0  0  0  0  0  0  0  0  0  0  0  0
  -23.4250  -30.4370   21.5700 C   0  0  0  0  0  3  0  0  0  0  0  0
  -24.9150  -28.9590   20.1080 C   0  0  0  0  0  0  0  0  0  0  0  0
  -25.9660  -30.7730   21.4600 C   0  0  0  0  0  2  0  0  0  0  0  0
  -26.0670  -29.4260   20.7530 C   0  0  0  0  0  0  0  0  0  0  0  0
  -27.2550  -28.6340   20.7430 C   0  0  0  0  0  3  0  0  0  0  0  0
  -26.1070  -26.9410   19.4400 C   0  0  0  0  0  3  0  0  0  0  0  0
  -24.9370  -27.7240   19.4430 C   0  0  0  0  0  3  0  0  0  0  0  0
  -23.6730  -29.8250   20.1660 C   0  0  0  0  0  2  0  0  0  0  0  0
  -24.6750  -31.0060   22.1660 N   0  0  0  0  0  0  0  0  0  0  0  0
  -23.4860  -32.0160   23.8180 O   0  0  0  0  0  0  0  0  0  0  0  0
  -22.7460  -29.3760   22.4680 C   0  0  0  0  0  0  0  0  0  0  0  0
  -21.4260  -29.1940   22.2990 N   0  0  0  0  0  0  0  0  0  0  0  0
  -23.4070  -28.7210   23.2790 O   0  0  0  0  0  0  0  0  0  0  0  0
  -20.9510  -29.7760   21.6220 H   0  0  0  0  0  0  0  0  0  0  0  0
  -18.0440  -27.9600   22.6600 C   0  0  0  0  0  0  0  0  0  0  0  0
  -20.5920  -28.2200   23.0070 C   0  0  0  0  0  3  0  0  0  0  0  0
  -20.7190  -26.8150   22.3730 C   0  0  0  0  0  2  0  0  0  0  0  0
  -19.6440  -26.5300   21.3180 C   0  0  0  0  0  2  0  0  0  0  0  0
  -18.2460  -26.6410   21.9320 C   0  0  0  0  0  2  0  0  0  0  0  0
  -19.1460  -28.7080   23.1500 C   0  0  0  0  0  0  0  0  0  0  0  0
  -18.9040  -29.9440   23.7890 C   0  0  0  0  0  3  0  0  0  0  0  0
  -17.5930  -30.4310   23.9420 C   0  0  0  0  0  3  0  0  0  0  0  0
  -16.5040  -29.6790   23.4670 C   0  0  0  0  0  3  0  0  0  0  0  0
  -16.7310  -28.4450   22.8320 C   0  0  0  0  0  3  0  0  0  0  0  0
  -25.8480  -32.3750   23.9770 C   0  0  0  0  0  3  0  0  0  0  0  0
  -25.5440  -33.7740   24.3100 N   0  0  0  0  0  0  0  0  0  0  0  0
  -25.8950  -34.8290   23.5640 C   0  0  0  0  0  0  0  0  0  0  0  0
  -26.5800  -34.7280   22.5430 O   0  0  0  0  0  0  0  0  0  0  0  0
  -24.9360  -33.9280   25.1030 H   0  0  0  0  0  0  0  0  0  0  0  0
  -24.1790  -36.6330   23.2040 C   0  0  0  0  0  1  0  0  0  0  0  0
  -25.4110  -36.2180   24.0240 C   0  0  0  0  0  3  0  0  0  0  0  0
  -27.5380  -37.0950   24.8830 C   0  0  0  0  0  1  0  0  0  0  0  0
  -26.4500  -37.2660   23.9240 N   0  0  0  0  0  0  0  0  0  0  0  0
  -26.0460  -38.1890   24.0630 H   0  0  0  0  0  0  0  0  0  0  0  0
  -26.3040  -31.5840   25.2640 C   0  0  1  0  0  0  0  0  0  0  0  0
  -25.1640  -31.3450   26.2820 C   0  0  0  0  0  1  0  0  0  0  0  0
  -26.8890  -30.2050   24.8810 C   0  0  0  0  0  1  0  0  0  0  0  0
  -27.4330  -32.3590   25.9820 C   0  0  0  0  0  1  0  0  0  0  0  0
  1  2  1  0
  2  6  2  0
  3  1  2  0
  3 52  1  0
  4  1  1  0
  4  5  1  0
  5 10  1  0
  5  2  1  0
  7  8  1  0
  9  7  2  0
 10  8  2  0
 11  9  1  0
 11 10  1  0
 12 18  1  0
 12 21  1  0
 13 18  1  0
 14 15  1  0
 14 13  1  0
 16 15  1  0
 16 27  1  0
 16 17  1  0
 18 17  1  0
 19 12  2  0
 20  9  1  0
 20 21  1  0
 21 23  1  0
 22 20  2  0
 24 25  2  0
 25 44  1  0
 26 25  1  0
 26 29  1  0
 27 28  1  0
 27 24  1  0
 28 26  2  0
 29 30  1  0
 30 31  2  0
 32 35  1  0
 32 31  1  0
 33 32  2  0
 34 33  1  0
 34 29  2  0
 35 36  1  0
 36 41  2  0
 36 37  1  0
 37 38  2  0
 38 39  1  0
 39 43  1  0
 40 39  2  0
 41 40  1  0
 42 41  1  0
 44 45  1  0
 45 48  1  0
 45 47  1  0
 46 44  2  0
 49 24  1  0
 49 50  1  0
 51 49  1  0
 53 64  2  0
 54 52  1  0
 54 59  1  0
 55 63  1  0
 55 65  1  0
 56 62  1  0
 56 58  1  0
 57 63  1  0
 58 57  1  0
 59 58  2  0
 60 61  1  0
 60 54  2  0
 61 56  2  0
 62 55  1  0
 63 53  1  0
 65 67  2  0
 66 65  1  0
 68 66  1  0
 69 78  2  0
 69 74  1  0
 70 66  1  0
 70 74  1  0
 71 70  1  0
 72 73  1  0
 72 71  1  0
 73 69  1  0
 74 75  2  0
 75 76  1  0
 77 76  2  0
 78 77  1  0
 79 53  1  0
 79 80  1  0
 79 89  1  0
 80 83  1  0
 81 85  1  0
 81 80  1  0
 82 81  2  0
 85 84  1  0
 87 85  1  0
 87 88  1  0
 87 86  1  0
 89 92  1  1
 89 90  1  0
 91 89  1  0
M  ISO  4   3 101  12 100  21 100  52 101
M  END
>  <TORSDO>  (70) 
F 17

>  <SCORE>  (70) 
-14.734

>  <name>  (70) 
69

>  <ligand_id>  (70) 
69

>  <original_smiles>  (70) 
[H]C(Oc1c([H])c([H])c2c(c1[H])C([H])([H])N(C(=O)C([H])(N([H])C(=O)C([H])(N([H])C([H])([H])[H])C([H])([H])[H])C(C([H])([H])[H])(C([H])([H])[H])C([H])([H])[H])C([H])(C(=O)N([H])C1([H])c3c([H])c([H])c([H])c([H])c3C([H])([H])C([H])([H])C1([H])[H])C2([H])[H])=C1C(=O)N(c2oc(C(=O)N([H])C(=O)N3C([H])([H])C([H])([H])C([H])([H])C([H])(n4nc(-c5c([H])c([H])c(Oc6c([H])c([H])c(F)c([H])c6F)c([H])c5[H])c(C(=O)N([H])[H])c4N([H])[H])C3([H])[H])c([H])c2[H])C1([H])[H]

>  <smiles>  (70) 
[H]C(Oc1c([H])c([H])c2c(c1[H])C([H])([H])N(C(=O)C([H])(N([H])C(=O)C([H])(N([H])C([H])([H])[H])C([H])([H])[H])C(C([H])([H])[H])(C([H])([H])[H])C([H])([H])[H])C([H])(C(=O)N([H])C1([H])c3c([H])c([H])c([H])c([H])c3C([H])([H])C([H])([H])C1([H])[H])C2([H])[H])=C1C(=O)N(c2oc(C(=O)N([H])C(=O)N3C([H])([H])C([H])([H])C([H])([H])C([H])(n4nc(-c5c([H])c([H])c(Oc6c([H])c([H])c(F)c([H])c6F)c([H])c5[H])c(C(=O)N([H])[H])c4N([H])[H])C3([H])[H])c([H])c2[H])C1([H])[H]

$$$$
70:0:0
     RDKit          3D

 92101  0  0  1  0  0  0  0  0999 V2000
  -28.4140  -23.5790   20.4900 C   0  0  0  0  0  0  0  0  0  0  0  0
  -29.5630  -22.9240   19.8510 C   0  0  0  0  0  0  0  0  0  0  0  0
  -27.8820  -24.8840   20.6570 C   0  0  0  0  0  3  0  0  0  0  0  0
  -28.0030  -22.1550   21.0090 C   0  0  0  0  0  2  0  0  0  0  0  0
  -29.1120  -21.5890   20.1950 N   0  0  0  0  0  0  0  0  0  0  0  0
  -30.5600  -23.4030   19.3520 O   0  0  0  0  0  0  0  0  0  0  0  0
  -31.9610  -19.2260   21.1120 C   0  0  0  0  0  3  0  0  0  0  0  0
  -31.1280  -20.3310   20.8570 C   0  0  0  0  0  3  0  0  0  0  0  0
  -31.5100  -17.9020   20.9770 C   0  0  0  0  0  3  0  0  0  0  0  0
  -29.7720  -20.2340   20.4620 C   0  0  0  0  0  0  0  0  0  0  0  0
  -30.1880  -17.6090   20.5800 C   0  0  0  0  0  0  0  0  0  0  0  0
  -29.3380  -18.8100   20.3540 C   0  0  0  0  0  0  0  0  0  0  0  0
  -28.0540  -18.5850   19.9850 F   0  0  0  0  0  0  0  0  0  0  0  0
  -30.5520  -14.9460   20.3560 C   0  0  0  0  0  0  0  0  0  0  0  0
  -30.3940  -12.6170   19.3890 C   0  0  0  0  0  2  0  0  0  0  0  0
  -29.4680  -12.6020   18.1520 C   0  0  0  0  0  2  0  0  0  0  0  0
  -28.0010  -12.4010   18.5770 C   0  0  0  0  0  2  0  0  0  0  0  0
  -27.5940  -13.3190   19.7600 C   0  0  0  0  0  3  0  0  0  0  0  0
  -28.6450  -13.3180   20.8910 C   0  0  0  0  0  2  0  0  0  0  0  0
  -29.9240  -13.7080   20.2870 N   0  0  0  0  0  0  0  0  0  0  0  0
  -31.7560  -14.9810   20.0840 O   0  0  0  0  0  0  0  0  0  0  0  0
  -29.7950  -16.1380   20.4810 N   0  0  0  0  0  0  0  0  0  0  0  0
  -28.8000  -15.9800   20.5010 H   0  0  0  0  0  0  0  0  0  0  0  0
  -25.2060  -13.8930   20.4800 C   0  0  0  0  0  0  0  0  0  0  0  0
  -24.1420  -13.1130   20.8440 C   0  0  0  0  0  0  0  0  0  0  0  0
  -24.6120  -11.7650   20.8210 C   0  0  0  0  0  0  0  0  0  0  0  0
  -26.2540  -13.0190   20.2510 N   0  0  0  0  0  0  0  0  0  0  0  0
  -25.9070  -11.7340   20.5220 N   0  0  0  0  0  0  0  0  0  0  0  0
  -23.8900  -10.4990   21.0070 C   0  0  0  0  0  0  0  0  0  0  0  0
  -24.3080   -9.5420   21.9580 C   0  0  0  0  0  3  0  0  0  0  0  0
  -23.5830   -8.3430   22.1320 C   0  0  0  0  0  3  0  0  0  0  0  0
  -22.4260   -8.0930   21.3570 C   0  0  0  0  0  0  0  0  0  0  0  0
  -22.0280   -9.0390   20.3960 C   0  0  0  0  0  3  0  0  0  0  0  0
  -22.7530  -10.2290   20.2190 C   0  0  0  0  0  3  0  0  0  0  0  0
  -21.6750   -6.9460   21.4390 O   0  0  0  0  0  0  0  0  0  0  0  0
  -21.5910   -6.2230   22.6030 C   0  0  0  0  0  0  0  0  0  0  0  0
  -21.0930   -6.7880   23.7970 C   0  0  0  0  0  3  0  0  0  0  0  0
  -20.9590   -5.9900   24.9500 C   0  0  0  0  0  3  0  0  0  0  0  0
  -21.3120   -4.6290   24.9110 C   0  0  0  0  0  0  0  0  0  0  0  0
  -21.8030   -4.0630   23.7220 C   0  0  0  0  0  3  0  0  0  0  0  0
  -21.9390   -4.8570   22.5700 C   0  0  0  0  0  0  0  0  0  0  0  0
  -22.3920   -4.3020   21.4200 F   0  0  0  0  0  0  0  0  0  0  0  0
  -21.1760   -3.8600   26.0170 F   0  0  0  0  0  0  0  0  0  0  0  0
  -22.7400  -13.5850   21.1000 C   0  0  0  0  0  0  0  0  0  0  0  0
  -22.0060  -12.8890   21.9600 N   0  0  0  0  0  0  0  0  0  0  0  0
  -22.3040  -14.6080   20.5720 O   0  0  0  0  0  0  0  0  0  0  0  0
  -22.3730  -12.0620   22.4090 H   0  0  0  0  0  0  0  0  0  0  0  0
  -21.0660  -13.1870   22.1740 H   0  0  0  0  0  0  0  0  0  0  0  0
  -25.3620  -15.2640   20.2980 N   0  0  0  0  0  0  0  0  0  0  0  0
  -24.5850  -15.9070   20.3990 H   0  0  0  0  0  0  0  0  0  0  0  0
  -26.1970  -15.7090   19.9440 H   0  0  0  0  0  0  0  0  0  0  0  0
  -28.2260  -26.2430   20.2670 O   0  0  0  0  0  0  0  0  0  0  0  0
  -24.6140  -31.9210   23.2510 C   0  0  0  0  0  0  0  0  0  0  0  0
  -27.1920  -27.2360   20.2270 C   0  0  0  0  0  0  0  0  0  0  0  0
  -23.4120  -30.5240   21.6120 C   0  0  0  0  0  3  0  0  0  0  0  0
  -24.8620  -28.9540   20.1890 C   0  0  0  0  0  0  0  0  0  0  0  0
  -25.9640  -30.7980   21.4470 C   0  0  0  0  0  2  0  0  0  0  0  0
  -26.0400  -29.4080   20.8000 C   0  0  0  0  0  0  0  0  0  0  0  0
  -27.2090  -28.5620   20.8080 C   0  0  0  0  0  3  0  0  0  0  0  0
  -25.9950  -26.8780   19.5720 C   0  0  0  0  0  3  0  0  0  0  0  0
  -24.8500  -27.7000   19.5610 C   0  0  0  0  0  3  0  0  0  0  0  0
  -23.6340  -29.8460   20.2350 C   0  0  0  0  0  2  0  0  0  0  0  0
  -24.6830  -31.1020   22.1590 N   0  0  0  0  0  0  0  0  0  0  0  0
  -23.5280  -32.2060   23.7790 O   0  0  0  0  0  0  0  0  0  0  0  0
  -22.7350  -29.5160   22.5740 C   0  0  0  0  0  0  0  0  0  0  0  0
  -21.4080  -29.3450   22.4460 N   0  0  0  0  0  0  0  0  0  0  0  0
  -23.4070  -28.8920   23.4000 O   0  0  0  0  0  0  0  0  0  0  0  0
  -20.9230  -29.8990   21.7540 H   0  0  0  0  0  0  0  0  0  0  0  0
  -18.0240  -28.1540   22.9490 C   0  0  0  0  0  0  0  0  0  0  0  0
  -20.5840  -28.4110   23.2180 C   0  0  0  0  0  3  0  0  0  0  0  0
  -20.6830  -26.9770   22.6450 C   0  0  0  0  0  2  0  0  0  0  0  0
  -19.5800  -26.6550   21.6310 C   0  0  0  0  0  2  0  0  0  0  0  0
  -18.1990  -26.8030   22.2740 C   0  0  0  0  0  2  0  0  0  0  0  0
  -19.1450  -28.9150   23.3780 C   0  0  0  0  0  0  0  0  0  0  0  0
  -18.9270  -30.1780   23.9710 C   0  0  0  0  0  3  0  0  0  0  0  0
  -17.6220  -30.6800   24.1370 C   0  0  0  0  0  3  0  0  0  0  0  0
  -16.5170  -29.9160   23.7240 C   0  0  0  0  0  3  0  0  0  0  0  0
  -16.7200  -28.6550   23.1360 C   0  0  0  0  0  3  0  0  0  0  0  0
  -25.8930  -32.5550   23.8760 C   0  0  0  0  0  3  0  0  0  0  0  0
  -25.5830  -33.9550   24.2060 N   0  0  0  0  0  0  0  0  0  0  0  0
  -25.9050  -35.0090   23.4430 C   0  0  0  0  0  0  0  0  0  0  0  0
  -26.5610  -34.9040   22.4040 O   0  0  0  0  0  0  0  0  0  0  0  0
  -24.9980  -34.1090   25.0140 H   0  0  0  0  0  0  0  0  0  0  0  0
  -24.1680  -36.8010   23.1160 C   0  0  0  0  0  1  0  0  0  0  0  0
  -25.4230  -36.3980   23.9060 C   0  0  0  0  0  3  0  0  0  0  0  0
  -27.5680  -37.2930   24.7010 C   0  0  0  0  0  1  0  0  0  0  0  0
  -26.4520  -37.4520   23.7730 N   0  0  0  0  0  0  0  0  0  0  0  0
  -26.0470  -38.3730   23.9190 H   0  0  0  0  0  0  0  0  0  0  0  0
  -26.4020  -31.7870   25.1580 C   0  0  1  0  0  0  0  0  0  0  0  0
  -25.3030  -31.5550   26.2220 C   0  0  0  0  0  1  0  0  0  0  0  0
  -26.9860  -30.4070   24.7780 C   0  0  0  0  0  1  0  0  0  0  0  0
  -27.5500  -32.5830   25.8240 C   0  0  0  0  0  1  0  0  0  0  0  0
  1  3  2  0
  1  4  1  0
  2  5  1  0
  2  1  1  0
  5 10  1  0
  5  4  1  0
  6  2  2  0
  8  7  2  0
  9  7  1  0
 10  8  1  0
 11  9  2  0
 12 10  2  0
 12 11  1  0
 13 12  1  0
 14 22  1  0
 15 20  1  0
 16 17  1  0
 16 15  1  0
 18 17  1  0
 18 27  1  0
 18 19  1  0
 20 14  1  0
 20 19  1  0
 21 14  2  0
 22 23  1  0
 22 11  1  0
 24 25  2  0
 25 44  1  0
 26 25  1  0
 26 29  1  0
 27 24  1  0
 27 28  1  0
 28 26  2  0
 29 30  1  0
 30 31  2  0
 32 35  1  0
 32 31  1  0
 33 32  2  0
 34 33  1  0
 34 29  2  0
 35 36  1  0
 36 37  1  0
 37 38  2  0
 39 38  1  0
 39 43  1  0
 40 39  2  0
 41 36  2  0
 41 40  1  0
 42 41  1  0
 44 45  1  0
 45 48  1  0
 45 47  1  0
 46 44  2  0
 49 50  1  0
 49 24  1  0
 51 49  1  0
 52  3  1  0
 53 64  2  0
 54 52  1  0
 54 59  1  0
 55 63  1  0
 55 65  1  0
 56 62  1  0
 56 58  1  0
 57 63  1  0
 58 59  2  0
 58 57  1  0
 60 54  2  0
 61 60  1  0
 61 56  2  0
 62 55  1  0
 63 53  1  0
 65 67  2  0
 66 65  1  0
 68 66  1  0
 69 78  2  0
 69 74  1  0
 70 66  1  0
 70 74  1  0
 71 70  1  0
 72 73  1  0
 72 71  1  0
 73 69  1  0
 74 75  2  0
 75 76  1  0
 77 76  2  0
 78 77  1  0
 79 53  1  0
 79 80  1  0
 79 89  1  0
 80 83  1  0
 81 85  1  0
 81 80  1  0
 82 81  2  0
 85 84  1  0
 87 85  1  0
 87 88  1  0
 87 86  1  0
 89 92  1  1
 89 90  1  0
 91 89  1  0
M  ISO  4   3 101  14 100  22 100  52 101
M  END
>  <TORSDO>  (71) 
F 17

>  <SCORE>  (71) 
-15.413

>  <name>  (71) 
70

>  <ligand_id>  (71) 
70

>  <original_smiles>  (71) 
[H]C(Oc1c([H])c([H])c2c(c1[H])C([H])([H])N(C(=O)C([H])(N([H])C(=O)C([H])(N([H])C([H])([H])[H])C([H])([H])[H])C(C([H])([H])[H])(C([H])([H])[H])C([H])([H])[H])C([H])(C(=O)N([H])C1([H])c3c([H])c([H])c([H])c([H])c3C([H])([H])C([H])([H])C1([H])[H])C2([H])[H])=C1C(=O)N(c2c([H])c([H])c([H])c(N([H])C(=O)N3C([H])([H])C([H])([H])C([H])([H])C([H])(n4nc(-c5c([H])c([H])c(Oc6c([H])c([H])c(F)c([H])c6F)c([H])c5[H])c(C(=O)N([H])[H])c4N([H])[H])C3([H])[H])c2F)C1([H])[H]

>  <smiles>  (71) 
[H]C(Oc1c([H])c([H])c2c(c1[H])C([H])([H])N(C(=O)C([H])(N([H])C(=O)C([H])(N([H])C([H])([H])[H])C([H])([H])[H])C(C([H])([H])[H])(C([H])([H])[H])C([H])([H])[H])C([H])(C(=O)N([H])C1([H])c3c([H])c([H])c([H])c([H])c3C([H])([H])C([H])([H])C1([H])[H])C2([H])[H])=C1C(=O)N(c2c([H])c([H])c([H])c(N([H])C(=O)N3C([H])([H])C([H])([H])C([H])([H])C([H])(n4nc(-c5c([H])c([H])c(Oc6c([H])c([H])c(F)c([H])c6F)c([H])c5[H])c(C(=O)N([H])[H])c4N([H])[H])C3([H])[H])c2F)C1([H])[H]

$$$$
71:0:0
     RDKit          3D

 95104  0  0  1  0  0  0  0  0999 V2000
  -30.2650  -23.7750   20.4530 C   0  0  0  0  0  3  0  0  0  0  0  0
  -30.7200  -21.4040   20.3700 C   0  0  0  0  0  3  0  0  0  0  0  0
  -28.9660  -23.6060   20.1570 C   0  0  0  0  0  0  0  0  0  0  0  0
  -31.1830  -22.6580   20.5370 C   0  0  0  0  0  0  0  0  0  0  0  0
  -28.5030  -22.1880   19.8360 C   0  0  0  0  0  0  0  0  0  0  0  0
  -29.3760  -21.0950   20.0620 N   0  0  0  0  0  0  0  0  0  0  0  0
  -27.3900  -22.0330   19.3250 O   0  0  0  0  0  0  0  0  0  0  0  0
  -27.2320  -17.8970   20.0220 C   0  0  0  0  0  3  0  0  0  0  0  0
  -27.6550  -19.2400   20.0200 C   0  0  0  0  0  3  0  0  0  0  0  0
  -28.1550  -16.8340   20.0730 C   0  0  0  0  0  3  0  0  0  0  0  0
  -29.9440  -18.4700   20.0420 C   0  0  0  0  0  3  0  0  0  0  0  0
  -29.0240  -19.6170   20.0090 C   0  0  0  0  0  0  0  0  0  0  0  0
  -29.5410  -17.0630   20.0860 C   0  0  0  0  0  0  0  0  0  0  0  0
  -30.8110  -14.7430   19.8610 C   0  0  0  0  0  0  0  0  0  0  0  0
  -30.4680  -12.4010   18.9890 C   0  0  0  0  0  2  0  0  0  0  0  0
  -29.5040  -12.3730   17.7810 C   0  0  0  0  0  2  0  0  0  0  0  0
  -28.0560  -12.2390   18.2820 C   0  0  0  0  0  2  0  0  0  0  0  0
  -27.7190  -13.2460   19.4220 C   0  0  0  0  0  3  0  0  0  0  0  0
  -28.8150  -13.2500   20.5160 C   0  0  0  0  0  2  0  0  0  0  0  0
  -30.0930  -13.5540   19.8620 N   0  0  0  0  0  0  0  0  0  0  0  0
  -31.9190  -14.7290   19.3180 O   0  0  0  0  0  0  0  0  0  0  0  0
  -31.3940  -16.4030   21.5120 C   0  0  0  0  0  1  0  0  0  0  0  0
  -30.4080  -15.9260   20.5200 N   0  0  0  0  0  0  0  0  0  0  0  0
  -25.3790  -13.9200   20.2330 C   0  0  0  0  0  0  0  0  0  0  0  0
  -24.3040  -13.1990   20.6600 C   0  0  0  0  0  0  0  0  0  0  0  0
  -24.7060  -11.8330   20.6130 C   0  0  0  0  0  0  0  0  0  0  0  0
  -26.3860  -13.0050   19.9660 N   0  0  0  0  0  0  0  0  0  0  0  0
  -25.9840  -11.7400   20.2540 N   0  0  0  0  0  0  0  0  0  0  0  0
  -23.9300  -10.6090   20.8340 C   0  0  0  0  0  0  0  0  0  0  0  0
  -24.3480   -9.6220   21.7530 C   0  0  0  0  0  3  0  0  0  0  0  0
  -23.5700   -8.4640   21.9630 C   0  0  0  0  0  3  0  0  0  0  0  0
  -22.3610   -8.2840   21.2580 C   0  0  0  0  0  0  0  0  0  0  0  0
  -21.9580   -9.2580   20.3290 C   0  0  0  0  0  3  0  0  0  0  0  0
  -22.7350  -10.4090   20.1160 C   0  0  0  0  0  3  0  0  0  0  0  0
  -21.5600   -7.1770   21.3770 O   0  0  0  0  0  0  0  0  0  0  0  0
  -21.5190   -6.4370   22.5290 C   0  0  0  0  0  0  0  0  0  0  0  0
  -21.1780   -7.0140   23.7730 C   0  0  0  0  0  3  0  0  0  0  0  0
  -21.0800   -6.2040   24.9220 C   0  0  0  0  0  3  0  0  0  0  0  0
  -21.3140   -4.8180   24.8310 C   0  0  0  0  0  0  0  0  0  0  0  0
  -21.6560   -4.2430   23.5940 C   0  0  0  0  0  3  0  0  0  0  0  0
  -21.7510   -5.0500   22.4460 C   0  0  0  0  0  0  0  0  0  0  0  0
  -22.0570   -4.4840   21.2530 F   0  0  0  0  0  0  0  0  0  0  0  0
  -21.2160   -4.0410   25.9330 F   0  0  0  0  0  0  0  0  0  0  0  0
  -22.9490  -13.7500   20.9910 C   0  0  0  0  0  0  0  0  0  0  0  0
  -22.2330  -13.1180   21.9080 N   0  0  0  0  0  0  0  0  0  0  0  0
  -22.5340  -14.7890   20.4720 O   0  0  0  0  0  0  0  0  0  0  0  0
  -22.5760  -12.2890   22.3720 H   0  0  0  0  0  0  0  0  0  0  0  0
  -21.3230  -13.4850   22.1640 H   0  0  0  0  0  0  0  0  0  0  0  0
  -25.5620  -15.2800   20.0230 N   0  0  0  0  0  0  0  0  0  0  0  0
  -24.8390  -15.9550   20.2350 H   0  0  0  0  0  0  0  0  0  0  0  0
  -26.4060  -15.7010   19.6630 H   0  0  0  0  0  0  0  0  0  0  0  0
  -32.4780  -22.8560   20.8070 O   0  0  0  0  0  0  0  0  0  0  0  0
  -32.6160  -23.7900   20.8950 H   0  0  0  0  0  0  0  0  0  0  0  0
  -27.9180  -24.8060   20.2300 C   0  0  0  0  0  2  0  0  0  0  0  0
  -28.2800  -26.2690   20.0640 O   0  0  0  0  0  0  0  0  0  0  0  0
  -24.5030  -31.7190   23.0980 C   0  0  0  0  0  0  0  0  0  0  0  0
  -27.1970  -27.1850   20.0120 C   0  0  0  0  0  0  0  0  0  0  0  0
  -23.3360  -30.3170   21.4320 C   0  0  0  0  0  3  0  0  0  0  0  0
  -24.8210  -28.8100   20.0020 C   0  0  0  0  0  0  0  0  0  0  0  0
  -25.8770  -30.6650   21.2780 C   0  0  0  0  0  2  0  0  0  0  0  0
  -25.9820  -29.2900   20.6220 C   0  0  0  0  0  0  0  0  0  0  0  0
  -27.1720  -28.4880   20.6200 C   0  0  0  0  0  3  0  0  0  0  0  0
  -26.0180  -26.8040   19.3310 C   0  0  0  0  0  3  0  0  0  0  0  0
  -24.8400  -27.5730   19.3460 C   0  0  0  0  0  3  0  0  0  0  0  0
  -23.5750  -29.6680   20.0470 C   0  0  0  0  0  2  0  0  0  0  0  0
  -24.5910  -30.9190   21.9920 N   0  0  0  0  0  0  0  0  0  0  0  0
  -23.4090  -31.9730   23.6270 O   0  0  0  0  0  0  0  0  0  0  0  0
  -22.6830  -29.2740   22.3750 C   0  0  0  0  0  0  0  0  0  0  0  0
  -21.3560  -29.0970   22.2620 N   0  0  0  0  0  0  0  0  0  0  0  0
  -23.3680  -28.6310   23.1760 O   0  0  0  0  0  0  0  0  0  0  0  0
  -20.8580  -29.6720   21.5990 H   0  0  0  0  0  0  0  0  0  0  0  0
  -17.9870  -27.8810   22.7830 C   0  0  0  0  0  0  0  0  0  0  0  0
  -20.5490  -28.1370   23.0180 C   0  0  0  0  0  3  0  0  0  0  0  0
  -20.6390  -26.7190   22.4060 C   0  0  0  0  0  2  0  0  0  0  0  0
  -19.5250  -26.4180   21.4000 C   0  0  0  0  0  2  0  0  0  0  0  0
  -18.1550  -26.5480   22.0720 C   0  0  0  0  0  2  0  0  0  0  0  0
  -19.1120  -28.6330   23.2140 C   0  0  0  0  0  0  0  0  0  0  0  0
  -18.9010  -29.8770   23.8420 C   0  0  0  0  0  3  0  0  0  0  0  0
  -17.6000  -30.3730   24.0410 C   0  0  0  0  0  3  0  0  0  0  0  0
  -16.4880  -29.6170   23.6260 C   0  0  0  0  0  3  0  0  0  0  0  0
  -16.6830  -28.3730   23.0020 C   0  0  0  0  0  3  0  0  0  0  0  0
  -25.7700  -32.3680   23.7360 C   0  0  0  0  0  3  0  0  0  0  0  0
  -26.3020  -31.5850   24.9970 C   0  0  1  0  0  0  0  0  0  0  0  0
  -25.2170  -31.3060   26.0600 C   0  0  0  0  0  1  0  0  0  0  0  0
  -26.9140  -30.2280   24.5810 C   0  0  0  0  0  1  0  0  0  0  0  0
  -27.4340  -32.3920   25.6750 C   0  0  0  0  0  1  0  0  0  0  0  0
  -25.4290  -33.7530   24.0920 N   0  0  0  0  0  0  0  0  0  0  0  0
  -25.7390  -34.8280   23.3560 C   0  0  0  0  0  0  0  0  0  0  0  0
  -26.4200  -34.7590   22.3280 O   0  0  0  0  0  0  0  0  0  0  0  0
  -24.8330  -33.8810   24.8960 H   0  0  0  0  0  0  0  0  0  0  0  0
  -23.9780  -36.5940   23.0260 C   0  0  0  0  0  1  0  0  0  0  0  0
  -25.2190  -36.1970   23.8400 C   0  0  0  0  0  3  0  0  0  0  0  0
  -27.3310  -37.1010   24.7070 C   0  0  0  0  0  1  0  0  0  0  0  0
  -26.2320  -37.2710   23.7630 N   0  0  0  0  0  0  0  0  0  0  0  0
  -25.8080  -38.1790   23.9320 H   0  0  0  0  0  0  0  0  0  0  0  0
  1  4  1  0
  2  4  2  0
  3 54  1  0
  3  1  2  0
  4 52  1  0
  5  6  1  0
  5  3  1  0
  6  2  1  0
  7  5  2  0
  8 10  1  0
  9  8  2  0
 10 13  2  0
 11 13  1  0
 12  9  1  0
 12 11  2  0
 12  6  1  0
 13 23  1  0
 14 20  1  0
 14 23  1  0
 15 20  1  0
 16 17  1  0
 16 15  1  0
 18 17  1  0
 18 27  1  0
 18 19  1  0
 20 19  1  0
 21 14  2  0
 23 22  1  0
 24 25  2  0
 25 44  1  0
 26 25  1  0
 26 29  1  0
 27 24  1  0
 27 28  1  0
 28 26  2  0
 29 30  1  0
 30 31  2  0
 32 35  1  0
 32 31  1  0
 33 32  2  0
 34 33  1  0
 34 29  2  0
 35 36  1  0
 36 37  1  0
 37 38  2  0
 39 38  1  0
 39 43  1  0
 40 39  2  0
 41 36  2  0
 41 40  1  0
 42 41  1  0
 44 45  1  0
 45 48  1  0
 45 47  1  0
 46 44  2  0
 49 24  1  0
 49 50  1  0
 51 49  1  0
 52 53  1  0
 55 54  1  0
 56 67  2  0
 57 55  1  0
 57 62  1  0
 58 66  1  0
 58 68  1  0
 59 65  1  0
 59 61  1  0
 60 66  1  0
 61 60  1  0
 62 61  2  0
 63 64  1  0
 63 57  2  0
 64 59  2  0
 65 58  1  0
 66 56  1  0
 68 70  2  0
 69 68  1  0
 71 69  1  0
 72 81  2  0
 72 77  1  0
 73 69  1  0
 73 77  1  0
 74 73  1  0
 75 76  1  0
 75 74  1  0
 76 72  1  0
 77 78  2  0
 78 79  1  0
 80 79  2  0
 81 80  1  0
 82 56  1  0
 82 87  1  0
 82 83  1  0
 83 86  1  1
 83 84  1  0
 85 83  1  0
 87 90  1  0
 88 92  1  0
 88 87  1  0
 89 88  2  0
 92 91  1  0
 94 92  1  0
 94 95  1  0
 94 93  1  0
M  ISO  4  14 100  23 100  54 101  55 101
M  END
>  <TORSDO>  (72) 
F 19

>  <SCORE>  (72) 
-14.628

>  <name>  (72) 
71

>  <ligand_id>  (72) 
71

>  <original_smiles>  (72) 
[H]Oc1c([H])c(C([H])([H])Oc2c([H])c([H])c3c(c2[H])C([H])([H])N(C(=O)C([H])(N([H])C(=O)C([H])(N([H])C([H])([H])[H])C([H])([H])[H])C(C([H])([H])[H])(C([H])([H])[H])C([H])([H])[H])C([H])(C(=O)N([H])C2([H])c4c([H])c([H])c([H])c([H])c4C([H])([H])C([H])([H])C2([H])[H])C3([H])[H])c(=O)n(-c2c([H])c([H])c([H])c(N(C(=O)N3C([H])([H])C([H])([H])C([H])([H])C([H])(n4nc(-c5c([H])c([H])c(Oc6c([H])c([H])c(F)c([H])c6F)c([H])c5[H])c(C(=O)N([H])[H])c4N([H])[H])C3([H])[H])C([H])([H])[H])c2[H])c1[H]

>  <smiles>  (72) 
[H]Oc1c([H])c(C([H])([H])Oc2c([H])c([H])c3c(c2[H])C([H])([H])N(C(=O)C([H])(N([H])C(=O)C([H])(N([H])C([H])([H])[H])C([H])([H])[H])C(C([H])([H])[H])(C([H])([H])[H])C([H])([H])[H])C([H])(C(=O)N([H])C2([H])c4c([H])c([H])c([H])c([H])c4C([H])([H])C([H])([H])C2([H])[H])C3([H])[H])c(=O)n(-c2c([H])c([H])c([H])c(N(C(=O)N3C([H])([H])C([H])([H])C([H])([H])C([H])(n4nc(-c5c([H])c([H])c(Oc6c([H])c([H])c(F)c([H])c6F)c([H])c5[H])c(C(=O)N([H])[H])c4N([H])[H])C3([H])[H])C([H])([H])[H])c2[H])c1[H]

$$$$
72:0:0
     RDKit          3D

 92101  0  0  1  0  0  0  0  0999 V2000
  -28.5230  -23.8100   20.4520 C   0  0  0  0  0  0  0  0  0  0  0  0
  -28.0310  -22.5950   21.0920 C   0  0  0  0  0  0  0  0  0  0  0  0
  -28.0320  -25.1060   20.6200 C   0  0  0  0  0  3  0  0  0  0  0  0
  -29.5810  -22.9420   19.7040 C   0  0  0  0  0  2  0  0  0  0  0  0
  -28.9830  -21.7870   20.4400 N   0  0  0  0  0  0  0  0  0  0  0  0
  -27.1220  -22.4250   21.8780 O   0  0  0  0  0  0  0  0  0  0  0  0
  -28.5270  -19.3820   21.0880 C   0  0  0  0  0  3  0  0  0  0  0  0
  -28.7370  -17.9690   21.1070 C   0  0  0  0  0  3  0  0  0  0  0  0
  -30.6250  -18.2380   19.6960 C   0  0  0  0  0  3  0  0  0  0  0  0
  -29.3220  -20.3310   20.3770 C   0  0  0  0  0  0  0  0  0  0  0  0
  -29.7940  -17.3250   20.4130 C   0  0  0  0  0  0  0  0  0  0  0  0
  -30.3930  -19.6680   19.6800 C   0  0  0  0  0  0  0  0  0  0  0  0
  -31.2420  -20.4350   18.9530 F   0  0  0  0  0  0  0  0  0  0  0  0
  -30.6670  -14.8230   19.9960 C   0  0  0  0  0  0  0  0  0  0  0  0
  -30.4710  -12.5660   18.9260 C   0  0  0  0  0  2  0  0  0  0  0  0
  -29.4460  -12.6620   17.7710 C   0  0  0  0  0  2  0  0  0  0  0  0
  -28.0060  -12.4670   18.2880 C   0  0  0  0  0  2  0  0  0  0  0  0
  -27.7090  -13.3150   19.5530 C   0  0  0  0  0  3  0  0  0  0  0  0
  -28.8370  -13.1690   20.5990 C   0  0  0  0  0  2  0  0  0  0  0  0
  -30.0970  -13.5680   19.9500 N   0  0  0  0  0  0  0  0  0  0  0  0
  -31.7910  -15.0170   19.5220 O   0  0  0  0  0  0  0  0  0  0  0  0
  -29.8570  -15.8370   20.4770 N   0  0  0  0  0  0  0  0  0  0  0  0
  -29.0460  -15.4360   20.9230 H   0  0  0  0  0  0  0  0  0  0  0  0
  -25.3720  -13.8870   20.4490 C   0  0  0  0  0  0  0  0  0  0  0  0
  -24.3300  -13.1030   20.8620 C   0  0  0  0  0  0  0  0  0  0  0  0
  -24.7840  -11.7530   20.7510 C   0  0  0  0  0  0  0  0  0  0  0  0
  -26.3950  -13.0150   20.1150 N   0  0  0  0  0  0  0  0  0  0  0  0
  -26.0510  -11.7240   20.3570 N   0  0  0  0  0  0  0  0  0  0  0  0
  -24.0670  -10.4850   20.9430 C   0  0  0  0  0  0  0  0  0  0  0  0
  -24.5060   -9.5230   21.8790 C   0  0  0  0  0  3  0  0  0  0  0  0
  -23.7890   -8.3200   22.0580 C   0  0  0  0  0  3  0  0  0  0  0  0
  -22.6190   -8.0710   21.3010 C   0  0  0  0  0  0  0  0  0  0  0  0
  -22.1990   -9.0220   20.3550 C   0  0  0  0  0  3  0  0  0  0  0  0
  -22.9170  -10.2180   20.1740 C   0  0  0  0  0  3  0  0  0  0  0  0
  -21.8740   -6.9210   21.3900 O   0  0  0  0  0  0  0  0  0  0  0  0
  -21.7590   -6.2260   22.5680 C   0  0  0  0  0  0  0  0  0  0  0  0
  -21.2490   -6.8260   23.7390 C   0  0  0  0  0  3  0  0  0  0  0  0
  -21.0830   -6.0570   24.9080 C   0  0  0  0  0  3  0  0  0  0  0  0
  -21.4170   -4.6900   24.9070 C   0  0  0  0  0  0  0  0  0  0  0  0
  -21.9200   -4.0890   23.7390 C   0  0  0  0  0  3  0  0  0  0  0  0
  -22.0870   -4.8550   22.5720 C   0  0  0  0  0  0  0  0  0  0  0  0
  -22.5520   -4.2670   21.4430 F   0  0  0  0  0  0  0  0  0  0  0  0
  -21.2500   -3.9490   26.0270 F   0  0  0  0  0  0  0  0  0  0  0  0
  -22.9550  -13.5710   21.2420 C   0  0  0  0  0  0  0  0  0  0  0  0
  -22.2850  -12.8480   22.1320 N   0  0  0  0  0  0  0  0  0  0  0  0
  -22.4850  -14.6120   20.7840 O   0  0  0  0  0  0  0  0  0  0  0  0
  -22.6790  -12.0060   22.5220 H   0  0  0  0  0  0  0  0  0  0  0  0
  -21.3650  -13.1430   22.4290 H   0  0  0  0  0  0  0  0  0  0  0  0
  -25.5290  -15.2640   20.3100 N   0  0  0  0  0  0  0  0  0  0  0  0
  -24.7680  -15.9110   20.4830 H   0  0  0  0  0  0  0  0  0  0  0  0
  -26.3420  -15.7110   19.9040 H   0  0  0  0  0  0  0  0  0  0  0  0
  -28.3480  -26.3960   20.1000 O   0  0  0  0  0  0  0  0  0  0  0  0
  -24.6840  -31.8830   23.1820 C   0  0  0  0  0  0  0  0  0  0  0  0
  -27.2880  -27.3320   20.0660 C   0  0  0  0  0  0  0  0  0  0  0  0
  -23.4770  -30.4970   21.5360 C   0  0  0  0  0  3  0  0  0  0  0  0
  -24.9260  -28.9650   20.0810 C   0  0  0  0  0  0  0  0  0  0  0  0
  -26.0170  -30.8160   21.3440 C   0  0  0  0  0  2  0  0  0  0  0  0
  -26.1010  -29.4420   20.6800 C   0  0  0  0  0  0  0  0  0  0  0  0
  -27.2860  -28.6360   20.6660 C   0  0  0  0  0  3  0  0  0  0  0  0
  -26.0950  -26.9270   19.4310 C   0  0  0  0  0  3  0  0  0  0  0  0
  -24.9270  -27.7150   19.4440 C   0  0  0  0  0  3  0  0  0  0  0  0
  -23.6860  -29.8370   20.1490 C   0  0  0  0  0  2  0  0  0  0  0  0
  -24.7460  -31.0830   22.0770 N   0  0  0  0  0  0  0  0  0  0  0  0
  -23.6030  -32.1510   23.7260 O   0  0  0  0  0  0  0  0  0  0  0  0
  -22.8210  -29.4700   22.4910 C   0  0  0  0  0  0  0  0  0  0  0  0
  -21.4930  -29.2910   22.3730 N   0  0  0  0  0  0  0  0  0  0  0  0
  -23.5060  -28.8370   23.3000 O   0  0  0  0  0  0  0  0  0  0  0  0
  -20.9990  -29.8530   21.6950 H   0  0  0  0  0  0  0  0  0  0  0  0
  -18.1220  -28.0820   22.8930 C   0  0  0  0  0  0  0  0  0  0  0  0
  -20.6830  -28.3420   23.1400 C   0  0  0  0  0  3  0  0  0  0  0  0
  -20.7810  -26.9180   22.5480 C   0  0  0  0  0  2  0  0  0  0  0  0
  -19.6700  -26.6060   21.5400 C   0  0  0  0  0  2  0  0  0  0  0  0
  -18.2940  -26.7410   22.2000 C   0  0  0  0  0  2  0  0  0  0  0  0
  -19.2440  -28.8410   23.3210 C   0  0  0  0  0  0  0  0  0  0  0  0
  -19.0290  -30.0950   23.9320 C   0  0  0  0  0  3  0  0  0  0  0  0
  -17.7250  -30.5920   24.1170 C   0  0  0  0  0  3  0  0  0  0  0  0
  -16.6180  -29.8310   23.7050 C   0  0  0  0  0  3  0  0  0  0  0  0
  -16.8170  -28.5770   23.0980 C   0  0  0  0  0  3  0  0  0  0  0  0
  -25.9670  -32.5160   23.8030 C   0  0  0  0  0  3  0  0  0  0  0  0
  -25.6530  -33.9070   24.1560 N   0  0  0  0  0  0  0  0  0  0  0  0
  -25.9720  -34.9740   23.4110 C   0  0  0  0  0  0  0  0  0  0  0  0
  -26.6330  -34.8880   22.3720 O   0  0  0  0  0  0  0  0  0  0  0  0
  -25.0640  -34.0460   24.9640 H   0  0  0  0  0  0  0  0  0  0  0  0
  -24.2350  -36.7670   23.0980 C   0  0  0  0  0  1  0  0  0  0  0  0
  -25.4840  -36.3530   23.8940 C   0  0  0  0  0  3  0  0  0  0  0  0
  -27.6190  -37.2350   24.7260 C   0  0  0  0  0  1  0  0  0  0  0  0
  -26.5110  -37.4120   23.7890 N   0  0  0  0  0  0  0  0  0  0  0  0
  -26.1030  -38.3290   23.9500 H   0  0  0  0  0  0  0  0  0  0  0  0
  -26.4980  -31.7300   25.0650 C   0  0  1  0  0  0  0  0  0  0  0  0
  -25.4140  -31.4740   26.1390 C   0  0  0  0  0  1  0  0  0  0  0  0
  -27.0850  -30.3600   24.6540 C   0  0  0  0  0  1  0  0  0  0  0  0
  -27.6490  -32.5220   25.7290 C   0  0  0  0  0  1  0  0  0  0  0  0
  1  3  2  0
  1  2  1  0
  2  6  2  0
  4  5  1  0
  4  1  1  0
  5  2  1  0
  7  8  1  0
  9 11  1  0
 10  5  1  0
 10  7  2  0
 11 22  1  0
 11  8  2  0
 12  9  2  0
 12 10  1  0
 13 12  1  0
 14 22  1  0
 15 20  1  0
 16 17  1  0
 16 15  1  0
 18 17  1  0
 18 27  1  0
 18 19  1  0
 20 14  1  0
 20 19  1  0
 21 14  2  0
 22 23  1  0
 24 25  2  0
 25 44  1  0
 26 25  1  0
 26 29  1  0
 27 28  1  0
 27 24  1  0
 28 26  2  0
 29 30  1  0
 30 31  2  0
 32 35  1  0
 32 31  1  0
 33 32  2  0
 34 33  1  0
 34 29  2  0
 35 36  1  0
 36 41  2  0
 36 37  1  0
 37 38  2  0
 39 38  1  0
 39 43  1  0
 40 39  2  0
 41 40  1  0
 42 41  1  0
 44 45  1  0
 45 48  1  0
 45 47  1  0
 46 44  2  0
 49 24  1  0
 49 50  1  0
 51 49  1  0
 52  3  1  0
 53 64  2  0
 54 52  1  0
 54 59  1  0
 55 63  1  0
 55 65  1  0
 56 62  1  0
 56 58  1  0
 57 63  1  0
 58 57  1  0
 59 58  2  0
 60 61  1  0
 60 54  2  0
 61 56  2  0
 62 55  1  0
 63 53  1  0
 65 67  2  0
 66 65  1  0
 68 66  1  0
 69 78  2  0
 69 74  1  0
 70 66  1  0
 70 74  1  0
 71 70  1  0
 72 73  1  0
 72 71  1  0
 73 69  1  0
 74 75  2  0
 75 76  1  0
 77 76  2  0
 78 77  1  0
 79 53  1  0
 79 80  1  0
 79 89  1  0
 80 83  1  0
 81 85  1  0
 81 80  1  0
 82 81  2  0
 85 84  1  0
 87 85  1  0
 87 88  1  0
 87 86  1  0
 89 92  1  1
 89 90  1  0
 91 89  1  0
M  ISO  4   3 101  14 100  22 100  52 101
M  END
>  <TORSDO>  (73) 
F 17

>  <SCORE>  (73) 
-14.033

>  <name>  (73) 
72

>  <ligand_id>  (73) 
72

>  <original_smiles>  (73) 
[H]C(Oc1c([H])c([H])c2c(c1[H])C([H])([H])N(C(=O)C([H])(N([H])C(=O)C([H])(N([H])C([H])([H])[H])C([H])([H])[H])C(C([H])([H])[H])(C([H])([H])[H])C([H])([H])[H])C([H])(C(=O)N([H])C1([H])c3c([H])c([H])c([H])c([H])c3C([H])([H])C([H])([H])C1([H])[H])C2([H])[H])=C1C(=O)N(c2c([H])c([H])c(N([H])C(=O)N3C([H])([H])C([H])([H])C([H])([H])C([H])(n4nc(-c5c([H])c([H])c(Oc6c([H])c([H])c(F)c([H])c6F)c([H])c5[H])c(C(=O)N([H])[H])c4N([H])[H])C3([H])[H])c([H])c2F)C1([H])[H]

>  <smiles>  (73) 
[H]C(Oc1c([H])c([H])c2c(c1[H])C([H])([H])N(C(=O)C([H])(N([H])C(=O)C([H])(N([H])C([H])([H])[H])C([H])([H])[H])C(C([H])([H])[H])(C([H])([H])[H])C([H])([H])[H])C([H])(C(=O)N([H])C1([H])c3c([H])c([H])c([H])c([H])c3C([H])([H])C([H])([H])C1([H])[H])C2([H])[H])=C1C(=O)N(c2c([H])c([H])c(N([H])C(=O)N3C([H])([H])C([H])([H])C([H])([H])C([H])(n4nc(-c5c([H])c([H])c(Oc6c([H])c([H])c(F)c([H])c6F)c([H])c5[H])c(C(=O)N([H])[H])c4N([H])[H])C3([H])[H])c([H])c2F)C1([H])[H]

$$$$
73:0:0
     RDKit          3D

 97106  0  0  1  0  0  0  0  0999 V2000
  -30.3020  -23.8870   20.5230 C   0  0  0  0  0  3  0  0  0  0  0  0
  -29.1780  -23.9040   19.8010 C   0  0  0  0  0  0  0  0  0  0  0  0
  -30.7280  -22.5080   20.7200 C   0  0  0  0  0  0  0  0  0  0  0  0
  -28.8740  -22.4870   19.5170 C   0  0  0  0  0  0  0  0  0  0  0  0
  -29.8310  -21.7120   20.1020 N   0  0  0  0  0  0  0  0  0  0  0  0
  -31.7220  -22.1230   21.3440 O   0  0  0  0  0  0  0  0  0  0  0  0
  -27.9220  -22.0540   18.8600 O   0  0  0  0  0  0  0  0  0  0  0  0
  -29.0520  -18.0400   20.9510 C   0  0  0  0  0  3  0  0  0  0  0  0
  -31.0180  -18.0670   19.5740 C   0  0  0  0  0  3  0  0  0  0  0  0
  -29.8880  -20.2360   20.1350 C   0  0  0  0  0  0  0  0  0  0  0  0
  -30.0780  -17.2910   20.3130 C   0  0  0  0  0  0  0  0  0  0  0  0
  -28.9540  -19.4630   20.8810 C   0  0  0  0  0  0  0  0  0  0  0  0
  -30.9230  -19.4960   19.4870 C   0  0  0  0  0  0  0  0  0  0  0  0
  -31.8490  -20.1670   18.7600 F   0  0  0  0  0  0  0  0  0  0  0  0
  -30.7750  -14.7920   19.8900 C   0  0  0  0  0  0  0  0  0  0  0  0
  -30.4770  -12.5710   18.7990 C   0  0  0  0  0  2  0  0  0  0  0  0
  -29.4470  -12.7260   17.6580 C   0  0  0  0  0  2  0  0  0  0  0  0
  -28.0090  -12.5610   18.1900 C   0  0  0  0  0  2  0  0  0  0  0  0
  -27.7470  -13.4010   19.4680 C   0  0  0  0  0  3  0  0  0  0  0  0
  -28.8840  -13.2160   20.5000 C   0  0  0  0  0  2  0  0  0  0  0  0
  -30.1530  -13.5670   19.8410 N   0  0  0  0  0  0  0  0  0  0  0  0
  -31.8890  -14.9640   19.3850 O   0  0  0  0  0  0  0  0  0  0  0  0
  -30.0370  -15.8200   20.4210 N   0  0  0  0  0  0  0  0  0  0  0  0
  -29.2320  -15.4710   20.9190 H   0  0  0  0  0  0  0  0  0  0  0  0
  -25.4200  -14.0040   20.3770 C   0  0  0  0  0  0  0  0  0  0  0  0
  -24.3710  -13.2320   20.7970 C   0  0  0  0  0  0  0  0  0  0  0  0
  -24.8110  -11.8770   20.6890 C   0  0  0  0  0  0  0  0  0  0  0  0
  -26.4320  -13.1190   20.0400 N   0  0  0  0  0  0  0  0  0  0  0  0
  -26.0750  -11.8330   20.2870 N   0  0  0  0  0  0  0  0  0  0  0  0
  -24.0820  -10.6170   20.8890 C   0  0  0  0  0  0  0  0  0  0  0  0
  -24.5110   -9.6590   21.8340 C   0  0  0  0  0  3  0  0  0  0  0  0
  -23.7820   -8.4640   22.0230 C   0  0  0  0  0  3  0  0  0  0  0  0
  -22.6120   -8.2190   21.2660 C   0  0  0  0  0  0  0  0  0  0  0  0
  -22.2030   -9.1660   20.3100 C   0  0  0  0  0  3  0  0  0  0  0  0
  -22.9320  -10.3520   20.1200 C   0  0  0  0  0  3  0  0  0  0  0  0
  -21.8570   -7.0760   21.3620 O   0  0  0  0  0  0  0  0  0  0  0  0
  -21.7230   -6.3980   22.5470 C   0  0  0  0  0  0  0  0  0  0  0  0
  -21.1970   -7.0150   23.7030 C   0  0  0  0  0  3  0  0  0  0  0  0
  -21.0140   -6.2630   24.8800 C   0  0  0  0  0  3  0  0  0  0  0  0
  -21.3460   -4.8960   24.9020 C   0  0  0  0  0  0  0  0  0  0  0  0
  -21.8650   -4.2780   23.7510 C   0  0  0  0  0  3  0  0  0  0  0  0
  -22.0500   -5.0270   22.5750 C   0  0  0  0  0  0  0  0  0  0  0  0
  -22.5300   -4.4230   21.4620 F   0  0  0  0  0  0  0  0  0  0  0  0
  -21.1630   -4.1710   26.0310 F   0  0  0  0  0  0  0  0  0  0  0  0
  -23.0040  -13.7150   21.1860 C   0  0  0  0  0  0  0  0  0  0  0  0
  -22.3390  -13.0090   22.0940 N   0  0  0  0  0  0  0  0  0  0  0  0
  -22.5370  -14.7530   20.7200 O   0  0  0  0  0  0  0  0  0  0  0  0
  -22.7330  -12.1700   22.4930 H   0  0  0  0  0  0  0  0  0  0  0  0
  -21.4250  -13.3150   22.3970 H   0  0  0  0  0  0  0  0  0  0  0  0
  -25.5910  -15.3790   20.2350 N   0  0  0  0  0  0  0  0  0  0  0  0
  -24.8440  -16.0370   20.4230 H   0  0  0  0  0  0  0  0  0  0  0  0
  -26.4190  -15.8200   19.8570 H   0  0  0  0  0  0  0  0  0  0  0  0
  -27.9280  -20.0930   21.5910 N   0  0  0  0  0  0  0  0  0  0  0  0
  -27.1880  -19.5140   21.9750 H   0  0  0  0  0  0  0  0  0  0  0  0
  -27.5830  -20.9860   21.2630 H   0  0  0  0  0  0  0  0  0  0  0  0
  -28.2860  -25.1030   19.3180 C   0  0  0  0  0  2  0  0  0  0  0  0
  -28.5030  -26.5190   19.7420 O   0  0  0  0  0  0  0  0  0  0  0  0
  -24.5340  -31.6270   23.0230 C   0  0  0  0  0  0  0  0  0  0  0  0
  -27.3640  -27.3570   19.7240 C   0  0  0  0  0  0  0  0  0  0  0  0
  -23.4010  -30.2620   21.3100 C   0  0  0  0  0  3  0  0  0  0  0  0
  -24.9240  -28.8730   19.8020 C   0  0  0  0  0  0  0  0  0  0  0  0
  -25.9260  -30.7060   21.1550 C   0  0  0  0  0  2  0  0  0  0  0  0
  -26.0720  -29.3700   20.4330 C   0  0  0  0  0  0  0  0  0  0  0  0
  -27.2920  -28.6230   20.3910 C   0  0  0  0  0  3  0  0  0  0  0  0
  -26.1850  -26.9370   19.0540 C   0  0  0  0  0  3  0  0  0  0  0  0
  -24.9840  -27.6610   19.1060 C   0  0  0  0  0  3  0  0  0  0  0  0
  -23.6490  -29.6830   19.8950 C   0  0  0  0  0  2  0  0  0  0  0  0
  -24.6390  -30.8790   21.8870 N   0  0  0  0  0  0  0  0  0  0  0  0
  -23.4370  -31.8240   23.5680 O   0  0  0  0  0  0  0  0  0  0  0  0
  -22.7900  -29.1610   22.2100 C   0  0  0  0  0  0  0  0  0  0  0  0
  -21.4720  -28.9270   22.0750 N   0  0  0  0  0  0  0  0  0  0  0  0
  -23.4990  -28.5240   22.9930 O   0  0  0  0  0  0  0  0  0  0  0  0
  -20.9540  -29.4980   21.4240 H   0  0  0  0  0  0  0  0  0  0  0  0
  -18.1500  -27.5780   22.5540 C   0  0  0  0  0  0  0  0  0  0  0  0
  -20.7030  -27.9120   22.7970 C   0  0  0  0  0  3  0  0  0  0  0  0
  -20.8450  -26.5250   22.1280 C   0  0  0  0  0  2  0  0  0  0  0  0
  -19.7350  -26.2270   21.1150 C   0  0  0  0  0  2  0  0  0  0  0  0
  -18.3610  -26.2830   21.7880 C   0  0  0  0  0  2  0  0  0  0  0  0
  -19.2500  -28.3500   23.0150 C   0  0  0  0  0  0  0  0  0  0  0  0
  -18.9990  -29.5630   23.6920 C   0  0  0  0  0  3  0  0  0  0  0  0
  -17.6810  -30.0050   23.9120 C   0  0  0  0  0  3  0  0  0  0  0  0
  -16.5950  -29.2300   23.4670 C   0  0  0  0  0  3  0  0  0  0  0  0
  -16.8320  -28.0180   22.7940 C   0  0  0  0  0  3  0  0  0  0  0  0
  -25.7830  -32.2910   23.6780 C   0  0  0  0  0  3  0  0  0  0  0  0
  -26.3150  -31.5030   24.9360 C   0  0  1  0  0  0  0  0  0  0  0  0
  -25.2200  -31.1920   25.9820 C   0  0  0  0  0  1  0  0  0  0  0  0
  -26.9580  -30.1620   24.5130 C   0  0  0  0  0  1  0  0  0  0  0  0
  -27.4270  -32.3200   25.6360 C   0  0  0  0  0  1  0  0  0  0  0  0
  -25.4180  -33.6660   24.0450 N   0  0  0  0  0  0  0  0  0  0  0  0
  -25.7030  -34.7520   23.3140 C   0  0  0  0  0  0  0  0  0  0  0  0
  -26.3730  -34.7040   22.2800 O   0  0  0  0  0  0  0  0  0  0  0  0
  -24.8230  -33.7750   24.8530 H   0  0  0  0  0  0  0  0  0  0  0  0
  -23.8920  -36.4720   23.0170 C   0  0  0  0  0  1  0  0  0  0  0  0
  -25.1580  -36.1060   23.8090 C   0  0  0  0  0  3  0  0  0  0  0  0
  -27.2530  -37.0710   24.6470 C   0  0  0  0  0  1  0  0  0  0  0  0
  -26.1400  -37.2070   23.7120 N   0  0  0  0  0  0  0  0  0  0  0  0
  -25.6930  -38.1040   23.8820 H   0  0  0  0  0  0  0  0  0  0  0  0
  1  3  1  0
  2  1  2  0
  3  6  2  0
  4  2  1  0
  4  5  1  0
  5 10  1  0
  5  3  1  0
  7  4  2  0
  9 11  1  0
 10 12  2  0
 11 23  1  0
 11  8  2  0
 12  8  1  0
 12 53  1  0
 13  9  2  0
 13 10  1  0
 14 13  1  0
 15 23  1  0
 16 21  1  0
 17 18  1  0
 17 16  1  0
 19 18  1  0
 19 28  1  0
 19 20  1  0
 21 15  1  0
 21 20  1  0
 22 15  2  0
 23 24  1  0
 25 26  2  0
 26 45  1  0
 27 26  1  0
 27 30  1  0
 28 29  1  0
 28 25  1  0
 29 27  2  0
 30 31  1  0
 31 32  2  0
 33 36  1  0
 33 32  1  0
 34 33  2  0
 35 34  1  0
 35 30  2  0
 36 37  1  0
 37 42  2  0
 37 38  1  0
 38 39  2  0
 39 40  1  0
 40 44  1  0
 41 40  2  0
 42 41  1  0
 43 42  1  0
 45 46  1  0
 46 49  1  0
 46 48  1  0
 47 45  2  0
 50 25  1  0
 50 51  1  0
 52 50  1  0
 53 54  1  0
 55 53  1  0
 56 57  1  0
 56  2  1  0
 58 69  2  0
 59 57  1  0
 59 64  1  0
 60 68  1  0
 60 70  1  0
 61 67  1  0
 61 63  1  0
 62 68  1  0
 63 62  1  0
 64 63  2  0
 65 66  1  0
 65 59  2  0
 66 61  2  0
 67 60  1  0
 68 58  1  0
 70 72  2  0
 71 70  1  0
 73 71  1  0
 74 83  2  0
 74 79  1  0
 75 71  1  0
 75 79  1  0
 76 75  1  0
 77 78  1  0
 77 76  1  0
 78 74  1  0
 79 80  2  0
 80 81  1  0
 82 81  2  0
 83 82  1  0
 84 58  1  0
 84 89  1  0
 84 85  1  0
 85 88  1  1
 85 86  1  0
 87 85  1  0
 89 92  1  0
 90 94  1  0
 90 89  1  0
 91 90  2  0
 94 93  1  0
 96 94  1  0
 96 97  1  0
 96 95  1  0
M  ISO  4  15 100  23 100  56 101  57 101
M  END
>  <TORSDO>  (74) 
F 19

>  <SCORE>  (74) 
-12.836

>  <name>  (74) 
73

>  <ligand_id>  (74) 
73

>  <original_smiles>  (74) 
[H]C1=C(C([H])([H])Oc2c([H])c([H])c3c(c2[H])C([H])([H])N(C(=O)C([H])(N([H])C(=O)C([H])(N([H])C([H])([H])[H])C([H])([H])[H])C(C([H])([H])[H])(C([H])([H])[H])C([H])([H])[H])C([H])(C(=O)N([H])C2([H])c4c([H])c([H])c([H])c([H])c4C([H])([H])C([H])([H])C2([H])[H])C3([H])[H])C(=O)N(c2c(F)c([H])c(N([H])C(=O)N3C([H])([H])C([H])([H])C([H])([H])C([H])(n4nc(-c5c([H])c([H])c(Oc6c([H])c([H])c(F)c([H])c6F)c([H])c5[H])c(C(=O)N([H])[H])c4N([H])[H])C3([H])[H])c([H])c2N([H])[H])C1=O

>  <smiles>  (74) 
[H]C1=C(C([H])([H])Oc2c([H])c([H])c3c(c2[H])C([H])([H])N(C(=O)C([H])(N([H])C(=O)C([H])(N([H])C([H])([H])[H])C([H])([H])[H])C(C([H])([H])[H])(C([H])([H])[H])C([H])([H])[H])C([H])(C(=O)N([H])C2([H])c4c([H])c([H])c([H])c([H])c4C([H])([H])C([H])([H])C2([H])[H])C3([H])[H])C(=O)N(c2c(F)c([H])c(N([H])C(=O)N3C([H])([H])C([H])([H])C([H])([H])C([H])(n4nc(-c5c([H])c([H])c(Oc6c([H])c([H])c(F)c([H])c6F)c([H])c5[H])c(C(=O)N([H])[H])c4N([H])[H])C3([H])[H])c([H])c2N([H])[H])C1=O

$$$$
74:0:0
     RDKit          3D

 96104  0  0  1  0  0  0  0  0999 V2000
  -30.1880  -21.1270   21.9170 C   0  0  0  0  0  0  0  0  0  0  0  0
  -29.4050  -23.5090   21.6370 C   0  0  0  0  0  0  0  0  0  0  0  0
  -29.6500  -22.1460   21.1910 N   0  0  0  0  0  0  0  0  0  0  0  0
  -30.7020  -21.3340   23.1350 N   0  0  0  0  0  4  0  0  0  0  0  0
  -29.4940  -23.7940   22.8400 O   0  0  0  0  0  0  0  0  0  0  0  0
  -29.4930  -21.8780   20.2320 H   0  0  0  0  0  0  0  0  0  0  0  0
  -31.0460  -20.5630   23.6840 H   0  0  0  0  0  0  0  0  0  0  0  0
  -30.5940  -22.2470   23.5590 H   0  0  0  0  0  0  0  0  0  0  0  0
  -31.3830  -18.9260   21.6470 C   0  0  0  0  0  3  0  0  0  0  0  0
  -31.3670  -17.5330   21.3830 C   0  0  0  0  0  3  0  0  0  0  0  0
  -29.0740  -19.1140   20.9090 C   0  0  0  0  0  3  0  0  0  0  0  0
  -30.2300  -19.7260   21.4410 C   0  0  0  0  0  0  0  0  0  0  0  0
  -30.1820  -16.9150   20.9210 C   0  0  0  0  0  0  0  0  0  0  0  0
  -29.0490  -17.7220   20.6690 C   0  0  0  0  0  0  0  0  0  0  0  0
  -27.9090  -17.1390   20.2250 F   0  0  0  0  0  0  0  0  0  0  0  0
  -30.7390  -14.5700   20.1680 C   0  0  0  0  0  0  0  0  0  0  0  0
  -30.4050  -12.4670   18.9080 C   0  0  0  0  0  2  0  0  0  0  0  0
  -29.3850  -12.7230   17.7770 C   0  0  0  0  0  2  0  0  0  0  0  0
  -27.9370  -12.5660   18.2860 C   0  0  0  0  0  2  0  0  0  0  0  0
  -27.6780  -13.3370   19.6070 C   0  0  0  0  0  3  0  0  0  0  0  0
  -28.7940  -13.0350   20.6330 C   0  0  0  0  0  2  0  0  0  0  0  0
  -30.0860  -13.3850   20.0120 N   0  0  0  0  0  0  0  0  0  0  0  0
  -31.8380  -14.8070   19.6570 O   0  0  0  0  0  0  0  0  0  0  0  0
  -30.0060  -15.5040   20.8020 N   0  0  0  0  0  0  0  0  0  0  0  0
  -29.0870  -15.1840   21.0600 H   0  0  0  0  0  0  0  0  0  0  0  0
  -25.3210  -13.9290   20.4580 C   0  0  0  0  0  0  0  0  0  0  0  0
  -24.2710  -13.1460   20.8570 C   0  0  0  0  0  0  0  0  0  0  0  0
  -24.7280  -11.7960   20.7630 C   0  0  0  0  0  0  0  0  0  0  0  0
  -26.3510  -13.0540   20.1480 N   0  0  0  0  0  0  0  0  0  0  0  0
  -25.9990  -11.7640   20.3870 N   0  0  0  0  0  0  0  0  0  0  0  0
  -24.0100  -10.5290   20.9540 C   0  0  0  0  0  0  0  0  0  0  0  0
  -24.4500   -9.5650   21.8880 C   0  0  0  0  0  3  0  0  0  0  0  0
  -23.7330   -8.3630   22.0670 C   0  0  0  0  0  3  0  0  0  0  0  0
  -22.5620   -8.1170   21.3120 C   0  0  0  0  0  0  0  0  0  0  0  0
  -22.1400   -9.0700   20.3690 C   0  0  0  0  0  3  0  0  0  0  0  0
  -22.8580  -10.2640   20.1880 C   0  0  0  0  0  3  0  0  0  0  0  0
  -21.8160   -6.9650   21.3990 O   0  0  0  0  0  0  0  0  0  0  0  0
  -21.7240   -6.2550   22.5700 C   0  0  0  0  0  0  0  0  0  0  0  0
  -21.2130   -6.8310   23.7530 C   0  0  0  0  0  3  0  0  0  0  0  0
  -21.0700   -6.0460   24.9130 C   0  0  0  0  0  3  0  0  0  0  0  0
  -21.4280   -4.6840   24.8920 C   0  0  0  0  0  0  0  0  0  0  0  0
  -21.9340   -4.1080   23.7140 C   0  0  0  0  0  3  0  0  0  0  0  0
  -22.0780   -4.8910   22.5540 C   0  0  0  0  0  0  0  0  0  0  0  0
  -22.5450   -4.3250   21.4150 F   0  0  0  0  0  0  0  0  0  0  0  0
  -21.2850   -3.9280   26.0050 F   0  0  0  0  0  0  0  0  0  0  0  0
  -22.8920  -13.6170   21.2200 C   0  0  0  0  0  0  0  0  0  0  0  0
  -22.2080  -12.8920   22.0980 N   0  0  0  0  0  0  0  0  0  0  0  0
  -22.4310  -14.6610   20.7620 O   0  0  0  0  0  0  0  0  0  0  0  0
  -22.5940  -12.0460   22.4910 H   0  0  0  0  0  0  0  0  0  0  0  0
  -21.2850  -13.1880   22.3840 H   0  0  0  0  0  0  0  0  0  0  0  0
  -25.4770  -15.3040   20.3210 N   0  0  0  0  0  0  0  0  0  0  0  0
  -24.7240  -15.9510   20.5230 H   0  0  0  0  0  0  0  0  0  0  0  0
  -26.3380  -15.7760   20.0670 H   0  0  0  0  0  0  0  0  0  0  0  0
  -29.1040  -24.4860   20.5910 C   0  0  0  0  0  3  0  0  0  0  0  0
  -28.6770  -25.7310   20.9180 C   0  0  0  0  0  3  0  0  0  0  0  0
  -28.4850  -26.7370   19.9980 O   0  0  0  0  0  0  0  0  0  0  0  0
  -24.5940  -31.8560   23.1580 C   0  0  0  0  0  0  0  0  0  0  0  0
  -27.3190  -27.4650   20.0740 C   0  0  0  0  0  0  0  0  0  0  0  0
  -23.4230  -30.4610   21.4860 C   0  0  0  0  0  3  0  0  0  0  0  0
  -24.9100  -28.9460   20.0710 C   0  0  0  0  0  0  0  0  0  0  0  0
  -25.9480  -30.8430   21.3250 C   0  0  0  0  0  2  0  0  0  0  0  0
  -26.0560  -29.4760   20.6800 C   0  0  0  0  0  0  0  0  0  0  0  0
  -27.2660  -28.7420   20.6800 C   0  0  0  0  0  3  0  0  0  0  0  0
  -26.1590  -26.9450   19.4680 C   0  0  0  0  0  3  0  0  0  0  0  0
  -24.9550  -27.6780   19.4640 C   0  0  0  0  0  3  0  0  0  0  0  0
  -23.6580  -29.7940   20.1050 C   0  0  0  0  0  2  0  0  0  0  0  0
  -24.6720  -31.0680   22.0490 N   0  0  0  0  0  0  0  0  0  0  0  0
  -23.5040  -32.1130   23.6870 O   0  0  0  0  0  0  0  0  0  0  0  0
  -22.7670  -29.4250   22.4280 C   0  0  0  0  0  0  0  0  0  0  0  0
  -21.4400  -29.2590   22.3050 N   0  0  0  0  0  0  0  0  0  0  0  0
  -23.4490  -28.7750   23.2240 O   0  0  0  0  0  0  0  0  0  0  0  0
  -20.9520  -29.8360   21.6340 H   0  0  0  0  0  0  0  0  0  0  0  0
  -18.0490  -28.1340   22.8450 C   0  0  0  0  0  0  0  0  0  0  0  0
  -20.6190  -28.3110   23.0580 C   0  0  0  0  0  3  0  0  0  0  0  0
  -20.6670  -26.9040   22.4200 C   0  0  0  0  0  2  0  0  0  0  0  0
  -19.5300  -26.6540   21.4230 C   0  0  0  0  0  2  0  0  0  0  0  0
  -18.1700  -26.8090   22.1100 C   0  0  0  0  0  2  0  0  0  0  0  0
  -19.1990  -28.8460   23.2760 C   0  0  0  0  0  0  0  0  0  0  0  0
  -19.0320  -30.0890   23.9230 C   0  0  0  0  0  3  0  0  0  0  0  0
  -17.7460  -30.6190   24.1450 C   0  0  0  0  0  3  0  0  0  0  0  0
  -16.6100  -29.9020   23.7290 C   0  0  0  0  0  3  0  0  0  0  0  0
  -16.7630  -28.6610   23.0860 C   0  0  0  0  0  3  0  0  0  0  0  0
  -25.8670  -32.4910   23.8010 C   0  0  0  0  0  3  0  0  0  0  0  0
  -25.5430  -33.8830   24.1430 N   0  0  0  0  0  0  0  0  0  0  0  0
  -25.8870  -34.9460   23.4050 C   0  0  0  0  0  0  0  0  0  0  0  0
  -26.5810  -34.8600   22.3870 O   0  0  0  0  0  0  0  0  0  0  0  0
  -24.9290  -34.0240   24.9310 H   0  0  0  0  0  0  0  0  0  0  0  0
  -24.1680  -36.7410   23.0200 C   0  0  0  0  0  1  0  0  0  0  0  0
  -25.3810  -36.3260   23.8680 C   0  0  0  0  0  3  0  0  0  0  0  0
  -27.4780  -37.2050   24.7910 C   0  0  0  0  0  1  0  0  0  0  0  0
  -26.4140  -37.3820   23.8070 N   0  0  0  0  0  0  0  0  0  0  0  0
  -25.9990  -38.2990   23.9490 H   0  0  0  0  0  0  0  0  0  0  0  0
  -26.3780  -31.7090   25.0730 C   0  0  1  0  0  0  0  0  0  0  0  0
  -25.2750  -31.4420   26.1230 C   0  0  0  0  0  1  0  0  0  0  0  0
  -26.9850  -30.3450   24.6670 C   0  0  0  0  0  1  0  0  0  0  0  0
  -27.5090  -32.5090   25.7620 C   0  0  0  0  0  1  0  0  0  0  0  0
  1  4  2  0
  2  5  2  0
  3  2  1  0
  3  1  1  0
  4  8  1  0
  4  7  1  0
  6  3  1  0
 10  9  2  0
 11 12  2  0
 12  9  1  0
 12  1  1  0
 13 10  1  0
 14 11  1  0
 14 13  2  0
 15 14  1  0
 16 24  1  0
 17 22  1  0
 18 19  1  0
 18 17  1  0
 20 19  1  0
 20 29  1  0
 20 21  1  0
 22 16  1  0
 22 21  1  0
 23 16  2  0
 24 13  1  0
 24 25  1  0
 26 27  2  0
 27 46  1  0
 28 27  1  0
 28 31  1  0
 29 30  1  0
 29 26  1  0
 30 28  2  0
 31 32  1  0
 32 33  2  0
 34 37  1  0
 34 33  1  0
 35 34  2  0
 36 35  1  0
 36 31  2  0
 37 38  1  0
 38 39  1  0
 39 40  2  0
 41 40  1  0
 41 45  1  0
 42 41  2  0
 43 38  2  0
 43 42  1  0
 44 43  1  0
 46 47  1  0
 47 50  1  0
 47 49  1  0
 48 46  2  0
 51 26  1  0
 51 52  1  0
 53 51  1  0
 54 55  2  0
 54  2  1  0
 56 58  1  0
 56 55  1  0
 57 68  2  0
 58 63  1  0
 59 67  1  0
 59 69  1  0
 60 66  1  0
 60 62  1  0
 61 67  1  0
 62 63  2  0
 62 61  1  0
 64 58  2  0
 65 64  1  0
 65 60  2  0
 66 59  1  0
 67 57  1  0
 69 71  2  0
 70 69  1  0
 72 70  1  0
 73 82  2  0
 73 78  1  0
 74 70  1  0
 74 78  1  0
 75 74  1  0
 76 77  1  0
 76 75  1  0
 77 73  1  0
 78 79  2  0
 79 80  1  0
 81 80  2  0
 82 81  1  0
 83 57  1  0
 83 84  1  0
 83 93  1  0
 84 87  1  0
 85 89  1  0
 85 84  1  0
 86 85  2  0
 89 88  1  0
 91 89  1  0
 91 92  1  0
 91 90  1  0
 93 96  1  1
 93 94  1  0
 95 93  1  0
M  ISO  4  16 100  24 100  55 101  56 101
M  END
>  <TORSDO>  (75) 
F 18

>  <SCORE>  (75) 
-14.923

>  <name>  (75) 
74

>  <ligand_id>  (75) 
74

>  <original_smiles>  (75) 
[H]C(Oc1c([H])c([H])c2c(c1[H])C([H])([H])N(C(=O)C([H])(N([H])C(=O)C([H])(N([H])C([H])([H])[H])C([H])([H])[H])C(C([H])([H])[H])(C([H])([H])[H])C([H])([H])[H])C([H])(C(=O)N([H])C1([H])c3c([H])c([H])c([H])c([H])c3C([H])([H])C([H])([H])C1([H])[H])C2([H])[H])=C([H])C(=O)N([H])C(c1c([H])c([H])c(N([H])C(=O)N2C([H])([H])C([H])([H])C([H])([H])C([H])(n3nc(-c4c([H])c([H])c(Oc5c([H])c([H])c(F)c([H])c5F)c([H])c4[H])c(C(=O)N([H])[H])c3N([H])[H])C2([H])[H])c(F)c1[H])=[N+]([H])[H]

>  <smiles>  (75) 
[H]C(Oc1c([H])c([H])c2c(c1[H])C([H])([H])N(C(=O)C([H])(N([H])C(=O)C([H])(N([H])C([H])([H])[H])C([H])([H])[H])C(C([H])([H])[H])(C([H])([H])[H])C([H])([H])[H])C([H])(C(=O)N([H])C1([H])c3c([H])c([H])c([H])c([H])c3C([H])([H])C([H])([H])C1([H])[H])C2([H])[H])=C([H])C(=O)N([H])C(c1c([H])c([H])c(N([H])C(=O)N2C([H])([H])C([H])([H])C([H])([H])C([H])(n3nc(-c4c([H])c([H])c(Oc5c([H])c([H])c(F)c([H])c5F)c([H])c4[H])c(C(=O)N([H])[H])c3N([H])[H])C2([H])[H])c(F)c1[H])=[N+]([H])[H]

$$$$
75:0:0
     RDKit          3D

 92101  0  0  1  0  0  0  0  0999 V2000
  -28.5330  -23.7840   20.4570 C   0  0  0  0  0  0  0  0  0  0  0  0
  -28.0270  -22.5530   21.0520 C   0  0  0  0  0  0  0  0  0  0  0  0
  -28.0250  -25.0730   20.6320 C   0  0  0  0  0  3  0  0  0  0  0  0
  -29.6300  -22.9410   19.7370 C   0  0  0  0  0  2  0  0  0  0  0  0
  -29.0100  -21.7640   20.4190 N   0  0  0  0  0  0  0  0  0  0  0  0
  -27.0890  -22.3590   21.7980 O   0  0  0  0  0  0  0  0  0  0  0  0
  -30.4850  -19.6790   19.6990 C   0  0  0  0  0  3  0  0  0  0  0  0
  -30.7350  -18.2510   19.6760 C   0  0  0  0  0  3  0  0  0  0  0  0
  -28.5160  -19.3290   20.9340 C   0  0  0  0  0  3  0  0  0  0  0  0
  -29.3590  -20.3110   20.3300 C   0  0  0  0  0  0  0  0  0  0  0  0
  -29.8530  -17.3120   20.2900 C   0  0  0  0  0  0  0  0  0  0  0  0
  -28.7360  -17.9170   20.9170 C   0  0  0  0  0  0  0  0  0  0  0  0
  -27.8300  -17.1090   21.5210 F   0  0  0  0  0  0  0  0  0  0  0  0
  -30.7090  -14.8220   19.7990 C   0  0  0  0  0  0  0  0  0  0  0  0
  -30.4900  -12.5900   18.6820 C   0  0  0  0  0  2  0  0  0  0  0  0
  -29.4410  -12.7090   17.5510 C   0  0  0  0  0  2  0  0  0  0  0  0
  -28.0130  -12.5000   18.0940 C   0  0  0  0  0  2  0  0  0  0  0  0
  -27.7410  -13.3180   19.3850 C   0  0  0  0  0  3  0  0  0  0  0  0
  -28.8920  -13.1530   20.4030 C   0  0  0  0  0  2  0  0  0  0  0  0
  -30.1370  -13.5690   19.7350 N   0  0  0  0  0  0  0  0  0  0  0  0
  -31.8230  -15.0270   19.3060 O   0  0  0  0  0  0  0  0  0  0  0  0
  -29.9140  -15.8270   20.3180 N   0  0  0  0  0  0  0  0  0  0  0  0
  -29.1070  -15.4380   20.7840 H   0  0  0  0  0  0  0  0  0  0  0  0
  -25.4210  -13.8610   20.3420 C   0  0  0  0  0  0  0  0  0  0  0  0
  -24.3900  -13.0630   20.7560 C   0  0  0  0  0  0  0  0  0  0  0  0
  -24.8450  -11.7180   20.6050 C   0  0  0  0  0  0  0  0  0  0  0  0
  -26.4410  -13.0000   19.9670 N   0  0  0  0  0  0  0  0  0  0  0  0
  -26.1050  -11.7030   20.1840 N   0  0  0  0  0  0  0  0  0  0  0  0
  -24.1350  -10.4440   20.7810 C   0  0  0  0  0  0  0  0  0  0  0  0
  -24.6290   -9.4360   21.6360 C   0  0  0  0  0  3  0  0  0  0  0  0
  -23.9190   -8.2270   21.8030 C   0  0  0  0  0  3  0  0  0  0  0  0
  -22.7000   -8.0200   21.1160 C   0  0  0  0  0  0  0  0  0  0  0  0
  -22.2240   -9.0190   20.2470 C   0  0  0  0  0  3  0  0  0  0  0  0
  -22.9350  -10.2170   20.0780 C   0  0  0  0  0  3  0  0  0  0  0  0
  -21.9550   -6.8680   21.1960 O   0  0  0  0  0  0  0  0  0  0  0  0
  -21.9620   -6.0830   22.3210 C   0  0  0  0  0  0  0  0  0  0  0  0
  -21.6090   -6.5950   23.5890 C   0  0  0  0  0  3  0  0  0  0  0  0
  -21.5640   -5.7370   24.7070 C   0  0  0  0  0  3  0  0  0  0  0  0
  -21.8610   -4.3690   24.5580 C   0  0  0  0  0  0  0  0  0  0  0  0
  -22.2070   -3.8580   23.2950 C   0  0  0  0  0  3  0  0  0  0  0  0
  -22.2550   -4.7110   22.1790 C   0  0  0  0  0  0  0  0  0  0  0  0
  -22.5680   -4.2080   20.9610 F   0  0  0  0  0  0  0  0  0  0  0  0
  -21.8100   -3.5440   25.6290 F   0  0  0  0  0  0  0  0  0  0  0  0
  -23.0220  -13.5190   21.1780 C   0  0  0  0  0  0  0  0  0  0  0  0
  -22.3790  -12.7800   22.0740 N   0  0  0  0  0  0  0  0  0  0  0  0
  -22.5360  -14.5640   20.7470 O   0  0  0  0  0  0  0  0  0  0  0  0
  -22.7870  -11.9330   22.4420 H   0  0  0  0  0  0  0  0  0  0  0  0
  -21.4660  -13.0660   22.4000 H   0  0  0  0  0  0  0  0  0  0  0  0
  -25.5710  -15.2400   20.2320 N   0  0  0  0  0  0  0  0  0  0  0  0
  -24.8230  -15.8840   20.4630 H   0  0  0  0  0  0  0  0  0  0  0  0
  -26.4030  -15.7070   19.8970 H   0  0  0  0  0  0  0  0  0  0  0  0
  -28.3510  -26.3770   20.1520 O   0  0  0  0  0  0  0  0  0  0  0  0
  -24.6480  -31.8910   23.1380 C   0  0  0  0  0  0  0  0  0  0  0  0
  -27.2830  -27.3060   20.1010 C   0  0  0  0  0  0  0  0  0  0  0  0
  -23.4500  -30.4690   21.5160 C   0  0  0  0  0  3  0  0  0  0  0  0
  -24.9100  -28.9240   20.0870 C   0  0  0  0  0  0  0  0  0  0  0  0
  -25.9890  -30.8020   21.3190 C   0  0  0  0  0  2  0  0  0  0  0  0
  -26.0810  -29.4170   20.6780 C   0  0  0  0  0  0  0  0  0  0  0  0
  -27.2720  -28.6200   20.6780 C   0  0  0  0  0  3  0  0  0  0  0  0
  -26.0930  -26.8820   19.4710 C   0  0  0  0  0  3  0  0  0  0  0  0
  -24.9210  -27.6620   19.4710 C   0  0  0  0  0  3  0  0  0  0  0  0
  -23.6640  -29.7870   20.1400 C   0  0  0  0  0  2  0  0  0  0  0  0
  -24.7150  -31.0730   22.0470 N   0  0  0  0  0  0  0  0  0  0  0  0
  -23.5650  -32.1620   23.6770 O   0  0  0  0  0  0  0  0  0  0  0  0
  -22.8020  -29.4540   22.4890 C   0  0  0  0  0  0  0  0  0  0  0  0
  -21.4720  -29.2780   22.3860 N   0  0  0  0  0  0  0  0  0  0  0  0
  -23.4930  -28.8270   23.2950 O   0  0  0  0  0  0  0  0  0  0  0  0
  -20.9720  -29.8360   21.7080 H   0  0  0  0  0  0  0  0  0  0  0  0
  -18.1030  -28.0850   22.9540 C   0  0  0  0  0  0  0  0  0  0  0  0
  -20.6670  -28.3410   23.1710 C   0  0  0  0  0  3  0  0  0  0  0  0
  -20.7540  -26.9090   22.5920 C   0  0  0  0  0  2  0  0  0  0  0  0
  -19.6310  -26.5910   21.6000 C   0  0  0  0  0  2  0  0  0  0  0  0
  -18.2630  -26.7370   22.2720 C   0  0  0  0  0  2  0  0  0  0  0  0
  -19.2320  -28.8450   23.3620 C   0  0  0  0  0  0  0  0  0  0  0  0
  -19.0260  -30.1070   23.9620 C   0  0  0  0  0  3  0  0  0  0  0  0
  -17.7260  -30.6100   24.1560 C   0  0  0  0  0  3  0  0  0  0  0  0
  -16.6120  -29.8470   23.7630 C   0  0  0  0  0  3  0  0  0  0  0  0
  -16.8020  -28.5870   23.1670 C   0  0  0  0  0  3  0  0  0  0  0  0
  -25.9270  -32.5430   23.7480 C   0  0  0  0  0  3  0  0  0  0  0  0
  -25.6030  -33.9380   24.0780 N   0  0  0  0  0  0  0  0  0  0  0  0
  -25.9140  -34.9940   23.3150 C   0  0  0  0  0  0  0  0  0  0  0  0
  -26.5760  -34.8980   22.2780 O   0  0  0  0  0  0  0  0  0  0  0  0
  -25.0120  -34.0850   24.8840 H   0  0  0  0  0  0  0  0  0  0  0  0
  -24.1600  -36.7660   22.9800 C   0  0  0  0  0  1  0  0  0  0  0  0
  -25.4160  -36.3770   23.7760 C   0  0  0  0  0  3  0  0  0  0  0  0
  -27.5510  -37.2890   24.5790 C   0  0  0  0  0  1  0  0  0  0  0  0
  -26.4340  -37.4430   23.6500 N   0  0  0  0  0  0  0  0  0  0  0  0
  -26.0190  -38.3590   23.8010 H   0  0  0  0  0  0  0  0  0  0  0  0
  -26.4640  -31.7810   25.0230 C   0  0  1  0  0  0  0  0  0  0  0  0
  -25.3820  -31.5370   26.1020 C   0  0  0  0  0  1  0  0  0  0  0  0
  -27.0590  -30.4090   24.6340 C   0  0  0  0  0  1  0  0  0  0  0  0
  -27.6100  -32.5930   25.6730 C   0  0  0  0  0  1  0  0  0  0  0  0
  1  3  2  0
  1  2  1  0
  2  6  2  0
  4  5  1  0
  4  1  1  0
  5  2  1  0
  7 10  1  0
  8  7  2  0
  8 11  1  0
 10  5  1  0
 10  9  2  0
 11 22  1  0
 11 12  2  0
 12  9  1  0
 12 13  1  0
 14 22  1  0
 15 20  1  0
 16 17  1  0
 16 15  1  0
 18 17  1  0
 18 27  1  0
 18 19  1  0
 20 14  1  0
 20 19  1  0
 21 14  2  0
 22 23  1  0
 24 25  2  0
 25 44  1  0
 26 25  1  0
 26 29  1  0
 27 28  1  0
 27 24  1  0
 28 26  2  0
 29 30  1  0
 30 31  2  0
 32 35  1  0
 32 31  1  0
 33 32  2  0
 34 33  1  0
 34 29  2  0
 35 36  1  0
 36 37  1  0
 37 38  2  0
 39 38  1  0
 39 43  1  0
 40 39  2  0
 41 36  2  0
 41 40  1  0
 42 41  1  0
 44 45  1  0
 45 48  1  0
 45 47  1  0
 46 44  2  0
 49 24  1  0
 49 50  1  0
 51 49  1  0
 52  3  1  0
 53 64  2  0
 54 52  1  0
 54 59  1  0
 55 63  1  0
 55 65  1  0
 56 62  1  0
 56 58  1  0
 57 63  1  0
 58 57  1  0
 59 58  2  0
 60 54  2  0
 61 60  1  0
 61 56  2  0
 62 55  1  0
 63 53  1  0
 65 67  2  0
 66 65  1  0
 68 66  1  0
 69 78  2  0
 69 74  1  0
 70 66  1  0
 70 74  1  0
 71 70  1  0
 72 73  1  0
 72 71  1  0
 73 69  1  0
 74 75  2  0
 75 76  1  0
 77 76  2  0
 78 77  1  0
 79 53  1  0
 79 80  1  0
 79 89  1  0
 80 83  1  0
 81 85  1  0
 81 80  1  0
 82 81  2  0
 85 84  1  0
 87 85  1  0
 87 88  1  0
 87 86  1  0
 89 92  1  1
 89 90  1  0
 91 89  1  0
M  ISO  4   3 101  14 100  22 100  52 101
M  END
>  <TORSDO>  (76) 
F 17

>  <SCORE>  (76) 
-12.991

>  <name>  (76) 
75

>  <ligand_id>  (76) 
75

>  <original_smiles>  (76) 
[H]C(Oc1c([H])c([H])c2c(c1[H])C([H])([H])N(C(=O)C([H])(N([H])C(=O)C([H])(N([H])C([H])([H])[H])C([H])([H])[H])C(C([H])([H])[H])(C([H])([H])[H])C([H])([H])[H])C([H])(C(=O)N([H])C1([H])c3c([H])c([H])c([H])c([H])c3C([H])([H])C([H])([H])C1([H])[H])C2([H])[H])=C1C(=O)N(c2c([H])c([H])c(N([H])C(=O)N3C([H])([H])C([H])([H])C([H])([H])C([H])(n4nc(-c5c([H])c([H])c(Oc6c([H])c([H])c(F)c([H])c6F)c([H])c5[H])c(C(=O)N([H])[H])c4N([H])[H])C3([H])[H])c(F)c2[H])C1([H])[H]

>  <smiles>  (76) 
[H]C(Oc1c([H])c([H])c2c(c1[H])C([H])([H])N(C(=O)C([H])(N([H])C(=O)C([H])(N([H])C([H])([H])[H])C([H])([H])[H])C(C([H])([H])[H])(C([H])([H])[H])C([H])([H])[H])C([H])(C(=O)N([H])C1([H])c3c([H])c([H])c([H])c([H])c3C([H])([H])C([H])([H])C1([H])[H])C2([H])[H])=C1C(=O)N(c2c([H])c([H])c(N([H])C(=O)N3C([H])([H])C([H])([H])C([H])([H])C([H])(n4nc(-c5c([H])c([H])c(Oc6c([H])c([H])c(F)c([H])c6F)c([H])c5[H])c(C(=O)N([H])[H])c4N([H])[H])C3([H])[H])c(F)c2[H])C1([H])[H]

$$$$
76:0:0
     RDKit          3D

 99108  0  0  1  0  0  0  0  0999 V2000
  -28.8190  -24.0810   20.7030 C   0  0  0  0  0  0  0  0  0  0  0  0
  -28.8380  -23.6090   22.0710 C   0  0  0  0  0  0  0  0  0  0  0  0
  -29.1270  -22.9280   19.7310 C   0  0  0  0  0  0  0  0  0  0  0  0
  -29.6150  -24.1690   23.0170 C   0  0  0  0  0  2  0  0  0  0  0  0
  -28.5400  -25.4670   20.6020 C   0  0  0  0  0  3  0  0  0  0  0  0
  -28.0050  -22.4080   22.3600 C   0  0  0  0  0  2  0  0  0  0  0  0
  -28.5850  -21.2530   21.5530 C   0  0  0  0  0  2  0  0  0  0  0  0
  -29.1430  -21.5630   20.2140 N   0  0  0  0  0  0  0  0  0  0  0  0
  -29.3590  -23.1890   18.5470 O   0  0  0  0  0  0  0  0  0  0  0  0
  -30.1110  -20.2790   18.2170 C   0  0  0  0  0  3  0  0  0  0  0  0
  -30.6360  -17.8650   18.2250 C   0  0  0  0  0  3  0  0  0  0  0  0
  -29.6510  -18.9230   20.1660 C   0  0  0  0  0  3  0  0  0  0  0  0
  -30.5710  -19.1120   17.5530 C   0  0  0  0  0  0  0  0  0  0  0  0
  -29.6370  -20.2730   19.5520 C   0  0  0  0  0  0  0  0  0  0  0  0
  -30.1600  -17.6940   19.5410 C   0  0  0  0  0  0  0  0  0  0  0  0
  -30.8720  -15.1460   19.8600 C   0  0  0  0  0  0  0  0  0  0  0  0
  -30.6790  -12.8060   18.9950 C   0  0  0  0  0  2  0  0  0  0  0  0
  -29.6850  -12.8080   17.8100 C   0  0  0  0  0  2  0  0  0  0  0  0
  -28.2370  -12.6220   18.3070 C   0  0  0  0  0  2  0  0  0  0  0  0
  -27.9010  -13.5380   19.5150 C   0  0  0  0  0  3  0  0  0  0  0  0
  -29.0190  -13.5330   20.5820 C   0  0  0  0  0  2  0  0  0  0  0  0
  -30.2770  -13.8980   19.9190 N   0  0  0  0  0  0  0  0  0  0  0  0
  -32.0330  -15.2250   19.4490 O   0  0  0  0  0  0  0  0  0  0  0  0
  -30.1140  -16.3020   20.1290 N   0  0  0  0  0  0  0  0  0  0  0  0
  -29.3060  -16.1230   20.7040 H   0  0  0  0  0  0  0  0  0  0  0  0
  -25.5760  -14.1190   20.4350 C   0  0  0  0  0  0  0  0  0  0  0  0
  -24.5240  -13.3420   20.8410 C   0  0  0  0  0  0  0  0  0  0  0  0
  -24.9670  -11.9870   20.7260 C   0  0  0  0  0  0  0  0  0  0  0  0
  -26.5890  -13.2390   20.0880 N   0  0  0  0  0  0  0  0  0  0  0  0
  -26.2340  -11.9510   20.3280 N   0  0  0  0  0  0  0  0  0  0  0  0
  -24.2350  -10.7270   20.9160 C   0  0  0  0  0  0  0  0  0  0  0  0
  -24.6410   -9.7680   21.8710 C   0  0  0  0  0  3  0  0  0  0  0  0
  -23.9050   -8.5770   22.0500 C   0  0  0  0  0  3  0  0  0  0  0  0
  -22.7490   -8.3330   21.2720 C   0  0  0  0  0  0  0  0  0  0  0  0
  -22.3610   -9.2780   20.3050 C   0  0  0  0  0  3  0  0  0  0  0  0
  -23.0980  -10.4610   20.1260 C   0  0  0  0  0  3  0  0  0  0  0  0
  -21.9920   -7.1870   21.3520 O   0  0  0  0  0  0  0  0  0  0  0  0
  -21.8260   -6.5190   22.5380 C   0  0  0  0  0  0  0  0  0  0  0  0
  -21.2320   -7.1340   23.6610 C   0  0  0  0  0  3  0  0  0  0  0  0
  -21.0140   -6.3900   24.8380 C   0  0  0  0  0  3  0  0  0  0  0  0
  -21.3830   -5.0320   24.8910 C   0  0  0  0  0  0  0  0  0  0  0  0
  -21.9700   -4.4170   23.7710 C   0  0  0  0  0  3  0  0  0  0  0  0
  -22.1910   -5.1600   22.5980 C   0  0  0  0  0  0  0  0  0  0  0  0
  -22.7390   -4.5580   21.5140 F   0  0  0  0  0  0  0  0  0  0  0  0
  -21.1640   -4.3150   26.0160 F   0  0  0  0  0  0  0  0  0  0  0  0
  -23.1580  -13.8300   21.2230 C   0  0  0  0  0  0  0  0  0  0  0  0
  -22.4740  -13.1210   22.1150 N   0  0  0  0  0  0  0  0  0  0  0  0
  -22.7040  -14.8810   20.7700 O   0  0  0  0  0  0  0  0  0  0  0  0
  -22.8480  -12.2740   22.5160 H   0  0  0  0  0  0  0  0  0  0  0  0
  -21.5640  -13.4480   22.4100 H   0  0  0  0  0  0  0  0  0  0  0  0
  -25.7400  -15.4930   20.3030 N   0  0  0  0  0  0  0  0  0  0  0  0
  -24.9800  -16.1370   20.4800 H   0  0  0  0  0  0  0  0  0  0  0  0
  -26.5650  -15.9490   19.9340 H   0  0  0  0  0  0  0  0  0  0  0  0
  -31.0150  -19.1930   16.1170 C   0  0  0  0  0  0  0  0  0  0  0  0
  -30.3470  -20.0430   15.3470 N   0  0  0  0  0  0  0  0  0  0  0  0
  -31.8900  -18.4560   15.6640 O   0  0  0  0  0  0  0  0  0  0  0  0
  -29.5900  -20.5820   15.7380 H   0  0  0  0  0  0  0  0  0  0  0  0
  -30.5530  -20.1210   14.3590 H   0  0  0  0  0  0  0  0  0  0  0  0
  -28.4600  -26.5240   19.6420 O   0  0  0  0  0  0  0  0  0  0  0  0
  -24.6790  -31.7910   23.1260 C   0  0  0  0  0  0  0  0  0  0  0  0
  -27.3800  -27.4480   19.7460 C   0  0  0  0  0  0  0  0  0  0  0  0
  -23.4890  -30.4420   21.4380 C   0  0  0  0  0  3  0  0  0  0  0  0
  -24.9670  -29.0250   19.8910 C   0  0  0  0  0  0  0  0  0  0  0  0
  -26.0180  -30.8500   21.2190 C   0  0  0  0  0  2  0  0  0  0  0  0
  -26.1400  -29.5070   20.4880 C   0  0  0  0  0  0  0  0  0  0  0  0
  -27.3510  -28.7320   20.4070 C   0  0  0  0  0  3  0  0  0  0  0  0
  -26.1790  -27.0420   19.1340 C   0  0  0  0  0  3  0  0  0  0  0  0
  -24.9940  -27.8040   19.1980 C   0  0  0  0  0  3  0  0  0  0  0  0
  -23.6970  -29.8520   20.0190 C   0  0  0  0  0  2  0  0  0  0  0  0
  -24.7480  -31.0440   21.9830 N   0  0  0  0  0  0  0  0  0  0  0  0
  -23.6000  -31.9940   23.7030 O   0  0  0  0  0  0  0  0  0  0  0  0
  -22.8860  -29.3510   22.3580 C   0  0  0  0  0  0  0  0  0  0  0  0
  -21.5690  -29.1070   22.2350 N   0  0  0  0  0  0  0  0  0  0  0  0
  -23.6060  -28.7260   23.1430 O   0  0  0  0  0  0  0  0  0  0  0  0
  -21.0440  -29.6630   21.5730 H   0  0  0  0  0  0  0  0  0  0  0  0
  -18.2790  -27.6680   22.6840 C   0  0  0  0  0  0  0  0  0  0  0  0
  -20.8140  -28.0910   22.9700 C   0  0  0  0  0  3  0  0  0  0  0  0
  -21.0130  -26.6910   22.3460 C   0  0  0  0  0  2  0  0  0  0  0  0
  -19.9370  -26.3310   21.3180 C   0  0  0  0  0  2  0  0  0  0  0  0
  -18.5470  -26.3600   21.9580 C   0  0  0  0  0  2  0  0  0  0  0  0
  -19.3420  -28.4880   23.1450 C   0  0  0  0  0  0  0  0  0  0  0  0
  -19.0390  -29.7100   23.7840 C   0  0  0  0  0  3  0  0  0  0  0  0
  -17.7020  -30.1140   23.9650 C   0  0  0  0  0  3  0  0  0  0  0  0
  -16.6520  -29.2910   23.5180 C   0  0  0  0  0  3  0  0  0  0  0  0
  -16.9420  -28.0710   22.8830 C   0  0  0  0  0  3  0  0  0  0  0  0
  -25.9500  -32.4420   23.7530 C   0  0  0  0  0  3  0  0  0  0  0  0
  -25.5990  -33.8130   24.1480 N   0  0  0  0  0  0  0  0  0  0  0  0
  -25.8830  -34.9110   23.4340 C   0  0  0  0  0  0  0  0  0  0  0  0
  -26.5380  -34.8750   22.3890 O   0  0  0  0  0  0  0  0  0  0  0  0
  -25.0160  -33.9110   24.9680 H   0  0  0  0  0  0  0  0  0  0  0  0
  -24.0960  -36.6650   23.1850 C   0  0  0  0  0  1  0  0  0  0  0  0
  -25.3590  -36.2610   23.9630 C   0  0  0  0  0  3  0  0  0  0  0  0
  -27.4730  -37.1780   24.8140 C   0  0  0  0  0  1  0  0  0  0  0  0
  -26.3570  -37.3520   23.8870 N   0  0  0  0  0  0  0  0  0  0  0  0
  -25.9220  -38.2510   24.0760 H   0  0  0  0  0  0  0  0  0  0  0  0
  -26.5120  -31.6380   24.9910 C   0  0  1  0  0  0  0  0  0  0  0  0
  -25.4420  -31.3270   26.0630 C   0  0  0  0  0  1  0  0  0  0  0  0
  -27.1320  -30.2960   24.5390 C   0  0  0  0  0  1  0  0  0  0  0  0
  -27.6460  -32.4420   25.6670 C   0  0  0  0  0  1  0  0  0  0  0  0
  1  2  1  0
  2  6  1  0
  2  4  2  0
  3  8  1  0
  3  1  1  0
  5  1  2  0
  7  6  1  0
  8  7  1  0
  9  3  2  0
 10 14  1  0
 11 15  2  0
 13 10  2  0
 13 11  1  0
 14 12  2  0
 14  8  1  0
 15 24  1  0
 15 12  1  0
 16 22  1  0
 16 24  1  0
 17 22  1  0
 18 19  1  0
 18 17  1  0
 20 19  1  0
 20 29  1  0
 20 21  1  0
 22 21  1  0
 23 16  2  0
 24 25  1  0
 26 27  2  0
 27 46  1  0
 28 27  1  0
 28 31  1  0
 29 30  1  0
 29 26  1  0
 30 28  2  0
 31 32  1  0
 32 33  2  0
 34 37  1  0
 34 33  1  0
 35 34  2  0
 36 35  1  0
 36 31  2  0
 37 38  1  0
 38 43  2  0
 38 39  1  0
 39 40  2  0
 40 41  1  0
 41 45  1  0
 42 41  2  0
 43 42  1  0
 44 43  1  0
 46 47  1  0
 47 50  1  0
 47 49  1  0
 48 46  2  0
 51 26  1  0
 51 52  1  0
 53 51  1  0
 54 13  1  0
 55 57  1  0
 55 54  1  0
 56 54  2  0
 58 55  1  0
 59 61  1  0
 59  5  1  0
 60 71  2  0
 61 66  1  0
 62 70  1  0
 62 72  1  0
 63 69  1  0
 63 65  1  0
 64 70  1  0
 65 64  1  0
 66 65  2  0
 67 68  1  0
 67 61  2  0
 68 63  2  0
 69 62  1  0
 70 60  1  0
 72 74  2  0
 73 72  1  0
 75 73  1  0
 76 85  2  0
 76 81  1  0
 77 73  1  0
 77 81  1  0
 78 77  1  0
 79 80  1  0
 79 78  1  0
 80 76  1  0
 81 82  2  0
 82 83  1  0
 84 83  2  0
 85 84  1  0
 86 60  1  0
 86 87  1  0
 86 96  1  0
 87 90  1  0
 88 92  1  0
 88 87  1  0
 89 88  2  0
 92 91  1  0
 94 92  1  0
 94 95  1  0
 94 93  1  0
 96 99  1  1
 96 97  1  0
 98 96  1  0
M  ISO  4   5 101  16 100  24 100  59 101
M  END
>  <TORSDO>  (77) 
F 18

>  <SCORE>  (77) 
-13.633

>  <name>  (77) 
76

>  <ligand_id>  (77) 
76

>  <original_smiles>  (77) 
[H]C([H])=C1C(=C([H])Oc2c([H])c([H])c3c(c2[H])C([H])([H])N(C(=O)C([H])(N([H])C(=O)C([H])(N([H])C([H])([H])[H])C([H])([H])[H])C(C([H])([H])[H])(C([H])([H])[H])C([H])([H])[H])C([H])(C(=O)N([H])C2([H])c4c([H])c([H])c([H])c([H])c4C([H])([H])C([H])([H])C2([H])[H])C3([H])[H])C(=O)N(c2c([H])c(C(=O)N([H])[H])c([H])c(N([H])C(=O)N3C([H])([H])C([H])([H])C([H])([H])C([H])(n4nc(-c5c([H])c([H])c(Oc6c([H])c([H])c(F)c([H])c6F)c([H])c5[H])c(C(=O)N([H])[H])c4N([H])[H])C3([H])[H])c2[H])C([H])([H])C1([H])[H]

>  <smiles>  (77) 
[H]C([H])=C1C(=C([H])Oc2c([H])c([H])c3c(c2[H])C([H])([H])N(C(=O)C([H])(N([H])C(=O)C([H])(N([H])C([H])([H])[H])C([H])([H])[H])C(C([H])([H])[H])(C([H])([H])[H])C([H])([H])[H])C([H])(C(=O)N([H])C2([H])c4c([H])c([H])c([H])c([H])c4C([H])([H])C([H])([H])C2([H])[H])C3([H])[H])C(=O)N(c2c([H])c(C(=O)N([H])[H])c([H])c(N([H])C(=O)N3C([H])([H])C([H])([H])C([H])([H])C([H])(n4nc(-c5c([H])c([H])c(Oc6c([H])c([H])c(F)c([H])c6F)c([H])c5[H])c(C(=O)N([H])[H])c4N([H])[H])C3([H])[H])c2[H])C([H])([H])C1([H])[H]

$$$$
77:0:0
     RDKit          3D

 94103  0  0  1  0  0  0  0  0999 V2000
  -28.8680  -24.1310   20.1300 C   0  0  0  0  0  0  0  0  0  0  0  0
  -28.1120  -22.8820   20.2320 C   0  0  0  0  0  0  0  0  0  0  0  0
  -28.2760  -25.3260   20.4120 C   0  0  0  0  0  3  0  0  0  0  0  0
  -30.2640  -23.8490   19.6620 C   0  0  0  0  0  3  0  0  0  0  0  0
  -30.2310  -22.3240   19.4210 C   0  0  0  0  0  3  0  0  0  0  0  0
  -28.9140  -21.8380   19.8680 N   0  0  0  0  0  0  0  0  0  0  0  0
  -26.9210  -22.8030   20.5590 O   0  0  0  0  0  0  0  0  0  0  0  0
  -26.9970  -18.5460   20.2270 C   0  0  0  0  0  3  0  0  0  0  0  0
  -27.9780  -17.5950   19.9070 C   0  0  0  0  0  3  0  0  0  0  0  0
  -27.2980  -19.9230   20.2260 C   0  0  0  0  0  3  0  0  0  0  0  0
  -29.5610  -19.4160   19.5390 C   0  0  0  0  0  3  0  0  0  0  0  0
  -29.2820  -18.0110   19.5590 C   0  0  0  0  0  0  0  0  0  0  0  0
  -28.5850  -20.4080   19.8730 C   0  0  0  0  0  0  0  0  0  0  0  0
  -31.0200  -14.6470   19.4970 C   0  0  0  0  0  0  0  0  0  0  0  0
  -30.9390  -12.2350   19.0030 C   0  0  0  0  0  2  0  0  0  0  0  0
  -29.9050  -11.9840   17.8860 C   0  0  0  0  0  2  0  0  0  0  0  0
  -28.5040  -11.7800   18.4900 C   0  0  0  0  0  2  0  0  0  0  0  0
  -28.1220  -12.9060   19.4890 C   0  0  0  0  0  3  0  0  0  0  0  0
  -29.2600  -13.1330   20.5120 C   0  0  0  0  0  2  0  0  0  0  0  0
  -30.4910  -13.4180   19.7610 N   0  0  0  0  0  0  0  0  0  0  0  0
  -32.1320  -14.7550   18.9720 O   0  0  0  0  0  0  0  0  0  0  0  0
  -30.3820  -16.9940   19.2790 C   0  0  0  0  0  0  0  0  0  0  0  0
  -30.1870  -15.7080   19.6780 N   0  0  0  0  0  0  0  0  0  0  0  0
  -31.3810  -17.3910   18.6650 O   0  0  0  0  0  0  0  0  0  0  0  0
  -29.3090  -15.5100   20.1240 H   0  0  0  0  0  0  0  0  0  0  0  0
  -25.8880  -13.5160   20.6150 C   0  0  0  0  0  0  0  0  0  0  0  0
  -24.8510  -12.7420   21.0650 C   0  0  0  0  0  0  0  0  0  0  0  0
  -25.2340  -11.3880   20.8280 C   0  0  0  0  0  0  0  0  0  0  0  0
  -26.8440  -12.6290   20.1420 N   0  0  0  0  0  0  0  0  0  0  0  0
  -26.4610  -11.3380   20.3260 N   0  0  0  0  0  0  0  0  0  0  0  0
  -24.4840  -10.1360   20.9930 C   0  0  0  0  0  0  0  0  0  0  0  0
  -24.8870   -9.1490   21.9210 C   0  0  0  0  0  3  0  0  0  0  0  0
  -24.1390   -7.9610   22.0710 C   0  0  0  0  0  3  0  0  0  0  0  0
  -22.9770   -7.7510   21.2920 C   0  0  0  0  0  0  0  0  0  0  0  0
  -22.5910   -8.7260   20.3560 C   0  0  0  0  0  3  0  0  0  0  0  0
  -23.3400   -9.9050   20.2050 C   0  0  0  0  0  3  0  0  0  0  0  0
  -22.2050   -6.6150   21.3540 O   0  0  0  0  0  0  0  0  0  0  0  0
  -21.9370   -5.9900   22.5460 C   0  0  0  0  0  0  0  0  0  0  0  0
  -21.3110   -6.6680   23.6170 C   0  0  0  0  0  3  0  0  0  0  0  0
  -20.9930   -5.9720   24.7980 C   0  0  0  0  0  3  0  0  0  0  0  0
  -21.2840   -4.5980   24.9100 C   0  0  0  0  0  0  0  0  0  0  0  0
  -21.9020   -3.9220   23.8420 C   0  0  0  0  0  3  0  0  0  0  0  0
  -22.2240   -4.6170   22.6630 C   0  0  0  0  0  0  0  0  0  0  0  0
  -22.8000   -3.9530   21.6300 F   0  0  0  0  0  0  0  0  0  0  0  0
  -20.9680   -3.9260   26.0420 F   0  0  0  0  0  0  0  0  0  0  0  0
  -23.5350  -13.2330   21.5950 C   0  0  0  0  0  0  0  0  0  0  0  0
  -22.9200  -12.4800   22.5020 N   0  0  0  0  0  0  0  0  0  0  0  0
  -23.0670  -14.3160   21.2400 O   0  0  0  0  0  0  0  0  0  0  0  0
  -23.3270  -11.6130   22.8210 H   0  0  0  0  0  0  0  0  0  0  0  0
  -22.0480  -12.7910   22.9050 H   0  0  0  0  0  0  0  0  0  0  0  0
  -26.0910  -14.8880   20.5400 N   0  0  0  0  0  0  0  0  0  0  0  0
  -25.3590  -15.5510   20.7690 H   0  0  0  0  0  0  0  0  0  0  0  0
  -26.8610  -15.3120   20.0410 H   0  0  0  0  0  0  0  0  0  0  0  0
  -28.7700  -26.6270   20.2720 O   0  0  0  0  0  0  0  0  0  0  0  0
  -25.2450  -31.6820   23.9050 C   0  0  0  0  0  0  0  0  0  0  0  0
  -27.7790  -27.6010   20.2460 C   0  0  0  0  0  0  0  0  0  0  0  0
  -24.0800  -30.6970   21.9620 C   0  0  0  0  0  3  0  0  0  0  0  0
  -25.5350  -29.3410   20.3610 C   0  0  0  0  0  0  0  0  0  0  0  0
  -26.6360  -30.8590   22.0040 C   0  0  0  0  0  2  0  0  0  0  0  0
  -26.6780  -29.6250   21.1190 C   0  0  0  0  0  0  0  0  0  0  0  0
  -27.8050  -28.7630   21.0640 C   0  0  0  0  0  3  0  0  0  0  0  0
  -26.6360  -27.3770   19.4460 C   0  0  0  0  0  3  0  0  0  0  0  0
  -25.5160  -28.2250   19.5100 C   0  0  0  0  0  3  0  0  0  0  0  0
  -24.3490  -30.2720   20.4960 C   0  0  0  0  0  2  0  0  0  0  0  0
  -25.3340  -31.0820   22.6820 N   0  0  0  0  0  0  0  0  0  0  0  0
  -24.1470  -31.9430   24.4120 O   0  0  0  0  0  0  0  0  0  0  0  0
  -23.2850  -29.5770   22.6700 C   0  0  0  0  0  0  0  0  0  0  0  0
  -21.9680  -29.5150   22.4100 N   0  0  0  0  0  0  0  0  0  0  0  0
  -23.8520  -28.7750   23.4170 O   0  0  0  0  0  0  0  0  0  0  0  0
  -21.5770  -30.2100   21.7900 H   0  0  0  0  0  0  0  0  0  0  0  0
  -18.4870  -28.5420   22.4810 C   0  0  0  0  0  0  0  0  0  0  0  0
  -21.0300  -28.5220   22.9390 C   0  0  0  0  0  3  0  0  0  0  0  0
  -21.0670  -27.2210   22.1050 C   0  0  0  0  0  2  0  0  0  0  0  0
  -20.0210  -27.1940   20.9870 C   0  0  0  0  0  2  0  0  0  0  0  0
  -18.6100  -27.3330   21.5680 C   0  0  0  0  0  2  0  0  0  0  0  0
  -19.6250  -29.1110   23.1120 C   0  0  0  0  0  0  0  0  0  0  0  0
  -19.4580  -30.2550   23.9220 C   0  0  0  0  0  3  0  0  0  0  0  0
  -18.1850  -30.8280   24.1060 C   0  0  0  0  0  3  0  0  0  0  0  0
  -17.0610  -30.2520   23.4920 C   0  0  0  0  0  3  0  0  0  0  0  0
  -17.2120  -29.1090   22.6860 C   0  0  0  0  0  3  0  0  0  0  0  0
  -26.5200  -32.0850   24.7100 C   0  0  0  0  0  3  0  0  0  0  0  0
  -26.3090  -33.4490   25.2120 N   0  0  0  0  0  0  0  0  0  0  0  0
  -26.7560  -34.5590   24.6090 C   0  0  0  0  0  0  0  0  0  0  0  0
  -27.4580  -34.5330   23.5940 O   0  0  0  0  0  0  0  0  0  0  0  0
  -25.6890  -33.5480   26.0020 H   0  0  0  0  0  0  0  0  0  0  0  0
  -25.1690  -36.5050   24.4630 C   0  0  0  0  0  1  0  0  0  0  0  0
  -26.3620  -35.9130   25.2310 C   0  0  0  0  0  3  0  0  0  0  0  0
  -28.5350  -36.5260   26.1900 C   0  0  0  0  0  1  0  0  0  0  0  0
  -27.4720  -36.8900   25.2590 N   0  0  0  0  0  0  0  0  0  0  0  0
  -27.1330  -37.8140   25.5140 H   0  0  0  0  0  0  0  0  0  0  0  0
  -26.8410  -31.0980   25.8980 C   0  0  1  0  0  0  0  0  0  0  0  0
  -25.6310  -30.8310   26.8250 C   0  0  0  0  0  1  0  0  0  0  0  0
  -27.3340  -29.7340   25.3620 C   0  0  0  0  0  1  0  0  0  0  0  0
  -27.9920  -31.6720   26.7580 C   0  0  0  0  0  1  0  0  0  0  0  0
  1  2  1  0
  1  3  2  0
  2  7  2  0
  4  1  1  0
  5  4  2  0
  5  6  1  0
  6 13  1  0
  6  2  1  0
  9  8  2  0
 10  8  1  0
 11 12  2  0
 11 13  1  0
 12  9  1  0
 13 10  2  0
 14 23  1  0
 14 20  1  0
 15 20  1  0
 16 17  1  0
 16 15  1  0
 18 17  1  0
 18 29  1  0
 18 19  1  0
 20 19  1  0
 21 14  2  0
 22 12  1  0
 22 23  1  0
 23 25  1  0
 24 22  2  0
 26 27  2  0
 27 46  1  0
 28 31  1  0
 28 27  1  0
 29 30  1  0
 29 26  1  0
 30 28  2  0
 31 32  1  0
 32 33  2  0
 34 37  1  0
 34 33  1  0
 35 34  2  0
 36 35  1  0
 36 31  2  0
 37 38  1  0
 38 43  2  0
 38 39  1  0
 39 40  2  0
 40 41  1  0
 41 45  1  0
 42 41  2  0
 43 42  1  0
 44 43  1  0
 46 47  1  0
 47 49  1  0
 47 50  1  0
 48 46  2  0
 51 26  1  0
 51 52  1  0
 53 51  1  0
 54  3  1  0
 55 66  2  0
 56 54  1  0
 56 61  1  0
 57 67  1  0
 57 65  1  0
 58 64  1  0
 58 60  1  0
 59 65  1  0
 60 59  1  0
 61 60  2  0
 62 63  1  0
 62 56  2  0
 63 58  2  0
 64 57  1  0
 65 55  1  0
 67 69  2  0
 68 67  1  0
 70 68  1  0
 71 80  2  0
 71 76  1  0
 72 68  1  0
 72 76  1  0
 73 72  1  0
 74 75  1  0
 74 73  1  0
 75 71  1  0
 76 77  2  0
 77 78  1  0
 79 78  2  0
 80 79  1  0
 81 55  1  0
 81 82  1  0
 81 91  1  0
 82 85  1  0
 83 82  1  0
 83 87  1  0
 84 83  2  0
 87 86  1  0
 87 89  1  0
 89 90  1  0
 89 88  1  0
 91 94  1  1
 91 92  1  0
 93 91  1  0
M  ISO  4   3 101  14 100  23 100  54 101
M  END
>  <TORSDO>  (78) 
F 17

>  <SCORE>  (78) 
-11.193

>  <name>  (78) 
77

>  <ligand_id>  (78) 
77

>  <original_smiles>  (78) 
[H]C(Oc1c([H])c([H])c2c(c1[H])C([H])([H])N(C(=O)C([H])(N([H])C(=O)C([H])(N([H])C([H])([H])[H])C([H])([H])[H])C(C([H])([H])[H])(C([H])([H])[H])C([H])([H])[H])C([H])(C(=O)N([H])C1([H])c3c([H])c([H])c([H])c([H])c3C([H])([H])C([H])([H])C1([H])[H])C2([H])[H])=C1C(=O)N(c2c([H])c([H])c([H])c(C(=O)N([H])C(=O)N3C([H])([H])C([H])([H])C([H])([H])C([H])(n4nc(-c5c([H])c([H])c(Oc6c([H])c([H])c(F)c([H])c6F)c([H])c5[H])c(C(=O)N([H])[H])c4N([H])[H])C3([H])[H])c2[H])C([H])([H])C1([H])[H]

>  <smiles>  (78) 
[H]C(Oc1c([H])c([H])c2c(c1[H])C([H])([H])N(C(=O)C([H])(N([H])C(=O)C([H])(N([H])C([H])([H])[H])C([H])([H])[H])C(C([H])([H])[H])(C([H])([H])[H])C([H])([H])[H])C([H])(C(=O)N([H])C1([H])c3c([H])c([H])c([H])c([H])c3C([H])([H])C([H])([H])C1([H])[H])C2([H])[H])=C1C(=O)N(c2c([H])c([H])c([H])c(C(=O)N([H])C(=O)N3C([H])([H])C([H])([H])C([H])([H])C([H])(n4nc(-c5c([H])c([H])c(Oc6c([H])c([H])c(F)c([H])c6F)c([H])c5[H])c(C(=O)N([H])[H])c4N([H])[H])C3([H])[H])c2[H])C([H])([H])C1([H])[H]

$$$$
78:0:0
     RDKit          3D

 92101  0  0  1  0  0  0  0  0999 V2000
  -28.7640  -23.8940   19.6410 C   0  0  0  0  0  0  0  0  0  0  0  0
  -28.7790  -23.0220   20.8240 C   0  0  0  0  0  0  0  0  0  0  0  0
  -28.5380  -25.2450   19.3320 C   0  0  0  0  0  0  0  0  0  0  0  0
  -29.1200  -22.6490   18.7780 C   0  0  0  0  0  2  0  0  0  0  0  0
  -28.6700  -25.6990   17.8870 C   0  0  0  0  0  1  0  0  0  0  0  0
  -29.1860  -21.8880   20.0450 N   0  0  0  0  0  0  0  0  0  0  0  0
  -28.4970  -23.2410   21.9830 O   0  0  0  0  0  0  0  0  0  0  0  0
  -28.9250  -19.5790   21.1930 C   0  0  0  0  0  3  0  0  0  0  0  0
  -30.1020  -19.5970   19.1650 C   0  0  0  0  0  3  0  0  0  0  0  0
  -29.0960  -18.1530   21.2800 C   0  0  0  0  0  3  0  0  0  0  0  0
  -30.3120  -18.1680   19.2500 C   0  0  0  0  0  3  0  0  0  0  0  0
  -29.3960  -20.4040   20.1260 C   0  0  0  0  0  0  0  0  0  0  0  0
  -29.8020  -17.3740   20.3180 C   0  0  0  0  0  0  0  0  0  0  0  0
  -30.6130  -14.8370   19.9620 C   0  0  0  0  0  0  0  0  0  0  0  0
  -30.4140  -12.5620   18.9210 C   0  0  0  0  0  2  0  0  0  0  0  0
  -29.3880  -12.6440   17.7660 C   0  0  0  0  0  2  0  0  0  0  0  0
  -27.9520  -12.4460   18.2890 C   0  0  0  0  0  2  0  0  0  0  0  0
  -27.6560  -13.3050   19.5470 C   0  0  0  0  0  3  0  0  0  0  0  0
  -28.7880  -13.1830   20.5930 C   0  0  0  0  0  2  0  0  0  0  0  0
  -30.0410  -13.5800   19.9330 N   0  0  0  0  0  0  0  0  0  0  0  0
  -31.7400  -15.0080   19.4840 O   0  0  0  0  0  0  0  0  0  0  0  0
  -29.8280  -15.8820   20.4390 N   0  0  0  0  0  0  0  0  0  0  0  0
  -29.0390  -15.5170   20.9510 H   0  0  0  0  0  0  0  0  0  0  0  0
  -25.3250  -13.8760   20.4550 C   0  0  0  0  0  0  0  0  0  0  0  0
  -24.2840  -13.0920   20.8720 C   0  0  0  0  0  0  0  0  0  0  0  0
  -24.7390  -11.7420   20.7630 C   0  0  0  0  0  0  0  0  0  0  0  0
  -26.3470  -13.0030   20.1180 N   0  0  0  0  0  0  0  0  0  0  0  0
  -26.0050  -11.7120   20.3630 N   0  0  0  0  0  0  0  0  0  0  0  0
  -24.0220  -10.4750   20.9600 C   0  0  0  0  0  0  0  0  0  0  0  0
  -24.4790   -9.5010   21.8750 C   0  0  0  0  0  3  0  0  0  0  0  0
  -23.7610   -8.3000   22.0610 C   0  0  0  0  0  3  0  0  0  0  0  0
  -22.5730   -8.0630   21.3290 C   0  0  0  0  0  0  0  0  0  0  0  0
  -22.1350   -9.0260   20.4020 C   0  0  0  0  0  3  0  0  0  0  0  0
  -22.8530  -10.2190   20.2150 C   0  0  0  0  0  3  0  0  0  0  0  0
  -21.8240   -6.9150   21.4250 O   0  0  0  0  0  0  0  0  0  0  0  0
  -21.7500   -6.1990   22.5930 C   0  0  0  0  0  0  0  0  0  0  0  0
  -21.2820   -6.7770   23.7930 C   0  0  0  0  0  3  0  0  0  0  0  0
  -21.1570   -5.9880   24.9530 C   0  0  0  0  0  3  0  0  0  0  0  0
  -21.4890   -4.6200   24.9130 C   0  0  0  0  0  0  0  0  0  0  0  0
  -21.9510   -4.0410   23.7180 C   0  0  0  0  0  3  0  0  0  0  0  0
  -22.0780   -4.8290   22.5600 C   0  0  0  0  0  0  0  0  0  0  0  0
  -22.5020   -4.2610   21.4060 F   0  0  0  0  0  0  0  0  0  0  0  0
  -21.3630   -3.8580   26.0250 F   0  0  0  0  0  0  0  0  0  0  0  0
  -22.9110  -13.5620   21.2570 C   0  0  0  0  0  0  0  0  0  0  0  0
  -22.2470  -12.8440   22.1550 N   0  0  0  0  0  0  0  0  0  0  0  0
  -22.4380  -14.6000   20.7960 O   0  0  0  0  0  0  0  0  0  0  0  0
  -22.6450  -12.0030   22.5480 H   0  0  0  0  0  0  0  0  0  0  0  0
  -21.3290  -13.1390   22.4560 H   0  0  0  0  0  0  0  0  0  0  0  0
  -25.4810  -15.2520   20.3120 N   0  0  0  0  0  0  0  0  0  0  0  0
  -24.7220  -15.9000   20.4870 H   0  0  0  0  0  0  0  0  0  0  0  0
  -26.2980  -15.6990   19.9130 H   0  0  0  0  0  0  0  0  0  0  0  0
  -28.3300  -26.3750   20.1840 O   0  0  0  0  0  0  0  0  0  0  0  0
  -24.6280  -31.8600   23.1790 C   0  0  0  0  0  0  0  0  0  0  0  0
  -27.2470  -27.2890   20.0670 C   0  0  0  0  0  0  0  0  0  0  0  0
  -23.4320  -30.4810   21.5180 C   0  0  0  0  0  3  0  0  0  0  0  0
  -24.8860  -28.9440   20.0700 C   0  0  0  0  0  0  0  0  0  0  0  0
  -25.9750  -30.7870   21.3500 C   0  0  0  0  0  2  0  0  0  0  0  0
  -26.0570  -29.4140   20.6790 C   0  0  0  0  0  0  0  0  0  0  0  0
  -27.2360  -28.5980   20.6690 C   0  0  0  0  0  3  0  0  0  0  0  0
  -26.0460  -26.8850   19.4430 C   0  0  0  0  0  3  0  0  0  0  0  0
  -24.8870  -27.6880   19.4410 C   0  0  0  0  0  3  0  0  0  0  0  0
  -23.6500  -29.8230   20.1310 C   0  0  0  0  0  2  0  0  0  0  0  0
  -24.6980  -31.0600   22.0720 N   0  0  0  0  0  0  0  0  0  0  0  0
  -23.5430  -32.1330   23.7130 O   0  0  0  0  0  0  0  0  0  0  0  0
  -22.7610  -29.4580   22.4670 C   0  0  0  0  0  0  0  0  0  0  0  0
  -21.4330  -29.2880   22.3380 N   0  0  0  0  0  0  0  0  0  0  0  0
  -23.4350  -28.8190   23.2790 O   0  0  0  0  0  0  0  0  0  0  0  0
  -20.9470  -29.8540   21.6560 H   0  0  0  0  0  0  0  0  0  0  0  0
  -18.0520  -28.0870   22.8160 C   0  0  0  0  0  0  0  0  0  0  0  0
  -20.6110  -28.3420   23.0960 C   0  0  0  0  0  3  0  0  0  0  0  0
  -20.7130  -26.9170   22.5040 C   0  0  0  0  0  2  0  0  0  0  0  0
  -19.6140  -26.6070   21.4830 C   0  0  0  0  0  2  0  0  0  0  0  0
  -18.2310  -26.7450   22.1250 C   0  0  0  0  0  2  0  0  0  0  0  0
  -19.1710  -28.8430   23.2590 C   0  0  0  0  0  0  0  0  0  0  0  0
  -18.9500  -30.0980   23.8660 C   0  0  0  0  0  3  0  0  0  0  0  0
  -17.6450  -30.5970   24.0360 C   0  0  0  0  0  3  0  0  0  0  0  0
  -16.5420  -29.8380   23.6100 C   0  0  0  0  0  3  0  0  0  0  0  0
  -16.7460  -28.5840   23.0060 C   0  0  0  0  0  3  0  0  0  0  0  0
  -25.9080  -32.4860   23.8140 C   0  0  0  0  0  3  0  0  0  0  0  0
  -25.5950  -33.8800   24.1640 N   0  0  0  0  0  0  0  0  0  0  0  0
  -25.9090  -34.9440   23.4130 C   0  0  0  0  0  0  0  0  0  0  0  0
  -26.5600  -34.8570   22.3690 O   0  0  0  0  0  0  0  0  0  0  0  0
  -25.0140  -34.0220   24.9770 H   0  0  0  0  0  0  0  0  0  0  0  0
  -24.1590  -36.7280   23.1230 C   0  0  0  0  0  1  0  0  0  0  0  0
  -25.4250  -36.3260   23.8960 C   0  0  0  0  0  3  0  0  0  0  0  0
  -27.5730  -37.2210   24.6780 C   0  0  0  0  0  1  0  0  0  0  0  0
  -26.4450  -37.3880   23.7650 N   0  0  0  0  0  0  0  0  0  0  0  0
  -26.0360  -38.3030   23.9300 H   0  0  0  0  0  0  0  0  0  0  0  0
  -26.4200  -31.7000   25.0840 C   0  0  1  0  0  0  0  0  0  0  0  0
  -25.3230  -31.4500   26.1450 C   0  0  0  0  0  1  0  0  0  0  0  0
  -27.0050  -30.3270   24.6790 C   0  0  0  0  0  1  0  0  0  0  0  0
  -27.5680  -32.4860   25.7590 C   0  0  0  0  0  1  0  0  0  0  0  0
  1  2  1  0
  2  7  2  0
  3  1  2  0
  3 52  1  0
  4  1  1  0
  4  6  1  0
  5  3  1  0
  6 12  1  0
  6  2  1  0
  8 10  1  0
  9 11  2  0
  9 12  1  0
 11 13  1  0
 12  8  2  0
 13 22  1  0
 13 10  2  0
 14 22  1  0
 15 20  1  0
 16 17  1  0
 16 15  1  0
 18 17  1  0
 18 27  1  0
 18 19  1  0
 20 14  1  0
 20 19  1  0
 21 14  2  0
 22 23  1  0
 24 25  2  0
 25 44  1  0
 26 25  1  0
 26 29  1  0
 27 28  1  0
 27 24  1  0
 28 26  2  0
 29 30  1  0
 30 31  2  0
 32 35  1  0
 32 31  1  0
 33 32  2  0
 34 33  1  0
 34 29  2  0
 35 36  1  0
 36 37  1  0
 37 38  2  0
 39 38  1  0
 39 43  1  0
 40 39  2  0
 41 36  2  0
 41 40  1  0
 42 41  1  0
 44 45  1  0
 45 48  1  0
 45 47  1  0
 46 44  2  0
 49 24  1  0
 49 50  1  0
 51 49  1  0
 53 64  2  0
 54 52  1  0
 54 59  1  0
 55 63  1  0
 55 65  1  0
 56 62  1  0
 56 58  1  0
 57 63  1  0
 58 57  1  0
 59 58  2  0
 60 54  2  0
 61 60  1  0
 61 56  2  0
 62 55  1  0
 63 53  1  0
 65 67  2  0
 66 65  1  0
 68 66  1  0
 69 78  2  0
 69 74  1  0
 70 66  1  0
 70 74  1  0
 71 70  1  0
 72 73  1  0
 72 71  1  0
 73 69  1  0
 74 75  2  0
 75 76  1  0
 77 76  2  0
 78 77  1  0
 79 53  1  0
 79 80  1  0
 79 89  1  0
 80 83  1  0
 81 85  1  0
 81 80  1  0
 82 81  2  0
 85 84  1  0
 87 85  1  0
 87 88  1  0
 87 86  1  0
 89 92  1  1
 89 90  1  0
 91 89  1  0
M  ISO  4   3 101  14 100  22 100  52 101
M  END
>  <TORSDO>  (79) 
F 17

>  <SCORE>  (79) 
-14.177

>  <name>  (79) 
78

>  <ligand_id>  (79) 
78

>  <original_smiles>  (79) 
[H]c1c([H])c([H])c2c(c1[H])C([H])([H])C([H])([H])C([H])([H])C2([H])N([H])C(=O)C1([H])N(C(=O)C([H])(N([H])C(=O)C([H])(N([H])C([H])([H])[H])C([H])([H])[H])C(C([H])([H])[H])(C([H])([H])[H])C([H])([H])[H])C([H])([H])c2c([H])c(OC(=C3C(=O)N(c4c([H])c([H])c(N([H])C(=O)N5C([H])([H])C([H])([H])C([H])([H])C([H])(n6nc(-c7c([H])c([H])c(Oc8c([H])c([H])c(F)c([H])c8F)c([H])c7[H])c(C(=O)N([H])[H])c6N([H])[H])C5([H])[H])c([H])c4[H])C3([H])[H])C([H])([H])[H])c([H])c([H])c2C1([H])[H]

>  <smiles>  (79) 
[H]c1c([H])c([H])c2c(c1[H])C([H])([H])C([H])([H])C([H])([H])C2([H])N([H])C(=O)C1([H])N(C(=O)C([H])(N([H])C(=O)C([H])(N([H])C([H])([H])[H])C([H])([H])[H])C(C([H])([H])[H])(C([H])([H])[H])C([H])([H])[H])C([H])([H])c2c([H])c(OC(=C3C(=O)N(c4c([H])c([H])c(N([H])C(=O)N5C([H])([H])C([H])([H])C([H])([H])C([H])(n6nc(-c7c([H])c([H])c(Oc8c([H])c([H])c(F)c([H])c8F)c([H])c7[H])c(C(=O)N([H])[H])c6N([H])[H])C5([H])[H])c([H])c4[H])C3([H])[H])C([H])([H])[H])c([H])c([H])c2C1([H])[H]

$$$$
79:0:0
     RDKit          3D

 91 99  0  0  1  0  0  0  0  0999 V2000
  -28.9280  -19.1830   19.2790 C   0  0  0  0  0  3  0  0  0  0  0  0
  -28.5530  -20.5970   19.2790 C   0  0  0  0  0  3  0  0  0  0  0  0
  -29.8230  -18.7910   20.2570 C   0  0  0  0  0  0  0  0  0  0  0  0
  -29.1220  -21.3840   20.2680 C   0  0  0  0  0  0  0  0  0  0  0  0
  -30.1870  -20.2850   21.1820 S   0  0  0  0  0  0  0  0  0  0  0  0
  -28.5380  -23.8050   20.0450 C   0  0  0  0  0  3  0  0  0  0  0  0
  -28.9540  -22.7370   20.6970 N   0  0  0  0  0  0  0  0  0  0  0  0
  -28.1740  -25.2090   20.7470 C   0  0  0  0  0  2  0  0  0  0  0  0
  -28.3580  -26.5480   20.0870 O   0  0  0  0  0  0  0  0  0  0  0  0
  -24.5270  -31.9140   23.1650 C   0  0  0  0  0  0  0  0  0  0  0  0
  -27.2530  -27.4260   20.0760 C   0  0  0  0  0  0  0  0  0  0  0  0
  -23.3730  -30.5250   21.4830 C   0  0  0  0  0  3  0  0  0  0  0  0
  -24.8710  -29.0230   20.0500 C   0  0  0  0  0  0  0  0  0  0  0  0
  -25.9100  -30.8840   21.3420 C   0  0  0  0  0  2  0  0  0  0  0  0
  -26.0250  -29.5150   20.6740 C   0  0  0  0  0  0  0  0  0  0  0  0
  -27.2240  -28.7300   20.6730 C   0  0  0  0  0  3  0  0  0  0  0  0
  -26.0800  -26.9970   19.4260 C   0  0  0  0  0  3  0  0  0  0  0  0
  -24.9030  -27.7720   19.4120 C   0  0  0  0  0  3  0  0  0  0  0  0
  -23.6200  -29.8800   20.0940 C   0  0  0  0  0  2  0  0  0  0  0  0
  -24.6220  -31.1260   22.0540 N   0  0  0  0  0  0  0  0  0  0  0  0
  -23.4310  -32.1620   23.6910 O   0  0  0  0  0  0  0  0  0  0  0  0
  -22.7110  -29.4810   22.4160 C   0  0  0  0  0  0  0  0  0  0  0  0
  -21.3850  -29.3050   22.2870 N   0  0  0  0  0  0  0  0  0  0  0  0
  -23.3920  -28.8340   23.2170 O   0  0  0  0  0  0  0  0  0  0  0  0
  -20.8940  -29.8800   21.6170 H   0  0  0  0  0  0  0  0  0  0  0  0
  -18.0060  -28.1100   22.7900 C   0  0  0  0  0  0  0  0  0  0  0  0
  -20.5700  -28.3420   23.0310 C   0  0  0  0  0  3  0  0  0  0  0  0
  -20.6540  -26.9350   22.3980 C   0  0  0  0  0  2  0  0  0  0  0  0
  -19.5350  -26.6590   21.3890 C   0  0  0  0  0  2  0  0  0  0  0  0
  -18.1630  -26.7880   22.0580 C   0  0  0  0  0  2  0  0  0  0  0  0
  -19.1360  -28.8470   23.2340 C   0  0  0  0  0  0  0  0  0  0  0  0
  -18.9350  -30.0860   23.8800 C   0  0  0  0  0  3  0  0  0  0  0  0
  -17.6360  -30.5880   24.0860 C   0  0  0  0  0  3  0  0  0  0  0  0
  -16.5210  -29.8470   23.6590 C   0  0  0  0  0  3  0  0  0  0  0  0
  -16.7070  -28.6100   23.0180 C   0  0  0  0  0  3  0  0  0  0  0  0
  -25.7880  -32.5580   23.8190 C   0  0  0  0  0  3  0  0  0  0  0  0
  -26.2750  -31.7960   25.1130 C   0  0  1  0  0  0  0  0  0  0  0  0
  -25.1550  -31.5500   26.1500 C   0  0  0  0  0  1  0  0  0  0  0  0
  -26.8850  -30.4230   24.7440 C   0  0  0  0  0  1  0  0  0  0  0  0
  -27.4000  -32.6040   25.8050 C   0  0  0  0  0  1  0  0  0  0  0  0
  -25.4600  -33.9550   24.1370 N   0  0  0  0  0  0  0  0  0  0  0  0
  -25.7920  -35.0080   23.3760 C   0  0  0  0  0  0  0  0  0  0  0  0
  -26.4730  -34.9050   22.3520 O   0  0  0  0  0  0  0  0  0  0  0  0
  -24.8570  -34.1090   24.9300 H   0  0  0  0  0  0  0  0  0  0  0  0
  -24.0560  -36.7880   22.9890 C   0  0  0  0  0  1  0  0  0  0  0  0
  -25.2870  -36.3950   23.8210 C   0  0  0  0  0  3  0  0  0  0  0  0
  -27.3960  -37.3060   24.6870 C   0  0  0  0  0  1  0  0  0  0  0  0
  -26.3130  -37.4560   23.7200 N   0  0  0  0  0  0  0  0  0  0  0  0
  -25.8960  -38.3730   23.8510 H   0  0  0  0  0  0  0  0  0  0  0  0
  -30.5580  -17.4060   20.5630 C   0  0  0  0  0  3  0  0  0  0  0  0
  -30.6920  -14.9080   19.8160 C   0  0  0  0  0  0  0  0  0  0  0  0
  -30.4060  -12.6360   18.8100 C   0  0  0  0  0  2  0  0  0  0  0  0
  -29.3850  -12.6920   17.6540 C   0  0  0  0  0  2  0  0  0  0  0  0
  -27.9500  -12.5240   18.1890 C   0  0  0  0  0  2  0  0  0  0  0  0
  -27.6600  -13.4240   19.4210 C   0  0  0  0  0  3  0  0  0  0  0  0
  -28.7930  -13.3470   20.4670 C   0  0  0  0  0  2  0  0  0  0  0  0
  -30.0440  -13.6950   19.7790 N   0  0  0  0  0  0  0  0  0  0  0  0
  -31.8490  -14.9970   19.3990 O   0  0  0  0  0  0  0  0  0  0  0  0
  -29.9910  -16.0360   20.2070 N   0  0  0  0  0  0  0  0  0  0  0  0
  -29.0350  -15.8830   20.4860 H   0  0  0  0  0  0  0  0  0  0  0  0
  -25.3420  -14.0210   20.3430 C   0  0  0  0  0  0  0  0  0  0  0  0
  -24.2960  -13.2480   20.7700 C   0  0  0  0  0  0  0  0  0  0  0  0
  -24.7390  -11.8930   20.6690 C   0  0  0  0  0  0  0  0  0  0  0  0
  -26.3540  -13.1370   20.0050 N   0  0  0  0  0  0  0  0  0  0  0  0
  -26.0030  -11.8510   20.2650 N   0  0  0  0  0  0  0  0  0  0  0  0
  -24.0120  -10.6350   20.8770 C   0  0  0  0  0  0  0  0  0  0  0  0
  -24.4610   -9.6650   21.8010 C   0  0  0  0  0  3  0  0  0  0  0  0
  -23.7320   -8.4720   21.9970 C   0  0  0  0  0  3  0  0  0  0  0  0
  -22.5420   -8.2400   21.2700 C   0  0  0  0  0  0  0  0  0  0  0  0
  -22.1120   -9.1970   20.3340 C   0  0  0  0  0  3  0  0  0  0  0  0
  -22.8410  -10.3810   20.1360 C   0  0  0  0  0  3  0  0  0  0  0  0
  -21.7830   -7.0980   21.3750 O   0  0  0  0  0  0  0  0  0  0  0  0
  -21.7070   -6.3910   22.5490 C   0  0  0  0  0  0  0  0  0  0  0  0
  -21.2140   -6.9710   23.7370 C   0  0  0  0  0  3  0  0  0  0  0  0
  -21.0890   -6.1880   24.9020 C   0  0  0  0  0  3  0  0  0  0  0  0
  -21.4450   -4.8270   24.8800 C   0  0  0  0  0  0  0  0  0  0  0  0
  -21.9320   -4.2470   23.6950 C   0  0  0  0  0  3  0  0  0  0  0  0
  -22.0590   -5.0270   22.5320 C   0  0  0  0  0  0  0  0  0  0  0  0
  -22.5080   -4.4570   21.3870 F   0  0  0  0  0  0  0  0  0  0  0  0
  -21.3180   -4.0720   25.9960 F   0  0  0  0  0  0  0  0  0  0  0  0
  -22.9300  -13.7330   21.1560 C   0  0  0  0  0  0  0  0  0  0  0  0
  -22.2590  -13.0240   22.0570 N   0  0  0  0  0  0  0  0  0  0  0  0
  -22.4680  -14.7750   20.6930 O   0  0  0  0  0  0  0  0  0  0  0  0
  -22.6480  -12.1810   22.4530 H   0  0  0  0  0  0  0  0  0  0  0  0
  -21.3450  -13.3310   22.3580 H   0  0  0  0  0  0  0  0  0  0  0  0
  -25.5090  -15.3930   20.1900 N   0  0  0  0  0  0  0  0  0  0  0  0
  -24.7550  -16.0480   20.3710 H   0  0  0  0  0  0  0  0  0  0  0  0
  -26.3240  -15.8360   19.7870 H   0  0  0  0  0  0  0  0  0  0  0  0
  -30.8170  -17.3050   22.0780 C   0  0  0  0  0  0  0  0  0  0  0  0
  -32.2620  -17.1880   22.5410 C   0  0  0  0  0  1  0  0  0  0  0  0
  -29.9060  -17.2510   22.9090 O   0  0  0  0  0  0  0  0  0  0  0  0
  1  3  2  0
  2  1  1  0
  2  4  2  0
  3 50  1  0
  3  5  1  0
  4  7  1  0
  4  5  1  0
  6  7  2  0
  6  8  1  0
  9  8  1  0
 10 21  2  0
 11  9  1  0
 11 16  1  0
 12 20  1  0
 12 22  1  0
 13 19  1  0
 13 15  1  0
 14 20  1  0
 15 14  1  0
 16 15  2  0
 17 11  2  0
 18 17  1  0
 18 13  2  0
 19 12  1  0
 20 10  1  0
 22 24  2  0
 23 22  1  0
 25 23  1  0
 26 35  2  0
 26 31  1  0
 27 23  1  0
 27 31  1  0
 28 27  1  0
 29 30  1  0
 29 28  1  0
 30 26  1  0
 31 32  2  0
 32 33  1  0
 34 33  2  0
 35 34  1  0
 36 10  1  0
 36 41  1  0
 36 37  1  0
 37 40  1  1
 37 38  1  0
 39 37  1  0
 41 44  1  0
 42 46  1  0
 42 41  1  0
 43 42  2  0
 46 45  1  0
 48 46  1  0
 48 49  1  0
 48 47  1  0
 50 89  1  0
 51 59  1  0
 52 57  1  0
 53 54  1  0
 53 52  1  0
 55 54  1  0
 55 64  1  0
 55 56  1  0
 57 51  1  0
 57 56  1  0
 58 51  2  0
 59 60  1  0
 59 50  1  0
 61 62  2  0
 62 81  1  0
 63 62  1  0
 63 66  1  0
 64 65  1  0
 64 61  1  0
 65 63  2  0
 66 67  1  0
 67 68  2  0
 69 72  1  0
 69 68  1  0
 70 69  2  0
 71 70  1  0
 71 66  2  0
 72 73  1  0
 73 74  1  0
 74 75  2  0
 76 75  1  0
 76 80  1  0
 77 76  2  0
 78 73  2  0
 78 77  1  0
 79 78  1  0
 81 82  1  0
 82 85  1  0
 82 84  1  0
 83 81  2  0
 86 61  1  0
 86 87  1  0
 88 86  1  0
 89 90  1  0
 89 91  2  0
M  ISO  4   8 101   9 101  51 100  59 100
M  END
>  <TORSDO>  (80) 
F 20

>  <SCORE>  (80) 
-11.240

>  <name>  (80) 
79

>  <ligand_id>  (80) 
79

>  <original_smiles>  (80) 
[H]C(=Nc1sc(C([H])(C(=O)C([H])([H])[H])N([H])C(=O)N2C([H])([H])C([H])([H])C([H])([H])C([H])(n3nc(-c4c([H])c([H])c(Oc5c([H])c([H])c(F)c([H])c5F)c([H])c4[H])c(C(=O)N([H])[H])c3N([H])[H])C2([H])[H])c([H])c1[H])C([H])([H])Oc1c([H])c([H])c2c(c1[H])C([H])([H])N(C(=O)C([H])(N([H])C(=O)C([H])(N([H])C([H])([H])[H])C([H])([H])[H])C(C([H])([H])[H])(C([H])([H])[H])C([H])([H])[H])C([H])(C(=O)N([H])C1([H])c3c([H])c([H])c([H])c([H])c3C([H])([H])C([H])([H])C1([H])[H])C2([H])[H]

>  <smiles>  (80) 
[H]C(=Nc1sc(C([H])(C(=O)C([H])([H])[H])N([H])C(=O)N2C([H])([H])C([H])([H])C([H])([H])C([H])(n3nc(-c4c([H])c([H])c(Oc5c([H])c([H])c(F)c([H])c5F)c([H])c4[H])c(C(=O)N([H])[H])c3N([H])[H])C2([H])[H])c([H])c1[H])C([H])([H])Oc1c([H])c([H])c2c(c1[H])C([H])([H])N(C(=O)C([H])(N([H])C(=O)C([H])(N([H])C([H])([H])[H])C([H])([H])[H])C(C([H])([H])[H])(C([H])([H])[H])C([H])([H])[H])C([H])(C(=O)N([H])C1([H])c3c([H])c([H])c([H])c([H])c3C([H])([H])C([H])([H])C1([H])[H])C2([H])[H]

$$$$
80:0:0
     RDKit          3D

 92101  0  0  1  0  0  0  0  0999 V2000
  -28.5870  -23.6160   20.3440 C   0  0  0  0  0  0  0  0  0  0  0  0
  -28.2700  -22.2690   20.8560 C   0  0  0  0  0  0  0  0  0  0  0  0
  -29.5820  -22.9460   19.5110 C   0  0  0  0  0  0  0  0  0  0  0  0
  -28.0660  -24.9080   20.6170 C   0  0  0  0  0  3  0  0  0  0  0  0
  -29.2410  -21.6220   20.0170 N   0  0  0  0  0  0  0  0  0  0  0  0
  -27.4400  -21.9130   21.6700 O   0  0  0  0  0  0  0  0  0  0  0  0
  -30.3540  -23.4010   18.6880 O   0  0  0  0  0  0  0  0  0  0  0  0
  -30.5500  -18.8440   17.7290 C   0  0  0  0  0  3  0  0  0  0  0  0
  -30.1370  -20.0570   18.3160 C   0  0  0  0  0  3  0  0  0  0  0  0
  -30.5250  -17.6250   18.4260 C   0  0  0  0  0  3  0  0  0  0  0  0
  -29.6220  -18.8610   20.3160 C   0  0  0  0  0  3  0  0  0  0  0  0
  -29.6350  -20.1880   19.6370 C   0  0  0  0  0  0  0  0  0  0  0  0
  -30.0820  -17.5520   19.7630 C   0  0  0  0  0  0  0  0  0  0  0  0
  -30.7670  -14.9800   20.0020 C   0  0  0  0  0  0  0  0  0  0  0  0
  -30.5230  -12.6900   18.9540 C   0  0  0  0  0  2  0  0  0  0  0  0
  -29.5150  -12.7190   17.7830 C   0  0  0  0  0  2  0  0  0  0  0  0
  -28.0780  -12.5070   18.2950 C   0  0  0  0  0  2  0  0  0  0  0  0
  -27.7630  -13.3790   19.5380 C   0  0  0  0  0  3  0  0  0  0  0  0
  -28.8840  -13.3030   20.5900 C   0  0  0  0  0  2  0  0  0  0  0  0
  -30.1260  -13.7420   19.9340 N   0  0  0  0  0  0  0  0  0  0  0  0
  -31.9110  -15.0400   19.5350 O   0  0  0  0  0  0  0  0  0  0  0  0
  -29.7290  -16.2010   21.8510 C   0  0  0  0  0  1  0  0  0  0  0  0
  -30.1100  -16.1760   20.4350 N   0  0  0  0  0  0  0  0  0  0  0  0
  -25.4370  -13.9440   20.4470 C   0  0  0  0  0  0  0  0  0  0  0  0
  -24.3950  -13.1610   20.8600 C   0  0  0  0  0  0  0  0  0  0  0  0
  -24.8500  -11.8100   20.7560 C   0  0  0  0  0  0  0  0  0  0  0  0
  -26.4570  -13.0710   20.1100 N   0  0  0  0  0  0  0  0  0  0  0  0
  -26.1170  -11.7800   20.3600 N   0  0  0  0  0  0  0  0  0  0  0  0
  -24.1310  -10.5440   20.9530 C   0  0  0  0  0  0  0  0  0  0  0  0
  -24.5690   -9.5830   21.8900 C   0  0  0  0  0  3  0  0  0  0  0  0
  -23.8500   -8.3830   22.0740 C   0  0  0  0  0  3  0  0  0  0  0  0
  -22.6760   -8.1360   21.3220 C   0  0  0  0  0  0  0  0  0  0  0  0
  -22.2560   -9.0870   20.3750 C   0  0  0  0  0  3  0  0  0  0  0  0
  -22.9770  -10.2780   20.1880 C   0  0  0  0  0  3  0  0  0  0  0  0
  -21.9270   -6.9880   21.4160 O   0  0  0  0  0  0  0  0  0  0  0  0
  -21.8140   -6.2970   22.5960 C   0  0  0  0  0  0  0  0  0  0  0  0
  -21.2990   -6.8980   23.7650 C   0  0  0  0  0  3  0  0  0  0  0  0
  -21.1340   -6.1320   24.9360 C   0  0  0  0  0  3  0  0  0  0  0  0
  -21.4750   -4.7660   24.9390 C   0  0  0  0  0  0  0  0  0  0  0  0
  -21.9820   -4.1650   23.7740 C   0  0  0  0  0  3  0  0  0  0  0  0
  -22.1480   -4.9270   22.6040 C   0  0  0  0  0  0  0  0  0  0  0  0
  -22.6170   -4.3380   21.4790 F   0  0  0  0  0  0  0  0  0  0  0  0
  -21.3090   -4.0280   26.0610 F   0  0  0  0  0  0  0  0  0  0  0  0
  -23.0210  -13.6340   21.2360 C   0  0  0  0  0  0  0  0  0  0  0  0
  -22.3500  -12.9160   22.1310 N   0  0  0  0  0  0  0  0  0  0  0  0
  -22.5540  -14.6730   20.7730 O   0  0  0  0  0  0  0  0  0  0  0  0
  -22.7430  -12.0740   22.5260 H   0  0  0  0  0  0  0  0  0  0  0  0
  -21.4310  -13.2140   22.4250 H   0  0  0  0  0  0  0  0  0  0  0  0
  -25.5980  -15.3200   20.3080 N   0  0  0  0  0  0  0  0  0  0  0  0
  -24.8490  -15.9750   20.4970 H   0  0  0  0  0  0  0  0  0  0  0  0
  -26.4370  -15.7660   19.9580 H   0  0  0  0  0  0  0  0  0  0  0  0
  -28.3440  -26.2740   20.2000 O   0  0  0  0  0  0  0  0  0  0  0  0
  -24.6740  -31.9010   23.2220 C   0  0  0  0  0  0  0  0  0  0  0  0
  -27.2860  -27.2400   20.1900 C   0  0  0  0  0  0  0  0  0  0  0  0
  -23.4740  -30.4780   21.6040 C   0  0  0  0  0  3  0  0  0  0  0  0
  -24.9300  -28.9210   20.1740 C   0  0  0  0  0  0  0  0  0  0  0  0
  -26.0200  -30.7880   21.4070 C   0  0  0  0  0  2  0  0  0  0  0  0
  -26.1080  -29.3960   20.7670 C   0  0  0  0  0  0  0  0  0  0  0  0
  -27.2900  -28.5700   20.7600 C   0  0  0  0  0  3  0  0  0  0  0  0
  -26.0840  -26.8550   19.5610 C   0  0  0  0  0  3  0  0  0  0  0  0
  -24.9260  -27.6600   19.5570 C   0  0  0  0  0  3  0  0  0  0  0  0
  -23.6890  -29.7960   20.2270 C   0  0  0  0  0  2  0  0  0  0  0  0
  -24.7430  -31.0770   22.1320 N   0  0  0  0  0  0  0  0  0  0  0  0
  -23.5910  -32.1720   23.7610 O   0  0  0  0  0  0  0  0  0  0  0  0
  -22.8220  -29.4660   22.5780 C   0  0  0  0  0  0  0  0  0  0  0  0
  -21.4970  -29.2750   22.4640 N   0  0  0  0  0  0  0  0  0  0  0  0
  -23.5120  -28.8560   23.3990 O   0  0  0  0  0  0  0  0  0  0  0  0
  -20.9960  -29.8190   21.7750 H   0  0  0  0  0  0  0  0  0  0  0  0
  -18.1410  -28.0150   22.9880 C   0  0  0  0  0  0  0  0  0  0  0  0
  -20.6940  -28.3330   23.2490 C   0  0  0  0  0  3  0  0  0  0  0  0
  -20.8240  -26.8940   22.6940 C   0  0  0  0  0  2  0  0  0  0  0  0
  -19.7280  -26.5350   21.6870 C   0  0  0  0  0  2  0  0  0  0  0  0
  -18.3440  -26.6610   22.3310 C   0  0  0  0  0  2  0  0  0  0  0  0
  -19.2450  -28.8060   23.4050 C   0  0  0  0  0  0  0  0  0  0  0  0
  -19.0000  -30.0720   23.9820 C   0  0  0  0  0  3  0  0  0  0  0  0
  -17.6840  -30.5470   24.1440 C   0  0  0  0  0  3  0  0  0  0  0  0
  -16.5960  -29.7530   23.7420 C   0  0  0  0  0  3  0  0  0  0  0  0
  -16.8250  -28.4890   23.1700 C   0  0  0  0  0  3  0  0  0  0  0  0
  -25.9520  -32.5540   23.8310 C   0  0  0  0  0  3  0  0  0  0  0  0
  -25.6260  -33.9520   24.1580 N   0  0  0  0  0  0  0  0  0  0  0  0
  -25.9520  -35.0090   23.4030 C   0  0  0  0  0  0  0  0  0  0  0  0
  -26.6250  -34.9130   22.3750 O   0  0  0  0  0  0  0  0  0  0  0  0
  -25.0270  -34.0990   24.9570 H   0  0  0  0  0  0  0  0  0  0  0  0
  -24.2200  -36.7990   23.0360 C   0  0  0  0  0  1  0  0  0  0  0  0
  -25.4520  -36.3940   23.8620 C   0  0  0  0  0  3  0  0  0  0  0  0
  -27.5710  -37.2860   24.7270 C   0  0  0  0  0  1  0  0  0  0  0  0
  -26.4820  -37.4520   23.7680 N   0  0  0  0  0  0  0  0  0  0  0  0
  -26.0700  -38.3700   23.9130 H   0  0  0  0  0  0  0  0  0  0  0  0
  -26.4860  -31.8000   25.1100 C   0  0  1  0  0  0  0  0  0  0  0  0
  -25.4030  -31.5550   26.1870 C   0  0  0  0  0  1  0  0  0  0  0  0
  -27.0860  -30.4270   24.7280 C   0  0  0  0  0  1  0  0  0  0  0  0
  -27.6300  -32.6150   25.7590 C   0  0  0  0  0  1  0  0  0  0  0  0
  1  4  2  0
  1  2  1  0
  2  6  2  0
  3  5  1  0
  3  1  1  0
  5  2  1  0
  7  3  2  0
  8  9  2  0
  8 10  1  0
  9 12  1  0
 10 13  2  0
 12  5  1  0
 12 11  2  0
 13 11  1  0
 13 23  1  0
 14 23  1  0
 15 20  1  0
 16 17  1  0
 16 15  1  0
 18 17  1  0
 18 27  1  0
 18 19  1  0
 20 14  1  0
 20 19  1  0
 21 14  2  0
 23 22  1  0
 24 25  2  0
 25 44  1  0
 26 25  1  0
 26 29  1  0
 27 28  1  0
 27 24  1  0
 28 26  2  0
 29 30  1  0
 30 31  2  0
 32 35  1  0
 32 31  1  0
 33 32  2  0
 34 33  1  0
 34 29  2  0
 35 36  1  0
 36 41  2  0
 36 37  1  0
 37 38  2  0
 38 39  1  0
 39 43  1  0
 40 39  2  0
 41 40  1  0
 42 41  1  0
 44 45  1  0
 45 48  1  0
 45 47  1  0
 46 44  2  0
 49 24  1  0
 49 50  1  0
 51 49  1  0
 52  4  1  0
 53 64  2  0
 54 52  1  0
 54 59  1  0
 55 63  1  0
 55 65  1  0
 56 62  1  0
 56 58  1  0
 57 63  1  0
 58 57  1  0
 59 58  2  0
 60 54  2  0
 61 60  1  0
 61 56  2  0
 62 55  1  0
 63 53  1  0
 65 67  2  0
 66 65  1  0
 68 66  1  0
 69 78  2  0
 69 74  1  0
 70 66  1  0
 70 74  1  0
 71 70  1  0
 72 73  1  0
 72 71  1  0
 73 69  1  0
 74 75  2  0
 75 76  1  0
 77 76  2  0
 78 77  1  0
 79 53  1  0
 79 80  1  0
 79 89  1  0
 80 83  1  0
 81 85  1  0
 81 80  1  0
 82 81  2  0
 85 84  1  0
 87 85  1  0
 87 88  1  0
 87 86  1  0
 89 92  1  1
 89 90  1  0
 91 89  1  0
M  ISO  4   4 101  14 100  23 100  52 101
M  END
>  <TORSDO>  (81) 
F 17

>  <SCORE>  (81) 
-14.561

>  <name>  (81) 
80

>  <ligand_id>  (81) 
80

>  <original_smiles>  (81) 
[H]C(Oc1c([H])c([H])c2c(c1[H])C([H])([H])N(C(=O)C([H])(N([H])C(=O)C([H])(N([H])C([H])([H])[H])C([H])([H])[H])C(C([H])([H])[H])(C([H])([H])[H])C([H])([H])[H])C([H])(C(=O)N([H])C1([H])c3c([H])c([H])c([H])c([H])c3C([H])([H])C([H])([H])C1([H])[H])C2([H])[H])=C1C(=O)N(c2c([H])c([H])c([H])c(N(C(=O)N3C([H])([H])C([H])([H])C([H])([H])C([H])(n4nc(-c5c([H])c([H])c(Oc6c([H])c([H])c(F)c([H])c6F)c([H])c5[H])c(C(=O)N([H])[H])c4N([H])[H])C3([H])[H])C([H])([H])[H])c2[H])C1=O

>  <smiles>  (81) 
[H]C(Oc1c([H])c([H])c2c(c1[H])C([H])([H])N(C(=O)C([H])(N([H])C(=O)C([H])(N([H])C([H])([H])[H])C([H])([H])[H])C(C([H])([H])[H])(C([H])([H])[H])C([H])([H])[H])C([H])(C(=O)N([H])C1([H])c3c([H])c([H])c([H])c([H])c3C([H])([H])C([H])([H])C1([H])[H])C2([H])[H])=C1C(=O)N(c2c([H])c([H])c([H])c(N(C(=O)N3C([H])([H])C([H])([H])C([H])([H])C([H])(n4nc(-c5c([H])c([H])c(Oc6c([H])c([H])c(F)c([H])c6F)c([H])c5[H])c(C(=O)N([H])[H])c4N([H])[H])C3([H])[H])C([H])([H])[H])c2[H])C1=O

$$$$
81:0:0
     RDKit          3D

 93101  0  0  1  0  0  0  0  0999 V2000
  -28.7870  -20.5370   20.8320 C   0  0  0  0  0  0  0  0  0  0  0  0
  -28.3420  -22.9430   20.8480 C   0  0  0  0  0  0  0  0  0  0  0  0
  -29.0990  -21.8420   20.5780 N   0  0  0  0  0  0  0  0  0  0  0  0
  -27.6610  -20.1490   21.1660 O   0  0  0  0  0  0  0  0  0  0  0  0
  -27.2760  -22.8820   21.4730 O   0  0  0  0  0  0  0  0  0  0  0  0
  -30.0020  -22.0030   20.1660 H   0  0  0  0  0  0  0  0  0  0  0  0
  -32.2360  -18.8500   20.6780 C   0  0  0  0  0  3  0  0  0  0  0  0
  -31.2370  -19.8420   20.7050 C   0  0  0  0  0  3  0  0  0  0  0  0
  -31.8960  -17.4840   20.6270 C   0  0  0  0  0  3  0  0  0  0  0  0
  -29.5440  -18.0900   20.6150 C   0  0  0  0  0  3  0  0  0  0  0  0
  -29.8730  -19.4810   20.6750 C   0  0  0  0  0  0  0  0  0  0  0  0
  -30.5410  -17.0720   20.5810 C   0  0  0  0  0  0  0  0  0  0  0  0
  -30.8540  -14.6040   20.0810 C   0  0  0  0  0  0  0  0  0  0  0  0
  -30.5120  -12.4080   19.0000 C   0  0  0  0  0  2  0  0  0  0  0  0
  -29.5150  -12.5710   17.8340 C   0  0  0  0  0  2  0  0  0  0  0  0
  -28.0660  -12.4230   18.3380 C   0  0  0  0  0  2  0  0  0  0  0  0
  -27.7770  -13.2840   19.5970 C   0  0  0  0  0  3  0  0  0  0  0  0
  -28.8890  -13.1180   20.6590 C   0  0  0  0  0  2  0  0  0  0  0  0
  -30.1750  -13.4220   20.0160 N   0  0  0  0  0  0  0  0  0  0  0  0
  -31.9730  -14.7270   19.5800 O   0  0  0  0  0  0  0  0  0  0  0  0
  -30.1610  -15.6740   20.5540 N   0  0  0  0  0  0  0  0  0  0  0  0
  -29.2130  -15.4660   20.8320 H   0  0  0  0  0  0  0  0  0  0  0  0
  -25.4320  -13.8840   20.4630 C   0  0  0  0  0  0  0  0  0  0  0  0
  -24.3790  -13.1080   20.8680 C   0  0  0  0  0  0  0  0  0  0  0  0
  -24.8250  -11.7550   20.7690 C   0  0  0  0  0  0  0  0  0  0  0  0
  -26.4530  -13.0030   20.1460 N   0  0  0  0  0  0  0  0  0  0  0  0
  -26.0950  -11.7150   20.3880 N   0  0  0  0  0  0  0  0  0  0  0  0
  -24.0970  -10.4920   20.9590 C   0  0  0  0  0  0  0  0  0  0  0  0
  -24.5120   -9.5370   21.9130 C   0  0  0  0  0  3  0  0  0  0  0  0
  -23.7860   -8.3400   22.0900 C   0  0  0  0  0  3  0  0  0  0  0  0
  -22.6290   -8.0900   21.3130 C   0  0  0  0  0  0  0  0  0  0  0  0
  -22.2330   -9.0340   20.3500 C   0  0  0  0  0  3  0  0  0  0  0  0
  -22.9610  -10.2230   20.1710 C   0  0  0  0  0  3  0  0  0  0  0  0
  -21.8760   -6.9440   21.3990 O   0  0  0  0  0  0  0  0  0  0  0  0
  -21.7460   -6.2540   22.5780 C   0  0  0  0  0  0  0  0  0  0  0  0
  -21.1700   -6.8420   23.7250 C   0  0  0  0  0  3  0  0  0  0  0  0
  -20.9930   -6.0760   24.8940 C   0  0  0  0  0  3  0  0  0  0  0  0
  -21.3800   -4.7220   24.9150 C   0  0  0  0  0  0  0  0  0  0  0  0
  -21.9490   -4.1340   23.7720 C   0  0  0  0  0  3  0  0  0  0  0  0
  -22.1290   -4.8980   22.6060 C   0  0  0  0  0  0  0  0  0  0  0  0
  -22.6570   -4.3210   21.5000 F   0  0  0  0  0  0  0  0  0  0  0  0
  -21.2030   -3.9840   26.0360 F   0  0  0  0  0  0  0  0  0  0  0  0
  -23.0030  -13.5890   21.2320 C   0  0  0  0  0  0  0  0  0  0  0  0
  -22.3150  -12.8670   22.1100 N   0  0  0  0  0  0  0  0  0  0  0  0
  -22.5500  -14.6360   20.7750 O   0  0  0  0  0  0  0  0  0  0  0  0
  -22.6960  -12.0180   22.5010 H   0  0  0  0  0  0  0  0  0  0  0  0
  -21.3960  -13.1690   22.3970 H   0  0  0  0  0  0  0  0  0  0  0  0
  -25.5990  -15.2580   20.3180 N   0  0  0  0  0  0  0  0  0  0  0  0
  -24.8440  -15.9130   20.4860 H   0  0  0  0  0  0  0  0  0  0  0  0
  -26.4240  -15.6980   19.9310 H   0  0  0  0  0  0  0  0  0  0  0  0
  -28.8700  -24.2240   20.3400 C   0  0  0  0  0  3  0  0  0  0  0  0
  -28.2190  -25.3770   20.6570 C   0  0  0  0  0  3  0  0  0  0  0  0
  -28.4990  -26.6650   20.2110 O   0  0  0  0  0  0  0  0  0  0  0  0
  -24.6940  -31.8840   23.2890 C   0  0  0  0  0  0  0  0  0  0  0  0
  -27.3910  -27.4980   20.1510 C   0  0  0  0  0  0  0  0  0  0  0  0
  -23.5180  -30.5140   21.6030 C   0  0  0  0  0  3  0  0  0  0  0  0
  -25.0010  -29.0230   20.1540 C   0  0  0  0  0  0  0  0  0  0  0  0
  -26.0490  -30.8840   21.4480 C   0  0  0  0  0  2  0  0  0  0  0  0
  -26.1520  -29.5280   20.7730 C   0  0  0  0  0  0  0  0  0  0  0  0
  -27.3540  -28.7730   20.7700 C   0  0  0  0  0  3  0  0  0  0  0  0
  -26.2270  -27.0290   19.5030 C   0  0  0  0  0  3  0  0  0  0  0  0
  -25.0350  -27.7750   19.5130 C   0  0  0  0  0  3  0  0  0  0  0  0
  -23.7510  -29.8730   20.2090 C   0  0  0  0  0  2  0  0  0  0  0  0
  -24.7710  -31.1070   22.1720 N   0  0  0  0  0  0  0  0  0  0  0  0
  -23.6040  -32.1390   23.8200 O   0  0  0  0  0  0  0  0  0  0  0  0
  -22.8600  -29.4660   22.5310 C   0  0  0  0  0  0  0  0  0  0  0  0
  -21.5450  -29.2550   22.3600 N   0  0  0  0  0  0  0  0  0  0  0  0
  -23.5310  -28.8480   23.3620 O   0  0  0  0  0  0  0  0  0  0  0  0
  -21.0640  -29.8070   21.6640 H   0  0  0  0  0  0  0  0  0  0  0  0
  -18.1820  -27.9900   22.7540 C   0  0  0  0  0  0  0  0  0  0  0  0
  -20.7260  -28.2900   23.0940 C   0  0  0  0  0  3  0  0  0  0  0  0
  -20.8700  -26.8700   22.5000 C   0  0  0  0  0  2  0  0  0  0  0  0
  -19.8000  -26.5440   21.4530 C   0  0  0  0  0  2  0  0  0  0  0  0
  -18.4000  -26.6540   22.0630 C   0  0  0  0  0  2  0  0  0  0  0  0
  -19.2740  -28.7650   23.2240 C   0  0  0  0  0  0  0  0  0  0  0  0
  -19.0180  -30.0150   23.8270 C   0  0  0  0  0  3  0  0  0  0  0  0
  -17.7000  -30.4900   23.9680 C   0  0  0  0  0  3  0  0  0  0  0  0
  -16.6210  -29.7120   23.5140 C   0  0  0  0  0  3  0  0  0  0  0  0
  -16.8630  -28.4630   22.9130 C   0  0  0  0  0  3  0  0  0  0  0  0
  -25.9670  -32.5110   23.9390 C   0  0  0  0  0  3  0  0  0  0  0  0
  -25.6560  -33.9100   24.2610 N   0  0  0  0  0  0  0  0  0  0  0  0
  -25.9850  -34.9580   23.4930 C   0  0  0  0  0  0  0  0  0  0  0  0
  -26.6510  -34.8490   22.4600 O   0  0  0  0  0  0  0  0  0  0  0  0
  -25.0640  -34.0690   25.0620 H   0  0  0  0  0  0  0  0  0  0  0  0
  -24.2460  -36.7400   23.1380 C   0  0  0  0  0  1  0  0  0  0  0  0
  -25.4960  -36.3490   23.9430 C   0  0  0  0  0  3  0  0  0  0  0  0
  -27.6270  -37.2560   24.7570 C   0  0  0  0  0  1  0  0  0  0  0  0
  -26.5230  -37.4040   23.8110 N   0  0  0  0  0  0  0  0  0  0  0  0
  -26.1130  -38.3240   23.9440 H   0  0  0  0  0  0  0  0  0  0  0  0
  -26.4540  -31.7370   25.2240 C   0  0  1  0  0  0  0  0  0  0  0  0
  -25.3340  -31.4930   26.2640 C   0  0  0  0  0  1  0  0  0  0  0  0
  -27.0490  -30.3620   24.8430 C   0  0  0  0  0  1  0  0  0  0  0  0
  -27.5850  -32.5320   25.9170 C   0  0  0  0  0  1  0  0  0  0  0  0
  1  4  2  0
  2  5  2  0
  3  1  1  0
  3  2  1  0
  6  3  1  0
  7  8  1  0
  9  7  2  0
 10 11  1  0
 11  8  2  0
 11  1  1  0
 12 10  2  0
 12  9  1  0
 13 21  1  0
 14 19  1  0
 15 16  1  0
 15 14  1  0
 17 16  1  0
 17 26  1  0
 17 18  1  0
 19 13  1  0
 19 18  1  0
 20 13  2  0
 21 12  1  0
 21 22  1  0
 23 24  2  0
 24 43  1  0
 25 24  1  0
 25 28  1  0
 26 27  1  0
 26 23  1  0
 27 25  2  0
 28 29  1  0
 29 30  2  0
 31 34  1  0
 31 30  1  0
 32 31  2  0
 33 32  1  0
 33 28  2  0
 34 35  1  0
 35 40  2  0
 35 36  1  0
 36 37  2  0
 37 38  1  0
 38 42  1  0
 39 38  2  0
 40 39  1  0
 41 40  1  0
 43 44  1  0
 44 47  1  0
 44 46  1  0
 45 43  2  0
 48 23  1  0
 48 49  1  0
 50 48  1  0
 51 52  2  0
 51  2  1  0
 53 52  1  0
 54 65  2  0
 55 53  1  0
 55 60  1  0
 56 64  1  0
 56 66  1  0
 57 63  1  0
 57 59  1  0
 58 64  1  0
 59 58  1  0
 60 59  2  0
 61 62  1  0
 61 55  2  0
 62 57  2  0
 63 56  1  0
 64 54  1  0
 66 68  2  0
 67 66  1  0
 69 67  1  0
 70 79  2  0
 70 75  1  0
 71 67  1  0
 71 75  1  0
 72 71  1  0
 73 74  1  0
 73 72  1  0
 74 70  1  0
 75 76  2  0
 76 77  1  0
 78 77  2  0
 79 78  1  0
 80 54  1  0
 80 81  1  0
 80 90  1  0
 81 84  1  0
 82 86  1  0
 82 81  1  0
 83 82  2  0
 86 85  1  0
 88 86  1  0
 88 89  1  0
 88 87  1  0
 90 93  1  1
 90 91  1  0
 92 90  1  0
M  ISO  4  13 100  21 100  52 101  53 101
M  END
>  <TORSDO>  (82) 
F 18

>  <SCORE>  (82) 
-14.243

>  <name>  (82) 
81

>  <ligand_id>  (82) 
81

>  <original_smiles>  (82) 
[H]C(Oc1c([H])c([H])c2c(c1[H])C([H])([H])N(C(=O)C([H])(N([H])C(=O)C([H])(N([H])C([H])([H])[H])C([H])([H])[H])C(C([H])([H])[H])(C([H])([H])[H])C([H])([H])[H])C([H])(C(=O)N([H])C1([H])c3c([H])c([H])c([H])c([H])c3C([H])([H])C([H])([H])C1([H])[H])C2([H])[H])=C([H])C(=O)N([H])C(=O)c1c([H])c([H])c([H])c(N([H])C(=O)N2C([H])([H])C([H])([H])C([H])([H])C([H])(n3nc(-c4c([H])c([H])c(Oc5c([H])c([H])c(F)c([H])c5F)c([H])c4[H])c(C(=O)N([H])[H])c3N([H])[H])C2([H])[H])c1[H]

>  <smiles>  (82) 
[H]C(Oc1c([H])c([H])c2c(c1[H])C([H])([H])N(C(=O)C([H])(N([H])C(=O)C([H])(N([H])C([H])([H])[H])C([H])([H])[H])C(C([H])([H])[H])(C([H])([H])[H])C([H])([H])[H])C([H])(C(=O)N([H])C1([H])c3c([H])c([H])c([H])c([H])c3C([H])([H])C([H])([H])C1([H])[H])C2([H])[H])=C([H])C(=O)N([H])C(=O)c1c([H])c([H])c([H])c(N([H])C(=O)N2C([H])([H])C([H])([H])C([H])([H])C([H])(n3nc(-c4c([H])c([H])c(Oc5c([H])c([H])c(F)c([H])c5F)c([H])c4[H])c(C(=O)N([H])[H])c3N([H])[H])C2([H])[H])c1[H]

$$$$
82:0:0
     RDKit          3D

 95104  0  0  1  0  0  0  0  0999 V2000
  -30.1010  -23.5480   20.7770 C   0  0  0  0  0  3  0  0  0  0  0  0
  -28.8280  -23.6450   20.1400 C   0  0  0  0  0  0  0  0  0  0  0  0
  -28.5450  -22.3210   19.7580 C   0  0  0  0  0  0  0  0  0  0  0  0
  -30.5280  -22.2410   20.7220 C   0  0  0  0  0  0  0  0  0  0  0  0
  -27.3440  -21.8150   19.0130 C   0  0  0  0  0  1  0  0  0  0  0  0
  -29.5930  -21.4190   20.1010 N   0  0  0  0  0  0  0  0  0  0  0  0
  -30.4770  -18.5980   17.7830 C   0  0  0  0  0  3  0  0  0  0  0  0
  -30.4560  -17.4330   18.5740 C   0  0  0  0  0  3  0  0  0  0  0  0
  -30.1540  -19.8560   18.3260 C   0  0  0  0  0  3  0  0  0  0  0  0
  -29.8020  -18.7930   20.4830 C   0  0  0  0  0  3  0  0  0  0  0  0
  -30.1210  -17.4640   19.9490 C   0  0  0  0  0  0  0  0  0  0  0  0
  -29.8110  -20.0130   19.6820 C   0  0  0  0  0  0  0  0  0  0  0  0
  -30.0530  -16.1070   20.7300 C   0  0  0  0  0  0  0  0  0  0  0  0
  -29.4690  -16.1020   21.8550 N   0  0  0  0  0  0  0  0  0  0  0  0
  -29.1050  -17.0180   22.0820 H   0  0  0  0  0  0  0  0  0  0  0  0
  -30.7470  -14.7690   20.1560 C   0  0  0  0  0  0  0  0  0  0  0  0
  -30.4440  -12.5250   19.0930 C   0  0  0  0  0  2  0  0  0  0  0  0
  -29.4740  -12.6600   17.8960 C   0  0  0  0  0  2  0  0  0  0  0  0
  -28.0160  -12.4910   18.3620 C   0  0  0  0  0  2  0  0  0  0  0  0
  -27.6980  -13.3490   19.6150 C   0  0  0  0  0  3  0  0  0  0  0  0
  -28.7830  -13.1900   20.7000 C   0  0  0  0  0  2  0  0  0  0  0  0
  -30.0770  -13.5540   20.1010 N   0  0  0  0  0  0  0  0  0  0  0  0
  -31.8830  -14.8490   19.6760 O   0  0  0  0  0  0  0  0  0  0  0  0
  -25.3340  -13.9590   20.4080 C   0  0  0  0  0  0  0  0  0  0  0  0
  -24.2720  -13.1930   20.8020 C   0  0  0  0  0  0  0  0  0  0  0  0
  -24.7220  -11.8380   20.7520 C   0  0  0  0  0  0  0  0  0  0  0  0
  -26.3630  -13.0720   20.1380 N   0  0  0  0  0  0  0  0  0  0  0  0
  -26.0030  -11.7900   20.4070 N   0  0  0  0  0  0  0  0  0  0  0  0
  -23.9910  -10.5800   20.9560 C   0  0  0  0  0  0  0  0  0  0  0  0
  -24.4310   -9.6130   21.8860 C   0  0  0  0  0  3  0  0  0  0  0  0
  -23.7010   -8.4210   22.0780 C   0  0  0  0  0  3  0  0  0  0  0  0
  -22.5160   -8.1880   21.3410 C   0  0  0  0  0  0  0  0  0  0  0  0
  -22.0940   -9.1430   20.4000 C   0  0  0  0  0  3  0  0  0  0  0  0
  -22.8240  -10.3280   20.2060 C   0  0  0  0  0  3  0  0  0  0  0  0
  -21.7560   -7.0470   21.4430 O   0  0  0  0  0  0  0  0  0  0  0  0
  -21.7010   -6.3200   22.6050 C   0  0  0  0  0  0  0  0  0  0  0  0
  -21.2880   -6.8970   23.8270 C   0  0  0  0  0  3  0  0  0  0  0  0
  -21.1770   -6.0970   24.9820 C   0  0  0  0  0  3  0  0  0  0  0  0
  -21.4710   -4.7210   24.9170 C   0  0  0  0  0  0  0  0  0  0  0  0
  -21.8760   -4.1430   23.7000 C   0  0  0  0  0  3  0  0  0  0  0  0
  -21.9870   -4.9420   22.5480 C   0  0  0  0  0  0  0  0  0  0  0  0
  -22.3570   -4.3760   21.3740 F   0  0  0  0  0  0  0  0  0  0  0  0
  -21.3570   -3.9510   26.0230 F   0  0  0  0  0  0  0  0  0  0  0  0
  -22.8870  -13.6800   21.1180 C   0  0  0  0  0  0  0  0  0  0  0  0
  -22.1830  -12.9870   22.0050 N   0  0  0  0  0  0  0  0  0  0  0  0
  -22.4420  -14.7110   20.6150 O   0  0  0  0  0  0  0  0  0  0  0  0
  -22.5540  -12.1510   22.4300 H   0  0  0  0  0  0  0  0  0  0  0  0
  -21.2570  -13.2960   22.2650 H   0  0  0  0  0  0  0  0  0  0  0  0
  -25.5080  -15.3290   20.2360 N   0  0  0  0  0  0  0  0  0  0  0  0
  -24.7590  -15.9970   20.3810 H   0  0  0  0  0  0  0  0  0  0  0  0
  -26.3770  -15.7640   19.9500 H   0  0  0  0  0  0  0  0  0  0  0  0
  -31.7240  -21.7330   21.1180 O   0  0  0  0  0  0  0  0  0  0  0  0
  -32.3000  -22.4680   21.3110 H   0  0  0  0  0  0  0  0  0  0  0  0
  -27.9170  -24.9190   19.8840 C   0  0  0  0  0  2  0  0  0  0  0  0
  -28.2650  -26.3480   20.2010 O   0  0  0  0  0  0  0  0  0  0  0  0
  -24.6070  -31.8700   23.2210 C   0  0  0  0  0  0  0  0  0  0  0  0
  -27.1910  -27.2780   20.1370 C   0  0  0  0  0  0  0  0  0  0  0  0
  -23.3970  -30.4780   21.5860 C   0  0  0  0  0  3  0  0  0  0  0  0
  -24.8430  -28.9440   20.1400 C   0  0  0  0  0  0  0  0  0  0  0  0
  -25.9440  -30.7810   21.4030 C   0  0  0  0  0  2  0  0  0  0  0  0
  -26.0190  -29.4040   20.7450 C   0  0  0  0  0  0  0  0  0  0  0  0
  -27.1950  -28.5820   20.7410 C   0  0  0  0  0  3  0  0  0  0  0  0
  -25.9890  -26.9050   19.4860 C   0  0  0  0  0  3  0  0  0  0  0  0
  -24.8340  -27.7020   19.4990 C   0  0  0  0  0  3  0  0  0  0  0  0
  -23.6080  -29.8230   20.2000 C   0  0  0  0  0  2  0  0  0  0  0  0
  -24.6670  -31.0620   22.1240 N   0  0  0  0  0  0  0  0  0  0  0  0
  -23.5250  -32.1470   23.7600 O   0  0  0  0  0  0  0  0  0  0  0  0
  -22.7420  -29.4510   22.5430 C   0  0  0  0  0  0  0  0  0  0  0  0
  -21.4140  -29.2750   22.4280 N   0  0  0  0  0  0  0  0  0  0  0  0
  -23.4240  -28.8210   23.3540 O   0  0  0  0  0  0  0  0  0  0  0  0
  -20.9180  -29.8390   21.7510 H   0  0  0  0  0  0  0  0  0  0  0  0
  -18.0360  -28.0790   22.9520 C   0  0  0  0  0  0  0  0  0  0  0  0
  -20.5970  -28.3360   23.2020 C   0  0  0  0  0  3  0  0  0  0  0  0
  -20.6940  -26.9030   22.6250 C   0  0  0  0  0  2  0  0  0  0  0  0
  -19.5850  -26.5860   21.6180 C   0  0  0  0  0  2  0  0  0  0  0  0
  -18.2070  -26.7300   22.2720 C   0  0  0  0  0  2  0  0  0  0  0  0
  -19.1590  -28.8400   23.3730 C   0  0  0  0  0  0  0  0  0  0  0  0
  -18.9440  -30.1010   23.9680 C   0  0  0  0  0  3  0  0  0  0  0  0
  -17.6410  -30.6020   24.1470 C   0  0  0  0  0  3  0  0  0  0  0  0
  -16.5330  -29.8380   23.7400 C   0  0  0  0  0  3  0  0  0  0  0  0
  -16.7320  -28.5780   23.1470 C   0  0  0  0  0  3  0  0  0  0  0  0
  -25.8920  -32.5030   23.8360 C   0  0  0  0  0  3  0  0  0  0  0  0
  -26.4190  -31.7280   25.1050 C   0  0  1  0  0  0  0  0  0  0  0  0
  -25.3330  -31.4810   26.1800 C   0  0  0  0  0  1  0  0  0  0  0  0
  -27.0080  -30.3540   24.7060 C   0  0  0  0  0  1  0  0  0  0  0  0
  -27.5700  -32.5260   25.7630 C   0  0  0  0  0  1  0  0  0  0  0  0
  -25.5780  -33.8980   24.1780 N   0  0  0  0  0  0  0  0  0  0  0  0
  -25.8910  -34.9580   23.4220 C   0  0  0  0  0  0  0  0  0  0  0  0
  -26.5460  -34.8680   22.3800 O   0  0  0  0  0  0  0  0  0  0  0  0
  -24.9910  -34.0380   24.9850 H   0  0  0  0  0  0  0  0  0  0  0  0
  -24.1420  -36.7410   23.1090 C   0  0  0  0  0  1  0  0  0  0  0  0
  -25.4000  -36.3400   23.8960 C   0  0  0  0  0  3  0  0  0  0  0  0
  -27.5420  -37.2350   24.6930 C   0  0  0  0  0  1  0  0  0  0  0  0
  -26.4210  -37.4020   23.7710 N   0  0  0  0  0  0  0  0  0  0  0  0
  -26.0110  -38.3170   23.9370 H   0  0  0  0  0  0  0  0  0  0  0  0
  2  1  1  0
  3  6  1  0
  3  2  2  0
  4  1  2  0
  4 52  1  0
  5  3  1  0
  6  4  1  0
  7  9  2  0
  7  8  1  0
  8 11  2  0
  9 12  1  0
 11 10  1  0
 11 13  1  0
 12  6  1  0
 12 10  2  0
 13 14  2  0
 14 15  1  0
 16 13  1  0
 17 22  1  0
 18 19  1  0
 18 17  1  0
 20 19  1  0
 20 27  1  0
 20 21  1  0
 22 16  1  0
 22 21  1  0
 23 16  2  0
 24 25  2  0
 25 44  1  0
 26 25  1  0
 26 29  1  0
 27 28  1  0
 27 24  1  0
 28 26  2  0
 29 30  1  0
 30 31  2  0
 32 35  1  0
 32 31  1  0
 33 32  2  0
 34 33  1  0
 34 29  2  0
 35 36  1  0
 36 37  1  0
 37 38  2  0
 39 38  1  0
 39 43  1  0
 40 39  2  0
 41 36  2  0
 41 40  1  0
 42 41  1  0
 44 45  1  0
 45 48  1  0
 45 47  1  0
 46 44  2  0
 49 50  1  0
 49 24  1  0
 51 49  1  0
 52 53  1  0
 54  2  1  0
 54 55  1  0
 56 67  2  0
 57 55  1  0
 57 62  1  0
 58 66  1  0
 58 68  1  0
 59 65  1  0
 59 61  1  0
 60 66  1  0
 61 60  1  0
 62 61  2  0
 63 64  1  0
 63 57  2  0
 64 59  2  0
 65 58  1  0
 66 56  1  0
 68 70  2  0
 69 68  1  0
 71 69  1  0
 72 81  2  0
 72 77  1  0
 73 69  1  0
 73 77  1  0
 74 73  1  0
 75 76  1  0
 75 74  1  0
 76 72  1  0
 77 78  2  0
 78 79  1  0
 80 79  2  0
 81 80  1  0
 82 56  1  0
 82 87  1  0
 82 83  1  0
 83 86  1  1
 83 84  1  0
 85 83  1  0
 87 90  1  0
 88 92  1  0
 88 87  1  0
 89 88  2  0
 92 91  1  0
 94 92  1  0
 94 95  1  0
 94 93  1  0
M  ISO  4  13 100  16 100  54 101  55 101
M  END
>  <TORSDO>  (83) 
F 20

>  <SCORE>  (83) 
-14.266

>  <name>  (83) 
82

>  <ligand_id>  (83) 
82

>  <original_smiles>  (83) 
[H]N=C(C(=O)N1C([H])([H])C([H])([H])C([H])([H])C([H])(n2nc(-c3c([H])c([H])c(Oc4c([H])c([H])c(F)c([H])c4F)c([H])c3[H])c(C(=O)N([H])[H])c2N([H])[H])C1([H])[H])c1c([H])c([H])c([H])c(-n2c(O[H])c([H])c(C([H])([H])Oc3c([H])c([H])c4c(c3[H])C([H])([H])N(C(=O)C([H])(N([H])C(=O)C([H])(N([H])C([H])([H])[H])C([H])([H])[H])C(C([H])([H])[H])(C([H])([H])[H])C([H])([H])[H])C([H])(C(=O)N([H])C3([H])c5c([H])c([H])c([H])c([H])c5C([H])([H])C([H])([H])C3([H])[H])C4([H])[H])c2C([H])([H])[H])c1[H]

>  <smiles>  (83) 
[H]N=C(C(=O)N1C([H])([H])C([H])([H])C([H])([H])C([H])(n2nc(-c3c([H])c([H])c(Oc4c([H])c([H])c(F)c([H])c4F)c([H])c3[H])c(C(=O)N([H])[H])c2N([H])[H])C1([H])[H])c1c([H])c([H])c([H])c(-n2c(O[H])c([H])c(C([H])([H])Oc3c([H])c([H])c4c(c3[H])C([H])([H])N(C(=O)C([H])(N([H])C(=O)C([H])(N([H])C([H])([H])[H])C([H])([H])[H])C(C([H])([H])[H])(C([H])([H])[H])C([H])([H])[H])C([H])(C(=O)N([H])C3([H])c5c([H])c([H])c([H])c([H])c5C([H])([H])C([H])([H])C3([H])[H])C4([H])[H])c2C([H])([H])[H])c1[H]

$$$$
