0:0:0
     RDKit          3D

 98107  0  0  1  0  0  0  0  0999 V2000
  -28.6100  -23.7240   18.5750 C   0  0  0  0  0  3  0  0  0  0  0  0
  -29.2220  -21.3820   18.5240 C   0  0  0  0  0  3  0  0  0  0  0  0
  -28.5330  -23.7530   19.9210 C   0  0  0  0  0  0  0  0  0  0  0  0
  -28.9560  -22.5150   17.8480 C   0  0  0  0  0  0  0  0  0  0  0  0
  -28.8320  -22.4510   20.6590 C   0  0  0  0  0  0  0  0  0  0  0  0
  -29.2040  -21.2950   19.9300 N   0  0  0  0  0  0  0  0  0  0  0  0
  -28.7160  -22.3980   21.8870 O   0  0  0  0  0  0  0  0  0  0  0  0
  -30.6360  -20.0650   21.5710 C   0  0  0  0  0  3  0  0  0  0  0  0
  -29.4450  -18.6380   20.0060 C   0  0  0  0  0  3  0  0  0  0  0  0
  -30.9840  -17.6300   21.6040 C   0  0  0  0  0  3  0  0  0  0  0  0
  -29.7140  -19.9950   20.4990 C   0  0  0  0  0  0  0  0  0  0  0  0
  -31.2540  -18.9190   22.1100 C   0  0  0  0  0  0  0  0  0  0  0  0
  -30.0740  -17.4300   20.5450 C   0  0  0  0  0  0  0  0  0  0  0  0
  -30.5650  -14.8900   20.0540 C   0  0  0  0  0  0  0  0  0  0  0  0
  -30.3520  -12.6170   19.0200 C   0  0  0  0  0  2  0  0  0  0  0  0
  -29.3490  -12.6670   17.8470 C   0  0  0  0  0  2  0  0  0  0  0  0
  -27.9040  -12.4730   18.3530 C   0  0  0  0  0  2  0  0  0  0  0  0
  -27.5780  -13.3590   19.5850 C   0  0  0  0  0  3  0  0  0  0  0  0
  -28.6930  -13.2850   20.6490 C   0  0  0  0  0  2  0  0  0  0  0  0
  -29.9470  -13.6610   19.9850 N   0  0  0  0  0  0  0  0  0  0  0  0
  -31.7560  -14.9890   19.7440 O   0  0  0  0  0  0  0  0  0  0  0  0
  -29.7590  -16.0200   20.1720 N   0  0  0  0  0  0  0  0  0  0  0  0
  -28.7740  -15.8200   20.1000 H   0  0  0  0  0  0  0  0  0  0  0  0
  -25.2370  -13.9340   20.4640 C   0  0  0  0  0  0  0  0  0  0  0  0
  -24.1910  -13.1510   20.8700 C   0  0  0  0  0  0  0  0  0  0  0  0
  -24.6510  -11.8010   20.7820 C   0  0  0  0  0  0  0  0  0  0  0  0
  -26.2640  -13.0600   20.1480 N   0  0  0  0  0  0  0  0  0  0  0  0
  -25.9230  -11.7700   20.4040 N   0  0  0  0  0  0  0  0  0  0  0  0
  -23.9330  -10.5350   20.9790 C   0  0  0  0  0  0  0  0  0  0  0  0
  -24.3850   -9.5660   21.9010 C   0  0  0  0  0  3  0  0  0  0  0  0
  -23.6690   -8.3640   22.0850 C   0  0  0  0  0  3  0  0  0  0  0  0
  -22.4840   -8.1250   21.3500 C   0  0  0  0  0  0  0  0  0  0  0  0
  -22.0500   -9.0830   20.4170 C   0  0  0  0  0  3  0  0  0  0  0  0
  -22.7680  -10.2770   20.2310 C   0  0  0  0  0  3  0  0  0  0  0  0
  -21.7350   -6.9760   21.4460 O   0  0  0  0  0  0  0  0  0  0  0  0
  -21.6830   -6.2470   22.6060 C   0  0  0  0  0  0  0  0  0  0  0  0
  -21.1990   -6.7980   23.8130 C   0  0  0  0  0  3  0  0  0  0  0  0
  -21.0980   -5.9910   24.9640 C   0  0  0  0  0  3  0  0  0  0  0  0
  -21.4690   -4.6340   24.9100 C   0  0  0  0  0  0  0  0  0  0  0  0
  -21.9460   -4.0830   23.7070 C   0  0  0  0  0  3  0  0  0  0  0  0
  -22.0490   -4.8870   22.5590 C   0  0  0  0  0  0  0  0  0  0  0  0
  -22.4900   -4.3460   21.3970 F   0  0  0  0  0  0  0  0  0  0  0  0
  -21.3650   -3.8570   26.0130 F   0  0  0  0  0  0  0  0  0  0  0  0
  -22.8110  -13.6220   21.2240 C   0  0  0  0  0  0  0  0  0  0  0  0
  -22.1230  -12.9030   22.1020 N   0  0  0  0  0  0  0  0  0  0  0  0
  -22.3520  -14.6630   20.7550 O   0  0  0  0  0  0  0  0  0  0  0  0
  -22.5060  -12.0600   22.5070 H   0  0  0  0  0  0  0  0  0  0  0  0
  -21.1980  -13.2000   22.3790 H   0  0  0  0  0  0  0  0  0  0  0  0
  -25.3910  -15.3100   20.3120 N   0  0  0  0  0  0  0  0  0  0  0  0
  -24.6270  -15.9550   20.4830 H   0  0  0  0  0  0  0  0  0  0  0  0
  -26.2100  -15.7620   19.9280 H   0  0  0  0  0  0  0  0  0  0  0  0
  -32.1460  -19.0610   23.1720 N   0  0  0  0  0  0  0  0  0  0  0  0
  -32.4790  -19.9800   23.4480 H   0  0  0  0  0  0  0  0  0  0  0  0
  -32.7770  -18.3030   23.4170 H   0  0  0  0  0  0  0  0  0  0  0  0
  -29.0210  -22.5220   16.5120 O   0  0  0  0  0  0  0  0  0  0  0  0
  -28.8020  -23.3950   16.2100 H   0  0  0  0  0  0  0  0  0  0  0  0
  -28.0610  -25.0760   20.6890 C   0  0  0  0  0  2  0  0  0  0  0  0
  -28.2510  -26.4630   20.1250 O   0  0  0  0  0  0  0  0  0  0  0  0
  -24.5440  -31.9030   23.2610 C   0  0  0  0  0  0  0  0  0  0  0  0
  -27.1550  -27.3550   20.1430 C   0  0  0  0  0  0  0  0  0  0  0  0
  -23.3430  -30.5240   21.6040 C   0  0  0  0  0  3  0  0  0  0  0  0
  -24.7950  -28.9910   20.1570 C   0  0  0  0  0  0  0  0  0  0  0  0
  -25.8840  -30.8430   21.4220 C   0  0  0  0  0  2  0  0  0  0  0  0
  -25.9680  -29.4690   20.7550 C   0  0  0  0  0  0  0  0  0  0  0  0
  -27.1550  -28.6640   20.7320 C   0  0  0  0  0  3  0  0  0  0  0  0
  -25.9570  -26.9400   19.5250 C   0  0  0  0  0  3  0  0  0  0  0  0
  -24.7940  -27.7350   19.5300 C   0  0  0  0  0  3  0  0  0  0  0  0
  -23.5580  -29.8670   20.2160 C   0  0  0  0  0  2  0  0  0  0  0  0
  -24.6100  -31.1070   22.1530 N   0  0  0  0  0  0  0  0  0  0  0  0
  -23.4590  -32.1710   23.7990 O   0  0  0  0  0  0  0  0  0  0  0  0
  -22.6800  -29.4960   22.5530 C   0  0  0  0  0  0  0  0  0  0  0  0
  -21.3540  -29.3170   22.4260 N   0  0  0  0  0  0  0  0  0  0  0  0
  -23.3620  -28.8610   23.3630 O   0  0  0  0  0  0  0  0  0  0  0  0
  -20.8640  -29.8770   21.7440 H   0  0  0  0  0  0  0  0  0  0  0  0
  -17.9810  -28.1060   22.9230 C   0  0  0  0  0  0  0  0  0  0  0  0
  -20.5390  -28.3670   23.1870 C   0  0  0  0  0  3  0  0  0  0  0  0
  -20.6430  -26.9450   22.5910 C   0  0  0  0  0  2  0  0  0  0  0  0
  -19.5370  -26.6340   21.5760 C   0  0  0  0  0  2  0  0  0  0  0  0
  -18.1570  -26.7670   22.2260 C   0  0  0  0  0  2  0  0  0  0  0  0
  -19.0990  -28.8630   23.3610 C   0  0  0  0  0  0  0  0  0  0  0  0
  -18.8790  -30.1160   23.9740 C   0  0  0  0  0  3  0  0  0  0  0  0
  -17.5730  -30.6120   24.1500 C   0  0  0  0  0  3  0  0  0  0  0  0
  -16.4700  -29.8500   23.7280 C   0  0  0  0  0  3  0  0  0  0  0  0
  -16.6750  -28.5980   23.1220 C   0  0  0  0  0  3  0  0  0  0  0  0
  -25.8230  -32.5320   23.8920 C   0  0  0  0  0  3  0  0  0  0  0  0
  -26.3150  -31.7720   25.1860 C   0  0  1  0  0  0  0  0  0  0  0  0
  -25.2040  -31.5570   26.2390 C   0  0  0  0  0  1  0  0  0  0  0  0
  -26.8920  -30.3850   24.8200 C   0  0  0  0  0  1  0  0  0  0  0  0
  -27.4640  -32.5660   25.8540 C   0  0  0  0  0  1  0  0  0  0  0  0
  -25.5220  -33.9370   24.2030 N   0  0  0  0  0  0  0  0  0  0  0  0
  -25.8670  -34.9790   23.4340 C   0  0  0  0  0  0  0  0  0  0  0  0
  -26.5410  -34.8580   22.4070 O   0  0  0  0  0  0  0  0  0  0  0  0
  -24.9220  -34.1050   24.9970 H   0  0  0  0  0  0  0  0  0  0  0  0
  -24.1710  -36.7930   23.0360 C   0  0  0  0  0  1  0  0  0  0  0  0
  -25.3900  -36.3780   23.8730 C   0  0  0  0  0  3  0  0  0  0  0  0
  -27.5170  -37.2440   24.7430 C   0  0  0  0  0  1  0  0  0  0  0  0
  -26.4390  -37.4150   23.7720 N   0  0  0  0  0  0  0  0  0  0  0  0
  -26.0420  -38.3430   23.9000 H   0  0  0  0  0  0  0  0  0  0  0  0
  1  3  2  0
  2  6  1  0
  3  5  1  0
  3 57  1  0
  4  2  2  0
  4  1  1  0
  5  7  2  0
  6 11  1  0
  6  5  1  0
  8 12  1  0
  9 11  1  0
  9 13  2  0
 10 12  2  0
 11  8  2  0
 12 52  1  0
 13 10  1  0
 14 22  1  0
 15 20  1  0
 16 17  1  0
 16 15  1  0
 18 17  1  0
 18 27  1  0
 18 19  1  0
 20 14  1  0
 20 19  1  0
 21 14  2  0
 22 13  1  0
 23 22  1  0
 24 25  2  0
 25 44  1  0
 26 25  1  0
 26 29  1  0
 27 28  1  0
 27 24  1  0
 28 26  2  0
 29 30  1  0
 30 31  2  0
 32 35  1  0
 32 31  1  0
 33 32  2  0
 34 33  1  0
 34 29  2  0
 35 36  1  0
 36 37  1  0
 37 38  2  0
 39 38  1  0
 39 43  1  0
 40 39  2  0
 41 36  2  0
 41 40  1  0
 42 41  1  0
 44 45  1  0
 45 48  1  0
 45 47  1  0
 46 44  2  0
 49 24  1  0
 49 50  1  0
 51 49  1  0
 52 54  1  0
 52 53  1  0
 55  4  1  0
 56 55  1  0
 58 60  1  0
 58 57  1  0
 59 70  2  0
 60 65  1  0
 61 69  1  0
 61 71  1  0
 62 68  1  0
 62 64  1  0
 63 69  1  0
 64 63  1  0
 65 64  2  0
 66 67  1  0
 66 60  2  0
 67 62  2  0
 68 61  1  0
 69 59  1  0
 71 73  2  0
 72 71  1  0
 74 72  1  0
 75 84  2  0
 75 80  1  0
 76 72  1  0
 76 80  1  0
 77 76  1  0
 78 79  1  0
 78 77  1  0
 79 75  1  0
 80 81  2  0
 81 82  1  0
 83 82  2  0
 84 83  1  0
 85 59  1  0
 85 90  1  0
 85 86  1  0
 86 89  1  1
 86 87  1  0
 88 86  1  0
 90 93  1  0
 91 95  1  0
 91 90  1  0
 92 91  2  0
 95 94  1  0
 97 95  1  0
 97 98  1  0
 97 96  1  0
M  ISO  4  14 100  22 100  57 101  58 101
M  END
>  <TORSDO>  (1) 
F 20

>  <SCORE>  (1) 
-14.344

>  <name>  (1) 
0

>  <ligand_id>  (1) 
0

>  <original_smiles>  (1) 
[H]Oc1c([H])c(C([H])([H])Oc2c([H])c([H])c3c(c2[H])C([H])([H])N(C(=O)C([H])(N([H])C(=O)C([H])(N([H])C([H])([H])[H])C([H])([H])[H])C(C([H])([H])[H])(C([H])([H])[H])C([H])([H])[H])C([H])(C(=O)N([H])C2([H])c4c([H])c([H])c([H])c([H])c4C([H])([H])C([H])([H])C2([H])[H])C3([H])[H])c(=O)n(-c2c([H])c(N([H])[H])c([H])c(N([H])C(=O)N3C([H])([H])C([H])([H])C([H])([H])C([H])(n4nc(-c5c([H])c([H])c(Oc6c([H])c([H])c(F)c([H])c6F)c([H])c5[H])c(C(=O)N([H])[H])c4N([H])[H])C3([H])[H])c2[H])c1[H]

>  <smiles>  (1) 
[H]Oc1c([H])c(C([H])([H])Oc2c([H])c([H])c3c(c2[H])C([H])([H])N(C(=O)C([H])(N([H])C(=O)C([H])(N([H])C([H])([H])[H])C([H])([H])[H])C(C([H])([H])[H])(C([H])([H])[H])C([H])([H])[H])C([H])(C(=O)N([H])C2([H])c4c([H])c([H])c([H])c([H])c4C([H])([H])C([H])([H])C2([H])[H])C3([H])[H])c(=O)n(-c2c([H])c(N([H])[H])c([H])c(N([H])C(=O)N3C([H])([H])C([H])([H])C([H])([H])C([H])(n4nc(-c5c([H])c([H])c(Oc6c([H])c([H])c(F)c([H])c6F)c([H])c5[H])c(C(=O)N([H])[H])c4N([H])[H])C3([H])[H])c2[H])c1[H]

$$$$
1:0:0
     RDKit          3D

 93101  0  0  1  0  0  0  0  0999 V2000
  -28.2240  -20.8270   19.7010 C   0  0  0  0  0  0  0  0  0  0  0  0
  -28.1960  -23.3020   20.0280 C   0  0  0  0  0  0  0  0  0  0  0  0
  -28.6410  -22.0160   20.2330 N   0  0  0  0  0  0  0  0  0  0  0  0
  -27.2110  -20.7210   19.0000 O   0  0  0  0  0  0  0  0  0  0  0  0
  -27.5210  -23.6270   19.0450 O   0  0  0  0  0  0  0  0  0  0  0  0
  -29.3420  -21.9280   20.9510 H   0  0  0  0  0  0  0  0  0  0  0  0
  -30.3520  -19.3600   20.2480 C   0  0  0  0  0  3  0  0  0  0  0  0
  -30.7250  -17.9760   20.4210 C   0  0  0  0  0  3  0  0  0  0  0  0
  -29.0160  -19.5710   20.0190 C   0  0  0  0  0  0  0  0  0  0  0  0
  -29.6830  -17.0750   20.3430 C   0  0  0  0  0  0  0  0  0  0  0  0
  -28.2120  -17.9960   19.9680 S   0  0  0  0  0  0  0  0  0  0  0  0
  -30.5430  -14.6890   20.3390 C   0  0  0  0  0  0  0  0  0  0  0  0
  -30.3980  -12.4420   19.3070 C   0  0  0  0  0  2  0  0  0  0  0  0
  -29.4480  -12.5600   18.0950 C   0  0  0  0  0  2  0  0  0  0  0  0
  -27.9770  -12.3930   18.5310 C   0  0  0  0  0  2  0  0  0  0  0  0
  -27.6140  -13.2580   19.7650 C   0  0  0  0  0  3  0  0  0  0  0  0
  -28.6710  -13.1000   20.8790 C   0  0  0  0  0  2  0  0  0  0  0  0
  -29.9760  -13.4460   20.2970 N   0  0  0  0  0  0  0  0  0  0  0  0
  -31.7220  -14.8770   20.0220 O   0  0  0  0  0  0  0  0  0  0  0  0
  -29.6400  -15.7030   20.5320 N   0  0  0  0  0  0  0  0  0  0  0  0
  -28.7160  -15.3440   20.7110 H   0  0  0  0  0  0  0  0  0  0  0  0
  -25.2280  -13.8790   20.4880 C   0  0  0  0  0  0  0  0  0  0  0  0
  -24.1600  -13.1100   20.8620 C   0  0  0  0  0  0  0  0  0  0  0  0
  -24.6160  -11.7560   20.8300 C   0  0  0  0  0  0  0  0  0  0  0  0
  -26.2660  -12.9900   20.2500 N   0  0  0  0  0  0  0  0  0  0  0  0
  -25.9050  -11.7100   20.5210 N   0  0  0  0  0  0  0  0  0  0  0  0
  -23.8870  -10.4970   21.0230 C   0  0  0  0  0  0  0  0  0  0  0  0
  -24.3100   -9.5320   21.9620 C   0  0  0  0  0  3  0  0  0  0  0  0
  -23.5830   -8.3360   22.1370 C   0  0  0  0  0  3  0  0  0  0  0  0
  -22.4160   -8.0960   21.3710 C   0  0  0  0  0  0  0  0  0  0  0  0
  -22.0150   -9.0490   20.4170 C   0  0  0  0  0  3  0  0  0  0  0  0
  -22.7440  -10.2370   20.2410 C   0  0  0  0  0  3  0  0  0  0  0  0
  -21.6590   -6.9520   21.4540 O   0  0  0  0  0  0  0  0  0  0  0  0
  -21.5900   -6.2210   22.6110 C   0  0  0  0  0  0  0  0  0  0  0  0
  -21.1270   -6.7820   23.8210 C   0  0  0  0  0  3  0  0  0  0  0  0
  -21.0030   -5.9760   24.9710 C   0  0  0  0  0  3  0  0  0  0  0  0
  -21.3360   -4.6090   24.9100 C   0  0  0  0  0  0  0  0  0  0  0  0
  -21.7910   -4.0490   23.7040 C   0  0  0  0  0  3  0  0  0  0  0  0
  -21.9150   -4.8510   22.5570 C   0  0  0  0  0  0  0  0  0  0  0  0
  -22.3370   -4.3010   21.3930 F   0  0  0  0  0  0  0  0  0  0  0  0
  -21.2090   -3.8310   26.0100 F   0  0  0  0  0  0  0  0  0  0  0  0
  -22.7630  -13.5920   21.1290 C   0  0  0  0  0  0  0  0  0  0  0  0
  -22.0270  -12.8940   21.9870 N   0  0  0  0  0  0  0  0  0  0  0  0
  -22.3320  -14.6210   20.6100 O   0  0  0  0  0  0  0  0  0  0  0  0
  -22.3880  -12.0600   22.4250 H   0  0  0  0  0  0  0  0  0  0  0  0
  -21.0870  -13.1940   22.2030 H   0  0  0  0  0  0  0  0  0  0  0  0
  -25.3940  -15.2480   20.3070 N   0  0  0  0  0  0  0  0  0  0  0  0
  -24.6160  -15.8900   20.4070 H   0  0  0  0  0  0  0  0  0  0  0  0
  -26.2190  -15.6840   19.9210 H   0  0  0  0  0  0  0  0  0  0  0  0
  -28.5370  -25.6210   21.0770 C   0  0  0  0  0  3  0  0  0  0  0  0
  -28.5450  -24.2440   21.1310 C   0  0  0  0  0  0  0  0  0  0  0  0
  -28.8750  -23.6150   22.4840 C   0  0  0  0  0  1  0  0  0  0  0  0
  -28.3340  -26.5180   20.0360 O   0  0  0  0  0  0  0  0  0  0  0  0
  -24.6010  -31.8730   23.1860 C   0  0  0  0  0  0  0  0  0  0  0  0
  -27.2420  -27.3710   20.1080 C   0  0  0  0  0  0  0  0  0  0  0  0
  -23.4130  -30.4780   21.5340 C   0  0  0  0  0  3  0  0  0  0  0  0
  -24.8780  -28.9400   20.1090 C   0  0  0  0  0  0  0  0  0  0  0  0
  -25.9470  -30.8190   21.3540 C   0  0  0  0  0  2  0  0  0  0  0  0
  -26.0380  -29.4410   20.7170 C   0  0  0  0  0  0  0  0  0  0  0  0
  -27.2310  -28.6630   20.7160 C   0  0  0  0  0  3  0  0  0  0  0  0
  -26.0650  -26.9100   19.4920 C   0  0  0  0  0  3  0  0  0  0  0  0
  -24.8880  -27.6780   19.4940 C   0  0  0  0  0  3  0  0  0  0  0  0
  -23.6340  -29.8050   20.1530 C   0  0  0  0  0  2  0  0  0  0  0  0
  -24.6750  -31.0740   22.0820 N   0  0  0  0  0  0  0  0  0  0  0  0
  -23.5150  -32.1390   23.7210 O   0  0  0  0  0  0  0  0  0  0  0  0
  -22.7550  -29.4480   22.4870 C   0  0  0  0  0  0  0  0  0  0  0  0
  -21.4270  -29.2790   22.3700 N   0  0  0  0  0  0  0  0  0  0  0  0
  -23.4380  -28.8070   23.2900 O   0  0  0  0  0  0  0  0  0  0  0  0
  -20.9290  -29.8450   21.6970 H   0  0  0  0  0  0  0  0  0  0  0  0
  -18.0490  -28.1110   22.9030 C   0  0  0  0  0  0  0  0  0  0  0  0
  -20.6160  -28.3350   23.1390 C   0  0  0  0  0  3  0  0  0  0  0  0
  -20.6920  -26.9140   22.5330 C   0  0  0  0  0  2  0  0  0  0  0  0
  -19.5700  -26.6250   21.5310 C   0  0  0  0  0  2  0  0  0  0  0  0
  -18.2000  -26.7740   22.2000 C   0  0  0  0  0  2  0  0  0  0  0  0
  -19.1830  -28.8510   23.3310 C   0  0  0  0  0  0  0  0  0  0  0  0
  -18.9860  -30.1090   23.9450 C   0  0  0  0  0  3  0  0  0  0  0  0
  -17.6880  -30.6170   24.1430 C   0  0  0  0  0  3  0  0  0  0  0  0
  -16.5700  -29.8730   23.7340 C   0  0  0  0  0  3  0  0  0  0  0  0
  -16.7510  -28.6230   23.1150 C   0  0  0  0  0  3  0  0  0  0  0  0
  -25.8810  -32.5110   23.8140 C   0  0  0  0  0  3  0  0  0  0  0  0
  -25.5600  -33.9030   24.1550 N   0  0  0  0  0  0  0  0  0  0  0  0
  -25.8800  -34.9630   23.4020 C   0  0  0  0  0  0  0  0  0  0  0  0
  -26.5430  -34.8740   22.3680 O   0  0  0  0  0  0  0  0  0  0  0  0
  -24.9730  -34.0460   24.9630 H   0  0  0  0  0  0  0  0  0  0  0  0
  -24.1390  -36.7450   23.0610 C   0  0  0  0  0  1  0  0  0  0  0  0
  -25.3800  -36.3440   23.8720 C   0  0  0  0  0  3  0  0  0  0  0  0
  -27.5050  -37.2350   24.7200 C   0  0  0  0  0  1  0  0  0  0  0  0
  -26.4030  -37.4080   23.7780 N   0  0  0  0  0  0  0  0  0  0  0  0
  -25.9840  -38.3190   23.9470 H   0  0  0  0  0  0  0  0  0  0  0  0
  -26.4010  -31.7320   25.0840 C   0  0  1  0  0  0  0  0  0  0  0  0
  -25.3070  -31.4820   26.1490 C   0  0  0  0  0  1  0  0  0  0  0  0
  -26.9940  -30.3630   24.6770 C   0  0  0  0  0  1  0  0  0  0  0  0
  -27.5490  -32.5270   25.7510 C   0  0  0  0  0  1  0  0  0  0  0  0
  1  9  1  0
  1  3  1  0
  2  3  1  0
  2 51  1  0
  3  6  1  0
  4  1  2  0
  5  2  2  0
  7  8  1  0
  9  7  2  0
 10  8  2  0
 10 20  1  0
 11  9  1  0
 11 10  1  0
 12 20  1  0
 13 18  1  0
 14 15  1  0
 14 13  1  0
 16 15  1  0
 16 25  1  0
 16 17  1  0
 18 12  1  0
 18 17  1  0
 19 12  2  0
 20 21  1  0
 22 23  2  0
 23 42  1  0
 24 23  1  0
 24 27  1  0
 25 22  1  0
 25 26  1  0
 26 24  2  0
 27 28  1  0
 28 29  2  0
 30 33  1  0
 30 29  1  0
 31 30  2  0
 32 31  1  0
 32 27  2  0
 33 34  1  0
 34 35  1  0
 35 36  2  0
 37 36  1  0
 37 41  1  0
 38 37  2  0
 39 34  2  0
 39 38  1  0
 40 39  1  0
 42 43  1  0
 43 46  1  0
 43 45  1  0
 44 42  2  0
 47 48  1  0
 47 22  1  0
 49 47  1  0
 50 51  2  0
 51 52  1  0
 53 55  1  0
 53 50  1  0
 54 65  2  0
 55 60  1  0
 56 64  1  0
 56 66  1  0
 57 63  1  0
 57 59  1  0
 58 64  1  0
 59 58  1  0
 60 59  2  0
 61 62  1  0
 61 55  2  0
 62 57  2  0
 63 56  1  0
 64 54  1  0
 66 68  2  0
 67 66  1  0
 69 67  1  0
 70 79  2  0
 70 75  1  0
 71 67  1  0
 71 75  1  0
 72 71  1  0
 73 74  1  0
 73 72  1  0
 74 70  1  0
 75 76  2  0
 76 77  1  0
 78 77  2  0
 79 78  1  0
 80 54  1  0
 80 81  1  0
 80 90  1  0
 81 84  1  0
 82 86  1  0
 82 81  1  0
 83 82  2  0
 86 85  1  0
 88 86  1  0
 88 89  1  0
 88 87  1  0
 90 93  1  1
 90 91  1  0
 92 90  1  0
M  ISO  4  12 100  20 100  50 101  53 101
M  END
>  <TORSDO>  (2) 
F 18

>  <SCORE>  (2) 
-14.795

>  <name>  (2) 
1

>  <ligand_id>  (2) 
1

>  <original_smiles>  (2) 
[H]C(Oc1c([H])c([H])c2c(c1[H])C([H])([H])N(C(=O)C([H])(N([H])C(=O)C([H])(N([H])C([H])([H])[H])C([H])([H])[H])C(C([H])([H])[H])(C([H])([H])[H])C([H])([H])[H])C([H])(C(=O)N([H])C1([H])c3c([H])c([H])c([H])c([H])c3C([H])([H])C([H])([H])C1([H])[H])C2([H])[H])=C(C(=O)N([H])C(=O)c1sc(N([H])C(=O)N2C([H])([H])C([H])([H])C([H])([H])C([H])(n3nc(-c4c([H])c([H])c(Oc5c([H])c([H])c(F)c([H])c5F)c([H])c4[H])c(C(=O)N([H])[H])c3N([H])[H])C2([H])[H])c([H])c1[H])C([H])([H])[H]

>  <smiles>  (2) 
[H]C(Oc1c([H])c([H])c2c(c1[H])C([H])([H])N(C(=O)C([H])(N([H])C(=O)C([H])(N([H])C([H])([H])[H])C([H])([H])[H])C(C([H])([H])[H])(C([H])([H])[H])C([H])([H])[H])C([H])(C(=O)N([H])C1([H])c3c([H])c([H])c([H])c([H])c3C([H])([H])C([H])([H])C1([H])[H])C2([H])[H])=C(C(=O)N([H])C(=O)c1sc(N([H])C(=O)N2C([H])([H])C([H])([H])C([H])([H])C([H])(n3nc(-c4c([H])c([H])c(Oc5c([H])c([H])c(F)c([H])c5F)c([H])c4[H])c(C(=O)N([H])[H])c3N([H])[H])C2([H])[H])c([H])c1[H])C([H])([H])[H]

$$$$
2:0:0
     RDKit          3D

 94103  0  0  1  0  0  0  0  0999 V2000
  -31.6880  -18.8530   21.3770 C   0  0  0  0  0  3  0  0  0  0  0  0
  -31.4290  -17.4730   21.2410 C   0  0  0  0  0  3  0  0  0  0  0  0
  -29.1500  -17.9910   20.5980 C   0  0  0  0  0  3  0  0  0  0  0  0
  -30.7100  -19.8510   21.1360 C   0  0  0  0  0  0  0  0  0  0  0  0
  -30.7740  -21.3070   21.2560 C   0  0  0  0  0  0  0  0  0  0  0  0
  -30.1510  -17.0130   20.8520 C   0  0  0  0  0  0  0  0  0  0  0  0
  -29.4260  -19.3810   20.7250 C   0  0  0  0  0  0  0  0  0  0  0  0
  -29.5790  -21.9330   20.9430 C   0  0  0  0  0  0  0  0  0  0  0  0
  -32.0030  -22.0520   21.7000 C   0  0  0  0  0  1  0  0  0  0  0  0
  -28.3540  -20.7690   20.4480 S   0  0  0  0  0  0  0  0  0  0  0  0
  -30.6090  -14.5640   20.3580 C   0  0  0  0  0  0  0  0  0  0  0  0
  -30.3300  -12.3940   19.2040 C   0  0  0  0  0  2  0  0  0  0  0  0
  -29.3660  -12.5910   18.0160 C   0  0  0  0  0  2  0  0  0  0  0  0
  -27.8990  -12.4350   18.4680 C   0  0  0  0  0  2  0  0  0  0  0  0
  -27.5760  -13.2590   19.7430 C   0  0  0  0  0  3  0  0  0  0  0  0
  -28.6510  -13.0430   20.8320 C   0  0  0  0  0  2  0  0  0  0  0  0
  -29.9580  -13.3720   20.2400 N   0  0  0  0  0  0  0  0  0  0  0  0
  -31.7570  -14.7280   19.9340 O   0  0  0  0  0  0  0  0  0  0  0  0
  -29.8390  -15.6050   20.7730 N   0  0  0  0  0  0  0  0  0  0  0  0
  -28.8820  -15.3510   20.9600 H   0  0  0  0  0  0  0  0  0  0  0  0
  -25.1860  -13.8500   20.4900 C   0  0  0  0  0  0  0  0  0  0  0  0
  -24.1280  -13.0700   20.8740 C   0  0  0  0  0  0  0  0  0  0  0  0
  -24.5970  -11.7210   20.8340 C   0  0  0  0  0  0  0  0  0  0  0  0
  -26.2320  -12.9740   20.2430 N   0  0  0  0  0  0  0  0  0  0  0  0
  -25.8820  -11.6900   20.5080 N   0  0  0  0  0  0  0  0  0  0  0  0
  -23.8800  -10.4550   21.0300 C   0  0  0  0  0  0  0  0  0  0  0  0
  -24.3330   -9.4860   21.9530 C   0  0  0  0  0  3  0  0  0  0  0  0
  -23.6180   -8.2830   22.1370 C   0  0  0  0  0  3  0  0  0  0  0  0
  -22.4350   -8.0420   21.3990 C   0  0  0  0  0  0  0  0  0  0  0  0
  -22.0010   -8.9990   20.4650 C   0  0  0  0  0  3  0  0  0  0  0  0
  -22.7180  -10.1930   20.2790 C   0  0  0  0  0  3  0  0  0  0  0  0
  -21.6890   -6.8920   21.4930 O   0  0  0  0  0  0  0  0  0  0  0  0
  -21.6640   -6.1420   22.6420 C   0  0  0  0  0  0  0  0  0  0  0  0
  -21.2520   -6.6870   23.8780 C   0  0  0  0  0  3  0  0  0  0  0  0
  -21.1750   -5.8630   25.0190 C   0  0  0  0  0  3  0  0  0  0  0  0
  -21.4990   -4.4960   24.9260 C   0  0  0  0  0  0  0  0  0  0  0  0
  -21.9050   -3.9510   23.6950 C   0  0  0  0  0  3  0  0  0  0  0  0
  -21.9840   -4.7720   22.5550 C   0  0  0  0  0  0  0  0  0  0  0  0
  -22.3540   -4.2380   21.3670 F   0  0  0  0  0  0  0  0  0  0  0  0
  -21.4190   -3.7030   26.0190 F   0  0  0  0  0  0  0  0  0  0  0  0
  -22.7320  -13.5390   21.1650 C   0  0  0  0  0  0  0  0  0  0  0  0
  -22.0170  -12.8350   22.0360 N   0  0  0  0  0  0  0  0  0  0  0  0
  -22.2820  -14.5660   20.6550 O   0  0  0  0  0  0  0  0  0  0  0  0
  -22.3940  -12.0050   22.4700 H   0  0  0  0  0  0  0  0  0  0  0  0
  -21.0810  -13.1300   22.2730 H   0  0  0  0  0  0  0  0  0  0  0  0
  -25.3390  -15.2210   20.3090 N   0  0  0  0  0  0  0  0  0  0  0  0
  -24.5630  -15.8650   20.4170 H   0  0  0  0  0  0  0  0  0  0  0  0
  -26.1640  -15.6580   19.9200 H   0  0  0  0  0  0  0  0  0  0  0  0
  -28.5050  -24.1420   20.5060 C   0  0  0  0  0  0  0  0  0  0  0  0
  -29.3680  -23.2820   21.0990 N   0  0  0  0  0  0  0  0  0  0  0  0
  -27.8240  -23.8480   19.5180 O   0  0  0  0  0  0  0  0  0  0  0  0
  -29.9490  -23.7200   21.8000 H   0  0  0  0  0  0  0  0  0  0  0  0
  -28.4030  -25.5680   21.1310 C   0  0  0  0  0  2  0  0  0  0  0  0
  -28.3830  -26.6520   20.1690 O   0  0  0  0  0  0  0  0  0  0  0  0
  -24.5880  -31.8880   23.2520 C   0  0  0  0  0  0  0  0  0  0  0  0
  -27.2400  -27.4270   20.1840 C   0  0  0  0  0  0  0  0  0  0  0  0
  -23.3880  -30.4840   21.6070 C   0  0  0  0  0  3  0  0  0  0  0  0
  -24.8490  -28.9460   20.1850 C   0  0  0  0  0  0  0  0  0  0  0  0
  -25.9160  -30.8430   21.4160 C   0  0  0  0  0  2  0  0  0  0  0  0
  -26.0070  -29.4690   20.7770 C   0  0  0  0  0  0  0  0  0  0  0  0
  -27.2090  -28.7180   20.7710 C   0  0  0  0  0  3  0  0  0  0  0  0
  -26.0680  -26.9250   19.5870 C   0  0  0  0  0  3  0  0  0  0  0  0
  -24.8750  -27.6750   19.5850 C   0  0  0  0  0  3  0  0  0  0  0  0
  -23.6020  -29.8050   20.2280 C   0  0  0  0  0  2  0  0  0  0  0  0
  -24.6480  -31.0870   22.1500 N   0  0  0  0  0  0  0  0  0  0  0  0
  -23.5040  -32.1580   23.7910 O   0  0  0  0  0  0  0  0  0  0  0  0
  -22.7350  -29.4630   22.5670 C   0  0  0  0  0  0  0  0  0  0  0  0
  -21.4100  -29.2800   22.4400 N   0  0  0  0  0  0  0  0  0  0  0  0
  -23.4190  -28.8360   23.3820 O   0  0  0  0  0  0  0  0  0  0  0  0
  -20.9210  -29.8380   21.7530 H   0  0  0  0  0  0  0  0  0  0  0  0
  -18.0370  -28.0830   22.9330 C   0  0  0  0  0  0  0  0  0  0  0  0
  -20.5940  -28.3410   23.2070 C   0  0  0  0  0  3  0  0  0  0  0  0
  -20.6970  -26.9110   22.6270 C   0  0  0  0  0  2  0  0  0  0  0  0
  -19.5950  -26.5920   21.6110 C   0  0  0  0  0  2  0  0  0  0  0  0
  -18.2130  -26.7360   22.2560 C   0  0  0  0  0  2  0  0  0  0  0  0
  -19.1550  -28.8440   23.3660 C   0  0  0  0  0  0  0  0  0  0  0  0
  -18.9360  -30.1070   23.9600 C   0  0  0  0  0  3  0  0  0  0  0  0
  -17.6310  -30.6080   24.1260 C   0  0  0  0  0  3  0  0  0  0  0  0
  -16.5280  -29.8440   23.7100 C   0  0  0  0  0  3  0  0  0  0  0  0
  -16.7310  -28.5840   23.1190 C   0  0  0  0  0  3  0  0  0  0  0  0
  -25.8700  -32.5220   23.8750 C   0  0  0  0  0  3  0  0  0  0  0  0
  -25.5620  -33.9210   24.1970 N   0  0  0  0  0  0  0  0  0  0  0  0
  -25.8990  -34.9690   23.4340 C   0  0  0  0  0  0  0  0  0  0  0  0
  -26.5720  -34.8590   22.4060 O   0  0  0  0  0  0  0  0  0  0  0  0
  -24.9640  -34.0800   24.9950 H   0  0  0  0  0  0  0  0  0  0  0  0
  -24.1750  -36.7620   23.0600 C   0  0  0  0  0  1  0  0  0  0  0  0
  -25.4100  -36.3600   23.8820 C   0  0  0  0  0  3  0  0  0  0  0  0
  -27.5400  -37.2460   24.7220 C   0  0  0  0  0  1  0  0  0  0  0  0
  -26.4440  -37.4110   23.7700 N   0  0  0  0  0  0  0  0  0  0  0  0
  -26.0390  -38.3330   23.9090 H   0  0  0  0  0  0  0  0  0  0  0  0
  -26.3830  -31.7540   25.1560 C   0  0  1  0  0  0  0  0  0  0  0  0
  -25.2890  -31.5220   26.2230 C   0  0  0  0  0  1  0  0  0  0  0  0
  -26.9660  -30.3750   24.7690 C   0  0  0  0  0  1  0  0  0  0  0  0
  -27.5330  -32.5500   25.8180 C   0  0  0  0  0  1  0  0  0  0  0  0
  2  1  1  0
  3  7  2  0
  3  6  1  0
  4  5  1  0
  4  1  2  0
  5  9  1  0
  6  2  2  0
  7  4  1  0
  8 50  1  0
  8  5  2  0
 10  7  1  0
 10  8  1  0
 11 19  1  0
 12 17  1  0
 13 14  1  0
 13 12  1  0
 15 14  1  0
 15 24  1  0
 15 16  1  0
 17 11  1  0
 17 16  1  0
 18 11  2  0
 19  6  1  0
 19 20  1  0
 21 22  2  0
 22 41  1  0
 23 22  1  0
 23 26  1  0
 24 21  1  0
 24 25  1  0
 25 23  2  0
 26 27  1  0
 27 28  2  0
 29 32  1  0
 29 28  1  0
 30 29  2  0
 31 30  1  0
 31 26  2  0
 32 33  1  0
 33 34  1  0
 34 35  2  0
 36 35  1  0
 36 40  1  0
 37 36  2  0
 38 33  2  0
 38 37  1  0
 39 38  1  0
 41 42  1  0
 42 45  1  0
 42 44  1  0
 43 41  2  0
 46 47  1  0
 46 21  1  0
 48 46  1  0
 49 50  1  0
 49 53  1  0
 50 52  1  0
 51 49  2  0
 54 56  1  0
 54 53  1  0
 55 66  2  0
 56 61  1  0
 57 65  1  0
 57 67  1  0
 58 64  1  0
 58 60  1  0
 59 65  1  0
 60 59  1  0
 61 60  2  0
 62 56  2  0
 63 62  1  0
 63 58  2  0
 64 57  1  0
 65 55  1  0
 67 69  2  0
 68 67  1  0
 70 68  1  0
 71 80  2  0
 71 76  1  0
 72 68  1  0
 72 76  1  0
 73 72  1  0
 74 75  1  0
 74 73  1  0
 75 71  1  0
 76 77  2  0
 77 78  1  0
 79 78  2  0
 80 79  1  0
 81 55  1  0
 81 82  1  0
 81 91  1  0
 82 85  1  0
 83 87  1  0
 83 82  1  0
 84 83  2  0
 87 86  1  0
 89 87  1  0
 89 90  1  0
 89 88  1  0
 91 94  1  1
 91 92  1  0
 93 91  1  0
M  ISO  4  11 100  19 100  53 101  54 101
M  END
>  <TORSDO>  (3) 
F 18

>  <SCORE>  (3) 
-14.851

>  <name>  (3) 
2

>  <ligand_id>  (3) 
2

>  <original_smiles>  (3) 
[H]c1c([H])c([H])c2c(c1[H])C([H])([H])C([H])([H])C([H])([H])C2([H])N([H])C(=O)C1([H])N(C(=O)C([H])(N([H])C(=O)C([H])(N([H])C([H])([H])[H])C([H])([H])[H])C(C([H])([H])[H])(C([H])([H])[H])C([H])([H])[H])C([H])([H])c2c([H])c(OC([H])([H])C(=O)N([H])c3sc4c([H])c(N([H])C(=O)N5C([H])([H])C([H])([H])C([H])([H])C([H])(n6nc(-c7c([H])c([H])c(Oc8c([H])c([H])c(F)c([H])c8F)c([H])c7[H])c(C(=O)N([H])[H])c6N([H])[H])C5([H])[H])c([H])c([H])c4c3C([H])([H])[H])c([H])c([H])c2C1([H])[H]

>  <smiles>  (3) 
[H]c1c([H])c([H])c2c(c1[H])C([H])([H])C([H])([H])C([H])([H])C2([H])N([H])C(=O)C1([H])N(C(=O)C([H])(N([H])C(=O)C([H])(N([H])C([H])([H])[H])C([H])([H])[H])C(C([H])([H])[H])(C([H])([H])[H])C([H])([H])[H])C([H])([H])c2c([H])c(OC([H])([H])C(=O)N([H])c3sc4c([H])c(N([H])C(=O)N5C([H])([H])C([H])([H])C([H])([H])C([H])(n6nc(-c7c([H])c([H])c(Oc8c([H])c([H])c(F)c([H])c8F)c([H])c7[H])c(C(=O)N([H])[H])c6N([H])[H])C5([H])[H])c([H])c([H])c4c3C([H])([H])[H])c([H])c([H])c2C1([H])[H]

$$$$
3:0:0
     RDKit          3D

 96105  0  0  1  0  0  0  0  0999 V2000
  -28.7520  -23.7370   20.3760 C   0  0  0  0  0  0  0  0  0  0  0  0
  -30.1490  -23.5700   20.6850 C   0  0  0  0  0  0  0  0  0  0  0  0
  -28.2710  -22.3180   20.2010 C   0  0  0  0  0  0  0  0  0  0  0  0
  -31.0210  -24.5760   20.8710 C   0  0  0  0  0  1  0  0  0  0  0  0
  -27.9630  -24.8920   20.2350 C   0  0  0  0  0  2  0  0  0  0  0  0
  -30.5110  -22.0850   20.7650 C   0  0  0  0  0  2  0  0  0  0  0  0
  -29.2800  -21.3680   20.3940 N   0  0  0  0  0  0  0  0  0  0  0  0
  -27.1100  -22.0030   19.9210 O   0  0  0  0  0  0  0  0  0  0  0  0
  -29.0430  -19.7410   18.5510 C   0  0  0  0  0  3  0  0  0  0  0  0
  -29.6530  -18.7070   20.6710 C   0  0  0  0  0  3  0  0  0  0  0  0
  -29.4260  -17.3110   18.6800 C   0  0  0  0  0  3  0  0  0  0  0  0
  -29.3130  -19.9330   19.9260 C   0  0  0  0  0  0  0  0  0  0  0  0
  -29.0940  -18.4680   17.9400 C   0  0  0  0  0  0  0  0  0  0  0  0
  -29.7120  -17.3650   20.0660 C   0  0  0  0  0  0  0  0  0  0  0  0
  -30.6050  -14.9020   20.3650 C   0  0  0  0  0  0  0  0  0  0  0  0
  -30.4290  -12.5950   19.3950 C   0  0  0  0  0  2  0  0  0  0  0  0
  -29.5030  -12.6500   18.1590 C   0  0  0  0  0  2  0  0  0  0  0  0
  -28.0320  -12.4710   18.5780 C   0  0  0  0  0  2  0  0  0  0  0  0
  -27.6490  -13.3610   19.7900 C   0  0  0  0  0  3  0  0  0  0  0  0
  -28.6990  -13.2960   20.9200 C   0  0  0  0  0  2  0  0  0  0  0  0
  -29.9980  -13.6590   20.3400 N   0  0  0  0  0  0  0  0  0  0  0  0
  -31.7650  -15.0050   19.9520 O   0  0  0  0  0  0  0  0  0  0  0  0
  -29.8840  -16.0380   20.7520 N   0  0  0  0  0  0  0  0  0  0  0  0
  -29.1210  -15.8110   21.3730 H   0  0  0  0  0  0  0  0  0  0  0  0
  -25.2580  -13.9450   20.5020 C   0  0  0  0  0  0  0  0  0  0  0  0
  -24.1910  -13.1700   20.8670 C   0  0  0  0  0  0  0  0  0  0  0  0
  -24.6560  -11.8200   20.8420 C   0  0  0  0  0  0  0  0  0  0  0  0
  -26.3040  -13.0670   20.2740 N   0  0  0  0  0  0  0  0  0  0  0  0
  -25.9500  -11.7830   20.5400 N   0  0  0  0  0  0  0  0  0  0  0  0
  -23.9280  -10.5580   21.0320 C   0  0  0  0  0  0  0  0  0  0  0  0
  -24.3590   -9.5910   21.9670 C   0  0  0  0  0  3  0  0  0  0  0  0
  -23.6340   -8.3930   22.1450 C   0  0  0  0  0  3  0  0  0  0  0  0
  -22.4610   -8.1540   21.3900 C   0  0  0  0  0  0  0  0  0  0  0  0
  -22.0490   -9.1090   20.4430 C   0  0  0  0  0  3  0  0  0  0  0  0
  -22.7750  -10.2980   20.2640 C   0  0  0  0  0  3  0  0  0  0  0  0
  -21.7050   -7.0100   21.4780 O   0  0  0  0  0  0  0  0  0  0  0  0
  -21.6570   -6.2670   22.6310 C   0  0  0  0  0  0  0  0  0  0  0  0
  -21.2260   -6.8200   23.8570 C   0  0  0  0  0  3  0  0  0  0  0  0
  -21.1230   -6.0030   25.0010 C   0  0  0  0  0  3  0  0  0  0  0  0
  -21.4430   -4.6340   24.9200 C   0  0  0  0  0  0  0  0  0  0  0  0
  -21.8650   -4.0800   23.6980 C   0  0  0  0  0  3  0  0  0  0  0  0
  -21.9700   -4.8950   22.5580 C   0  0  0  0  0  0  0  0  0  0  0  0
  -22.3570   -4.3520   21.3790 F   0  0  0  0  0  0  0  0  0  0  0  0
  -21.3380   -3.8450   26.0150 F   0  0  0  0  0  0  0  0  0  0  0  0
  -22.7920  -13.6480   21.1290 C   0  0  0  0  0  0  0  0  0  0  0  0
  -22.0590  -12.9550   21.9930 N   0  0  0  0  0  0  0  0  0  0  0  0
  -22.3580  -14.6710   20.6030 O   0  0  0  0  0  0  0  0  0  0  0  0
  -22.4200  -12.1240   22.4390 H   0  0  0  0  0  0  0  0  0  0  0  0
  -21.1210  -13.2580   22.2110 H   0  0  0  0  0  0  0  0  0  0  0  0
  -25.4250  -15.3150   20.3190 N   0  0  0  0  0  0  0  0  0  0  0  0
  -24.6620  -15.9750   20.4220 H   0  0  0  0  0  0  0  0  0  0  0  0
  -26.2820  -15.7510   19.9990 H   0  0  0  0  0  0  0  0  0  0  0  0
  -28.8040  -18.3530   16.5800 N   0  0  0  0  0  0  0  0  0  0  0  0
  -28.3330  -19.1180   16.1060 H   0  0  0  0  0  0  0  0  0  0  0  0
  -28.5810  -17.4420   16.1880 H   0  0  0  0  0  0  0  0  0  0  0  0
  -28.2390  -26.3170   20.2780 O   0  0  0  0  0  0  0  0  0  0  0  0
  -24.6060  -31.9420   23.2520 C   0  0  0  0  0  0  0  0  0  0  0  0
  -27.1780  -27.2790   20.2050 C   0  0  0  0  0  0  0  0  0  0  0  0
  -23.3980  -30.5450   21.6170 C   0  0  0  0  0  3  0  0  0  0  0  0
  -24.8440  -28.9880   20.1830 C   0  0  0  0  0  0  0  0  0  0  0  0
  -25.9480  -30.8240   21.4430 C   0  0  0  0  0  2  0  0  0  0  0  0
  -26.0190  -29.4360   20.7960 C   0  0  0  0  0  0  0  0  0  0  0  0
  -27.1860  -28.5920   20.8060 C   0  0  0  0  0  3  0  0  0  0  0  0
  -25.9900  -26.9420   19.5150 C   0  0  0  0  0  3  0  0  0  0  0  0
  -24.8380  -27.7480   19.5300 C   0  0  0  0  0  3  0  0  0  0  0  0
  -23.6130  -29.8720   20.2360 C   0  0  0  0  0  2  0  0  0  0  0  0
  -24.6700  -31.1240   22.1590 N   0  0  0  0  0  0  0  0  0  0  0  0
  -23.5220  -32.2250   23.7870 O   0  0  0  0  0  0  0  0  0  0  0  0
  -22.7310  -29.5310   22.5790 C   0  0  0  0  0  0  0  0  0  0  0  0
  -21.4050  -29.3490   22.4500 N   0  0  0  0  0  0  0  0  0  0  0  0
  -23.4060  -28.9120   23.4060 O   0  0  0  0  0  0  0  0  0  0  0  0
  -20.9160  -29.9010   21.7590 H   0  0  0  0  0  0  0  0  0  0  0  0
  -18.0340  -28.1240   22.9390 C   0  0  0  0  0  0  0  0  0  0  0  0
  -20.5880  -28.4110   23.2230 C   0  0  0  0  0  3  0  0  0  0  0  0
  -20.7070  -26.9750   22.6630 C   0  0  0  0  0  2  0  0  0  0  0  0
  -19.6160  -26.6320   21.6440 C   0  0  0  0  0  2  0  0  0  0  0  0
  -18.2290  -26.7700   22.2760 C   0  0  0  0  0  2  0  0  0  0  0  0
  -19.1420  -28.9010   23.3700 C   0  0  0  0  0  0  0  0  0  0  0  0
  -18.9050  -30.1650   23.9490 C   0  0  0  0  0  3  0  0  0  0  0  0
  -17.5940  -30.6550   24.1030 C   0  0  0  0  0  3  0  0  0  0  0  0
  -16.5010  -29.8750   23.6880 C   0  0  0  0  0  3  0  0  0  0  0  0
  -16.7210  -28.6110   23.1110 C   0  0  0  0  0  3  0  0  0  0  0  0
  -25.8900  -32.5760   23.8700 C   0  0  0  0  0  3  0  0  0  0  0  0
  -25.5830  -33.9760   24.1940 N   0  0  0  0  0  0  0  0  0  0  0  0
  -25.9080  -35.0270   23.4290 C   0  0  0  0  0  0  0  0  0  0  0  0
  -26.5690  -34.9190   22.3920 O   0  0  0  0  0  0  0  0  0  0  0  0
  -24.9960  -34.1360   25.0000 H   0  0  0  0  0  0  0  0  0  0  0  0
  -24.1770  -36.8200   23.0900 C   0  0  0  0  0  1  0  0  0  0  0  0
  -25.4270  -36.4160   23.8880 C   0  0  0  0  0  3  0  0  0  0  0  0
  -27.5690  -37.3060   24.6950 C   0  0  0  0  0  1  0  0  0  0  0  0
  -26.4590  -37.4690   23.7600 N   0  0  0  0  0  0  0  0  0  0  0  0
  -26.0540  -38.3890   23.9100 H   0  0  0  0  0  0  0  0  0  0  0  0
  -26.4030  -31.8110   25.1520 C   0  0  1  0  0  0  0  0  0  0  0  0
  -25.3070  -31.5830   26.2180 C   0  0  0  0  0  1  0  0  0  0  0  0
  -26.9840  -30.4280   24.7740 C   0  0  0  0  0  1  0  0  0  0  0  0
  -27.5570  -32.6060   25.8080 C   0  0  0  0  0  1  0  0  0  0  0  0
  1  2  2  0
  2  6  1  0
  2  4  1  0
  3  1  1  0
  3  7  1  0
  5 56  1  0
  5  1  1  0
  7  6  1  0
  8  3  2  0
  9 12  1  0
 11 14  2  0
 12  7  1  0
 12 10  2  0
 13  9  2  0
 13 11  1  0
 14 10  1  0
 14 23  1  0
 15 23  1  0
 16 21  1  0
 17 18  1  0
 17 16  1  0
 19 18  1  0
 19 28  1  0
 19 20  1  0
 21 15  1  0
 21 20  1  0
 22 15  2  0
 23 24  1  0
 25 26  2  0
 26 45  1  0
 27 26  1  0
 27 30  1  0
 28 25  1  0
 28 29  1  0
 29 27  2  0
 30 31  1  0
 31 32  2  0
 33 36  1  0
 33 32  1  0
 34 33  2  0
 35 34  1  0
 35 30  2  0
 36 37  1  0
 37 38  1  0
 38 39  2  0
 40 39  1  0
 40 44  1  0
 41 40  2  0
 42 37  2  0
 42 41  1  0
 43 42  1  0
 45 46  1  0
 46 49  1  0
 46 48  1  0
 47 45  2  0
 50 51  1  0
 50 25  1  0
 52 50  1  0
 53 13  1  0
 54 53  1  0
 55 53  1  0
 57 68  2  0
 58 56  1  0
 58 63  1  0
 59 67  1  0
 59 69  1  0
 60 66  1  0
 60 62  1  0
 61 67  1  0
 62 63  2  0
 62 61  1  0
 64 65  1  0
 64 58  2  0
 65 60  2  0
 66 59  1  0
 67 57  1  0
 69 71  2  0
 70 69  1  0
 72 70  1  0
 73 82  2  0
 73 78  1  0
 74 70  1  0
 74 78  1  0
 75 74  1  0
 76 77  1  0
 76 75  1  0
 77 73  1  0
 78 79  2  0
 79 80  1  0
 81 80  2  0
 82 81  1  0
 83 57  1  0
 83 84  1  0
 83 93  1  0
 84 87  1  0
 85 89  1  0
 85 84  1  0
 86 85  2  0
 89 88  1  0
 91 89  1  0
 91 92  1  0
 91 90  1  0
 93 96  1  1
 93 94  1  0
 95 93  1  0
M  ISO  4   5 101  15 100  23 100  56 101
M  END
>  <TORSDO>  (4) 
F 18

>  <SCORE>  (4) 
-15.285

>  <name>  (4) 
3

>  <ligand_id>  (4) 
3

>  <original_smiles>  (4) 
[H]C([H])=C1C(=C([H])Oc2c([H])c([H])c3c(c2[H])C([H])([H])N(C(=O)C([H])(N([H])C(=O)C([H])(N([H])C([H])([H])[H])C([H])([H])[H])C(C([H])([H])[H])(C([H])([H])[H])C([H])([H])[H])C([H])(C(=O)N([H])C2([H])c4c([H])c([H])c([H])c([H])c4C([H])([H])C([H])([H])C2([H])[H])C3([H])[H])C(=O)N(c2c([H])c(N([H])[H])c([H])c(N([H])C(=O)N3C([H])([H])C([H])([H])C([H])([H])C([H])(n4nc(-c5c([H])c([H])c(Oc6c([H])c([H])c(F)c([H])c6F)c([H])c5[H])c(C(=O)N([H])[H])c4N([H])[H])C3([H])[H])c2[H])C1([H])[H]

>  <smiles>  (4) 
[H]C([H])=C1C(=C([H])Oc2c([H])c([H])c3c(c2[H])C([H])([H])N(C(=O)C([H])(N([H])C(=O)C([H])(N([H])C([H])([H])[H])C([H])([H])[H])C(C([H])([H])[H])(C([H])([H])[H])C([H])([H])[H])C([H])(C(=O)N([H])C2([H])c4c([H])c([H])c([H])c([H])c4C([H])([H])C([H])([H])C2([H])[H])C3([H])[H])C(=O)N(c2c([H])c(N([H])[H])c([H])c(N([H])C(=O)N3C([H])([H])C([H])([H])C([H])([H])C([H])(n4nc(-c5c([H])c([H])c(Oc6c([H])c([H])c(F)c([H])c6F)c([H])c5[H])c(C(=O)N([H])[H])c4N([H])[H])C3([H])[H])c2[H])C1([H])[H]

$$$$
4:0:0
     RDKit          3D

 91100  0  0  1  0  0  0  0  0999 V2000
  -28.4890  -23.8130   20.4750 C   0  0  0  0  0  0  0  0  0  0  0  0
  -28.0640  -22.6440   21.0340 C   0  0  0  0  0  0  0  0  0  0  0  0
  -27.0710  -22.3960   21.9060 C   0  0  0  0  0  1  0  0  0  0  0  0
  -28.0530  -25.1320   20.6300 C   0  0  0  0  0  2  0  0  0  0  0  0
  -29.5310  -22.9830   19.6800 C   0  0  0  0  0  2  0  0  0  0  0  0
  -28.9910  -21.7960   20.4000 N   0  0  0  0  0  0  0  0  0  0  0  0
  -29.2790  -19.5180   21.4720 C   0  0  0  0  0  3  0  0  0  0  0  0
  -30.0310  -19.6530   19.2350 C   0  0  0  0  0  3  0  0  0  0  0  0
  -29.5650  -18.1150   21.4940 C   0  0  0  0  0  3  0  0  0  0  0  0
  -30.3350  -18.2360   19.2400 C   0  0  0  0  0  3  0  0  0  0  0  0
  -29.4470  -20.3730   20.3360 C   0  0  0  0  0  0  0  0  0  0  0  0
  -30.0690  -17.4020   20.3720 C   0  0  0  0  0  0  0  0  0  0  0  0
  -30.8300  -14.9020   19.8140 C   0  0  0  0  0  0  0  0  0  0  0  0
  -30.6010  -12.6280   18.7670 C   0  0  0  0  0  2  0  0  0  0  0  0
  -29.5600  -12.6960   17.6250 C   0  0  0  0  0  2  0  0  0  0  0  0
  -28.1330  -12.4950   18.1700 C   0  0  0  0  0  2  0  0  0  0  0  0
  -27.8530  -13.3580   19.4290 C   0  0  0  0  0  3  0  0  0  0  0  0
  -28.9990  -13.2540   20.4620 C   0  0  0  0  0  2  0  0  0  0  0  0
  -30.2480  -13.6500   19.7850 N   0  0  0  0  0  0  0  0  0  0  0  0
  -31.9060  -15.0960   19.2360 O   0  0  0  0  0  0  0  0  0  0  0  0
  -30.1390  -15.9160   20.4550 N   0  0  0  0  0  0  0  0  0  0  0  0
  -29.4600  -15.5350   21.0950 H   0  0  0  0  0  0  0  0  0  0  0  0
  -25.5350  -13.9160   20.3880 C   0  0  0  0  0  0  0  0  0  0  0  0
  -24.4990  -13.1270   20.8080 C   0  0  0  0  0  0  0  0  0  0  0  0
  -24.9500  -11.7780   20.6730 C   0  0  0  0  0  0  0  0  0  0  0  0
  -26.5500  -13.0460   20.0170 N   0  0  0  0  0  0  0  0  0  0  0  0
  -26.2100  -11.7500   20.2510 N   0  0  0  0  0  0  0  0  0  0  0  0
  -24.2400  -10.5090   20.8730 C   0  0  0  0  0  0  0  0  0  0  0  0
  -24.6640   -9.5680   21.8360 C   0  0  0  0  0  3  0  0  0  0  0  0
  -23.9540   -8.3600   22.0210 C   0  0  0  0  0  3  0  0  0  0  0  0
  -22.8040   -8.0880   21.2410 C   0  0  0  0  0  0  0  0  0  0  0  0
  -22.3990   -9.0180   20.2690 C   0  0  0  0  0  3  0  0  0  0  0  0
  -23.1100  -10.2160   20.0840 C   0  0  0  0  0  3  0  0  0  0  0  0
  -22.0680   -6.9290   21.3320 O   0  0  0  0  0  0  0  0  0  0  0  0
  -21.8770   -6.2900   22.5290 C   0  0  0  0  0  0  0  0  0  0  0  0
  -21.2720   -6.9370   23.6280 C   0  0  0  0  0  3  0  0  0  0  0  0
  -21.0260   -6.2220   24.8190 C   0  0  0  0  0  3  0  0  0  0  0  0
  -21.3820   -4.8620   24.9110 C   0  0  0  0  0  0  0  0  0  0  0  0
  -21.9810   -4.2160   23.8150 C   0  0  0  0  0  3  0  0  0  0  0  0
  -22.2270   -4.9290   22.6290 C   0  0  0  0  0  0  0  0  0  0  0  0
  -22.7850   -4.2940   21.5710 F   0  0  0  0  0  0  0  0  0  0  0  0
  -21.1430   -4.1760   26.0520 F   0  0  0  0  0  0  0  0  0  0  0  0
  -23.1370  -13.5940   21.2270 C   0  0  0  0  0  0  0  0  0  0  0  0
  -22.4900  -12.8680   22.1320 N   0  0  0  0  0  0  0  0  0  0  0  0
  -22.6580  -14.6390   20.7910 O   0  0  0  0  0  0  0  0  0  0  0  0
  -22.8960  -12.0250   22.5120 H   0  0  0  0  0  0  0  0  0  0  0  0
  -21.5770  -13.1630   22.4510 H   0  0  0  0  0  0  0  0  0  0  0  0
  -25.6960  -15.2930   20.2660 N   0  0  0  0  0  0  0  0  0  0  0  0
  -24.9640  -15.9520   20.5060 H   0  0  0  0  0  0  0  0  0  0  0  0
  -26.5500  -15.7420   19.9550 H   0  0  0  0  0  0  0  0  0  0  0  0
  -28.4100  -26.4130   20.0970 O   0  0  0  0  0  0  0  0  0  0  0  0
  -24.7080  -31.8840   23.1510 C   0  0  0  0  0  0  0  0  0  0  0  0
  -27.3630  -27.3640   20.0350 C   0  0  0  0  0  0  0  0  0  0  0  0
  -23.5230  -30.4940   21.4940 C   0  0  0  0  0  3  0  0  0  0  0  0
  -24.9960  -28.9910   20.0340 C   0  0  0  0  0  0  0  0  0  0  0  0
  -26.0600  -30.8420   21.3140 C   0  0  0  0  0  2  0  0  0  0  0  0
  -26.1630  -29.4730   20.6430 C   0  0  0  0  0  0  0  0  0  0  0  0
  -27.3530  -28.6710   20.6360 C   0  0  0  0  0  3  0  0  0  0  0  0
  -26.1800  -26.9570   19.3850 C   0  0  0  0  0  3  0  0  0  0  0  0
  -25.0120  -27.7420   19.3930 C   0  0  0  0  0  3  0  0  0  0  0  0
  -23.7460  -29.8480   20.1010 C   0  0  0  0  0  2  0  0  0  0  0  0
  -24.7820  -31.0930   22.0410 N   0  0  0  0  0  0  0  0  0  0  0  0
  -23.6210  -32.1340   23.6950 O   0  0  0  0  0  0  0  0  0  0  0  0
  -22.8770  -29.4540   22.4420 C   0  0  0  0  0  0  0  0  0  0  0  0
  -21.5520  -29.2580   22.3170 N   0  0  0  0  0  0  0  0  0  0  0  0
  -23.5660  -28.8270   23.2500 O   0  0  0  0  0  0  0  0  0  0  0  0
  -21.0570  -29.8050   21.6270 H   0  0  0  0  0  0  0  0  0  0  0  0
  -18.1950  -27.9980   22.8190 C   0  0  0  0  0  0  0  0  0  0  0  0
  -20.7500  -28.3020   23.0830 C   0  0  0  0  0  3  0  0  0  0  0  0
  -20.8770  -26.8830   22.4900 C   0  0  0  0  0  2  0  0  0  0  0  0
  -19.7800  -26.5500   21.4760 C   0  0  0  0  0  2  0  0  0  0  0  0
  -18.3970  -26.6630   22.1210 C   0  0  0  0  0  2  0  0  0  0  0  0
  -19.3010  -28.7760   23.2560 C   0  0  0  0  0  0  0  0  0  0  0  0
  -19.0580  -30.0220   23.8720 C   0  0  0  0  0  3  0  0  0  0  0  0
  -17.7460  -30.4960   24.0520 C   0  0  0  0  0  3  0  0  0  0  0  0
  -16.6550  -29.7170   23.6320 C   0  0  0  0  0  3  0  0  0  0  0  0
  -16.8810  -28.4700   23.0230 C   0  0  0  0  0  3  0  0  0  0  0  0
  -25.9790  -32.5350   23.7780 C   0  0  0  0  0  3  0  0  0  0  0  0
  -25.6450  -33.9190   24.1440 N   0  0  0  0  0  0  0  0  0  0  0  0
  -25.9370  -34.9940   23.3990 C   0  0  0  0  0  0  0  0  0  0  0  0
  -26.5920  -34.9280   22.3540 O   0  0  0  0  0  0  0  0  0  0  0  0
  -25.0640  -34.0420   24.9600 H   0  0  0  0  0  0  0  0  0  0  0  0
  -24.1630  -36.7550   23.1140 C   0  0  0  0  0  1  0  0  0  0  0  0
  -25.4270  -36.3610   23.8930 C   0  0  0  0  0  3  0  0  0  0  0  0
  -27.5550  -37.2800   24.7040 C   0  0  0  0  0  1  0  0  0  0  0  0
  -26.4330  -37.4430   23.7850 N   0  0  0  0  0  0  0  0  0  0  0  0
  -26.0050  -38.3470   23.9640 H   0  0  0  0  0  0  0  0  0  0  0  0
  -26.5190  -31.7480   25.0370 C   0  0  1  0  0  0  0  0  0  0  0  0
  -25.4350  -31.4710   26.1060 C   0  0  0  0  0  1  0  0  0  0  0  0
  -27.1230  -30.3860   24.6210 C   0  0  0  0  0  1  0  0  0  0  0  0
  -27.6610  -32.5520   25.7050 C   0  0  0  0  0  1  0  0  0  0  0  0
  1  4  1  0
  1  2  2  0
  2  3  1  0
  5  6  1  0
  5  1  1  0
  6  2  1  0
  7  9  1  0
  8 10  2  0
  8 11  1  0
 10 12  1  0
 11  6  1  0
 11  7  2  0
 12 21  1  0
 12  9  2  0
 13 21  1  0
 14 19  1  0
 15 16  1  0
 15 14  1  0
 17 16  1  0
 17 26  1  0
 17 18  1  0
 19 13  1  0
 19 18  1  0
 20 13  2  0
 21 22  1  0
 23 24  2  0
 24 43  1  0
 25 24  1  0
 25 28  1  0
 26 27  1  0
 26 23  1  0
 27 25  2  0
 28 29  1  0
 29 30  2  0
 31 34  1  0
 31 30  1  0
 32 31  2  0
 33 32  1  0
 33 28  2  0
 34 35  1  0
 35 40  2  0
 35 36  1  0
 36 37  2  0
 37 38  1  0
 38 42  1  0
 39 38  2  0
 40 39  1  0
 41 40  1  0
 43 44  1  0
 44 47  1  0
 44 46  1  0
 45 43  2  0
 48 23  1  0
 48 49  1  0
 50 48  1  0
 51  4  1  0
 52 63  2  0
 53 51  1  0
 53 58  1  0
 54 62  1  0
 54 64  1  0
 55 61  1  0
 55 57  1  0
 56 62  1  0
 57 56  1  0
 58 57  2  0
 59 60  1  0
 59 53  2  0
 60 55  2  0
 61 54  1  0
 62 52  1  0
 64 66  2  0
 65 64  1  0
 67 65  1  0
 68 77  2  0
 68 73  1  0
 69 65  1  0
 69 73  1  0
 70 69  1  0
 71 72  1  0
 71 70  1  0
 72 68  1  0
 73 74  2  0
 74 75  1  0
 76 75  2  0
 77 76  1  0
 78 52  1  0
 78 79  1  0
 78 88  1  0
 79 82  1  0
 80 84  1  0
 80 79  1  0
 81 80  2  0
 84 83  1  0
 86 84  1  0
 86 87  1  0
 86 85  1  0
 88 91  1  1
 88 89  1  0
 90 88  1  0
M  ISO  4   4 101  13 100  21 100  51 101
M  END
>  <TORSDO>  (5) 
F 17

>  <SCORE>  (5) 
-13.093

>  <name>  (5) 
4

>  <ligand_id>  (5) 
4

>  <original_smiles>  (5) 
[H]C([H])=C1C(=C([H])Oc2c([H])c([H])c3c(c2[H])C([H])([H])N(C(=O)C([H])(N([H])C(=O)C([H])(N([H])C([H])([H])[H])C([H])([H])[H])C(C([H])([H])[H])(C([H])([H])[H])C([H])([H])[H])C([H])(C(=O)N([H])C2([H])c4c([H])c([H])c([H])c([H])c4C([H])([H])C([H])([H])C2([H])[H])C3([H])[H])C([H])([H])N1c1c([H])c([H])c(N([H])C(=O)N2C([H])([H])C([H])([H])C([H])([H])C([H])(n3nc(-c4c([H])c([H])c(Oc5c([H])c([H])c(F)c([H])c5F)c([H])c4[H])c(C(=O)N([H])[H])c3N([H])[H])C2([H])[H])c([H])c1[H]

>  <smiles>  (5) 
[H]C([H])=C1C(=C([H])Oc2c([H])c([H])c3c(c2[H])C([H])([H])N(C(=O)C([H])(N([H])C(=O)C([H])(N([H])C([H])([H])[H])C([H])([H])[H])C(C([H])([H])[H])(C([H])([H])[H])C([H])([H])[H])C([H])(C(=O)N([H])C2([H])c4c([H])c([H])c([H])c([H])c4C([H])([H])C([H])([H])C2([H])[H])C3([H])[H])C([H])([H])N1c1c([H])c([H])c(N([H])C(=O)N2C([H])([H])C([H])([H])C([H])([H])C([H])(n3nc(-c4c([H])c([H])c(Oc5c([H])c([H])c(F)c([H])c5F)c([H])c4[H])c(C(=O)N([H])[H])c3N([H])[H])C2([H])[H])c([H])c1[H]

$$$$
5:0:0
     RDKit          3D

 90 98  0  0  1  0  0  0  0  0999 V2000
  -30.8200  -22.9700   20.0010 O   0  0  0  0  0  0  0  0  0  0  0  0
  -28.9910  -22.5600   18.3270 O   0  0  0  0  0  0  0  0  0  0  0  0
  -29.4660  -22.4540   19.7200 S   0  0  1  0  0  0  0  0  0  0  0  0
  -28.5750  -18.2520   20.6360 C   0  0  0  0  0  3  0  0  0  0  0  0
  -30.8230  -18.3270   19.8760 C   0  0  0  0  0  3  0  0  0  0  0  0
  -28.4630  -19.6950   20.5360 C   0  0  0  0  0  3  0  0  0  0  0  0
  -30.7130  -19.7710   19.7880 C   0  0  0  0  0  3  0  0  0  0  0  0
  -29.7470  -17.4870   20.2990 C   0  0  0  0  0  0  0  0  0  0  0  0
  -29.5370  -20.5310   20.1080 C   0  0  0  0  0  0  0  0  0  0  0  0
  -30.5440  -14.8920   20.0280 C   0  0  0  0  0  0  0  0  0  0  0  0
  -30.3600  -12.6010   18.9880 C   0  0  0  0  0  2  0  0  0  0  0  0
  -29.3480  -12.6550   17.8180 C   0  0  0  0  0  2  0  0  0  0  0  0
  -27.9080  -12.4480   18.3270 C   0  0  0  0  0  2  0  0  0  0  0  0
  -27.5910  -13.3160   19.5720 C   0  0  0  0  0  3  0  0  0  0  0  0
  -28.7100  -13.2250   20.6320 C   0  0  0  0  0  2  0  0  0  0  0  0
  -29.9640  -13.6330   19.9800 N   0  0  0  0  0  0  0  0  0  0  0  0
  -31.7010  -15.0310   19.6160 O   0  0  0  0  0  0  0  0  0  0  0  0
  -29.7260  -15.9740   20.3890 N   0  0  0  0  0  0  0  0  0  0  0  0
  -28.8440  -15.6230   20.7340 H   0  0  0  0  0  0  0  0  0  0  0  0
  -25.2500  -13.8870   20.4480 C   0  0  0  0  0  0  0  0  0  0  0  0
  -24.2040  -13.1040   20.8550 C   0  0  0  0  0  0  0  0  0  0  0  0
  -24.6620  -11.7540   20.7650 C   0  0  0  0  0  0  0  0  0  0  0  0
  -26.2770  -13.0140   20.1300 N   0  0  0  0  0  0  0  0  0  0  0  0
  -25.9340  -11.7240   20.3830 N   0  0  0  0  0  0  0  0  0  0  0  0
  -23.9440  -10.4880   20.9630 C   0  0  0  0  0  0  0  0  0  0  0  0
  -24.3920   -9.5220   21.8900 C   0  0  0  0  0  3  0  0  0  0  0  0
  -23.6730   -8.3220   22.0760 C   0  0  0  0  0  3  0  0  0  0  0  0
  -22.4910   -8.0800   21.3360 C   0  0  0  0  0  0  0  0  0  0  0  0
  -22.0620   -9.0350   20.3980 C   0  0  0  0  0  3  0  0  0  0  0  0
  -22.7820  -10.2270   20.2090 C   0  0  0  0  0  3  0  0  0  0  0  0
  -21.7440   -6.9310   21.4310 O   0  0  0  0  0  0  0  0  0  0  0  0
  -21.6770   -6.2110   22.5980 C   0  0  0  0  0  0  0  0  0  0  0  0
  -21.2040   -6.7820   23.7990 C   0  0  0  0  0  3  0  0  0  0  0  0
  -21.0850   -5.9870   24.9570 C   0  0  0  0  0  3  0  0  0  0  0  0
  -21.4280   -4.6220   24.9130 C   0  0  0  0  0  0  0  0  0  0  0  0
  -21.8940   -4.0510   23.7160 C   0  0  0  0  0  3  0  0  0  0  0  0
  -22.0150   -4.8430   22.5610 C   0  0  0  0  0  0  0  0  0  0  0  0
  -22.4430   -4.2820   21.4040 F   0  0  0  0  0  0  0  0  0  0  0  0
  -21.3070   -3.8570   26.0220 F   0  0  0  0  0  0  0  0  0  0  0  0
  -22.8250  -13.5770   21.2130 C   0  0  0  0  0  0  0  0  0  0  0  0
  -22.1400  -12.8570   22.0930 N   0  0  0  0  0  0  0  0  0  0  0  0
  -22.3650  -14.6190   20.7470 O   0  0  0  0  0  0  0  0  0  0  0  0
  -22.5250  -12.0140   22.4920 H   0  0  0  0  0  0  0  0  0  0  0  0
  -21.2170  -13.1560   22.3760 H   0  0  0  0  0  0  0  0  0  0  0  0
  -25.4060  -15.2620   20.2970 N   0  0  0  0  0  0  0  0  0  0  0  0
  -24.6400  -15.9080   20.4570 H   0  0  0  0  0  0  0  0  0  0  0  0
  -26.2200  -15.7080   19.8950 H   0  0  0  0  0  0  0  0  0  0  0  0
  -27.9340  -24.9810   20.7920 C   0  0  0  0  0  3  0  0  0  0  0  0
  -28.2890  -23.6140   20.7200 C   0  0  0  0  0  3  0  0  0  0  0  0
  -28.2610  -26.2480   20.1850 O   0  0  0  0  0  0  0  0  0  0  0  0
  -24.6140  -31.8520   23.2110 C   0  0  0  0  0  0  0  0  0  0  0  0
  -27.2290  -27.2360   20.1420 C   0  0  0  0  0  0  0  0  0  0  0  0
  -23.4240  -30.4690   21.5510 C   0  0  0  0  0  3  0  0  0  0  0  0
  -24.8870  -28.9250   20.1150 C   0  0  0  0  0  0  0  0  0  0  0  0
  -25.9730  -30.7640   21.3950 C   0  0  0  0  0  2  0  0  0  0  0  0
  -26.0580  -29.3830   20.7340 C   0  0  0  0  0  0  0  0  0  0  0  0
  -27.2350  -28.5510   20.7370 C   0  0  0  0  0  3  0  0  0  0  0  0
  -26.0390  -26.8660   19.4820 C   0  0  0  0  0  3  0  0  0  0  0  0
  -24.8860  -27.6770   19.4730 C   0  0  0  0  0  3  0  0  0  0  0  0
  -23.6520  -29.8090   20.1660 C   0  0  0  0  0  2  0  0  0  0  0  0
  -24.6900  -31.0480   22.1080 N   0  0  0  0  0  0  0  0  0  0  0  0
  -23.5270  -32.1270   23.7390 O   0  0  0  0  0  0  0  0  0  0  0  0
  -22.7490  -29.4470   22.4990 C   0  0  0  0  0  0  0  0  0  0  0  0
  -21.4190  -29.2880   22.3790 N   0  0  0  0  0  0  0  0  0  0  0  0
  -23.4230  -28.8000   23.3040 O   0  0  0  0  0  0  0  0  0  0  0  0
  -20.9300  -29.8620   21.7060 H   0  0  0  0  0  0  0  0  0  0  0  0
  -18.0290  -28.1280   22.9060 C   0  0  0  0  0  0  0  0  0  0  0  0
  -20.5960  -28.3450   23.1410 C   0  0  0  0  0  3  0  0  0  0  0  0
  -20.6670  -26.9260   22.5290 C   0  0  0  0  0  2  0  0  0  0  0  0
  -19.5440  -26.6430   21.5270 C   0  0  0  0  0  2  0  0  0  0  0  0
  -18.1760  -26.7910   22.1980 C   0  0  0  0  0  2  0  0  0  0  0  0
  -19.1650  -28.8640   23.3360 C   0  0  0  0  0  0  0  0  0  0  0  0
  -18.9730  -30.1150   23.9630 C   0  0  0  0  0  3  0  0  0  0  0  0
  -17.6780  -30.6290   24.1610 C   0  0  0  0  0  3  0  0  0  0  0  0
  -16.5570  -29.8900   23.7450 C   0  0  0  0  0  3  0  0  0  0  0  0
  -16.7340  -28.6410   23.1230 C   0  0  0  0  0  3  0  0  0  0  0  0
  -25.8900  -32.4820   23.8490 C   0  0  0  0  0  3  0  0  0  0  0  0
  -25.5760  -33.8770   24.1900 N   0  0  0  0  0  0  0  0  0  0  0  0
  -25.9120  -34.9390   23.4430 C   0  0  0  0  0  0  0  0  0  0  0  0
  -26.5830  -34.8450   22.4130 O   0  0  0  0  0  0  0  0  0  0  0  0
  -24.9780  -34.0230   24.9910 H   0  0  0  0  0  0  0  0  0  0  0  0
  -24.1930  -36.7430   23.0950 C   0  0  0  0  0  1  0  0  0  0  0  0
  -25.4250  -36.3230   23.9120 C   0  0  0  0  0  3  0  0  0  0  0  0
  -27.5510  -37.1970   24.7750 C   0  0  0  0  0  1  0  0  0  0  0  0
  -26.4610  -37.3740   23.8200 N   0  0  0  0  0  0  0  0  0  0  0  0
  -26.0560  -38.2950   23.9680 H   0  0  0  0  0  0  0  0  0  0  0  0
  -26.3950  -31.7010   25.1250 C   0  0  1  0  0  0  0  0  0  0  0  0
  -25.2950  -31.4590   26.1850 C   0  0  0  0  0  1  0  0  0  0  0  0
  -26.9790  -30.3240   24.7320 C   0  0  0  0  0  1  0  0  0  0  0  0
  -27.5430  -32.4890   25.8000 C   0  0  0  0  0  1  0  0  0  0  0  0
  2  3  2  0
  3  1  2  0
  3  9  1  0
  3 49  1  1
  5  8  1  0
  6  4  1  0
  7  5  2  0
  7  9  1  0
  8 18  1  0
  8  4  2  0
  9  6  2  0
 10 18  1  0
 11 16  1  0
 12 13  1  0
 12 11  1  0
 14 13  1  0
 14 23  1  0
 14 15  1  0
 16 10  1  0
 16 15  1  0
 17 10  2  0
 18 19  1  0
 20 21  2  0
 21 40  1  0
 22 21  1  0
 22 25  1  0
 23 24  1  0
 23 20  1  0
 24 22  2  0
 25 26  1  0
 26 27  2  0
 28 31  1  0
 28 27  1  0
 29 28  2  0
 30 29  1  0
 30 25  2  0
 31 32  1  0
 32 33  1  0
 33 34  2  0
 35 34  1  0
 35 39  1  0
 36 35  2  0
 37 32  2  0
 37 36  1  0
 38 37  1  0
 40 41  1  0
 41 44  1  0
 41 43  1  0
 42 40  2  0
 45 20  1  0
 45 46  1  0
 47 45  1  0
 49 48  2  0
 50 48  1  0
 51 62  2  0
 52 50  1  0
 52 57  1  0
 53 61  1  0
 53 63  1  0
 54 60  1  0
 54 56  1  0
 55 61  1  0
 56 57  2  0
 56 55  1  0
 58 52  2  0
 59 58  1  0
 59 54  2  0
 60 53  1  0
 61 51  1  0
 63 65  2  0
 64 63  1  0
 66 64  1  0
 67 76  2  0
 67 72  1  0
 68 64  1  0
 68 72  1  0
 69 68  1  0
 70 71  1  0
 70 69  1  0
 71 67  1  0
 72 73  2  0
 73 74  1  0
 75 74  2  0
 76 75  1  0
 77 51  1  0
 77 78  1  0
 77 87  1  0
 78 81  1  0
 79 83  1  0
 79 78  1  0
 80 79  2  0
 83 82  1  0
 85 83  1  0
 85 86  1  0
 85 84  1  0
 87 90  1  1
 87 88  1  0
 89 87  1  0
M  ISO  4  10 100  18 100  48 101  50 101
M  END
>  <TORSDO>  (6) 
F 18

>  <SCORE>  (6) 
-14.553

>  <name>  (6) 
5

>  <ligand_id>  (6) 
5

>  <original_smiles>  (6) 
[H]C(Oc1c([H])c([H])c2c(c1[H])C([H])([H])N(C(=O)C([H])(N([H])C(=O)C([H])(N([H])C([H])([H])[H])C([H])([H])[H])C(C([H])([H])[H])(C([H])([H])[H])C([H])([H])[H])C([H])(C(=O)N([H])C1([H])c3c([H])c([H])c([H])c([H])c3C([H])([H])C([H])([H])C1([H])[H])C2([H])[H])=C([H])S(=O)(=O)c1c([H])c([H])c(N([H])C(=O)N2C([H])([H])C([H])([H])C([H])([H])C([H])(n3nc(-c4c([H])c([H])c(Oc5c([H])c([H])c(F)c([H])c5F)c([H])c4[H])c(C(=O)N([H])[H])c3N([H])[H])C2([H])[H])c([H])c1[H]

>  <smiles>  (6) 
[H]C(Oc1c([H])c([H])c2c(c1[H])C([H])([H])N(C(=O)C([H])(N([H])C(=O)C([H])(N([H])C([H])([H])[H])C([H])([H])[H])C(C([H])([H])[H])(C([H])([H])[H])C([H])([H])[H])C([H])(C(=O)N([H])C1([H])c3c([H])c([H])c([H])c([H])c3C([H])([H])C([H])([H])C1([H])[H])C2([H])[H])=C([H])S(=O)(=O)c1c([H])c([H])c(N([H])C(=O)N2C([H])([H])C([H])([H])C([H])([H])C([H])(n3nc(-c4c([H])c([H])c(Oc5c([H])c([H])c(F)c([H])c5F)c([H])c4[H])c(C(=O)N([H])[H])c3N([H])[H])C2([H])[H])c([H])c1[H]

$$$$
6:0:0
     RDKit          3D

 94102  0  0  1  0  0  0  0  0999 V2000
  -29.8890  -21.2930   19.3460 C   0  0  0  0  0  0  0  0  0  0  0  0
  -29.1450  -23.5610   19.9260 C   0  0  0  0  0  0  0  0  0  0  0  0
  -29.2900  -22.2200   20.1390 N   0  0  0  0  0  0  0  0  0  0  0  0
  -30.4550  -21.5610   18.2800 O   0  0  0  0  0  0  0  0  0  0  0  0
  -29.4460  -24.1360   18.8740 O   0  0  0  0  0  0  0  0  0  0  0  0
  -28.9480  -21.8680   21.0170 H   0  0  0  0  0  0  0  0  0  0  0  0
  -31.1280  -19.1000   19.7250 C   0  0  0  0  0  3  0  0  0  0  0  0
  -31.1760  -17.7110   20.0060 C   0  0  0  0  0  3  0  0  0  0  0  0
  -28.7540  -19.1370   20.1880 C   0  0  0  0  0  3  0  0  0  0  0  0
  -29.9210  -19.8420   19.8040 C   0  0  0  0  0  0  0  0  0  0  0  0
  -30.0000  -17.0000   20.3530 C   0  0  0  0  0  0  0  0  0  0  0  0
  -28.7980  -17.7440   20.4510 C   0  0  0  0  0  0  0  0  0  0  0  0
  -27.6530  -17.0940   20.7680 F   0  0  0  0  0  0  0  0  0  0  0  0
  -30.6580  -14.5560   20.0850 C   0  0  0  0  0  0  0  0  0  0  0  0
  -30.3140  -12.4090   18.9150 C   0  0  0  0  0  2  0  0  0  0  0  0
  -29.3040  -12.6580   17.7740 C   0  0  0  0  0  2  0  0  0  0  0  0
  -27.8550  -12.5100   18.2800 C   0  0  0  0  0  2  0  0  0  0  0  0
  -27.5970  -13.2950   19.5940 C   0  0  0  0  0  3  0  0  0  0  0  0
  -28.7170  -13.0330   20.6280 C   0  0  0  0  0  2  0  0  0  0  0  0
  -30.0040  -13.3630   19.9930 N   0  0  0  0  0  0  0  0  0  0  0  0
  -31.7840  -14.7220   19.6040 O   0  0  0  0  0  0  0  0  0  0  0  0
  -29.9280  -15.5780   20.5980 N   0  0  0  0  0  0  0  0  0  0  0  0
  -29.0520  -15.2840   21.0020 H   0  0  0  0  0  0  0  0  0  0  0  0
  -25.2430  -13.8870   20.4420 C   0  0  0  0  0  0  0  0  0  0  0  0
  -24.1930  -13.1080   20.8480 C   0  0  0  0  0  0  0  0  0  0  0  0
  -24.6500  -11.7570   20.7670 C   0  0  0  0  0  0  0  0  0  0  0  0
  -26.2730  -13.0100   20.1410 N   0  0  0  0  0  0  0  0  0  0  0  0
  -25.9230  -11.7220   20.3930 N   0  0  0  0  0  0  0  0  0  0  0  0
  -23.9310  -10.4920   20.9690 C   0  0  0  0  0  0  0  0  0  0  0  0
  -24.3870   -9.5240   21.8920 C   0  0  0  0  0  3  0  0  0  0  0  0
  -23.6690   -8.3250   22.0830 C   0  0  0  0  0  3  0  0  0  0  0  0
  -22.4810   -8.0840   21.3520 C   0  0  0  0  0  0  0  0  0  0  0  0
  -22.0450   -9.0400   20.4180 C   0  0  0  0  0  3  0  0  0  0  0  0
  -22.7630  -10.2310   20.2250 C   0  0  0  0  0  3  0  0  0  0  0  0
  -21.7330   -6.9370   21.4520 O   0  0  0  0  0  0  0  0  0  0  0  0
  -21.6830   -6.2090   22.6140 C   0  0  0  0  0  0  0  0  0  0  0  0
  -21.2070   -6.7650   23.8220 C   0  0  0  0  0  3  0  0  0  0  0  0
  -21.1080   -5.9620   24.9750 C   0  0  0  0  0  3  0  0  0  0  0  0
  -21.4750   -4.6040   24.9230 C   0  0  0  0  0  0  0  0  0  0  0  0
  -21.9430   -4.0480   23.7200 C   0  0  0  0  0  3  0  0  0  0  0  0
  -22.0440   -4.8470   22.5680 C   0  0  0  0  0  0  0  0  0  0  0  0
  -22.4760   -4.3010   21.4060 F   0  0  0  0  0  0  0  0  0  0  0  0
  -21.3730   -3.8300   26.0280 F   0  0  0  0  0  0  0  0  0  0  0  0
  -22.8140  -13.5820   21.2070 C   0  0  0  0  0  0  0  0  0  0  0  0
  -22.1290  -12.8600   22.0870 N   0  0  0  0  0  0  0  0  0  0  0  0
  -22.3550  -14.6250   20.7430 O   0  0  0  0  0  0  0  0  0  0  0  0
  -22.5150  -12.0160   22.4840 H   0  0  0  0  0  0  0  0  0  0  0  0
  -21.2060  -13.1570   22.3700 H   0  0  0  0  0  0  0  0  0  0  0  0
  -25.3990  -15.2610   20.2930 N   0  0  0  0  0  0  0  0  0  0  0  0
  -24.6480  -15.9110   20.4990 H   0  0  0  0  0  0  0  0  0  0  0  0
  -26.2680  -15.7310   20.0700 H   0  0  0  0  0  0  0  0  0  0  0  0
  -28.5940  -24.2560   21.0920 C   0  0  0  0  0  3  0  0  0  0  0  0
  -28.2880  -25.5790   21.2020 C   0  0  0  0  0  3  0  0  0  0  0  0
  -28.4030  -26.5980   20.2710 O   0  0  0  0  0  0  0  0  0  0  0  0
  -24.5680  -31.8650   23.2390 C   0  0  0  0  0  0  0  0  0  0  0  0
  -27.2980  -27.4240   20.2060 C   0  0  0  0  0  0  0  0  0  0  0  0
  -23.4130  -30.4680   21.5590 C   0  0  0  0  0  3  0  0  0  0  0  0
  -24.9090  -28.9430   20.1600 C   0  0  0  0  0  0  0  0  0  0  0  0
  -25.9440  -30.8310   21.4310 C   0  0  0  0  0  2  0  0  0  0  0  0
  -26.0540  -29.4630   20.7810 C   0  0  0  0  0  0  0  0  0  0  0  0
  -27.2570  -28.7110   20.8000 C   0  0  0  0  0  3  0  0  0  0  0  0
  -26.1400  -26.9280   19.5760 C   0  0  0  0  0  3  0  0  0  0  0  0
  -24.9490  -27.6760   19.5530 C   0  0  0  0  0  3  0  0  0  0  0  0
  -23.6610  -29.7990   20.1820 C   0  0  0  0  0  2  0  0  0  0  0  0
  -24.6590  -31.0700   22.1350 N   0  0  0  0  0  0  0  0  0  0  0  0
  -23.4720  -32.1300   23.7520 O   0  0  0  0  0  0  0  0  0  0  0  0
  -22.7380  -29.4390   22.4970 C   0  0  0  0  0  0  0  0  0  0  0  0
  -21.4140  -29.2670   22.3470 N   0  0  0  0  0  0  0  0  0  0  0  0
  -23.4040  -28.8010   23.3170 O   0  0  0  0  0  0  0  0  0  0  0  0
  -20.9390  -29.8340   21.6570 H   0  0  0  0  0  0  0  0  0  0  0  0
  -18.0200  -28.1140   22.8080 C   0  0  0  0  0  0  0  0  0  0  0  0
  -20.5800  -28.3250   23.0930 C   0  0  0  0  0  3  0  0  0  0  0  0
  -20.6630  -26.9050   22.4850 C   0  0  0  0  0  2  0  0  0  0  0  0
  -19.5600  -26.6230   21.4600 C   0  0  0  0  0  2  0  0  0  0  0  0
  -18.1770  -26.7760   22.1030 C   0  0  0  0  0  2  0  0  0  0  0  0
  -19.1490  -28.8470   23.2590 C   0  0  0  0  0  0  0  0  0  0  0  0
  -18.9480  -30.1010   23.8770 C   0  0  0  0  0  3  0  0  0  0  0  0
  -17.6510  -30.6190   24.0500 C   0  0  0  0  0  3  0  0  0  0  0  0
  -16.5360  -29.8810   23.6150 C   0  0  0  0  0  3  0  0  0  0  0  0
  -16.7210  -28.6300   22.9990 C   0  0  0  0  0  3  0  0  0  0  0  0
  -25.8350  -32.4980   23.8950 C   0  0  0  0  0  3  0  0  0  0  0  0
  -25.5170  -33.8950   24.2140 N   0  0  0  0  0  0  0  0  0  0  0  0
  -25.8700  -34.9470   23.4620 C   0  0  0  0  0  0  0  0  0  0  0  0
  -26.5680  -34.8400   22.4490 O   0  0  0  0  0  0  0  0  0  0  0  0
  -24.9000  -34.0530   24.9980 H   0  0  0  0  0  0  0  0  0  0  0  0
  -24.1580  -36.7420   23.0450 C   0  0  0  0  0  1  0  0  0  0  0  0
  -25.3690  -36.3360   23.9020 C   0  0  0  0  0  3  0  0  0  0  0  0
  -27.4690  -37.2200   24.8180 C   0  0  0  0  0  1  0  0  0  0  0  0
  -26.4060  -37.3870   23.8290 N   0  0  0  0  0  0  0  0  0  0  0  0
  -25.9960  -38.3080   23.9590 H   0  0  0  0  0  0  0  0  0  0  0  0
  -26.3190  -31.7270   25.1840 C   0  0  1  0  0  0  0  0  0  0  0  0
  -25.1970  -31.4820   26.2210 C   0  0  0  0  0  1  0  0  0  0  0  0
  -26.9180  -30.3520   24.8060 C   0  0  0  0  0  1  0  0  0  0  0  0
  -27.4460  -32.5250   25.8810 C   0  0  0  0  0  1  0  0  0  0  0  0
  1 10  1  0
  1  3  1  0
  2  3  1  0
  2 52  1  0
  3  6  1  0
  4  1  2  0
  5  2  2  0
  7 10  2  0
  7  8  1  0
  8 11  2  0
  9 12  2  0
 10  9  1  0
 11 12  1  0
 11 22  1  0
 12 13  1  0
 14 22  1  0
 15 20  1  0
 16 17  1  0
 16 15  1  0
 18 17  1  0
 18 27  1  0
 18 19  1  0
 20 14  1  0
 20 19  1  0
 21 14  2  0
 22 23  1  0
 24 25  2  0
 25 44  1  0
 26 25  1  0
 26 29  1  0
 27 28  1  0
 27 24  1  0
 28 26  2  0
 29 30  1  0
 30 31  2  0
 32 35  1  0
 32 31  1  0
 33 32  2  0
 34 33  1  0
 34 29  2  0
 35 36  1  0
 36 37  1  0
 37 38  2  0
 39 38  1  0
 39 43  1  0
 40 39  2  0
 41 36  2  0
 41 40  1  0
 42 41  1  0
 44 45  1  0
 45 48  1  0
 45 47  1  0
 46 44  2  0
 49 24  1  0
 49 50  1  0
 51 49  1  0
 52 53  2  0
 54 53  1  0
 55 66  2  0
 56 54  1  0
 56 61  1  0
 57 65  1  0
 57 67  1  0
 58 64  1  0
 58 60  1  0
 59 65  1  0
 60 61  2  0
 60 59  1  0
 62 56  2  0
 63 62  1  0
 63 58  2  0
 64 57  1  0
 65 55  1  0
 67 69  2  0
 68 67  1  0
 70 68  1  0
 71 80  2  0
 71 76  1  0
 72 68  1  0
 72 76  1  0
 73 72  1  0
 74 75  1  0
 74 73  1  0
 75 71  1  0
 76 77  2  0
 77 78  1  0
 79 78  2  0
 80 79  1  0
 81 55  1  0
 81 82  1  0
 81 91  1  0
 82 85  1  0
 83 87  1  0
 83 82  1  0
 84 83  2  0
 87 86  1  0
 89 87  1  0
 89 90  1  0
 89 88  1  0
 91 94  1  1
 91 92  1  0
 93 91  1  0
M  ISO  4  14 100  22 100  53 101  54 101
M  END
>  <TORSDO>  (7) 
F 18

>  <SCORE>  (7) 
-14.821

>  <name>  (7) 
6

>  <ligand_id>  (7) 
6

>  <original_smiles>  (7) 
[H]C(Oc1c([H])c([H])c2c(c1[H])C([H])([H])N(C(=O)C([H])(N([H])C(=O)C([H])(N([H])C([H])([H])[H])C([H])([H])[H])C(C([H])([H])[H])(C([H])([H])[H])C([H])([H])[H])C([H])(C(=O)N([H])C1([H])c3c([H])c([H])c([H])c([H])c3C([H])([H])C([H])([H])C1([H])[H])C2([H])[H])=C([H])C(=O)N([H])C(=O)c1c([H])c([H])c(N([H])C(=O)N2C([H])([H])C([H])([H])C([H])([H])C([H])(n3nc(-c4c([H])c([H])c(Oc5c([H])c([H])c(F)c([H])c5F)c([H])c4[H])c(C(=O)N([H])[H])c3N([H])[H])C2([H])[H])c(F)c1[H]

>  <smiles>  (7) 
[H]C(Oc1c([H])c([H])c2c(c1[H])C([H])([H])N(C(=O)C([H])(N([H])C(=O)C([H])(N([H])C([H])([H])[H])C([H])([H])[H])C(C([H])([H])[H])(C([H])([H])[H])C([H])([H])[H])C([H])(C(=O)N([H])C1([H])c3c([H])c([H])c([H])c([H])c3C([H])([H])C([H])([H])C1([H])[H])C2([H])[H])=C([H])C(=O)N([H])C(=O)c1c([H])c([H])c(N([H])C(=O)N2C([H])([H])C([H])([H])C([H])([H])C([H])(n3nc(-c4c([H])c([H])c(Oc5c([H])c([H])c(F)c([H])c5F)c([H])c4[H])c(C(=O)N([H])[H])c3N([H])[H])C2([H])[H])c(F)c1[H]

$$$$
7:0:0
     RDKit          3D

 93102  0  0  1  0  0  0  0  0999 V2000
  -29.7180  -23.6980   19.1050 C   0  0  0  0  0  3  0  0  0  0  0  0
  -28.7370  -22.5100   20.7020 C   0  0  0  0  0  3  0  0  0  0  0  0
  -28.8360  -23.8180   20.2190 C   0  0  0  0  0  0  0  0  0  0  0  0
  -30.0840  -22.3800   18.9660 C   0  0  0  0  0  0  0  0  0  0  0  0
  -29.5020  -21.5840   19.9530 N   0  0  0  0  0  0  0  0  0  0  0  0
  -28.5550  -19.3190   20.5880 C   0  0  0  0  0  3  0  0  0  0  0  0
  -30.8290  -19.3980   19.8380 C   0  0  0  0  0  3  0  0  0  0  0  0
  -28.6590  -17.8980   20.7090 C   0  0  0  0  0  3  0  0  0  0  0  0
  -30.9330  -17.9730   19.9520 C   0  0  0  0  0  3  0  0  0  0  0  0
  -29.6330  -20.1230   20.1330 C   0  0  0  0  0  0  0  0  0  0  0  0
  -29.8400  -17.1730   20.3830 C   0  0  0  0  0  0  0  0  0  0  0  0
  -30.6170  -14.6860   20.0450 C   0  0  0  0  0  0  0  0  0  0  0  0
  -30.3670  -12.4670   18.9360 C   0  0  0  0  0  2  0  0  0  0  0  0
  -29.3490  -12.6210   17.7820 C   0  0  0  0  0  2  0  0  0  0  0  0
  -27.9040  -12.4460   18.2930 C   0  0  0  0  0  2  0  0  0  0  0  0
  -27.6210  -13.2730   19.5750 C   0  0  0  0  0  3  0  0  0  0  0  0
  -28.7420  -13.0820   20.6200 C   0  0  0  0  0  2  0  0  0  0  0  0
  -30.0150  -13.4530   19.9790 N   0  0  0  0  0  0  0  0  0  0  0  0
  -31.7480  -14.8670   19.5830 O   0  0  0  0  0  0  0  0  0  0  0  0
  -29.8240  -15.7070   20.5120 N   0  0  0  0  0  0  0  0  0  0  0  0
  -28.9700  -15.3470   20.9090 H   0  0  0  0  0  0  0  0  0  0  0  0
  -25.2740  -13.8570   20.4450 C   0  0  0  0  0  0  0  0  0  0  0  0
  -24.2280  -13.0760   20.8570 C   0  0  0  0  0  0  0  0  0  0  0  0
  -24.6850  -11.7260   20.7670 C   0  0  0  0  0  0  0  0  0  0  0  0
  -26.3010  -12.9810   20.1280 N   0  0  0  0  0  0  0  0  0  0  0  0
  -25.9550  -11.6930   20.3820 N   0  0  0  0  0  0  0  0  0  0  0  0
  -23.9680  -10.4590   20.9690 C   0  0  0  0  0  0  0  0  0  0  0  0
  -24.4240   -9.4910   21.8890 C   0  0  0  0  0  3  0  0  0  0  0  0
  -23.7080   -8.2890   22.0790 C   0  0  0  0  0  3  0  0  0  0  0  0
  -22.5210   -8.0480   21.3470 C   0  0  0  0  0  0  0  0  0  0  0  0
  -22.0840   -9.0060   20.4150 C   0  0  0  0  0  3  0  0  0  0  0  0
  -22.8020  -10.1980   20.2240 C   0  0  0  0  0  3  0  0  0  0  0  0
  -21.7740   -6.9000   21.4470 O   0  0  0  0  0  0  0  0  0  0  0  0
  -21.7180   -6.1750   22.6110 C   0  0  0  0  0  0  0  0  0  0  0  0
  -21.2540   -6.7420   23.8180 C   0  0  0  0  0  3  0  0  0  0  0  0
  -21.1470   -5.9430   24.9740 C   0  0  0  0  0  3  0  0  0  0  0  0
  -21.4940   -4.5790   24.9250 C   0  0  0  0  0  0  0  0  0  0  0  0
  -21.9520   -4.0140   23.7220 C   0  0  0  0  0  3  0  0  0  0  0  0
  -22.0600   -4.8090   22.5670 C   0  0  0  0  0  0  0  0  0  0  0  0
  -22.4810   -4.2540   21.4060 F   0  0  0  0  0  0  0  0  0  0  0  0
  -21.3850   -3.8110   26.0330 F   0  0  0  0  0  0  0  0  0  0  0  0
  -22.8500  -13.5470   21.2220 C   0  0  0  0  0  0  0  0  0  0  0  0
  -22.1710  -12.8310   22.1100 N   0  0  0  0  0  0  0  0  0  0  0  0
  -22.3850  -14.5860   20.7520 O   0  0  0  0  0  0  0  0  0  0  0  0
  -22.5610  -11.9910   22.5110 H   0  0  0  0  0  0  0  0  0  0  0  0
  -21.2490  -13.1280   22.3960 H   0  0  0  0  0  0  0  0  0  0  0  0
  -25.4300  -15.2310   20.2880 N   0  0  0  0  0  0  0  0  0  0  0  0
  -24.6650  -15.8780   20.4470 H   0  0  0  0  0  0  0  0  0  0  0  0
  -26.2400  -15.6720   19.8720 H   0  0  0  0  0  0  0  0  0  0  0  0
  -30.8800  -21.8420   18.0030 O   0  0  0  0  0  0  0  0  0  0  0  0
  -31.1440  -22.5460   17.4190 H   0  0  0  0  0  0  0  0  0  0  0  0
  -28.1160  -25.1100   20.7620 C   0  0  0  0  0  2  0  0  0  0  0  0
  -28.3760  -26.4530   20.1800 O   0  0  0  0  0  0  0  0  0  0  0  0
  -24.6450  -31.8720   23.2020 C   0  0  0  0  0  0  0  0  0  0  0  0
  -27.2780  -27.3260   20.1530 C   0  0  0  0  0  0  0  0  0  0  0  0
  -23.4510  -30.4770   21.5530 C   0  0  0  0  0  3  0  0  0  0  0  0
  -24.9130  -28.9330   20.1290 C   0  0  0  0  0  0  0  0  0  0  0  0
  -25.9910  -30.8010   21.3810 C   0  0  0  0  0  2  0  0  0  0  0  0
  -26.0780  -29.4240   20.7330 C   0  0  0  0  0  0  0  0  0  0  0  0
  -27.2670  -28.6330   20.7340 C   0  0  0  0  0  3  0  0  0  0  0  0
  -26.0950  -26.8930   19.5170 C   0  0  0  0  0  3  0  0  0  0  0  0
  -24.9230  -27.6720   19.5110 C   0  0  0  0  0  3  0  0  0  0  0  0
  -23.6730  -29.8040   20.1720 C   0  0  0  0  0  2  0  0  0  0  0  0
  -24.7150  -31.0670   22.1030 N   0  0  0  0  0  0  0  0  0  0  0  0
  -23.5590  -32.1470   23.7330 O   0  0  0  0  0  0  0  0  0  0  0  0
  -22.7840  -29.4580   22.5070 C   0  0  0  0  0  0  0  0  0  0  0  0
  -21.4550  -29.2950   22.3870 N   0  0  0  0  0  0  0  0  0  0  0  0
  -23.4620  -28.8160   23.3150 O   0  0  0  0  0  0  0  0  0  0  0  0
  -20.9700  -29.8640   21.7090 H   0  0  0  0  0  0  0  0  0  0  0  0
  -18.0670  -28.1440   22.9110 C   0  0  0  0  0  0  0  0  0  0  0  0
  -20.6320  -28.3590   23.1540 C   0  0  0  0  0  3  0  0  0  0  0  0
  -20.7050  -26.9350   22.5560 C   0  0  0  0  0  2  0  0  0  0  0  0
  -19.5860  -26.6440   21.5510 C   0  0  0  0  0  2  0  0  0  0  0  0
  -18.2140  -26.8020   22.2140 C   0  0  0  0  0  2  0  0  0  0  0  0
  -19.2020  -28.8820   23.3380 C   0  0  0  0  0  0  0  0  0  0  0  0
  -19.0090  -30.1390   23.9520 C   0  0  0  0  0  3  0  0  0  0  0  0
  -17.7150  -30.6580   24.1400 C   0  0  0  0  0  3  0  0  0  0  0  0
  -16.5940  -29.9160   23.7280 C   0  0  0  0  0  3  0  0  0  0  0  0
  -16.7700  -28.6600   23.1190 C   0  0  0  0  0  3  0  0  0  0  0  0
  -25.9250  -32.5030   23.8330 C   0  0  0  0  0  3  0  0  0  0  0  0
  -26.4340  -31.7310   25.1110 C   0  0  1  0  0  0  0  0  0  0  0  0
  -25.3350  -31.4910   26.1720 C   0  0  0  0  0  1  0  0  0  0  0  0
  -27.0190  -30.3540   24.7210 C   0  0  0  0  0  1  0  0  0  0  0  0
  -27.5810  -32.5240   25.7810 C   0  0  0  0  0  1  0  0  0  0  0  0
  -25.6130  -33.9020   24.1650 N   0  0  0  0  0  0  0  0  0  0  0  0
  -25.9480  -34.9560   23.4090 C   0  0  0  0  0  0  0  0  0  0  0  0
  -26.6210  -34.8550   22.3790 O   0  0  0  0  0  0  0  0  0  0  0  0
  -25.0170  -34.0540   24.9640 H   0  0  0  0  0  0  0  0  0  0  0  0
  -24.2230  -36.7520   23.0510 C   0  0  0  0  0  1  0  0  0  0  0  0
  -25.4590  -36.3440   23.8680 C   0  0  0  0  0  3  0  0  0  0  0  0
  -27.5880  -37.2270   24.7160 C   0  0  0  0  0  1  0  0  0  0  0  0
  -26.4940  -37.3970   23.7640 N   0  0  0  0  0  0  0  0  0  0  0  0
  -26.0870  -38.3160   23.9080 H   0  0  0  0  0  0  0  0  0  0  0  0
  1  3  1  0
  3  2  2  0
  3 52  1  0
  4  1  2  0
  4  5  1  0
  5 10  1  0
  5  2  1  0
  6  8  1  0
  7  9  2  0
  7 10  1  0
  9 11  1  0
 10  6  2  0
 11 20  1  0
 11  8  2  0
 12 20  1  0
 13 18  1  0
 14 15  1  0
 14 13  1  0
 16 15  1  0
 16 25  1  0
 16 17  1  0
 18 12  1  0
 18 17  1  0
 19 12  2  0
 20 21  1  0
 22 23  2  0
 23 42  1  0
 24 23  1  0
 24 27  1  0
 25 26  1  0
 25 22  1  0
 26 24  2  0
 27 28  1  0
 28 29  2  0
 30 33  1  0
 30 29  1  0
 31 30  2  0
 32 31  1  0
 32 27  2  0
 33 34  1  0
 34 35  1  0
 35 36  2  0
 37 36  1  0
 37 41  1  0
 38 37  2  0
 39 34  2  0
 39 38  1  0
 40 39  1  0
 42 43  1  0
 43 46  1  0
 43 45  1  0
 44 42  2  0
 47 22  1  0
 47 48  1  0
 49 47  1  0
 50  4  1  0
 51 50  1  0
 53 52  1  0
 54 65  2  0
 55 53  1  0
 55 60  1  0
 56 64  1  0
 56 66  1  0
 57 63  1  0
 57 59  1  0
 58 64  1  0
 59 60  2  0
 59 58  1  0
 61 55  2  0
 62 61  1  0
 62 57  2  0
 63 56  1  0
 64 54  1  0
 66 68  2  0
 67 66  1  0
 69 67  1  0
 70 79  2  0
 70 75  1  0
 71 67  1  0
 71 75  1  0
 72 71  1  0
 73 74  1  0
 73 72  1  0
 74 70  1  0
 75 76  2  0
 76 77  1  0
 78 77  2  0
 79 78  1  0
 80 54  1  0
 80 85  1  0
 80 81  1  0
 81 84  1  1
 81 82  1  0
 83 81  1  0
 85 88  1  0
 86 90  1  0
 86 85  1  0
 87 86  2  0
 90 89  1  0
 92 90  1  0
 92 93  1  0
 92 91  1  0
M  ISO  4  12 100  20 100  52 101  53 101
M  END
>  <TORSDO>  (8) 
F 19

>  <SCORE>  (8) 
-14.322

>  <name>  (8) 
7

>  <ligand_id>  (8) 
7

>  <original_smiles>  (8) 
[H]Oc1c([H])c(C([H])([H])Oc2c([H])c([H])c3c(c2[H])C([H])([H])N(C(=O)C([H])(N([H])C(=O)C([H])(N([H])C([H])([H])[H])C([H])([H])[H])C(C([H])([H])[H])(C([H])([H])[H])C([H])([H])[H])C([H])(C(=O)N([H])C2([H])c4c([H])c([H])c([H])c([H])c4C([H])([H])C([H])([H])C2([H])[H])C3([H])[H])c([H])n1-c1c([H])c([H])c(N([H])C(=O)N2C([H])([H])C([H])([H])C([H])([H])C([H])(n3nc(-c4c([H])c([H])c(Oc5c([H])c([H])c(F)c([H])c5F)c([H])c4[H])c(C(=O)N([H])[H])c3N([H])[H])C2([H])[H])c([H])c1[H]

>  <smiles>  (8) 
[H]Oc1c([H])c(C([H])([H])Oc2c([H])c([H])c3c(c2[H])C([H])([H])N(C(=O)C([H])(N([H])C(=O)C([H])(N([H])C([H])([H])[H])C([H])([H])[H])C(C([H])([H])[H])(C([H])([H])[H])C([H])([H])[H])C([H])(C(=O)N([H])C2([H])c4c([H])c([H])c([H])c([H])c4C([H])([H])C([H])([H])C2([H])[H])C3([H])[H])c([H])n1-c1c([H])c([H])c(N([H])C(=O)N2C([H])([H])C([H])([H])C([H])([H])C([H])(n3nc(-c4c([H])c([H])c(Oc5c([H])c([H])c(F)c([H])c5F)c([H])c4[H])c(C(=O)N([H])[H])c3N([H])[H])C2([H])[H])c([H])c1[H]

$$$$
8:0:0
     RDKit          3D

 92101  0  0  1  0  0  0  0  0999 V2000
  -28.6420  -23.8100   19.8650 C   0  0  0  0  0  0  0  0  0  0  0  0
  -28.4660  -22.5710   19.1260 C   0  0  0  0  0  0  0  0  0  0  0  0
  -29.3120  -23.0150   20.8910 C   0  0  0  0  0  0  0  0  0  0  0  0
  -28.2380  -25.1120   19.5570 C   0  0  0  0  0  3  0  0  0  0  0  0
  -29.1170  -21.8040   20.1300 N   0  0  0  0  0  0  0  0  0  0  0  0
  -27.9260  -22.3540   18.0590 O   0  0  0  0  0  0  0  0  0  0  0  0
  -29.8000  -23.3270   21.9600 O   0  0  0  0  0  0  0  0  0  0  0  0
  -28.3370  -19.3750   19.9660 C   0  0  0  0  0  3  0  0  0  0  0  0
  -30.5440  -19.6690   20.7220 C   0  0  0  0  0  3  0  0  0  0  0  0
  -28.4800  -17.9550   20.0820 C   0  0  0  0  0  3  0  0  0  0  0  0
  -30.7200  -18.2350   20.8080 C   0  0  0  0  0  3  0  0  0  0  0  0
  -29.3460  -20.3340   20.2870 C   0  0  0  0  0  0  0  0  0  0  0  0
  -29.6780  -17.3140   20.4960 C   0  0  0  0  0  0  0  0  0  0  0  0
  -30.5400  -14.7870   20.4170 C   0  0  0  0  0  0  0  0  0  0  0  0
  -30.4080  -12.5030   19.3950 C   0  0  0  0  0  2  0  0  0  0  0  0
  -29.4720  -12.5710   18.1650 C   0  0  0  0  0  2  0  0  0  0  0  0
  -27.9970  -12.3900   18.5800 C   0  0  0  0  0  2  0  0  0  0  0  0
  -27.6080  -13.2710   19.7960 C   0  0  0  0  0  3  0  0  0  0  0  0
  -28.6570  -13.1620   20.9260 C   0  0  0  0  0  2  0  0  0  0  0  0
  -29.9620  -13.5360   20.3570 N   0  0  0  0  0  0  0  0  0  0  0  0
  -31.7190  -14.9480   20.0840 O   0  0  0  0  0  0  0  0  0  0  0  0
  -29.6750  -15.8380   20.6780 N   0  0  0  0  0  0  0  0  0  0  0  0
  -28.7570  -15.4730   20.8790 H   0  0  0  0  0  0  0  0  0  0  0  0
  -25.2060  -13.8640   20.4820 C   0  0  0  0  0  0  0  0  0  0  0  0
  -24.1380  -13.0900   20.8480 C   0  0  0  0  0  0  0  0  0  0  0  0
  -24.6070  -11.7410   20.8350 C   0  0  0  0  0  0  0  0  0  0  0  0
  -26.2570  -12.9860   20.2690 N   0  0  0  0  0  0  0  0  0  0  0  0
  -25.9010  -11.7040   20.5420 N   0  0  0  0  0  0  0  0  0  0  0  0
  -23.8820  -10.4770   21.0260 C   0  0  0  0  0  0  0  0  0  0  0  0
  -24.3100   -9.5170   21.9690 C   0  0  0  0  0  3  0  0  0  0  0  0
  -23.5850   -8.3190   22.1490 C   0  0  0  0  0  3  0  0  0  0  0  0
  -22.4190   -8.0730   21.3850 C   0  0  0  0  0  0  0  0  0  0  0  0
  -22.0120   -9.0220   20.4310 C   0  0  0  0  0  3  0  0  0  0  0  0
  -22.7370  -10.2120   20.2500 C   0  0  0  0  0  3  0  0  0  0  0  0
  -21.6680   -6.9270   21.4720 O   0  0  0  0  0  0  0  0  0  0  0  0
  -21.6120   -6.1890   22.6280 C   0  0  0  0  0  0  0  0  0  0  0  0
  -21.1680   -6.7470   23.8460 C   0  0  0  0  0  3  0  0  0  0  0  0
  -21.0610   -5.9360   24.9940 C   0  0  0  0  0  3  0  0  0  0  0  0
  -21.3860   -4.5680   24.9240 C   0  0  0  0  0  0  0  0  0  0  0  0
  -21.8230   -4.0100   23.7090 C   0  0  0  0  0  3  0  0  0  0  0  0
  -21.9320   -4.8180   22.5640 C   0  0  0  0  0  0  0  0  0  0  0  0
  -22.3330   -4.2710   21.3910 F   0  0  0  0  0  0  0  0  0  0  0  0
  -21.2760   -3.7870   26.0230 F   0  0  0  0  0  0  0  0  0  0  0  0
  -22.7350  -13.5650   21.0950 C   0  0  0  0  0  0  0  0  0  0  0  0
  -21.9970  -12.8730   21.9560 N   0  0  0  0  0  0  0  0  0  0  0  0
  -22.3020  -14.5850   20.5610 O   0  0  0  0  0  0  0  0  0  0  0  0
  -22.3610  -12.0490   22.4110 H   0  0  0  0  0  0  0  0  0  0  0  0
  -21.0560  -13.1730   22.1640 H   0  0  0  0  0  0  0  0  0  0  0  0
  -25.3640  -15.2330   20.2890 N   0  0  0  0  0  0  0  0  0  0  0  0
  -24.5820  -15.8740   20.3620 H   0  0  0  0  0  0  0  0  0  0  0  0
  -26.1880  -15.6590   19.8900 H   0  0  0  0  0  0  0  0  0  0  0  0
  -28.3040  -26.3830   20.2080 O   0  0  0  0  0  0  0  0  0  0  0  0
  -24.6150  -31.8850   23.2430 C   0  0  0  0  0  0  0  0  0  0  0  0
  -27.2070  -27.2880   20.1490 C   0  0  0  0  0  0  0  0  0  0  0  0
  -23.4050  -30.4940   21.6060 C   0  0  0  0  0  3  0  0  0  0  0  0
  -24.8470  -28.9480   20.1650 C   0  0  0  0  0  0  0  0  0  0  0  0
  -25.9500  -30.7960   21.4160 C   0  0  0  0  0  2  0  0  0  0  0  0
  -26.0260  -29.4180   20.7580 C   0  0  0  0  0  0  0  0  0  0  0  0
  -27.2060  -28.6010   20.7390 C   0  0  0  0  0  3  0  0  0  0  0  0
  -25.9870  -26.8860   19.5510 C   0  0  0  0  0  3  0  0  0  0  0  0
  -24.8330  -27.6890   19.5530 C   0  0  0  0  0  3  0  0  0  0  0  0
  -23.6130  -29.8270   20.2220 C   0  0  0  0  0  2  0  0  0  0  0  0
  -24.6760  -31.0770   22.1440 N   0  0  0  0  0  0  0  0  0  0  0  0
  -23.5330  -32.1630   23.7810 O   0  0  0  0  0  0  0  0  0  0  0  0
  -22.7430  -29.4740   22.5650 C   0  0  0  0  0  0  0  0  0  0  0  0
  -21.4150  -29.2960   22.4420 N   0  0  0  0  0  0  0  0  0  0  0  0
  -23.4230  -28.8470   23.3820 O   0  0  0  0  0  0  0  0  0  0  0  0
  -20.9250  -29.8540   21.7570 H   0  0  0  0  0  0  0  0  0  0  0  0
  -18.0400  -28.0910   22.9500 C   0  0  0  0  0  0  0  0  0  0  0  0
  -20.5990  -28.3570   23.2140 C   0  0  0  0  0  3  0  0  0  0  0  0
  -20.7020  -26.9250   22.6370 C   0  0  0  0  0  2  0  0  0  0  0  0
  -19.5990  -26.6010   21.6260 C   0  0  0  0  0  2  0  0  0  0  0  0
  -18.2180  -26.7420   22.2740 C   0  0  0  0  0  2  0  0  0  0  0  0
  -19.1580  -28.8550   23.3780 C   0  0  0  0  0  0  0  0  0  0  0  0
  -18.9370  -30.1170   23.9720 C   0  0  0  0  0  3  0  0  0  0  0  0
  -17.6320  -30.6150   24.1420 C   0  0  0  0  0  3  0  0  0  0  0  0
  -16.5280  -29.8470   23.7300 C   0  0  0  0  0  3  0  0  0  0  0  0
  -16.7330  -28.5870   23.1400 C   0  0  0  0  0  3  0  0  0  0  0  0
  -25.8990  -32.5170   23.8600 C   0  0  0  0  0  3  0  0  0  0  0  0
  -25.5890  -33.9150   24.1940 N   0  0  0  0  0  0  0  0  0  0  0  0
  -25.9100  -34.9700   23.4330 C   0  0  0  0  0  0  0  0  0  0  0  0
  -26.5660  -34.8690   22.3930 O   0  0  0  0  0  0  0  0  0  0  0  0
  -25.0060  -34.0680   25.0040 H   0  0  0  0  0  0  0  0  0  0  0  0
  -24.1740  -36.7610   23.1080 C   0  0  0  0  0  1  0  0  0  0  0  0
  -25.4280  -36.3580   23.8990 C   0  0  0  0  0  3  0  0  0  0  0  0
  -27.5730  -37.2470   24.6990 C   0  0  0  0  0  1  0  0  0  0  0  0
  -26.4570  -37.4130   23.7710 N   0  0  0  0  0  0  0  0  0  0  0  0
  -26.0520  -38.3320   23.9230 H   0  0  0  0  0  0  0  0  0  0  0  0
  -26.4170  -31.7450   25.1360 C   0  0  1  0  0  0  0  0  0  0  0  0
  -25.3270  -31.5090   26.2070 C   0  0  0  0  0  1  0  0  0  0  0  0
  -26.9970  -30.3660   24.7440 C   0  0  0  0  0  1  0  0  0  0  0  0
  -27.5710  -32.5380   25.7950 C   0  0  0  0  0  1  0  0  0  0  0  0
  1  3  1  0
  2  1  1  0
  2  5  1  0
  3  7  2  0
  4  1  2  0
  4 52  1  0
  5 12  1  0
  5  3  1  0
  6  2  2  0
  8 10  2  0
  8 12  1  0
  9 11  1  0
 10 13  1  0
 12  9  2  0
 13 22  1  0
 13 11  2  0
 14 22  1  0
 15 20  1  0
 16 17  1  0
 16 15  1  0
 18 17  1  0
 18 27  1  0
 18 19  1  0
 20 14  1  0
 20 19  1  0
 21 14  2  0
 22 23  1  0
 24 25  2  0
 25 44  1  0
 26 25  1  0
 26 29  1  0
 27 24  1  0
 27 28  1  0
 28 26  2  0
 29 30  1  0
 30 31  2  0
 32 35  1  0
 32 31  1  0
 33 32  2  0
 34 33  1  0
 34 29  2  0
 35 36  1  0
 36 37  1  0
 37 38  2  0
 39 38  1  0
 39 43  1  0
 40 39  2  0
 41 36  2  0
 41 40  1  0
 42 41  1  0
 44 45  1  0
 45 48  1  0
 45 47  1  0
 46 44  2  0
 49 50  1  0
 49 24  1  0
 51 49  1  0
 53 64  2  0
 54 52  1  0
 54 59  1  0
 55 63  1  0
 55 65  1  0
 56 62  1  0
 56 58  1  0
 57 63  1  0
 58 57  1  0
 59 58  2  0
 60 61  1  0
 60 54  2  0
 61 56  2  0
 62 55  1  0
 63 53  1  0
 65 67  2  0
 66 65  1  0
 68 66  1  0
 69 78  2  0
 69 74  1  0
 70 66  1  0
 70 74  1  0
 71 70  1  0
 72 73  1  0
 72 71  1  0
 73 69  1  0
 74 75  2  0
 75 76  1  0
 77 76  2  0
 78 77  1  0
 79 53  1  0
 79 80  1  0
 79 89  1  0
 80 83  1  0
 81 85  1  0
 81 80  1  0
 82 81  2  0
 85 84  1  0
 87 85  1  0
 87 88  1  0
 87 86  1  0
 89 92  1  1
 89 90  1  0
 91 89  1  0
M  ISO  4   4 101  14 100  22 100  52 101
M  END
>  <TORSDO>  (9) 
F 17

>  <SCORE>  (9) 
-15.405

>  <name>  (9) 
8

>  <ligand_id>  (9) 
8

>  <original_smiles>  (9) 
[H]C(Oc1c([H])c([H])c2c(c1[H])C([H])([H])N(C(=O)C([H])(N([H])C(=O)C([H])(N([H])C([H])([H])[H])C([H])([H])[H])C(C([H])([H])[H])(C([H])([H])[H])C([H])([H])[H])C([H])(C(=O)N([H])C1([H])c3c([H])c([H])c([H])c([H])c3C([H])([H])C([H])([H])C1([H])[H])C2([H])[H])=C1C(=O)N(c2c([H])c([H])c(N([H])C(=O)N3C([H])([H])C([H])([H])C([H])([H])C([H])(n4nc(-c5c([H])c([H])c(Oc6c([H])c([H])c(F)c([H])c6F)c([H])c5[H])c(C(=O)N([H])[H])c4N([H])[H])C3([H])[H])c([H])c2[H])C1=O

>  <smiles>  (9) 
[H]C(Oc1c([H])c([H])c2c(c1[H])C([H])([H])N(C(=O)C([H])(N([H])C(=O)C([H])(N([H])C([H])([H])[H])C([H])([H])[H])C(C([H])([H])[H])(C([H])([H])[H])C([H])([H])[H])C([H])(C(=O)N([H])C1([H])c3c([H])c([H])c([H])c([H])c3C([H])([H])C([H])([H])C1([H])[H])C2([H])[H])=C1C(=O)N(c2c([H])c([H])c(N([H])C(=O)N3C([H])([H])C([H])([H])C([H])([H])C([H])(n4nc(-c5c([H])c([H])c(Oc6c([H])c([H])c(F)c([H])c6F)c([H])c5[H])c(C(=O)N([H])[H])c4N([H])[H])C3([H])[H])c([H])c2[H])C1=O

$$$$
9:0:0
     RDKit          3D

 94102  0  0  1  0  0  0  0  0999 V2000
  -28.6720  -22.6120   20.4050 C   0  0  0  0  0  0  0  0  0  0  0  0
  -29.6290  -21.6730   20.0880 N   0  0  0  0  0  0  0  0  0  0  0  0
  -27.5930  -22.2790   20.9010 O   0  0  0  0  0  0  0  0  0  0  0  0
  -30.4570  -22.1100   19.7020 H   0  0  0  0  0  0  0  0  0  0  0  0
  -30.9040  -19.4990   19.9760 C   0  0  0  0  0  3  0  0  0  0  0  0
  -31.0290  -18.0720   20.0600 C   0  0  0  0  0  3  0  0  0  0  0  0
  -28.5760  -19.3530   20.5200 C   0  0  0  0  0  3  0  0  0  0  0  0
  -29.6780  -20.1950   20.2010 C   0  0  0  0  0  0  0  0  0  0  0  0
  -29.9200  -17.2410   20.3770 C   0  0  0  0  0  0  0  0  0  0  0  0
  -28.6970  -17.9310   20.6040 C   0  0  0  0  0  0  0  0  0  0  0  0
  -27.5970  -17.1970   20.9030 F   0  0  0  0  0  0  0  0  0  0  0  0
  -30.6970  -14.7500   20.0250 C   0  0  0  0  0  0  0  0  0  0  0  0
  -30.4630  -12.5290   18.9140 C   0  0  0  0  0  2  0  0  0  0  0  0
  -29.4460  -12.6740   17.7590 C   0  0  0  0  0  2  0  0  0  0  0  0
  -28.0020  -12.4840   18.2690 C   0  0  0  0  0  2  0  0  0  0  0  0
  -27.7090  -13.3060   19.5510 C   0  0  0  0  0  3  0  0  0  0  0  0
  -28.8340  -13.1300   20.5970 C   0  0  0  0  0  2  0  0  0  0  0  0
  -30.1030  -13.5140   19.9560 N   0  0  0  0  0  0  0  0  0  0  0  0
  -31.8300  -14.9360   19.5680 O   0  0  0  0  0  0  0  0  0  0  0  0
  -29.9030  -15.7720   20.4850 N   0  0  0  0  0  0  0  0  0  0  0  0
  -29.0400  -15.4310   20.8820 H   0  0  0  0  0  0  0  0  0  0  0  0
  -25.3590  -13.8660   20.4260 C   0  0  0  0  0  0  0  0  0  0  0  0
  -24.3170  -13.0760   20.8300 C   0  0  0  0  0  0  0  0  0  0  0  0
  -24.7830  -11.7290   20.7270 C   0  0  0  0  0  0  0  0  0  0  0  0
  -26.3920  -13.0010   20.1050 N   0  0  0  0  0  0  0  0  0  0  0  0
  -26.0530  -11.7070   20.3450 N   0  0  0  0  0  0  0  0  0  0  0  0
  -24.0720  -10.4580   20.9180 C   0  0  0  0  0  0  0  0  0  0  0  0
  -24.5020   -9.5070   21.8690 C   0  0  0  0  0  3  0  0  0  0  0  0
  -23.7920   -8.2990   22.0460 C   0  0  0  0  0  3  0  0  0  0  0  0
  -22.6370   -8.0360   21.2720 C   0  0  0  0  0  0  0  0  0  0  0  0
  -22.2260   -8.9760   20.3110 C   0  0  0  0  0  3  0  0  0  0  0  0
  -22.9370  -10.1750   20.1320 C   0  0  0  0  0  3  0  0  0  0  0  0
  -21.9000   -6.8790   21.3570 O   0  0  0  0  0  0  0  0  0  0  0  0
  -21.7600   -6.2000   22.5400 C   0  0  0  0  0  0  0  0  0  0  0  0
  -21.2010   -6.8060   23.6860 C   0  0  0  0  0  3  0  0  0  0  0  0
  -21.0110   -6.0510   24.8600 C   0  0  0  0  0  3  0  0  0  0  0  0
  -21.3700   -4.6910   24.8890 C   0  0  0  0  0  0  0  0  0  0  0  0
  -21.9230   -4.0840   23.7490 C   0  0  0  0  0  3  0  0  0  0  0  0
  -22.1140   -4.8370   22.5760 C   0  0  0  0  0  0  0  0  0  0  0  0
  -22.6270   -4.2410   21.4720 F   0  0  0  0  0  0  0  0  0  0  0  0
  -21.1820   -3.9640   26.0160 F   0  0  0  0  0  0  0  0  0  0  0  0
  -22.9370  -13.5370   21.1990 C   0  0  0  0  0  0  0  0  0  0  0  0
  -22.2670  -12.8150   22.0900 N   0  0  0  0  0  0  0  0  0  0  0  0
  -22.4630  -14.5740   20.7350 O   0  0  0  0  0  0  0  0  0  0  0  0
  -22.6640  -11.9760   22.4880 H   0  0  0  0  0  0  0  0  0  0  0  0
  -21.3440  -13.1060   22.3790 H   0  0  0  0  0  0  0  0  0  0  0  0
  -25.5050  -15.2440   20.2900 N   0  0  0  0  0  0  0  0  0  0  0  0
  -24.7490  -15.8860   20.5010 H   0  0  0  0  0  0  0  0  0  0  0  0
  -26.3600  -15.7190   20.0330 H   0  0  0  0  0  0  0  0  0  0  0  0
  -28.1550  -25.0910   20.3660 C   0  0  0  0  0  3  0  0  0  0  0  0
  -29.0220  -24.0480   20.1140 C   0  0  0  0  0  0  0  0  0  0  0  0
  -30.2250  -24.3190   19.5870 O   0  0  0  0  0  0  0  0  0  0  0  0
  -30.2700  -25.2610   19.4750 H   0  0  0  0  0  0  0  0  0  0  0  0
  -28.3630  -26.4760   20.1360 O   0  0  0  0  0  0  0  0  0  0  0  0
  -24.5990  -31.8710   23.1800 C   0  0  0  0  0  0  0  0  0  0  0  0
  -27.2520  -27.3400   20.1130 C   0  0  0  0  0  0  0  0  0  0  0  0
  -23.4110  -30.4770   21.5250 C   0  0  0  0  0  3  0  0  0  0  0  0
  -24.8800  -28.9420   20.0960 C   0  0  0  0  0  0  0  0  0  0  0  0
  -25.9500  -30.8080   21.3600 C   0  0  0  0  0  2  0  0  0  0  0  0
  -26.0420  -29.4330   20.7060 C   0  0  0  0  0  0  0  0  0  0  0  0
  -27.2320  -28.6410   20.7080 C   0  0  0  0  0  3  0  0  0  0  0  0
  -26.0710  -26.9110   19.4700 C   0  0  0  0  0  3  0  0  0  0  0  0
  -24.8970  -27.6860   19.4690 C   0  0  0  0  0  3  0  0  0  0  0  0
  -23.6370  -29.8110   20.1420 C   0  0  0  0  0  2  0  0  0  0  0  0
  -24.6720  -31.0690   22.0790 N   0  0  0  0  0  0  0  0  0  0  0  0
  -23.5100  -32.1410   23.7110 O   0  0  0  0  0  0  0  0  0  0  0  0
  -22.7470  -29.4520   22.4750 C   0  0  0  0  0  0  0  0  0  0  0  0
  -21.4220  -29.2770   22.3470 N   0  0  0  0  0  0  0  0  0  0  0  0
  -23.4260  -28.8170   23.2870 O   0  0  0  0  0  0  0  0  0  0  0  0
  -20.9340  -29.8400   21.6640 H   0  0  0  0  0  0  0  0  0  0  0  0
  -18.0370  -28.1060   22.8610 C   0  0  0  0  0  0  0  0  0  0  0  0
  -20.6010  -28.3340   23.1090 C   0  0  0  0  0  3  0  0  0  0  0  0
  -20.6820  -26.9120   22.5040 C   0  0  0  0  0  2  0  0  0  0  0  0
  -19.5650  -26.6210   21.4960 C   0  0  0  0  0  2  0  0  0  0  0  0
  -18.1920  -26.7680   22.1580 C   0  0  0  0  0  2  0  0  0  0  0  0
  -19.1680  -28.8490   23.2940 C   0  0  0  0  0  0  0  0  0  0  0  0
  -18.9690  -30.1020   23.9130 C   0  0  0  0  0  3  0  0  0  0  0  0
  -17.6710  -30.6130   24.1030 C   0  0  0  0  0  3  0  0  0  0  0  0
  -16.5540  -29.8670   23.6870 C   0  0  0  0  0  3  0  0  0  0  0  0
  -16.7380  -28.6160   23.0720 C   0  0  0  0  0  3  0  0  0  0  0  0
  -25.8750  -32.5060   23.8140 C   0  0  0  0  0  3  0  0  0  0  0  0
  -26.3920  -31.7240   25.0840 C   0  0  1  0  0  0  0  0  0  0  0  0
  -25.2960  -31.4630   26.1420 C   0  0  0  0  0  1  0  0  0  0  0  0
  -26.9910  -30.3570   24.6790 C   0  0  0  0  0  1  0  0  0  0  0  0
  -27.5310  -32.5210   25.7610 C   0  0  0  0  0  1  0  0  0  0  0  0
  -25.5530  -33.8980   24.1600 N   0  0  0  0  0  0  0  0  0  0  0  0
  -25.8650  -34.9620   23.4080 C   0  0  0  0  0  0  0  0  0  0  0  0
  -26.5230  -34.8750   22.3680 O   0  0  0  0  0  0  0  0  0  0  0  0
  -24.9670  -34.0380   24.9690 H   0  0  0  0  0  0  0  0  0  0  0  0
  -24.1120  -36.7380   23.0960 C   0  0  0  0  0  1  0  0  0  0  0  0
  -25.3690  -36.3410   23.8840 C   0  0  0  0  0  3  0  0  0  0  0  0
  -27.5030  -37.2470   24.6940 C   0  0  0  0  0  1  0  0  0  0  0  0
  -26.3870  -37.4070   23.7650 N   0  0  0  0  0  0  0  0  0  0  0  0
  -25.9720  -38.3210   23.9230 H   0  0  0  0  0  0  0  0  0  0  0  0
  1  3  2  0
  2  8  1  0
  2  1  1  0
  4  2  1  0
  5  6  2  0
  5  8  1  0
  6  9  1  0
  7 10  1  0
  8  7  2  0
  9 20  1  0
  9 10  2  0
 10 11  1  0
 12 20  1  0
 13 18  1  0
 14 15  1  0
 14 13  1  0
 16 15  1  0
 16 25  1  0
 16 17  1  0
 18 12  1  0
 18 17  1  0
 19 12  2  0
 20 21  1  0
 22 23  2  0
 23 42  1  0
 24 23  1  0
 24 27  1  0
 25 26  1  0
 25 22  1  0
 26 24  2  0
 27 28  1  0
 28 29  2  0
 30 33  1  0
 30 29  1  0
 31 30  2  0
 32 31  1  0
 32 27  2  0
 33 34  1  0
 34 39  2  0
 34 35  1  0
 35 36  2  0
 36 37  1  0
 37 41  1  0
 38 37  2  0
 39 38  1  0
 40 39  1  0
 42 43  1  0
 43 46  1  0
 43 45  1  0
 44 42  2  0
 47 22  1  0
 47 48  1  0
 49 47  1  0
 51 50  2  0
 51  1  1  0
 52 51  1  0
 53 52  1  0
 54 50  1  0
 55 66  2  0
 56 54  1  0
 56 61  1  0
 57 65  1  0
 57 67  1  0
 58 64  1  0
 58 60  1  0
 59 65  1  0
 60 61  2  0
 60 59  1  0
 62 56  2  0
 63 62  1  0
 63 58  2  0
 64 57  1  0
 65 55  1  0
 67 69  2  0
 68 67  1  0
 70 68  1  0
 71 80  2  0
 71 76  1  0
 72 68  1  0
 72 76  1  0
 73 72  1  0
 74 75  1  0
 74 73  1  0
 75 71  1  0
 76 77  2  0
 77 78  1  0
 79 78  2  0
 80 79  1  0
 81 55  1  0
 81 86  1  0
 81 82  1  0
 82 85  1  1
 82 83  1  0
 84 82  1  0
 86 89  1  0
 87 91  1  0
 87 86  1  0
 88 87  2  0
 91 90  1  0
 93 91  1  0
 93 94  1  0
 93 92  1  0
M  ISO  4  12 100  20 100  50 101  54 101
M  END
>  <TORSDO>  (10) 
F 19

>  <SCORE>  (10) 
-14.288

>  <name>  (10) 
9

>  <ligand_id>  (10) 
9

>  <original_smiles>  (10) 
[H]OC(C(=O)N([H])c1c([H])c([H])c(N([H])C(=O)N2C([H])([H])C([H])([H])C([H])([H])C([H])(n3nc(-c4c([H])c([H])c(Oc5c([H])c([H])c(F)c([H])c5F)c([H])c4[H])c(C(=O)N([H])[H])c3N([H])[H])C2([H])[H])c(F)c1[H])=C([H])Oc1c([H])c([H])c2c(c1[H])C([H])([H])N(C(=O)C([H])(N([H])C(=O)C([H])(N([H])C([H])([H])[H])C([H])([H])[H])C(C([H])([H])[H])(C([H])([H])[H])C([H])([H])[H])C([H])(C(=O)N([H])C1([H])c3c([H])c([H])c([H])c([H])c3C([H])([H])C([H])([H])C1([H])[H])C2([H])[H]

>  <smiles>  (10) 
[H]OC(C(=O)N([H])c1c([H])c([H])c(N([H])C(=O)N2C([H])([H])C([H])([H])C([H])([H])C([H])(n3nc(-c4c([H])c([H])c(Oc5c([H])c([H])c(F)c([H])c5F)c([H])c4[H])c(C(=O)N([H])[H])c3N([H])[H])C2([H])[H])c(F)c1[H])=C([H])Oc1c([H])c([H])c2c(c1[H])C([H])([H])N(C(=O)C([H])(N([H])C(=O)C([H])(N([H])C([H])([H])[H])C([H])([H])[H])C(C([H])([H])[H])(C([H])([H])[H])C([H])([H])[H])C([H])(C(=O)N([H])C1([H])c3c([H])c([H])c([H])c([H])c3C([H])([H])C([H])([H])C1([H])[H])C2([H])[H]

$$$$
10:0:0
     RDKit          3D

 95104  0  0  1  0  0  0  0  0999 V2000
  -28.9040  -22.8170   22.3220 C   0  0  0  0  0  3  0  0  0  0  0  0
  -28.8780  -22.2570   21.0930 C   0  0  0  0  0  0  0  0  0  0  0  0
  -26.0450  -23.9070   20.2750 C   0  0  0  0  0  0  0  0  0  0  0  0
  -28.4900  -24.2620   22.6180 C   0  0  0  0  0  2  0  0  0  0  0  0
  -28.3770  -23.1210   19.9370 C   0  0  0  0  0  2  0  0  0  0  0  0
  -27.9310  -25.0570   21.4000 C   0  0  0  0  0  3  0  0  0  0  0  0
  -25.5260  -22.8430   19.3080 C   0  0  0  0  0  1  0  0  0  0  0  0
  -27.3850  -24.1020   20.4110 N   0  0  0  0  0  0  0  0  0  0  0  0
  -25.2050  -24.5650   20.8940 O   0  0  0  0  0  0  0  0  0  0  0  0
  -29.4130  -19.8930   21.9050 C   0  0  0  0  0  3  0  0  0  0  0  0
  -29.4700  -20.3930   19.5320 C   0  0  0  0  0  3  0  0  0  0  0  0
  -29.7650  -18.5480   21.6310 C   0  0  0  0  0  3  0  0  0  0  0  0
  -29.8130  -19.0540   19.2630 C   0  0  0  0  0  3  0  0  0  0  0  0
  -29.2570  -20.8330   20.8550 C   0  0  0  0  0  0  0  0  0  0  0  0
  -29.9700  -18.1110   20.3030 C   0  0  0  0  0  0  0  0  0  0  0  0
  -30.3950  -16.7310   19.9380 C   0  0  0  0  0  2  0  0  0  0  0  0
  -30.5200  -15.7020   20.6970 N   0  0  0  0  0  2  0  0  0  0  0  0
  -31.1560  -14.6250   20.0770 C   0  0  0  0  0  0  0  0  0  0  0  0
  -30.7180  -12.4850   18.9230 C   0  0  0  0  0  2  0  0  0  0  0  0
  -29.7150  -12.7210   17.7760 C   0  0  0  0  0  2  0  0  0  0  0  0
  -28.2680  -12.6030   18.2900 C   0  0  0  0  0  2  0  0  0  0  0  0
  -28.0200  -13.4330   19.5780 C   0  0  0  0  0  3  0  0  0  0  0  0
  -29.1370  -13.2040   20.6200 C   0  0  0  0  0  2  0  0  0  0  0  0
  -30.4300  -13.4760   19.9740 N   0  0  0  0  0  0  0  0  0  0  0  0
  -32.2470  -14.7330   19.5100 O   0  0  0  0  0  0  0  0  0  0  0  0
  -25.6970  -14.0550   20.4910 C   0  0  0  0  0  0  0  0  0  0  0  0
  -24.6340  -13.2910   20.8940 C   0  0  0  0  0  0  0  0  0  0  0  0
  -25.0530  -11.9320   20.7590 C   0  0  0  0  0  0  0  0  0  0  0  0
  -26.6970  -13.1630   20.1400 N   0  0  0  0  0  0  0  0  0  0  0  0
  -26.3170  -11.8760   20.3570 N   0  0  0  0  0  0  0  0  0  0  0  0
  -24.3040  -10.6800   20.9340 C   0  0  0  0  0  0  0  0  0  0  0  0
  -24.6860   -9.7180   21.8940 C   0  0  0  0  0  3  0  0  0  0  0  0
  -23.9400   -8.5310   22.0540 C   0  0  0  0  0  3  0  0  0  0  0  0
  -22.7960   -8.2980   21.2550 C   0  0  0  0  0  0  0  0  0  0  0  0
  -22.4330   -9.2480   20.2850 C   0  0  0  0  0  3  0  0  0  0  0  0
  -23.1800  -10.4270   20.1220 C   0  0  0  0  0  3  0  0  0  0  0  0
  -22.0240   -7.1630   21.3250 O   0  0  0  0  0  0  0  0  0  0  0  0
  -21.7980   -6.5190   22.5150 C   0  0  0  0  0  0  0  0  0  0  0  0
  -21.1840   -7.1680   23.6090 C   0  0  0  0  0  3  0  0  0  0  0  0
  -20.9070   -6.4480   24.7880 C   0  0  0  0  0  3  0  0  0  0  0  0
  -21.2330   -5.0810   24.8740 C   0  0  0  0  0  0  0  0  0  0  0  0
  -21.8400   -4.4330   23.7850 C   0  0  0  0  0  3  0  0  0  0  0  0
  -22.1190   -5.1500   22.6070 C   0  0  0  0  0  0  0  0  0  0  0  0
  -22.6840   -4.5140   21.5530 F   0  0  0  0  0  0  0  0  0  0  0  0
  -20.9610   -4.3890   26.0050 F   0  0  0  0  0  0  0  0  0  0  0  0
  -23.2750  -13.7880   21.2910 C   0  0  0  0  0  0  0  0  0  0  0  0
  -22.5960  -13.0720   22.1820 N   0  0  0  0  0  0  0  0  0  0  0  0
  -22.8270  -14.8440   20.8490 O   0  0  0  0  0  0  0  0  0  0  0  0
  -22.9740  -12.2160   22.5610 H   0  0  0  0  0  0  0  0  0  0  0  0
  -21.6870  -13.3870   22.4890 H   0  0  0  0  0  0  0  0  0  0  0  0
  -25.8880  -15.4290   20.3770 N   0  0  0  0  0  0  0  0  0  0  0  0
  -25.1610  -16.1020   20.5900 H   0  0  0  0  0  0  0  0  0  0  0  0
  -26.7480  -15.8590   20.0580 H   0  0  0  0  0  0  0  0  0  0  0  0
  -28.9420  -26.0930   20.8110 C   0  0  0  0  0  2  0  0  0  0  0  0
  -28.5380  -26.7930   19.6260 O   0  0  0  0  0  0  0  0  0  0  0  0
  -24.6230  -31.6800   23.0640 C   0  0  0  0  0  0  0  0  0  0  0  0
  -27.3830  -27.5300   19.7130 C   0  0  0  0  0  0  0  0  0  0  0  0
  -23.4520  -30.3380   21.3480 C   0  0  0  0  0  3  0  0  0  0  0  0
  -24.9470  -28.9500   19.8170 C   0  0  0  0  0  0  0  0  0  0  0  0
  -25.9600  -30.7990   21.1570 C   0  0  0  0  0  2  0  0  0  0  0  0
  -26.0880  -29.4680   20.4450 C   0  0  0  0  0  0  0  0  0  0  0  0
  -27.3090  -28.7580   20.4080 C   0  0  0  0  0  3  0  0  0  0  0  0
  -26.2450  -27.0500   19.0410 C   0  0  0  0  0  3  0  0  0  0  0  0
  -25.0200  -27.7370   19.1120 C   0  0  0  0  0  3  0  0  0  0  0  0
  -23.6710  -29.7530   19.9260 C   0  0  0  0  0  2  0  0  0  0  0  0
  -24.6960  -30.9510   21.9160 N   0  0  0  0  0  0  0  0  0  0  0  0
  -23.5380  -31.8810   23.6260 O   0  0  0  0  0  0  0  0  0  0  0  0
  -22.8460  -29.2360   22.2480 C   0  0  0  0  0  0  0  0  0  0  0  0
  -21.5260  -29.0210   22.1260 N   0  0  0  0  0  0  0  0  0  0  0  0
  -23.5610  -28.5820   23.0120 O   0  0  0  0  0  0  0  0  0  0  0  0
  -21.0090  -29.6020   21.4820 H   0  0  0  0  0  0  0  0  0  0  0  0
  -18.1890  -27.7280   22.6260 C   0  0  0  0  0  0  0  0  0  0  0  0
  -20.7490  -28.0110   22.8470 C   0  0  0  0  0  3  0  0  0  0  0  0
  -20.8580  -26.6310   22.1590 C   0  0  0  0  0  2  0  0  0  0  0  0
  -19.7320  -26.3640   21.1550 C   0  0  0  0  0  2  0  0  0  0  0  0
  -18.3670  -26.4360   21.8460 C   0  0  0  0  0  2  0  0  0  0  0  0
  -19.3080  -28.4750   23.0820 C   0  0  0  0  0  0  0  0  0  0  0  0
  -19.0860  -29.6860   23.7710 C   0  0  0  0  0  3  0  0  0  0  0  0
  -17.7800  -30.1510   24.0120 C   0  0  0  0  0  3  0  0  0  0  0  0
  -16.6760  -29.3980   23.5740 C   0  0  0  0  0  3  0  0  0  0  0  0
  -16.8820  -28.1900   22.8850 C   0  0  0  0  0  3  0  0  0  0  0  0
  -25.8930  -32.3180   23.7100 C   0  0  0  0  0  3  0  0  0  0  0  0
  -26.4240  -31.5150   24.9590 C   0  0  1  0  0  0  0  0  0  0  0  0
  -25.3300  -31.2090   26.0100 C   0  0  0  0  0  1  0  0  0  0  0  0
  -27.0490  -30.1700   24.5220 C   0  0  0  0  0  1  0  0  0  0  0  0
  -27.5480  -32.3170   25.6570 C   0  0  0  0  0  1  0  0  0  0  0  0
  -25.5550  -33.6970   24.0840 N   0  0  0  0  0  0  0  0  0  0  0  0
  -25.8580  -34.7790   23.3530 C   0  0  0  0  0  0  0  0  0  0  0  0
  -26.5250  -34.7220   22.3160 O   0  0  0  0  0  0  0  0  0  0  0  0
  -24.9670  -33.8140   24.8960 H   0  0  0  0  0  0  0  0  0  0  0  0
  -24.0860  -36.5380   23.0540 C   0  0  0  0  0  1  0  0  0  0  0  0
  -25.3380  -36.1410   23.8520 C   0  0  0  0  0  3  0  0  0  0  0  0
  -27.4470  -37.0530   24.7150 C   0  0  0  0  0  1  0  0  0  0  0  0
  -26.3460  -37.2200   23.7710 N   0  0  0  0  0  0  0  0  0  0  0  0
  -25.9170  -38.1270   23.9410 H   0  0  0  0  0  0  0  0  0  0  0  0
  1  4  1  0
  2  1  2  0
  3  8  1  0
  3  9  2  0
  5  8  1  0
  5  2  1  0
  6 54  1  0
  6  4  1  0
  7  3  1  0
  8  6  1  0
 11 14  1  0
 12 10  1  0
 13 11  2  0
 13 15  1  0
 14  2  1  0
 14 10  2  0
 15 12  2  0
 16 15  1  0
 16 17  1  0
 18 17  1  0
 19 24  1  0
 20 21  1  0
 20 19  1  0
 22 21  1  0
 22 29  1  0
 22 23  1  0
 24 18  1  0
 24 23  1  0
 25 18  2  0
 26 27  2  0
 27 46  1  0
 28 27  1  0
 28 31  1  0
 29 30  1  0
 29 26  1  0
 30 28  2  0
 31 32  1  0
 32 33  2  0
 34 37  1  0
 34 33  1  0
 35 34  2  0
 36 35  1  0
 36 31  2  0
 37 38  1  0
 38 43  2  0
 38 39  1  0
 39 40  2  0
 40 41  1  0
 41 45  1  0
 42 41  2  0
 43 42  1  0
 44 43  1  0
 46 47  1  0
 47 50  1  0
 47 49  1  0
 48 46  2  0
 51 26  1  0
 51 52  1  0
 53 51  1  0
 55 57  1  0
 55 54  1  0
 56 67  2  0
 57 62  1  0
 58 66  1  0
 58 68  1  0
 59 65  1  0
 59 61  1  0
 60 66  1  0
 61 60  1  0
 62 61  2  0
 63 64  1  0
 63 57  2  0
 64 59  2  0
 65 58  1  0
 66 56  1  0
 68 70  2  0
 69 68  1  0
 71 69  1  0
 72 81  2  0
 72 77  1  0
 73 69  1  0
 73 77  1  0
 74 73  1  0
 75 76  1  0
 75 74  1  0
 76 72  1  0
 77 78  2  0
 78 79  1  0
 80 79  2  0
 81 80  1  0
 82 56  1  0
 82 87  1  0
 82 83  1  0
 83 86  1  1
 83 84  1  0
 85 83  1  0
 87 90  1  0
 88 92  1  0
 88 87  1  0
 89 88  2  0
 92 91  1  0
 94 92  1  0
 94 95  1  0
 94 93  1  0
M  ISO  4  17 100  18 100  54 101  55 101
M  END
>  <TORSDO>  (11) 
F 19

>  <SCORE>  (11) 
-12.257

>  <name>  (11) 
10

>  <ligand_id>  (11) 
10

>  <original_smiles>  (11) 
[H]C(=NC(=O)N1C([H])([H])C([H])([H])C([H])([H])C([H])(n2nc(-c3c([H])c([H])c(Oc4c([H])c([H])c(F)c([H])c4F)c([H])c3[H])c(C(=O)N([H])[H])c2N([H])[H])C1([H])[H])c1c([H])c([H])c(C2=C([H])C([H])([H])C([H])(C([H])([H])Oc3c([H])c([H])c4c(c3[H])C([H])([H])N(C(=O)C([H])(N([H])C(=O)C([H])(N([H])C([H])([H])[H])C([H])([H])[H])C(C([H])([H])[H])(C([H])([H])[H])C([H])([H])[H])C([H])(C(=O)N([H])C3([H])c5c([H])c([H])c([H])c([H])c5C([H])([H])C([H])([H])C3([H])[H])C4([H])[H])N(C(=O)C([H])([H])[H])C2([H])[H])c([H])c1[H]

>  <smiles>  (11) 
[H]C(=NC(=O)N1C([H])([H])C([H])([H])C([H])([H])C([H])(n2nc(-c3c([H])c([H])c(Oc4c([H])c([H])c(F)c([H])c4F)c([H])c3[H])c(C(=O)N([H])[H])c2N([H])[H])C1([H])[H])c1c([H])c([H])c(C2=C([H])C([H])([H])C([H])(C([H])([H])Oc3c([H])c([H])c4c(c3[H])C([H])([H])N(C(=O)C([H])(N([H])C(=O)C([H])(N([H])C([H])([H])[H])C([H])([H])[H])C(C([H])([H])[H])(C([H])([H])[H])C([H])([H])[H])C([H])(C(=O)N([H])C3([H])c5c([H])c([H])c([H])c([H])c5C([H])([H])C([H])([H])C3([H])[H])C4([H])[H])N(C(=O)C([H])([H])[H])C2([H])[H])c([H])c1[H]

$$$$
11:0:0
     RDKit          3D

 96104  0  0  1  0  0  0  0  0999 V2000
  -29.8540  -21.2930   19.3570 C   0  0  0  0  0  0  0  0  0  0  0  0
  -29.1120  -23.5660   19.9400 C   0  0  0  0  0  0  0  0  0  0  0  0
  -29.2590  -22.2250   20.1440 N   0  0  0  0  0  0  0  0  0  0  0  0
  -30.4210  -21.5600   18.2920 O   0  0  0  0  0  0  0  0  0  0  0  0
  -29.4050  -24.1450   18.8880 O   0  0  0  0  0  0  0  0  0  0  0  0
  -28.9130  -21.9180   21.0420 H   0  0  0  0  0  0  0  0  0  0  0  0
  -31.0950  -19.1040   19.7500 C   0  0  0  0  0  3  0  0  0  0  0  0
  -31.1450  -17.7150   20.0300 C   0  0  0  0  0  3  0  0  0  0  0  0
  -28.7170  -19.1320   20.1890 C   0  0  0  0  0  3  0  0  0  0  0  0
  -29.8840  -19.8410   19.8180 C   0  0  0  0  0  0  0  0  0  0  0  0
  -29.9690  -16.9990   20.3630 C   0  0  0  0  0  0  0  0  0  0  0  0
  -28.7610  -17.7380   20.4500 C   0  0  0  0  0  0  0  0  0  0  0  0
  -27.6160  -17.0830   20.7550 F   0  0  0  0  0  0  0  0  0  0  0  0
  -30.6360  -14.5530   20.0930 C   0  0  0  0  0  0  0  0  0  0  0  0
  -30.2980  -12.4050   18.9240 C   0  0  0  0  0  2  0  0  0  0  0  0
  -29.2880  -12.6490   17.7810 C   0  0  0  0  0  2  0  0  0  0  0  0
  -27.8380  -12.5040   18.2860 C   0  0  0  0  0  2  0  0  0  0  0  0
  -27.5800  -13.2910   19.6000 C   0  0  0  0  0  3  0  0  0  0  0  0
  -28.6980  -13.0280   20.6340 C   0  0  0  0  0  2  0  0  0  0  0  0
  -29.9850  -13.3570   20.0020 N   0  0  0  0  0  0  0  0  0  0  0  0
  -31.7610  -14.7200   19.6140 O   0  0  0  0  0  0  0  0  0  0  0  0
  -29.9020  -15.5740   20.6050 N   0  0  0  0  0  0  0  0  0  0  0  0
  -29.0260  -15.2770   21.0090 H   0  0  0  0  0  0  0  0  0  0  0  0
  -25.2260  -13.8840   20.4490 C   0  0  0  0  0  0  0  0  0  0  0  0
  -24.1740  -13.1050   20.8520 C   0  0  0  0  0  0  0  0  0  0  0  0
  -24.6300  -11.7540   20.7680 C   0  0  0  0  0  0  0  0  0  0  0  0
  -26.2540  -13.0060   20.1450 N   0  0  0  0  0  0  0  0  0  0  0  0
  -25.9020  -11.7180   20.3940 N   0  0  0  0  0  0  0  0  0  0  0  0
  -23.9090  -10.4900   20.9680 C   0  0  0  0  0  0  0  0  0  0  0  0
  -24.3610   -9.5190   21.8890 C   0  0  0  0  0  3  0  0  0  0  0  0
  -23.6400   -8.3200   22.0770 C   0  0  0  0  0  3  0  0  0  0  0  0
  -22.4530   -8.0840   21.3430 C   0  0  0  0  0  0  0  0  0  0  0  0
  -22.0200   -9.0420   20.4110 C   0  0  0  0  0  3  0  0  0  0  0  0
  -22.7410  -10.2330   20.2230 C   0  0  0  0  0  3  0  0  0  0  0  0
  -21.7010   -6.9380   21.4400 O   0  0  0  0  0  0  0  0  0  0  0  0
  -21.6450   -6.2120   22.6030 C   0  0  0  0  0  0  0  0  0  0  0  0
  -21.1730   -6.7710   23.8100 C   0  0  0  0  0  3  0  0  0  0  0  0
  -21.0660   -5.9690   24.9630 C   0  0  0  0  0  3  0  0  0  0  0  0
  -21.4210   -4.6080   24.9100 C   0  0  0  0  0  0  0  0  0  0  0  0
  -21.8850   -4.0470   23.7070 C   0  0  0  0  0  3  0  0  0  0  0  0
  -21.9940   -4.8470   22.5560 C   0  0  0  0  0  0  0  0  0  0  0  0
  -22.4220   -4.2970   21.3940 F   0  0  0  0  0  0  0  0  0  0  0  0
  -21.3100   -3.8350   26.0160 F   0  0  0  0  0  0  0  0  0  0  0  0
  -22.7970  -13.5800   21.2130 C   0  0  0  0  0  0  0  0  0  0  0  0
  -22.1120  -12.8610   22.0960 N   0  0  0  0  0  0  0  0  0  0  0  0
  -22.3380  -14.6230   20.7480 O   0  0  0  0  0  0  0  0  0  0  0  0
  -22.4950  -12.0170   22.4920 H   0  0  0  0  0  0  0  0  0  0  0  0
  -21.1900  -13.1620   22.3790 H   0  0  0  0  0  0  0  0  0  0  0  0
  -25.3830  -15.2580   20.3010 N   0  0  0  0  0  0  0  0  0  0  0  0
  -24.6350  -15.9080   20.5160 H   0  0  0  0  0  0  0  0  0  0  0  0
  -26.2540  -15.7270   20.0830 H   0  0  0  0  0  0  0  0  0  0  0  0
  -28.2690  -25.5790   21.2120 C   0  0  0  0  0  3  0  0  0  0  0  0
  -28.5650  -24.2480   21.1270 C   0  0  0  0  0  0  0  0  0  0  0  0
  -28.3350  -23.4950   22.2180 O   0  0  0  0  0  0  0  0  0  0  0  0
  -27.9850  -24.0660   22.8890 H   0  0  0  0  0  0  0  0  0  0  0  0
  -28.3800  -26.5800   20.2610 O   0  0  0  0  0  0  0  0  0  0  0  0
  -24.5960  -31.8800   23.2430 C   0  0  0  0  0  0  0  0  0  0  0  0
  -27.2780  -27.4120   20.2030 C   0  0  0  0  0  0  0  0  0  0  0  0
  -23.4150  -30.4730   21.5880 C   0  0  0  0  0  3  0  0  0  0  0  0
  -24.8910  -28.9390   20.1770 C   0  0  0  0  0  0  0  0  0  0  0  0
  -25.9450  -30.8310   21.4230 C   0  0  0  0  0  2  0  0  0  0  0  0
  -26.0440  -29.4580   20.7820 C   0  0  0  0  0  0  0  0  0  0  0  0
  -27.2460  -28.7030   20.7920 C   0  0  0  0  0  3  0  0  0  0  0  0
  -26.1110  -26.9170   19.5890 C   0  0  0  0  0  3  0  0  0  0  0  0
  -24.9210  -27.6680   19.5760 C   0  0  0  0  0  3  0  0  0  0  0  0
  -23.6470  -29.7980   20.2090 C   0  0  0  0  0  2  0  0  0  0  0  0
  -24.6700  -31.0760   22.1420 N   0  0  0  0  0  0  0  0  0  0  0  0
  -23.5070  -32.1500   23.7680 O   0  0  0  0  0  0  0  0  0  0  0  0
  -22.7520  -29.4520   22.5400 C   0  0  0  0  0  0  0  0  0  0  0  0
  -21.4260  -29.2830   22.4090 N   0  0  0  0  0  0  0  0  0  0  0  0
  -23.4270  -28.8160   23.3530 O   0  0  0  0  0  0  0  0  0  0  0  0
  -20.9430  -29.8440   21.7230 H   0  0  0  0  0  0  0  0  0  0  0  0
  -18.0350  -28.1360   22.9200 C   0  0  0  0  0  0  0  0  0  0  0  0
  -20.6000  -28.3470   23.1730 C   0  0  0  0  0  3  0  0  0  0  0  0
  -20.6730  -26.9230   22.5730 C   0  0  0  0  0  2  0  0  0  0  0  0
  -19.5580  -26.6360   21.5640 C   0  0  0  0  0  2  0  0  0  0  0  0
  -18.1830  -26.7950   22.2220 C   0  0  0  0  0  2  0  0  0  0  0  0
  -19.1710  -28.8720   23.3530 C   0  0  0  0  0  0  0  0  0  0  0  0
  -18.9790  -30.1290   23.9650 C   0  0  0  0  0  3  0  0  0  0  0  0
  -17.6840  -30.6510   24.1480 C   0  0  0  0  0  3  0  0  0  0  0  0
  -16.5630  -29.9110   23.7310 C   0  0  0  0  0  3  0  0  0  0  0  0
  -16.7400  -28.6560   23.1230 C   0  0  0  0  0  3  0  0  0  0  0  0
  -25.8720  -32.5130   23.8780 C   0  0  0  0  0  3  0  0  0  0  0  0
  -26.3700  -31.7490   25.1660 C   0  0  1  0  0  0  0  0  0  0  0  0
  -25.2600  -31.5110   26.2160 C   0  0  0  0  0  1  0  0  0  0  0  0
  -26.9640  -30.3720   24.7880 C   0  0  0  0  0  1  0  0  0  0  0  0
  -27.5070  -32.5490   25.8430 C   0  0  0  0  0  1  0  0  0  0  0  0
  -25.5600  -33.9140   24.1930 N   0  0  0  0  0  0  0  0  0  0  0  0
  -25.9060  -34.9590   23.4300 C   0  0  0  0  0  0  0  0  0  0  0  0
  -26.5930  -34.8460   22.4100 O   0  0  0  0  0  0  0  0  0  0  0  0
  -24.9500  -34.0770   24.9810 H   0  0  0  0  0  0  0  0  0  0  0  0
  -24.1910  -36.7540   23.0250 C   0  0  0  0  0  1  0  0  0  0  0  0
  -25.4140  -36.3520   23.8670 C   0  0  0  0  0  3  0  0  0  0  0  0
  -27.5300  -37.2380   24.7420 C   0  0  0  0  0  1  0  0  0  0  0  0
  -26.4510  -37.4020   23.7700 N   0  0  0  0  0  0  0  0  0  0  0  0
  -26.0440  -38.3240   23.9020 H   0  0  0  0  0  0  0  0  0  0  0  0
  1 10  1  0
  1  3  1  0
  2  3  1  0
  2 53  1  0
  3  6  1  0
  4  1  2  0
  5  2  2  0
  7 10  2  0
  7  8  1  0
  8 11  2  0
  9 12  2  0
 10  9  1  0
 11 12  1  0
 11 22  1  0
 12 13  1  0
 14 22  1  0
 15 20  1  0
 16 17  1  0
 16 15  1  0
 18 17  1  0
 18 27  1  0
 18 19  1  0
 20 14  1  0
 20 19  1  0
 21 14  2  0
 22 23  1  0
 24 25  2  0
 25 44  1  0
 26 25  1  0
 26 29  1  0
 27 28  1  0
 27 24  1  0
 28 26  2  0
 29 30  1  0
 30 31  2  0
 32 35  1  0
 32 31  1  0
 33 32  2  0
 34 33  1  0
 34 29  2  0
 35 36  1  0
 36 37  1  0
 37 38  2  0
 39 38  1  0
 39 43  1  0
 40 39  2  0
 41 36  2  0
 41 40  1  0
 42 41  1  0
 44 45  1  0
 45 48  1  0
 45 47  1  0
 46 44  2  0
 49 24  1  0
 49 50  1  0
 51 49  1  0
 53 52  2  0
 53 54  1  0
 54 55  1  0
 56 52  1  0
 57 68  2  0
 58 56  1  0
 58 63  1  0
 59 67  1  0
 59 69  1  0
 60 66  1  0
 60 62  1  0
 61 67  1  0
 62 63  2  0
 62 61  1  0
 64 58  2  0
 65 64  1  0
 65 60  2  0
 66 59  1  0
 67 57  1  0
 69 71  2  0
 70 69  1  0
 72 70  1  0
 73 82  2  0
 73 78  1  0
 74 70  1  0
 74 78  1  0
 75 74  1  0
 76 77  1  0
 76 75  1  0
 77 73  1  0
 78 79  2  0
 79 80  1  0
 81 80  2  0
 82 81  1  0
 83 57  1  0
 83 88  1  0
 83 84  1  0
 84 87  1  1
 84 85  1  0
 86 84  1  0
 88 91  1  0
 89 93  1  0
 89 88  1  0
 90 89  2  0
 93 92  1  0
 95 93  1  0
 95 96  1  0
 95 94  1  0
M  ISO  4  14 100  22 100  52 101  56 101
M  END
>  <TORSDO>  (12) 
F 19

>  <SCORE>  (12) 
-14.799

>  <name>  (12) 
11

>  <ligand_id>  (12) 
11

>  <original_smiles>  (12) 
[H]OC(C(=O)N([H])C(=O)c1c([H])c([H])c(N([H])C(=O)N2C([H])([H])C([H])([H])C([H])([H])C([H])(n3nc(-c4c([H])c([H])c(Oc5c([H])c([H])c(F)c([H])c5F)c([H])c4[H])c(C(=O)N([H])[H])c3N([H])[H])C2([H])[H])c(F)c1[H])=C([H])Oc1c([H])c([H])c2c(c1[H])C([H])([H])N(C(=O)C([H])(N([H])C(=O)C([H])(N([H])C([H])([H])[H])C([H])([H])[H])C(C([H])([H])[H])(C([H])([H])[H])C([H])([H])[H])C([H])(C(=O)N([H])C1([H])c3c([H])c([H])c([H])c([H])c3C([H])([H])C([H])([H])C1([H])[H])C2([H])[H]

>  <smiles>  (12) 
[H]OC(C(=O)N([H])C(=O)c1c([H])c([H])c(N([H])C(=O)N2C([H])([H])C([H])([H])C([H])([H])C([H])(n3nc(-c4c([H])c([H])c(Oc5c([H])c([H])c(F)c([H])c5F)c([H])c4[H])c(C(=O)N([H])[H])c3N([H])[H])C2([H])[H])c(F)c1[H])=C([H])Oc1c([H])c([H])c2c(c1[H])C([H])([H])N(C(=O)C([H])(N([H])C(=O)C([H])(N([H])C([H])([H])[H])C([H])([H])[H])C(C([H])([H])[H])(C([H])([H])[H])C([H])([H])[H])C([H])(C(=O)N([H])C1([H])c3c([H])c([H])c([H])c([H])c3C([H])([H])C([H])([H])C1([H])[H])C2([H])[H]

$$$$
12:0:0
     RDKit          3D

 97105  0  0  1  0  0  0  0  0999 V2000
  -29.3280  -20.5870   19.6850 C   0  0  0  0  0  0  0  0  0  0  0  0
  -28.7620  -20.3630   18.5010 N   0  0  0  0  0  4  0  0  0  0  0  0
  -29.2600  -21.8370   20.2060 N   0  0  0  0  0  0  0  0  0  0  0  0
  -28.8950  -19.4680   18.0560 H   0  0  0  0  0  0  0  0  0  0  0  0
  -28.2590  -21.0730   17.9970 H   0  0  0  0  0  0  0  0  0  0  0  0
  -29.5890  -21.9340   21.1590 H   0  0  0  0  0  0  0  0  0  0  0  0
  -29.5880  -18.1230   20.2510 C   0  0  0  0  0  3  0  0  0  0  0  0
  -31.2570  -19.7360   21.0140 C   0  0  0  0  0  3  0  0  0  0  0  0
  -31.5720  -17.3480   21.4380 C   0  0  0  0  0  3  0  0  0  0  0  0
  -30.0440  -19.4720   20.3440 C   0  0  0  0  0  0  0  0  0  0  0  0
  -30.3630  -17.0460   20.7710 C   0  0  0  0  0  0  0  0  0  0  0  0
  -32.0100  -18.6820   21.5630 C   0  0  0  0  0  0  0  0  0  0  0  0
  -33.1740  -18.9520   22.1990 F   0  0  0  0  0  0  0  0  0  0  0  0
  -30.6250  -14.6460   20.1500 C   0  0  0  0  0  0  0  0  0  0  0  0
  -30.2930  -12.4990   18.9770 C   0  0  0  0  0  2  0  0  0  0  0  0
  -29.2930  -12.7080   17.8230 C   0  0  0  0  0  2  0  0  0  0  0  0
  -27.8430  -12.5420   18.3220 C   0  0  0  0  0  2  0  0  0  0  0  0
  -27.5550  -13.3540   19.6130 C   0  0  0  0  0  3  0  0  0  0  0  0
  -28.6660  -13.1380   20.6650 C   0  0  0  0  0  2  0  0  0  0  0  0
  -29.9540  -13.4670   20.0310 N   0  0  0  0  0  0  0  0  0  0  0  0
  -31.7480  -14.8190   19.6660 O   0  0  0  0  0  0  0  0  0  0  0  0
  -29.9170  -15.6850   20.6510 N   0  0  0  0  0  0  0  0  0  0  0  0
  -28.9500  -15.4950   20.8680 H   0  0  0  0  0  0  0  0  0  0  0  0
  -25.1920  -13.9200   20.4570 C   0  0  0  0  0  0  0  0  0  0  0  0
  -24.1510  -13.1290   20.8610 C   0  0  0  0  0  0  0  0  0  0  0  0
  -24.6200  -11.7830   20.7720 C   0  0  0  0  0  0  0  0  0  0  0  0
  -26.2310  -13.0540   20.1520 N   0  0  0  0  0  0  0  0  0  0  0  0
  -25.8930  -11.7630   20.4000 N   0  0  0  0  0  0  0  0  0  0  0  0
  -23.9130  -10.5090   20.9650 C   0  0  0  0  0  0  0  0  0  0  0  0
  -24.3740   -9.5420   21.8840 C   0  0  0  0  0  3  0  0  0  0  0  0
  -23.6670   -8.3340   22.0670 C   0  0  0  0  0  3  0  0  0  0  0  0
  -22.4860   -8.0840   21.3290 C   0  0  0  0  0  0  0  0  0  0  0  0
  -22.0440   -9.0400   20.3980 C   0  0  0  0  0  3  0  0  0  0  0  0
  -22.7510  -10.2400   20.2130 C   0  0  0  0  0  3  0  0  0  0  0  0
  -21.7490   -6.9270   21.4200 O   0  0  0  0  0  0  0  0  0  0  0  0
  -21.6980   -6.1960   22.5790 C   0  0  0  0  0  0  0  0  0  0  0  0
  -21.2010   -6.7410   23.7840 C   0  0  0  0  0  3  0  0  0  0  0  0
  -21.1030   -5.9320   24.9340 C   0  0  0  0  0  3  0  0  0  0  0  0
  -21.4920   -4.5810   24.8810 C   0  0  0  0  0  0  0  0  0  0  0  0
  -21.9830   -4.0360   23.6820 C   0  0  0  0  0  3  0  0  0  0  0  0
  -22.0830   -4.8410   22.5340 C   0  0  0  0  0  0  0  0  0  0  0  0
  -22.5360   -4.3040   21.3750 F   0  0  0  0  0  0  0  0  0  0  0  0
  -21.3890   -3.8020   25.9830 F   0  0  0  0  0  0  0  0  0  0  0  0
  -22.7660  -13.5870   21.2150 C   0  0  0  0  0  0  0  0  0  0  0  0
  -22.0820  -12.8530   22.0850 N   0  0  0  0  0  0  0  0  0  0  0  0
  -22.3010  -14.6300   20.7550 O   0  0  0  0  0  0  0  0  0  0  0  0
  -22.4720  -12.0080   22.4780 H   0  0  0  0  0  0  0  0  0  0  0  0
  -21.1530  -13.1370   22.3640 H   0  0  0  0  0  0  0  0  0  0  0  0
  -25.3380  -15.2960   20.3030 N   0  0  0  0  0  0  0  0  0  0  0  0
  -24.5660  -15.9360   20.4530 H   0  0  0  0  0  0  0  0  0  0  0  0
  -26.1530  -15.7450   19.9060 H   0  0  0  0  0  0  0  0  0  0  0  0
  -28.6140  -23.0430   19.5890 C   0  0  0  0  0  3  0  0  0  0  0  0
  -29.0060  -24.4260   20.2050 C   0  0  0  0  0  3  0  0  0  0  0  0
  -28.5410  -25.6650   19.3970 C   0  0  0  0  0  0  0  0  0  0  0  0
  -28.4370  -25.6920   18.1330 N   0  0  0  0  0  0  0  0  0  0  0  0
  -28.6780  -24.8110   17.6990 H   0  0  0  0  0  0  0  0  0  0  0  0
  -28.3060  -26.7890   20.1770 O   0  0  0  0  0  0  0  0  0  0  0  0
  -24.5290  -31.9840   23.2630 C   0  0  0  0  0  0  0  0  0  0  0  0
  -27.1310  -27.5330   20.1190 C   0  0  0  0  0  0  0  0  0  0  0  0
  -23.2970  -30.5860   21.6380 C   0  0  0  0  0  3  0  0  0  0  0  0
  -24.7290  -29.0570   20.1800 C   0  0  0  0  0  0  0  0  0  0  0  0
  -25.8220  -30.9440   21.4000 C   0  0  0  0  0  2  0  0  0  0  0  0
  -25.8980  -29.5760   20.7480 C   0  0  0  0  0  0  0  0  0  0  0  0
  -27.0980  -28.8220   20.7140 C   0  0  0  0  0  3  0  0  0  0  0  0
  -25.9280  -27.0300   19.5650 C   0  0  0  0  0  3  0  0  0  0  0  0
  -24.7410  -27.7840   19.5860 C   0  0  0  0  0  3  0  0  0  0  0  0
  -23.4830  -29.9120   20.2520 C   0  0  0  0  0  2  0  0  0  0  0  0
  -24.5680  -31.1870   22.1570 N   0  0  0  0  0  0  0  0  0  0  0  0
  -23.4570  -32.2540   23.8230 O   0  0  0  0  0  0  0  0  0  0  0  0
  -22.6630  -29.5610   22.6060 C   0  0  0  0  0  0  0  0  0  0  0  0
  -21.3440  -29.3490   22.4750 N   0  0  0  0  0  0  0  0  0  0  0  0
  -23.3560  -28.9600   23.4310 O   0  0  0  0  0  0  0  0  0  0  0  0
  -20.8450  -29.8840   21.7780 H   0  0  0  0  0  0  0  0  0  0  0  0
  -17.9970  -28.0760   22.9640 C   0  0  0  0  0  0  0  0  0  0  0  0
  -20.5460  -28.4020   23.2510 C   0  0  0  0  0  3  0  0  0  0  0  0
  -20.6890  -26.9670   22.6940 C   0  0  0  0  0  2  0  0  0  0  0  0
  -19.6030  -26.6020   21.6760 C   0  0  0  0  0  2  0  0  0  0  0  0
  -18.2130  -26.7230   22.3070 C   0  0  0  0  0  2  0  0  0  0  0  0
  -19.0930  -28.8720   23.3920 C   0  0  0  0  0  0  0  0  0  0  0  0
  -18.8400  -30.1380   23.9630 C   0  0  0  0  0  3  0  0  0  0  0  0
  -17.5220  -30.6090   24.1130 C   0  0  0  0  0  3  0  0  0  0  0  0
  -16.4400  -29.8110   23.7020 C   0  0  0  0  0  3  0  0  0  0  0  0
  -16.6780  -28.5470   23.1320 C   0  0  0  0  0  3  0  0  0  0  0  0
  -25.8240  -32.6170   23.8610 C   0  0  0  0  0  3  0  0  0  0  0  0
  -26.3590  -31.8520   25.1340 C   0  0  1  0  0  0  0  0  0  0  0  0
  -25.2790  -31.6020   26.2100 C   0  0  0  0  0  1  0  0  0  0  0  0
  -26.9570  -30.4820   24.7370 C   0  0  0  0  0  1  0  0  0  0  0  0
  -27.5050  -32.6610   25.7870 C   0  0  0  0  0  1  0  0  0  0  0  0
  -25.5220  -34.0170   24.1880 N   0  0  0  0  0  0  0  0  0  0  0  0
  -25.8570  -35.0650   23.4250 C   0  0  0  0  0  0  0  0  0  0  0  0
  -26.5230  -34.9570   22.3910 O   0  0  0  0  0  0  0  0  0  0  0  0
  -24.9330  -34.1790   24.9920 H   0  0  0  0  0  0  0  0  0  0  0  0
  -24.1490  -36.8740   23.0520 C   0  0  0  0  0  1  0  0  0  0  0  0
  -25.3740  -36.4560   23.8800 C   0  0  0  0  0  3  0  0  0  0  0  0
  -27.4980  -37.3260   24.7520 C   0  0  0  0  0  1  0  0  0  0  0  0
  -26.4170  -37.5010   23.7850 N   0  0  0  0  0  0  0  0  0  0  0  0
  -26.0160  -38.4250   23.9220 H   0  0  0  0  0  0  0  0  0  0  0  0
  1  3  1  0
  1 10  1  0
  2  1  2  0
  3  6  1  0
  4  2  1  0
  5  2  1  0
  7 10  2  0
  7 11  1  0
  8 12  2  0
  9 12  1  0
 10  8  1  0
 11  9  2  0
 12 13  1  0
 14 22  1  0
 15 20  1  0
 16 17  1  0
 16 15  1  0
 18 17  1  0
 18 27  1  0
 18 19  1  0
 20 14  1  0
 20 19  1  0
 21 14  2  0
 22 11  1  0
 22 23  1  0
 24 25  2  0
 25 44  1  0
 26 25  1  0
 26 29  1  0
 27 28  1  0
 27 24  1  0
 28 26  2  0
 29 30  1  0
 30 31  2  0
 32 35  1  0
 32 31  1  0
 33 32  2  0
 34 33  1  0
 34 29  2  0
 35 36  1  0
 36 37  1  0
 37 38  2  0
 39 38  1  0
 39 43  1  0
 40 39  2  0
 41 36  2  0
 41 40  1  0
 42 41  1  0
 44 45  1  0
 45 48  1  0
 45 47  1  0
 46 44  2  0
 49 50  1  0
 49 24  1  0
 51 49  1  0
 52 53  2  0
 52  3  1  0
 54 57  1  0
 54 53  1  0
 55 54  2  0
 56 55  1  0
 58 69  2  0
 59 57  1  0
 59 64  1  0
 60 68  1  0
 60 70  1  0
 61 67  1  0
 61 63  1  0
 62 68  1  0
 63 62  1  0
 64 63  2  0
 65 66  1  0
 65 59  2  0
 66 61  2  0
 67 60  1  0
 68 58  1  0
 70 72  2  0
 71 70  1  0
 73 71  1  0
 74 83  2  0
 74 79  1  0
 75 71  1  0
 75 79  1  0
 76 75  1  0
 77 78  1  0
 77 76  1  0
 78 74  1  0
 79 80  2  0
 80 81  1  0
 82 81  2  0
 83 82  1  0
 84 58  1  0
 84 89  1  0
 84 85  1  0
 85 88  1  1
 85 86  1  0
 87 85  1  0
 89 92  1  0
 90 94  1  0
 90 89  1  0
 91 90  2  0
 94 93  1  0
 96 94  1  0
 96 97  1  0
 96 95  1  0
M  ISO  4  14 100  22 100  54 101  57 101
M  END
>  <TORSDO>  (13) 
F 20

>  <SCORE>  (13) 
-13.750

>  <name>  (13) 
12

>  <ligand_id>  (13) 
12

>  <original_smiles>  (13) 
[H]N=C(Oc1c([H])c([H])c2c(c1[H])C([H])([H])N(C(=O)C([H])(N([H])C(=O)C([H])(N([H])C([H])([H])[H])C([H])([H])[H])C(C([H])([H])[H])(C([H])([H])[H])C([H])([H])[H])C([H])(C(=O)N([H])C1([H])c3c([H])c([H])c([H])c([H])c3C([H])([H])C([H])([H])C1([H])[H])C2([H])[H])C([H])([H])C([H])([H])[N+]([H])=C(c1c([H])c(F)c([H])c(N([H])C(=O)N2C([H])([H])C([H])([H])C([H])([H])C([H])(n3nc(-c4c([H])c([H])c(Oc5c([H])c([H])c(F)c([H])c5F)c([H])c4[H])c(C(=O)N([H])[H])c3N([H])[H])C2([H])[H])c1[H])N([H])[H]

>  <smiles>  (13) 
[H]N=C(Oc1c([H])c([H])c2c(c1[H])C([H])([H])N(C(=O)C([H])(N([H])C(=O)C([H])(N([H])C([H])([H])[H])C([H])([H])[H])C(C([H])([H])[H])(C([H])([H])[H])C([H])([H])[H])C([H])(C(=O)N([H])C1([H])c3c([H])c([H])c([H])c([H])c3C([H])([H])C([H])([H])C1([H])[H])C2([H])[H])C([H])([H])C([H])([H])[N+]([H])=C(c1c([H])c(F)c([H])c(N([H])C(=O)N2C([H])([H])C([H])([H])C([H])([H])C([H])(n3nc(-c4c([H])c([H])c(Oc5c([H])c([H])c(F)c([H])c5F)c([H])c4[H])c(C(=O)N([H])[H])c3N([H])[H])C2([H])[H])c1[H])N([H])[H]

$$$$
13:0:0
     RDKit          3D

102112  0  0  1  0  0  0  0  0999 V2000
  -27.5560  -21.0350   20.1920 C   0  0  0  0  0  3  0  0  0  0  0  0
  -27.2130  -19.7100   20.5000 C   0  0  0  0  0  3  0  0  0  0  0  0
  -29.3540  -15.2830   19.8080 C   0  0  0  0  0  3  0  0  0  0  0  0
  -30.5090  -14.8280   19.1490 C   0  0  0  0  0  3  0  0  0  0  0  0
  -29.5770  -20.2610   19.0570 C   0  0  0  0  0  3  0  0  0  0  0  0
  -30.9210  -17.0910   18.3360 C   0  0  0  0  0  3  0  0  0  0  0  0
  -29.2440  -18.9050   19.3440 C   0  0  0  0  0  0  0  0  0  0  0  0
  -29.8120  -17.5950   19.0650 C   0  0  0  0  0  0  0  0  0  0  0  0
  -28.7490  -21.3250   19.4980 C   0  0  0  0  0  0  0  0  0  0  0  0
  -28.0560  -18.6610   20.0980 C   0  0  0  0  0  0  0  0  0  0  0  0
  -29.0060  -16.6450   19.7640 C   0  0  0  0  0  0  0  0  0  0  0  0
  -31.2560  -15.7130   18.3420 C   0  0  0  0  0  0  0  0  0  0  0  0
  -27.9290  -17.3020   20.3400 N   0  0  0  0  0  0  0  0  0  0  0  0
  -27.1920  -16.8680   20.8850 H   0  0  0  0  0  0  0  0  0  0  0  0
  -33.3870  -14.3150   17.8750 C   0  0  0  0  0  0  0  0  0  0  0  0
  -34.2960  -12.2050   18.7780 C   0  0  0  0  0  2  0  0  0  0  0  0
  -33.5130  -10.9840   18.2470 C   0  0  0  0  0  2  0  0  0  0  0  0
  -32.3020  -10.6790   19.1480 C   0  0  0  0  0  2  0  0  0  0  0  0
  -31.4620  -11.9460   19.4600 C   0  0  0  0  0  3  0  0  0  0  0  0
  -32.3750  -13.1020   19.9090 C   0  0  0  0  0  2  0  0  0  0  0  0
  -33.3700  -13.3580   18.8570 N   0  0  0  0  0  0  0  0  0  0  0  0
  -34.2380  -14.2930   16.9840 O   0  0  0  0  0  0  0  0  0  0  0  0
  -32.4890  -15.3200   17.7590 N   0  0  0  0  0  0  0  0  0  0  0  0
  -32.6940  -15.8310   16.9120 H   0  0  0  0  0  0  0  0  0  0  0  0
  -30.2460  -12.2130   21.7130 C   0  0  0  0  0  0  0  0  0  0  0  0
  -29.0860  -11.6700   22.1960 C   0  0  0  0  0  0  0  0  0  0  0  0
  -28.5970  -10.8040   21.1690 C   0  0  0  0  0  0  0  0  0  0  0  0
  -30.4230  -11.6690   20.4490 N   0  0  0  0  0  0  0  0  0  0  0  0
  -29.4460  -10.7740   20.1520 N   0  0  0  0  0  0  0  0  0  0  0  0
  -27.3440  -10.0440   21.0740 C   0  0  0  0  0  0  0  0  0  0  0  0
  -27.1720   -8.8130   21.7450 C   0  0  0  0  0  3  0  0  0  0  0  0
  -25.9480   -8.1140   21.6560 C   0  0  0  0  0  3  0  0  0  0  0  0
  -24.8830   -8.6470   20.8930 C   0  0  0  0  0  0  0  0  0  0  0  0
  -25.0680   -9.8580   20.2060 C   0  0  0  0  0  3  0  0  0  0  0  0
  -26.2860  -10.5510   20.2920 C   0  0  0  0  0  3  0  0  0  0  0  0
  -23.6670   -8.0320   20.7280 O   0  0  0  0  0  0  0  0  0  0  0  0
  -22.8020   -7.8580   21.7790 C   0  0  0  0  0  0  0  0  0  0  0  0
  -22.2190   -8.9520   22.4580 C   0  0  0  0  0  3  0  0  0  0  0  0
  -21.2840   -8.7250   23.4860 C   0  0  0  0  0  3  0  0  0  0  0  0
  -20.9190   -7.4090   23.8290 C   0  0  0  0  0  0  0  0  0  0  0  0
  -21.4940   -6.3180   23.1530 C   0  0  0  0  0  3  0  0  0  0  0  0
  -22.4320   -6.5430   22.1290 C   0  0  0  0  0  0  0  0  0  0  0  0
  -22.9680   -5.4920   21.4650 F   0  0  0  0  0  0  0  0  0  0  0  0
  -20.0120   -7.1900   24.8070 F   0  0  0  0  0  0  0  0  0  0  0  0
  -28.4080  -12.0040   23.4940 C   0  0  0  0  0  0  0  0  0  0  0  0
  -27.9190  -11.0000   24.2140 N   0  0  0  0  0  0  0  0  0  0  0  0
  -28.3440  -13.1650   23.8990 O   0  0  0  0  0  0  0  0  0  0  0  0
  -27.4600  -11.1970   25.0920 H   0  0  0  0  0  0  0  0  0  0  0  0
  -27.9910  -10.0420   23.9030 H   0  0  0  0  0  0  0  0  0  0  0  0
  -31.1550  -13.1350   22.2280 N   0  0  0  0  0  0  0  0  0  0  0  0
  -31.0250  -13.5830   23.1300 H   0  0  0  0  0  0  0  0  0  0  0  0
  -31.9970  -13.4350   21.7530 H   0  0  0  0  0  0  0  0  0  0  0  0
  -29.0690  -22.7640   19.2160 C   0  0  0  0  0  0  0  0  0  0  0  0
  -30.2400  -23.2340   19.6780 N   0  0  0  0  0  0  0  0  0  0  0  0
  -28.2220  -23.4850   18.6840 O   0  0  0  0  0  0  0  0  0  0  0  0
  -30.8480  -22.5710   20.1400 H   0  0  0  0  0  0  0  0  0  0  0  0
  -30.5010  -24.6690   19.8850 C   0  0  0  0  0  2  0  0  0  0  0  0
  -31.5280  -25.3800   18.9400 C   0  0  0  0  0  3  0  0  0  0  0  0
  -32.0640  -24.6560   17.6770 C   0  0  0  0  0  0  0  0  0  0  0  0
  -31.7460  -23.1840   17.4440 C   0  0  0  0  0  1  0  0  0  0  0  0
  -32.7520  -25.2640   16.8510 O   0  0  0  0  0  0  0  0  0  0  0  0
  -31.1150  -26.7300   18.6110 O   0  0  0  0  0  0  0  0  0  0  0  0
  -26.4380  -28.8990   23.5040 C   0  0  0  0  0  0  0  0  0  0  0  0
  -29.8080  -27.1270   18.8410 C   0  0  0  0  0  0  0  0  0  0  0  0
  -25.4780  -28.2390   21.3230 C   0  0  0  0  0  3  0  0  0  0  0  0
  -27.1520  -27.9160   19.4290 C   0  0  0  0  0  0  0  0  0  0  0  0
  -27.8610  -29.1630   21.4750 C   0  0  0  0  0  2  0  0  0  0  0  0
  -28.2020  -28.3170   20.2650 C   0  0  0  0  0  0  0  0  0  0  0  0
  -29.5300  -27.9310   19.9730 C   0  0  0  0  0  3  0  0  0  0  0  0
  -28.7330  -26.7560   18.0000 C   0  0  0  0  0  3  0  0  0  0  0  0
  -27.4130  -27.1360   18.2930 C   0  0  0  0  0  3  0  0  0  0  0  0
  -25.7590  -28.3650   19.8020 C   0  0  0  0  0  2  0  0  0  0  0  0
  -26.6100  -28.7560   22.1600 N   0  0  0  0  0  0  0  0  0  0  0  0
  -25.3510  -28.6490   24.0420 O   0  0  0  0  0  0  0  0  0  0  0  0
  -25.1070  -26.7720   21.6360 C   0  0  0  0  0  0  0  0  0  0  0  0
  -24.1260  -26.2330   20.8940 N   0  0  0  0  0  0  0  0  0  0  0  0
  -25.7120  -26.1390   22.5060 O   0  0  0  0  0  0  0  0  0  0  0  0
  -23.6760  -26.8220   20.2080 H   0  0  0  0  0  0  0  0  0  0  0  0
  -22.0490  -23.7700   19.2590 C   0  0  0  0  0  0  0  0  0  0  0  0
  -23.6350  -24.8580   20.9860 C   0  0  0  0  0  3  0  0  0  0  0  0
  -24.6990  -23.8510   20.4900 C   0  0  0  0  0  2  0  0  0  0  0  0
  -24.5520  -23.4980   19.0060 C   0  0  0  0  0  2  0  0  0  0  0  0
  -23.1720  -22.8920   18.7320 C   0  0  0  0  0  2  0  0  0  0  0  0
  -22.2700  -24.7040   20.3060 C   0  0  0  0  0  0  0  0  0  0  0  0
  -21.2000  -25.5190   20.7330 C   0  0  0  0  0  3  0  0  0  0  0  0
  -19.9300  -25.4130   20.1360 C   0  0  0  0  0  3  0  0  0  0  0  0
  -19.7130  -24.4760   19.1100 C   0  0  0  0  0  3  0  0  0  0  0  0
  -20.7690  -23.6540   18.6780 C   0  0  0  0  0  3  0  0  0  0  0  0
  -27.5900  -29.4070   24.4270 C   0  0  0  0  0  3  0  0  0  0  0  0
  -28.0720  -28.3280   25.4720 C   0  0  1  0  0  0  0  0  0  0  0  0
  -26.9220  -27.6920   26.2850 C   0  0  0  0  0  1  0  0  0  0  0  0
  -28.8380  -27.1870   24.7600 C   0  0  0  0  0  1  0  0  0  0  0  0
  -29.0630  -28.9710   26.4710 C   0  0  0  0  0  1  0  0  0  0  0  0
  -27.1100  -30.6150   25.1110 N   0  0  0  0  0  0  0  0  0  0  0  0
  -27.4100  -31.8660   24.7420 C   0  0  0  0  0  0  0  0  0  0  0  0
  -28.1900  -32.1260   23.8210 O   0  0  0  0  0  0  0  0  0  0  0  0
  -26.4280  -30.4800   25.8430 H   0  0  0  0  0  0  0  0  0  0  0  0
  -25.5500  -33.5580   24.7060 C   0  0  0  0  0  1  0  0  0  0  0  0
  -26.7370  -33.0150   25.5180 C   0  0  0  0  0  3  0  0  0  0  0  0
  -28.6570  -33.7610   26.8540 C   0  0  0  0  0  1  0  0  0  0  0  0
  -27.6610  -34.1210   25.8480 N   0  0  0  0  0  0  0  0  0  0  0  0
  -27.1480  -34.9320   26.1850 H   0  0  0  0  0  0  0  0  0  0  0  0
  1  2  1  0
  4  3  2  0
  5  7  2  0
  5  9  1  0
  6 12  2  0
  6  8  1  0
  7 10  1  0
  8  7  1  0
  8 11  2  0
  9  1  2  0
 10 13  1  0
 10  2  2  0
 11  3  1  0
 11 13  1  0
 12  4  1  0
 13 14  1  0
 15 21  1  0
 16 21  1  0
 17 16  1  0
 17 18  1  0
 19 18  1  0
 19 20  1  0
 19 28  1  0
 21 20  1  0
 22 15  2  0
 23 15  1  0
 23 12  1  0
 24 23  1  0
 25 26  2  0
 25 50  1  0
 26 45  1  0
 27 26  1  0
 28 25  1  0
 29 28  1  0
 29 27  2  0
 30 27  1  0
 30 31  1  0
 32 31  2  0
 33 32  1  0
 34 35  1  0
 34 33  2  0
 35 30  2  0
 36 33  1  0
 36 37  1  0
 37 42  2  0
 37 38  1  0
 38 39  2  0
 39 40  1  0
 40 44  1  0
 41 40  2  0
 42 41  1  0
 43 42  1  0
 45 47  2  0
 45 46  1  0
 46 48  1  0
 49 46  1  0
 50 51  1  0
 52 50  1  0
 53  9  1  0
 53 54  1  0
 54 57  1  0
 54 56  1  0
 55 53  2  0
 58 57  1  0
 59 58  1  0
 60 59  1  0
 61 59  2  0
 62 64  1  0
 62 58  1  0
 63 74  2  0
 64 69  1  0
 65 75  1  0
 65 73  1  0
 66 72  1  0
 66 68  1  0
 67 73  1  0
 68 67  1  0
 69 68  2  0
 70 71  1  0
 70 64  2  0
 71 66  2  0
 72 65  1  0
 73 63  1  0
 75 77  2  0
 76 75  1  0
 78 76  1  0
 79 84  1  0
 80 76  1  0
 81 80  1  0
 82 81  1  0
 83 82  1  0
 83 79  1  0
 84 85  2  0
 84 80  1  0
 86 85  1  0
 87 86  2  0
 88 87  1  0
 88 79  2  0
 89 63  1  0
 89 94  1  0
 89 90  1  0
 90 91  1  1
 90 93  1  0
 92 90  1  0
 94 97  1  0
 95 94  1  0
 95 99  1  0
 96 95  2  0
 99 98  1  0
 99101  1  0
101102  1  0
101100  1  0
M  ISO  4  15 100  23 100  58 101  62 101
M  END
>  <TORSDO>  (14) 
F 20

>  <SCORE>  (14) 
-0.298

>  <name>  (14) 
13

>  <ligand_id>  (14) 
13

>  <original_smiles>  (14) 
[H]c1c([H])c([H])c2c(c1[H])C([H])([H])C([H])([H])C([H])([H])C2([H])N([H])C(=O)C1([H])N(C(=O)C([H])(N([H])C(=O)C([H])(N([H])C([H])([H])[H])C([H])([H])[H])C(C([H])([H])[H])(C([H])([H])[H])C([H])([H])[H])C([H])([H])c2c([H])c(OC([H])(C(=O)C([H])([H])[H])C([H])([H])N([H])C(=O)c3c([H])c([H])c4c(c3[H])c3c([H])c(N([H])C(=O)N5C([H])([H])C([H])([H])C([H])([H])C([H])(n6nc(-c7c([H])c([H])c(Oc8c([H])c([H])c(F)c([H])c8F)c([H])c7[H])c(C(=O)N([H])[H])c6N([H])[H])C5([H])[H])c([H])c([H])c3n4[H])c([H])c([H])c2C1([H])[H]

>  <smiles>  (14) 
[H]c1c([H])c([H])c2c(c1[H])C([H])([H])C([H])([H])C([H])([H])C2([H])N([H])C(=O)C1([H])N(C(=O)C([H])(N([H])C(=O)C([H])(N([H])C([H])([H])[H])C([H])([H])[H])C(C([H])([H])[H])(C([H])([H])[H])C([H])([H])[H])C([H])([H])c2c([H])c(OC([H])(C(=O)C([H])([H])[H])C([H])([H])N([H])C(=O)c3c([H])c([H])c4c(c3[H])c3c([H])c(N([H])C(=O)N5C([H])([H])C([H])([H])C([H])([H])C([H])(n6nc(-c7c([H])c([H])c(Oc8c([H])c([H])c(F)c([H])c8F)c([H])c7[H])c(C(=O)N([H])[H])c6N([H])[H])C5([H])[H])c([H])c([H])c3n4[H])c([H])c([H])c2C1([H])[H]

$$$$
14:0:0
     RDKit          3D

 95104  0  0  1  0  0  0  0  0999 V2000
  -27.4420  -20.5560   20.9270 C   0  0  0  0  0  3  0  0  0  0  0  0
  -27.4060  -21.9470   20.6610 C   0  0  0  0  0  3  0  0  0  0  0  0
  -28.8930  -18.3600   20.9720 C   0  0  0  0  0  3  0  0  0  0  0  0
  -29.7450  -21.8700   20.0230 C   0  0  0  0  0  3  0  0  0  0  0  0
  -28.6150  -19.7760   20.7580 C   0  0  0  0  0  0  0  0  0  0  0  0
  -28.5610  -22.6150   20.2010 C   0  0  0  0  0  0  0  0  0  0  0  0
  -29.7680  -20.4900   20.3030 C   0  0  0  0  0  0  0  0  0  0  0  0
  -30.2150  -18.0520   20.7170 C   0  0  0  0  0  0  0  0  0  0  0  0
  -31.1500  -19.4240   20.1820 S   0  0  0  0  0  0  0  0  0  0  0  0
  -31.1010  -14.6130   19.9270 C   0  0  0  0  0  0  0  0  0  0  0  0
  -30.6960  -12.4720   18.7620 C   0  0  0  0  0  2  0  0  0  0  0  0
  -29.6710  -12.6690   17.6290 C   0  0  0  0  0  2  0  0  0  0  0  0
  -28.2360  -12.5190   18.1740 C   0  0  0  0  0  2  0  0  0  0  0  0
  -27.9920  -13.3670   19.4510 C   0  0  0  0  0  3  0  0  0  0  0  0
  -29.1220  -13.1530   20.4810 C   0  0  0  0  0  2  0  0  0  0  0  0
  -30.3940  -13.4590   19.8110 N   0  0  0  0  0  0  0  0  0  0  0  0
  -32.1910  -14.7540   19.3610 O   0  0  0  0  0  0  0  0  0  0  0  0
  -31.0360  -16.8160   20.8400 C   0  0  0  0  0  0  0  0  0  0  0  0
  -30.4640  -15.6360   20.5390 N   0  0  0  0  0  0  0  0  0  0  0  0
  -32.2260  -16.9260   21.1640 O   0  0  0  0  0  0  0  0  0  0  0  0
  -29.4690  -15.5580   20.6600 H   0  0  0  0  0  0  0  0  0  0  0  0
  -25.6790  -13.9840   20.3880 C   0  0  0  0  0  0  0  0  0  0  0  0
  -24.6320  -13.2130   20.8130 C   0  0  0  0  0  0  0  0  0  0  0  0
  -25.0620  -11.8560   20.6840 C   0  0  0  0  0  0  0  0  0  0  0  0
  -26.6820  -13.0970   20.0300 N   0  0  0  0  0  0  0  0  0  0  0  0
  -26.3200  -11.8100   20.2650 N   0  0  0  0  0  0  0  0  0  0  0  0
  -24.3330  -10.5980   20.8790 C   0  0  0  0  0  0  0  0  0  0  0  0
  -24.7430   -9.6490   21.8430 C   0  0  0  0  0  3  0  0  0  0  0  0
  -24.0170   -8.4520   22.0230 C   0  0  0  0  0  3  0  0  0  0  0  0
  -22.8660   -8.1970   21.2400 C   0  0  0  0  0  0  0  0  0  0  0  0
  -22.4770   -9.1320   20.2640 C   0  0  0  0  0  3  0  0  0  0  0  0
  -23.2040  -10.3210   20.0830 C   0  0  0  0  0  3  0  0  0  0  0  0
  -22.1110   -7.0530   21.3280 O   0  0  0  0  0  0  0  0  0  0  0  0
  -21.9210   -6.4070   22.5230 C   0  0  0  0  0  0  0  0  0  0  0  0
  -21.3170   -7.0470   23.6290 C   0  0  0  0  0  3  0  0  0  0  0  0
  -21.0780   -6.3260   24.8150 C   0  0  0  0  0  3  0  0  0  0  0  0
  -21.4290   -4.9650   24.8950 C   0  0  0  0  0  0  0  0  0  0  0  0
  -22.0240   -4.3240   23.7950 C   0  0  0  0  0  3  0  0  0  0  0  0
  -22.2660   -5.0440   22.6110 C   0  0  0  0  0  0  0  0  0  0  0  0
  -22.8210   -4.4160   21.5460 F   0  0  0  0  0  0  0  0  0  0  0  0
  -21.1920   -4.2700   26.0330 F   0  0  0  0  0  0  0  0  0  0  0  0
  -23.2710  -13.6960   21.2230 C   0  0  0  0  0  0  0  0  0  0  0  0
  -22.6080  -12.9750   22.1190 N   0  0  0  0  0  0  0  0  0  0  0  0
  -22.8080  -14.7470   20.7810 O   0  0  0  0  0  0  0  0  0  0  0  0
  -22.9980  -12.1230   22.4940 H   0  0  0  0  0  0  0  0  0  0  0  0
  -21.6970  -13.2780   22.4330 H   0  0  0  0  0  0  0  0  0  0  0  0
  -25.8590  -15.3590   20.2560 N   0  0  0  0  0  0  0  0  0  0  0  0
  -25.1100  -16.0180   20.4390 H   0  0  0  0  0  0  0  0  0  0  0  0
  -26.6700  -15.7910   19.8330 H   0  0  0  0  0  0  0  0  0  0  0  0
  -28.7880  -24.6230   18.7940 C   0  0  0  0  0  0  0  0  0  0  0  0
  -28.5630  -24.0270   19.9810 N   0  0  0  0  0  0  0  0  0  0  0  0
  -28.8080  -23.9750   17.7430 O   0  0  0  0  0  0  0  0  0  0  0  0
  -28.4660  -24.6340   20.7850 H   0  0  0  0  0  0  0  0  0  0  0  0
  -29.0350  -26.1520   18.7190 C   0  0  0  0  0  2  0  0  0  0  0  0
  -28.6820  -26.8880   19.9020 O   0  0  0  0  0  0  0  0  0  0  0  0
  -24.7090  -31.7850   23.2160 C   0  0  0  0  0  0  0  0  0  0  0  0
  -27.4960  -27.5940   19.9010 C   0  0  0  0  0  0  0  0  0  0  0  0
  -23.5540  -30.4530   21.4800 C   0  0  0  0  0  3  0  0  0  0  0  0
  -25.0600  -29.0380   19.9780 C   0  0  0  0  0  0  0  0  0  0  0  0
  -26.0720  -30.8800   21.3320 C   0  0  0  0  0  2  0  0  0  0  0  0
  -26.1970  -29.5510   20.6140 C   0  0  0  0  0  0  0  0  0  0  0  0
  -27.4130  -28.8290   20.5840 C   0  0  0  0  0  3  0  0  0  0  0  0
  -26.3400  -27.0930   19.2640 C   0  0  0  0  0  3  0  0  0  0  0  0
  -25.1260  -27.8040   19.3050 C   0  0  0  0  0  3  0  0  0  0  0  0
  -23.7920  -29.8620   20.0630 C   0  0  0  0  0  2  0  0  0  0  0  0
  -24.7950  -31.0510   22.0680 N   0  0  0  0  0  0  0  0  0  0  0  0
  -23.6160  -31.9970   23.7590 O   0  0  0  0  0  0  0  0  0  0  0  0
  -22.9210  -29.3620   22.3700 C   0  0  0  0  0  0  0  0  0  0  0  0
  -21.6020  -29.1570   22.2190 N   0  0  0  0  0  0  0  0  0  0  0  0
  -23.6120  -28.7050   23.1520 O   0  0  0  0  0  0  0  0  0  0  0  0
  -21.1040  -29.7420   21.5640 H   0  0  0  0  0  0  0  0  0  0  0  0
  -18.2530  -27.8650   22.6220 C   0  0  0  0  0  0  0  0  0  0  0  0
  -20.8020  -28.1550   22.9230 C   0  0  0  0  0  3  0  0  0  0  0  0
  -20.9350  -26.7660   22.2550 C   0  0  0  0  0  2  0  0  0  0  0  0
  -19.8430  -26.4900   21.2150 C   0  0  0  0  0  2  0  0  0  0  0  0
  -18.4560  -26.5670   21.8590 C   0  0  0  0  0  2  0  0  0  0  0  0
  -19.3530  -28.6200   23.1060 C   0  0  0  0  0  0  0  0  0  0  0  0
  -19.1070  -29.8400   23.7710 C   0  0  0  0  0  3  0  0  0  0  0  0
  -17.7920  -30.3050   23.9590 C   0  0  0  0  0  3  0  0  0  0  0  0
  -16.7060  -29.5460   23.4920 C   0  0  0  0  0  3  0  0  0  0  0  0
  -16.9370  -28.3260   22.8320 C   0  0  0  0  0  3  0  0  0  0  0  0
  -25.9740  -32.4120   23.8840 C   0  0  0  0  0  3  0  0  0  0  0  0
  -25.6280  -33.7810   24.2900 N   0  0  0  0  0  0  0  0  0  0  0  0
  -25.9370  -34.8830   23.5940 C   0  0  0  0  0  0  0  0  0  0  0  0
  -26.6190  -34.8560   22.5660 O   0  0  0  0  0  0  0  0  0  0  0  0
  -25.0290  -33.8750   25.0960 H   0  0  0  0  0  0  0  0  0  0  0  0
  -24.1640  -36.6480   23.3210 C   0  0  0  0  0  1  0  0  0  0  0  0
  -25.4070  -36.2300   24.1240 C   0  0  0  0  0  3  0  0  0  0  0  0
  -27.5040  -37.1230   25.0350 C   0  0  0  0  0  1  0  0  0  0  0  0
  -26.4090  -37.3160   24.0880 N   0  0  0  0  0  0  0  0  0  0  0  0
  -25.9750  -38.2140   24.2840 H   0  0  0  0  0  0  0  0  0  0  0  0
  -26.5030  -31.5790   25.1170 C   0  0  1  0  0  0  0  0  0  0  0  0
  -25.4120  -31.2480   26.1610 C   0  0  0  0  0  1  0  0  0  0  0  0
  -27.1310  -30.2440   24.6510 C   0  0  0  0  0  1  0  0  0  0  0  0
  -27.6220  -32.3690   25.8400 C   0  0  0  0  0  1  0  0  0  0  0  0
  2  1  2  0
  4  6  2  0
  4  7  1  0
  5  1  1  0
  5  3  1  0
  6  2  1  0
  7  5  2  0
  8 18  1  0
  8  3  2  0
  9  7  1  0
  9  8  1  0
 10 19  1  0
 11 16  1  0
 12 13  1  0
 12 11  1  0
 14 13  1  0
 14 25  1  0
 14 15  1  0
 16 10  1  0
 16 15  1  0
 17 10  2  0
 18 20  2  0
 19 21  1  0
 19 18  1  0
 22 23  2  0
 23 42  1  0
 24 23  1  0
 24 27  1  0
 25 26  1  0
 25 22  1  0
 26 24  2  0
 27 28  1  0
 28 29  2  0
 30 33  1  0
 30 29  1  0
 31 30  2  0
 32 31  1  0
 32 27  2  0
 33 34  1  0
 34 39  2  0
 34 35  1  0
 35 36  2  0
 36 37  1  0
 37 41  1  0
 38 37  2  0
 39 38  1  0
 40 39  1  0
 42 43  1  0
 43 46  1  0
 43 45  1  0
 44 42  2  0
 47 22  1  0
 47 48  1  0
 49 47  1  0
 50 51  1  0
 51  6  1  0
 51 53  1  0
 52 50  2  0
 54 50  1  0
 54 55  1  0
 56 67  2  0
 57 55  1  0
 57 62  1  0
 58 66  1  0
 58 68  1  0
 59 65  1  0
 59 61  1  0
 60 66  1  0
 61 60  1  0
 62 61  2  0
 63 64  1  0
 63 57  2  0
 64 59  2  0
 65 58  1  0
 66 56  1  0
 68 70  2  0
 69 68  1  0
 71 69  1  0
 72 81  2  0
 72 77  1  0
 73 69  1  0
 73 77  1  0
 74 73  1  0
 75 76  1  0
 75 74  1  0
 76 72  1  0
 77 78  2  0
 78 79  1  0
 80 79  2  0
 81 80  1  0
 82 56  1  0
 82 83  1  0
 82 92  1  0
 83 86  1  0
 84 88  1  0
 84 83  1  0
 85 84  2  0
 88 87  1  0
 90 88  1  0
 90 91  1  0
 90 89  1  0
 92 95  1  1
 92 93  1  0
 94 92  1  0
M  ISO  4  10 100  19 100  54 101  55 101
M  END
>  <TORSDO>  (15) 
F 18

>  <SCORE>  (15) 
-12.615

>  <name>  (15) 
14

>  <ligand_id>  (15) 
14

>  <original_smiles>  (15) 
[H]c1c([H])c([H])c2c(c1[H])C([H])([H])C([H])([H])C([H])([H])C2([H])N([H])C(=O)C1([H])N(C(=O)C([H])(N([H])C(=O)C([H])(N([H])C([H])([H])[H])C([H])([H])[H])C(C([H])([H])[H])(C([H])([H])[H])C([H])([H])[H])C([H])([H])c2c([H])c(OC([H])([H])C(=O)N([H])c3c([H])c([H])c4c([H])c(C(=O)N([H])C(=O)N5C([H])([H])C([H])([H])C([H])([H])C([H])(n6nc(-c7c([H])c([H])c(Oc8c([H])c([H])c(F)c([H])c8F)c([H])c7[H])c(C(=O)N([H])[H])c6N([H])[H])C5([H])[H])sc4c3[H])c([H])c([H])c2C1([H])[H]

>  <smiles>  (15) 
[H]c1c([H])c([H])c2c(c1[H])C([H])([H])C([H])([H])C([H])([H])C2([H])N([H])C(=O)C1([H])N(C(=O)C([H])(N([H])C(=O)C([H])(N([H])C([H])([H])[H])C([H])([H])[H])C(C([H])([H])[H])(C([H])([H])[H])C([H])([H])[H])C([H])([H])c2c([H])c(OC([H])([H])C(=O)N([H])c3c([H])c([H])c4c([H])c(C(=O)N([H])C(=O)N5C([H])([H])C([H])([H])C([H])([H])C([H])(n6nc(-c7c([H])c([H])c(Oc8c([H])c([H])c(F)c([H])c8F)c([H])c7[H])c(C(=O)N([H])[H])c6N([H])[H])C5([H])[H])sc4c3[H])c([H])c([H])c2C1([H])[H]

$$$$
15:0:0
     RDKit          3D

 91100  0  0  1  0  0  0  0  0999 V2000
  -28.8260  -19.7940   19.2380 C   0  0  0  0  0  3  0  0  0  0  0  0
  -29.0150  -18.3460   19.2660 C   0  0  0  0  0  3  0  0  0  0  0  0
  -30.2670  -18.5000   21.2850 C   0  0  0  0  0  3  0  0  0  0  0  0
  -29.3390  -20.6340   20.2710 C   0  0  0  0  0  0  0  0  0  0  0  0
  -29.7450  -17.6120   20.2780 C   0  0  0  0  0  0  0  0  0  0  0  0
  -30.0480  -19.9360   21.2540 C   0  0  0  0  0  0  0  0  0  0  0  0
  -30.0650  -22.1510   21.8050 C   0  0  0  0  0  0  0  0  0  0  0  0
  -29.3010  -22.0910   20.6280 N   0  0  0  0  0  0  0  0  0  0  0  0
  -30.3990  -23.1600   22.4290 O   0  0  0  0  0  0  0  0  0  0  0  0
  -30.4590  -20.8670   22.1660 O   0  0  0  0  0  0  0  0  0  0  0  0
  -30.5340  -14.9690   20.2180 C   0  0  0  0  0  0  0  0  0  0  0  0
  -30.4130  -12.6320   19.2560 C   0  0  0  0  0  2  0  0  0  0  0  0
  -29.4520  -12.6130   18.0450 C   0  0  0  0  0  2  0  0  0  0  0  0
  -27.9970  -12.4040   18.5060 C   0  0  0  0  0  2  0  0  0  0  0  0
  -27.6130  -13.3250   19.6930 C   0  0  0  0  0  3  0  0  0  0  0  0
  -28.6880  -13.3020   20.8010 C   0  0  0  0  0  2  0  0  0  0  0  0
  -29.9580  -13.7040   20.1810 N   0  0  0  0  0  0  0  0  0  0  0  0
  -31.7300  -15.0750   19.9210 O   0  0  0  0  0  0  0  0  0  0  0  0
  -29.6820  -16.0880   20.3880 N   0  0  0  0  0  0  0  0  0  0  0  0
  -28.7380  -15.7610   20.5160 H   0  0  0  0  0  0  0  0  0  0  0  0
  -25.2440  -13.9200   20.4650 C   0  0  0  0  0  0  0  0  0  0  0  0
  -24.1790  -13.1510   20.8450 C   0  0  0  0  0  0  0  0  0  0  0  0
  -24.6350  -11.7960   20.7990 C   0  0  0  0  0  0  0  0  0  0  0  0
  -26.2780  -13.0360   20.2080 N   0  0  0  0  0  0  0  0  0  0  0  0
  -25.9220  -11.7540   20.4730 N   0  0  0  0  0  0  0  0  0  0  0  0
  -23.9030  -10.5380   20.9880 C   0  0  0  0  0  0  0  0  0  0  0  0
  -24.3300   -9.5690   21.9240 C   0  0  0  0  0  3  0  0  0  0  0  0
  -23.5960   -8.3750   22.1020 C   0  0  0  0  0  3  0  0  0  0  0  0
  -22.4240   -8.1410   21.3440 C   0  0  0  0  0  0  0  0  0  0  0  0
  -22.0190   -9.0980   20.3980 C   0  0  0  0  0  3  0  0  0  0  0  0
  -22.7510  -10.2830   20.2170 C   0  0  0  0  0  3  0  0  0  0  0  0
  -21.6640   -7.0010   21.4300 O   0  0  0  0  0  0  0  0  0  0  0  0
  -21.5900   -6.2710   22.5900 C   0  0  0  0  0  0  0  0  0  0  0  0
  -21.1210   -6.8370   23.7960 C   0  0  0  0  0  3  0  0  0  0  0  0
  -20.9940   -6.0340   24.9470 C   0  0  0  0  0  3  0  0  0  0  0  0
  -21.3290   -4.6670   24.8940 C   0  0  0  0  0  0  0  0  0  0  0  0
  -21.7910   -4.1020   23.6930 C   0  0  0  0  0  3  0  0  0  0  0  0
  -21.9200   -4.9010   22.5440 C   0  0  0  0  0  0  0  0  0  0  0  0
  -22.3450   -4.3470   21.3830 F   0  0  0  0  0  0  0  0  0  0  0  0
  -21.2000   -3.8940   25.9980 F   0  0  0  0  0  0  0  0  0  0  0  0
  -22.7880  -13.6340   21.1360 C   0  0  0  0  0  0  0  0  0  0  0  0
  -22.0650  -12.9330   22.0000 N   0  0  0  0  0  0  0  0  0  0  0  0
  -22.3540  -14.6680   20.6290 O   0  0  0  0  0  0  0  0  0  0  0  0
  -22.4280  -12.0950   22.4280 H   0  0  0  0  0  0  0  0  0  0  0  0
  -21.1330  -13.2410   22.2410 H   0  0  0  0  0  0  0  0  0  0  0  0
  -25.4130  -15.2920   20.2940 N   0  0  0  0  0  0  0  0  0  0  0  0
  -24.6440  -15.9430   20.4110 H   0  0  0  0  0  0  0  0  0  0  0  0
  -26.2440  -15.7300   19.9210 H   0  0  0  0  0  0  0  0  0  0  0  0
  -28.9080  -23.4220   19.8760 C   0  0  0  0  0  2  0  0  0  0  0  0
  -28.2000  -24.7680   20.6020 C   0  0  0  0  0  2  0  0  0  0  0  0
  -28.3900  -26.2680   20.2530 O   0  0  0  0  0  0  0  0  0  0  0  0
  -24.6440  -31.8820   23.2420 C   0  0  0  0  0  0  0  0  0  0  0  0
  -27.3010  -27.2060   20.2450 C   0  0  0  0  0  0  0  0  0  0  0  0
  -23.4740  -30.4700   21.5930 C   0  0  0  0  0  3  0  0  0  0  0  0
  -24.9490  -28.9050   20.1910 C   0  0  0  0  0  0  0  0  0  0  0  0
  -26.0250  -30.7670   21.4500 C   0  0  0  0  0  2  0  0  0  0  0  0
  -26.1180  -29.3740   20.8050 C   0  0  0  0  0  0  0  0  0  0  0  0
  -27.2990  -28.5410   20.8080 C   0  0  0  0  0  3  0  0  0  0  0  0
  -26.1020  -26.8240   19.6070 C   0  0  0  0  0  3  0  0  0  0  0  0
  -24.9520  -27.6410   19.5770 C   0  0  0  0  0  3  0  0  0  0  0  0
  -23.7170  -29.7950   20.2170 C   0  0  0  0  0  2  0  0  0  0  0  0
  -24.7340  -31.0610   22.1500 N   0  0  0  0  0  0  0  0  0  0  0  0
  -23.5500  -32.1570   23.7590 O   0  0  0  0  0  0  0  0  0  0  0  0
  -22.7970  -29.4590   22.5510 C   0  0  0  0  0  0  0  0  0  0  0  0
  -21.4690  -29.2910   22.4240 N   0  0  0  0  0  0  0  0  0  0  0  0
  -23.4660  -28.8270   23.3720 O   0  0  0  0  0  0  0  0  0  0  0  0
  -20.9850  -29.8590   21.7420 H   0  0  0  0  0  0  0  0  0  0  0  0
  -18.0790  -28.1120   22.9330 C   0  0  0  0  0  0  0  0  0  0  0  0
  -20.6420  -28.3520   23.1890 C   0  0  0  0  0  3  0  0  0  0  0  0
  -20.7280  -26.9260   22.5980 C   0  0  0  0  0  2  0  0  0  0  0  0
  -19.6170  -26.6220   21.5870 C   0  0  0  0  0  2  0  0  0  0  0  0
  -18.2410  -26.7700   22.2420 C   0  0  0  0  0  2  0  0  0  0  0  0
  -19.2080  -28.8630   23.3630 C   0  0  0  0  0  0  0  0  0  0  0  0
  -19.0010  -30.1190   23.9740 C   0  0  0  0  0  3  0  0  0  0  0  0
  -17.7010  -30.6260   24.1590 C   0  0  0  0  0  3  0  0  0  0  0  0
  -16.5890  -29.8740   23.7410 C   0  0  0  0  0  3  0  0  0  0  0  0
  -16.7790  -28.6200   23.1330 C   0  0  0  0  0  3  0  0  0  0  0  0
  -25.9100  -32.5280   23.8830 C   0  0  0  0  0  3  0  0  0  0  0  0
  -25.5870  -33.9300   24.1950 N   0  0  0  0  0  0  0  0  0  0  0  0
  -25.9230  -34.9790   23.4350 C   0  0  0  0  0  0  0  0  0  0  0  0
  -26.6050  -34.8720   22.4110 O   0  0  0  0  0  0  0  0  0  0  0  0
  -24.9810  -34.0880   24.9880 H   0  0  0  0  0  0  0  0  0  0  0  0
  -24.1990  -36.7710   23.0460 C   0  0  0  0  0  1  0  0  0  0  0  0
  -25.4260  -36.3700   23.8800 C   0  0  0  0  0  3  0  0  0  0  0  0
  -27.5430  -37.2660   24.7420 C   0  0  0  0  0  1  0  0  0  0  0  0
  -26.4590  -37.4250   23.7770 N   0  0  0  0  0  0  0  0  0  0  0  0
  -26.0480  -38.3460   23.9110 H   0  0  0  0  0  0  0  0  0  0  0  0
  -26.4020  -31.7750   25.1780 C   0  0  1  0  0  0  0  0  0  0  0  0
  -25.2900  -31.5490   26.2290 C   0  0  0  0  0  1  0  0  0  0  0  0
  -26.9980  -30.3960   24.8150 C   0  0  0  0  0  1  0  0  0  0  0  0
  -27.5390  -32.5810   25.8530 C   0  0  0  0  0  1  0  0  0  0  0  0
  1  2  2  0
  1  4  1  0
  2  5  1  0
  4  8  1  0
  4  6  2  0
  5 19  1  0
  5  3  2  0
  6  3  1  0
  6 10  1  0
  7 10  1  0
  7  9  2  0
  8  7  1  0
 11 19  1  0
 12 17  1  0
 13 14  1  0
 13 12  1  0
 15 14  1  0
 15 24  1  0
 15 16  1  0
 17 11  1  0
 17 16  1  0
 18 11  2  0
 19 20  1  0
 21 22  2  0
 22 41  1  0
 23 22  1  0
 23 26  1  0
 24 21  1  0
 24 25  1  0
 25 23  2  0
 26 27  1  0
 27 28  2  0
 29 32  1  0
 29 28  1  0
 30 29  2  0
 31 30  1  0
 31 26  2  0
 32 33  1  0
 33 34  1  0
 34 35  2  0
 36 35  1  0
 36 40  1  0
 37 36  2  0
 38 33  2  0
 38 37  1  0
 39 38  1  0
 41 42  1  0
 42 45  1  0
 42 44  1  0
 43 41  2  0
 46 47  1  0
 46 21  1  0
 48 46  1  0
 49 50  1  0
 49  8  1  0
 51 50  1  0
 52 63  2  0
 53 51  1  0
 53 58  1  0
 54 62  1  0
 54 64  1  0
 55 61  1  0
 55 57  1  0
 56 62  1  0
 57 58  2  0
 57 56  1  0
 59 53  2  0
 60 59  1  0
 60 55  2  0
 61 54  1  0
 62 52  1  0
 64 66  2  0
 65 64  1  0
 67 65  1  0
 68 77  2  0
 68 73  1  0
 69 65  1  0
 69 73  1  0
 70 69  1  0
 71 72  1  0
 71 70  1  0
 72 68  1  0
 73 74  2  0
 74 75  1  0
 76 75  2  0
 77 76  1  0
 78 52  1  0
 78 79  1  0
 78 88  1  0
 79 82  1  0
 80 84  1  0
 80 79  1  0
 81 80  2  0
 84 83  1  0
 86 84  1  0
 86 87  1  0
 86 85  1  0
 88 91  1  1
 88 89  1  0
 90 88  1  0
M  ISO  4  11 100  19 100  50 101  51 101
M  END
>  <TORSDO>  (16) 
F 18

>  <SCORE>  (16) 
-14.861

>  <name>  (16) 
15

>  <ligand_id>  (16) 
15

>  <original_smiles>  (16) 
[H]c1c([H])c([H])c2c(c1[H])C([H])([H])C([H])([H])C([H])([H])C2([H])N([H])C(=O)C1([H])N(C(=O)C([H])(N([H])C(=O)C([H])(N([H])C([H])([H])[H])C([H])([H])[H])C(C([H])([H])[H])(C([H])([H])[H])C([H])([H])[H])C([H])([H])c2c([H])c(OC([H])([H])C([H])([H])n3c(=O)oc4c([H])c(N([H])C(=O)N5C([H])([H])C([H])([H])C([H])([H])C([H])(n6nc(-c7c([H])c([H])c(Oc8c([H])c([H])c(F)c([H])c8F)c([H])c7[H])c(C(=O)N([H])[H])c6N([H])[H])C5([H])[H])c([H])c([H])c43)c([H])c([H])c2C1([H])[H]

>  <smiles>  (16) 
[H]c1c([H])c([H])c2c(c1[H])C([H])([H])C([H])([H])C([H])([H])C2([H])N([H])C(=O)C1([H])N(C(=O)C([H])(N([H])C(=O)C([H])(N([H])C([H])([H])[H])C([H])([H])[H])C(C([H])([H])[H])(C([H])([H])[H])C([H])([H])[H])C([H])([H])c2c([H])c(OC([H])([H])C([H])([H])n3c(=O)oc4c([H])c(N([H])C(=O)N5C([H])([H])C([H])([H])C([H])([H])C([H])(n6nc(-c7c([H])c([H])c(Oc8c([H])c([H])c(F)c([H])c8F)c([H])c7[H])c(C(=O)N([H])[H])c6N([H])[H])C5([H])[H])c([H])c([H])c43)c([H])c([H])c2C1([H])[H]

$$$$
16:0:0
     RDKit          3D

 86 92  0  0  1  0  0  0  0  0999 V2000
  -28.3430  -23.3680   20.0510 C   0  0  0  0  0  2  0  0  0  0  0  0
  -28.8380  -21.8200   20.4590 C   0  0  0  0  0  2  0  0  0  0  0  0
  -29.1190  -21.6410   21.9490 C   0  0  0  0  0  1  0  0  0  0  0  0
  -30.1640  -16.4120   20.1410 C   0  0  0  0  0  0  0  0  0  0  0  0
  -30.4200  -13.7180   19.3780 C   0  0  0  0  0  2  0  0  0  0  0  0
  -29.5990  -13.0250   18.2310 C   0  0  0  0  0  2  0  0  0  0  0  0
  -28.2260  -12.5470   18.7160 C   0  0  0  0  0  2  0  0  0  0  0  0
  -27.6270  -13.5810   19.6870 C   0  0  0  0  0  3  0  0  0  0  0  0
  -28.6210  -14.1480   20.7490 C   0  0  0  0  0  2  0  0  0  0  0  0
  -29.6910  -14.9480   20.0430 N   0  0  0  0  0  0  0  0  0  0  0  0
  -31.4090  -16.2280   20.0640 O   0  0  0  0  0  0  0  0  0  0  0  0
  -28.0270  -19.3920   19.2990 C   0  0  0  0  0  0  0  0  0  0  0  0
  -28.1600  -17.9940   19.6780 C   0  0  0  0  0  0  0  0  0  0  0  0
  -26.9830  -19.9820   18.6920 C   0  0  0  0  0  2  0  0  0  0  0  0
  -29.3200  -19.9040   19.8480 C   0  0  0  0  0  1  0  0  0  0  0  0
  -29.4340  -17.9500   20.1160 N   0  0  0  0  0  2  0  0  0  0  0  0
  -27.3770  -17.0640   19.5020 O   0  0  0  0  0  0  0  0  0  0  0  0
  -25.2630  -14.0320   20.4740 C   0  0  0  0  0  0  0  0  0  0  0  0
  -24.2180  -13.2370   20.8300 C   0  0  0  0  0  0  0  0  0  0  0  0
  -24.7100  -11.8960   20.7930 C   0  0  0  0  0  0  0  0  0  0  0  0
  -26.3290  -13.1900   20.2270 N   0  0  0  0  0  0  0  0  0  0  0  0
  -26.0080  -11.8890   20.4810 N   0  0  0  0  0  0  0  0  0  0  0  0
  -23.9900  -10.6290   20.9790 C   0  0  0  0  0  0  0  0  0  0  0  0
  -24.4010   -9.6760   21.9350 C   0  0  0  0  0  3  0  0  0  0  0  0
  -23.6710   -8.4810   22.1170 C   0  0  0  0  0  3  0  0  0  0  0  0
  -22.5140   -8.2300   21.3410 C   0  0  0  0  0  0  0  0  0  0  0  0
  -22.1180   -9.1740   20.3760 C   0  0  0  0  0  3  0  0  0  0  0  0
  -22.8500  -10.3590   20.1930 C   0  0  0  0  0  3  0  0  0  0  0  0
  -21.7580   -7.0860   21.4280 O   0  0  0  0  0  0  0  0  0  0  0  0
  -21.6660   -6.3720   22.5960 C   0  0  0  0  0  0  0  0  0  0  0  0
  -21.1510   -6.9450   23.7810 C   0  0  0  0  0  3  0  0  0  0  0  0
  -21.0090   -6.1560   24.9380 C   0  0  0  0  0  3  0  0  0  0  0  0
  -21.3700   -4.7950   24.9140 C   0  0  0  0  0  0  0  0  0  0  0  0
  -21.8780   -4.2220   23.7350 C   0  0  0  0  0  3  0  0  0  0  0  0
  -22.0210   -5.0080   22.5780 C   0  0  0  0  0  0  0  0  0  0  0  0
  -22.4910   -4.4460   21.4380 F   0  0  0  0  0  0  0  0  0  0  0  0
  -21.2260   -4.0350   26.0250 F   0  0  0  0  0  0  0  0  0  0  0  0
  -22.8150  -13.7020   21.0860 C   0  0  0  0  0  0  0  0  0  0  0  0
  -22.0890  -13.0140   21.9580 N   0  0  0  0  0  0  0  0  0  0  0  0
  -22.3740  -14.7200   20.5510 O   0  0  0  0  0  0  0  0  0  0  0  0
  -22.4600  -12.1940   22.4160 H   0  0  0  0  0  0  0  0  0  0  0  0
  -21.1490  -13.3130   22.1750 H   0  0  0  0  0  0  0  0  0  0  0  0
  -25.3730  -15.4030   20.3080 N   0  0  0  0  0  0  0  0  0  0  0  0
  -24.5750  -16.0170   20.4210 H   0  0  0  0  0  0  0  0  0  0  0  0
  -26.1990  -15.8980   19.9600 H   0  0  0  0  0  0  0  0  0  0  0  0
  -28.2090  -25.1190   20.2630 O   0  0  0  0  0  0  0  0  0  0  0  0
  -24.6940  -31.8620   23.1560 C   0  0  0  0  0  0  0  0  0  0  0  0
  -27.2370  -26.4740   20.1910 C   0  0  0  0  0  0  0  0  0  0  0  0
  -23.5150  -30.4280   21.5480 C   0  0  0  0  0  3  0  0  0  0  0  0
  -24.9690  -28.7150   20.1450 C   0  0  0  0  0  0  0  0  0  0  0  0
  -26.1050  -30.4930   21.4350 C   0  0  0  0  0  2  0  0  0  0  0  0
  -26.1730  -29.0170   20.7870 C   0  0  0  0  0  0  0  0  0  0  0  0
  -27.2640  -27.9350   20.7740 C   0  0  0  0  0  3  0  0  0  0  0  0
  -25.9910  -26.4830   19.4770 C   0  0  0  0  0  3  0  0  0  0  0  0
  -24.9380  -27.4780   19.4650 C   0  0  0  0  0  3  0  0  0  0  0  0
  -23.7630  -29.6940   20.1920 C   0  0  0  0  0  2  0  0  0  0  0  0
  -24.8010  -30.9710   22.0980 N   0  0  0  0  0  0  0  0  0  0  0  0
  -23.5970  -32.1680   23.6590 O   0  0  0  0  0  0  0  0  0  0  0  0
  -22.7900  -29.4820   22.5480 C   0  0  0  0  0  0  0  0  0  0  0  0
  -21.4580  -29.3090   22.4270 N   0  0  0  0  0  0  0  0  0  0  0  0
  -23.4460  -28.8980   23.4120 O   0  0  0  0  0  0  0  0  0  0  0  0
  -20.9710  -29.8310   21.7110 H   0  0  0  0  0  0  0  0  0  0  0  0
  -18.0970  -28.0050   22.9640 C   0  0  0  0  0  0  0  0  0  0  0  0
  -20.6500  -28.3690   23.2190 C   0  0  0  0  0  3  0  0  0  0  0  0
  -20.7960  -26.9250   22.6810 C   0  0  0  0  0  2  0  0  0  0  0  0
  -19.7080  -26.5460   21.6700 C   0  0  0  0  0  2  0  0  0  0  0  0
  -18.3210  -26.6530   22.3090 C   0  0  0  0  0  2  0  0  0  0  0  0
  -19.1890  -28.8170   23.3750 C   0  0  0  0  0  0  0  0  0  0  0  0
  -18.9210  -30.0760   23.9570 C   0  0  0  0  0  3  0  0  0  0  0  0
  -17.5970  -30.5250   24.1260 C   0  0  0  0  0  3  0  0  0  0  0  0
  -16.5220  -29.7130   23.7250 C   0  0  0  0  0  3  0  0  0  0  0  0
  -16.7730  -28.4550   23.1500 C   0  0  0  0  0  3  0  0  0  0  0  0
  -25.9420  -32.5520   23.7890 C   0  0  0  0  0  3  0  0  0  0  0  0
  -26.4490  -31.8230   25.0960 C   0  0  1  0  0  0  0  0  0  0  0  0
  -25.3470  -31.6050   26.1610 C   0  0  0  0  0  1  0  0  0  0  0  0
  -27.0530  -30.4410   24.7680 C   0  0  0  0  0  1  0  0  0  0  0  0
  -27.5840  -32.6480   25.7500 C   0  0  0  0  0  1  0  0  0  0  0  0
  -25.5950  -33.9540   24.1170 N   0  0  0  0  0  0  0  0  0  0  0  0
  -25.9170  -35.0300   23.3850 C   0  0  0  0  0  0  0  0  0  0  0  0
  -26.5870  -34.9490   22.3540 O   0  0  0  0  0  0  0  0  0  0  0  0
  -24.9930  -34.0880   24.9160 H   0  0  0  0  0  0  0  0  0  0  0  0
  -24.1820  -36.8360   23.0740 C   0  0  0  0  0  1  0  0  0  0  0  0
  -25.4280  -36.4160   23.8690 C   0  0  0  0  0  3  0  0  0  0  0  0
  -27.5550  -37.3150   24.7120 C   0  0  0  0  0  1  0  0  0  0  0  0
  -26.4540  -37.4780   23.7660 N   0  0  0  0  0  0  0  0  0  0  0  0
  -26.0410  -38.3940   23.9160 H   0  0  0  0  0  0  0  0  0  0  0  0
  1 46  1  0
  1  2  1  0
  2  3  1  0
  5 10  1  0
  6  7  1  0
  6  5  1  0
  8  7  1  0
  8 21  1  0
  8  9  1  0
 10  4  1  0
 10  9  1  0
 11  4  2  0
 12 13  1  0
 12 15  1  0
 13 16  1  0
 14 12  2  0
 16  4  1  0
 17 13  2  0
 18 19  2  0
 19 38  1  0
 20 19  1  0
 20 23  1  0
 21 18  1  0
 21 22  1  0
 22 20  2  0
 23 24  1  0
 24 25  2  0
 26 29  1  0
 26 25  1  0
 27 26  2  0
 28 27  1  0
 28 23  2  0
 29 30  1  0
 30 31  1  0
 31 32  2  0
 33 32  1  0
 33 37  1  0
 34 33  2  0
 35 30  2  0
 35 34  1  0
 36 35  1  0
 38 39  1  0
 39 42  1  0
 39 41  1  0
 40 38  2  0
 43 44  1  0
 43 18  1  0
 45 43  1  0
 47 58  2  0
 48 46  1  0
 48 53  1  0
 49 57  1  0
 49 59  1  0
 50 56  1  0
 50 52  1  0
 51 57  1  0
 52 51  1  0
 53 52  2  0
 54 48  2  0
 55 54  1  0
 55 50  2  0
 56 49  1  0
 57 47  1  0
 59 61  2  0
 60 59  1  0
 62 60  1  0
 63 72  2  0
 63 68  1  0
 64 60  1  0
 64 68  1  0
 65 64  1  0
 66 67  1  0
 66 65  1  0
 67 63  1  0
 68 69  2  0
 69 70  1  0
 71 70  2  0
 72 71  1  0
 73 47  1  0
 73 78  1  0
 73 74  1  0
 74 77  1  1
 74 75  1  0
 76 74  1  0
 78 81  1  0
 79 83  1  0
 79 78  1  0
 80 79  2  0
 83 82  1  0
 85 83  1  0
 85 86  1  0
 85 84  1  0
M  ISO  4   1 101   4 100  16 100  46 101
M  END
>  <TORSDO>  (17) 
F 16

>  <SCORE>  (17) 
-17.006

>  <name>  (17) 
16

>  <ligand_id>  (17) 
16

>  <original_smiles>  (17) 
[H]C([H])=C1C(=O)N(C(=O)N2C([H])([H])C([H])([H])C([H])([H])C([H])(n3nc(-c4c([H])c([H])c(Oc5c([H])c([H])c(F)c([H])c5F)c([H])c4[H])c(C(=O)N([H])[H])c3N([H])[H])C2([H])[H])C1([H])C(=C([H])Oc1c([H])c([H])c2c(c1[H])C([H])([H])N(C(=O)C([H])(N([H])C(=O)C([H])(N([H])C([H])([H])[H])C([H])([H])[H])C(C([H])([H])[H])(C([H])([H])[H])C([H])([H])[H])C([H])(C(=O)N([H])C1([H])c3c([H])c([H])c([H])c([H])c3C([H])([H])C([H])([H])C1([H])[H])C2([H])[H])C([H])([H])[H]

>  <smiles>  (17) 
[H]C([H])=C1C(=O)N(C(=O)N2C([H])([H])C([H])([H])C([H])([H])C([H])(n3nc(-c4c([H])c([H])c(Oc5c([H])c([H])c(F)c([H])c5F)c([H])c4[H])c(C(=O)N([H])[H])c3N([H])[H])C2([H])[H])C1([H])C(=C([H])Oc1c([H])c([H])c2c(c1[H])C([H])([H])N(C(=O)C([H])(N([H])C(=O)C([H])(N([H])C([H])([H])[H])C([H])([H])[H])C(C([H])([H])[H])(C([H])([H])[H])C([H])([H])[H])C([H])(C(=O)N([H])C1([H])c3c([H])c([H])c([H])c([H])c3C([H])([H])C([H])([H])C1([H])[H])C2([H])[H])C([H])([H])[H]

$$$$
17:0:0
     RDKit          3D

 96105  0  0  1  0  0  0  0  0999 V2000
  -30.9970  -21.7820   21.9220 C   0  0  0  0  0  3  0  0  0  0  0  0
  -30.4620  -21.0380   20.9280 C   0  0  0  0  0  0  0  0  0  0  0  0
  -31.0300  -23.3050   21.9360 C   0  0  0  0  0  2  0  0  0  0  0  0
  -29.8780  -21.7460   19.7050 C   0  0  0  0  0  2  0  0  0  0  0  0
  -30.2320  -23.2360   19.6200 C   0  0  0  0  0  2  0  0  0  0  0  0
  -30.0780  -23.8700   20.9470 N   0  0  2  0  0  4  0  0  0  0  0  0
  -29.1460  -23.6570   21.2800 H   0  0  0  0  0  0  0  0  0  0  0  0
  -31.2540  -18.7970   21.8480 C   0  0  0  0  0  3  0  0  0  0  0  0
  -31.1270  -17.3920   21.9090 C   0  0  0  0  0  3  0  0  0  0  0  0
  -29.4830  -18.8750   20.1820 C   0  0  0  0  0  3  0  0  0  0  0  0
  -30.4220  -19.5540   20.9880 C   0  0  0  0  0  0  0  0  0  0  0  0
  -30.1750  -16.7270   21.1060 C   0  0  0  0  0  0  0  0  0  0  0  0
  -29.3590  -17.4810   20.2320 C   0  0  0  0  0  0  0  0  0  0  0  0
  -28.1910  -16.7430   19.2010 Cl  0  0  0  0  0  0  0  0  0  0  0  0
  -30.6080  -14.4270   20.4490 C   0  0  0  0  0  0  0  0  0  0  0  0
  -30.2810  -12.3250   19.2060 C   0  0  0  0  0  2  0  0  0  0  0  0
  -29.3250  -12.5720   18.0230 C   0  0  0  0  0  2  0  0  0  0  0  0
  -27.8550  -12.4160   18.4610 C   0  0  0  0  0  2  0  0  0  0  0  0
  -27.5330  -13.2170   19.7500 C   0  0  0  0  0  3  0  0  0  0  0  0
  -28.5950  -12.9540   20.8410 C   0  0  0  0  0  2  0  0  0  0  0  0
  -29.9230  -13.2650   20.2770 N   0  0  0  0  0  0  0  0  0  0  0  0
  -31.6890  -14.6670   19.9040 O   0  0  0  0  0  0  0  0  0  0  0  0
  -29.9940  -15.3290   21.2230 N   0  0  0  0  0  0  0  0  0  0  0  0
  -29.1030  -15.0250   21.5850 H   0  0  0  0  0  0  0  0  0  0  0  0
  -25.1350  -13.8410   20.4540 C   0  0  0  0  0  0  0  0  0  0  0  0
  -24.0670  -13.0710   20.8280 C   0  0  0  0  0  0  0  0  0  0  0  0
  -24.5280  -11.7200   20.8000 C   0  0  0  0  0  0  0  0  0  0  0  0
  -26.1790  -12.9560   20.2270 N   0  0  0  0  0  0  0  0  0  0  0  0
  -25.8160  -11.6770   20.4910 N   0  0  0  0  0  0  0  0  0  0  0  0
  -23.8050  -10.4590   20.9970 C   0  0  0  0  0  0  0  0  0  0  0  0
  -24.2370   -9.5010   21.9400 C   0  0  0  0  0  3  0  0  0  0  0  0
  -23.5170   -8.3010   22.1230 C   0  0  0  0  0  3  0  0  0  0  0  0
  -22.3500   -8.0510   21.3600 C   0  0  0  0  0  0  0  0  0  0  0  0
  -21.9380   -8.9990   20.4060 C   0  0  0  0  0  3  0  0  0  0  0  0
  -22.6600  -10.1900   20.2220 C   0  0  0  0  0  3  0  0  0  0  0  0
  -21.6010   -6.9040   21.4520 O   0  0  0  0  0  0  0  0  0  0  0  0
  -21.5410   -6.1760   22.6120 C   0  0  0  0  0  0  0  0  0  0  0  0
  -21.0910   -6.7410   23.8250 C   0  0  0  0  0  3  0  0  0  0  0  0
  -20.9790   -5.9380   24.9780 C   0  0  0  0  0  3  0  0  0  0  0  0
  -21.3060   -4.5700   24.9180 C   0  0  0  0  0  0  0  0  0  0  0  0
  -21.7500   -4.0040   23.7100 C   0  0  0  0  0  3  0  0  0  0  0  0
  -21.8640   -4.8050   22.5600 C   0  0  0  0  0  0  0  0  0  0  0  0
  -22.2720   -4.2500   21.3930 F   0  0  0  0  0  0  0  0  0  0  0  0
  -21.1910   -3.7970   26.0220 F   0  0  0  0  0  0  0  0  0  0  0  0
  -22.6690  -13.5490   21.1020 C   0  0  0  0  0  0  0  0  0  0  0  0
  -21.9430  -12.8520   21.9680 N   0  0  0  0  0  0  0  0  0  0  0  0
  -22.2290  -14.5750   20.5840 O   0  0  0  0  0  0  0  0  0  0  0  0
  -22.3100  -12.0220   22.4100 H   0  0  0  0  0  0  0  0  0  0  0  0
  -21.0060  -13.1530   22.1950 H   0  0  0  0  0  0  0  0  0  0  0  0
  -25.2980  -15.2110   20.2700 N   0  0  0  0  0  0  0  0  0  0  0  0
  -24.5300  -15.8650   20.3700 H   0  0  0  0  0  0  0  0  0  0  0  0
  -26.1470  -15.6450   19.9260 H   0  0  0  0  0  0  0  0  0  0  0  0
  -30.0650  -25.3440   20.8920 C   0  0  0  0  0  2  0  0  0  0  0  0
  -28.5970  -25.7660   20.8870 C   0  0  0  0  0  0  0  0  0  0  0  0
  -27.7580  -25.1720   21.5750 O   0  0  0  0  0  0  0  0  0  0  0  0
  -28.3650  -26.8190   20.0820 O   0  0  0  0  0  0  0  0  0  0  0  0
  -24.5170  -31.8860   23.2230 C   0  0  0  0  0  0  0  0  0  0  0  0
  -27.1650  -27.4830   20.1360 C   0  0  0  0  0  0  0  0  0  0  0  0
  -23.3030  -30.4820   21.5840 C   0  0  0  0  0  3  0  0  0  0  0  0
  -24.7550  -28.9440   20.1560 C   0  0  0  0  0  0  0  0  0  0  0  0
  -25.8200  -30.8570   21.3690 C   0  0  0  0  0  2  0  0  0  0  0  0
  -25.9080  -29.4860   20.7380 C   0  0  0  0  0  0  0  0  0  0  0  0
  -27.1160  -28.7620   20.7250 C   0  0  0  0  0  3  0  0  0  0  0  0
  -26.0010  -26.9450   19.5440 C   0  0  0  0  0  3  0  0  0  0  0  0
  -24.7940  -27.6700   19.5590 C   0  0  0  0  0  3  0  0  0  0  0  0
  -23.5070  -29.7960   20.2040 C   0  0  0  0  0  2  0  0  0  0  0  0
  -24.5660  -31.0890   22.1180 N   0  0  0  0  0  0  0  0  0  0  0  0
  -23.4400  -32.1570   23.7700 O   0  0  0  0  0  0  0  0  0  0  0  0
  -22.6600  -29.4610   22.5480 C   0  0  0  0  0  0  0  0  0  0  0  0
  -21.3340  -29.2830   22.4280 N   0  0  0  0  0  0  0  0  0  0  0  0
  -23.3480  -28.8320   23.3560 O   0  0  0  0  0  0  0  0  0  0  0  0
  -20.8410  -29.8430   21.7470 H   0  0  0  0  0  0  0  0  0  0  0  0
  -17.9580  -28.1100   22.9460 C   0  0  0  0  0  0  0  0  0  0  0  0
  -20.5200  -28.3460   23.2000 C   0  0  0  0  0  3  0  0  0  0  0  0
  -20.6070  -26.9180   22.6130 C   0  0  0  0  0  2  0  0  0  0  0  0
  -19.4950  -26.6100   21.6060 C   0  0  0  0  0  2  0  0  0  0  0  0
  -18.1190  -26.7620   22.2630 C   0  0  0  0  0  2  0  0  0  0  0  0
  -19.0860  -28.8600   23.3720 C   0  0  0  0  0  0  0  0  0  0  0  0
  -18.8820  -30.1240   23.9700 C   0  0  0  0  0  3  0  0  0  0  0  0
  -17.5840  -30.6350   24.1480 C   0  0  0  0  0  3  0  0  0  0  0  0
  -16.4700  -29.8790   23.7400 C   0  0  0  0  0  3  0  0  0  0  0  0
  -16.6590  -28.6190   23.1440 C   0  0  0  0  0  3  0  0  0  0  0  0
  -25.8090  -32.5140   23.8370 C   0  0  0  0  0  3  0  0  0  0  0  0
  -26.3370  -31.7360   25.1040 C   0  0  1  0  0  0  0  0  0  0  0  0
  -25.2540  -31.4920   26.1800 C   0  0  0  0  0  1  0  0  0  0  0  0
  -26.9190  -30.3630   24.6970 C   0  0  0  0  0  1  0  0  0  0  0  0
  -27.4920  -32.5280   25.7630 C   0  0  0  0  0  1  0  0  0  0  0  0
  -25.5050  -33.9110   24.1720 N   0  0  0  0  0  0  0  0  0  0  0  0
  -25.8410  -34.9640   23.4140 C   0  0  0  0  0  0  0  0  0  0  0  0
  -26.5100  -34.8610   22.3820 O   0  0  0  0  0  0  0  0  0  0  0  0
  -24.9120  -34.0650   24.9750 H   0  0  0  0  0  0  0  0  0  0  0  0
  -24.1190  -36.7610   23.0550 C   0  0  0  0  0  1  0  0  0  0  0  0
  -25.3540  -36.3510   23.8730 C   0  0  0  0  0  3  0  0  0  0  0  0
  -27.4880  -37.2240   24.7190 C   0  0  0  0  0  1  0  0  0  0  0  0
  -26.3910  -37.4010   23.7720 N   0  0  0  0  0  0  0  0  0  0  0  0
  -25.9860  -38.3210   23.9240 H   0  0  0  0  0  0  0  0  0  0  0  0
  1  3  1  0
  2 11  1  0
  2  1  2  0
  4  2  1  0
  5  4  1  0
  5  6  1  0
  6  7  1  1
  6  3  1  0
  8  9  1  0
 10 13  2  0
 10 11  1  0
 11  8  2  0
 12 23  1  0
 12  9  2  0
 13 12  1  0
 14 13  1  0
 15 23  1  0
 16 21  1  0
 17 18  1  0
 17 16  1  0
 19 18  1  0
 19 28  1  0
 19 20  1  0
 21 15  1  0
 21 20  1  0
 22 15  2  0
 23 24  1  0
 25 26  2  0
 26 45  1  0
 27 26  1  0
 27 30  1  0
 28 25  1  0
 28 29  1  0
 29 27  2  0
 30 31  1  0
 31 32  2  0
 33 36  1  0
 33 32  1  0
 34 33  2  0
 35 34  1  0
 35 30  2  0
 36 37  1  0
 37 38  1  0
 38 39  2  0
 40 39  1  0
 40 44  1  0
 41 40  2  0
 42 37  2  0
 42 41  1  0
 43 42  1  0
 45 46  1  0
 46 49  1  0
 46 48  1  0
 47 45  2  0
 50 51  1  0
 50 25  1  0
 52 50  1  0
 53  6  1  0
 54 53  1  0
 54 55  2  0
 56 58  1  0
 56 54  1  0
 57 68  2  0
 58 63  1  0
 59 67  1  0
 59 69  1  0
 60 66  1  0
 60 62  1  0
 61 67  1  0
 62 61  1  0
 63 62  2  0
 64 65  1  0
 64 58  2  0
 65 60  2  0
 66 59  1  0
 67 57  1  0
 69 71  2  0
 70 69  1  0
 72 70  1  0
 73 82  2  0
 73 78  1  0
 74 70  1  0
 74 78  1  0
 75 74  1  0
 76 77  1  0
 76 75  1  0
 77 73  1  0
 78 79  2  0
 79 80  1  0
 81 80  2  0
 82 81  1  0
 83 57  1  0
 83 88  1  0
 83 84  1  0
 84 87  1  1
 84 85  1  0
 86 84  1  0
 88 91  1  0
 89 93  1  0
 89 88  1  0
 90 89  2  0
 93 92  1  0
 95 93  1  0
 95 96  1  0
 95 94  1  0
M  ISO  4  15 100  23 100  54 101  56 101
M  END
>  <TORSDO>  (18) 
F 19

>  <SCORE>  (18) 
-14.476

>  <name>  (18) 
17

>  <ligand_id>  (18) 
17

>  <original_smiles>  (18) 
[H]C1=C(c2c([H])c([H])c(N([H])C(=O)N3C([H])([H])C([H])([H])C([H])([H])C([H])(n4nc(-c5c([H])c([H])c(Oc6c([H])c([H])c(F)c([H])c6F)c([H])c5[H])c(C(=O)N([H])[H])c4N([H])[H])C3([H])[H])c(Cl)c2[H])C([H])([H])C([H])([H])[N+]([H])(C([H])([H])C(=O)Oc2c([H])c([H])c3c(c2[H])C([H])([H])N(C(=O)C([H])(N([H])C(=O)C([H])(N([H])C([H])([H])[H])C([H])([H])[H])C(C([H])([H])[H])(C([H])([H])[H])C([H])([H])[H])C([H])(C(=O)N([H])C2([H])c4c([H])c([H])c([H])c([H])c4C([H])([H])C([H])([H])C2([H])[H])C3([H])[H])C1([H])[H]

>  <smiles>  (18) 
[H]C1=C(c2c([H])c([H])c(N([H])C(=O)N3C([H])([H])C([H])([H])C([H])([H])C([H])(n4nc(-c5c([H])c([H])c(Oc6c([H])c([H])c(F)c([H])c6F)c([H])c5[H])c(C(=O)N([H])[H])c4N([H])[H])C3([H])[H])c(Cl)c2[H])C([H])([H])C([H])([H])[N+]([H])(C([H])([H])C(=O)Oc2c([H])c([H])c3c(c2[H])C([H])([H])N(C(=O)C([H])(N([H])C(=O)C([H])(N([H])C([H])([H])[H])C([H])([H])[H])C(C([H])([H])[H])(C([H])([H])[H])C([H])([H])[H])C([H])(C(=O)N([H])C2([H])c4c([H])c([H])c([H])c([H])c4C([H])([H])C([H])([H])C2([H])[H])C3([H])[H])C1([H])[H]

$$$$
18:0:0
     RDKit          3D

 94102  0  0  1  0  0  0  0  0999 V2000
  -30.0560  -20.7320   19.8620 C   0  0  0  0  0  0  0  0  0  0  0  0
  -29.1360  -23.0240   20.0360 C   0  0  0  0  0  0  0  0  0  0  0  0
  -29.2510  -21.7050   20.3900 N   0  0  0  0  0  0  0  0  0  0  0  0
  -30.6600  -20.8410   18.7880 O   0  0  0  0  0  0  0  0  0  0  0  0
  -29.8710  -23.5600   19.2010 O   0  0  0  0  0  0  0  0  0  0  0  0
  -28.6850  -21.4170   21.1720 H   0  0  0  0  0  0  0  0  0  0  0  0
  -30.5460  -18.2910   22.7860 C   0  0  0  0  0  3  0  0  0  0  0  0
  -30.3290  -19.4670   22.0440 C   0  0  0  0  0  3  0  0  0  0  0  0
  -30.6470  -17.0430   22.1430 C   0  0  0  0  0  3  0  0  0  0  0  0
  -30.3330  -18.1430   19.9910 C   0  0  0  0  0  3  0  0  0  0  0  0
  -30.2140  -19.4230   20.6370 C   0  0  0  0  0  0  0  0  0  0  0  0
  -30.5440  -16.9390   20.7410 C   0  0  0  0  0  0  0  0  0  0  0  0
  -31.2250  -14.5560   20.0440 C   0  0  0  0  0  0  0  0  0  0  0  0
  -30.9080  -12.3440   18.9600 C   0  0  0  0  0  2  0  0  0  0  0  0
  -29.9320  -12.5380   17.7780 C   0  0  0  0  0  2  0  0  0  0  0  0
  -28.4650  -12.4490   18.2490 C   0  0  0  0  0  2  0  0  0  0  0  0
  -28.1820  -13.3200   19.5010 C   0  0  0  0  0  3  0  0  0  0  0  0
  -29.2580  -13.0870   20.5870 C   0  0  0  0  0  2  0  0  0  0  0  0
  -30.5680  -13.3600   19.9710 N   0  0  0  0  0  0  0  0  0  0  0  0
  -32.4010  -14.6940   19.6940 O   0  0  0  0  0  0  0  0  0  0  0  0
  -30.3770  -15.6090   20.2090 N   0  0  0  0  0  0  0  0  0  0  0  0
  -29.4390  -15.2630   20.3180 H   0  0  0  0  0  0  0  0  0  0  0  0
  -25.8430  -14.0610   20.2650 C   0  0  0  0  0  0  0  0  0  0  0  0
  -24.7410  -13.3520   20.6610 C   0  0  0  0  0  0  0  0  0  0  0  0
  -25.1280  -11.9770   20.6290 C   0  0  0  0  0  0  0  0  0  0  0  0
  -26.8300  -13.1220   20.0120 N   0  0  0  0  0  0  0  0  0  0  0  0
  -26.4060  -11.8630   20.2910 N   0  0  0  0  0  0  0  0  0  0  0  0
  -24.3390  -10.7570   20.8430 C   0  0  0  0  0  0  0  0  0  0  0  0
  -24.7120   -9.7970   21.8080 C   0  0  0  0  0  3  0  0  0  0  0  0
  -23.9300   -8.6390   22.0060 C   0  0  0  0  0  3  0  0  0  0  0  0
  -22.7590   -8.4350   21.2390 C   0  0  0  0  0  0  0  0  0  0  0  0
  -22.4010   -9.3840   20.2630 C   0  0  0  0  0  3  0  0  0  0  0  0
  -23.1850  -10.5340   20.0650 C   0  0  0  0  0  3  0  0  0  0  0  0
  -21.9510   -7.3300   21.3450 O   0  0  0  0  0  0  0  0  0  0  0  0
  -21.8080   -6.6520   22.5300 C   0  0  0  0  0  0  0  0  0  0  0  0
  -21.3470   -7.2910   23.7010 C   0  0  0  0  0  3  0  0  0  0  0  0
  -21.1510   -6.5440   24.8800 C   0  0  0  0  0  3  0  0  0  0  0  0
  -21.4040   -5.1590   24.8860 C   0  0  0  0  0  0  0  0  0  0  0  0
  -21.8570   -4.5210   23.7200 C   0  0  0  0  0  3  0  0  0  0  0  0
  -22.0560   -5.2650   22.5440 C   0  0  0  0  0  0  0  0  0  0  0  0
  -22.4740   -4.6410   21.4150 F   0  0  0  0  0  0  0  0  0  0  0  0
  -21.2080   -4.4390   26.0160 F   0  0  0  0  0  0  0  0  0  0  0  0
  -23.3780  -13.9080   20.9600 C   0  0  0  0  0  0  0  0  0  0  0  0
  -22.6370  -13.2670   21.8580 N   0  0  0  0  0  0  0  0  0  0  0  0
  -22.9800  -14.9470   20.4350 O   0  0  0  0  0  0  0  0  0  0  0  0
  -22.9710  -12.4270   22.3050 H   0  0  0  0  0  0  0  0  0  0  0  0
  -21.7250  -13.6260   22.1000 H   0  0  0  0  0  0  0  0  0  0  0  0
  -26.0790  -15.4190   20.0740 N   0  0  0  0  0  0  0  0  0  0  0  0
  -25.3500  -16.1140   20.1850 H   0  0  0  0  0  0  0  0  0  0  0  0
  -26.9330  -15.8070   19.6970 H   0  0  0  0  0  0  0  0  0  0  0  0
  -26.8900  -23.2020   20.9560 C   0  0  0  0  0  2  0  0  0  0  0  0
  -28.0870  -23.7890   20.7500 C   0  0  0  0  0  0  0  0  0  0  0  0
  -28.3710  -25.2160   21.3070 C   0  0  0  0  0  2  0  0  0  0  0  0
  -28.3740  -26.3330   20.3700 O   0  0  0  0  0  0  0  0  0  0  0  0
  -24.5860  -31.7340   23.2070 C   0  0  0  0  0  0  0  0  0  0  0  0
  -27.2440  -27.1350   20.3410 C   0  0  0  0  0  0  0  0  0  0  0  0
  -23.4120  -30.3110   21.5610 C   0  0  0  0  0  3  0  0  0  0  0  0
  -24.8870  -28.7110   20.2220 C   0  0  0  0  0  0  0  0  0  0  0  0
  -25.9500  -30.6220   21.4340 C   0  0  0  0  0  2  0  0  0  0  0  0
  -26.0360  -29.2260   20.8370 C   0  0  0  0  0  0  0  0  0  0  0  0
  -27.2220  -28.4450   20.8900 C   0  0  0  0  0  3  0  0  0  0  0  0
  -26.0830  -26.6510   19.7080 C   0  0  0  0  0  3  0  0  0  0  0  0
  -24.9060  -27.4270   19.6540 C   0  0  0  0  0  3  0  0  0  0  0  0
  -23.6590  -29.5980   20.2030 C   0  0  0  0  0  2  0  0  0  0  0  0
  -24.6670  -30.9060   22.1250 N   0  0  0  0  0  0  0  0  0  0  0  0
  -23.4910  -32.0340   23.7060 O   0  0  0  0  0  0  0  0  0  0  0  0
  -22.7140  -29.3210   22.5230 C   0  0  0  0  0  0  0  0  0  0  0  0
  -21.3920  -29.1500   22.3560 N   0  0  0  0  0  0  0  0  0  0  0  0
  -23.3610  -28.7080   23.3760 O   0  0  0  0  0  0  0  0  0  0  0  0
  -20.9300  -29.7010   21.6470 H   0  0  0  0  0  0  0  0  0  0  0  0
  -17.9900  -27.9980   22.7700 C   0  0  0  0  0  0  0  0  0  0  0  0
  -20.5400  -28.2410   23.1260 C   0  0  0  0  0  3  0  0  0  0  0  0
  -20.6460  -26.7940   22.5940 C   0  0  0  0  0  2  0  0  0  0  0  0
  -19.5760  -26.4540   21.5500 C   0  0  0  0  0  2  0  0  0  0  0  0
  -18.1750  -26.6280   22.1410 C   0  0  0  0  0  2  0  0  0  0  0  0
  -19.1000  -28.7610   23.2200 C   0  0  0  0  0  0  0  0  0  0  0  0
  -18.8710  -30.0430   23.7670 C   0  0  0  0  0  3  0  0  0  0  0  0
  -17.5650  -30.5580   23.8730 C   0  0  0  0  0  3  0  0  0  0  0  0
  -16.4690  -29.7920   23.4400 C   0  0  0  0  0  3  0  0  0  0  0  0
  -16.6830  -28.5140   22.8930 C   0  0  0  0  0  3  0  0  0  0  0  0
  -25.8580  -32.3660   23.8520 C   0  0  0  0  0  3  0  0  0  0  0  0
  -26.3600  -31.5880   25.1320 C   0  0  1  0  0  0  0  0  0  0  0  0
  -25.2540  -31.3320   26.1820 C   0  0  0  0  0  1  0  0  0  0  0  0
  -26.9590  -30.2180   24.7350 C   0  0  0  0  0  1  0  0  0  0  0  0
  -27.4940  -32.3830   25.8180 C   0  0  0  0  0  1  0  0  0  0  0  0
  -25.5420  -33.7610   24.1880 N   0  0  0  0  0  0  0  0  0  0  0  0
  -25.8740  -34.8180   23.4330 C   0  0  0  0  0  0  0  0  0  0  0  0
  -26.5520  -34.7200   22.4070 O   0  0  0  0  0  0  0  0  0  0  0  0
  -24.9430  -33.9090   24.9870 H   0  0  0  0  0  0  0  0  0  0  0  0
  -24.1330  -36.5980   23.0730 C   0  0  0  0  0  1  0  0  0  0  0  0
  -25.3740  -36.2020   23.8890 C   0  0  0  0  0  3  0  0  0  0  0  0
  -27.5020  -37.1000   24.7260 C   0  0  0  0  0  1  0  0  0  0  0  0
  -26.3990  -37.2630   23.7830 N   0  0  0  0  0  0  0  0  0  0  0  0
  -25.9880  -38.1780   23.9330 H   0  0  0  0  0  0  0  0  0  0  0  0
  1  3  1  0
  1 11  1  0
  2  3  1  0
  2 52  1  0
  3  6  1  0
  4  1  2  0
  5  2  2  0
  8  7  2  0
  9  7  1  0
 10 11  2  0
 10 12  1  0
 11  8  1  0
 12  9  2  0
 13 21  1  0
 14 19  1  0
 15 16  1  0
 15 14  1  0
 17 16  1  0
 17 26  1  0
 17 18  1  0
 19 13  1  0
 19 18  1  0
 20 13  2  0
 21 22  1  0
 21 12  1  0
 23 24  2  0
 24 43  1  0
 25 24  1  0
 25 28  1  0
 26 23  1  0
 26 27  1  0
 27 25  2  0
 28 29  1  0
 29 30  2  0
 31 34  1  0
 31 30  1  0
 32 31  2  0
 33 32  1  0
 33 28  2  0
 34 35  1  0
 35 40  2  0
 35 36  1  0
 36 37  2  0
 37 38  1  0
 38 42  1  0
 39 38  2  0
 40 39  1  0
 41 40  1  0
 43 44  1  0
 44 47  1  0
 44 46  1  0
 45 43  2  0
 48 49  1  0
 48 23  1  0
 50 48  1  0
 52 51  2  0
 52 53  1  0
 54 53  1  0
 55 66  2  0
 56 54  1  0
 56 61  1  0
 57 65  1  0
 57 67  1  0
 58 60  1  0
 59 65  1  0
 60 61  2  0
 60 59  1  0
 62 56  2  0
 63 62  1  0
 63 58  2  0
 64 58  1  0
 64 57  1  0
 65 55  1  0
 67 69  2  0
 68 67  1  0
 70 68  1  0
 71 80  2  0
 71 76  1  0
 72 68  1  0
 72 76  1  0
 73 72  1  0
 74 75  1  0
 74 73  1  0
 75 71  1  0
 76 77  2  0
 77 78  1  0
 79 78  2  0
 80 79  1  0
 81 55  1  0
 81 86  1  0
 81 82  1  0
 82 85  1  1
 82 83  1  0
 84 82  1  0
 86 89  1  0
 87 91  1  0
 87 86  1  0
 88 87  2  0
 91 90  1  0
 93 91  1  0
 93 94  1  0
 93 92  1  0
M  ISO  4  13 100  21 100  53 101  54 101
M  END
>  <TORSDO>  (19) 
F 19

>  <SCORE>  (19) 
-13.328

>  <name>  (19) 
18

>  <ligand_id>  (19) 
18

>  <original_smiles>  (19) 
[H]C([H])=C(C(=O)N([H])C(=O)c1c([H])c([H])c([H])c(N([H])C(=O)N2C([H])([H])C([H])([H])C([H])([H])C([H])(n3nc(-c4c([H])c([H])c(Oc5c([H])c([H])c(F)c([H])c5F)c([H])c4[H])c(C(=O)N([H])[H])c3N([H])[H])C2([H])[H])c1[H])C([H])([H])Oc1c([H])c([H])c2c(c1[H])C([H])([H])N(C(=O)C([H])(N([H])C(=O)C([H])(N([H])C([H])([H])[H])C([H])([H])[H])C(C([H])([H])[H])(C([H])([H])[H])C([H])([H])[H])C([H])(C(=O)N([H])C1([H])c3c([H])c([H])c([H])c([H])c3C([H])([H])C([H])([H])C1([H])[H])C2([H])[H]

>  <smiles>  (19) 
[H]C([H])=C(C(=O)N([H])C(=O)c1c([H])c([H])c([H])c(N([H])C(=O)N2C([H])([H])C([H])([H])C([H])([H])C([H])(n3nc(-c4c([H])c([H])c(Oc5c([H])c([H])c(F)c([H])c5F)c([H])c4[H])c(C(=O)N([H])[H])c3N([H])[H])C2([H])[H])c1[H])C([H])([H])Oc1c([H])c([H])c2c(c1[H])C([H])([H])N(C(=O)C([H])(N([H])C(=O)C([H])(N([H])C([H])([H])[H])C([H])([H])[H])C(C([H])([H])[H])(C([H])([H])[H])C([H])([H])[H])C([H])(C(=O)N([H])C1([H])c3c([H])c([H])c([H])c([H])c3C([H])([H])C([H])([H])C1([H])[H])C2([H])[H]

$$$$
19:0:0
     RDKit          3D

 95104  0  0  1  0  0  0  0  0999 V2000
  -29.0780  -24.0520   19.8090 C   0  0  0  0  0  0  0  0  0  0  0  0
  -28.9290  -22.6500   20.3070 C   0  0  0  0  0  0  0  0  0  0  0  0
  -30.4160  -22.4920   18.6510 C   0  0  0  0  0  0  0  0  0  0  0  0
  -28.4290  -25.1770   20.2980 C   0  0  0  0  0  3  0  0  0  0  0  0
  -30.0610  -23.9800   18.6840 C   0  0  0  0  0  2  0  0  0  0  0  0
  -29.7360  -21.7860   19.5860 N   0  0  0  0  0  0  0  0  0  0  0  0
  -28.1870  -22.2860   21.2270 O   0  0  0  0  0  0  0  0  0  0  0  0
  -31.2430  -22.0360   17.8530 O   0  0  0  0  0  0  0  0  0  0  0  0
  -30.6610  -19.7910   20.8870 C   0  0  0  0  0  3  0  0  0  0  0  0
  -29.5050  -19.3130   18.8580 C   0  0  0  0  0  3  0  0  0  0  0  0
  -30.9140  -18.3900   21.0510 C   0  0  0  0  0  3  0  0  0  0  0  0
  -29.7470  -17.9030   19.0340 C   0  0  0  0  0  3  0  0  0  0  0  0
  -29.9370  -20.3160   19.7850 C   0  0  0  0  0  0  0  0  0  0  0  0
  -30.4550  -17.3700   20.1540 C   0  0  0  0  0  0  0  0  0  0  0  0
  -31.0660  -14.8990   19.5990 C   0  0  0  0  0  0  0  0  0  0  0  0
  -30.6760  -12.6900   18.4630 C   0  0  0  0  0  2  0  0  0  0  0  0
  -29.5730  -12.8030   17.3870 C   0  0  0  0  0  2  0  0  0  0  0  0
  -28.1820  -12.5840   18.0120 C   0  0  0  0  0  2  0  0  0  0  0  0
  -27.9820  -13.4280   19.2960 C   0  0  0  0  0  3  0  0  0  0  0  0
  -29.1800  -13.2870   20.2530 C   0  0  0  0  0  2  0  0  0  0  0  0
  -30.3980  -13.6870   19.5270 N   0  0  0  0  0  0  0  0  0  0  0  0
  -32.0720  -15.0750   18.9030 O   0  0  0  0  0  0  0  0  0  0  0  0
  -30.6190  -15.9050   20.4590 N   0  0  0  0  0  0  0  0  0  0  0  0
  -25.7560  -13.9900   20.4430 C   0  0  0  0  0  0  0  0  0  0  0  0
  -24.7380  -13.2030   20.9090 C   0  0  0  0  0  0  0  0  0  0  0  0
  -25.1510  -11.8530   20.6890 C   0  0  0  0  0  0  0  0  0  0  0  0
  -26.7210  -13.1180   19.9650 N   0  0  0  0  0  0  0  0  0  0  0  0
  -26.3740  -11.8220   20.1730 N   0  0  0  0  0  0  0  0  0  0  0  0
  -24.4270  -10.5900   20.8840 C   0  0  0  0  0  0  0  0  0  0  0  0
  -24.8820   -9.6090   21.7930 C   0  0  0  0  0  3  0  0  0  0  0  0
  -24.1580   -8.4110   21.9740 C   0  0  0  0  0  3  0  0  0  0  0  0
  -22.9650   -8.1850   21.2470 C   0  0  0  0  0  0  0  0  0  0  0  0
  -22.5300   -9.1540   20.3270 C   0  0  0  0  0  3  0  0  0  0  0  0
  -23.2540  -10.3440   20.1430 C   0  0  0  0  0  3  0  0  0  0  0  0
  -22.2100   -7.0400   21.3400 O   0  0  0  0  0  0  0  0  0  0  0  0
  -22.0740   -6.3610   22.5240 C   0  0  0  0  0  0  0  0  0  0  0  0
  -21.5530   -6.9800   23.6820 C   0  0  0  0  0  3  0  0  0  0  0  0
  -21.3670   -6.2260   24.8590 C   0  0  0  0  0  3  0  0  0  0  0  0
  -21.6900   -4.8560   24.8770 C   0  0  0  0  0  0  0  0  0  0  0  0
  -22.2040   -4.2390   23.7240 C   0  0  0  0  0  3  0  0  0  0  0  0
  -22.3930   -4.9890   22.5500 C   0  0  0  0  0  0  0  0  0  0  0  0
  -22.8690   -4.3840   21.4350 F   0  0  0  0  0  0  0  0  0  0  0  0
  -21.5030   -4.1310   26.0040 F   0  0  0  0  0  0  0  0  0  0  0  0
  -23.4160  -13.6750   21.4410 C   0  0  0  0  0  0  0  0  0  0  0  0
  -22.8490  -12.9540   22.4040 N   0  0  0  0  0  0  0  0  0  0  0  0
  -22.9000  -14.7160   21.0370 O   0  0  0  0  0  0  0  0  0  0  0  0
  -23.2820  -12.1090   22.7470 H   0  0  0  0  0  0  0  0  0  0  0  0
  -21.9700  -13.2500   22.8020 H   0  0  0  0  0  0  0  0  0  0  0  0
  -25.9360  -15.3670   20.3630 N   0  0  0  0  0  0  0  0  0  0  0  0
  -25.2180  -16.0270   20.6410 H   0  0  0  0  0  0  0  0  0  0  0  0
  -26.7490  -15.8150   19.9600 H   0  0  0  0  0  0  0  0  0  0  0  0
  -30.8420  -15.5700   21.8850 C   0  0  0  0  0  2  0  0  0  0  0  0
  -30.9400  -17.3760   23.6560 C   0  0  0  0  0  2  0  0  0  0  0  0
  -30.2280  -16.5900   22.8320 C   0  0  0  0  0  3  0  0  0  0  0  0
  -28.5840  -26.5390   19.9140 O   0  0  0  0  0  0  0  0  0  0  0  0
  -24.7290  -31.8420   23.0660 C   0  0  0  0  0  0  0  0  0  0  0  0
  -27.4640  -27.3900   19.9350 C   0  0  0  0  0  0  0  0  0  0  0  0
  -23.5660  -30.4390   21.4020 C   0  0  0  0  0  3  0  0  0  0  0  0
  -25.0600  -28.9520   19.9460 C   0  0  0  0  0  0  0  0  0  0  0  0
  -26.0970  -30.8260   21.2240 C   0  0  0  0  0  2  0  0  0  0  0  0
  -26.2170  -29.4590   20.5560 C   0  0  0  0  0  0  0  0  0  0  0  0
  -27.4230  -28.6900   20.5400 C   0  0  0  0  0  3  0  0  0  0  0  0
  -26.2850  -26.9420   19.3030 C   0  0  0  0  0  3  0  0  0  0  0  0
  -25.0970  -27.7010   19.3110 C   0  0  0  0  0  3  0  0  0  0  0  0
  -23.8000  -29.7930   20.0090 C   0  0  0  0  0  2  0  0  0  0  0  0
  -24.8170  -31.0540   21.9540 N   0  0  0  0  0  0  0  0  0  0  0  0
  -23.6390  -32.0790   23.6050 O   0  0  0  0  0  0  0  0  0  0  0  0
  -22.9310  -29.3890   22.3440 C   0  0  0  0  0  0  0  0  0  0  0  0
  -21.6070  -29.1950   22.2280 N   0  0  0  0  0  0  0  0  0  0  0  0
  -23.6290  -28.7530   23.1370 O   0  0  0  0  0  0  0  0  0  0  0  0
  -21.1000  -29.7590   21.5590 H   0  0  0  0  0  0  0  0  0  0  0  0
  -18.2580  -27.9140   22.7230 C   0  0  0  0  0  0  0  0  0  0  0  0
  -20.8130  -28.2240   22.9850 C   0  0  0  0  0  3  0  0  0  0  0  0
  -20.9410  -26.8070   22.3780 C   0  0  0  0  0  2  0  0  0  0  0  0
  -19.8400  -26.4800   21.3650 C   0  0  0  0  0  2  0  0  0  0  0  0
  -18.4600  -26.5830   22.0200 C   0  0  0  0  0  2  0  0  0  0  0  0
  -19.3620  -28.6920   23.1620 C   0  0  0  0  0  0  0  0  0  0  0  0
  -19.1190  -29.9370   23.7810 C   0  0  0  0  0  3  0  0  0  0  0  0
  -17.8050  -30.4040   23.9660 C   0  0  0  0  0  3  0  0  0  0  0  0
  -16.7150  -29.6240   23.5430 C   0  0  0  0  0  3  0  0  0  0  0  0
  -16.9430  -28.3800   22.9260 C   0  0  0  0  0  3  0  0  0  0  0  0
  -25.9940  -32.4990   23.7000 C   0  0  0  0  0  3  0  0  0  0  0  0
  -26.5610  -31.6900   24.9310 C   0  0  1  0  0  0  0  0  0  0  0  0
  -25.4880  -31.3290   25.9870 C   0  0  0  0  0  1  0  0  0  0  0  0
  -27.2190  -30.3700   24.4630 C   0  0  0  0  0  1  0  0  0  0  0  0
  -27.6690  -32.5110   25.6320 C   0  0  0  0  0  1  0  0  0  0  0  0
  -25.6290  -33.8650   24.1050 N   0  0  0  0  0  0  0  0  0  0  0  0
  -25.9480  -34.9720   23.4210 C   0  0  0  0  0  0  0  0  0  0  0  0
  -26.6510  -34.9520   22.4050 O   0  0  0  0  0  0  0  0  0  0  0  0
  -25.0020  -33.9510   24.8920 H   0  0  0  0  0  0  0  0  0  0  0  0
  -24.1790  -36.7360   23.1210 C   0  0  0  0  0  1  0  0  0  0  0  0
  -25.4060  -36.3150   23.9480 C   0  0  0  0  0  3  0  0  0  0  0  0
  -27.4940  -37.2010   24.8900 C   0  0  0  0  0  1  0  0  0  0  0  0
  -26.4090  -37.4010   23.9320 N   0  0  0  0  0  0  0  0  0  0  0  0
  -25.9740  -38.2990   24.1280 H   0  0  0  0  0  0  0  0  0  0  0  0
  1  4  2  0
  1  2  1  0
  2  7  2  0
  3  5  1  0
  3  6  1  0
  5  1  1  0
  6 13  1  0
  6  2  1  0
  8  3  2  0
  9 11  1  0
 10 12  2  0
 10 13  1  0
 12 14  1  0
 13  9  2  0
 14 23  1  0
 14 11  2  0
 15 23  1  0
 16 21  1  0
 17 18  1  0
 17 16  1  0
 19 18  1  0
 19 27  1  0
 19 20  1  0
 21 15  1  0
 21 20  1  0
 22 15  2  0
 23 52  1  0
 24 25  2  0
 25 44  1  0
 26 29  1  0
 26 25  1  0
 27 28  1  0
 27 24  1  0
 28 26  2  0
 29 30  1  0
 30 31  2  0
 32 35  1  0
 32 31  1  0
 33 32  2  0
 34 33  1  0
 34 29  2  0
 35 36  1  0
 36 41  2  0
 36 37  1  0
 37 38  2  0
 38 39  1  0
 39 43  1  0
 40 39  2  0
 41 40  1  0
 42 41  1  0
 44 45  1  0
 45 47  1  0
 45 48  1  0
 46 44  2  0
 49 24  1  0
 49 50  1  0
 51 49  1  0
 52 54  1  0
 54 53  2  0
 55 57  1  0
 55  4  1  0
 56 67  2  0
 57 62  1  0
 58 66  1  0
 58 68  1  0
 59 65  1  0
 59 61  1  0
 60 66  1  0
 61 60  1  0
 62 61  2  0
 63 64  1  0
 63 57  2  0
 64 59  2  0
 65 58  1  0
 66 56  1  0
 68 70  2  0
 69 68  1  0
 71 69  1  0
 72 81  2  0
 72 77  1  0
 73 69  1  0
 73 77  1  0
 74 73  1  0
 75 76  1  0
 75 74  1  0
 76 72  1  0
 77 78  2  0
 78 79  1  0
 80 79  2  0
 81 80  1  0
 82 56  1  0
 82 87  1  0
 82 83  1  0
 83 86  1  1
 83 84  1  0
 85 83  1  0
 87 90  1  0
 88 92  1  0
 88 87  1  0
 89 88  2  0
 92 91  1  0
 94 92  1  0
 94 95  1  0
 94 93  1  0
M  ISO  4   4 101  15 100  23 100  55 101
M  END
>  <TORSDO>  (20) 
F 19

>  <SCORE>  (20) 
-11.419

>  <name>  (20) 
19

>  <ligand_id>  (20) 
19

>  <original_smiles>  (20) 
[H]C([H])=C([H])C([H])([H])N(C(=O)N1C([H])([H])C([H])([H])C([H])([H])C([H])(n2nc(-c3c([H])c([H])c(Oc4c([H])c([H])c(F)c([H])c4F)c([H])c3[H])c(C(=O)N([H])[H])c2N([H])[H])C1([H])[H])c1c([H])c([H])c(N2C(=O)C(=C([H])Oc3c([H])c([H])c4c(c3[H])C([H])([H])N(C(=O)C([H])(N([H])C(=O)C([H])(N([H])C([H])([H])[H])C([H])([H])[H])C(C([H])([H])[H])(C([H])([H])[H])C([H])([H])[H])C([H])(C(=O)N([H])C3([H])c5c([H])c([H])c([H])c([H])c5C([H])([H])C([H])([H])C3([H])[H])C4([H])[H])C([H])([H])C2=O)c([H])c1[H]

>  <smiles>  (20) 
[H]C([H])=C([H])C([H])([H])N(C(=O)N1C([H])([H])C([H])([H])C([H])([H])C([H])(n2nc(-c3c([H])c([H])c(Oc4c([H])c([H])c(F)c([H])c4F)c([H])c3[H])c(C(=O)N([H])[H])c2N([H])[H])C1([H])[H])c1c([H])c([H])c(N2C(=O)C(=C([H])Oc3c([H])c([H])c4c(c3[H])C([H])([H])N(C(=O)C([H])(N([H])C(=O)C([H])(N([H])C([H])([H])[H])C([H])([H])[H])C(C([H])([H])[H])(C([H])([H])[H])C([H])([H])[H])C([H])(C(=O)N([H])C3([H])c5c([H])c([H])c([H])c([H])c5C([H])([H])C([H])([H])C3([H])[H])C4([H])[H])C([H])([H])C2=O)c([H])c1[H]

$$$$
20:0:0
     RDKit          3D

 91100  0  0  1  0  0  0  0  0999 V2000
  -28.7060  -24.4180   19.4090 C   0  0  0  0  0  0  0  0  0  0  0  0
  -28.7000  -23.6040   20.6000 C   0  0  0  0  0  0  0  0  0  0  0  0
  -28.5910  -25.7440   19.1720 C   0  0  0  0  0  3  0  0  0  0  0  0
  -28.9120  -23.2010   18.5390 C   0  0  0  0  0  2  0  0  0  0  0  0
  -28.6990  -22.4590   19.7930 N   0  0  0  0  0  0  0  0  0  0  0  0
  -28.8050  -23.8760   21.7790 O   0  0  0  0  0  0  0  0  0  0  0  0
  -28.8120  -18.7690   20.7270 C   0  0  0  0  0  3  0  0  0  0  0  0
  -30.7230  -19.2840   19.3500 C   0  0  0  0  0  3  0  0  0  0  0  0
  -28.4240  -20.1330   20.6580 C   0  0  0  0  0  3  0  0  0  0  0  0
  -30.3190  -20.6310   19.2810 C   0  0  0  0  0  3  0  0  0  0  0  0
  -29.9750  -18.3250   20.0640 C   0  0  0  0  0  0  0  0  0  0  0  0
  -29.1470  -21.1050   19.9160 C   0  0  0  0  0  0  0  0  0  0  0  0
  -30.4640  -16.9260   20.0170 C   0  0  0  0  0  3  0  0  0  0  0  0
  -29.9440  -15.7640   20.4950 C   0  0  0  0  0  3  0  0  0  0  0  0
  -30.6900  -14.5220   20.2220 C   0  0  0  0  0  0  0  0  0  0  0  0
  -30.3230  -12.3310   19.1800 C   0  0  0  0  0  2  0  0  0  0  0  0
  -29.3640  -12.5340   17.9890 C   0  0  0  0  0  2  0  0  0  0  0  0
  -27.8990  -12.4120   18.4530 C   0  0  0  0  0  2  0  0  0  0  0  0
  -27.5940  -13.2640   19.7160 C   0  0  0  0  0  3  0  0  0  0  0  0
  -28.6800  -13.0820   20.7980 C   0  0  0  0  0  2  0  0  0  0  0  0
  -29.9880  -13.3530   20.1880 N   0  0  0  0  0  0  0  0  0  0  0  0
  -31.8590  -14.5610   19.8310 O   0  0  0  0  0  0  0  0  0  0  0  0
  -25.2310  -13.8680   20.5260 C   0  0  0  0  0  0  0  0  0  0  0  0
  -24.1690  -13.0960   20.9150 C   0  0  0  0  0  0  0  0  0  0  0  0
  -24.6190  -11.7410   20.8400 C   0  0  0  0  0  0  0  0  0  0  0  0
  -26.2590  -12.9850   20.2390 N   0  0  0  0  0  0  0  0  0  0  0  0
  -25.8980  -11.7000   20.4880 N   0  0  0  0  0  0  0  0  0  0  0  0
  -23.8880  -10.4820   21.0300 C   0  0  0  0  0  0  0  0  0  0  0  0
  -24.3300   -9.5000   21.9460 C   0  0  0  0  0  3  0  0  0  0  0  0
  -23.5990   -8.3060   22.1230 C   0  0  0  0  0  3  0  0  0  0  0  0
  -22.4120   -8.0830   21.3850 C   0  0  0  0  0  0  0  0  0  0  0  0
  -21.9900   -9.0520   20.4580 C   0  0  0  0  0  3  0  0  0  0  0  0
  -22.7210  -10.2380   20.2790 C   0  0  0  0  0  3  0  0  0  0  0  0
  -21.6530   -6.9410   21.4730 O   0  0  0  0  0  0  0  0  0  0  0  0
  -21.6010   -6.1970   22.6240 C   0  0  0  0  0  0  0  0  0  0  0  0
  -21.1610   -6.7490   23.8470 C   0  0  0  0  0  3  0  0  0  0  0  0
  -21.0560   -5.9310   24.9900 C   0  0  0  0  0  3  0  0  0  0  0  0
  -21.3830   -4.5630   24.9120 C   0  0  0  0  0  0  0  0  0  0  0  0
  -21.8160   -4.0120   23.6930 C   0  0  0  0  0  3  0  0  0  0  0  0
  -21.9220   -4.8270   22.5520 C   0  0  0  0  0  0  0  0  0  0  0  0
  -22.3200   -4.2860   21.3750 F   0  0  0  0  0  0  0  0  0  0  0  0
  -21.2750   -3.7760   26.0070 F   0  0  0  0  0  0  0  0  0  0  0  0
  -22.7870  -13.5780   21.2440 C   0  0  0  0  0  0  0  0  0  0  0  0
  -22.0840  -12.8710   22.1220 N   0  0  0  0  0  0  0  0  0  0  0  0
  -22.3380  -14.6160   20.7580 O   0  0  0  0  0  0  0  0  0  0  0  0
  -22.4590  -12.0310   22.5370 H   0  0  0  0  0  0  0  0  0  0  0  0
  -21.1560  -13.1760   22.3850 H   0  0  0  0  0  0  0  0  0  0  0  0
  -25.4020  -15.2400   20.3700 N   0  0  0  0  0  0  0  0  0  0  0  0
  -24.6500  -15.9040   20.5170 H   0  0  0  0  0  0  0  0  0  0  0  0
  -26.2500  -15.6750   20.0240 H   0  0  0  0  0  0  0  0  0  0  0  0
  -28.4050  -26.7110   20.1330 O   0  0  0  0  0  0  0  0  0  0  0  0
  -24.6320  -31.9040   23.2210 C   0  0  0  0  0  0  0  0  0  0  0  0
  -27.2430  -27.4590   20.1040 C   0  0  0  0  0  0  0  0  0  0  0  0
  -23.4090  -30.5010   21.5940 C   0  0  0  0  0  3  0  0  0  0  0  0
  -24.8460  -28.9670   20.1510 C   0  0  0  0  0  0  0  0  0  0  0  0
  -25.9320  -30.8600   21.3660 C   0  0  0  0  0  2  0  0  0  0  0  0
  -26.0120  -29.4900   20.7240 C   0  0  0  0  0  0  0  0  0  0  0  0
  -27.2120  -28.7420   20.7020 C   0  0  0  0  0  3  0  0  0  0  0  0
  -26.0520  -26.9470   19.5390 C   0  0  0  0  0  3  0  0  0  0  0  0
  -24.8610  -27.6950   19.5560 C   0  0  0  0  0  3  0  0  0  0  0  0
  -23.6020  -29.8230   20.2110 C   0  0  0  0  0  2  0  0  0  0  0  0
  -24.6780  -31.1030   22.1190 N   0  0  0  0  0  0  0  0  0  0  0  0
  -23.5570  -32.1750   23.7730 O   0  0  0  0  0  0  0  0  0  0  0  0
  -22.7710  -29.4780   22.5610 C   0  0  0  0  0  0  0  0  0  0  0  0
  -21.4450  -29.2920   22.4460 N   0  0  0  0  0  0  0  0  0  0  0  0
  -23.4630  -28.8560   23.3700 O   0  0  0  0  0  0  0  0  0  0  0  0
  -20.9480  -29.8460   21.7640 H   0  0  0  0  0  0  0  0  0  0  0  0
  -18.0800  -28.0860   22.9680 C   0  0  0  0  0  0  0  0  0  0  0  0
  -20.6380  -28.3530   23.2240 C   0  0  0  0  0  3  0  0  0  0  0  0
  -20.7420  -26.9210   22.6500 C   0  0  0  0  0  2  0  0  0  0  0  0
  -19.6340  -26.5920   21.6430 C   0  0  0  0  0  2  0  0  0  0  0  0
  -18.2560  -26.7350   22.2960 C   0  0  0  0  0  2  0  0  0  0  0  0
  -19.1990  -28.8530   23.3890 C   0  0  0  0  0  0  0  0  0  0  0  0
  -18.9800  -30.1180   23.9770 C   0  0  0  0  0  3  0  0  0  0  0  0
  -17.6750  -30.6170   24.1480 C   0  0  0  0  0  3  0  0  0  0  0  0
  -16.5700  -29.8470   23.7440 C   0  0  0  0  0  3  0  0  0  0  0  0
  -16.7740  -28.5840   23.1610 C   0  0  0  0  0  3  0  0  0  0  0  0
  -25.9250  -32.5350   23.8250 C   0  0  0  0  0  3  0  0  0  0  0  0
  -25.6180  -33.9310   24.1640 N   0  0  0  0  0  0  0  0  0  0  0  0
  -25.9300  -34.9860   23.3990 C   0  0  0  0  0  0  0  0  0  0  0  0
  -26.5770  -34.8860   22.3530 O   0  0  0  0  0  0  0  0  0  0  0  0
  -25.0400  -34.0830   24.9780 H   0  0  0  0  0  0  0  0  0  0  0  0
  -24.1830  -36.7680   23.0850 C   0  0  0  0  0  1  0  0  0  0  0  0
  -25.4440  -36.3720   23.8670 C   0  0  0  0  0  3  0  0  0  0  0  0
  -27.5910  -37.2700   24.6520 C   0  0  0  0  0  1  0  0  0  0  0  0
  -26.4680  -37.4290   23.7310 N   0  0  0  0  0  0  0  0  0  0  0  0
  -26.0610  -38.3480   23.8830 H   0  0  0  0  0  0  0  0  0  0  0  0
  -26.4650  -31.7590   25.0890 C   0  0  1  0  0  0  0  0  0  0  0  0
  -25.3890  -31.5090   26.1720 C   0  0  0  0  0  1  0  0  0  0  0  0
  -27.0480  -30.3880   24.6770 C   0  0  0  0  0  1  0  0  0  0  0  0
  -27.6210  -32.5540   25.7390 C   0  0  0  0  0  1  0  0  0  0  0  0
  1  2  1  0
  2  6  2  0
  3  1  2  0
  3 51  1  0
  4  1  1  0
  4  5  1  0
  5 12  1  0
  5  2  1  0
  8 11  1  0
  9  7  1  0
 10  8  2  0
 10 12  1  0
 11  7  2  0
 12  9  2  0
 13 11  1  0
 13 14  2  0
 15 14  1  0
 16 21  1  0
 17 18  1  0
 17 16  1  0
 19 18  1  0
 19 26  1  0
 19 20  1  0
 21 15  1  0
 21 20  1  0
 22 15  2  0
 23 24  2  0
 24 43  1  0
 25 24  1  0
 25 28  1  0
 26 27  1  0
 26 23  1  0
 27 25  2  0
 28 29  1  0
 29 30  2  0
 31 34  1  0
 31 30  1  0
 32 31  2  0
 33 32  1  0
 33 28  2  0
 34 35  1  0
 35 36  1  0
 36 37  2  0
 38 37  1  0
 38 42  1  0
 39 38  2  0
 40 35  2  0
 40 39  1  0
 41 40  1  0
 43 44  1  0
 44 47  1  0
 44 46  1  0
 45 43  2  0
 48 49  1  0
 48 23  1  0
 50 48  1  0
 52 63  2  0
 53 51  1  0
 53 58  1  0
 54 62  1  0
 54 64  1  0
 55 61  1  0
 55 57  1  0
 56 62  1  0
 57 56  1  0
 58 57  2  0
 59 60  1  0
 59 53  2  0
 60 55  2  0
 61 54  1  0
 62 52  1  0
 64 66  2  0
 65 64  1  0
 67 65  1  0
 68 77  2  0
 68 73  1  0
 69 65  1  0
 69 73  1  0
 70 69  1  0
 71 72  1  0
 71 70  1  0
 72 68  1  0
 73 74  2  0
 74 75  1  0
 76 75  2  0
 77 76  1  0
 78 52  1  0
 78 79  1  0
 78 88  1  0
 79 82  1  0
 80 84  1  0
 80 79  1  0
 81 80  2  0
 84 83  1  0
 86 84  1  0
 86 87  1  0
 86 85  1  0
 88 91  1  1
 88 89  1  0
 90 88  1  0
M  ISO  4   3 101  14 100  15 100  51 101
M  END
>  <TORSDO>  (21) 
F 18

>  <SCORE>  (21) 
-14.544

>  <name>  (21) 
20

>  <ligand_id>  (21) 
20

>  <original_smiles>  (21) 
[H]C(Oc1c([H])c([H])c2c(c1[H])C([H])([H])N(C(=O)C([H])(N([H])C(=O)C([H])(N([H])C([H])([H])[H])C([H])([H])[H])C(C([H])([H])[H])(C([H])([H])[H])C([H])([H])[H])C([H])(C(=O)N([H])C1([H])c3c([H])c([H])c([H])c([H])c3C([H])([H])C([H])([H])C1([H])[H])C2([H])[H])=C1C(=O)N(c2c([H])c([H])c(C([H])=C([H])C(=O)N3C([H])([H])C([H])([H])C([H])([H])C([H])(n4nc(-c5c([H])c([H])c(Oc6c([H])c([H])c(F)c([H])c6F)c([H])c5[H])c(C(=O)N([H])[H])c4N([H])[H])C3([H])[H])c([H])c2[H])C1([H])[H]

>  <smiles>  (21) 
[H]C(Oc1c([H])c([H])c2c(c1[H])C([H])([H])N(C(=O)C([H])(N([H])C(=O)C([H])(N([H])C([H])([H])[H])C([H])([H])[H])C(C([H])([H])[H])(C([H])([H])[H])C([H])([H])[H])C([H])(C(=O)N([H])C1([H])c3c([H])c([H])c([H])c([H])c3C([H])([H])C([H])([H])C1([H])[H])C2([H])[H])=C1C(=O)N(c2c([H])c([H])c(C([H])=C([H])C(=O)N3C([H])([H])C([H])([H])C([H])([H])C([H])(n4nc(-c5c([H])c([H])c(Oc6c([H])c([H])c(F)c([H])c6F)c([H])c5[H])c(C(=O)N([H])[H])c4N([H])[H])C3([H])[H])c([H])c2[H])C1([H])[H]

$$$$
21:0:0
     RDKit          3D

 88 96  0  0  1  0  0  0  0  0999 V2000
  -28.8800  -19.2920   20.2820 C   0  0  0  0  0  3  0  0  0  0  0  0
  -31.1720  -19.5910   19.6670 C   0  0  0  0  0  3  0  0  0  0  0  0
  -28.6740  -20.7140   20.1820 C   0  0  0  0  0  3  0  0  0  0  0  0
  -30.9730  -20.9970   19.5750 C   0  0  0  0  0  3  0  0  0  0  0  0
  -30.1420  -18.6780   20.0270 C   0  0  0  0  0  0  0  0  0  0  0  0
  -29.7230  -21.6140   19.8270 C   0  0  0  0  0  0  0  0  0  0  0  0
  -28.9540  -24.0830   19.6990 C   0  0  0  0  0  2  0  0  0  0  0  0
  -28.4410  -25.3040   19.4680 C   0  0  0  0  0  2  0  0  0  0  0  0
  -29.6270  -23.0390   19.6330 N   0  0  0  0  0  2  0  0  0  0  0  0
  -28.3640  -26.4920   20.2260 O   0  0  0  0  0  0  0  0  0  0  0  0
  -24.6170  -31.8780   23.2740 C   0  0  0  0  0  0  0  0  0  0  0  0
  -27.2370  -27.3350   20.1710 C   0  0  0  0  0  0  0  0  0  0  0  0
  -23.4130  -30.4830   21.6340 C   0  0  0  0  0  3  0  0  0  0  0  0
  -24.8600  -28.9400   20.1960 C   0  0  0  0  0  0  0  0  0  0  0  0
  -25.9530  -30.8040   21.4430 C   0  0  0  0  0  2  0  0  0  0  0  0
  -26.0330  -29.4290   20.7850 C   0  0  0  0  0  0  0  0  0  0  0  0
  -27.2210  -28.6380   20.7640 C   0  0  0  0  0  3  0  0  0  0  0  0
  -26.0270  -26.8900   19.5860 C   0  0  0  0  0  3  0  0  0  0  0  0
  -24.8570  -27.6730   19.5940 C   0  0  0  0  0  3  0  0  0  0  0  0
  -23.6260  -29.8170   20.2500 C   0  0  0  0  0  2  0  0  0  0  0  0
  -24.6810  -31.0690   22.1760 N   0  0  0  0  0  0  0  0  0  0  0  0
  -23.5330  -32.1530   23.8110 O   0  0  0  0  0  0  0  0  0  0  0  0
  -22.7530  -29.4600   22.5880 C   0  0  0  0  0  0  0  0  0  0  0  0
  -21.4270  -29.2820   22.4600 N   0  0  0  0  0  0  0  0  0  0  0  0
  -23.4310  -28.8360   23.4080 O   0  0  0  0  0  0  0  0  0  0  0  0
  -20.9400  -29.8360   21.7710 H   0  0  0  0  0  0  0  0  0  0  0  0
  -18.0500  -28.0840   22.9520 C   0  0  0  0  0  0  0  0  0  0  0  0
  -20.6070  -28.3450   23.2300 C   0  0  0  0  0  3  0  0  0  0  0  0
  -20.7130  -26.9130   22.6560 C   0  0  0  0  0  2  0  0  0  0  0  0
  -19.6140  -26.5890   21.6390 C   0  0  0  0  0  2  0  0  0  0  0  0
  -18.2290  -26.7350   22.2800 C   0  0  0  0  0  2  0  0  0  0  0  0
  -19.1670  -28.8470   23.3860 C   0  0  0  0  0  0  0  0  0  0  0  0
  -18.9450  -30.1100   23.9770 C   0  0  0  0  0  3  0  0  0  0  0  0
  -17.6390  -30.6100   24.1380 C   0  0  0  0  0  3  0  0  0  0  0  0
  -16.5370  -29.8440   23.7210 C   0  0  0  0  0  3  0  0  0  0  0  0
  -16.7430  -28.5840   23.1340 C   0  0  0  0  0  3  0  0  0  0  0  0
  -25.8970  -32.5110   23.8980 C   0  0  0  0  0  3  0  0  0  0  0  0
  -25.5840  -33.9090   24.2250 N   0  0  0  0  0  0  0  0  0  0  0  0
  -25.9120  -34.9630   23.4640 C   0  0  0  0  0  0  0  0  0  0  0  0
  -26.5780  -34.8610   22.4300 O   0  0  0  0  0  0  0  0  0  0  0  0
  -24.9860  -34.0630   25.0230 H   0  0  0  0  0  0  0  0  0  0  0  0
  -24.1740  -36.7510   23.1270 C   0  0  0  0  0  1  0  0  0  0  0  0
  -25.4250  -36.3510   23.9250 C   0  0  0  0  0  3  0  0  0  0  0  0
  -27.5650  -37.2430   24.7330 C   0  0  0  0  0  1  0  0  0  0  0  0
  -26.4540  -37.4060   23.7990 N   0  0  0  0  0  0  0  0  0  0  0  0
  -26.0470  -38.3250   23.9500 H   0  0  0  0  0  0  0  0  0  0  0  0
  -26.4120  -31.7440   25.1770 C   0  0  1  0  0  0  0  0  0  0  0  0
  -25.3180  -31.5100   26.2450 C   0  0  0  0  0  1  0  0  0  0  0  0
  -26.9940  -30.3650   24.7860 C   0  0  0  0  0  1  0  0  0  0  0  0
  -27.5630  -32.5380   25.8370 C   0  0  0  0  0  1  0  0  0  0  0  0
  -30.5140  -17.1900   20.0910 C   0  0  0  0  0  3  0  0  0  0  0  0
  -29.8850  -16.0040   20.4280 C   0  0  0  0  0  3  0  0  0  0  0  0
  -30.6270  -14.6970   20.3350 C   0  0  0  0  0  0  0  0  0  0  0  0
  -30.3370  -12.4280   19.3940 C   0  0  0  0  0  2  0  0  0  0  0  0
  -29.4080  -12.5010   18.1600 C   0  0  0  0  0  2  0  0  0  0  0  0
  -27.9320  -12.3820   18.5820 C   0  0  0  0  0  2  0  0  0  0  0  0
  -27.5690  -13.2850   19.7920 C   0  0  0  0  0  3  0  0  0  0  0  0
  -28.6280  -13.2100   20.9130 C   0  0  0  0  0  2  0  0  0  0  0  0
  -29.9380  -13.5070   20.3200 N   0  0  0  0  0  0  0  0  0  0  0  0
  -31.8310  -14.6850   20.0730 O   0  0  0  0  0  0  0  0  0  0  0  0
  -25.1780  -13.8780   20.5090 C   0  0  0  0  0  0  0  0  0  0  0  0
  -24.1090  -13.1050   20.8760 C   0  0  0  0  0  0  0  0  0  0  0  0
  -24.5740  -11.7550   20.8610 C   0  0  0  0  0  0  0  0  0  0  0  0
  -26.2250  -12.9980   20.2860 N   0  0  0  0  0  0  0  0  0  0  0  0
  -25.8690  -11.7160   20.5620 N   0  0  0  0  0  0  0  0  0  0  0  0
  -23.8470  -10.4940   21.0530 C   0  0  0  0  0  0  0  0  0  0  0  0
  -24.2800   -9.5230   21.9810 C   0  0  0  0  0  3  0  0  0  0  0  0
  -23.5490   -8.3270   22.1610 C   0  0  0  0  0  3  0  0  0  0  0  0
  -22.3710   -8.0950   21.4120 C   0  0  0  0  0  0  0  0  0  0  0  0
  -21.9580   -9.0540   20.4710 C   0  0  0  0  0  3  0  0  0  0  0  0
  -22.6890  -10.2400   20.2900 C   0  0  0  0  0  3  0  0  0  0  0  0
  -21.6140   -6.9520   21.5000 O   0  0  0  0  0  0  0  0  0  0  0  0
  -21.5740   -6.2010   22.6480 C   0  0  0  0  0  0  0  0  0  0  0  0
  -21.1680   -6.7510   23.8840 C   0  0  0  0  0  3  0  0  0  0  0  0
  -21.0790   -5.9270   25.0240 C   0  0  0  0  0  3  0  0  0  0  0  0
  -21.3840   -4.5560   24.9300 C   0  0  0  0  0  0  0  0  0  0  0  0
  -21.7810   -4.0070   23.6970 C   0  0  0  0  0  3  0  0  0  0  0  0
  -21.8730   -4.8270   22.5600 C   0  0  0  0  0  0  0  0  0  0  0  0
  -22.2380   -4.2890   21.3710 F   0  0  0  0  0  0  0  0  0  0  0  0
  -21.2880   -3.7620   26.0210 F   0  0  0  0  0  0  0  0  0  0  0  0
  -22.7100  -13.5820   21.1330 C   0  0  0  0  0  0  0  0  0  0  0  0
  -21.9810  -12.8950   22.0030 N   0  0  0  0  0  0  0  0  0  0  0  0
  -22.2750  -14.6030   20.6020 O   0  0  0  0  0  0  0  0  0  0  0  0
  -22.3490  -12.0720   22.4580 H   0  0  0  0  0  0  0  0  0  0  0  0
  -21.0420  -13.1970   22.2240 H   0  0  0  0  0  0  0  0  0  0  0  0
  -25.3430  -15.2460   20.3210 N   0  0  0  0  0  0  0  0  0  0  0  0
  -24.5750  -15.9030   20.4350 H   0  0  0  0  0  0  0  0  0  0  0  0
  -26.1930  -15.6840   19.9900 H   0  0  0  0  0  0  0  0  0  0  0  0
  2  5  1  0
  3  1  1  0
  4  2  2  0
  4  6  1  0
  5 51  1  0
  5  1  2  0
  6  3  2  0
  8  7  1  0
  8 10  1  0
  9  7  1  0
  9  6  1  0
 11 22  2  0
 12 10  1  0
 12 17  1  0
 13 21  1  0
 13 23  1  0
 14 20  1  0
 14 16  1  0
 15 21  1  0
 16 15  1  0
 17 16  2  0
 18 19  1  0
 18 12  2  0
 19 14  2  0
 20 13  1  0
 21 11  1  0
 23 25  2  0
 24 23  1  0
 26 24  1  0
 27 36  2  0
 27 32  1  0
 28 24  1  0
 28 32  1  0
 29 28  1  0
 30 31  1  0
 30 29  1  0
 31 27  1  0
 32 33  2  0
 33 34  1  0
 35 34  2  0
 36 35  1  0
 37 11  1  0
 37 38  1  0
 37 47  1  0
 38 41  1  0
 39 43  1  0
 39 38  1  0
 40 39  2  0
 43 42  1  0
 45 43  1  0
 45 46  1  0
 45 44  1  0
 47 50  1  1
 47 48  1  0
 49 47  1  0
 51 52  2  0
 53 52  1  0
 54 59  1  0
 55 56  1  0
 55 54  1  0
 57 56  1  0
 57 64  1  0
 57 58  1  0
 59 53  1  0
 59 58  1  0
 60 53  2  0
 61 62  2  0
 62 81  1  0
 63 62  1  0
 63 66  1  0
 64 61  1  0
 64 65  1  0
 65 63  2  0
 66 67  1  0
 67 68  2  0
 69 72  1  0
 69 68  1  0
 70 69  2  0
 71 70  1  0
 71 66  2  0
 72 73  1  0
 73 74  1  0
 74 75  2  0
 76 75  1  0
 76 80  1  0
 77 76  2  0
 78 73  2  0
 78 77  1  0
 79 78  1  0
 81 82  1  0
 82 85  1  0
 82 84  1  0
 83 81  2  0
 86 87  1  0
 86 61  1  0
 88 86  1  0
M  ISO  4   8 101  10 101  52 100  53 100
M  END
>  <TORSDO>  (22) 
F 18

>  <SCORE>  (22) 
-14.535

>  <name>  (22) 
21

>  <ligand_id>  (22) 
21

>  <original_smiles>  (22) 
[H]C(=C=Nc1c([H])c([H])c(C([H])=C([H])C(=O)N2C([H])([H])C([H])([H])C([H])([H])C([H])(n3nc(-c4c([H])c([H])c(Oc5c([H])c([H])c(F)c([H])c5F)c([H])c4[H])c(C(=O)N([H])[H])c3N([H])[H])C2([H])[H])c([H])c1[H])Oc1c([H])c([H])c2c(c1[H])C([H])([H])N(C(=O)C([H])(N([H])C(=O)C([H])(N([H])C([H])([H])[H])C([H])([H])[H])C(C([H])([H])[H])(C([H])([H])[H])C([H])([H])[H])C([H])(C(=O)N([H])C1([H])c3c([H])c([H])c([H])c([H])c3C([H])([H])C([H])([H])C1([H])[H])C2([H])[H]

>  <smiles>  (22) 
[H]C(=C=Nc1c([H])c([H])c(C([H])=C([H])C(=O)N2C([H])([H])C([H])([H])C([H])([H])C([H])(n3nc(-c4c([H])c([H])c(Oc5c([H])c([H])c(F)c([H])c5F)c([H])c4[H])c(C(=O)N([H])[H])c3N([H])[H])C2([H])[H])c([H])c1[H])Oc1c([H])c([H])c2c(c1[H])C([H])([H])N(C(=O)C([H])(N([H])C(=O)C([H])(N([H])C([H])([H])[H])C([H])([H])[H])C(C([H])([H])[H])(C([H])([H])[H])C([H])([H])[H])C([H])(C(=O)N([H])C1([H])c3c([H])c([H])c([H])c([H])c3C([H])([H])C([H])([H])C1([H])[H])C2([H])[H]

$$$$
22:0:0
     RDKit          3D

 95104  0  0  1  0  0  0  0  0999 V2000
  -28.9290  -24.1430   19.0200 C   0  0  0  0  0  0  0  0  0  0  0  0
  -29.1080  -23.7780   17.6280 C   0  0  0  0  0  0  0  0  0  0  0  0
  -29.1690  -22.9570   19.9540 C   0  0  0  0  0  0  0  0  0  0  0  0
  -28.1570  -23.9790   16.6950 C   0  0  0  0  0  2  0  0  0  0  0  0
  -28.5650  -25.4870   19.1940 C   0  0  0  0  0  3  0  0  0  0  0  0
  -30.4270  -23.1690   17.2740 C   0  0  0  0  0  2  0  0  0  0  0  0
  -30.7800  -22.0620   18.2750 C   0  0  0  0  0  2  0  0  0  0  0  0
  -29.8430  -21.8310   19.4110 N   0  0  0  0  0  0  0  0  0  0  0  0
  -28.7940  -22.9580   21.1290 O   0  0  0  0  0  0  0  0  0  0  0  0
  -31.0290  -19.5540   19.6620 C   0  0  0  0  0  3  0  0  0  0  0  0
  -31.0610  -18.1310   19.8570 C   0  0  0  0  0  3  0  0  0  0  0  0
  -28.8080  -18.2350   20.6100 C   0  0  0  0  0  3  0  0  0  0  0  0
  -29.8770  -20.3920   19.8760 C   0  0  0  0  0  0  0  0  0  0  0  0
  -29.9350  -17.3980   20.3180 C   0  0  0  0  0  0  0  0  0  0  0  0
  -28.7650  -19.6620   20.3940 C   0  0  0  0  0  0  0  0  0  0  0  0
  -27.5990  -20.3100   20.6320 F   0  0  0  0  0  0  0  0  0  0  0  0
  -30.6380  -14.8300   20.0980 C   0  0  0  0  0  0  0  0  0  0  0  0
  -30.4170  -12.5700   19.0420 C   0  0  0  0  0  2  0  0  0  0  0  0
  -29.4200  -12.6690   17.8650 C   0  0  0  0  0  2  0  0  0  0  0  0
  -27.9690  -12.4900   18.3530 C   0  0  0  0  0  2  0  0  0  0  0  0
  -27.6510  -13.3370   19.6140 C   0  0  0  0  0  3  0  0  0  0  0  0
  -28.7620  -13.2090   20.6800 C   0  0  0  0  0  2  0  0  0  0  0  0
  -30.0320  -13.5900   20.0450 N   0  0  0  0  0  0  0  0  0  0  0  0
  -31.7900  -14.9660   19.6750 O   0  0  0  0  0  0  0  0  0  0  0  0
  -29.8530  -15.9130   20.4820 N   0  0  0  0  0  0  0  0  0  0  0  0
  -28.9710  -15.6010   20.8580 H   0  0  0  0  0  0  0  0  0  0  0  0
  -25.2970  -13.9060   20.4660 C   0  0  0  0  0  0  0  0  0  0  0  0
  -24.2490  -13.1230   20.8650 C   0  0  0  0  0  0  0  0  0  0  0  0
  -24.7090  -11.7740   20.7790 C   0  0  0  0  0  0  0  0  0  0  0  0
  -26.3290  -13.0360   20.1570 N   0  0  0  0  0  0  0  0  0  0  0  0
  -25.9840  -11.7450   20.4070 N   0  0  0  0  0  0  0  0  0  0  0  0
  -23.9900  -10.5070   20.9710 C   0  0  0  0  0  0  0  0  0  0  0  0
  -24.4380   -9.5370   21.8970 C   0  0  0  0  0  3  0  0  0  0  0  0
  -23.7200   -8.3370   22.0800 C   0  0  0  0  0  3  0  0  0  0  0  0
  -22.5390   -8.0950   21.3370 C   0  0  0  0  0  0  0  0  0  0  0  0
  -22.1100   -9.0520   20.4000 C   0  0  0  0  0  3  0  0  0  0  0  0
  -22.8290  -10.2450   20.2160 C   0  0  0  0  0  3  0  0  0  0  0  0
  -21.7920   -6.9450   21.4260 O   0  0  0  0  0  0  0  0  0  0  0  0
  -21.7210   -6.2230   22.5890 C   0  0  0  0  0  0  0  0  0  0  0  0
  -21.2270   -6.7840   23.7870 C   0  0  0  0  0  3  0  0  0  0  0  0
  -21.1060   -5.9860   24.9420 C   0  0  0  0  0  3  0  0  0  0  0  0
  -21.4700   -4.6260   24.9000 C   0  0  0  0  0  0  0  0  0  0  0  0
  -21.9580   -4.0640   23.7070 C   0  0  0  0  0  3  0  0  0  0  0  0
  -22.0800   -4.8600   22.5540 C   0  0  0  0  0  0  0  0  0  0  0  0
  -22.5300   -4.3080   21.4020 F   0  0  0  0  0  0  0  0  0  0  0  0
  -21.3480   -3.8570   26.0070 F   0  0  0  0  0  0  0  0  0  0  0  0
  -22.8660  -13.5930   21.2110 C   0  0  0  0  0  0  0  0  0  0  0  0
  -22.1770  -12.8770   22.0920 N   0  0  0  0  0  0  0  0  0  0  0  0
  -22.4060  -14.6310   20.7370 O   0  0  0  0  0  0  0  0  0  0  0  0
  -22.5620  -12.0390   22.5010 H   0  0  0  0  0  0  0  0  0  0  0  0
  -21.2510  -13.1740   22.3650 H   0  0  0  0  0  0  0  0  0  0  0  0
  -25.4530  -15.2820   20.3200 N   0  0  0  0  0  0  0  0  0  0  0  0
  -24.6900  -15.9270   20.4870 H   0  0  0  0  0  0  0  0  0  0  0  0
  -26.2760  -15.7340   19.9440 H   0  0  0  0  0  0  0  0  0  0  0  0
  -28.3240  -26.3930   20.2510 O   0  0  0  0  0  0  0  0  0  0  0  0
  -24.6220  -31.8940   23.2240 C   0  0  0  0  0  0  0  0  0  0  0  0
  -27.2500  -27.3140   20.1560 C   0  0  0  0  0  0  0  0  0  0  0  0
  -23.4240  -30.5000   21.5760 C   0  0  0  0  0  3  0  0  0  0  0  0
  -24.8830  -28.9530   20.1450 C   0  0  0  0  0  0  0  0  0  0  0  0
  -25.9680  -30.8100   21.4070 C   0  0  0  0  0  2  0  0  0  0  0  0
  -26.0520  -29.4300   20.7520 C   0  0  0  0  0  0  0  0  0  0  0  0
  -27.2340  -28.6200   20.7540 C   0  0  0  0  0  3  0  0  0  0  0  0
  -26.0490  -26.8980   19.5340 C   0  0  0  0  0  3  0  0  0  0  0  0
  -24.8870  -27.6940   19.5270 C   0  0  0  0  0  3  0  0  0  0  0  0
  -23.6450  -29.8300   20.1940 C   0  0  0  0  0  2  0  0  0  0  0  0
  -24.6900  -31.0870   22.1250 N   0  0  0  0  0  0  0  0  0  0  0  0
  -23.5360  -32.1700   23.7560 O   0  0  0  0  0  0  0  0  0  0  0  0
  -22.7560  -29.4820   22.5330 C   0  0  0  0  0  0  0  0  0  0  0  0
  -21.4280  -29.3110   22.4090 N   0  0  0  0  0  0  0  0  0  0  0  0
  -23.4330  -28.8500   23.3480 O   0  0  0  0  0  0  0  0  0  0  0  0
  -20.9400  -29.8720   21.7260 H   0  0  0  0  0  0  0  0  0  0  0  0
  -18.0470  -28.1310   22.9240 C   0  0  0  0  0  0  0  0  0  0  0  0
  -20.6080  -28.3720   23.1770 C   0  0  0  0  0  3  0  0  0  0  0  0
  -20.6970  -26.9460   22.5880 C   0  0  0  0  0  2  0  0  0  0  0  0
  -19.5860  -26.6400   21.5790 C   0  0  0  0  0  2  0  0  0  0  0  0
  -18.2090  -26.7880   22.2340 C   0  0  0  0  0  2  0  0  0  0  0  0
  -19.1730  -28.8820   23.3530 C   0  0  0  0  0  0  0  0  0  0  0  0
  -18.9680  -30.1400   23.9600 C   0  0  0  0  0  3  0  0  0  0  0  0
  -17.6670  -30.6470   24.1430 C   0  0  0  0  0  3  0  0  0  0  0  0
  -16.5550  -29.8940   23.7290 C   0  0  0  0  0  3  0  0  0  0  0  0
  -16.7450  -28.6380   23.1260 C   0  0  0  0  0  3  0  0  0  0  0  0
  -25.9010  -32.5280   23.8510 C   0  0  0  0  0  3  0  0  0  0  0  0
  -25.5900  -33.9270   24.1840 N   0  0  0  0  0  0  0  0  0  0  0  0
  -25.9070  -34.9810   23.4210 C   0  0  0  0  0  0  0  0  0  0  0  0
  -26.5620  -34.8810   22.3810 O   0  0  0  0  0  0  0  0  0  0  0  0
  -25.0070  -34.0770   24.9950 H   0  0  0  0  0  0  0  0  0  0  0  0
  -24.1670  -36.7680   23.0940 C   0  0  0  0  0  1  0  0  0  0  0  0
  -25.4210  -36.3680   23.8860 C   0  0  0  0  0  3  0  0  0  0  0  0
  -27.5600  -37.2680   24.6900 C   0  0  0  0  0  1  0  0  0  0  0  0
  -26.4470  -37.4250   23.7570 N   0  0  0  0  0  0  0  0  0  0  0  0
  -26.0390  -38.3440   23.9010 H   0  0  0  0  0  0  0  0  0  0  0  0
  -26.4120  -31.7570   25.1300 C   0  0  1  0  0  0  0  0  0  0  0  0
  -25.3150  -31.5190   26.1930 C   0  0  0  0  0  1  0  0  0  0  0  0
  -27.0000  -30.3810   24.7430 C   0  0  0  0  0  1  0  0  0  0  0  0
  -27.5580  -32.5540   25.7970 C   0  0  0  0  0  1  0  0  0  0  0  0
  1  5  2  0
  1  3  1  0
  2  1  1  0
  3  9  2  0
  4  2  2  0
  5 55  1  0
  6  2  1  0
  6  7  1  0
  7  8  1  0
  8 13  1  0
  8  3  1  0
 10 11  2  0
 10 13  1  0
 11 14  1  0
 13 15  2  0
 14 25  1  0
 14 12  2  0
 15 12  1  0
 15 16  1  0
 17 25  1  0
 18 23  1  0
 19 20  1  0
 19 18  1  0
 21 20  1  0
 21 30  1  0
 21 22  1  0
 23 17  1  0
 23 22  1  0
 24 17  2  0
 25 26  1  0
 27 28  2  0
 28 47  1  0
 29 28  1  0
 29 32  1  0
 30 31  1  0
 30 27  1  0
 31 29  2  0
 32 33  1  0
 33 34  2  0
 35 38  1  0
 35 34  1  0
 36 35  2  0
 37 36  1  0
 37 32  2  0
 38 39  1  0
 39 40  1  0
 40 41  2  0
 42 41  1  0
 42 46  1  0
 43 42  2  0
 44 39  2  0
 44 43  1  0
 45 44  1  0
 47 48  1  0
 48 51  1  0
 48 50  1  0
 49 47  2  0
 52 27  1  0
 52 53  1  0
 54 52  1  0
 56 67  2  0
 57 55  1  0
 57 62  1  0
 58 66  1  0
 58 68  1  0
 59 65  1  0
 59 61  1  0
 60 66  1  0
 61 62  2  0
 61 60  1  0
 63 57  2  0
 64 63  1  0
 64 59  2  0
 65 58  1  0
 66 56  1  0
 68 70  2  0
 69 68  1  0
 71 69  1  0
 72 81  2  0
 72 77  1  0
 73 69  1  0
 73 77  1  0
 74 73  1  0
 75 76  1  0
 75 74  1  0
 76 72  1  0
 77 78  2  0
 78 79  1  0
 80 79  2  0
 81 80  1  0
 82 56  1  0
 82 83  1  0
 82 92  1  0
 83 86  1  0
 84 88  1  0
 84 83  1  0
 85 84  2  0
 88 87  1  0
 90 88  1  0
 90 91  1  0
 90 89  1  0
 92 95  1  1
 92 93  1  0
 94 92  1  0
M  ISO  4   5 101  17 100  25 100  55 101
M  END
>  <TORSDO>  (23) 
F 17

>  <SCORE>  (23) 
-14.934

>  <name>  (23) 
22

>  <ligand_id>  (23) 
22

>  <original_smiles>  (23) 
[H]C([H])=C1C(=C([H])Oc2c([H])c([H])c3c(c2[H])C([H])([H])N(C(=O)C([H])(N([H])C(=O)C([H])(N([H])C([H])([H])[H])C([H])([H])[H])C(C([H])([H])[H])(C([H])([H])[H])C([H])([H])[H])C([H])(C(=O)N([H])C2([H])c4c([H])c([H])c([H])c([H])c4C([H])([H])C([H])([H])C2([H])[H])C3([H])[H])C(=O)N(c2c([H])c([H])c(N([H])C(=O)N3C([H])([H])C([H])([H])C([H])([H])C([H])(n4nc(-c5c([H])c([H])c(Oc6c([H])c([H])c(F)c([H])c6F)c([H])c5[H])c(C(=O)N([H])[H])c4N([H])[H])C3([H])[H])c([H])c2F)C([H])([H])C1([H])[H]

>  <smiles>  (23) 
[H]C([H])=C1C(=C([H])Oc2c([H])c([H])c3c(c2[H])C([H])([H])N(C(=O)C([H])(N([H])C(=O)C([H])(N([H])C([H])([H])[H])C([H])([H])[H])C(C([H])([H])[H])(C([H])([H])[H])C([H])([H])[H])C([H])(C(=O)N([H])C2([H])c4c([H])c([H])c([H])c([H])c4C([H])([H])C([H])([H])C2([H])[H])C3([H])[H])C(=O)N(c2c([H])c([H])c(N([H])C(=O)N3C([H])([H])C([H])([H])C([H])([H])C([H])(n4nc(-c5c([H])c([H])c(Oc6c([H])c([H])c(F)c([H])c6F)c([H])c5[H])c(C(=O)N([H])[H])c4N([H])[H])C3([H])[H])c([H])c2F)C([H])([H])C1([H])[H]

$$$$
23:0:0
     RDKit          3D

 93102  0  0  1  0  0  0  0  0999 V2000
  -29.3170  -23.2220   21.5520 C   0  0  0  0  0  3  0  0  0  0  0  0
  -28.7990  -22.3000   19.6180 C   0  0  0  0  0  3  0  0  0  0  0  0
  -28.7120  -23.5320   20.2890 C   0  0  0  0  0  0  0  0  0  0  0  0
  -29.7050  -21.8960   21.5730 C   0  0  0  0  0  0  0  0  0  0  0  0
  -29.4110  -21.2570   20.3750 N   0  0  0  0  0  0  0  0  0  0  0  0
  -30.9700  -18.6380   18.1660 C   0  0  0  0  0  3  0  0  0  0  0  0
  -30.4920  -19.8440   18.7060 C   0  0  0  0  0  3  0  0  0  0  0  0
  -30.7700  -17.4100   18.8210 C   0  0  0  0  0  3  0  0  0  0  0  0
  -29.6090  -18.5950   20.6030 C   0  0  0  0  0  3  0  0  0  0  0  0
  -29.7960  -19.8860   19.9320 C   0  0  0  0  0  0  0  0  0  0  0  0
  -30.0970  -17.3190   20.0620 C   0  0  0  0  0  0  0  0  0  0  0  0
  -30.6030  -14.7720   20.3740 C   0  0  0  0  0  0  0  0  0  0  0  0
  -30.3700  -12.4930   19.3810 C   0  0  0  0  0  2  0  0  0  0  0  0
  -29.4500  -12.5890   18.1450 C   0  0  0  0  0  2  0  0  0  0  0  0
  -27.9750  -12.4240   18.5540 C   0  0  0  0  0  2  0  0  0  0  0  0
  -27.5960  -13.3010   19.7770 C   0  0  0  0  0  3  0  0  0  0  0  0
  -28.6440  -13.2170   20.9110 C   0  0  0  0  0  2  0  0  0  0  0  0
  -29.9500  -13.5560   20.3300 N   0  0  0  0  0  0  0  0  0  0  0  0
  -31.7890  -14.8200   20.0360 O   0  0  0  0  0  0  0  0  0  0  0  0
  -29.8940  -15.9480   20.6330 N   0  0  0  0  0  0  0  0  0  0  0  0
  -29.0300  -15.8150   21.1380 H   0  0  0  0  0  0  0  0  0  0  0  0
  -25.1970  -13.8910   20.4650 C   0  0  0  0  0  0  0  0  0  0  0  0
  -24.1280  -13.1200   20.8300 C   0  0  0  0  0  0  0  0  0  0  0  0
  -24.5910  -11.7690   20.8200 C   0  0  0  0  0  0  0  0  0  0  0  0
  -26.2460  -13.0110   20.2520 N   0  0  0  0  0  0  0  0  0  0  0  0
  -25.8870  -11.7300   20.5270 N   0  0  0  0  0  0  0  0  0  0  0  0
  -23.8600  -10.5070   21.0170 C   0  0  0  0  0  0  0  0  0  0  0  0
  -24.2910   -9.5430   21.9540 C   0  0  0  0  0  3  0  0  0  0  0  0
  -23.5620   -8.3490   22.1400 C   0  0  0  0  0  3  0  0  0  0  0  0
  -22.3850   -8.1100   21.3890 C   0  0  0  0  0  0  0  0  0  0  0  0
  -21.9730   -9.0640   20.4420 C   0  0  0  0  0  3  0  0  0  0  0  0
  -22.7040  -10.2500   20.2540 C   0  0  0  0  0  3  0  0  0  0  0  0
  -21.6300   -6.9660   21.4800 O   0  0  0  0  0  0  0  0  0  0  0  0
  -21.5930   -6.2200   22.6310 C   0  0  0  0  0  0  0  0  0  0  0  0
  -21.1960   -6.7750   23.8670 C   0  0  0  0  0  3  0  0  0  0  0  0
  -21.1050   -5.9560   25.0090 C   0  0  0  0  0  3  0  0  0  0  0  0
  -21.3990   -4.5820   24.9180 C   0  0  0  0  0  0  0  0  0  0  0  0
  -21.7910   -4.0280   23.6870 C   0  0  0  0  0  3  0  0  0  0  0  0
  -21.8840   -4.8440   22.5470 C   0  0  0  0  0  0  0  0  0  0  0  0
  -22.2410   -4.2990   21.3570 F   0  0  0  0  0  0  0  0  0  0  0  0
  -21.3050   -3.7940   26.0140 F   0  0  0  0  0  0  0  0  0  0  0  0
  -22.7280  -13.6010   21.0800 C   0  0  0  0  0  0  0  0  0  0  0  0
  -21.9900  -12.9180   21.9480 N   0  0  0  0  0  0  0  0  0  0  0  0
  -22.2960  -14.6190   20.5400 O   0  0  0  0  0  0  0  0  0  0  0  0
  -22.3510  -12.0940   22.4070 H   0  0  0  0  0  0  0  0  0  0  0  0
  -21.0510  -13.2270   22.1590 H   0  0  0  0  0  0  0  0  0  0  0  0
  -25.3660  -15.2580   20.2730 N   0  0  0  0  0  0  0  0  0  0  0  0
  -24.5990  -15.9170   20.3550 H   0  0  0  0  0  0  0  0  0  0  0  0
  -26.2160  -15.6850   19.9300 H   0  0  0  0  0  0  0  0  0  0  0  0
  -30.3280  -21.2140   22.5730 O   0  0  0  0  0  0  0  0  0  0  0  0
  -30.4700  -21.8180   23.2940 H   0  0  0  0  0  0  0  0  0  0  0  0
  -27.9640  -24.8660   19.8000 C   0  0  0  0  0  2  0  0  0  0  0  0
  -28.2390  -26.2910   20.2490 O   0  0  0  0  0  0  0  0  0  0  0  0
  -24.6140  -31.8790   23.2340 C   0  0  0  0  0  0  0  0  0  0  0  0
  -27.1800  -27.2430   20.1570 C   0  0  0  0  0  0  0  0  0  0  0  0
  -23.4020  -30.4870   21.5990 C   0  0  0  0  0  3  0  0  0  0  0  0
  -24.8400  -28.9370   20.1550 C   0  0  0  0  0  0  0  0  0  0  0  0
  -25.9500  -30.7700   21.4170 C   0  0  0  0  0  2  0  0  0  0  0  0
  -26.0170  -29.3880   20.7640 C   0  0  0  0  0  0  0  0  0  0  0  0
  -27.1860  -28.5500   20.7640 C   0  0  0  0  0  3  0  0  0  0  0  0
  -25.9830  -26.8980   19.4790 C   0  0  0  0  0  3  0  0  0  0  0  0
  -24.8310  -27.7010   19.5000 C   0  0  0  0  0  3  0  0  0  0  0  0
  -23.6090  -29.8220   20.2140 C   0  0  0  0  0  2  0  0  0  0  0  0
  -24.6750  -31.0640   22.1380 N   0  0  0  0  0  0  0  0  0  0  0  0
  -23.5320  -32.1600   23.7710 O   0  0  0  0  0  0  0  0  0  0  0  0
  -22.7360  -29.4680   22.5580 C   0  0  0  0  0  0  0  0  0  0  0  0
  -21.4080  -29.2960   22.4390 N   0  0  0  0  0  0  0  0  0  0  0  0
  -23.4160  -28.8380   23.3730 O   0  0  0  0  0  0  0  0  0  0  0  0
  -20.9170  -29.8570   21.7570 H   0  0  0  0  0  0  0  0  0  0  0  0
  -18.0300  -28.1020   22.9560 C   0  0  0  0  0  0  0  0  0  0  0  0
  -20.5900  -28.3620   23.2170 C   0  0  0  0  0  3  0  0  0  0  0  0
  -20.6880  -26.9270   22.6450 C   0  0  0  0  0  2  0  0  0  0  0  0
  -19.5820  -26.6040   21.6350 C   0  0  0  0  0  2  0  0  0  0  0  0
  -18.2020  -26.7510   22.2830 C   0  0  0  0  0  2  0  0  0  0  0  0
  -19.1500  -28.8650   23.3810 C   0  0  0  0  0  0  0  0  0  0  0  0
  -18.9320  -30.1280   23.9730 C   0  0  0  0  0  3  0  0  0  0  0  0
  -17.6280  -30.6280   24.1420 C   0  0  0  0  0  3  0  0  0  0  0  0
  -16.5230  -29.8630   23.7320 C   0  0  0  0  0  3  0  0  0  0  0  0
  -16.7250  -28.6010   23.1450 C   0  0  0  0  0  3  0  0  0  0  0  0
  -25.8980  -32.5100   23.8500 C   0  0  0  0  0  3  0  0  0  0  0  0
  -26.4200  -31.7330   25.1210 C   0  0  1  0  0  0  0  0  0  0  0  0
  -25.3340  -31.4970   26.1970 C   0  0  0  0  0  1  0  0  0  0  0  0
  -26.9950  -30.3540   24.7260 C   0  0  0  0  0  1  0  0  0  0  0  0
  -27.5770  -32.5240   25.7760 C   0  0  0  0  0  1  0  0  0  0  0  0
  -25.5880  -33.9060   24.1900 N   0  0  0  0  0  0  0  0  0  0  0  0
  -25.9030  -34.9640   23.4320 C   0  0  0  0  0  0  0  0  0  0  0  0
  -26.5580  -34.8680   22.3890 O   0  0  0  0  0  0  0  0  0  0  0  0
  -25.0060  -34.0540   25.0020 H   0  0  0  0  0  0  0  0  0  0  0  0
  -24.1640  -36.7540   23.1190 C   0  0  0  0  0  1  0  0  0  0  0  0
  -25.4210  -36.3500   23.9040 C   0  0  0  0  0  3  0  0  0  0  0  0
  -27.5700  -37.2400   24.6920 C   0  0  0  0  0  1  0  0  0  0  0  0
  -26.4480  -37.4080   23.7730 N   0  0  0  0  0  0  0  0  0  0  0  0
  -26.0410  -38.3250   23.9330 H   0  0  0  0  0  0  0  0  0  0  0  0
  1  4  2  0
  2  3  2  0
  2  5  1  0
  3  1  1  0
  4 50  1  0
  5  4  1  0
  6  7  2  0
  6  8  1  0
  7 10  1  0
  8 11  2  0
 10  5  1  0
 10  9  2  0
 11  9  1  0
 11 20  1  0
 12 20  1  0
 13 18  1  0
 14 15  1  0
 14 13  1  0
 16 15  1  0
 16 25  1  0
 16 17  1  0
 18 12  1  0
 18 17  1  0
 19 12  2  0
 20 21  1  0
 22 23  2  0
 23 42  1  0
 24 23  1  0
 24 27  1  0
 25 22  1  0
 25 26  1  0
 26 24  2  0
 27 28  1  0
 28 29  2  0
 30 33  1  0
 30 29  1  0
 31 30  2  0
 32 31  1  0
 32 27  2  0
 33 34  1  0
 34 35  1  0
 35 36  2  0
 37 36  1  0
 37 41  1  0
 38 37  2  0
 39 34  2  0
 39 38  1  0
 40 39  1  0
 42 43  1  0
 43 46  1  0
 43 45  1  0
 44 42  2  0
 47 48  1  0
 47 22  1  0
 49 47  1  0
 50 51  1  0
 52 53  1  0
 52  3  1  0
 54 65  2  0
 55 53  1  0
 55 60  1  0
 56 64  1  0
 56 66  1  0
 57 63  1  0
 57 59  1  0
 58 64  1  0
 59 60  2  0
 59 58  1  0
 61 62  1  0
 61 55  2  0
 62 57  2  0
 63 56  1  0
 64 54  1  0
 66 68  2  0
 67 66  1  0
 69 67  1  0
 70 79  2  0
 70 75  1  0
 71 67  1  0
 71 75  1  0
 72 71  1  0
 73 74  1  0
 73 72  1  0
 74 70  1  0
 75 76  2  0
 76 77  1  0
 78 77  2  0
 79 78  1  0
 80 54  1  0
 80 85  1  0
 80 81  1  0
 81 84  1  1
 81 82  1  0
 83 81  1  0
 85 88  1  0
 86 90  1  0
 86 85  1  0
 87 86  2  0
 90 89  1  0
 92 90  1  0
 92 93  1  0
 92 91  1  0
M  ISO  4  12 100  20 100  52 101  53 101
M  END
>  <TORSDO>  (24) 
F 19

>  <SCORE>  (24) 
-14.648

>  <name>  (24) 
23

>  <ligand_id>  (24) 
23

>  <original_smiles>  (24) 
[H]Oc1c([H])c(C([H])([H])Oc2c([H])c([H])c3c(c2[H])C([H])([H])N(C(=O)C([H])(N([H])C(=O)C([H])(N([H])C([H])([H])[H])C([H])([H])[H])C(C([H])([H])[H])(C([H])([H])[H])C([H])([H])[H])C([H])(C(=O)N([H])C2([H])c4c([H])c([H])c([H])c([H])c4C([H])([H])C([H])([H])C2([H])[H])C3([H])[H])c([H])n1-c1c([H])c([H])c([H])c(N([H])C(=O)N2C([H])([H])C([H])([H])C([H])([H])C([H])(n3nc(-c4c([H])c([H])c(Oc5c([H])c([H])c(F)c([H])c5F)c([H])c4[H])c(C(=O)N([H])[H])c3N([H])[H])C2([H])[H])c1[H]

>  <smiles>  (24) 
[H]Oc1c([H])c(C([H])([H])Oc2c([H])c([H])c3c(c2[H])C([H])([H])N(C(=O)C([H])(N([H])C(=O)C([H])(N([H])C([H])([H])[H])C([H])([H])[H])C(C([H])([H])[H])(C([H])([H])[H])C([H])([H])[H])C([H])(C(=O)N([H])C2([H])c4c([H])c([H])c([H])c([H])c4C([H])([H])C([H])([H])C2([H])[H])C3([H])[H])c([H])n1-c1c([H])c([H])c([H])c(N([H])C(=O)N2C([H])([H])C([H])([H])C([H])([H])C([H])(n3nc(-c4c([H])c([H])c(Oc5c([H])c([H])c(F)c([H])c5F)c([H])c4[H])c(C(=O)N([H])[H])c3N([H])[H])C2([H])[H])c1[H]

$$$$
24:0:0
     RDKit          3D

 94103  0  0  1  0  0  0  0  0999 V2000
  -27.8460  -23.8400   19.7380 C   0  0  0  0  0  0  0  0  0  0  0  0
  -29.3830  -24.2030   20.9750 C   0  0  0  0  0  0  0  0  0  0  0  0
  -28.0780  -25.0480   20.7360 C   0  0  2  0  0  0  0  0  0  0  0  0
  -27.1640  -25.0200   21.9770 C   0  0  0  0  0  1  0  0  0  0  0  0
  -28.7750  -23.0300   20.4470 N   0  0  0  0  0  0  0  0  0  0  0  0
  -27.1410  -23.6050   18.7760 O   0  0  0  0  0  0  0  0  0  0  0  0
  -30.4810  -24.3950   21.4600 O   0  0  0  0  0  0  0  0  0  0  0  0
  -30.5580  -19.7080   21.4040 C   0  0  0  0  0  3  0  0  0  0  0  0
  -28.8510  -19.1070   19.8700 C   0  0  0  0  0  3  0  0  0  0  0  0
  -30.1630  -21.0770   21.3250 C   0  0  0  0  0  3  0  0  0  0  0  0
  -28.4630  -20.4990   19.8050 C   0  0  0  0  0  3  0  0  0  0  0  0
  -29.9390  -18.6580   20.6700 C   0  0  0  0  0  0  0  0  0  0  0  0
  -29.1090  -21.5780   20.5060 C   0  0  0  0  0  0  0  0  0  0  0  0
  -30.6950  -14.7880   20.3750 C   0  0  0  0  0  0  0  0  0  0  0  0
  -30.4010  -12.5200   19.3790 C   0  0  0  0  0  2  0  0  0  0  0  0
  -29.4790  -12.5910   18.1460 C   0  0  0  0  0  2  0  0  0  0  0  0
  -28.0110  -12.4240   18.5770 C   0  0  0  0  0  2  0  0  0  0  0  0
  -27.6340  -13.3230   19.7860 C   0  0  0  0  0  3  0  0  0  0  0  0
  -28.6940  -13.2810   20.9090 C   0  0  0  0  0  2  0  0  0  0  0  0
  -29.9870  -13.6070   20.2990 N   0  0  0  0  0  0  0  0  0  0  0  0
  -31.8890  -14.7430   20.0720 O   0  0  0  0  0  0  0  0  0  0  0  0
  -30.6460  -17.2640   20.6020 C   0  0  0  0  0  0  0  0  0  0  0  0
  -30.0420  -16.0090   20.5610 N   0  0  0  0  0  0  0  0  0  0  0  0
  -31.8780  -17.3670   20.6340 O   0  0  0  0  0  0  0  0  0  0  0  0
  -29.0400  -15.9900   20.6540 H   0  0  0  0  0  0  0  0  0  0  0  0
  -25.2490  -13.8980   20.5230 C   0  0  0  0  0  0  0  0  0  0  0  0
  -24.1860  -13.1190   20.8870 C   0  0  0  0  0  0  0  0  0  0  0  0
  -24.6540  -11.7690   20.8510 C   0  0  0  0  0  0  0  0  0  0  0  0
  -26.2950  -13.0240   20.2820 N   0  0  0  0  0  0  0  0  0  0  0  0
  -25.9450  -11.7390   20.5450 N   0  0  0  0  0  0  0  0  0  0  0  0
  -23.9290  -10.5040   21.0330 C   0  0  0  0  0  0  0  0  0  0  0  0
  -24.3480   -9.5420   21.9790 C   0  0  0  0  0  3  0  0  0  0  0  0
  -23.6230   -8.3430   22.1480 C   0  0  0  0  0  3  0  0  0  0  0  0
  -22.4650   -8.0970   21.3730 C   0  0  0  0  0  0  0  0  0  0  0  0
  -22.0660   -9.0480   20.4180 C   0  0  0  0  0  3  0  0  0  0  0  0
  -22.7920  -10.2380   20.2460 C   0  0  0  0  0  3  0  0  0  0  0  0
  -21.7120   -6.9500   21.4530 O   0  0  0  0  0  0  0  0  0  0  0  0
  -21.6230   -6.2270   22.6150 C   0  0  0  0  0  0  0  0  0  0  0  0
  -21.1120   -6.7900   23.8050 C   0  0  0  0  0  3  0  0  0  0  0  0
  -20.9720   -5.9910   24.9580 C   0  0  0  0  0  3  0  0  0  0  0  0
  -21.3340   -4.6320   24.9220 C   0  0  0  0  0  0  0  0  0  0  0  0
  -21.8370   -4.0680   23.7360 C   0  0  0  0  0  3  0  0  0  0  0  0
  -21.9780   -4.8630   22.5850 C   0  0  0  0  0  0  0  0  0  0  0  0
  -22.4440   -4.3100   21.4400 F   0  0  0  0  0  0  0  0  0  0  0  0
  -21.1920   -3.8620   26.0270 F   0  0  0  0  0  0  0  0  0  0  0  0
  -22.7870  -13.5910   21.1570 C   0  0  0  0  0  0  0  0  0  0  0  0
  -22.0590  -12.8920   22.0200 N   0  0  0  0  0  0  0  0  0  0  0  0
  -22.3480  -14.6160   20.6370 O   0  0  0  0  0  0  0  0  0  0  0  0
  -22.4280  -12.0630   22.4620 H   0  0  0  0  0  0  0  0  0  0  0  0
  -21.1210  -13.1900   22.2430 H   0  0  0  0  0  0  0  0  0  0  0  0
  -25.4080  -15.2700   20.3490 N   0  0  0  0  0  0  0  0  0  0  0  0
  -24.6340  -15.9170   20.4580 H   0  0  0  0  0  0  0  0  0  0  0  0
  -26.2460  -15.7130   19.9970 H   0  0  0  0  0  0  0  0  0  0  0  0
  -28.3020  -26.4380   20.1830 O   0  0  0  0  0  0  0  0  0  0  0  0
  -24.6200  -31.8760   23.2510 C   0  0  0  0  0  0  0  0  0  0  0  0
  -27.2120  -27.3310   20.1370 C   0  0  0  0  0  0  0  0  0  0  0  0
  -23.4120  -30.4960   21.5990 C   0  0  0  0  0  3  0  0  0  0  0  0
  -24.8580  -28.9630   20.1460 C   0  0  0  0  0  0  0  0  0  0  0  0
  -25.9530  -30.8130   21.4120 C   0  0  0  0  0  2  0  0  0  0  0  0
  -26.0310  -29.4410   20.7450 C   0  0  0  0  0  0  0  0  0  0  0  0
  -27.2150  -28.6380   20.7270 C   0  0  0  0  0  3  0  0  0  0  0  0
  -26.0220  -26.9180   19.5050 C   0  0  0  0  0  3  0  0  0  0  0  0
  -24.8570  -27.7100   19.5140 C   0  0  0  0  0  3  0  0  0  0  0  0
  -23.6210  -29.8380   20.2100 C   0  0  0  0  0  2  0  0  0  0  0  0
  -24.6800  -31.0790   22.1440 N   0  0  0  0  0  0  0  0  0  0  0  0
  -23.5370  -32.1470   23.7920 O   0  0  0  0  0  0  0  0  0  0  0  0
  -22.7530  -29.4680   22.5500 C   0  0  0  0  0  0  0  0  0  0  0  0
  -21.4270  -29.2890   22.4250 N   0  0  0  0  0  0  0  0  0  0  0  0
  -23.4340  -28.8350   23.3600 O   0  0  0  0  0  0  0  0  0  0  0  0
  -20.9360  -29.8520   21.7440 H   0  0  0  0  0  0  0  0  0  0  0  0
  -18.0510  -28.0860   22.9260 C   0  0  0  0  0  0  0  0  0  0  0  0
  -20.6100  -28.3430   23.1870 C   0  0  0  0  0  3  0  0  0  0  0  0
  -20.7100  -26.9190   22.5940 C   0  0  0  0  0  2  0  0  0  0  0  0
  -19.6040  -26.6080   21.5800 C   0  0  0  0  0  2  0  0  0  0  0  0
  -18.2260  -26.7450   22.2330 C   0  0  0  0  0  2  0  0  0  0  0  0
  -19.1710  -28.8430   23.3600 C   0  0  0  0  0  0  0  0  0  0  0  0
  -18.9550  -30.0970   23.9690 C   0  0  0  0  0  3  0  0  0  0  0  0
  -17.6500  -30.5960   24.1480 C   0  0  0  0  0  3  0  0  0  0  0  0
  -16.5450  -29.8360   23.7290 C   0  0  0  0  0  3  0  0  0  0  0  0
  -16.7460  -28.5830   23.1240 C   0  0  0  0  0  3  0  0  0  0  0  0
  -25.9030  -32.5040   23.8760 C   0  0  0  0  0  3  0  0  0  0  0  0
  -25.5960  -33.9010   24.2150 N   0  0  0  0  0  0  0  0  0  0  0  0
  -25.9090  -34.9570   23.4520 C   0  0  0  0  0  0  0  0  0  0  0  0
  -26.5550  -34.8570   22.4060 O   0  0  0  0  0  0  0  0  0  0  0  0
  -25.0170  -34.0520   25.0290 H   0  0  0  0  0  0  0  0  0  0  0  0
  -24.1620  -36.7430   23.1480 C   0  0  0  0  0  1  0  0  0  0  0  0
  -25.4280  -36.3440   23.9230 C   0  0  0  0  0  3  0  0  0  0  0  0
  -27.5780  -37.2430   24.6980 C   0  0  0  0  0  1  0  0  0  0  0  0
  -26.4520  -37.4010   23.7800 N   0  0  0  0  0  0  0  0  0  0  0  0
  -26.0460  -38.3200   23.9320 H   0  0  0  0  0  0  0  0  0  0  0  0
  -26.4170  -31.7260   25.1500 C   0  0  1  0  0  0  0  0  0  0  0  0
  -25.3220  -31.4830   26.2160 C   0  0  0  0  0  1  0  0  0  0  0  0
  -27.0000  -30.3490   24.7530 C   0  0  0  0  0  1  0  0  0  0  0  0
  -27.5680  -32.5150   25.8170 C   0  0  0  0  0  1  0  0  0  0  0  0
  1  5  1  0
  1  3  1  0
  2  7  2  0
  3  2  1  0
  3  4  1  1
  5 13  1  0
  5  2  1  0
  6  1  2  0
  9 12  1  0
 10  8  1  0
 11  9  2  0
 11 13  1  0
 12  8  2  0
 13 10  2  0
 14 23  1  0
 15 20  1  0
 16 17  1  0
 16 15  1  0
 18 17  1  0
 18 29  1  0
 18 19  1  0
 20 14  1  0
 20 19  1  0
 21 14  2  0
 22 24  2  0
 22 12  1  0
 23 22  1  0
 23 25  1  0
 26 27  2  0
 27 46  1  0
 28 27  1  0
 28 31  1  0
 29 26  1  0
 29 30  1  0
 30 28  2  0
 31 32  1  0
 32 33  2  0
 34 37  1  0
 34 33  1  0
 35 34  2  0
 36 35  1  0
 36 31  2  0
 37 38  1  0
 38 39  1  0
 39 40  2  0
 41 40  1  0
 41 45  1  0
 42 41  2  0
 43 38  2  0
 43 42  1  0
 44 43  1  0
 46 47  1  0
 47 50  1  0
 47 49  1  0
 48 46  2  0
 51 52  1  0
 51 26  1  0
 53 51  1  0
 54  3  1  0
 55 66  2  0
 56 54  1  0
 56 61  1  0
 57 65  1  0
 57 67  1  0
 58 64  1  0
 58 60  1  0
 59 65  1  0
 60 59  1  0
 61 60  2  0
 62 63  1  0
 62 56  2  0
 63 58  2  0
 64 57  1  0
 65 55  1  0
 67 69  2  0
 68 67  1  0
 70 68  1  0
 71 80  2  0
 71 76  1  0
 72 68  1  0
 72 76  1  0
 73 72  1  0
 74 75  1  0
 74 73  1  0
 75 71  1  0
 76 77  2  0
 77 78  1  0
 79 78  2  0
 80 79  1  0
 81 55  1  0
 81 82  1  0
 81 91  1  0
 82 85  1  0
 83 87  1  0
 83 82  1  0
 84 83  2  0
 87 86  1  0
 89 87  1  0
 89 90  1  0
 89 88  1  0
 91 94  1  1
 91 92  1  0
 93 91  1  0
M  ISO  4   3 101  14 100  23 100  54 101
M  END
>  <TORSDO>  (25) 
F 17

>  <SCORE>  (25) 
-15.494

>  <name>  (25) 
24

>  <ligand_id>  (25) 
24

>  <original_smiles>  (25) 
[H]c1c([H])c([H])c2c(c1[H])C([H])([H])C([H])([H])C([H])([H])C2([H])N([H])C(=O)C1([H])N(C(=O)C([H])(N([H])C(=O)C([H])(N([H])C([H])([H])[H])C([H])([H])[H])C(C([H])([H])[H])(C([H])([H])[H])C([H])([H])[H])C([H])([H])c2c([H])c(OC3(C([H])([H])[H])C(=O)N(c4c([H])c([H])c(C(=O)N([H])C(=O)N5C([H])([H])C([H])([H])C([H])([H])C([H])(n6nc(-c7c([H])c([H])c(Oc8c([H])c([H])c(F)c([H])c8F)c([H])c7[H])c(C(=O)N([H])[H])c6N([H])[H])C5([H])[H])c([H])c4[H])C3=O)c([H])c([H])c2C1([H])[H]

>  <smiles>  (25) 
[H]c1c([H])c([H])c2c(c1[H])C([H])([H])C([H])([H])C([H])([H])C2([H])N([H])C(=O)C1([H])N(C(=O)C([H])(N([H])C(=O)C([H])(N([H])C([H])([H])[H])C([H])([H])[H])C(C([H])([H])[H])(C([H])([H])[H])C([H])([H])[H])C([H])([H])c2c([H])c(OC3(C([H])([H])[H])C(=O)N(c4c([H])c([H])c(C(=O)N([H])C(=O)N5C([H])([H])C([H])([H])C([H])([H])C([H])(n6nc(-c7c([H])c([H])c(Oc8c([H])c([H])c(F)c([H])c8F)c([H])c7[H])c(C(=O)N([H])[H])c6N([H])[H])C5([H])[H])c([H])c4[H])C3=O)c([H])c([H])c2C1([H])[H]

$$$$
25:0:0
     RDKit          3D

 93102  0  0  1  0  0  0  0  0999 V2000
  -28.5190  -23.8580   20.6040 C   0  0  0  0  0  0  0  0  0  0  0  0
  -28.0600  -22.6250   21.2380 C   0  0  0  0  0  0  0  0  0  0  0  0
  -28.0020  -25.1440   20.7630 C   0  0  0  0  0  3  0  0  0  0  0  0
  -29.5810  -23.0130   19.8460 C   0  0  0  0  0  2  0  0  0  0  0  0
  -29.1290  -21.8790   20.7080 N   0  0  0  0  0  0  0  0  0  0  0  0
  -27.0610  -22.3930   21.8900 O   0  0  0  0  0  0  0  0  0  0  0  0
  -28.6040  -19.5590   19.7200 C   0  0  0  0  0  3  0  0  0  0  0  0
  -30.6200  -18.2670   21.1100 C   0  0  0  0  0  3  0  0  0  0  0  0
  -28.7540  -18.1330   19.6380 C   0  0  0  0  0  0  0  0  0  0  0  0
  -29.4130  -20.4290   20.5060 C   0  0  0  0  0  0  0  0  0  0  0  0
  -29.7460  -17.4130   20.3770 C   0  0  0  0  0  0  0  0  0  0  0  0
  -30.4600  -19.6990   21.1630 C   0  0  0  0  0  0  0  0  0  0  0  0
  -27.7900  -17.4090   18.7110 C   0  0  0  0  0  1  0  0  0  0  0  0
  -31.3230  -20.3990   21.9400 F   0  0  0  0  0  0  0  0  0  0  0  0
  -30.5770  -14.8640   20.3610 C   0  0  0  0  0  0  0  0  0  0  0  0
  -30.4340  -12.5700   19.3660 C   0  0  0  0  0  2  0  0  0  0  0  0
  -29.4830  -12.6340   18.1490 C   0  0  0  0  0  2  0  0  0  0  0  0
  -28.0120  -12.4550   18.5830 C   0  0  0  0  0  2  0  0  0  0  0  0
  -27.6390  -13.3350   19.8040 C   0  0  0  0  0  3  0  0  0  0  0  0
  -28.7060  -13.2420   20.9170 C   0  0  0  0  0  2  0  0  0  0  0  0
  -29.9990  -13.6130   20.3200 N   0  0  0  0  0  0  0  0  0  0  0  0
  -31.7670  -15.0130   20.0720 O   0  0  0  0  0  0  0  0  0  0  0  0
  -29.6920  -15.9260   20.4950 N   0  0  0  0  0  0  0  0  0  0  0  0
  -28.7520  -15.5780   20.5810 H   0  0  0  0  0  0  0  0  0  0  0  0
  -25.2560  -13.9320   20.5500 C   0  0  0  0  0  0  0  0  0  0  0  0
  -24.1880  -13.1580   20.9120 C   0  0  0  0  0  0  0  0  0  0  0  0
  -24.6460  -11.8070   20.8670 C   0  0  0  0  0  0  0  0  0  0  0  0
  -26.2960  -13.0500   20.2990 N   0  0  0  0  0  0  0  0  0  0  0  0
  -25.9360  -11.7660   20.5520 N   0  0  0  0  0  0  0  0  0  0  0  0
  -23.9170  -10.5460   21.0470 C   0  0  0  0  0  0  0  0  0  0  0  0
  -24.3380   -9.5770   21.9840 C   0  0  0  0  0  3  0  0  0  0  0  0
  -23.6090   -8.3800   22.1510 C   0  0  0  0  0  3  0  0  0  0  0  0
  -22.4450   -8.1440   21.3820 C   0  0  0  0  0  0  0  0  0  0  0  0
  -22.0430   -9.1040   20.4350 C   0  0  0  0  0  3  0  0  0  0  0  0
  -22.7730  -10.2920   20.2650 C   0  0  0  0  0  3  0  0  0  0  0  0
  -21.6890   -7.0000   21.4580 O   0  0  0  0  0  0  0  0  0  0  0  0
  -21.6070   -6.2670   22.6140 C   0  0  0  0  0  0  0  0  0  0  0  0
  -21.1180   -6.8250   23.8160 C   0  0  0  0  0  3  0  0  0  0  0  0
  -20.9860   -6.0180   24.9630 C   0  0  0  0  0  3  0  0  0  0  0  0
  -21.3290   -4.6550   24.9110 C   0  0  0  0  0  0  0  0  0  0  0  0
  -21.8100   -4.0950   23.7140 C   0  0  0  0  0  3  0  0  0  0  0  0
  -21.9450   -4.9000   22.5680 C   0  0  0  0  0  0  0  0  0  0  0  0
  -22.3890   -4.3520   21.4110 F   0  0  0  0  0  0  0  0  0  0  0  0
  -21.1950   -3.8770   26.0110 F   0  0  0  0  0  0  0  0  0  0  0  0
  -22.7930  -13.6390   21.1900 C   0  0  0  0  0  0  0  0  0  0  0  0
  -22.0620  -12.9380   22.0500 N   0  0  0  0  0  0  0  0  0  0  0  0
  -22.3590  -14.6720   20.6800 O   0  0  0  0  0  0  0  0  0  0  0  0
  -22.4250  -12.1020   22.4840 H   0  0  0  0  0  0  0  0  0  0  0  0
  -21.1250  -13.2410   22.2760 H   0  0  0  0  0  0  0  0  0  0  0  0
  -25.4250  -15.3030   20.3920 N   0  0  0  0  0  0  0  0  0  0  0  0
  -24.6640  -15.9590   20.5290 H   0  0  0  0  0  0  0  0  0  0  0  0
  -26.2710  -15.7460   20.0660 H   0  0  0  0  0  0  0  0  0  0  0  0
  -28.2960  -26.4320   20.2220 O   0  0  0  0  0  0  0  0  0  0  0  0
  -24.6020  -31.9180   23.2650 C   0  0  0  0  0  0  0  0  0  0  0  0
  -27.2280  -27.3570   20.1860 C   0  0  0  0  0  0  0  0  0  0  0  0
  -23.4040  -30.5210   21.6220 C   0  0  0  0  0  3  0  0  0  0  0  0
  -24.8630  -28.9840   20.1810 C   0  0  0  0  0  0  0  0  0  0  0  0
  -25.9450  -30.8450   21.4370 C   0  0  0  0  0  2  0  0  0  0  0  0
  -26.0330  -29.4670   20.7830 C   0  0  0  0  0  0  0  0  0  0  0  0
  -27.2210  -28.6650   20.7780 C   0  0  0  0  0  3  0  0  0  0  0  0
  -26.0370  -26.9430   19.5510 C   0  0  0  0  0  3  0  0  0  0  0  0
  -24.8680  -27.7290   19.5540 C   0  0  0  0  0  3  0  0  0  0  0  0
  -23.6220  -29.8550   20.2370 C   0  0  0  0  0  2  0  0  0  0  0  0
  -24.6690  -31.1120   22.1650 N   0  0  0  0  0  0  0  0  0  0  0  0
  -23.5170  -32.1870   23.8020 O   0  0  0  0  0  0  0  0  0  0  0  0
  -22.7450  -29.4960   22.5780 C   0  0  0  0  0  0  0  0  0  0  0  0
  -21.4210  -29.3060   22.4460 N   0  0  0  0  0  0  0  0  0  0  0  0
  -23.4250  -28.8780   23.4010 O   0  0  0  0  0  0  0  0  0  0  0  0
  -20.9290  -29.8560   21.7560 H   0  0  0  0  0  0  0  0  0  0  0  0
  -18.0550  -28.0660   22.9290 C   0  0  0  0  0  0  0  0  0  0  0  0
  -20.6090  -28.3600   23.2150 C   0  0  0  0  0  3  0  0  0  0  0  0
  -20.7330  -26.9280   22.6440 C   0  0  0  0  0  2  0  0  0  0  0  0
  -19.6430  -26.5890   21.6230 C   0  0  0  0  0  2  0  0  0  0  0  0
  -18.2550  -26.7180   22.2570 C   0  0  0  0  0  2  0  0  0  0  0  0
  -19.1610  -28.8440   23.3640 C   0  0  0  0  0  0  0  0  0  0  0  0
  -18.9210  -30.1060   23.9530 C   0  0  0  0  0  3  0  0  0  0  0  0
  -17.6080  -30.5880   24.1100 C   0  0  0  0  0  3  0  0  0  0  0  0
  -16.5170  -29.8080   23.6910 C   0  0  0  0  0  3  0  0  0  0  0  0
  -16.7410  -28.5490   23.1060 C   0  0  0  0  0  3  0  0  0  0  0  0
  -25.8820  -32.5560   23.8880 C   0  0  0  0  0  3  0  0  0  0  0  0
  -25.5680  -33.9540   24.2140 N   0  0  0  0  0  0  0  0  0  0  0  0
  -25.8860  -35.0060   23.4480 C   0  0  0  0  0  0  0  0  0  0  0  0
  -26.5420  -34.9020   22.4090 O   0  0  0  0  0  0  0  0  0  0  0  0
  -24.9810  -34.1080   25.0210 H   0  0  0  0  0  0  0  0  0  0  0  0
  -24.1430  -36.7900   23.1130 C   0  0  0  0  0  1  0  0  0  0  0  0
  -25.3980  -36.3940   23.9070 C   0  0  0  0  0  3  0  0  0  0  0  0
  -27.5380  -37.2970   24.7040 C   0  0  0  0  0  1  0  0  0  0  0  0
  -26.4240  -37.4520   23.7730 N   0  0  0  0  0  0  0  0  0  0  0  0
  -26.0140  -38.3720   23.9180 H   0  0  0  0  0  0  0  0  0  0  0  0
  -26.3970  -31.7890   25.1680 C   0  0  1  0  0  0  0  0  0  0  0  0
  -25.3030  -31.5520   26.2330 C   0  0  0  0  0  1  0  0  0  0  0  0
  -26.9830  -30.4110   24.7820 C   0  0  0  0  0  1  0  0  0  0  0  0
  -27.5450  -32.5870   25.8290 C   0  0  0  0  0  1  0  0  0  0  0  0
  1  3  2  0
  1  2  1  0
  2  6  2  0
  4  1  1  0
  4  5  1  0
  5  2  1  0
  7 10  1  0
  8 12  1  0
  9  7  2  0
  9 11  1  0
 10  5  1  0
 10 12  2  0
 11 23  1  0
 11  8  2  0
 12 14  1  0
 13  9  1  0
 15 23  1  0
 16 21  1  0
 17 18  1  0
 17 16  1  0
 19 18  1  0
 19 28  1  0
 19 20  1  0
 21 15  1  0
 21 20  1  0
 22 15  2  0
 23 24  1  0
 25 26  2  0
 26 45  1  0
 27 26  1  0
 27 30  1  0
 28 25  1  0
 28 29  1  0
 29 27  2  0
 30 31  1  0
 31 32  2  0
 33 36  1  0
 33 32  1  0
 34 33  2  0
 35 34  1  0
 35 30  2  0
 36 37  1  0
 37 38  1  0
 38 39  2  0
 40 39  1  0
 40 44  1  0
 41 40  2  0
 42 37  2  0
 42 41  1  0
 43 42  1  0
 45 46  1  0
 46 49  1  0
 46 48  1  0
 47 45  2  0
 50 51  1  0
 50 25  1  0
 52 50  1  0
 53  3  1  0
 54 65  2  0
 55 53  1  0
 55 60  1  0
 56 64  1  0
 56 66  1  0
 57 63  1  0
 57 59  1  0
 58 64  1  0
 59 58  1  0
 60 59  2  0
 61 62  1  0
 61 55  2  0
 62 57  2  0
 63 56  1  0
 64 54  1  0
 66 68  2  0
 67 66  1  0
 69 67  1  0
 70 79  2  0
 70 75  1  0
 71 67  1  0
 71 75  1  0
 72 71  1  0
 73 74  1  0
 73 72  1  0
 74 70  1  0
 75 76  2  0
 76 77  1  0
 78 77  2  0
 79 78  1  0
 80 54  1  0
 80 81  1  0
 80 90  1  0
 81 84  1  0
 82 86  1  0
 82 81  1  0
 83 82  2  0
 86 85  1  0
 88 86  1  0
 88 89  1  0
 88 87  1  0
 90 93  1  1
 90 91  1  0
 92 90  1  0
M  ISO  4   3 101  15 100  23 100  53 101
M  END
>  <TORSDO>  (26) 
F 17

>  <SCORE>  (26) 
-15.493

>  <name>  (26) 
25

>  <ligand_id>  (26) 
25

>  <original_smiles>  (26) 
[H]C(Oc1c([H])c([H])c2c(c1[H])C([H])([H])N(C(=O)C([H])(N([H])C(=O)C([H])(N([H])C([H])([H])[H])C([H])([H])[H])C(C([H])([H])[H])(C([H])([H])[H])C([H])([H])[H])C([H])(C(=O)N([H])C1([H])c3c([H])c([H])c([H])c([H])c3C([H])([H])C([H])([H])C1([H])[H])C2([H])[H])=C1C(=O)N(c2c([H])c(C([H])([H])[H])c(N([H])C(=O)N3C([H])([H])C([H])([H])C([H])([H])C([H])(n4nc(-c5c([H])c([H])c(Oc6c([H])c([H])c(F)c([H])c6F)c([H])c5[H])c(C(=O)N([H])[H])c4N([H])[H])C3([H])[H])c([H])c2F)C1([H])[H]

>  <smiles>  (26) 
[H]C(Oc1c([H])c([H])c2c(c1[H])C([H])([H])N(C(=O)C([H])(N([H])C(=O)C([H])(N([H])C([H])([H])[H])C([H])([H])[H])C(C([H])([H])[H])(C([H])([H])[H])C([H])([H])[H])C([H])(C(=O)N([H])C1([H])c3c([H])c([H])c([H])c([H])c3C([H])([H])C([H])([H])C1([H])[H])C2([H])[H])=C1C(=O)N(c2c([H])c(C([H])([H])[H])c(N([H])C(=O)N3C([H])([H])C([H])([H])C([H])([H])C([H])(n4nc(-c5c([H])c([H])c(Oc6c([H])c([H])c(F)c([H])c6F)c([H])c5[H])c(C(=O)N([H])[H])c4N([H])[H])C3([H])[H])c([H])c2F)C1([H])[H]

$$$$
26:0:0
     RDKit          3D

 94103  0  0  1  0  0  0  0  0999 V2000
  -29.2670  -24.9900   21.3610 C   0  0  0  0  0  0  0  0  0  0  0  0
  -28.7570  -26.2390   21.3400 C   0  0  0  0  0  0  0  0  0  0  0  0
  -29.4570  -24.1910   22.6550 C   0  0  0  0  0  2  0  0  0  0  0  0
  -29.7440  -24.2890   20.0990 C   0  0  0  0  0  2  0  0  0  0  0  0
  -29.3890  -22.6670   22.4650 C   0  0  0  0  0  2  0  0  0  0  0  0
  -30.7740  -23.2040   20.4390 C   0  0  0  0  0  2  0  0  0  0  0  0
  -28.4020  -27.0200   22.6100 C   0  0  0  0  0  1  0  0  0  0  0  0
  -30.1630  -22.1950   21.3150 N   0  0  0  0  0  0  0  0  0  0  0  0
  -30.2560  -19.0490   19.2800 C   0  0  0  0  0  3  0  0  0  0  0  0
  -29.6220  -18.4790   21.5460 C   0  0  0  0  0  3  0  0  0  0  0  0
  -30.3050  -20.4080   19.6230 C   0  0  0  0  0  3  0  0  0  0  0  0
  -29.6870  -19.8440   21.8950 C   0  0  0  0  0  3  0  0  0  0  0  0
  -29.9190  -18.0610   20.2320 C   0  0  0  0  0  0  0  0  0  0  0  0
  -30.0490  -20.8350   20.9450 C   0  0  0  0  0  0  0  0  0  0  0  0
  -30.0010  -16.6250   19.8570 C   0  0  0  0  0  3  0  0  0  0  0  0
  -29.7720  -16.3690   18.3590 C   0  0  0  0  0  1  0  0  0  0  0  0
  -30.3040  -15.7240   20.7280 N   0  0  0  0  0  2  0  0  0  0  0  0
  -30.9540  -14.6010   20.2420 C   0  0  0  0  0  0  0  0  0  0  0  0
  -30.5730  -12.4400   19.1320 C   0  0  0  0  0  2  0  0  0  0  0  0
  -29.6270  -12.6230   17.9290 C   0  0  0  0  0  2  0  0  0  0  0  0
  -28.1490  -12.5640   18.3730 C   0  0  0  0  0  2  0  0  0  0  0  0
  -27.8370  -13.3940   19.6500 C   0  0  0  0  0  3  0  0  0  0  0  0
  -28.9130  -13.1970   20.7380 C   0  0  0  0  0  2  0  0  0  0  0  0
  -30.2290  -13.4550   20.1370 N   0  0  0  0  0  0  0  0  0  0  0  0
  -32.0830  -14.6990   19.7600 O   0  0  0  0  0  0  0  0  0  0  0  0
  -25.4550  -13.9940   20.4170 C   0  0  0  0  0  0  0  0  0  0  0  0
  -24.3940  -13.2170   20.7940 C   0  0  0  0  0  0  0  0  0  0  0  0
  -24.8540  -11.8660   20.7380 C   0  0  0  0  0  0  0  0  0  0  0  0
  -26.4960  -13.1130   20.1570 N   0  0  0  0  0  0  0  0  0  0  0  0
  -26.1380  -11.8290   20.4080 N   0  0  0  0  0  0  0  0  0  0  0  0
  -24.1310  -10.6020   20.9220 C   0  0  0  0  0  0  0  0  0  0  0  0
  -24.5300   -9.6590   21.8950 C   0  0  0  0  0  3  0  0  0  0  0  0
  -23.8080   -8.4580   22.0670 C   0  0  0  0  0  3  0  0  0  0  0  0
  -22.6740   -8.1910   21.2650 C   0  0  0  0  0  0  0  0  0  0  0  0
  -22.2940   -9.1230   20.2820 C   0  0  0  0  0  3  0  0  0  0  0  0
  -23.0170  -10.3160   20.1090 C   0  0  0  0  0  3  0  0  0  0  0  0
  -21.9270   -7.0410   21.3430 O   0  0  0  0  0  0  0  0  0  0  0  0
  -21.7440   -6.3820   22.5310 C   0  0  0  0  0  0  0  0  0  0  0  0
  -21.1190   -6.9990   23.6370 C   0  0  0  0  0  3  0  0  0  0  0  0
  -20.8880   -6.2630   24.8170 C   0  0  0  0  0  3  0  0  0  0  0  0
  -21.2720   -4.9110   24.8900 C   0  0  0  0  0  0  0  0  0  0  0  0
  -21.8890   -4.2920   23.7880 C   0  0  0  0  0  3  0  0  0  0  0  0
  -22.1210   -5.0270   22.6110 C   0  0  0  0  0  0  0  0  0  0  0  0
  -22.6980   -4.4200   21.5440 F   0  0  0  0  0  0  0  0  0  0  0  0
  -21.0430   -4.2000   26.0190 F   0  0  0  0  0  0  0  0  0  0  0  0
  -23.0020  -13.6910   21.0960 C   0  0  0  0  0  0  0  0  0  0  0  0
  -22.2940  -12.9890   21.9740 N   0  0  0  0  0  0  0  0  0  0  0  0
  -22.5520  -14.7190   20.5920 O   0  0  0  0  0  0  0  0  0  0  0  0
  -22.6720  -12.1590   22.4050 H   0  0  0  0  0  0  0  0  0  0  0  0
  -21.3600  -13.2880   22.2180 H   0  0  0  0  0  0  0  0  0  0  0  0
  -25.6170  -15.3670   20.2560 N   0  0  0  0  0  0  0  0  0  0  0  0
  -24.8560  -16.0210   20.3970 H   0  0  0  0  0  0  0  0  0  0  0  0
  -26.4760  -15.8130   19.9590 H   0  0  0  0  0  0  0  0  0  0  0  0
  -28.5520  -26.8930   20.1320 O   0  0  0  0  0  0  0  0  0  0  0  0
  -24.6380  -31.8780   23.1740 C   0  0  0  0  0  0  0  0  0  0  0  0
  -27.3920  -27.6210   20.0200 C   0  0  0  0  0  0  0  0  0  0  0  0
  -23.4510  -30.4630   21.5230 C   0  0  0  0  0  3  0  0  0  0  0  0
  -24.9370  -29.0050   20.0460 C   0  0  0  0  0  0  0  0  0  0  0  0
  -25.9490  -30.9400   21.2790 C   0  0  0  0  0  2  0  0  0  0  0  0
  -26.0780  -29.5930   20.6040 C   0  0  0  0  0  0  0  0  0  0  0  0
  -27.3130  -28.9240   20.5530 C   0  0  0  0  0  3  0  0  0  0  0  0
  -26.2440  -27.0380   19.4420 C   0  0  0  0  0  3  0  0  0  0  0  0
  -25.0160  -27.7320   19.4470 C   0  0  0  0  0  3  0  0  0  0  0  0
  -23.6570  -29.8040   20.1310 C   0  0  0  0  0  2  0  0  0  0  0  0
  -24.6980  -31.1050   22.0520 N   0  0  0  0  0  0  0  0  0  0  0  0
  -23.5600  -32.1050   23.7380 O   0  0  0  0  0  0  0  0  0  0  0  0
  -22.8510  -29.4080   22.4800 C   0  0  0  0  0  0  0  0  0  0  0  0
  -21.5320  -29.1840   22.3640 N   0  0  0  0  0  0  0  0  0  0  0  0
  -23.5660  -28.7950   23.2760 O   0  0  0  0  0  0  0  0  0  0  0  0
  -21.0180  -29.7350   21.6910 H   0  0  0  0  0  0  0  0  0  0  0  0
  -18.2050  -27.8750   22.8710 C   0  0  0  0  0  0  0  0  0  0  0  0
  -20.7540  -28.2100   23.1280 C   0  0  0  0  0  3  0  0  0  0  0  0
  -20.8980  -26.7920   22.5310 C   0  0  0  0  0  2  0  0  0  0  0  0
  -19.8000  -26.4480   21.5190 C   0  0  0  0  0  2  0  0  0  0  0  0
  -18.4190  -26.5400   22.1750 C   0  0  0  0  0  2  0  0  0  0  0  0
  -19.3010  -28.6650   23.3030 C   0  0  0  0  0  0  0  0  0  0  0  0
  -19.0470  -29.9140   23.9120 C   0  0  0  0  0  3  0  0  0  0  0  0
  -17.7290  -30.3730   24.0920 C   0  0  0  0  0  3  0  0  0  0  0  0
  -16.6470  -29.5770   23.6770 C   0  0  0  0  0  3  0  0  0  0  0  0
  -16.8850  -28.3310   23.0720 C   0  0  0  0  0  3  0  0  0  0  0  0
  -25.9160  -32.5360   23.7870 C   0  0  0  0  0  3  0  0  0  0  0  0
  -25.5690  -33.9140   24.1550 N   0  0  0  0  0  0  0  0  0  0  0  0
  -25.8620  -34.9940   23.4180 C   0  0  0  0  0  0  0  0  0  0  0  0
  -26.5250  -34.9360   22.3790 O   0  0  0  0  0  0  0  0  0  0  0  0
  -24.9790  -34.0320   24.9660 H   0  0  0  0  0  0  0  0  0  0  0  0
  -24.0900  -36.7500   23.1010 C   0  0  0  0  0  1  0  0  0  0  0  0
  -25.3350  -36.3540   23.9120 C   0  0  0  0  0  3  0  0  0  0  0  0
  -27.4330  -37.2760   24.7950 C   0  0  0  0  0  1  0  0  0  0  0  0
  -26.3400  -37.4370   23.8390 N   0  0  0  0  0  0  0  0  0  0  0  0
  -25.9080  -38.3420   24.0040 H   0  0  0  0  0  0  0  0  0  0  0  0
  -26.4850  -31.7510   25.0320 C   0  0  1  0  0  0  0  0  0  0  0  0
  -25.4250  -31.4540   26.1170 C   0  0  0  0  0  1  0  0  0  0  0  0
  -27.1010  -30.4020   24.5880 C   0  0  0  0  0  1  0  0  0  0  0  0
  -27.6250  -32.5640   25.6890 C   0  0  0  0  0  1  0  0  0  0  0  0
  1  3  1  0
  2  1  2  0
  2  7  1  0
  4  6  1  0
  4  1  1  0
  5  3  1  0
  6  8  1  0
  8  5  1  0
  9 11  2  0
  9 13  1  0
 10 12  1  0
 11 14  1  0
 13 10  2  0
 14  8  1  0
 14 12  2  0
 15 16  1  0
 15 13  1  0
 15 17  1  0
 18 17  1  0
 19 24  1  0
 20 21  1  0
 20 19  1  0
 22 21  1  0
 22 29  1  0
 22 23  1  0
 24 18  1  0
 24 23  1  0
 25 18  2  0
 26 27  2  0
 27 46  1  0
 28 27  1  0
 28 31  1  0
 29 30  1  0
 29 26  1  0
 30 28  2  0
 31 32  1  0
 32 33  2  0
 34 37  1  0
 34 33  1  0
 35 34  2  0
 36 35  1  0
 36 31  2  0
 37 38  1  0
 38 43  2  0
 38 39  1  0
 39 40  2  0
 40 41  1  0
 41 45  1  0
 42 41  2  0
 43 42  1  0
 44 43  1  0
 46 47  1  0
 47 50  1  0
 47 49  1  0
 48 46  2  0
 51 52  1  0
 51 26  1  0
 53 51  1  0
 54  2  1  0
 55 66  2  0
 56 54  1  0
 56 61  1  0
 57 65  1  0
 57 67  1  0
 58 64  1  0
 58 60  1  0
 59 65  1  0
 60 59  1  0
 61 60  2  0
 62 63  1  0
 62 56  2  0
 63 58  2  0
 64 57  1  0
 65 55  1  0
 67 69  2  0
 68 67  1  0
 70 68  1  0
 71 80  2  0
 71 76  1  0
 72 68  1  0
 72 76  1  0
 73 72  1  0
 74 75  1  0
 74 73  1  0
 75 71  1  0
 76 77  2  0
 77 78  1  0
 79 78  2  0
 80 79  1  0
 81 55  1  0
 81 82  1  0
 81 91  1  0
 82 85  1  0
 83 87  1  0
 83 82  1  0
 84 83  2  0
 87 86  1  0
 89 87  1  0
 89 90  1  0
 89 88  1  0
 91 94  1  1
 91 92  1  0
 93 91  1  0
M  ISO  4   2 101  17 100  18 100  54 101
M  END
>  <TORSDO>  (27) 
F 18

>  <SCORE>  (27) 
-13.210

>  <name>  (27) 
26

>  <ligand_id>  (27) 
26

>  <original_smiles>  (27) 
[H]c1c([H])c([H])c2c(c1[H])C([H])([H])C([H])([H])C([H])([H])C2([H])N([H])C(=O)C1([H])N(C(=O)C([H])(N([H])C(=O)C([H])(N([H])C([H])([H])[H])C([H])([H])[H])C(C([H])([H])[H])(C([H])([H])[H])C([H])([H])[H])C([H])([H])c2c([H])c(OC(=C3C([H])([H])C([H])([H])N(c4c([H])c([H])c(C(=NC(=O)N5C([H])([H])C([H])([H])C([H])([H])C([H])(n6nc(-c7c([H])c([H])c(Oc8c([H])c([H])c(F)c([H])c8F)c([H])c7[H])c(C(=O)N([H])[H])c6N([H])[H])C5([H])[H])C([H])([H])[H])c([H])c4[H])C([H])([H])C3([H])[H])C([H])([H])[H])c([H])c([H])c2C1([H])[H]

>  <smiles>  (27) 
[H]c1c([H])c([H])c2c(c1[H])C([H])([H])C([H])([H])C([H])([H])C2([H])N([H])C(=O)C1([H])N(C(=O)C([H])(N([H])C(=O)C([H])(N([H])C([H])([H])[H])C([H])([H])[H])C(C([H])([H])[H])(C([H])([H])[H])C([H])([H])[H])C([H])([H])c2c([H])c(OC(=C3C([H])([H])C([H])([H])N(c4c([H])c([H])c(C(=NC(=O)N5C([H])([H])C([H])([H])C([H])([H])C([H])(n6nc(-c7c([H])c([H])c(Oc8c([H])c([H])c(F)c([H])c8F)c([H])c7[H])c(C(=O)N([H])[H])c6N([H])[H])C5([H])[H])C([H])([H])[H])c([H])c4[H])C([H])([H])C3([H])[H])C([H])([H])[H])c([H])c([H])c2C1([H])[H]

$$$$
27:0:0
     RDKit          3D

 93102  0  0  1  0  0  0  0  0999 V2000
  -28.8250  -23.7910   20.2830 C   0  0  0  0  0  0  0  0  0  0  0  0
  -30.2430  -23.6730   20.4880 C   0  0  0  0  0  0  0  0  0  0  0  0
  -28.3560  -22.3740   20.1440 C   0  0  0  0  0  0  0  0  0  0  0  0
  -31.0990  -24.7020   20.6060 C   0  0  0  0  0  1  0  0  0  0  0  0
  -28.0050  -24.9160   20.1980 C   0  0  0  0  0  2  0  0  0  0  0  0
  -30.6410  -22.2030   20.5440 C   0  0  0  0  0  2  0  0  0  0  0  0
  -29.3950  -21.4620   20.2870 N   0  0  0  0  0  0  0  0  0  0  0  0
  -27.1860  -22.0340   19.9320 O   0  0  0  0  0  0  0  0  0  0  0  0
  -29.3480  -18.5330   17.8850 C   0  0  0  0  0  3  0  0  0  0  0  0
  -29.6510  -17.3990   18.6670 C   0  0  0  0  0  3  0  0  0  0  0  0
  -29.2380  -19.8180   18.4540 C   0  0  0  0  0  3  0  0  0  0  0  0
  -29.7430  -18.8490   20.6260 C   0  0  0  0  0  3  0  0  0  0  0  0
  -29.8490  -17.4990   20.0630 C   0  0  0  0  0  0  0  0  0  0  0  0
  -29.4340  -20.0400   19.8350 C   0  0  0  0  0  0  0  0  0  0  0  0
  -30.0930  -16.1730   20.8690 C   0  0  0  0  0  0  0  0  0  0  0  0
  -29.8130  -16.1640   22.0740 O   0  0  0  0  0  0  0  0  0  0  0  0
  -30.7860  -14.8050   20.2400 C   0  0  0  0  0  0  0  0  0  0  0  0
  -30.5070  -12.5520   19.1850 C   0  0  0  0  0  2  0  0  0  0  0  0
  -29.5540  -12.6540   17.9750 C   0  0  0  0  0  2  0  0  0  0  0  0
  -28.0900  -12.4850   18.4230 C   0  0  0  0  0  2  0  0  0  0  0  0
  -27.7440  -13.3540   19.6610 C   0  0  0  0  0  3  0  0  0  0  0  0
  -28.8200  -13.2400   20.7620 C   0  0  0  0  0  2  0  0  0  0  0  0
  -30.1140  -13.5960   20.1650 N   0  0  0  0  0  0  0  0  0  0  0  0
  -31.9280  -14.8860   19.7720 O   0  0  0  0  0  0  0  0  0  0  0  0
  -25.3700  -13.9470   20.4260 C   0  0  0  0  0  0  0  0  0  0  0  0
  -24.3090  -13.1740   20.8110 C   0  0  0  0  0  0  0  0  0  0  0  0
  -24.7690  -11.8220   20.7730 C   0  0  0  0  0  0  0  0  0  0  0  0
  -26.4080  -13.0660   20.1720 N   0  0  0  0  0  0  0  0  0  0  0  0
  -26.0550  -11.7820   20.4440 N   0  0  0  0  0  0  0  0  0  0  0  0
  -24.0420  -10.5610   20.9730 C   0  0  0  0  0  0  0  0  0  0  0  0
  -24.4770   -9.5960   21.9070 C   0  0  0  0  0  3  0  0  0  0  0  0
  -23.7490   -8.4020   22.0950 C   0  0  0  0  0  3  0  0  0  0  0  0
  -22.5700   -8.1640   21.3490 C   0  0  0  0  0  0  0  0  0  0  0  0
  -22.1540   -9.1190   20.4040 C   0  0  0  0  0  3  0  0  0  0  0  0
  -22.8830  -10.3040   20.2130 C   0  0  0  0  0  3  0  0  0  0  0  0
  -21.8130   -7.0220   21.4470 O   0  0  0  0  0  0  0  0  0  0  0  0
  -21.7540   -6.2930   22.6070 C   0  0  0  0  0  0  0  0  0  0  0  0
  -21.3290   -6.8670   23.8250 C   0  0  0  0  0  3  0  0  0  0  0  0
  -21.2160   -6.0650   24.9800 C   0  0  0  0  0  3  0  0  0  0  0  0
  -21.5190   -4.6920   24.9170 C   0  0  0  0  0  0  0  0  0  0  0  0
  -21.9370   -4.1180   23.7030 C   0  0  0  0  0  3  0  0  0  0  0  0
  -22.0510   -4.9160   22.5520 C   0  0  0  0  0  0  0  0  0  0  0  0
  -22.4340   -4.3540   21.3790 F   0  0  0  0  0  0  0  0  0  0  0  0
  -21.4040   -3.9200   26.0230 F   0  0  0  0  0  0  0  0  0  0  0  0
  -22.9180  -13.6560   21.1040 C   0  0  0  0  0  0  0  0  0  0  0  0
  -22.2060  -12.9670   21.9890 N   0  0  0  0  0  0  0  0  0  0  0  0
  -22.4730  -14.6770   20.5840 O   0  0  0  0  0  0  0  0  0  0  0  0
  -22.5780  -12.1410   22.4320 H   0  0  0  0  0  0  0  0  0  0  0  0
  -21.2720  -13.2720   22.2270 H   0  0  0  0  0  0  0  0  0  0  0  0
  -25.5320  -15.3170   20.2470 N   0  0  0  0  0  0  0  0  0  0  0  0
  -24.7660  -15.9700   20.3710 H   0  0  0  0  0  0  0  0  0  0  0  0
  -26.3760  -15.7630   19.9110 H   0  0  0  0  0  0  0  0  0  0  0  0
  -28.2750  -26.3310   20.2220 O   0  0  0  0  0  0  0  0  0  0  0  0
  -24.5960  -31.8760   23.2020 C   0  0  0  0  0  0  0  0  0  0  0  0
  -27.2030  -27.2620   20.1520 C   0  0  0  0  0  0  0  0  0  0  0  0
  -23.3990  -30.4750   21.5640 C   0  0  0  0  0  3  0  0  0  0  0  0
  -24.8530  -28.9300   20.1320 C   0  0  0  0  0  0  0  0  0  0  0  0
  -25.9440  -30.7770   21.3930 C   0  0  0  0  0  2  0  0  0  0  0  0
  -26.0230  -29.3930   20.7470 C   0  0  0  0  0  0  0  0  0  0  0  0
  -27.1970  -28.5670   20.7600 C   0  0  0  0  0  3  0  0  0  0  0  0
  -26.0210  -26.9030   19.4600 C   0  0  0  0  0  3  0  0  0  0  0  0
  -24.8580  -27.6920   19.4770 C   0  0  0  0  0  3  0  0  0  0  0  0
  -23.6170  -29.8060   20.1820 C   0  0  0  0  0  2  0  0  0  0  0  0
  -24.6650  -31.0620   22.1080 N   0  0  0  0  0  0  0  0  0  0  0  0
  -23.5100  -32.1530   23.7330 O   0  0  0  0  0  0  0  0  0  0  0  0
  -22.7350  -29.4570   22.5220 C   0  0  0  0  0  0  0  0  0  0  0  0
  -21.4060  -29.2870   22.4050 N   0  0  0  0  0  0  0  0  0  0  0  0
  -23.4140  -28.8240   23.3340 O   0  0  0  0  0  0  0  0  0  0  0  0
  -20.9160  -29.8480   21.7240 H   0  0  0  0  0  0  0  0  0  0  0  0
  -18.0240  -28.1120   22.9390 C   0  0  0  0  0  0  0  0  0  0  0  0
  -20.5880  -28.3520   23.1800 C   0  0  0  0  0  3  0  0  0  0  0  0
  -20.6720  -26.9220   22.5950 C   0  0  0  0  0  2  0  0  0  0  0  0
  -19.5550  -26.6150   21.5920 C   0  0  0  0  0  2  0  0  0  0  0  0
  -18.1830  -26.7660   22.2530 C   0  0  0  0  0  2  0  0  0  0  0  0
  -19.1540  -28.8640   23.3610 C   0  0  0  0  0  0  0  0  0  0  0  0
  -18.9510  -30.1230   23.9660 C   0  0  0  0  0  3  0  0  0  0  0  0
  -17.6510  -30.6320   24.1500 C   0  0  0  0  0  3  0  0  0  0  0  0
  -16.5370  -29.8780   23.7430 C   0  0  0  0  0  3  0  0  0  0  0  0
  -16.7240  -28.6190   23.1440 C   0  0  0  0  0  3  0  0  0  0  0  0
  -25.8750  -32.5150   23.8240 C   0  0  0  0  0  3  0  0  0  0  0  0
  -25.5570  -33.9110   24.1590 N   0  0  0  0  0  0  0  0  0  0  0  0
  -25.8870  -34.9700   23.4070 C   0  0  0  0  0  0  0  0  0  0  0  0
  -26.5590  -34.8760   22.3770 O   0  0  0  0  0  0  0  0  0  0  0  0
  -24.9600  -34.0570   24.9590 H   0  0  0  0  0  0  0  0  0  0  0  0
  -24.1570  -36.7630   23.0560 C   0  0  0  0  0  1  0  0  0  0  0  0
  -25.3930  -36.3540   23.8720 C   0  0  0  0  0  3  0  0  0  0  0  0
  -27.5220  -37.2380   24.7200 C   0  0  0  0  0  1  0  0  0  0  0  0
  -26.4250  -37.4110   23.7730 N   0  0  0  0  0  0  0  0  0  0  0  0
  -26.0160  -38.3280   23.9240 H   0  0  0  0  0  0  0  0  0  0  0  0
  -26.3970  -31.7440   25.0980 C   0  0  1  0  0  0  0  0  0  0  0  0
  -25.3060  -31.4980   26.1670 C   0  0  0  0  0  1  0  0  0  0  0  0
  -26.9850  -30.3690   24.7060 C   0  0  0  0  0  1  0  0  0  0  0  0
  -27.5440  -32.5420   25.7590 C   0  0  0  0  0  1  0  0  0  0  0  0
  1  2  2  0
  2  6  1  0
  2  4  1  0
  3  1  1  0
  3  7  1  0
  5 53  1  0
  5  1  1  0
  7  6  1  0
  8  3  2  0
  9 11  2  0
  9 10  1  0
 10 13  2  0
 11 14  1  0
 13 12  1  0
 13 15  1  0
 14  7  1  0
 14 12  2  0
 15 16  2  0
 17 15  1  0
 18 23  1  0
 19 20  1  0
 19 18  1  0
 21 20  1  0
 21 28  1  0
 21 22  1  0
 23 17  1  0
 23 22  1  0
 24 17  2  0
 25 26  2  0
 26 45  1  0
 27 26  1  0
 27 30  1  0
 28 25  1  0
 28 29  1  0
 29 27  2  0
 30 31  1  0
 31 32  2  0
 33 36  1  0
 33 32  1  0
 34 33  2  0
 35 34  1  0
 35 30  2  0
 36 37  1  0
 37 38  1  0
 38 39  2  0
 40 39  1  0
 40 44  1  0
 41 40  2  0
 42 37  2  0
 42 41  1  0
 43 42  1  0
 45 46  1  0
 46 49  1  0
 46 48  1  0
 47 45  2  0
 50 51  1  0
 50 25  1  0
 52 50  1  0
 54 65  2  0
 55 53  1  0
 55 60  1  0
 56 64  1  0
 56 66  1  0
 57 63  1  0
 57 59  1  0
 58 64  1  0
 59 60  2  0
 59 58  1  0
 61 62  1  0
 61 55  2  0
 62 57  2  0
 63 56  1  0
 64 54  1  0
 66 68  2  0
 67 66  1  0
 69 67  1  0
 70 79  2  0
 70 75  1  0
 71 67  1  0
 71 75  1  0
 72 71  1  0
 73 74  1  0
 73 72  1  0
 74 70  1  0
 75 76  2  0
 76 77  1  0
 78 77  2  0
 79 78  1  0
 80 54  1  0
 80 81  1  0
 80 90  1  0
 81 84  1  0
 82 86  1  0
 82 81  1  0
 83 82  2  0
 86 85  1  0
 88 86  1  0
 88 89  1  0
 88 87  1  0
 90 93  1  1
 90 91  1  0
 92 90  1  0
M  ISO  4   5 101  15 100  17 100  53 101
M  END
>  <TORSDO>  (28) 
F 18

>  <SCORE>  (28) 
-15.059

>  <name>  (28) 
27

>  <ligand_id>  (28) 
27

>  <original_smiles>  (28) 
[H]C([H])=C1C(=C([H])Oc2c([H])c([H])c3c(c2[H])C([H])([H])N(C(=O)C([H])(N([H])C(=O)C([H])(N([H])C([H])([H])[H])C([H])([H])[H])C(C([H])([H])[H])(C([H])([H])[H])C([H])([H])[H])C([H])(C(=O)N([H])C2([H])c4c([H])c([H])c([H])c([H])c4C([H])([H])C([H])([H])C2([H])[H])C3([H])[H])C(=O)N(c2c([H])c([H])c([H])c(C(=O)C(=O)N3C([H])([H])C([H])([H])C([H])([H])C([H])(n4nc(-c5c([H])c([H])c(Oc6c([H])c([H])c(F)c([H])c6F)c([H])c5[H])c(C(=O)N([H])[H])c4N([H])[H])C3([H])[H])c2[H])C1([H])[H]

>  <smiles>  (28) 
[H]C([H])=C1C(=C([H])Oc2c([H])c([H])c3c(c2[H])C([H])([H])N(C(=O)C([H])(N([H])C(=O)C([H])(N([H])C([H])([H])[H])C([H])([H])[H])C(C([H])([H])[H])(C([H])([H])[H])C([H])([H])[H])C([H])(C(=O)N([H])C2([H])c4c([H])c([H])c([H])c([H])c4C([H])([H])C([H])([H])C2([H])[H])C3([H])[H])C(=O)N(c2c([H])c([H])c([H])c(C(=O)C(=O)N3C([H])([H])C([H])([H])C([H])([H])C([H])(n4nc(-c5c([H])c([H])c(Oc6c([H])c([H])c(F)c([H])c6F)c([H])c5[H])c(C(=O)N([H])[H])c4N([H])[H])C3([H])[H])c2[H])C1([H])[H]

$$$$
28:0:0
     RDKit          3D

 84 91  0  0  1  0  0  0  0  0999 V2000
  -28.3800  -22.2430   19.9050 C   0  0  0  0  0  0  0  0  0  0  0  0
  -28.0830  -23.8050   19.8410 C   0  0  0  0  0  0  0  0  0  0  0  0
  -28.1100  -25.3620   20.3760 O   0  0  0  0  0  0  0  0  0  0  0  0
  -24.6420  -31.8380   23.1450 C   0  0  0  0  0  0  0  0  0  0  0  0
  -27.1890  -26.6480   20.2210 C   0  0  0  0  0  0  0  0  0  0  0  0
  -23.4700  -30.4230   21.5130 C   0  0  0  0  0  3  0  0  0  0  0  0
  -24.9320  -28.7480   20.1240 C   0  0  0  0  0  0  0  0  0  0  0  0
  -26.0540  -30.5340   21.4260 C   0  0  0  0  0  2  0  0  0  0  0  0
  -26.1210  -29.0860   20.7800 C   0  0  0  0  0  0  0  0  0  0  0  0
  -27.2220  -28.0620   20.8030 C   0  0  0  0  0  3  0  0  0  0  0  0
  -25.9730  -26.5540   19.4900 C   0  0  0  0  0  3  0  0  0  0  0  0
  -24.9040  -27.5090   19.4550 C   0  0  0  0  0  3  0  0  0  0  0  0
  -23.7260  -29.7080   20.1530 C   0  0  0  0  0  2  0  0  0  0  0  0
  -24.7460  -30.9680   22.0800 N   0  0  0  0  0  0  0  0  0  0  0  0
  -23.5430  -32.1470   23.6400 O   0  0  0  0  0  0  0  0  0  0  0  0
  -22.7370  -29.4640   22.4910 C   0  0  0  0  0  0  0  0  0  0  0  0
  -21.4000  -29.3330   22.3760 N   0  0  0  0  0  0  0  0  0  0  0  0
  -23.3850  -28.8330   23.3290 O   0  0  0  0  0  0  0  0  0  0  0  0
  -20.9260  -29.8920   21.6790 H   0  0  0  0  0  0  0  0  0  0  0  0
  -17.9970  -28.1760   22.9220 C   0  0  0  0  0  0  0  0  0  0  0  0
  -20.5650  -28.4100   23.1540 C   0  0  0  0  0  3  0  0  0  0  0  0
  -20.6370  -26.9760   22.5780 C   0  0  0  0  0  2  0  0  0  0  0  0
  -19.5210  -26.6730   21.5740 C   0  0  0  0  0  2  0  0  0  0  0  0
  -18.1490  -26.8300   22.2330 C   0  0  0  0  0  2  0  0  0  0  0  0
  -19.1300  -28.9250   23.3400 C   0  0  0  0  0  0  0  0  0  0  0  0
  -18.9300  -30.1810   23.9520 C   0  0  0  0  0  3  0  0  0  0  0  0
  -17.6310  -30.6900   24.1450 C   0  0  0  0  0  3  0  0  0  0  0  0
  -16.5140  -29.9400   23.7380 C   0  0  0  0  0  3  0  0  0  0  0  0
  -16.6980  -28.6840   23.1340 C   0  0  0  0  0  3  0  0  0  0  0  0
  -25.8960  -32.5010   23.7930 C   0  0  0  0  0  3  0  0  0  0  0  0
  -25.5630  -33.9030   24.1220 N   0  0  0  0  0  0  0  0  0  0  0  0
  -25.9040  -34.9730   23.3900 C   0  0  0  0  0  0  0  0  0  0  0  0
  -26.5840  -34.8840   22.3660 O   0  0  0  0  0  0  0  0  0  0  0  0
  -24.9570  -34.0430   24.9170 H   0  0  0  0  0  0  0  0  0  0  0  0
  -24.1820  -36.7830   23.0550 C   0  0  0  0  0  1  0  0  0  0  0  0
  -25.4170  -36.3590   23.8660 C   0  0  0  0  0  3  0  0  0  0  0  0
  -27.5450  -37.2400   24.7230 C   0  0  0  0  0  1  0  0  0  0  0  0
  -26.4510  -37.4150   23.7720 N   0  0  0  0  0  0  0  0  0  0  0  0
  -26.0430  -38.3330   23.9240 H   0  0  0  0  0  0  0  0  0  0  0  0
  -26.3850  -31.7520   25.0960 C   0  0  1  0  0  0  0  0  0  0  0  0
  -25.2710  -31.5360   26.1490 C   0  0  0  0  0  1  0  0  0  0  0  0
  -26.9740  -30.3670   24.7560 C   0  0  0  0  0  1  0  0  0  0  0  0
  -27.5240  -32.5580   25.7660 C   0  0  0  0  0  1  0  0  0  0  0  0
  -28.9290  -20.5320   20.5720 C   0  0  0  0  0  2  0  0  0  0  0  0
  -30.2500  -15.8500   20.2240 C   0  0  0  0  0  0  0  0  0  0  0  0
  -30.4010  -13.2550   19.4660 C   0  0  0  0  0  2  0  0  0  0  0  0
  -29.5460  -12.7900   18.2460 C   0  0  0  0  0  2  0  0  0  0  0  0
  -28.1290  -12.4010   18.6840 C   0  0  0  0  0  2  0  0  0  0  0  0
  -27.5830  -13.4080   19.7190 C   0  0  0  0  0  3  0  0  0  0  0  0
  -28.5850  -13.7870   20.8410 C   0  0  0  0  0  2  0  0  0  0  0  0
  -29.7500  -14.4520   20.2000 N   0  0  0  0  0  0  0  0  0  0  0  0
  -31.4750  -15.7530   19.9940 O   0  0  0  0  0  0  0  0  0  0  0  0
  -29.6820  -18.8170   20.0980 C   0  0  0  0  0  0  0  0  0  0  0  0
  -29.5080  -17.2570   20.3690 N   0  0  0  0  0  0  0  0  0  0  0  0
  -30.6480  -19.0250   19.3620 O   0  0  0  0  0  0  0  0  0  0  0  0
  -28.5970  -17.1010   20.7730 H   0  0  0  0  0  0  0  0  0  0  0  0
  -25.2050  -13.9060   20.4430 C   0  0  0  0  0  0  0  0  0  0  0  0
  -24.1520  -13.1160   20.8030 C   0  0  0  0  0  0  0  0  0  0  0  0
  -24.6420  -11.7730   20.7950 C   0  0  0  0  0  0  0  0  0  0  0  0
  -26.2650  -13.0490   20.2250 N   0  0  0  0  0  0  0  0  0  0  0  0
  -25.9400  -11.7580   20.5040 N   0  0  0  0  0  0  0  0  0  0  0  0
  -23.9260  -10.5030   20.9890 C   0  0  0  0  0  0  0  0  0  0  0  0
  -24.3500   -9.5510   21.9410 C   0  0  0  0  0  3  0  0  0  0  0  0
  -23.6290   -8.3510   22.1260 C   0  0  0  0  0  3  0  0  0  0  0  0
  -22.4680   -8.0940   21.3580 C   0  0  0  0  0  0  0  0  0  0  0  0
  -22.0620   -9.0360   20.3960 C   0  0  0  0  0  3  0  0  0  0  0  0
  -22.7850  -10.2270   20.2090 C   0  0  0  0  0  3  0  0  0  0  0  0
  -21.7200   -6.9450   21.4510 O   0  0  0  0  0  0  0  0  0  0  0  0
  -21.6600   -6.2160   22.6120 C   0  0  0  0  0  0  0  0  0  0  0  0
  -21.2030   -6.7800   23.8230 C   0  0  0  0  0  3  0  0  0  0  0  0
  -21.0910   -5.9770   24.9750 C   0  0  0  0  0  3  0  0  0  0  0  0
  -21.4260   -4.6120   24.9180 C   0  0  0  0  0  0  0  0  0  0  0  0
  -21.8770   -4.0470   23.7110 C   0  0  0  0  0  3  0  0  0  0  0  0
  -21.9890   -4.8470   22.5610 C   0  0  0  0  0  0  0  0  0  0  0  0
  -22.4030   -4.2920   21.3960 F   0  0  0  0  0  0  0  0  0  0  0  0
  -21.3130   -3.8380   26.0230 F   0  0  0  0  0  0  0  0  0  0  0  0
  -22.7450  -13.5780   21.0370 C   0  0  0  0  0  0  0  0  0  0  0  0
  -22.0080  -12.8860   21.9000 N   0  0  0  0  0  0  0  0  0  0  0  0
  -22.3070  -14.5900   20.4910 O   0  0  0  0  0  0  0  0  0  0  0  0
  -22.3770  -12.0690   22.3630 H   0  0  0  0  0  0  0  0  0  0  0  0
  -21.0630  -13.1800   22.1000 H   0  0  0  0  0  0  0  0  0  0  0  0
  -25.3480  -15.2780   20.2480 N   0  0  0  0  0  0  0  0  0  0  0  0
  -24.5660  -15.9180   20.3310 H   0  0  0  0  0  0  0  0  0  0  0  0
  -26.1870  -15.7190   19.8950 H   0  0  0  0  0  0  0  0  0  0  0  0
  1 44  1  0
  2  1  3  0
  2  3  1  0
  4 15  2  0
  5  3  1  0
  5 10  1  0
  6 14  1  0
  6 16  1  0
  7 13  1  0
  7  9  1  0
  8 14  1  0
  9 10  2  0
  9  8  1  0
 11  5  2  0
 12 11  1  0
 12  7  2  0
 13  6  1  0
 14  4  1  0
 16 18  2  0
 17 16  1  0
 19 17  1  0
 20 29  2  0
 20 25  1  0
 21 17  1  0
 21 25  1  0
 22 21  1  0
 23 24  1  0
 23 22  1  0
 24 20  1  0
 25 26  2  0
 26 27  1  0
 28 27  2  0
 29 28  1  0
 30  4  1  0
 30 31  1  0
 30 40  1  0
 31 34  1  0
 32 36  1  0
 32 31  1  0
 33 32  2  0
 36 35  1  0
 38 36  1  0
 38 39  1  0
 38 37  1  0
 40 43  1  1
 40 41  1  0
 42 40  1  0
 45 54  1  0
 46 51  1  0
 47 48  1  0
 47 46  1  0
 49 48  1  0
 49 60  1  0
 49 50  1  0
 51 45  1  0
 51 50  1  0
 52 45  2  0
 53 54  1  0
 53 44  1  0
 54 56  1  0
 55 53  2  0
 57 58  2  0
 58 77  1  0
 59 58  1  0
 59 62  1  0
 60 57  1  0
 60 61  1  0
 61 59  2  0
 62 63  1  0
 63 64  2  0
 65 68  1  0
 65 64  1  0
 66 65  2  0
 67 66  1  0
 67 62  2  0
 68 69  1  0
 69 70  1  0
 70 71  2  0
 72 71  1  0
 72 76  1  0
 73 72  2  0
 74 69  2  0
 74 73  1  0
 75 74  1  0
 77 78  1  0
 78 81  1  0
 78 80  1  0
 79 77  2  0
 82 83  1  0
 82 57  1  0
 84 82  1  0
M  ISO  4   2 101   3 101  45 100  54 100
M  END
>  <TORSDO>  (29) 
F 17

>  <SCORE>  (29) 
-15.518

>  <name>  (29) 
28

>  <ligand_id>  (29) 
28

>  <original_smiles>  (29) 
[H]C(Oc1c([H])c([H])c2c(c1[H])C([H])([H])N(C(=O)C([H])(N([H])C(=O)C([H])(N([H])C([H])([H])[H])C([H])([H])[H])C(C([H])([H])[H])(C([H])([H])[H])C([H])([H])[H])C([H])(C(=O)N([H])C1([H])c3c([H])c([H])c([H])c([H])c3C([H])([H])C([H])([H])C1([H])[H])C2([H])[H])=C([H])C([H])([H])C(=O)N([H])C(=O)N1C([H])([H])C([H])([H])C([H])([H])C([H])(n2nc(-c3c([H])c([H])c(Oc4c([H])c([H])c(F)c([H])c4F)c([H])c3[H])c(C(=O)N([H])[H])c2N([H])[H])C1([H])[H]

>  <smiles>  (29) 
[H]C(Oc1c([H])c([H])c2c(c1[H])C([H])([H])N(C(=O)C([H])(N([H])C(=O)C([H])(N([H])C([H])([H])[H])C([H])([H])[H])C(C([H])([H])[H])(C([H])([H])[H])C([H])([H])[H])C([H])(C(=O)N([H])C1([H])c3c([H])c([H])c([H])c([H])c3C([H])([H])C([H])([H])C1([H])[H])C2([H])[H])=C([H])C([H])([H])C(=O)N([H])C(=O)N1C([H])([H])C([H])([H])C([H])([H])C([H])(n2nc(-c3c([H])c([H])c(Oc4c([H])c([H])c(F)c([H])c4F)c([H])c3[H])c(C(=O)N([H])[H])c2N([H])[H])C1([H])[H]

$$$$
29:0:0
     RDKit          3D

 98107  0  0  1  0  0  0  0  0999 V2000
  -28.9840  -24.7020   21.3800 C   0  0  0  0  0  0  0  0  0  0  0  0
  -29.2170  -24.2300   22.7390 C   0  0  0  0  0  0  0  0  0  0  0  0
  -29.0360  -23.7040   20.2820 C   0  0  0  0  0  0  0  0  0  0  0  0
  -28.5940  -24.7690   23.8070 C   0  0  0  0  0  2  0  0  0  0  0  0
  -28.7300  -26.0280   21.1730 C   0  0  0  0  0  3  0  0  0  0  0  0
  -29.4600  -21.2510   19.7080 C   0  0  0  0  0  3  0  0  0  0  0  0
  -30.1630  -23.0790   22.9210 C   0  0  0  0  0  2  0  0  0  0  0  0
  -29.7170  -21.9170   22.0370 C   0  0  0  0  0  2  0  0  0  0  0  0
  -29.3930  -22.2890   20.6230 N   0  0  0  0  0  0  0  0  0  0  0  0
  -29.3110  -21.4650   18.3980 N   0  0  0  0  0  0  0  0  0  0  0  0
  -28.7890  -23.9990   19.1060 O   0  0  0  0  0  0  0  0  0  0  0  0
  -29.3150  -20.6970   17.7470 H   0  0  0  0  0  0  0  0  0  0  0  0
  -29.0950  -22.4050   18.0860 H   0  0  0  0  0  0  0  0  0  0  0  0
  -28.8220  -19.0860   20.8860 C   0  0  0  0  0  3  0  0  0  0  0  0
  -30.7810  -19.1060   19.4630 C   0  0  0  0  0  3  0  0  0  0  0  0
  -29.0080  -17.6970   21.1080 C   0  0  0  0  0  3  0  0  0  0  0  0
  -30.9690  -17.7180   19.6870 C   0  0  0  0  0  3  0  0  0  0  0  0
  -29.7030  -19.8140   20.0520 C   0  0  0  0  0  0  0  0  0  0  0  0
  -30.0710  -16.9830   20.5040 C   0  0  0  0  0  0  0  0  0  0  0  0
  -30.8420  -14.5970   20.0900 C   0  0  0  0  0  0  0  0  0  0  0  0
  -30.5390  -12.4370   18.9250 C   0  0  0  0  0  2  0  0  0  0  0  0
  -29.5310  -12.6530   17.7760 C   0  0  0  0  0  2  0  0  0  0  0  0
  -28.0800  -12.4970   18.2750 C   0  0  0  0  0  2  0  0  0  0  0  0
  -27.8050  -13.3050   19.5710 C   0  0  0  0  0  3  0  0  0  0  0  0
  -28.9150  -13.0530   20.6160 C   0  0  0  0  0  2  0  0  0  0  0  0
  -30.2090  -13.3930   19.9970 N   0  0  0  0  0  0  0  0  0  0  0  0
  -31.9370  -14.8090   19.5610 O   0  0  0  0  0  0  0  0  0  0  0  0
  -30.1310  -15.5600   20.7220 N   0  0  0  0  0  0  0  0  0  0  0  0
  -29.3510  -15.1870   21.2410 H   0  0  0  0  0  0  0  0  0  0  0  0
  -25.4480  -13.8990   20.4220 C   0  0  0  0  0  0  0  0  0  0  0  0
  -24.3970  -13.1180   20.8240 C   0  0  0  0  0  0  0  0  0  0  0  0
  -24.8510  -11.7670   20.7300 C   0  0  0  0  0  0  0  0  0  0  0  0
  -26.4760  -13.0220   20.1100 N   0  0  0  0  0  0  0  0  0  0  0  0
  -26.1220  -11.7330   20.3510 N   0  0  0  0  0  0  0  0  0  0  0  0
  -24.1310  -10.5020   20.9210 C   0  0  0  0  0  0  0  0  0  0  0  0
  -24.5510   -9.5500   21.8770 C   0  0  0  0  0  3  0  0  0  0  0  0
  -23.8310   -8.3500   22.0550 C   0  0  0  0  0  3  0  0  0  0  0  0
  -22.6780   -8.0910   21.2780 C   0  0  0  0  0  0  0  0  0  0  0  0
  -22.2780   -9.0300   20.3110 C   0  0  0  0  0  3  0  0  0  0  0  0
  -22.9980  -10.2230   20.1310 C   0  0  0  0  0  3  0  0  0  0  0  0
  -21.9310   -6.9410   21.3650 O   0  0  0  0  0  0  0  0  0  0  0  0
  -21.7830   -6.2670   22.5490 C   0  0  0  0  0  0  0  0  0  0  0  0
  -21.2230   -6.8810   23.6910 C   0  0  0  0  0  3  0  0  0  0  0  0
  -21.0240   -6.1320   24.8680 C   0  0  0  0  0  3  0  0  0  0  0  0
  -21.3760   -4.7690   24.9030 C   0  0  0  0  0  0  0  0  0  0  0  0
  -21.9290   -4.1540   23.7660 C   0  0  0  0  0  3  0  0  0  0  0  0
  -22.1290   -4.9000   22.5910 C   0  0  0  0  0  0  0  0  0  0  0  0
  -22.6430   -4.2990   21.4920 F   0  0  0  0  0  0  0  0  0  0  0  0
  -21.1780   -4.0460   26.0300 F   0  0  0  0  0  0  0  0  0  0  0  0
  -23.0190  -13.5920   21.1850 C   0  0  0  0  0  0  0  0  0  0  0  0
  -22.3350  -12.8680   22.0650 N   0  0  0  0  0  0  0  0  0  0  0  0
  -22.5580  -14.6340   20.7220 O   0  0  0  0  0  0  0  0  0  0  0  0
  -22.7200  -12.0240   22.4590 H   0  0  0  0  0  0  0  0  0  0  0  0
  -21.4120  -13.1650   22.3500 H   0  0  0  0  0  0  0  0  0  0  0  0
  -25.6100  -15.2740   20.2750 N   0  0  0  0  0  0  0  0  0  0  0  0
  -24.8480  -15.9250   20.4340 H   0  0  0  0  0  0  0  0  0  0  0  0
  -26.4330  -15.7180   19.8900 H   0  0  0  0  0  0  0  0  0  0  0  0
  -28.4650  -26.6790   19.9880 O   0  0  0  0  0  0  0  0  0  0  0  0
  -24.6400  -31.8500   23.1300 C   0  0  0  0  0  0  0  0  0  0  0  0
  -27.3360  -27.4710   19.9950 C   0  0  0  0  0  0  0  0  0  0  0  0
  -23.4500  -30.4520   21.4720 C   0  0  0  0  0  3  0  0  0  0  0  0
  -24.9250  -28.9530   20.0240 C   0  0  0  0  0  0  0  0  0  0  0  0
  -25.9710  -30.8460   21.2760 C   0  0  0  0  0  2  0  0  0  0  0  0
  -26.0770  -29.4830   20.6200 C   0  0  0  0  0  0  0  0  0  0  0  0
  -27.2880  -28.7490   20.6070 C   0  0  0  0  0  3  0  0  0  0  0  0
  -26.1730  -26.9620   19.3860 C   0  0  0  0  0  3  0  0  0  0  0  0
  -24.9680  -27.6910   19.4040 C   0  0  0  0  0  3  0  0  0  0  0  0
  -23.6670  -29.7920   20.0850 C   0  0  0  0  0  2  0  0  0  0  0  0
  -24.7050  -31.0640   22.0180 N   0  0  0  0  0  0  0  0  0  0  0  0
  -23.5560  -32.1010   23.6760 O   0  0  0  0  0  0  0  0  0  0  0  0
  -22.8140  -29.4120   22.4230 C   0  0  0  0  0  0  0  0  0  0  0  0
  -21.4900  -29.2190   22.3010 N   0  0  0  0  0  0  0  0  0  0  0  0
  -23.5080  -28.7800   23.2240 O   0  0  0  0  0  0  0  0  0  0  0  0
  -20.9900  -29.7820   21.6280 H   0  0  0  0  0  0  0  0  0  0  0  0
  -18.1280  -27.9960   22.8140 C   0  0  0  0  0  0  0  0  0  0  0  0
  -20.6870  -28.2630   23.0630 C   0  0  0  0  0  3  0  0  0  0  0  0
  -20.7910  -26.8430   22.4580 C   0  0  0  0  0  2  0  0  0  0  0  0
  -19.6800  -26.5350   21.4490 C   0  0  0  0  0  2  0  0  0  0  0  0
  -18.3050  -26.6600   22.1100 C   0  0  0  0  0  2  0  0  0  0  0  0
  -19.2480  -28.7550   23.2460 C   0  0  0  0  0  0  0  0  0  0  0  0
  -19.0280  -30.0070   23.8620 C   0  0  0  0  0  3  0  0  0  0  0  0
  -17.7230  -30.4980   24.0500 C   0  0  0  0  0  3  0  0  0  0  0  0
  -16.6190  -29.7350   23.6340 C   0  0  0  0  0  3  0  0  0  0  0  0
  -16.8210  -28.4850   23.0210 C   0  0  0  0  0  3  0  0  0  0  0  0
  -25.9180  -32.4920   23.7550 C   0  0  0  0  0  3  0  0  0  0  0  0
  -25.5940  -33.8820   24.0980 N   0  0  0  0  0  0  0  0  0  0  0  0
  -25.9160  -34.9450   23.3490 C   0  0  0  0  0  0  0  0  0  0  0  0
  -26.5880  -34.8590   22.3170 O   0  0  0  0  0  0  0  0  0  0  0  0
  -24.9970  -34.0220   24.9000 H   0  0  0  0  0  0  0  0  0  0  0  0
  -24.1720  -36.7240   23.0030 C   0  0  0  0  0  1  0  0  0  0  0  0
  -25.4130  -36.3240   23.8180 C   0  0  0  0  0  3  0  0  0  0  0  0
  -27.5280  -37.2250   24.6780 C   0  0  0  0  0  1  0  0  0  0  0  0
  -26.4360  -37.3860   23.7210 N   0  0  0  0  0  0  0  0  0  0  0  0
  -26.0200  -38.3030   23.8640 H   0  0  0  0  0  0  0  0  0  0  0  0
  -26.4490  -31.7120   25.0200 C   0  0  1  0  0  0  0  0  0  0  0  0
  -25.3620  -31.4480   26.0880 C   0  0  0  0  0  1  0  0  0  0  0  0
  -27.0490  -30.3470   24.6100 C   0  0  0  0  0  1  0  0  0  0  0  0
  -27.5900  -32.5140   25.6890 C   0  0  0  0  0  1  0  0  0  0  0  0
  1  2  1  0
  2  7  1  0
  2  4  2  0
  3  9  1  0
  3  1  1  0
  5  1  2  0
  6 10  1  0
  6 18  1  0
  6  9  1  0
  8  7  1  0
  9  8  1  0
 11  3  2  0
 12 10  1  0
 13 10  1  0
 14 16  1  0
 15 17  2  0
 15 18  1  0
 17 19  1  0
 18 14  2  0
 19 28  1  0
 19 16  2  0
 20 28  1  0
 21 26  1  0
 22 23  1  0
 22 21  1  0
 24 23  1  0
 24 33  1  0
 24 25  1  0
 26 20  1  0
 26 25  1  0
 27 20  2  0
 28 29  1  0
 30 31  2  0
 31 50  1  0
 32 31  1  0
 32 35  1  0
 33 34  1  0
 33 30  1  0
 34 32  2  0
 35 36  1  0
 36 37  2  0
 38 41  1  0
 38 37  1  0
 39 38  2  0
 40 39  1  0
 40 35  2  0
 41 42  1  0
 42 47  2  0
 42 43  1  0
 43 44  2  0
 44 45  1  0
 45 49  1  0
 46 45  2  0
 47 46  1  0
 48 47  1  0
 50 51  1  0
 51 54  1  0
 51 53  1  0
 52 50  2  0
 55 30  1  0
 55 56  1  0
 57 55  1  0
 58 60  1  0
 58  5  1  0
 59 70  2  0
 60 65  1  0
 61 69  1  0
 61 71  1  0
 62 68  1  0
 62 64  1  0
 63 69  1  0
 64 63  1  0
 65 64  2  0
 66 67  1  0
 66 60  2  0
 67 62  2  0
 68 61  1  0
 69 59  1  0
 71 73  2  0
 72 71  1  0
 74 72  1  0
 75 84  2  0
 75 80  1  0
 76 72  1  0
 76 80  1  0
 77 76  1  0
 78 79  1  0
 78 77  1  0
 79 75  1  0
 80 81  2  0
 81 82  1  0
 83 82  2  0
 84 83  1  0
 85 59  1  0
 85 86  1  0
 85 95  1  0
 86 89  1  0
 87 91  1  0
 87 86  1  0
 88 87  2  0
 91 90  1  0
 93 91  1  0
 93 94  1  0
 93 92  1  0
 95 98  1  1
 95 96  1  0
 97 95  1  0
M  ISO  4   5 101  20 100  28 100  58 101
M  END
>  <TORSDO>  (30) 
F 17

>  <SCORE>  (30) 
-14.304

>  <name>  (30) 
29

>  <ligand_id>  (30) 
29

>  <original_smiles>  (30) 
[H]C([H])=C1C(=C([H])Oc2c([H])c([H])c3c(c2[H])C([H])([H])N(C(=O)C([H])(N([H])C(=O)C([H])(N([H])C([H])([H])[H])C([H])([H])[H])C(C([H])([H])[H])(C([H])([H])[H])C([H])([H])[H])C([H])(C(=O)N([H])C2([H])c4c([H])c([H])c([H])c([H])c4C([H])([H])C([H])([H])C2([H])[H])C3([H])[H])C(=O)N(C(c2c([H])c([H])c(N([H])C(=O)N3C([H])([H])C([H])([H])C([H])([H])C([H])(n4nc(-c5c([H])c([H])c(Oc6c([H])c([H])c(F)c([H])c6F)c([H])c5[H])c(C(=O)N([H])[H])c4N([H])[H])C3([H])[H])c([H])c2[H])=[N+]([H])[H])C([H])([H])C1([H])[H]

>  <smiles>  (30) 
[H]C([H])=C1C(=C([H])Oc2c([H])c([H])c3c(c2[H])C([H])([H])N(C(=O)C([H])(N([H])C(=O)C([H])(N([H])C([H])([H])[H])C([H])([H])[H])C(C([H])([H])[H])(C([H])([H])[H])C([H])([H])[H])C([H])(C(=O)N([H])C2([H])c4c([H])c([H])c([H])c([H])c4C([H])([H])C([H])([H])C2([H])[H])C3([H])[H])C(=O)N(C(c2c([H])c([H])c(N([H])C(=O)N3C([H])([H])C([H])([H])C([H])([H])C([H])(n4nc(-c5c([H])c([H])c(Oc6c([H])c([H])c(F)c([H])c6F)c([H])c5[H])c(C(=O)N([H])[H])c4N([H])[H])C3([H])[H])c([H])c2[H])=[N+]([H])[H])C([H])([H])C1([H])[H]

$$$$
30:0:0
     RDKit          3D

 97105  0  0  1  0  0  0  0  0999 V2000
  -29.4920  -20.9260   19.4180 C   0  0  0  0  0  0  0  0  0  0  0  0
  -30.0730  -21.9620   20.0350 N   0  0  0  0  0  0  0  0  0  0  0  0
  -28.7880  -21.0740   18.4210 O   0  0  0  0  0  0  0  0  0  0  0  0
  -30.6230  -21.7790   20.8620 H   0  0  0  0  0  0  0  0  0  0  0  0
  -30.9600  -19.0240   20.3290 C   0  0  0  0  0  3  0  0  0  0  0  0
  -31.1110  -17.6630   20.7090 C   0  0  0  0  0  3  0  0  0  0  0  0
  -28.5670  -18.6860   20.0740 C   0  0  0  0  0  3  0  0  0  0  0  0
  -29.6840  -19.5420   19.9910 C   0  0  0  0  0  0  0  0  0  0  0  0
  -29.9850  -16.8070   20.7520 C   0  0  0  0  0  0  0  0  0  0  0  0
  -28.7160  -17.3440   20.4640 C   0  0  0  0  0  0  0  0  0  0  0  0
  -27.6330  -16.5430   20.5340 F   0  0  0  0  0  0  0  0  0  0  0  0
  -30.6840  -14.4680   20.4140 C   0  0  0  0  0  0  0  0  0  0  0  0
  -30.3590  -12.3390   19.2110 C   0  0  0  0  0  2  0  0  0  0  0  0
  -29.3990  -12.5910   18.0290 C   0  0  0  0  0  2  0  0  0  0  0  0
  -27.9310  -12.4450   18.4740 C   0  0  0  0  0  2  0  0  0  0  0  0
  -27.6140  -13.2470   19.7640 C   0  0  0  0  0  3  0  0  0  0  0  0
  -28.6850  -12.9820   20.8510 C   0  0  0  0  0  2  0  0  0  0  0  0
  -30.0110  -13.2920   20.2780 N   0  0  0  0  0  0  0  0  0  0  0  0
  -31.7830  -14.6780   19.8900 O   0  0  0  0  0  0  0  0  0  0  0  0
  -30.0290  -15.4230   21.0940 N   0  0  0  0  0  0  0  0  0  0  0  0
  -29.1600  -15.0790   21.4760 H   0  0  0  0  0  0  0  0  0  0  0  0
  -25.2080  -13.8420   20.4760 C   0  0  0  0  0  0  0  0  0  0  0  0
  -24.1470  -13.0680   20.8580 C   0  0  0  0  0  0  0  0  0  0  0  0
  -24.6150  -11.7200   20.8280 C   0  0  0  0  0  0  0  0  0  0  0  0
  -26.2630  -12.9690   20.2500 N   0  0  0  0  0  0  0  0  0  0  0  0
  -25.9040  -11.6860   20.5130 N   0  0  0  0  0  0  0  0  0  0  0  0
  -23.8930  -10.4580   21.0250 C   0  0  0  0  0  0  0  0  0  0  0  0
  -24.3380   -9.4910   21.9530 C   0  0  0  0  0  3  0  0  0  0  0  0
  -23.6150   -8.2930   22.1390 C   0  0  0  0  0  3  0  0  0  0  0  0
  -22.4330   -8.0540   21.3980 C   0  0  0  0  0  0  0  0  0  0  0  0
  -22.0060   -9.0120   20.4610 C   0  0  0  0  0  3  0  0  0  0  0  0
  -22.7310  -10.2010   20.2710 C   0  0  0  0  0  3  0  0  0  0  0  0
  -21.6810   -6.9100   21.4940 O   0  0  0  0  0  0  0  0  0  0  0  0
  -21.6510   -6.1620   22.6430 C   0  0  0  0  0  0  0  0  0  0  0  0
  -21.2490   -6.7120   23.8800 C   0  0  0  0  0  3  0  0  0  0  0  0
  -21.1680   -5.8900   25.0230 C   0  0  0  0  0  3  0  0  0  0  0  0
  -21.4800   -4.5200   24.9290 C   0  0  0  0  0  0  0  0  0  0  0  0
  -21.8760   -3.9700   23.6960 C   0  0  0  0  0  3  0  0  0  0  0  0
  -21.9590   -4.7900   22.5570 C   0  0  0  0  0  0  0  0  0  0  0  0
  -22.3210   -4.2510   21.3690 F   0  0  0  0  0  0  0  0  0  0  0  0
  -21.3920   -3.7290   26.0230 F   0  0  0  0  0  0  0  0  0  0  0  0
  -22.7530  -13.5450   21.1460 C   0  0  0  0  0  0  0  0  0  0  0  0
  -22.0340  -12.8510   22.0220 N   0  0  0  0  0  0  0  0  0  0  0  0
  -22.3100  -14.5730   20.6330 O   0  0  0  0  0  0  0  0  0  0  0  0
  -22.4040  -12.0210   22.4620 H   0  0  0  0  0  0  0  0  0  0  0  0
  -21.1010  -13.1570   22.2600 H   0  0  0  0  0  0  0  0  0  0  0  0
  -25.3440  -15.2100   20.2920 N   0  0  0  0  0  0  0  0  0  0  0  0
  -24.5780  -15.8510   20.4540 H   0  0  0  0  0  0  0  0  0  0  0  0
  -26.2380  -15.6820   20.1640 H   0  0  0  0  0  0  0  0  0  0  0  0
  -30.1740  -23.3300   19.4750 C   0  0  0  0  0  3  0  0  0  0  0  0
  -31.6690  -23.7050   19.3940 C   0  0  0  0  0  0  0  0  0  0  0  0
  -32.0770  -24.8750   18.5050 C   0  0  0  0  0  1  0  0  0  0  0  0
  -32.5510  -23.0910   20.0050 O   0  0  0  0  0  0  0  0  0  0  0  0
  -29.3780  -24.3700   20.3140 C   0  0  0  0  0  0  0  0  0  0  0  0
  -29.3980  -24.3560   21.5570 O   0  0  0  0  0  0  0  0  0  0  0  0
  -28.5740  -25.4640   19.5520 C   0  0  0  0  0  2  0  0  0  0  0  0
  -28.4240  -26.7370   20.2080 O   0  0  0  0  0  0  0  0  0  0  0  0
  -24.5850  -31.8940   23.2320 C   0  0  0  0  0  0  0  0  0  0  0  0
  -27.2260  -27.4290   20.1650 C   0  0  0  0  0  0  0  0  0  0  0  0
  -23.3720  -30.4890   21.5940 C   0  0  0  0  0  3  0  0  0  0  0  0
  -24.8210  -28.9340   20.1760 C   0  0  0  0  0  0  0  0  0  0  0  0
  -25.8980  -30.8360   21.3960 C   0  0  0  0  0  2  0  0  0  0  0  0
  -25.9800  -29.4600   20.7620 C   0  0  0  0  0  0  0  0  0  0  0  0
  -27.1770  -28.7110   20.7610 C   0  0  0  0  0  3  0  0  0  0  0  0
  -26.0490  -26.9150   19.5710 C   0  0  0  0  0  3  0  0  0  0  0  0
  -24.8510  -27.6600   19.5820 C   0  0  0  0  0  3  0  0  0  0  0  0
  -23.5790  -29.7980   20.2190 C   0  0  0  0  0  2  0  0  0  0  0  0
  -24.6370  -31.0890   22.1320 N   0  0  0  0  0  0  0  0  0  0  0  0
  -23.5060  -32.1730   23.7720 O   0  0  0  0  0  0  0  0  0  0  0  0
  -22.7150  -29.4790   22.5600 C   0  0  0  0  0  0  0  0  0  0  0  0
  -21.3870  -29.3100   22.4410 N   0  0  0  0  0  0  0  0  0  0  0  0
  -23.3960  -28.8470   23.3720 O   0  0  0  0  0  0  0  0  0  0  0  0
  -20.8980  -29.8680   21.7550 H   0  0  0  0  0  0  0  0  0  0  0  0
  -18.0030  -28.1570   22.9560 C   0  0  0  0  0  0  0  0  0  0  0  0
  -20.5650  -28.3820   23.2180 C   0  0  0  0  0  3  0  0  0  0  0  0
  -20.6470  -26.9510   22.6390 C   0  0  0  0  0  2  0  0  0  0  0  0
  -19.5370  -26.6430   21.6300 C   0  0  0  0  0  2  0  0  0  0  0  0
  -18.1590  -26.8060   22.2780 C   0  0  0  0  0  2  0  0  0  0  0  0
  -19.1330  -28.9040   23.3820 C   0  0  0  0  0  0  0  0  0  0  0  0
  -18.9330  -30.1710   23.9750 C   0  0  0  0  0  3  0  0  0  0  0  0
  -17.6360  -30.6890   24.1460 C   0  0  0  0  0  3  0  0  0  0  0  0
  -16.5200  -29.9360   23.7410 C   0  0  0  0  0  3  0  0  0  0  0  0
  -16.7040  -28.6730   23.1500 C   0  0  0  0  0  3  0  0  0  0  0  0
  -25.8740  -32.5230   23.8470 C   0  0  0  0  0  3  0  0  0  0  0  0
  -25.5720  -33.9210   24.1810 N   0  0  0  0  0  0  0  0  0  0  0  0
  -25.9040  -34.9730   23.4200 C   0  0  0  0  0  0  0  0  0  0  0  0
  -26.5700  -34.8700   22.3870 O   0  0  0  0  0  0  0  0  0  0  0  0
  -24.9800  -34.0770   24.9830 H   0  0  0  0  0  0  0  0  0  0  0  0
  -24.1860  -36.7730   23.0630 C   0  0  0  0  0  1  0  0  0  0  0  0
  -25.4210  -36.3620   23.8790 C   0  0  0  0  0  3  0  0  0  0  0  0
  -27.5590  -37.2350   24.7150 C   0  0  0  0  0  1  0  0  0  0  0  0
  -26.4570  -37.4120   23.7730 N   0  0  0  0  0  0  0  0  0  0  0  0
  -26.0540  -38.3320   23.9270 H   0  0  0  0  0  0  0  0  0  0  0  0
  -26.3990  -31.7500   25.1180 C   0  0  1  0  0  0  0  0  0  0  0  0
  -25.3120  -31.5130   26.1930 C   0  0  0  0  0  1  0  0  0  0  0  0
  -26.9720  -30.3700   24.7210 C   0  0  0  0  0  1  0  0  0  0  0  0
  -27.5570  -32.5390   25.7750 C   0  0  0  0  0  1  0  0  0  0  0  0
  1  8  1  0
  1  2  1  0
  2  4  1  0
  3  1  2  0
  5  6  1  0
  6  9  2  0
  7 10  2  0
  8  7  1  0
  8  5  2  0
  9 20  1  0
 10 11  1  0
 10  9  1  0
 12 20  1  0
 13 18  1  0
 14 15  1  0
 14 13  1  0
 16 15  1  0
 16 25  1  0
 16 17  1  0
 18 12  1  0
 18 17  1  0
 19 12  2  0
 20 21  1  0
 22 23  2  0
 23 42  1  0
 24 23  1  0
 24 27  1  0
 25 22  1  0
 25 26  1  0
 26 24  2  0
 27 28  1  0
 28 29  2  0
 30 33  1  0
 30 29  1  0
 31 30  2  0
 32 31  1  0
 32 27  2  0
 33 34  1  0
 34 35  1  0
 35 36  2  0
 37 36  1  0
 37 41  1  0
 38 37  2  0
 39 34  2  0
 39 38  1  0
 40 39  1  0
 42 43  1  0
 43 46  1  0
 43 45  1  0
 44 42  2  0
 47 48  1  0
 47 22  1  0
 49 47  1  0
 50 51  1  0
 50  2  1  0
 50 54  1  0
 51 53  2  0
 52 51  1  0
 54 55  2  0
 56 57  1  0
 56 54  1  0
 58 69  2  0
 59 57  1  0
 59 64  1  0
 60 68  1  0
 60 70  1  0
 61 67  1  0
 61 63  1  0
 62 68  1  0
 63 62  1  0
 64 63  2  0
 65 66  1  0
 65 59  2  0
 66 61  2  0
 67 60  1  0
 68 58  1  0
 70 72  2  0
 71 70  1  0
 73 71  1  0
 74 83  2  0
 74 79  1  0
 75 71  1  0
 75 79  1  0
 76 75  1  0
 77 78  1  0
 77 76  1  0
 78 74  1  0
 79 80  2  0
 80 81  1  0
 82 81  2  0
 83 82  1  0
 84 58  1  0
 84 85  1  0
 84 94  1  0
 85 88  1  0
 86 90  1  0
 86 85  1  0
 87 86  2  0
 90 89  1  0
 92 90  1  0
 92 93  1  0
 92 91  1  0
 94 97  1  1
 94 95  1  0
 96 94  1  0
M  ISO  4  12 100  20 100  56 101  57 101
M  END
>  <TORSDO>  (31) 
F 21

>  <SCORE>  (31) 
-13.922

>  <name>  (31) 
30

>  <ligand_id>  (31) 
30

>  <original_smiles>  (31) 
[H]c1c([H])c([H])c2c(c1[H])C([H])([H])C([H])([H])C([H])([H])C2([H])N([H])C(=O)C1([H])N(C(=O)C([H])(N([H])C(=O)C([H])(N([H])C([H])([H])[H])C([H])([H])[H])C(C([H])([H])[H])(C([H])([H])[H])C([H])([H])[H])C([H])([H])c2c([H])c(OC([H])([H])C(=O)C([H])(C(=O)C([H])([H])[H])N([H])C(=O)c3c([H])c([H])c(N([H])C(=O)N4C([H])([H])C([H])([H])C([H])([H])C([H])(n5nc(-c6c([H])c([H])c(Oc7c([H])c([H])c(F)c([H])c7F)c([H])c6[H])c(C(=O)N([H])[H])c5N([H])[H])C4([H])[H])c(F)c3[H])c([H])c([H])c2C1([H])[H]

>  <smiles>  (31) 
[H]c1c([H])c([H])c2c(c1[H])C([H])([H])C([H])([H])C([H])([H])C2([H])N([H])C(=O)C1([H])N(C(=O)C([H])(N([H])C(=O)C([H])(N([H])C([H])([H])[H])C([H])([H])[H])C(C([H])([H])[H])(C([H])([H])[H])C([H])([H])[H])C([H])([H])c2c([H])c(OC([H])([H])C(=O)C([H])(C(=O)C([H])([H])[H])N([H])C(=O)c3c([H])c([H])c(N([H])C(=O)N4C([H])([H])C([H])([H])C([H])([H])C([H])(n5nc(-c6c([H])c([H])c(Oc7c([H])c([H])c(F)c([H])c7F)c([H])c6[H])c(C(=O)N([H])[H])c5N([H])[H])C4([H])[H])c(F)c3[H])c([H])c([H])c2C1([H])[H]

$$$$
31:0:0
     RDKit          3D

 90 99  0  0  1  0  0  0  0  0999 V2000
  -27.8330  -20.3680   20.3810 C   0  0  0  0  0  3  0  0  0  0  0  0
  -28.1450  -18.9120   20.3950 C   0  0  0  0  0  3  0  0  0  0  0  0
  -30.4020  -19.3340   20.0920 C   0  0  0  0  0  3  0  0  0  0  0  0
  -28.8100  -21.4260   20.2250 C   0  0  0  0  0  0  0  0  0  0  0  0
  -29.4380  -18.2270   20.2540 C   0  0  0  0  0  0  0  0  0  0  0  0
  -30.0760  -20.8030   20.0860 C   0  0  0  0  0  0  0  0  0  0  0  0
  -30.2800  -23.1480   19.9330 C   0  0  0  0  0  0  0  0  0  0  0  0
  -28.8980  -23.0050   20.1690 N   0  0  0  0  0  0  0  0  0  0  0  0
  -30.8830  -24.2060   19.7360 O   0  0  0  0  0  0  0  0  0  0  0  0
  -30.9250  -21.8750   19.9260 O   0  0  0  0  0  0  0  0  0  0  0  0
  -30.4100  -15.3910   20.1400 C   0  0  0  0  0  0  0  0  0  0  0  0
  -30.4270  -12.9380   19.2630 C   0  0  0  0  0  2  0  0  0  0  0  0
  -29.4690  -12.7170   18.0630 C   0  0  0  0  0  2  0  0  0  0  0  0
  -28.0360  -12.4290   18.5450 C   0  0  0  0  0  2  0  0  0  0  0  0
  -27.6090  -13.3830   19.6870 C   0  0  0  0  0  3  0  0  0  0  0  0
  -28.6890  -13.5310   20.7800 C   0  0  0  0  0  2  0  0  0  0  0  0
  -29.8930  -14.0620   20.1170 N   0  0  0  0  0  0  0  0  0  0  0  0
  -31.6180  -15.4430   19.8580 O   0  0  0  0  0  0  0  0  0  0  0  0
  -29.5510  -16.5940   20.3010 N   0  0  0  0  0  0  0  0  0  0  0  0
  -28.6360  -16.2180   20.5010 H   0  0  0  0  0  0  0  0  0  0  0  0
  -25.2670  -13.9210   20.5380 C   0  0  0  0  0  0  0  0  0  0  0  0
  -24.2180  -13.1340   20.9250 C   0  0  0  0  0  0  0  0  0  0  0  0
  -24.6830  -11.7860   20.8410 C   0  0  0  0  0  0  0  0  0  0  0  0
  -26.2990  -13.0530   20.2330 N   0  0  0  0  0  0  0  0  0  0  0  0
  -25.9620  -11.7610   20.4840 N   0  0  0  0  0  0  0  0  0  0  0  0
  -23.9610  -10.5190   21.0220 C   0  0  0  0  0  0  0  0  0  0  0  0
  -24.3980   -9.5430   21.9450 C   0  0  0  0  0  3  0  0  0  0  0  0
  -23.6730   -8.3440   22.1160 C   0  0  0  0  0  3  0  0  0  0  0  0
  -22.4980   -8.1110   21.3630 C   0  0  0  0  0  0  0  0  0  0  0  0
  -22.0800   -9.0750   20.4290 C   0  0  0  0  0  3  0  0  0  0  0  0
  -22.8050  -10.2660   20.2570 C   0  0  0  0  0  3  0  0  0  0  0  0
  -21.7450   -6.9640   21.4440 O   0  0  0  0  0  0  0  0  0  0  0  0
  -21.6640   -6.2370   22.6040 C   0  0  0  0  0  0  0  0  0  0  0  0
  -21.1580   -6.7930   23.7990 C   0  0  0  0  0  3  0  0  0  0  0  0
  -21.0270   -5.9890   24.9490 C   0  0  0  0  0  3  0  0  0  0  0  0
  -21.3920   -4.6310   24.9050 C   0  0  0  0  0  0  0  0  0  0  0  0
  -21.8920   -4.0740   23.7140 C   0  0  0  0  0  3  0  0  0  0  0  0
  -22.0240   -4.8750   22.5670 C   0  0  0  0  0  0  0  0  0  0  0  0
  -22.4860   -4.3270   21.4160 F   0  0  0  0  0  0  0  0  0  0  0  0
  -21.2610   -3.8570   26.0080 F   0  0  0  0  0  0  0  0  0  0  0  0
  -22.8310  -13.6050   21.2520 C   0  0  0  0  0  0  0  0  0  0  0  0
  -22.1340  -12.8930   22.1310 N   0  0  0  0  0  0  0  0  0  0  0  0
  -22.3750  -14.6380   20.7630 O   0  0  0  0  0  0  0  0  0  0  0  0
  -22.5170  -12.0570   22.5470 H   0  0  0  0  0  0  0  0  0  0  0  0
  -21.2050  -13.1900   22.3930 H   0  0  0  0  0  0  0  0  0  0  0  0
  -25.4190  -15.2960   20.3870 N   0  0  0  0  0  0  0  0  0  0  0  0
  -24.6420  -15.9350   20.5230 H   0  0  0  0  0  0  0  0  0  0  0  0
  -26.2190  -15.7370   19.9530 H   0  0  0  0  0  0  0  0  0  0  0  0
  -27.8840  -24.3210   20.0500 C   0  0  0  0  0  2  0  0  0  0  0  0
  -28.2170  -25.9010   20.2490 O   0  0  0  0  0  0  0  0  0  0  0  0
  -24.6670  -31.8850   23.2480 C   0  0  0  0  0  0  0  0  0  0  0  0
  -27.2100  -27.0110   20.1950 C   0  0  0  0  0  0  0  0  0  0  0  0
  -23.4710  -30.5080   21.5970 C   0  0  0  0  0  3  0  0  0  0  0  0
  -24.9160  -28.9090   20.1630 C   0  0  0  0  0  0  0  0  0  0  0  0
  -26.0400  -30.7070   21.4570 C   0  0  0  0  0  2  0  0  0  0  0  0
  -26.1060  -29.3010   20.7880 C   0  0  0  0  0  0  0  0  0  0  0  0
  -27.2460  -28.3750   20.7780 C   0  0  0  0  0  3  0  0  0  0  0  0
  -25.9880  -26.7770   19.5210 C   0  0  0  0  0  3  0  0  0  0  0  0
  -24.8830  -27.6680   19.5080 C   0  0  0  0  0  3  0  0  0  0  0  0
  -23.7000  -29.8350   20.2150 C   0  0  0  0  0  2  0  0  0  0  0  0
  -24.7470  -31.0590   22.1550 N   0  0  0  0  0  0  0  0  0  0  0  0
  -23.5770  -32.1750   23.7700 O   0  0  0  0  0  0  0  0  0  0  0  0
  -22.7700  -29.5070   22.5530 C   0  0  0  0  0  0  0  0  0  0  0  0
  -21.4400  -29.3450   22.4210 N   0  0  0  0  0  0  0  0  0  0  0  0
  -23.4300  -28.8760   23.3820 O   0  0  0  0  0  0  0  0  0  0  0  0
  -20.9600  -29.9050   21.7300 H   0  0  0  0  0  0  0  0  0  0  0  0
  -18.0510  -28.1460   22.9200 C   0  0  0  0  0  0  0  0  0  0  0  0
  -20.6130  -28.4020   23.1830 C   0  0  0  0  0  3  0  0  0  0  0  0
  -20.7090  -26.9760   22.5940 C   0  0  0  0  0  2  0  0  0  0  0  0
  -19.6050  -26.6670   21.5770 C   0  0  0  0  0  2  0  0  0  0  0  0
  -18.2250  -26.8050   22.2250 C   0  0  0  0  0  2  0  0  0  0  0  0
  -19.1730  -28.9020   23.3550 C   0  0  0  0  0  0  0  0  0  0  0  0
  -18.9540  -30.1550   23.9690 C   0  0  0  0  0  3  0  0  0  0  0  0
  -17.6490  -30.6520   24.1480 C   0  0  0  0  0  3  0  0  0  0  0  0
  -16.5440  -29.8930   23.7260 C   0  0  0  0  0  3  0  0  0  0  0  0
  -16.7450  -28.6410   23.1180 C   0  0  0  0  0  3  0  0  0  0  0  0
  -25.9380  -32.5180   23.8890 C   0  0  0  0  0  3  0  0  0  0  0  0
  -25.6280  -33.9190   24.2250 N   0  0  0  0  0  0  0  0  0  0  0  0
  -25.9320  -34.9780   23.4640 C   0  0  0  0  0  0  0  0  0  0  0  0
  -26.5670  -34.8790   22.4110 O   0  0  0  0  0  0  0  0  0  0  0  0
  -25.0580  -34.0690   25.0460 H   0  0  0  0  0  0  0  0  0  0  0  0
  -24.1760  -36.7650   23.2010 C   0  0  0  0  0  1  0  0  0  0  0  0
  -25.4630  -36.3670   23.9440 C   0  0  0  0  0  3  0  0  0  0  0  0
  -27.6260  -37.2800   24.6660 C   0  0  0  0  0  1  0  0  0  0  0  0
  -26.4800  -37.4280   23.7720 N   0  0  0  0  0  0  0  0  0  0  0  0
  -26.0740  -38.3460   23.9250 H   0  0  0  0  0  0  0  0  0  0  0  0
  -26.4300  -31.7490   25.1780 C   0  0  1  0  0  0  0  0  0  0  0  0
  -25.3200  -31.5210   26.2310 C   0  0  0  0  0  1  0  0  0  0  0  0
  -27.0130  -30.3660   24.8080 C   0  0  0  0  0  1  0  0  0  0  0  0
  -27.5760  -32.5390   25.8550 C   0  0  0  0  0  1  0  0  0  0  0  0
  1  2  1  0
  3  5  1  0
  4  1  2  0
  5 19  1  0
  5  2  2  0
  6  3  2  0
  6  4  1  0
  7  8  1  0
  8  4  1  0
  9  7  2  0
 10  7  1  0
 10  6  1  0
 11 19  1  0
 12 17  1  0
 13 14  1  0
 13 12  1  0
 15 14  1  0
 15 24  1  0
 15 16  1  0
 17 11  1  0
 17 16  1  0
 18 11  2  0
 19 20  1  0
 21 22  2  0
 22 41  1  0
 23 22  1  0
 23 26  1  0
 24 25  1  0
 24 21  1  0
 25 23  2  0
 26 27  1  0
 27 28  2  0
 29 32  1  0
 29 28  1  0
 30 29  2  0
 31 30  1  0
 31 26  2  0
 32 33  1  0
 33 34  1  0
 34 35  2  0
 36 35  1  0
 36 40  1  0
 37 36  2  0
 38 33  2  0
 38 37  1  0
 39 38  1  0
 41 42  1  0
 42 45  1  0
 42 44  1  0
 43 41  2  0
 46 47  1  0
 46 21  1  0
 48 46  1  0
 49  8  1  0
 49 50  1  0
 51 62  2  0
 52 50  1  0
 52 57  1  0
 53 61  1  0
 53 63  1  0
 54 60  1  0
 54 56  1  0
 55 61  1  0
 56 55  1  0
 57 56  2  0
 58 52  2  0
 59 58  1  0
 59 54  2  0
 60 53  1  0
 61 51  1  0
 63 65  2  0
 64 63  1  0
 66 64  1  0
 67 76  2  0
 67 72  1  0
 68 64  1  0
 68 72  1  0
 69 68  1  0
 70 71  1  0
 70 69  1  0
 71 67  1  0
 72 73  2  0
 73 74  1  0
 75 74  2  0
 76 75  1  0
 77 51  1  0
 77 78  1  0
 77 87  1  0
 78 81  1  0
 79 83  1  0
 79 78  1  0
 80 79  2  0
 83 82  1  0
 85 86  1  0
 85 83  1  0
 85 84  1  0
 87 90  1  1
 87 88  1  0
 89 87  1  0
M  ISO  4  11 100  19 100  49 101  50 101
M  END
>  <TORSDO>  (32) 
F 17

>  <SCORE>  (32) 
-14.963

>  <name>  (32) 
31

>  <ligand_id>  (32) 
31

>  <original_smiles>  (32) 
[H]c1c([H])c([H])c2c(c1[H])C([H])([H])C([H])([H])C([H])([H])C2([H])N([H])C(=O)C1([H])N(C(=O)C([H])(N([H])C(=O)C([H])(N([H])C([H])([H])[H])C([H])([H])[H])C(C([H])([H])[H])(C([H])([H])[H])C([H])([H])[H])C([H])([H])c2c([H])c(OC([H])([H])n3c(=O)oc4c([H])c(N([H])C(=O)N5C([H])([H])C([H])([H])C([H])([H])C([H])(n6nc(-c7c([H])c([H])c(Oc8c([H])c([H])c(F)c([H])c8F)c([H])c7[H])c(C(=O)N([H])[H])c6N([H])[H])C5([H])[H])c([H])c([H])c43)c([H])c([H])c2C1([H])[H]

>  <smiles>  (32) 
[H]c1c([H])c([H])c2c(c1[H])C([H])([H])C([H])([H])C([H])([H])C2([H])N([H])C(=O)C1([H])N(C(=O)C([H])(N([H])C(=O)C([H])(N([H])C([H])([H])[H])C([H])([H])[H])C(C([H])([H])[H])(C([H])([H])[H])C([H])([H])[H])C([H])([H])c2c([H])c(OC([H])([H])n3c(=O)oc4c([H])c(N([H])C(=O)N5C([H])([H])C([H])([H])C([H])([H])C([H])(n6nc(-c7c([H])c([H])c(Oc8c([H])c([H])c(F)c([H])c8F)c([H])c7[H])c(C(=O)N([H])[H])c6N([H])[H])C5([H])[H])c([H])c([H])c43)c([H])c([H])c2C1([H])[H]

$$$$
32:0:0
     RDKit          3D

 95104  0  0  1  0  0  0  0  0999 V2000
  -28.9860  -22.6480   22.0430 C   0  0  0  0  0  2  0  0  0  0  0  0
  -27.6590  -22.6760   22.2210 C   0  0  0  0  0  3  0  0  0  0  0  0
  -27.0990  -23.0760   20.9690 C   0  0  0  0  0  0  0  0  0  0  0  0
  -28.2320  -23.6270   20.2460 C   0  0  0  0  0  3  0  0  0  0  0  0
  -25.8110  -23.0040   20.5890 C   0  0  0  0  0  2  0  0  0  0  0  0
  -27.9210  -24.9760   19.8250 C   0  0  0  0  0  2  0  0  0  0  0  0
  -29.3240  -22.7010   20.6880 N   0  0  0  0  0  0  0  0  0  0  0  0
  -28.8620  -20.3600   19.5550 C   0  0  0  0  0  3  0  0  0  0  0  0
  -29.0810  -18.9210   19.4600 C   0  0  0  0  0  3  0  0  0  0  0  0
  -30.6390  -20.4620   21.0620 C   0  0  0  0  0  3  0  0  0  0  0  0
  -29.6240  -21.2510   20.3750 C   0  0  0  0  0  0  0  0  0  0  0  0
  -30.1010  -18.1270   20.1330 C   0  0  0  0  0  0  0  0  0  0  0  0
  -30.8660  -19.0120   20.9700 C   0  0  0  0  0  0  0  0  0  0  0  0
  -31.8590  -18.4770   21.7190 F   0  0  0  0  0  0  0  0  0  0  0  0
  -31.0740  -15.4830   20.3350 C   0  0  0  0  0  0  0  0  0  0  0  0
  -31.1390  -13.0250   19.6260 C   0  0  0  0  0  2  0  0  0  0  0  0
  -30.2750  -12.6960   18.3820 C   0  0  0  0  0  2  0  0  0  0  0  0
  -28.7930  -12.4950   18.7650 C   0  0  0  0  0  2  0  0  0  0  0  0
  -28.2750  -13.5130   19.8140 C   0  0  0  0  0  3  0  0  0  0  0  0
  -29.2770  -13.7420   20.9660 C   0  0  0  0  0  2  0  0  0  0  0  0
  -30.5330  -14.1860   20.3460 N   0  0  0  0  0  0  0  0  0  0  0  0
  -32.3090  -15.5430   20.2870 O   0  0  0  0  0  0  0  0  0  0  0  0
  -29.8700  -16.3400   18.4500 C   0  0  0  0  0  1  0  0  0  0  0  0
  -30.2780  -16.5940   19.8470 N   0  0  0  0  0  0  0  0  0  0  0  0
  -25.8760  -14.0770   20.5080 C   0  0  0  0  0  0  0  0  0  0  0  0
  -24.8020  -13.2950   20.8280 C   0  0  0  0  0  0  0  0  0  0  0  0
  -25.2740  -11.9460   20.7900 C   0  0  0  0  0  0  0  0  0  0  0  0
  -26.9290  -13.2050   20.2840 N   0  0  0  0  0  0  0  0  0  0  0  0
  -26.5740  -11.9170   20.5230 N   0  0  0  0  0  0  0  0  0  0  0  0
  -24.5470  -10.6780   20.9380 C   0  0  0  0  0  0  0  0  0  0  0  0
  -24.8890   -9.7470   21.9420 C   0  0  0  0  0  3  0  0  0  0  0  0
  -24.1650   -8.5440   22.0780 C   0  0  0  0  0  3  0  0  0  0  0  0
  -23.0850   -8.2630   21.2070 C   0  0  0  0  0  0  0  0  0  0  0  0
  -22.7630   -9.1840   20.1950 C   0  0  0  0  0  3  0  0  0  0  0  0
  -23.4880  -10.3790   20.0570 C   0  0  0  0  0  3  0  0  0  0  0  0
  -22.3390   -7.1100   21.2490 O   0  0  0  0  0  0  0  0  0  0  0  0
  -22.0530   -6.4810   22.4340 C   0  0  0  0  0  0  0  0  0  0  0  0
  -21.3490   -7.1290   23.4720 C   0  0  0  0  0  3  0  0  0  0  0  0
  -21.0130   -6.4210   24.6420 C   0  0  0  0  0  3  0  0  0  0  0  0
  -21.3710   -5.0660   24.7760 C   0  0  0  0  0  0  0  0  0  0  0  0
  -22.0700   -4.4180   23.7420 C   0  0  0  0  0  3  0  0  0  0  0  0
  -22.4060   -5.1220   22.5720 C   0  0  0  0  0  0  0  0  0  0  0  0
  -23.0580   -4.4860   21.5690 F   0  0  0  0  0  0  0  0  0  0  0  0
  -21.0420   -4.3850   25.8970 F   0  0  0  0  0  0  0  0  0  0  0  0
  -23.3940  -13.7620   21.0590 C   0  0  0  0  0  0  0  0  0  0  0  0
  -22.6460  -13.0620   21.9030 N   0  0  0  0  0  0  0  0  0  0  0  0
  -22.9640  -14.7860   20.5260 O   0  0  0  0  0  0  0  0  0  0  0  0
  -22.9980  -12.2390   22.3650 H   0  0  0  0  0  0  0  0  0  0  0  0
  -21.7010  -13.3630   22.0940 H   0  0  0  0  0  0  0  0  0  0  0  0
  -26.0340  -15.4530   20.3620 N   0  0  0  0  0  0  0  0  0  0  0  0
  -25.2600  -16.0980   20.4820 H   0  0  0  0  0  0  0  0  0  0  0  0
  -26.8940  -15.9140   20.0980 H   0  0  0  0  0  0  0  0  0  0  0  0
  -26.9920  -22.4930   23.3680 O   0  0  0  0  0  0  0  0  0  0  0  0
  -27.6140  -22.1930   24.0190 H   0  0  0  0  0  0  0  0  0  0  0  0
  -28.4410  -26.3170   19.4880 O   0  0  0  0  0  0  0  0  0  0  0  0
  -25.1170  -31.6500   23.4110 C   0  0  0  0  0  0  0  0  0  0  0  0
  -27.5080  -27.4360   19.5770 C   0  0  0  0  0  0  0  0  0  0  0  0
  -23.8590  -30.5990   21.5710 C   0  0  0  0  0  3  0  0  0  0  0  0
  -25.2510  -29.2670   19.8640 C   0  0  0  0  0  0  0  0  0  0  0  0
  -26.4210  -30.7990   21.4270 C   0  0  0  0  0  2  0  0  0  0  0  0
  -26.4470  -29.5400   20.5440 C   0  0  0  0  0  0  0  0  0  0  0  0
  -27.5740  -28.6360   20.4000 C   0  0  0  0  0  3  0  0  0  0  0  0
  -26.3130  -27.3250   18.8260 C   0  0  0  0  0  3  0  0  0  0  0  0
  -25.2020  -28.1770   18.9860 C   0  0  0  0  0  3  0  0  0  0  0  0
  -24.0510  -30.1750   20.0900 C   0  0  0  0  0  2  0  0  0  0  0  0
  -25.1530  -31.0290   22.1920 N   0  0  0  0  0  0  0  0  0  0  0  0
  -24.0460  -31.8730   23.9950 O   0  0  0  0  0  0  0  0  0  0  0  0
  -23.1570  -29.4590   22.3500 C   0  0  0  0  0  0  0  0  0  0  0  0
  -21.8290  -29.3250   22.1840 N   0  0  0  0  0  0  0  0  0  0  0  0
  -23.8120  -28.7040   23.0740 O   0  0  0  0  0  0  0  0  0  0  0  0
  -21.3590  -29.9870   21.5830 H   0  0  0  0  0  0  0  0  0  0  0  0
  -18.4180  -28.1540   22.5260 C   0  0  0  0  0  0  0  0  0  0  0  0
  -20.9880  -28.2900   22.7890 C   0  0  0  0  0  3  0  0  0  0  0  0
  -21.0370  -26.9810   21.9640 C   0  0  0  0  0  2  0  0  0  0  0  0
  -19.9110  -26.8790   20.9290 C   0  0  0  0  0  2  0  0  0  0  0  0
  -18.5440  -26.9450   21.6130 C   0  0  0  0  0  2  0  0  0  0  0  0
  -19.5660  -28.7930   23.0660 C   0  0  0  0  0  0  0  0  0  0  0  0
  -19.3920  -29.9320   23.8830 C   0  0  0  0  0  3  0  0  0  0  0  0
  -18.1050  -30.4300   24.1620 C   0  0  0  0  0  3  0  0  0  0  0  0
  -16.9720  -29.7840   23.6350 C   0  0  0  0  0  3  0  0  0  0  0  0
  -17.1300  -28.6460   22.8240 C   0  0  0  0  0  3  0  0  0  0  0  0
  -26.4220  -32.1270   24.1190 C   0  0  0  0  0  3  0  0  0  0  0  0
  -26.1710  -33.4720   24.6610 N   0  0  0  0  0  0  0  0  0  0  0  0
  -26.4870  -34.6170   24.0400 C   0  0  0  0  0  0  0  0  0  0  0  0
  -27.0880  -34.6480   22.9630 O   0  0  0  0  0  0  0  0  0  0  0  0
  -25.6320  -33.5230   25.5120 H   0  0  0  0  0  0  0  0  0  0  0  0
  -24.7740  -36.4610   24.0870 C   0  0  0  0  0  1  0  0  0  0  0  0
  -26.0720  -35.9360   24.7210 C   0  0  0  0  0  3  0  0  0  0  0  0
  -28.2830  -36.6910   25.4800 C   0  0  0  0  0  1  0  0  0  0  0  0
  -27.1120  -36.9860   24.6570 N   0  0  0  0  0  0  0  0  0  0  0  0
  -26.7370  -37.8820   24.9520 H   0  0  0  0  0  0  0  0  0  0  0  0
  -26.8960  -31.1510   25.2660 C   0  0  1  0  0  0  0  0  0  0  0  0
  -25.7890  -30.8090   26.2910 C   0  0  0  0  0  1  0  0  0  0  0  0
  -27.4130  -29.8170   24.6760 C   0  0  0  0  0  1  0  0  0  0  0  0
  -28.0820  -31.7820   26.0330 C   0  0  0  0  0  1  0  0  0  0  0  0
  1  2  1  0
  2 53  1  0
  3  2  1  0
  4  6  1  0
  4  7  1  0
  4  3  1  0
  5  3  2  0
  7  1  1  0
  8 11  1  0
  9  8  2  0
  9 12  1  0
 11  7  1  0
 11 10  2  0
 12 13  2  0
 13 10  1  0
 13 14  1  0
 15 21  1  0
 16 21  1  0
 17 18  1  0
 17 16  1  0
 19 18  1  0
 19 28  1  0
 19 20  1  0
 21 20  1  0
 22 15  2  0
 23 24  1  0
 24 12  1  0
 24 15  1  0
 25 26  2  0
 26 45  1  0
 27 26  1  0
 27 30  1  0
 28 25  1  0
 28 29  1  0
 29 27  2  0
 30 31  1  0
 31 32  2  0
 33 36  1  0
 33 32  1  0
 34 33  2  0
 35 34  1  0
 35 30  2  0
 36 37  1  0
 37 42  2  0
 37 38  1  0
 38 39  2  0
 39 40  1  0
 40 44  1  0
 41 40  2  0
 42 41  1  0
 43 42  1  0
 45 46  1  0
 46 49  1  0
 46 48  1  0
 47 45  2  0
 50 51  1  0
 50 25  1  0
 52 50  1  0
 53 54  1  0
 55 57  1  0
 55  6  1  0
 56 67  2  0
 57 62  1  0
 58 66  1  0
 58 68  1  0
 59 65  1  0
 59 61  1  0
 60 66  1  0
 61 60  1  0
 62 61  2  0
 63 64  1  0
 63 57  2  0
 64 59  2  0
 65 58  1  0
 66 56  1  0
 68 70  2  0
 69 68  1  0
 71 69  1  0
 72 81  2  0
 72 77  1  0
 73 69  1  0
 73 77  1  0
 74 73  1  0
 75 76  1  0
 75 74  1  0
 76 72  1  0
 77 78  2  0
 78 79  1  0
 80 79  2  0
 81 80  1  0
 82 56  1  0
 82 83  1  0
 82 92  1  0
 83 86  1  0
 84 83  1  0
 84 88  1  0
 85 84  2  0
 88 87  1  0
 90 88  1  0
 90 91  1  0
 90 89  1  0
 92 95  1  1
 92 93  1  0
 94 92  1  0
M  ISO  4   6 101  15 100  24 100  55 101
M  END
>  <TORSDO>  (33) 
F 18

>  <SCORE>  (33) 
-9.534

>  <name>  (33) 
32

>  <ligand_id>  (33) 
32

>  <original_smiles>  (33) 
[H]Oc1c([H])n(-c2c([H])c([H])c(N(C(=O)N3C([H])([H])C([H])([H])C([H])([H])C([H])(n4nc(-c5c([H])c([H])c(Oc6c([H])c([H])c(F)c([H])c6F)c([H])c5[H])c(C(=O)N([H])[H])c4N([H])[H])C3([H])[H])C([H])([H])[H])c(F)c2[H])c(=C([H])Oc2c([H])c([H])c3c(c2[H])C([H])([H])N(C(=O)C([H])(N([H])C(=O)C([H])(N([H])C([H])([H])[H])C([H])([H])[H])C(C([H])([H])[H])(C([H])([H])[H])C([H])([H])[H])C([H])(C(=O)N([H])C2([H])c4c([H])c([H])c([H])c([H])c4C([H])([H])C([H])([H])C2([H])[H])C3([H])[H])c1=C([H])[H]

>  <smiles>  (33) 
[H]Oc1c([H])n(-c2c([H])c([H])c(N(C(=O)N3C([H])([H])C([H])([H])C([H])([H])C([H])(n4nc(-c5c([H])c([H])c(Oc6c([H])c([H])c(F)c([H])c6F)c([H])c5[H])c(C(=O)N([H])[H])c4N([H])[H])C3([H])[H])C([H])([H])[H])c(F)c2[H])c(=C([H])Oc2c([H])c([H])c3c(c2[H])C([H])([H])N(C(=O)C([H])(N([H])C(=O)C([H])(N([H])C([H])([H])[H])C([H])([H])[H])C(C([H])([H])[H])(C([H])([H])[H])C([H])([H])[H])C([H])(C(=O)N([H])C2([H])c4c([H])c([H])c([H])c([H])c4C([H])([H])C([H])([H])C2([H])[H])C3([H])[H])c1=C([H])[H]

$$$$
33:0:0
     RDKit          3D

 93102  0  0  1  0  0  0  0  0999 V2000
  -30.2590  -23.8130   20.5240 C   0  0  0  0  0  3  0  0  0  0  0  0
  -28.9950  -23.8230   20.1020 C   0  0  0  0  0  0  0  0  0  0  0  0
  -30.7100  -22.4360   20.6540 C   0  0  0  0  0  0  0  0  0  0  0  0
  -28.6140  -22.4060   19.9630 C   0  0  0  0  0  0  0  0  0  0  0  0
  -29.6850  -21.6220   20.2990 N   0  0  0  0  0  0  0  0  0  0  0  0
  -31.8300  -22.0700   21.0320 O   0  0  0  0  0  0  0  0  0  0  0  0
  -27.5150  -21.9780   19.5860 O   0  0  0  0  0  0  0  0  0  0  0  0
  -30.8790  -19.3910   19.8700 C   0  0  0  0  0  3  0  0  0  0  0  0
  -28.6750  -19.3370   20.8130 C   0  0  0  0  0  3  0  0  0  0  0  0
  -30.9500  -17.9600   19.9240 C   0  0  0  0  0  3  0  0  0  0  0  0
  -28.7470  -17.9130   20.8720 C   0  0  0  0  0  3  0  0  0  0  0  0
  -29.7430  -20.1360   20.3170 C   0  0  0  0  0  0  0  0  0  0  0  0
  -29.8820  -17.1760   20.4360 C   0  0  0  0  0  0  0  0  0  0  0  0
  -30.6140  -14.6920   20.0390 C   0  0  0  0  0  0  0  0  0  0  0  0
  -30.3510  -12.4820   18.9210 C   0  0  0  0  0  2  0  0  0  0  0  0
  -29.3360  -12.6440   17.7650 C   0  0  0  0  0  2  0  0  0  0  0  0
  -27.8880  -12.4780   18.2690 C   0  0  0  0  0  2  0  0  0  0  0  0
  -27.6040  -13.3030   19.5530 C   0  0  0  0  0  3  0  0  0  0  0  0
  -28.7220  -13.1020   20.6010 C   0  0  0  0  0  2  0  0  0  0  0  0
  -30.0010  -13.4660   19.9670 N   0  0  0  0  0  0  0  0  0  0  0  0
  -31.7400  -14.8720   19.5650 O   0  0  0  0  0  0  0  0  0  0  0  0
  -29.8390  -15.7110   20.5320 N   0  0  0  0  0  0  0  0  0  0  0  0
  -28.9930  -15.3570   20.9500 H   0  0  0  0  0  0  0  0  0  0  0  0
  -25.2550  -13.8930   20.4110 C   0  0  0  0  0  0  0  0  0  0  0  0
  -24.2050  -13.1150   20.8200 C   0  0  0  0  0  0  0  0  0  0  0  0
  -24.6600  -11.7630   20.7350 C   0  0  0  0  0  0  0  0  0  0  0  0
  -26.2820  -13.0150   20.1010 N   0  0  0  0  0  0  0  0  0  0  0  0
  -25.9310  -11.7280   20.3550 N   0  0  0  0  0  0  0  0  0  0  0  0
  -23.9410  -10.4990   20.9340 C   0  0  0  0  0  0  0  0  0  0  0  0
  -24.3850   -9.5360   21.8660 C   0  0  0  0  0  3  0  0  0  0  0  0
  -23.6650   -8.3370   22.0540 C   0  0  0  0  0  3  0  0  0  0  0  0
  -22.4870   -8.0910   21.3090 C   0  0  0  0  0  0  0  0  0  0  0  0
  -22.0620   -9.0430   20.3660 C   0  0  0  0  0  3  0  0  0  0  0  0
  -22.7830  -10.2340   20.1760 C   0  0  0  0  0  3  0  0  0  0  0  0
  -21.7380   -6.9440   21.4070 O   0  0  0  0  0  0  0  0  0  0  0  0
  -21.6530   -6.2370   22.5810 C   0  0  0  0  0  0  0  0  0  0  0  0
  -21.1710   -6.8230   23.7710 C   0  0  0  0  0  3  0  0  0  0  0  0
  -21.0360   -6.0420   24.9350 C   0  0  0  0  0  3  0  0  0  0  0  0
  -21.3710   -4.6750   24.9100 C   0  0  0  0  0  0  0  0  0  0  0  0
  -21.8460   -4.0880   23.7230 C   0  0  0  0  0  3  0  0  0  0  0  0
  -21.9830   -4.8670   22.5620 C   0  0  0  0  0  0  0  0  0  0  0  0
  -22.4210   -4.2920   21.4150 F   0  0  0  0  0  0  0  0  0  0  0  0
  -21.2340   -3.9220   26.0250 F   0  0  0  0  0  0  0  0  0  0  0  0
  -22.8260  -13.5900   21.1790 C   0  0  0  0  0  0  0  0  0  0  0  0
  -22.1450  -12.8800   22.0710 N   0  0  0  0  0  0  0  0  0  0  0  0
  -22.3630  -14.6260   20.7030 O   0  0  0  0  0  0  0  0  0  0  0  0
  -22.5330  -12.0420   22.4800 H   0  0  0  0  0  0  0  0  0  0  0  0
  -21.2220  -13.1800   22.3510 H   0  0  0  0  0  0  0  0  0  0  0  0
  -25.4150  -15.2680   20.2560 N   0  0  0  0  0  0  0  0  0  0  0  0
  -24.6530  -15.9190   20.4140 H   0  0  0  0  0  0  0  0  0  0  0  0
  -26.2410  -15.7130   19.8770 H   0  0  0  0  0  0  0  0  0  0  0  0
  -28.0460  -25.0200   19.7410 C   0  0  0  0  0  2  0  0  0  0  0  0
  -28.3510  -26.4440   20.0610 O   0  0  0  0  0  0  0  0  0  0  0  0
  -24.6160  -31.8090   23.1910 C   0  0  0  0  0  0  0  0  0  0  0  0
  -27.2510  -27.3320   20.0150 C   0  0  0  0  0  0  0  0  0  0  0  0
  -23.4220  -30.4480   21.5170 C   0  0  0  0  0  3  0  0  0  0  0  0
  -24.8820  -28.9520   20.0480 C   0  0  0  0  0  0  0  0  0  0  0  0
  -25.9640  -30.7790   21.3470 C   0  0  0  0  0  2  0  0  0  0  0  0
  -26.0510  -29.4200   20.6630 C   0  0  0  0  0  0  0  0  0  0  0  0
  -27.2380  -28.6210   20.6410 C   0  0  0  0  0  3  0  0  0  0  0  0
  -26.0540  -26.9420   19.3600 C   0  0  0  0  0  3  0  0  0  0  0  0
  -24.8870  -27.7200   19.3870 C   0  0  0  0  0  3  0  0  0  0  0  0
  -23.6420  -29.8180   20.1170 C   0  0  0  0  0  2  0  0  0  0  0  0
  -24.6870  -31.0270   22.0750 N   0  0  0  0  0  0  0  0  0  0  0  0
  -23.5300  -32.0650   23.7320 O   0  0  0  0  0  0  0  0  0  0  0  0
  -22.7660  -29.3980   22.4480 C   0  0  0  0  0  0  0  0  0  0  0  0
  -21.4410  -29.2140   22.3160 N   0  0  0  0  0  0  0  0  0  0  0  0
  -23.4500  -28.7570   23.2500 O   0  0  0  0  0  0  0  0  0  0  0  0
  -20.9480  -29.7850   21.6430 H   0  0  0  0  0  0  0  0  0  0  0  0
  -18.0700  -27.9960   22.8070 C   0  0  0  0  0  0  0  0  0  0  0  0
  -20.6290  -28.2530   23.0660 C   0  0  0  0  0  3  0  0  0  0  0  0
  -20.7300  -26.8380   22.4510 C   0  0  0  0  0  2  0  0  0  0  0  0
  -19.6230  -26.5400   21.4370 C   0  0  0  0  0  2  0  0  0  0  0  0
  -18.2450  -26.6670   22.0920 C   0  0  0  0  0  2  0  0  0  0  0  0
  -19.1900  -28.7470   23.2510 C   0  0  0  0  0  0  0  0  0  0  0  0
  -18.9720  -29.9930   23.8810 C   0  0  0  0  0  3  0  0  0  0  0  0
  -17.6670  -30.4860   24.0690 C   0  0  0  0  0  3  0  0  0  0  0  0
  -16.5620  -29.7310   23.6400 C   0  0  0  0  0  3  0  0  0  0  0  0
  -16.7640  -28.4880   23.0150 C   0  0  0  0  0  3  0  0  0  0  0  0
  -25.8960  -32.4350   23.8260 C   0  0  0  0  0  3  0  0  0  0  0  0
  -25.5810  -33.8270   24.1790 N   0  0  0  0  0  0  0  0  0  0  0  0
  -25.8870  -34.8910   23.4260 C   0  0  0  0  0  0  0  0  0  0  0  0
  -26.5380  -34.8060   22.3810 O   0  0  0  0  0  0  0  0  0  0  0  0
  -25.0050  -33.9670   24.9970 H   0  0  0  0  0  0  0  0  0  0  0  0
  -24.1270  -36.6630   23.1370 C   0  0  0  0  0  1  0  0  0  0  0  0
  -25.3960  -36.2700   23.9080 C   0  0  0  0  0  3  0  0  0  0  0  0
  -27.5420  -37.1770   24.6860 C   0  0  0  0  0  1  0  0  0  0  0  0
  -26.4120  -37.3370   23.7740 N   0  0  0  0  0  0  0  0  0  0  0  0
  -25.9970  -38.2500   23.9410 H   0  0  0  0  0  0  0  0  0  0  0  0
  -26.4090  -31.6440   25.0900 C   0  0  1  0  0  0  0  0  0  0  0  0
  -25.3120  -31.3840   26.1500 C   0  0  0  0  0  1  0  0  0  0  0  0
  -26.9990  -30.2750   24.6790 C   0  0  0  0  0  1  0  0  0  0  0  0
  -27.5560  -32.4290   25.7690 C   0  0  0  0  0  1  0  0  0  0  0  0
  1  3  1  0
  2  1  2  0
  3  6  2  0
  4  2  1  0
  4  5  1  0
  5 12  1  0
  5  3  1  0
  7  4  2  0
  8 10  2  0
  8 12  1  0
  9 11  1  0
 10 13  1  0
 12  9  2  0
 13 22  1  0
 13 11  2  0
 14 22  1  0
 15 20  1  0
 16 17  1  0
 16 15  1  0
 18 17  1  0
 18 27  1  0
 18 19  1  0
 20 14  1  0
 20 19  1  0
 21 14  2  0
 22 23  1  0
 24 25  2  0
 25 44  1  0
 26 25  1  0
 26 29  1  0
 27 28  1  0
 27 24  1  0
 28 26  2  0
 29 30  1  0
 30 31  2  0
 32 35  1  0
 32 31  1  0
 33 32  2  0
 34 33  1  0
 34 29  2  0
 35 36  1  0
 36 37  1  0
 37 38  2  0
 39 38  1  0
 39 43  1  0
 40 39  2  0
 41 36  2  0
 41 40  1  0
 42 41  1  0
 44 45  1  0
 45 48  1  0
 45 47  1  0
 46 44  2  0
 49 24  1  0
 49 50  1  0
 51 49  1  0
 52 53  1  0
 52  2  1  0
 54 65  2  0
 55 53  1  0
 55 60  1  0
 56 64  1  0
 56 66  1  0
 57 63  1  0
 57 59  1  0
 58 64  1  0
 59 58  1  0
 60 59  2  0
 61 62  1  0
 61 55  2  0
 62 57  2  0
 63 56  1  0
 64 54  1  0
 66 68  2  0
 67 66  1  0
 69 67  1  0
 70 79  2  0
 70 75  1  0
 71 67  1  0
 71 75  1  0
 72 71  1  0
 73 74  1  0
 73 72  1  0
 74 70  1  0
 75 76  2  0
 76 77  1  0
 78 77  2  0
 79 78  1  0
 80 54  1  0
 80 81  1  0
 80 90  1  0
 81 84  1  0
 82 86  1  0
 82 81  1  0
 83 82  2  0
 86 85  1  0
 88 86  1  0
 88 89  1  0
 88 87  1  0
 90 93  1  1
 90 91  1  0
 92 90  1  0
M  ISO  4  14 100  22 100  52 101  53 101
M  END
>  <TORSDO>  (34) 
F 18

>  <SCORE>  (34) 
-14.456

>  <name>  (34) 
33

>  <ligand_id>  (34) 
33

>  <original_smiles>  (34) 
[H]C1=C(C([H])([H])Oc2c([H])c([H])c3c(c2[H])C([H])([H])N(C(=O)C([H])(N([H])C(=O)C([H])(N([H])C([H])([H])[H])C([H])([H])[H])C(C([H])([H])[H])(C([H])([H])[H])C([H])([H])[H])C([H])(C(=O)N([H])C2([H])c4c([H])c([H])c([H])c([H])c4C([H])([H])C([H])([H])C2([H])[H])C3([H])[H])C(=O)N(c2c([H])c([H])c(N([H])C(=O)N3C([H])([H])C([H])([H])C([H])([H])C([H])(n4nc(-c5c([H])c([H])c(Oc6c([H])c([H])c(F)c([H])c6F)c([H])c5[H])c(C(=O)N([H])[H])c4N([H])[H])C3([H])[H])c([H])c2[H])C1=O

>  <smiles>  (34) 
[H]C1=C(C([H])([H])Oc2c([H])c([H])c3c(c2[H])C([H])([H])N(C(=O)C([H])(N([H])C(=O)C([H])(N([H])C([H])([H])[H])C([H])([H])[H])C(C([H])([H])[H])(C([H])([H])[H])C([H])([H])[H])C([H])(C(=O)N([H])C2([H])c4c([H])c([H])c([H])c([H])c4C([H])([H])C([H])([H])C2([H])[H])C3([H])[H])C(=O)N(c2c([H])c([H])c(N([H])C(=O)N3C([H])([H])C([H])([H])C([H])([H])C([H])(n4nc(-c5c([H])c([H])c(Oc6c([H])c([H])c(F)c([H])c6F)c([H])c5[H])c(C(=O)N([H])[H])c4N([H])[H])C3([H])[H])c([H])c2[H])C1=O

$$$$
34:0:0
     RDKit          3D

 96105  0  0  1  0  0  0  0  0999 V2000
  -27.3560  -23.8670   20.7990 C   0  0  0  0  0  3  0  0  0  0  0  0
  -27.8520  -21.5270   21.1400 C   0  0  0  0  0  3  0  0  0  0  0  0
  -28.5780  -24.1370   20.2920 C   0  0  0  0  0  0  0  0  0  0  0  0
  -26.9700  -22.5400   21.2400 C   0  0  0  0  0  0  0  0  0  0  0  0
  -29.5830  -22.9830   20.2770 C   0  0  0  0  0  0  0  0  0  0  0  0
  -29.1700  -21.6900   20.6760 N   0  0  0  0  0  0  0  0  0  0  0  0
  -30.7500  -23.1680   19.9200 O   0  0  0  0  0  0  0  0  0  0  0  0
  -31.9900  -19.4340   21.9070 C   0  0  0  0  0  3  0  0  0  0  0  0
  -31.2260  -20.5700   21.5640 C   0  0  0  0  0  3  0  0  0  0  0  0
  -31.6320  -18.1350   21.4790 C   0  0  0  0  0  3  0  0  0  0  0  0
  -30.0300  -20.4610   20.8190 C   0  0  0  0  0  0  0  0  0  0  0  0
  -30.5000  -17.9060   20.6590 C   0  0  0  0  0  0  0  0  0  0  0  0
  -29.6860  -19.1060   20.3860 C   0  0  0  0  0  0  0  0  0  0  0  0
  -28.5280  -18.9710   19.6990 F   0  0  0  0  0  0  0  0  0  0  0  0
  -30.9920  -15.3260   20.2860 C   0  0  0  0  0  0  0  0  0  0  0  0
  -30.8220  -12.9690   19.4150 C   0  0  0  0  0  2  0  0  0  0  0  0
  -29.9090  -12.8660   18.1710 C   0  0  0  0  0  2  0  0  0  0  0  0
  -28.4200  -12.7610   18.5650 C   0  0  0  0  0  2  0  0  0  0  0  0
  -28.0090  -13.7090   19.7210 C   0  0  0  0  0  3  0  0  0  0  0  0
  -29.0510  -13.7500   20.8580 C   0  0  0  0  0  2  0  0  0  0  0  0
  -30.3430  -14.1000   20.2510 N   0  0  0  0  0  0  0  0  0  0  0  0
  -32.2130  -15.3430   20.1120 O   0  0  0  0  0  0  0  0  0  0  0  0
  -29.6020  -16.5880   18.7810 C   0  0  0  0  0  1  0  0  0  0  0  0
  -30.2510  -16.5220   20.1000 N   0  0  0  0  0  0  0  0  0  0  0  0
  -25.6430  -14.3230   20.4840 C   0  0  0  0  0  0  0  0  0  0  0  0
  -24.5630  -13.5590   20.8250 C   0  0  0  0  0  0  0  0  0  0  0  0
  -24.9990  -12.2000   20.7500 C   0  0  0  0  0  0  0  0  0  0  0  0
  -26.6670  -13.4290   20.2120 N   0  0  0  0  0  0  0  0  0  0  0  0
  -26.2880  -12.1460   20.4410 N   0  0  0  0  0  0  0  0  0  0  0  0
  -24.2470  -10.9500   20.8940 C   0  0  0  0  0  0  0  0  0  0  0  0
  -24.6300   -9.9660   21.8310 C   0  0  0  0  0  3  0  0  0  0  0  0
  -23.8830   -8.7770   21.9620 C   0  0  0  0  0  3  0  0  0  0  0  0
  -22.7400   -8.5660   21.1580 C   0  0  0  0  0  0  0  0  0  0  0  0
  -22.3780   -9.5370   20.2070 C   0  0  0  0  0  3  0  0  0  0  0  0
  -23.1260  -10.7170   20.0730 C   0  0  0  0  0  3  0  0  0  0  0  0
  -21.9680   -7.4320   21.2020 O   0  0  0  0  0  0  0  0  0  0  0  0
  -21.8170   -6.7060   22.3560 C   0  0  0  0  0  0  0  0  0  0  0  0
  -21.2870   -7.2790   23.5330 C   0  0  0  0  0  3  0  0  0  0  0  0
  -21.0860   -6.4790   24.6740 C   0  0  0  0  0  3  0  0  0  0  0  0
  -21.4070   -5.1080   24.6410 C   0  0  0  0  0  0  0  0  0  0  0  0
  -21.9330   -4.5370   23.4690 C   0  0  0  0  0  3  0  0  0  0  0  0
  -22.1350   -5.3330   22.3290 C   0  0  0  0  0  0  0  0  0  0  0  0
  -22.6230   -4.7730   21.1960 F   0  0  0  0  0  0  0  0  0  0  0  0
  -21.2060   -4.3380   25.7350 F   0  0  0  0  0  0  0  0  0  0  0  0
  -23.1770  -14.0570   21.1140 C   0  0  0  0  0  0  0  0  0  0  0  0
  -22.4430  -13.3580   21.9730 N   0  0  0  0  0  0  0  0  0  0  0  0
  -22.7560  -15.1030   20.6200 O   0  0  0  0  0  0  0  0  0  0  0  0
  -22.8000  -12.5150   22.3950 H   0  0  0  0  0  0  0  0  0  0  0  0
  -21.5120  -13.6690   22.2130 H   0  0  0  0  0  0  0  0  0  0  0  0
  -25.8360  -15.6960   20.3600 N   0  0  0  0  0  0  0  0  0  0  0  0
  -25.0820  -16.3580   20.5120 H   0  0  0  0  0  0  0  0  0  0  0  0
  -26.6990  -16.1360   20.0680 H   0  0  0  0  0  0  0  0  0  0  0  0
  -25.7270  -22.3240   21.6850 O   0  0  0  0  0  0  0  0  0  0  0  0
  -25.6230  -21.3910   21.8260 H   0  0  0  0  0  0  0  0  0  0  0  0
  -28.7920  -25.5220   19.5110 C   0  0  0  0  0  2  0  0  0  0  0  0
  -28.6180  -26.8770   20.1390 O   0  0  0  0  0  0  0  0  0  0  0  0
  -24.7320  -32.0100   23.3960 C   0  0  0  0  0  0  0  0  0  0  0  0
  -27.4630  -27.6920   20.0590 C   0  0  0  0  0  0  0  0  0  0  0  0
  -23.5760  -30.6610   21.7010 C   0  0  0  0  0  3  0  0  0  0  0  0
  -25.0410  -29.2470   20.1500 C   0  0  0  0  0  0  0  0  0  0  0  0
  -26.0800  -31.0820   21.4870 C   0  0  0  0  0  2  0  0  0  0  0  0
  -26.1990  -29.7360   20.7660 C   0  0  0  0  0  0  0  0  0  0  0  0
  -27.4030  -28.9690   20.7140 C   0  0  0  0  0  3  0  0  0  0  0  0
  -26.2850  -27.2720   19.4020 C   0  0  0  0  0  3  0  0  0  0  0  0
  -25.0890  -28.0270   19.4520 C   0  0  0  0  0  3  0  0  0  0  0  0
  -23.7790  -30.0780   20.2760 C   0  0  0  0  0  2  0  0  0  0  0  0
  -24.8190  -31.2680   22.2530 N   0  0  0  0  0  0  0  0  0  0  0  0
  -23.6450  -32.2100   23.9600 O   0  0  0  0  0  0  0  0  0  0  0  0
  -22.9700  -29.5780   22.6180 C   0  0  0  0  0  0  0  0  0  0  0  0
  -21.6600  -29.4290   22.4580 N   0  0  0  0  0  0  0  0  0  0  0  0
  -23.6530  -28.9040   23.3880 O   0  0  0  0  0  0  0  0  0  0  0  0
  -21.2310  -30.1190   21.8550 H   0  0  0  0  0  0  0  0  0  0  0  0
  -18.3300  -27.7520   22.7420 C   0  0  0  0  0  0  0  0  0  0  0  0
  -20.7680  -28.3480   22.7940 C   0  0  0  0  0  3  0  0  0  0  0  0
  -21.1470  -26.8800   22.5750 C   0  0  0  0  0  2  0  0  0  0  0  0
  -20.1270  -26.2550   21.6000 C   0  0  0  0  0  2  0  0  0  0  0  0
  -18.6730  -26.4040   22.1020 C   0  0  0  0  0  2  0  0  0  0  0  0
  -19.3390  -28.6430   23.1780 C   0  0  0  0  0  0  0  0  0  0  0  0
  -18.9920  -29.8720   23.7770 C   0  0  0  0  0  3  0  0  0  0  0  0
  -17.6370  -30.2350   23.8960 C   0  0  0  0  0  3  0  0  0  0  0  0
  -16.6320  -29.3660   23.4320 C   0  0  0  0  0  3  0  0  0  0  0  0
  -16.9770  -28.1230   22.8710 C   0  0  0  0  0  3  0  0  0  0  0  0
  -25.9960  -32.6560   24.0350 C   0  0  0  0  0  3  0  0  0  0  0  0
  -26.5230  -31.8610   25.2900 C   0  0  1  0  0  0  0  0  0  0  0  0
  -25.4330  -31.5540   26.3420 C   0  0  0  0  0  1  0  0  0  0  0  0
  -27.1400  -30.5110   24.8570 C   0  0  0  0  0  1  0  0  0  0  0  0
  -27.6500  -32.6600   25.9850 C   0  0  0  0  0  1  0  0  0  0  0  0
  -25.6520  -34.0380   24.4020 N   0  0  0  0  0  0  0  0  0  0  0  0
  -25.9580  -35.1160   23.6680 C   0  0  0  0  0  0  0  0  0  0  0  0
  -26.6340  -35.0540   22.6360 O   0  0  0  0  0  0  0  0  0  0  0  0
  -25.0530  -34.1580   25.2060 H   0  0  0  0  0  0  0  0  0  0  0  0
  -24.1920  -36.8810   23.3500 C   0  0  0  0  0  1  0  0  0  0  0  0
  -25.4380  -36.4810   24.1600 C   0  0  0  0  0  3  0  0  0  0  0  0
  -27.5460  -37.3900   25.0340 C   0  0  0  0  0  1  0  0  0  0  0  0
  -26.4490  -37.5590   24.0820 N   0  0  0  0  0  0  0  0  0  0  0  0
  -26.0210  -38.4650   24.2520 H   0  0  0  0  0  0  0  0  0  0  0  0
  1  4  1  0
  2  4  2  0
  3  1  2  0
  4 53  1  0
  5  3  1  0
  5  6  1  0
  6 11  1  0
  6  2  1  0
  7  5  2  0
  9  8  1  0
 10  8  2  0
 11  9  2  0
 12 10  1  0
 13 12  2  0
 13 11  1  0
 14 13  1  0
 16 21  1  0
 17 18  1  0
 17 16  1  0
 19 18  1  0
 19 28  1  0
 19 20  1  0
 21 15  1  0
 21 20  1  0
 22 15  2  0
 23 24  1  0
 24 15  1  0
 24 12  1  0
 25 26  2  0
 26 45  1  0
 27 26  1  0
 27 30  1  0
 28 29  1  0
 28 25  1  0
 29 27  2  0
 30 31  1  0
 31 32  2  0
 33 36  1  0
 33 32  1  0
 34 33  2  0
 35 34  1  0
 35 30  2  0
 36 37  1  0
 37 38  1  0
 38 39  2  0
 40 39  1  0
 40 44  1  0
 41 40  2  0
 42 37  2  0
 42 41  1  0
 43 42  1  0
 45 46  1  0
 46 49  1  0
 46 48  1  0
 47 45  2  0
 50 25  1  0
 50 51  1  0
 52 50  1  0
 53 54  1  0
 55 56  1  0
 55  3  1  0
 57 68  2  0
 58 56  1  0
 58 63  1  0
 59 67  1  0
 59 69  1  0
 60 66  1  0
 60 62  1  0
 61 67  1  0
 62 61  1  0
 63 62  2  0
 64 65  1  0
 64 58  2  0
 65 60  2  0
 66 59  1  0
 67 57  1  0
 69 71  2  0
 70 69  1  0
 72 70  1  0
 73 82  2  0
 73 78  1  0
 74 70  1  0
 74 78  1  0
 75 74  1  0
 76 77  1  0
 76 75  1  0
 77 73  1  0
 78 79  2  0
 79 80  1  0
 81 80  2  0
 82 81  1  0
 83 57  1  0
 83 88  1  0
 83 84  1  0
 84 87  1  1
 84 85  1  0
 86 84  1  0
 88 91  1  0
 89 93  1  0
 89 88  1  0
 90 89  2  0
 93 92  1  0
 95 93  1  0
 95 96  1  0
 95 94  1  0
M  ISO  4  15 100  24 100  55 101  56 101
M  END
>  <TORSDO>  (35) 
F 19

>  <SCORE>  (35) 
-13.221

>  <name>  (35) 
34

>  <ligand_id>  (35) 
34

>  <original_smiles>  (35) 
[H]Oc1c([H])c(C([H])([H])Oc2c([H])c([H])c3c(c2[H])C([H])([H])N(C(=O)C([H])(N([H])C(=O)C([H])(N([H])C([H])([H])[H])C([H])([H])[H])C(C([H])([H])[H])(C([H])([H])[H])C([H])([H])[H])C([H])(C(=O)N([H])C2([H])c4c([H])c([H])c([H])c([H])c4C([H])([H])C([H])([H])C2([H])[H])C3([H])[H])c(=O)n(-c2c([H])c([H])c([H])c(N(C(=O)N3C([H])([H])C([H])([H])C([H])([H])C([H])(n4nc(-c5c([H])c([H])c(Oc6c([H])c([H])c(F)c([H])c6F)c([H])c5[H])c(C(=O)N([H])[H])c4N([H])[H])C3([H])[H])C([H])([H])[H])c2F)c1[H]

>  <smiles>  (35) 
[H]Oc1c([H])c(C([H])([H])Oc2c([H])c([H])c3c(c2[H])C([H])([H])N(C(=O)C([H])(N([H])C(=O)C([H])(N([H])C([H])([H])[H])C([H])([H])[H])C(C([H])([H])[H])(C([H])([H])[H])C([H])([H])[H])C([H])(C(=O)N([H])C2([H])c4c([H])c([H])c([H])c([H])c4C([H])([H])C([H])([H])C2([H])[H])C3([H])[H])c(=O)n(-c2c([H])c([H])c([H])c(N(C(=O)N3C([H])([H])C([H])([H])C([H])([H])C([H])(n4nc(-c5c([H])c([H])c(Oc6c([H])c([H])c(F)c([H])c6F)c([H])c5[H])c(C(=O)N([H])[H])c4N([H])[H])C3([H])[H])C([H])([H])[H])c2F)c1[H]

$$$$
35:0:0
     RDKit          3D

 92101  0  0  1  0  0  0  0  0999 V2000
  -28.5040  -23.5570   20.3290 C   0  0  0  0  0  0  0  0  0  0  0  0
  -29.6820  -22.9250   19.7150 C   0  0  0  0  0  0  0  0  0  0  0  0
  -27.9460  -24.8500   20.5120 C   0  0  0  0  0  3  0  0  0  0  0  0
  -28.0180  -22.1030   20.6720 C   0  0  0  0  0  2  0  0  0  0  0  0
  -29.3220  -21.5960   20.1680 N   0  0  0  0  0  0  0  0  0  0  0  0
  -30.5340  -23.3950   18.9890 O   0  0  0  0  0  0  0  0  0  0  0  0
  -30.0640  -18.7710   17.6930 C   0  0  0  0  0  3  0  0  0  0  0  0
  -29.7820  -20.0030   18.3200 C   0  0  0  0  0  3  0  0  0  0  0  0
  -30.1660  -17.5660   18.4120 C   0  0  0  0  0  3  0  0  0  0  0  0
  -29.5600  -20.1550   19.7100 C   0  0  0  0  0  0  0  0  0  0  0  0
  -29.9890  -17.5230   19.8110 C   0  0  0  0  0  0  0  0  0  0  0  0
  -29.6620  -18.8500   20.4200 C   0  0  0  0  0  0  0  0  0  0  0  0
  -29.4530  -18.9030   21.7570 F   0  0  0  0  0  0  0  0  0  0  0  0
  -30.7560  -14.9690   19.9830 C   0  0  0  0  0  0  0  0  0  0  0  0
  -30.5090  -12.6770   18.9360 C   0  0  0  0  0  2  0  0  0  0  0  0
  -29.4970  -12.7020   17.7670 C   0  0  0  0  0  2  0  0  0  0  0  0
  -28.0640  -12.4880   18.2830 C   0  0  0  0  0  2  0  0  0  0  0  0
  -27.7490  -13.3650   19.5210 C   0  0  0  0  0  3  0  0  0  0  0  0
  -28.8710  -13.3030   20.5740 C   0  0  0  0  0  2  0  0  0  0  0  0
  -30.1150  -13.7320   19.9160 N   0  0  0  0  0  0  0  0  0  0  0  0
  -31.8870  -15.0420   19.4900 O   0  0  0  0  0  0  0  0  0  0  0  0
  -29.9280  -16.1420   21.9340 C   0  0  0  0  0  1  0  0  0  0  0  0
  -30.1200  -16.1460   20.4800 N   0  0  0  0  0  0  0  0  0  0  0  0
  -25.4260  -13.9280   20.4390 C   0  0  0  0  0  0  0  0  0  0  0  0
  -24.3850  -13.1440   20.8530 C   0  0  0  0  0  0  0  0  0  0  0  0
  -24.8390  -11.7930   20.7450 C   0  0  0  0  0  0  0  0  0  0  0  0
  -26.4440  -13.0550   20.0970 N   0  0  0  0  0  0  0  0  0  0  0  0
  -26.1060  -11.7640   20.3460 N   0  0  0  0  0  0  0  0  0  0  0  0
  -24.1200  -10.5270   20.9420 C   0  0  0  0  0  0  0  0  0  0  0  0
  -24.5700   -9.5580   21.8650 C   0  0  0  0  0  3  0  0  0  0  0  0
  -23.8500   -8.3580   22.0490 C   0  0  0  0  0  3  0  0  0  0  0  0
  -22.6660   -8.1190   21.3120 C   0  0  0  0  0  0  0  0  0  0  0  0
  -22.2360   -9.0770   20.3780 C   0  0  0  0  0  3  0  0  0  0  0  0
  -22.9560  -10.2690   20.1900 C   0  0  0  0  0  3  0  0  0  0  0  0
  -21.9160   -6.9710   21.4060 O   0  0  0  0  0  0  0  0  0  0  0  0
  -21.8300   -6.2630   22.5780 C   0  0  0  0  0  0  0  0  0  0  0  0
  -21.3590   -6.8520   23.7710 C   0  0  0  0  0  3  0  0  0  0  0  0
  -21.2190   -6.0690   24.9360 C   0  0  0  0  0  3  0  0  0  0  0  0
  -21.5400   -4.7000   24.9060 C   0  0  0  0  0  0  0  0  0  0  0  0
  -22.0040   -4.1100   23.7170 C   0  0  0  0  0  3  0  0  0  0  0  0
  -22.1450   -4.8890   22.5550 C   0  0  0  0  0  0  0  0  0  0  0  0
  -22.5710   -4.3120   21.4060 F   0  0  0  0  0  0  0  0  0  0  0  0
  -21.4000   -3.9450   26.0210 F   0  0  0  0  0  0  0  0  0  0  0  0
  -23.0120  -13.6160   21.2340 C   0  0  0  0  0  0  0  0  0  0  0  0
  -22.3440  -12.8990   22.1300 N   0  0  0  0  0  0  0  0  0  0  0  0
  -22.5420  -14.6550   20.7720 O   0  0  0  0  0  0  0  0  0  0  0  0
  -22.7380  -12.0580   22.5250 H   0  0  0  0  0  0  0  0  0  0  0  0
  -21.4250  -13.1970   22.4270 H   0  0  0  0  0  0  0  0  0  0  0  0
  -25.5870  -15.3040   20.3010 N   0  0  0  0  0  0  0  0  0  0  0  0
  -24.8380  -15.9590   20.4970 H   0  0  0  0  0  0  0  0  0  0  0  0
  -26.4240  -15.7520   19.9520 H   0  0  0  0  0  0  0  0  0  0  0  0
  -28.2950  -26.2330   20.2170 O   0  0  0  0  0  0  0  0  0  0  0  0
  -24.6170  -31.8880   23.1780 C   0  0  0  0  0  0  0  0  0  0  0  0
  -27.2500  -27.2170   20.1710 C   0  0  0  0  0  0  0  0  0  0  0  0
  -23.4300  -30.4640   21.5550 C   0  0  0  0  0  3  0  0  0  0  0  0
  -24.8950  -28.9050   20.1350 C   0  0  0  0  0  0  0  0  0  0  0  0
  -25.9770  -30.7700   21.3770 C   0  0  0  0  0  2  0  0  0  0  0  0
  -26.0700  -29.3770   20.7380 C   0  0  0  0  0  0  0  0  0  0  0  0
  -27.2500  -28.5460   20.7460 C   0  0  0  0  0  3  0  0  0  0  0  0
  -26.0550  -26.8440   19.5180 C   0  0  0  0  0  3  0  0  0  0  0  0
  -24.8980  -27.6490   19.5100 C   0  0  0  0  0  3  0  0  0  0  0  0
  -23.6540  -29.7810   20.1800 C   0  0  0  0  0  2  0  0  0  0  0  0
  -24.6950  -31.0620   22.0910 N   0  0  0  0  0  0  0  0  0  0  0  0
  -23.5300  -32.1620   23.7080 O   0  0  0  0  0  0  0  0  0  0  0  0
  -22.7720  -29.4520   22.5250 C   0  0  0  0  0  0  0  0  0  0  0  0
  -21.4440  -29.2670   22.4090 N   0  0  0  0  0  0  0  0  0  0  0  0
  -23.4560  -28.8370   23.3470 O   0  0  0  0  0  0  0  0  0  0  0  0
  -20.9480  -29.8160   21.7200 H   0  0  0  0  0  0  0  0  0  0  0  0
  -18.0810  -28.0260   22.9300 C   0  0  0  0  0  0  0  0  0  0  0  0
  -20.6360  -28.3280   23.1920 C   0  0  0  0  0  3  0  0  0  0  0  0
  -20.7580  -26.8900   22.6340 C   0  0  0  0  0  2  0  0  0  0  0  0
  -19.6600  -26.5400   21.6250 C   0  0  0  0  0  2  0  0  0  0  0  0
  -18.2770  -26.6720   22.2680 C   0  0  0  0  0  2  0  0  0  0  0  0
  -19.1900  -28.8100   23.3490 C   0  0  0  0  0  0  0  0  0  0  0  0
  -18.9520  -30.0760   23.9280 C   0  0  0  0  0  3  0  0  0  0  0  0
  -17.6390  -30.5580   24.0920 C   0  0  0  0  0  3  0  0  0  0  0  0
  -16.5470  -29.7720   23.6890 C   0  0  0  0  0  3  0  0  0  0  0  0
  -16.7680  -28.5080   23.1130 C   0  0  0  0  0  3  0  0  0  0  0  0
  -25.8910  -32.5450   23.7930 C   0  0  0  0  0  3  0  0  0  0  0  0
  -25.5590  -33.9400   24.1220 N   0  0  0  0  0  0  0  0  0  0  0  0
  -25.8870  -35.0010   23.3720 C   0  0  0  0  0  0  0  0  0  0  0  0
  -26.5660  -34.9080   22.3460 O   0  0  0  0  0  0  0  0  0  0  0  0
  -24.9570  -34.0850   24.9190 H   0  0  0  0  0  0  0  0  0  0  0  0
  -24.1510  -36.7850   23.0020 C   0  0  0  0  0  1  0  0  0  0  0  0
  -25.3810  -36.3830   23.8310 C   0  0  0  0  0  3  0  0  0  0  0  0
  -27.4960  -37.2780   24.7030 C   0  0  0  0  0  1  0  0  0  0  0  0
  -26.4080  -37.4440   23.7420 N   0  0  0  0  0  0  0  0  0  0  0  0
  -25.9930  -38.3600   23.8890 H   0  0  0  0  0  0  0  0  0  0  0  0
  -26.4220  -31.7880   25.0730 C   0  0  1  0  0  0  0  0  0  0  0  0
  -25.3340  -31.5420   26.1460 C   0  0  0  0  0  1  0  0  0  0  0  0
  -27.0230  -30.4160   24.6930 C   0  0  0  0  0  1  0  0  0  0  0  0
  -27.5620  -32.6030   25.7280 C   0  0  0  0  0  1  0  0  0  0  0  0
  1  3  2  0
  1  4  1  0
  2  5  1  0
  2  1  1  0
  5  4  1  0
  6  2  2  0
  7  8  2  0
  7  9  1  0
  8 10  1  0
  9 11  2  0
 10  5  1  0
 10 12  2  0
 11 12  1  0
 11 23  1  0
 12 13  1  0
 14 23  1  0
 15 20  1  0
 16 17  1  0
 16 15  1  0
 18 17  1  0
 18 27  1  0
 18 19  1  0
 20 14  1  0
 20 19  1  0
 21 14  2  0
 23 22  1  0
 24 25  2  0
 25 44  1  0
 26 25  1  0
 26 29  1  0
 27 28  1  0
 27 24  1  0
 28 26  2  0
 29 30  1  0
 30 31  2  0
 32 35  1  0
 32 31  1  0
 33 32  2  0
 34 33  1  0
 34 29  2  0
 35 36  1  0
 36 37  1  0
 37 38  2  0
 39 38  1  0
 39 43  1  0
 40 39  2  0
 41 36  2  0
 41 40  1  0
 42 41  1  0
 44 45  1  0
 45 48  1  0
 45 47  1  0
 46 44  2  0
 49 24  1  0
 49 50  1  0
 51 49  1  0
 52  3  1  0
 53 64  2  0
 54 52  1  0
 54 59  1  0
 55 63  1  0
 55 65  1  0
 56 62  1  0
 56 58  1  0
 57 63  1  0
 58 59  2  0
 58 57  1  0
 60 54  2  0
 61 60  1  0
 61 56  2  0
 62 55  1  0
 63 53  1  0
 65 67  2  0
 66 65  1  0
 68 66  1  0
 69 78  2  0
 69 74  1  0
 70 66  1  0
 70 74  1  0
 71 70  1  0
 72 73  1  0
 72 71  1  0
 73 69  1  0
 74 75  2  0
 75 76  1  0
 77 76  2  0
 78 77  1  0
 79 53  1  0
 79 80  1  0
 79 89  1  0
 80 83  1  0
 81 85  1  0
 81 80  1  0
 82 81  2  0
 85 84  1  0
 87 85  1  0
 87 88  1  0
 87 86  1  0
 89 92  1  1
 89 90  1  0
 91 89  1  0
M  ISO  4   3 101  14 100  23 100  52 101
M  END
>  <TORSDO>  (36) 
F 17

>  <SCORE>  (36) 
-14.449

>  <name>  (36) 
35

>  <ligand_id>  (36) 
35

>  <original_smiles>  (36) 
[H]C(Oc1c([H])c([H])c2c(c1[H])C([H])([H])N(C(=O)C([H])(N([H])C(=O)C([H])(N([H])C([H])([H])[H])C([H])([H])[H])C(C([H])([H])[H])(C([H])([H])[H])C([H])([H])[H])C([H])(C(=O)N([H])C1([H])c3c([H])c([H])c([H])c([H])c3C([H])([H])C([H])([H])C1([H])[H])C2([H])[H])=C1C(=O)N(c2c([H])c([H])c([H])c(N(C(=O)N3C([H])([H])C([H])([H])C([H])([H])C([H])(n4nc(-c5c([H])c([H])c(Oc6c([H])c([H])c(F)c([H])c6F)c([H])c5[H])c(C(=O)N([H])[H])c4N([H])[H])C3([H])[H])C([H])([H])[H])c2F)C1([H])[H]

>  <smiles>  (36) 
[H]C(Oc1c([H])c([H])c2c(c1[H])C([H])([H])N(C(=O)C([H])(N([H])C(=O)C([H])(N([H])C([H])([H])[H])C([H])([H])[H])C(C([H])([H])[H])(C([H])([H])[H])C([H])([H])[H])C([H])(C(=O)N([H])C1([H])c3c([H])c([H])c([H])c([H])c3C([H])([H])C([H])([H])C1([H])[H])C2([H])[H])=C1C(=O)N(c2c([H])c([H])c([H])c(N(C(=O)N3C([H])([H])C([H])([H])C([H])([H])C([H])(n4nc(-c5c([H])c([H])c(Oc6c([H])c([H])c(F)c([H])c6F)c([H])c5[H])c(C(=O)N([H])[H])c4N([H])[H])C3([H])[H])C([H])([H])[H])c2F)C1([H])[H]

$$$$
36:0:0
     RDKit          3D

 92101  0  0  1  0  0  0  0  0999 V2000
  -28.5230  -23.8100   20.4520 C   0  0  0  0  0  0  0  0  0  0  0  0
  -28.0310  -22.5950   21.0920 C   0  0  0  0  0  0  0  0  0  0  0  0
  -28.0320  -25.1060   20.6200 C   0  0  0  0  0  3  0  0  0  0  0  0
  -29.5810  -22.9420   19.7040 C   0  0  0  0  0  2  0  0  0  0  0  0
  -28.9830  -21.7870   20.4400 N   0  0  0  0  0  0  0  0  0  0  0  0
  -27.1220  -22.4250   21.8780 O   0  0  0  0  0  0  0  0  0  0  0  0
  -28.5270  -19.3820   21.0880 C   0  0  0  0  0  3  0  0  0  0  0  0
  -28.7370  -17.9690   21.1070 C   0  0  0  0  0  3  0  0  0  0  0  0
  -30.6250  -18.2380   19.6960 C   0  0  0  0  0  3  0  0  0  0  0  0
  -29.3220  -20.3310   20.3770 C   0  0  0  0  0  0  0  0  0  0  0  0
  -29.7940  -17.3250   20.4130 C   0  0  0  0  0  0  0  0  0  0  0  0
  -30.3930  -19.6680   19.6800 C   0  0  0  0  0  0  0  0  0  0  0  0
  -31.2420  -20.4350   18.9530 F   0  0  0  0  0  0  0  0  0  0  0  0
  -30.6670  -14.8230   19.9960 C   0  0  0  0  0  0  0  0  0  0  0  0
  -30.4710  -12.5660   18.9260 C   0  0  0  0  0  2  0  0  0  0  0  0
  -29.4460  -12.6620   17.7710 C   0  0  0  0  0  2  0  0  0  0  0  0
  -28.0060  -12.4670   18.2880 C   0  0  0  0  0  2  0  0  0  0  0  0
  -27.7090  -13.3150   19.5530 C   0  0  0  0  0  3  0  0  0  0  0  0
  -28.8370  -13.1690   20.5990 C   0  0  0  0  0  2  0  0  0  0  0  0
  -30.0970  -13.5680   19.9500 N   0  0  0  0  0  0  0  0  0  0  0  0
  -31.7910  -15.0170   19.5220 O   0  0  0  0  0  0  0  0  0  0  0  0
  -29.8570  -15.8370   20.4770 N   0  0  0  0  0  0  0  0  0  0  0  0
  -29.0460  -15.4360   20.9230 H   0  0  0  0  0  0  0  0  0  0  0  0
  -25.3720  -13.8870   20.4490 C   0  0  0  0  0  0  0  0  0  0  0  0
  -24.3300  -13.1030   20.8620 C   0  0  0  0  0  0  0  0  0  0  0  0
  -24.7840  -11.7530   20.7510 C   0  0  0  0  0  0  0  0  0  0  0  0
  -26.3950  -13.0150   20.1150 N   0  0  0  0  0  0  0  0  0  0  0  0
  -26.0510  -11.7240   20.3570 N   0  0  0  0  0  0  0  0  0  0  0  0
  -24.0670  -10.4850   20.9430 C   0  0  0  0  0  0  0  0  0  0  0  0
  -24.5060   -9.5230   21.8790 C   0  0  0  0  0  3  0  0  0  0  0  0
  -23.7890   -8.3200   22.0580 C   0  0  0  0  0  3  0  0  0  0  0  0
  -22.6190   -8.0710   21.3010 C   0  0  0  0  0  0  0  0  0  0  0  0
  -22.1990   -9.0220   20.3550 C   0  0  0  0  0  3  0  0  0  0  0  0
  -22.9170  -10.2180   20.1740 C   0  0  0  0  0  3  0  0  0  0  0  0
  -21.8740   -6.9210   21.3900 O   0  0  0  0  0  0  0  0  0  0  0  0
  -21.7590   -6.2260   22.5680 C   0  0  0  0  0  0  0  0  0  0  0  0
  -21.2490   -6.8260   23.7390 C   0  0  0  0  0  3  0  0  0  0  0  0
  -21.0830   -6.0570   24.9080 C   0  0  0  0  0  3  0  0  0  0  0  0
  -21.4170   -4.6900   24.9070 C   0  0  0  0  0  0  0  0  0  0  0  0
  -21.9200   -4.0890   23.7390 C   0  0  0  0  0  3  0  0  0  0  0  0
  -22.0870   -4.8550   22.5720 C   0  0  0  0  0  0  0  0  0  0  0  0
  -22.5520   -4.2670   21.4430 F   0  0  0  0  0  0  0  0  0  0  0  0
  -21.2500   -3.9490   26.0270 F   0  0  0  0  0  0  0  0  0  0  0  0
  -22.9550  -13.5710   21.2420 C   0  0  0  0  0  0  0  0  0  0  0  0
  -22.2850  -12.8480   22.1320 N   0  0  0  0  0  0  0  0  0  0  0  0
  -22.4850  -14.6120   20.7840 O   0  0  0  0  0  0  0  0  0  0  0  0
  -22.6790  -12.0060   22.5220 H   0  0  0  0  0  0  0  0  0  0  0  0
  -21.3650  -13.1430   22.4290 H   0  0  0  0  0  0  0  0  0  0  0  0
  -25.5290  -15.2640   20.3100 N   0  0  0  0  0  0  0  0  0  0  0  0
  -24.7680  -15.9110   20.4830 H   0  0  0  0  0  0  0  0  0  0  0  0
  -26.3420  -15.7110   19.9040 H   0  0  0  0  0  0  0  0  0  0  0  0
  -28.3480  -26.3960   20.1000 O   0  0  0  0  0  0  0  0  0  0  0  0
  -24.6840  -31.8830   23.1820 C   0  0  0  0  0  0  0  0  0  0  0  0
  -27.2880  -27.3320   20.0660 C   0  0  0  0  0  0  0  0  0  0  0  0
  -23.4770  -30.4970   21.5360 C   0  0  0  0  0  3  0  0  0  0  0  0
  -24.9260  -28.9650   20.0810 C   0  0  0  0  0  0  0  0  0  0  0  0
  -26.0170  -30.8160   21.3440 C   0  0  0  0  0  2  0  0  0  0  0  0
  -26.1010  -29.4420   20.6800 C   0  0  0  0  0  0  0  0  0  0  0  0
  -27.2860  -28.6360   20.6660 C   0  0  0  0  0  3  0  0  0  0  0  0
  -26.0950  -26.9270   19.4310 C   0  0  0  0  0  3  0  0  0  0  0  0
  -24.9270  -27.7150   19.4440 C   0  0  0  0  0  3  0  0  0  0  0  0
  -23.6860  -29.8370   20.1490 C   0  0  0  0  0  2  0  0  0  0  0  0
  -24.7460  -31.0830   22.0770 N   0  0  0  0  0  0  0  0  0  0  0  0
  -23.6030  -32.1510   23.7260 O   0  0  0  0  0  0  0  0  0  0  0  0
  -22.8210  -29.4700   22.4910 C   0  0  0  0  0  0  0  0  0  0  0  0
  -21.4930  -29.2910   22.3730 N   0  0  0  0  0  0  0  0  0  0  0  0
  -23.5060  -28.8370   23.3000 O   0  0  0  0  0  0  0  0  0  0  0  0
  -20.9990  -29.8530   21.6950 H   0  0  0  0  0  0  0  0  0  0  0  0
  -18.1220  -28.0820   22.8930 C   0  0  0  0  0  0  0  0  0  0  0  0
  -20.6830  -28.3420   23.1400 C   0  0  0  0  0  3  0  0  0  0  0  0
  -20.7810  -26.9180   22.5480 C   0  0  0  0  0  2  0  0  0  0  0  0
  -19.6700  -26.6060   21.5400 C   0  0  0  0  0  2  0  0  0  0  0  0
  -18.2940  -26.7410   22.2000 C   0  0  0  0  0  2  0  0  0  0  0  0
  -19.2440  -28.8410   23.3210 C   0  0  0  0  0  0  0  0  0  0  0  0
  -19.0290  -30.0950   23.9320 C   0  0  0  0  0  3  0  0  0  0  0  0
  -17.7250  -30.5920   24.1170 C   0  0  0  0  0  3  0  0  0  0  0  0
  -16.6180  -29.8310   23.7050 C   0  0  0  0  0  3  0  0  0  0  0  0
  -16.8170  -28.5770   23.0980 C   0  0  0  0  0  3  0  0  0  0  0  0
  -25.9670  -32.5160   23.8030 C   0  0  0  0  0  3  0  0  0  0  0  0
  -25.6530  -33.9070   24.1560 N   0  0  0  0  0  0  0  0  0  0  0  0
  -25.9720  -34.9740   23.4110 C   0  0  0  0  0  0  0  0  0  0  0  0
  -26.6330  -34.8880   22.3720 O   0  0  0  0  0  0  0  0  0  0  0  0
  -25.0640  -34.0460   24.9640 H   0  0  0  0  0  0  0  0  0  0  0  0
  -24.2350  -36.7670   23.0980 C   0  0  0  0  0  1  0  0  0  0  0  0
  -25.4840  -36.3530   23.8940 C   0  0  0  0  0  3  0  0  0  0  0  0
  -27.6190  -37.2350   24.7260 C   0  0  0  0  0  1  0  0  0  0  0  0
  -26.5110  -37.4120   23.7890 N   0  0  0  0  0  0  0  0  0  0  0  0
  -26.1030  -38.3290   23.9500 H   0  0  0  0  0  0  0  0  0  0  0  0
  -26.4980  -31.7300   25.0650 C   0  0  1  0  0  0  0  0  0  0  0  0
  -25.4140  -31.4740   26.1390 C   0  0  0  0  0  1  0  0  0  0  0  0
  -27.0850  -30.3600   24.6540 C   0  0  0  0  0  1  0  0  0  0  0  0
  -27.6490  -32.5220   25.7290 C   0  0  0  0  0  1  0  0  0  0  0  0
  1  3  2  0
  1  2  1  0
  2  6  2  0
  4  5  1  0
  4  1  1  0
  5  2  1  0
  7  8  1  0
  9 11  1  0
 10  5  1  0
 10  7  2  0
 11 22  1  0
 11  8  2  0
 12  9  2  0
 12 10  1  0
 13 12  1  0
 14 22  1  0
 15 20  1  0
 16 17  1  0
 16 15  1  0
 18 17  1  0
 18 27  1  0
 18 19  1  0
 20 14  1  0
 20 19  1  0
 21 14  2  0
 22 23  1  0
 24 25  2  0
 25 44  1  0
 26 25  1  0
 26 29  1  0
 27 28  1  0
 27 24  1  0
 28 26  2  0
 29 30  1  0
 30 31  2  0
 32 35  1  0
 32 31  1  0
 33 32  2  0
 34 33  1  0
 34 29  2  0
 35 36  1  0
 36 41  2  0
 36 37  1  0
 37 38  2  0
 39 38  1  0
 39 43  1  0
 40 39  2  0
 41 40  1  0
 42 41  1  0
 44 45  1  0
 45 48  1  0
 45 47  1  0
 46 44  2  0
 49 24  1  0
 49 50  1  0
 51 49  1  0
 52  3  1  0
 53 64  2  0
 54 52  1  0
 54 59  1  0
 55 63  1  0
 55 65  1  0
 56 62  1  0
 56 58  1  0
 57 63  1  0
 58 57  1  0
 59 58  2  0
 60 61  1  0
 60 54  2  0
 61 56  2  0
 62 55  1  0
 63 53  1  0
 65 67  2  0
 66 65  1  0
 68 66  1  0
 69 78  2  0
 69 74  1  0
 70 66  1  0
 70 74  1  0
 71 70  1  0
 72 73  1  0
 72 71  1  0
 73 69  1  0
 74 75  2  0
 75 76  1  0
 77 76  2  0
 78 77  1  0
 79 53  1  0
 79 80  1  0
 79 89  1  0
 80 83  1  0
 81 85  1  0
 81 80  1  0
 82 81  2  0
 85 84  1  0
 87 85  1  0
 87 88  1  0
 87 86  1  0
 89 92  1  1
 89 90  1  0
 91 89  1  0
M  ISO  4   3 101  14 100  22 100  52 101
M  END
>  <TORSDO>  (37) 
F 17

>  <SCORE>  (37) 
-14.033

>  <name>  (37) 
36

>  <ligand_id>  (37) 
36

>  <original_smiles>  (37) 
[H]C(Oc1c([H])c([H])c2c(c1[H])C([H])([H])N(C(=O)C([H])(N([H])C(=O)C([H])(N([H])C([H])([H])[H])C([H])([H])[H])C(C([H])([H])[H])(C([H])([H])[H])C([H])([H])[H])C([H])(C(=O)N([H])C1([H])c3c([H])c([H])c([H])c([H])c3C([H])([H])C([H])([H])C1([H])[H])C2([H])[H])=C1C(=O)N(c2c([H])c([H])c(N([H])C(=O)N3C([H])([H])C([H])([H])C([H])([H])C([H])(n4nc(-c5c([H])c([H])c(Oc6c([H])c([H])c(F)c([H])c6F)c([H])c5[H])c(C(=O)N([H])[H])c4N([H])[H])C3([H])[H])c([H])c2F)C1([H])[H]

>  <smiles>  (37) 
[H]C(Oc1c([H])c([H])c2c(c1[H])C([H])([H])N(C(=O)C([H])(N([H])C(=O)C([H])(N([H])C([H])([H])[H])C([H])([H])[H])C(C([H])([H])[H])(C([H])([H])[H])C([H])([H])[H])C([H])(C(=O)N([H])C1([H])c3c([H])c([H])c([H])c([H])c3C([H])([H])C([H])([H])C1([H])[H])C2([H])[H])=C1C(=O)N(c2c([H])c([H])c(N([H])C(=O)N3C([H])([H])C([H])([H])C([H])([H])C([H])(n4nc(-c5c([H])c([H])c(Oc6c([H])c([H])c(F)c([H])c6F)c([H])c5[H])c(C(=O)N([H])[H])c4N([H])[H])C3([H])[H])c([H])c2F)C1([H])[H]

$$$$
37:0:0
     RDKit          3D

 94103  0  0  1  0  0  0  0  0999 V2000
  -30.4270  -23.4220   20.1640 C   0  0  0  0  0  3  0  0  0  0  0  0
  -28.5480  -22.2960   20.4020 C   0  0  0  0  0  3  0  0  0  0  0  0
  -29.0020  -23.6100   20.3030 C   0  0  0  0  0  0  0  0  0  0  0  0
  -30.7070  -22.0640   20.1420 C   0  0  0  0  0  0  0  0  0  0  0  0
  -29.5400  -21.3090   20.2290 N   0  0  0  0  0  0  0  0  0  0  0  0
  -27.8020  -18.2920   18.8330 C   0  0  0  0  0  3  0  0  0  0  0  0
  -28.4750  -17.1880   19.3820 C   0  0  0  0  0  3  0  0  0  0  0  0
  -28.1970  -19.6040   19.1610 C   0  0  0  0  0  3  0  0  0  0  0  0
  -29.9760  -18.7040   20.5640 C   0  0  0  0  0  3  0  0  0  0  0  0
  -29.5820  -17.3230   20.2650 C   0  0  0  0  0  0  0  0  0  0  0  0
  -29.2840  -19.8670   20.0210 C   0  0  0  0  0  0  0  0  0  0  0  0
  -30.1340  -16.0320   20.9560 C   0  0  0  0  0  0  0  0  0  0  0  0
  -30.2080  -16.0170   22.2240 N   0  0  0  0  0  0  0  0  0  0  0  0
  -29.8680  -16.8850   22.6190 H   0  0  0  0  0  0  0  0  0  0  0  0
  -30.6990  -14.7670   20.1530 C   0  0  0  0  0  0  0  0  0  0  0  0
  -30.4190  -12.5120   19.1100 C   0  0  0  0  0  2  0  0  0  0  0  0
  -29.4170  -12.5510   17.9350 C   0  0  0  0  0  2  0  0  0  0  0  0
  -27.9730  -12.3670   18.4360 C   0  0  0  0  0  2  0  0  0  0  0  0
  -27.6510  -13.2830   19.6380 C   0  0  0  0  0  3  0  0  0  0  0  0
  -28.7510  -13.2010   20.7240 C   0  0  0  0  0  2  0  0  0  0  0  0
  -30.0320  -13.5560   20.0980 N   0  0  0  0  0  0  0  0  0  0  0  0
  -31.7970  -14.8750   19.6010 O   0  0  0  0  0  0  0  0  0  0  0  0
  -25.2960  -13.9290   20.4460 C   0  0  0  0  0  0  0  0  0  0  0  0
  -24.2290  -13.1690   20.8430 C   0  0  0  0  0  0  0  0  0  0  0  0
  -24.6710  -11.8120   20.7940 C   0  0  0  0  0  0  0  0  0  0  0  0
  -26.3150  -13.0290   20.1680 N   0  0  0  0  0  0  0  0  0  0  0  0
  -25.9480  -11.7550   20.4410 N   0  0  0  0  0  0  0  0  0  0  0  0
  -23.9340  -10.5570   20.9930 C   0  0  0  0  0  0  0  0  0  0  0  0
  -24.3780   -9.5800   21.9080 C   0  0  0  0  0  3  0  0  0  0  0  0
  -23.6390   -8.3930   22.0980 C   0  0  0  0  0  3  0  0  0  0  0  0
  -22.4430   -8.1780   21.3720 C   0  0  0  0  0  0  0  0  0  0  0  0
  -22.0180   -9.1460   20.4480 C   0  0  0  0  0  3  0  0  0  0  0  0
  -22.7560  -10.3250   20.2540 C   0  0  0  0  0  3  0  0  0  0  0  0
  -21.6710   -7.0470   21.4780 O   0  0  0  0  0  0  0  0  0  0  0  0
  -21.6390   -6.3030   22.6310 C   0  0  0  0  0  0  0  0  0  0  0  0
  -21.2640   -6.8660   23.8710 C   0  0  0  0  0  3  0  0  0  0  0  0
  -21.1790   -6.0480   25.0170 C   0  0  0  0  0  3  0  0  0  0  0  0
  -21.4550   -4.6710   24.9210 C   0  0  0  0  0  0  0  0  0  0  0  0
  -21.8220   -4.1100   23.6860 C   0  0  0  0  0  3  0  0  0  0  0  0
  -21.9120   -4.9250   22.5450 C   0  0  0  0  0  0  0  0  0  0  0  0
  -22.2470   -4.3730   21.3520 F   0  0  0  0  0  0  0  0  0  0  0  0
  -21.3650   -3.8840   26.0200 F   0  0  0  0  0  0  0  0  0  0  0  0
  -22.8460  -13.6680   21.1490 C   0  0  0  0  0  0  0  0  0  0  0  0
  -22.1340  -12.9900   22.0400 N   0  0  0  0  0  0  0  0  0  0  0  0
  -22.4110  -14.6970   20.6310 O   0  0  0  0  0  0  0  0  0  0  0  0
  -22.5050  -12.1590   22.4760 H   0  0  0  0  0  0  0  0  0  0  0  0
  -21.2060  -13.3060   22.2850 H   0  0  0  0  0  0  0  0  0  0  0  0
  -25.4480  -15.3000   20.2630 N   0  0  0  0  0  0  0  0  0  0  0  0
  -24.6650  -15.9190   20.4460 H   0  0  0  0  0  0  0  0  0  0  0  0
  -26.2150  -15.7730   19.7980 H   0  0  0  0  0  0  0  0  0  0  0  0
  -31.9080  -21.4350   19.9970 O   0  0  0  0  0  0  0  0  0  0  0  0
  -32.5880  -22.0990   19.9650 H   0  0  0  0  0  0  0  0  0  0  0  0
  -28.0020  -24.8630   20.3130 C   0  0  0  0  0  2  0  0  0  0  0  0
  -28.3260  -26.3310   20.1930 O   0  0  0  0  0  0  0  0  0  0  0  0
  -24.6130  -31.8590   23.1970 C   0  0  0  0  0  0  0  0  0  0  0  0
  -27.2200  -27.2320   20.1500 C   0  0  0  0  0  0  0  0  0  0  0  0
  -23.4100  -30.4590   21.5660 C   0  0  0  0  0  3  0  0  0  0  0  0
  -24.8560  -28.8910   20.1500 C   0  0  0  0  0  0  0  0  0  0  0  0
  -25.9600  -30.7480   21.3860 C   0  0  0  0  0  2  0  0  0  0  0  0
  -26.0360  -29.3660   20.7360 C   0  0  0  0  0  0  0  0  0  0  0  0
  -27.2210  -28.5550   20.7190 C   0  0  0  0  0  3  0  0  0  0  0  0
  -26.0030  -26.8230   19.5530 C   0  0  0  0  0  3  0  0  0  0  0  0
  -24.8470  -27.6250   19.5550 C   0  0  0  0  0  3  0  0  0  0  0  0
  -23.6130  -29.7670   20.1970 C   0  0  0  0  0  2  0  0  0  0  0  0
  -24.6830  -31.0450   22.1030 N   0  0  0  0  0  0  0  0  0  0  0  0
  -23.5300  -32.1370   23.7320 O   0  0  0  0  0  0  0  0  0  0  0  0
  -22.7440  -29.4500   22.5350 C   0  0  0  0  0  0  0  0  0  0  0  0
  -21.4150  -29.2800   22.4190 N   0  0  0  0  0  0  0  0  0  0  0  0
  -23.4220  -28.8190   23.3530 O   0  0  0  0  0  0  0  0  0  0  0  0
  -20.9230  -29.8340   21.7290 H   0  0  0  0  0  0  0  0  0  0  0  0
  -18.0410  -28.0920   22.9470 C   0  0  0  0  0  0  0  0  0  0  0  0
  -20.6000  -28.3450   23.1980 C   0  0  0  0  0  3  0  0  0  0  0  0
  -20.6920  -26.9090   22.6230 C   0  0  0  0  0  2  0  0  0  0  0  0
  -19.5800  -26.5900   21.6210 C   0  0  0  0  0  2  0  0  0  0  0  0
  -18.2050  -26.7430   22.2730 C   0  0  0  0  0  2  0  0  0  0  0  0
  -19.1640  -28.8540   23.3700 C   0  0  0  0  0  0  0  0  0  0  0  0
  -18.9480  -30.1180   23.9580 C   0  0  0  0  0  3  0  0  0  0  0  0
  -17.6440  -30.6160   24.1430 C   0  0  0  0  0  3  0  0  0  0  0  0
  -16.5370  -29.8520   23.7340 C   0  0  0  0  0  3  0  0  0  0  0  0
  -16.7380  -28.5950   23.1350 C   0  0  0  0  0  3  0  0  0  0  0  0
  -25.8920  -32.4960   23.8200 C   0  0  0  0  0  3  0  0  0  0  0  0
  -26.4040  -31.7360   25.1020 C   0  0  1  0  0  0  0  0  0  0  0  0
  -25.3080  -31.4960   26.1740 C   0  0  0  0  0  1  0  0  0  0  0  0
  -26.9930  -30.3600   24.7170 C   0  0  0  0  0  1  0  0  0  0  0  0
  -27.5470  -32.5480   25.7570 C   0  0  0  0  0  1  0  0  0  0  0  0
  -25.5720  -33.8910   24.1470 N   0  0  0  0  0  0  0  0  0  0  0  0
  -25.9110  -34.9500   23.4050 C   0  0  0  0  0  0  0  0  0  0  0  0
  -26.5860  -34.8580   22.3740 O   0  0  0  0  0  0  0  0  0  0  0  0
  -24.9700  -34.0420   24.9440 H   0  0  0  0  0  0  0  0  0  0  0  0
  -24.1790  -36.7480   23.0720 C   0  0  0  0  0  1  0  0  0  0  0  0
  -25.4200  -36.3340   23.8750 C   0  0  0  0  0  3  0  0  0  0  0  0
  -27.5530  -37.2200   24.7090 C   0  0  0  0  0  1  0  0  0  0  0  0
  -26.4490  -37.3920   23.7710 N   0  0  0  0  0  0  0  0  0  0  0  0
  -26.0370  -38.3090   23.9340 H   0  0  0  0  0  0  0  0  0  0  0  0
  1  3  1  0
  3 53  1  0
  3  2  2  0
  4  1  2  0
  4  5  1  0
  5  2  1  0
  6  8  2  0
  6  7  1  0
  7 10  2  0
  8 11  1  0
 10  9  1  0
 10 12  1  0
 11  5  1  0
 11  9  2  0
 12 13  2  0
 13 14  1  0
 15 12  1  0
 16 21  1  0
 17 18  1  0
 17 16  1  0
 19 18  1  0
 19 26  1  0
 19 20  1  0
 21 15  1  0
 21 20  1  0
 22 15  2  0
 23 24  2  0
 24 43  1  0
 25 24  1  0
 25 28  1  0
 26 27  1  0
 26 23  1  0
 27 25  2  0
 28 29  1  0
 29 30  2  0
 31 34  1  0
 31 30  1  0
 32 31  2  0
 33 32  1  0
 33 28  2  0
 34 35  1  0
 35 36  1  0
 36 37  2  0
 38 37  1  0
 38 42  1  0
 39 38  2  0
 40 35  2  0
 40 39  1  0
 41 40  1  0
 43 44  1  0
 44 47  1  0
 44 46  1  0
 45 43  2  0
 48 23  1  0
 48 49  1  0
 50 48  1  0
 51  4  1  0
 52 51  1  0
 54 53  1  0
 55 66  2  0
 56 54  1  0
 56 61  1  0
 57 65  1  0
 57 67  1  0
 58 64  1  0
 58 60  1  0
 59 65  1  0
 60 59  1  0
 61 60  2  0
 62 63  1  0
 62 56  2  0
 63 58  2  0
 64 57  1  0
 65 55  1  0
 67 69  2  0
 68 67  1  0
 70 68  1  0
 71 80  2  0
 71 76  1  0
 72 68  1  0
 72 76  1  0
 73 72  1  0
 74 75  1  0
 74 73  1  0
 75 71  1  0
 76 77  2  0
 77 78  1  0
 79 78  2  0
 80 79  1  0
 81 55  1  0
 81 86  1  0
 81 82  1  0
 82 85  1  1
 82 83  1  0
 84 82  1  0
 86 89  1  0
 87 91  1  0
 87 86  1  0
 88 87  2  0
 91 90  1  0
 93 91  1  0
 93 94  1  0
 93 92  1  0
M  ISO  4  12 100  15 100  53 101  54 101
M  END
>  <TORSDO>  (38) 
F 20

>  <SCORE>  (38) 
-14.513

>  <name>  (38) 
37

>  <ligand_id>  (38) 
37

>  <original_smiles>  (38) 
[H]N=C(C(=O)N1C([H])([H])C([H])([H])C([H])([H])C([H])(n2nc(-c3c([H])c([H])c(Oc4c([H])c([H])c(F)c([H])c4F)c([H])c3[H])c(C(=O)N([H])[H])c2N([H])[H])C1([H])[H])c1c([H])c([H])c([H])c(-n2c([H])c(C([H])([H])Oc3c([H])c([H])c4c(c3[H])C([H])([H])N(C(=O)C([H])(N([H])C(=O)C([H])(N([H])C([H])([H])[H])C([H])([H])[H])C(C([H])([H])[H])(C([H])([H])[H])C([H])([H])[H])C([H])(C(=O)N([H])C3([H])c5c([H])c([H])c([H])c([H])c5C([H])([H])C([H])([H])C3([H])[H])C4([H])[H])c([H])c2O[H])c1[H]

>  <smiles>  (38) 
[H]N=C(C(=O)N1C([H])([H])C([H])([H])C([H])([H])C([H])(n2nc(-c3c([H])c([H])c(Oc4c([H])c([H])c(F)c([H])c4F)c([H])c3[H])c(C(=O)N([H])[H])c2N([H])[H])C1([H])[H])c1c([H])c([H])c([H])c(-n2c([H])c(C([H])([H])Oc3c([H])c([H])c4c(c3[H])C([H])([H])N(C(=O)C([H])(N([H])C(=O)C([H])(N([H])C([H])([H])[H])C([H])([H])[H])C(C([H])([H])[H])(C([H])([H])[H])C([H])([H])[H])C([H])(C(=O)N([H])C3([H])c5c([H])c([H])c([H])c([H])c5C([H])([H])C([H])([H])C3([H])[H])C4([H])[H])c([H])c2O[H])c1[H]

$$$$
38:0:0
     RDKit          3D

 98107  0  0  1  0  0  0  0  0999 V2000
  -31.4280  -21.6810   23.0590 C   0  0  0  0  0  3  0  0  0  0  0  0
  -31.3520  -20.3050   22.8170 C   0  0  0  0  0  3  0  0  0  0  0  0
  -29.0660  -20.1770   19.8840 C   0  0  0  0  0  3  0  0  0  0  0  0
  -28.9170  -18.7740   19.7800 C   0  0  0  0  0  3  0  0  0  0  0  0
  -30.7990  -22.5840   22.1890 C   0  0  0  0  0  3  0  0  0  0  0  0
  -30.4870  -18.4210   21.5890 C   0  0  0  0  0  3  0  0  0  0  0  0
  -30.5900  -19.8230   21.7430 C   0  0  0  0  0  0  0  0  0  0  0  0
  -29.9130  -20.7290   20.8770 C   0  0  0  0  0  0  0  0  0  0  0  0
  -29.6240  -17.8750   20.6270 C   0  0  0  0  0  0  0  0  0  0  0  0
  -30.0930  -22.1370   21.0410 C   0  0  0  0  0  0  0  0  0  0  0  0
  -30.6480  -14.5590   20.2900 C   0  0  0  0  0  0  0  0  0  0  0  0
  -30.3430  -12.4100   19.0910 C   0  0  0  0  0  2  0  0  0  0  0  0
  -29.3670  -12.6110   17.9120 C   0  0  0  0  0  2  0  0  0  0  0  0
  -27.9130  -12.3990   18.3740 C   0  0  0  0  0  2  0  0  0  0  0  0
  -27.5850  -13.2310   19.6350 C   0  0  0  0  0  3  0  0  0  0  0  0
  -28.6700  -13.0430   20.7300 C   0  0  0  0  0  2  0  0  0  0  0  0
  -29.9920  -13.3670   20.1540 N   0  0  0  0  0  0  0  0  0  0  0  0
  -31.7030  -14.8070   19.7060 O   0  0  0  0  0  0  0  0  0  0  0  0
  -29.2220  -16.4210   20.6850 C   0  0  0  0  0  0  0  0  0  0  0  0
  -30.0670  -15.4560   21.1120 N   0  0  0  0  0  0  0  0  0  0  0  0
  -28.0360  -16.1760   20.4860 O   0  0  0  0  0  0  0  0  0  0  0  0
  -29.5180  -14.8620   21.7090 H   0  0  0  0  0  0  0  0  0  0  0  0
  -25.2110  -13.8510   20.4180 C   0  0  0  0  0  0  0  0  0  0  0  0
  -24.1540  -13.0780   20.8120 C   0  0  0  0  0  0  0  0  0  0  0  0
  -24.6210  -11.7300   20.7750 C   0  0  0  0  0  0  0  0  0  0  0  0
  -26.2490  -12.9700   20.1550 N   0  0  0  0  0  0  0  0  0  0  0  0
  -25.9040  -11.6900   20.4370 N   0  0  0  0  0  0  0  0  0  0  0  0
  -23.9070  -10.4660   20.9790 C   0  0  0  0  0  0  0  0  0  0  0  0
  -24.3540   -9.5080   21.9150 C   0  0  0  0  0  3  0  0  0  0  0  0
  -23.6420   -8.3050   22.1020 C   0  0  0  0  0  3  0  0  0  0  0  0
  -22.4650   -8.0550   21.3540 C   0  0  0  0  0  0  0  0  0  0  0  0
  -22.0370   -9.0020   20.4080 C   0  0  0  0  0  3  0  0  0  0  0  0
  -22.7520  -10.1970   20.2190 C   0  0  0  0  0  3  0  0  0  0  0  0
  -21.7230   -6.9040   21.4520 O   0  0  0  0  0  0  0  0  0  0  0  0
  -21.6740   -6.1770   22.6150 C   0  0  0  0  0  0  0  0  0  0  0  0
  -21.2200   -6.7410   23.8280 C   0  0  0  0  0  3  0  0  0  0  0  0
  -21.1200   -5.9400   24.9830 C   0  0  0  0  0  3  0  0  0  0  0  0
  -21.4650   -4.5750   24.9250 C   0  0  0  0  0  0  0  0  0  0  0  0
  -21.9100   -4.0110   23.7160 C   0  0  0  0  0  3  0  0  0  0  0  0
  -22.0120   -4.8110   22.5640 C   0  0  0  0  0  0  0  0  0  0  0  0
  -22.4240   -4.2580   21.3980 F   0  0  0  0  0  0  0  0  0  0  0  0
  -21.3600   -3.8030   26.0310 F   0  0  0  0  0  0  0  0  0  0  0  0
  -22.7620  -13.5530   21.1180 C   0  0  0  0  0  0  0  0  0  0  0  0
  -22.0550  -12.8510   21.9960 N   0  0  0  0  0  0  0  0  0  0  0  0
  -22.3100  -14.5830   20.6200 O   0  0  0  0  0  0  0  0  0  0  0  0
  -22.4290  -12.0200   22.4270 H   0  0  0  0  0  0  0  0  0  0  0  0
  -21.1230  -13.1510   22.2420 H   0  0  0  0  0  0  0  0  0  0  0  0
  -25.3640  -15.2200   20.2420 N   0  0  0  0  0  0  0  0  0  0  0  0
  -24.6510  -15.8970   20.4840 H   0  0  0  0  0  0  0  0  0  0  0  0
  -26.2910  -15.6380   20.1260 H   0  0  0  0  0  0  0  0  0  0  0  0
  -29.9410  -24.3590   19.8690 C   0  0  0  0  0  0  0  0  0  0  0  0
  -29.5890  -23.0660   20.0680 N   0  0  0  0  0  0  0  0  0  0  0  0
  -30.7070  -24.9950   20.5960 O   0  0  0  0  0  0  0  0  0  0  0  0
  -28.9770  -22.6750   19.3670 H   0  0  0  0  0  0  0  0  0  0  0  0
  -28.6780  -26.1340   18.8060 C   0  0  0  0  0  3  0  0  0  0  0  0
  -29.3530  -24.9660   18.6810 C   0  0  0  0  0  0  0  0  0  0  0  0
  -29.6160  -24.3290   17.3240 C   0  0  0  0  0  1  0  0  0  0  0  0
  -28.4110  -26.7690   20.0030 O   0  0  0  0  0  0  0  0  0  0  0  0
  -24.5730  -31.8770   23.2350 C   0  0  0  0  0  0  0  0  0  0  0  0
  -27.2340  -27.4820   20.0920 C   0  0  0  0  0  0  0  0  0  0  0  0
  -23.3670  -30.4810   21.5870 C   0  0  0  0  0  3  0  0  0  0  0  0
  -24.8210  -28.9510   20.1610 C   0  0  0  0  0  0  0  0  0  0  0  0
  -25.8910  -30.8530   21.3820 C   0  0  0  0  0  2  0  0  0  0  0  0
  -25.9810  -29.4810   20.7470 C   0  0  0  0  0  0  0  0  0  0  0  0
  -27.1900  -28.7470   20.7130 C   0  0  0  0  0  3  0  0  0  0  0  0
  -26.0450  -26.9470   19.5450 C   0  0  0  0  0  3  0  0  0  0  0  0
  -24.8450  -27.6780   19.5720 C   0  0  0  0  0  3  0  0  0  0  0  0
  -23.5710  -29.8010   20.2090 C   0  0  0  0  0  2  0  0  0  0  0  0
  -24.6290  -31.0850   22.1280 N   0  0  0  0  0  0  0  0  0  0  0  0
  -23.4910  -32.1460   23.7750 O   0  0  0  0  0  0  0  0  0  0  0  0
  -22.7180  -29.4540   22.5440 C   0  0  0  0  0  0  0  0  0  0  0  0
  -21.3900  -29.2820   22.4200 N   0  0  0  0  0  0  0  0  0  0  0  0
  -23.4020  -28.8100   23.3440 O   0  0  0  0  0  0  0  0  0  0  0  0
  -20.8990  -29.8530   21.7480 H   0  0  0  0  0  0  0  0  0  0  0  0
  -18.0130  -28.1040   22.9310 C   0  0  0  0  0  0  0  0  0  0  0  0
  -20.5740  -28.3400   23.1870 C   0  0  0  0  0  3  0  0  0  0  0  0
  -20.6620  -26.9150   22.5950 C   0  0  0  0  0  2  0  0  0  0  0  0
  -19.5520  -26.6100   21.5840 C   0  0  0  0  0  2  0  0  0  0  0  0
  -18.1750  -26.7600   22.2400 C   0  0  0  0  0  2  0  0  0  0  0  0
  -19.1400  -28.8530   23.3610 C   0  0  0  0  0  0  0  0  0  0  0  0
  -18.9390  -30.1100   23.9670 C   0  0  0  0  0  3  0  0  0  0  0  0
  -17.6410  -30.6250   24.1460 C   0  0  0  0  0  3  0  0  0  0  0  0
  -16.5270  -29.8740   23.7290 C   0  0  0  0  0  3  0  0  0  0  0  0
  -16.7120  -28.6160   23.1300 C   0  0  0  0  0  3  0  0  0  0  0  0
  -25.8590  -32.5060   23.8570 C   0  0  0  0  0  3  0  0  0  0  0  0
  -26.3700  -31.7340   25.1340 C   0  0  1  0  0  0  0  0  0  0  0  0
  -25.2760  -31.5000   26.2000 C   0  0  0  0  0  1  0  0  0  0  0  0
  -26.9440  -30.3560   24.7350 C   0  0  0  0  0  1  0  0  0  0  0  0
  -27.5180  -32.5270   25.8040 C   0  0  0  0  0  1  0  0  0  0  0  0
  -25.5500  -33.9050   24.1810 N   0  0  0  0  0  0  0  0  0  0  0  0
  -25.8850  -34.9550   23.4220 C   0  0  0  0  0  0  0  0  0  0  0  0
  -26.5630  -34.8490   22.3960 O   0  0  0  0  0  0  0  0  0  0  0  0
  -24.9470  -34.0580   24.9750 H   0  0  0  0  0  0  0  0  0  0  0  0
  -24.1630  -36.7550   23.0510 C   0  0  0  0  0  1  0  0  0  0  0  0
  -25.3960  -36.3470   23.8720 C   0  0  0  0  0  3  0  0  0  0  0  0
  -27.5260  -37.2290   24.7200 C   0  0  0  0  0  1  0  0  0  0  0  0
  -26.4320  -37.3990   23.7660 N   0  0  0  0  0  0  0  0  0  0  0  0
  -26.0260  -38.3210   23.9090 H   0  0  0  0  0  0  0  0  0  0  0  0
  2  1  1  0
  3  8  1  0
  4  3  2  0
  4  9  1  0
  5  1  2  0
  6  7  1  0
  7  2  2  0
  8 10  2  0
  8  7  1  0
  9 19  1  0
  9  6  2  0
 10  5  1  0
 11 20  1  0
 12 17  1  0
 13 14  1  0
 13 12  1  0
 15 14  1  0
 15 26  1  0
 15 16  1  0
 17 11  1  0
 17 16  1  0
 18 11  2  0
 19 20  1  0
 20 22  1  0
 21 19  2  0
 23 24  2  0
 24 43  1  0
 25 24  1  0
 25 28  1  0
 26 23  1  0
 26 27  1  0
 27 25  2  0
 28 29  1  0
 29 30  2  0
 31 34  1  0
 31 30  1  0
 32 31  2  0
 33 32  1  0
 33 28  2  0
 34 35  1  0
 35 36  1  0
 36 37  2  0
 38 37  1  0
 38 42  1  0
 39 38  2  0
 40 35  2  0
 40 39  1  0
 41 40  1  0
 43 44  1  0
 44 47  1  0
 44 46  1  0
 45 43  2  0
 48 23  1  0
 48 49  1  0
 50 48  1  0
 51 52  1  0
 51 53  2  0
 52 10  1  0
 54 52  1  0
 55 58  1  0
 56 55  2  0
 56 51  1  0
 57 56  1  0
 58 60  1  0
 59 70  2  0
 60 65  1  0
 61 69  1  0
 61 71  1  0
 62 68  1  0
 62 64  1  0
 63 69  1  0
 64 63  1  0
 65 64  2  0
 66 67  1  0
 66 60  2  0
 67 62  2  0
 68 61  1  0
 69 59  1  0
 71 73  2  0
 72 71  1  0
 74 72  1  0
 75 84  2  0
 75 80  1  0
 76 72  1  0
 76 80  1  0
 77 76  1  0
 78 79  1  0
 78 77  1  0
 79 75  1  0
 80 81  2  0
 81 82  1  0
 83 82  2  0
 84 83  1  0
 85 59  1  0
 85 90  1  0
 85 86  1  0
 86 89  1  1
 86 87  1  0
 88 86  1  0
 90 93  1  0
 91 95  1  0
 91 90  1  0
 92 91  2  0
 95 94  1  0
 97 95  1  0
 97 98  1  0
 97 96  1  0
M  ISO  4  11 100  20 100  55 101  58 101
M  END
>  <TORSDO>  (39) 
F 18

>  <SCORE>  (39) 
-15.101

>  <name>  (39) 
38

>  <ligand_id>  (39) 
38

>  <original_smiles>  (39) 
[H]C(Oc1c([H])c([H])c2c(c1[H])C([H])([H])N(C(=O)C([H])(N([H])C(=O)C([H])(N([H])C([H])([H])[H])C([H])([H])[H])C(C([H])([H])[H])(C([H])([H])[H])C([H])([H])[H])C([H])(C(=O)N([H])C1([H])c3c([H])c([H])c([H])c([H])c3C([H])([H])C([H])([H])C1([H])[H])C2([H])[H])=C(C(=O)N([H])c1c([H])c([H])c([H])c2c([H])c(C(=O)N([H])C(=O)N3C([H])([H])C([H])([H])C([H])([H])C([H])(n4nc(-c5c([H])c([H])c(Oc6c([H])c([H])c(F)c([H])c6F)c([H])c5[H])c(C(=O)N([H])[H])c4N([H])[H])C3([H])[H])c([H])c([H])c12)C([H])([H])[H]

>  <smiles>  (39) 
[H]C(Oc1c([H])c([H])c2c(c1[H])C([H])([H])N(C(=O)C([H])(N([H])C(=O)C([H])(N([H])C([H])([H])[H])C([H])([H])[H])C(C([H])([H])[H])(C([H])([H])[H])C([H])([H])[H])C([H])(C(=O)N([H])C1([H])c3c([H])c([H])c([H])c([H])c3C([H])([H])C([H])([H])C1([H])[H])C2([H])[H])=C(C(=O)N([H])c1c([H])c([H])c([H])c2c([H])c(C(=O)N([H])C(=O)N3C([H])([H])C([H])([H])C([H])([H])C([H])(n4nc(-c5c([H])c([H])c(Oc6c([H])c([H])c(F)c([H])c6F)c([H])c5[H])c(C(=O)N([H])[H])c4N([H])[H])C3([H])[H])c([H])c([H])c12)C([H])([H])[H]

$$$$
39:0:0
     RDKit          3D

 94103  0  0  1  0  0  0  0  0999 V2000
  -28.1380  -23.5910   20.5740 C   0  0  0  0  0  0  0  0  0  0  0  0
  -27.3050  -22.7410   21.4150 C   0  0  0  0  0  0  0  0  0  0  0  0
  -29.0700  -22.5260   19.9460 C   0  0  0  0  0  0  0  0  0  0  0  0
  -26.3200  -23.1240   22.2550 C   0  0  0  0  0  2  0  0  0  0  0  0
  -27.8910  -25.0110   20.5570 C   0  0  0  0  0  3  0  0  0  0  0  0
  -27.6560  -21.2840   21.3000 C   0  0  0  0  0  2  0  0  0  0  0  0
  -28.7820  -21.1850   20.3790 N   0  0  0  0  0  0  0  0  0  0  0  0
  -29.9780  -22.7770   19.1480 O   0  0  0  0  0  0  0  0  0  0  0  0
  -29.2000  -17.1920   20.6540 C   0  0  0  0  0  3  0  0  0  0  0  0
  -28.7530  -18.5740   20.7920 C   0  0  0  0  0  3  0  0  0  0  0  0
  -30.4050  -19.3130   19.3140 C   0  0  0  0  0  3  0  0  0  0  0  0
  -30.2950  -16.7580   19.8330 C   0  0  0  0  0  0  0  0  0  0  0  0
  -29.3210  -19.7420   20.1470 C   0  0  0  0  0  0  0  0  0  0  0  0
  -30.8660  -17.9300   19.1660 C   0  0  0  0  0  0  0  0  0  0  0  0
  -30.9240  -15.2530   19.7610 C   0  0  0  0  0  0  0  0  0  0  0  0
  -30.7140  -12.8720   18.9260 C   0  0  0  0  0  2  0  0  0  0  0  0
  -29.7060  -12.7810   17.7580 C   0  0  0  0  0  2  0  0  0  0  0  0
  -28.2860  -12.5460   18.3000 C   0  0  0  0  0  2  0  0  0  0  0  0
  -27.9430  -13.4900   19.4820 C   0  0  0  0  0  3  0  0  0  0  0  0
  -29.0770  -13.5890   20.5200 C   0  0  0  0  0  2  0  0  0  0  0  0
  -30.2910  -14.0040   19.8090 N   0  0  0  0  0  0  0  0  0  0  0  0
  -32.1130  -15.1990   19.4230 O   0  0  0  0  0  0  0  0  0  0  0  0
  -25.6650  -14.0160   20.5110 C   0  0  0  0  0  0  0  0  0  0  0  0
  -24.6330  -13.2220   20.9260 C   0  0  0  0  0  0  0  0  0  0  0  0
  -25.0730  -11.8740   20.7460 C   0  0  0  0  0  0  0  0  0  0  0  0
  -26.6640  -13.1550   20.0960 N   0  0  0  0  0  0  0  0  0  0  0  0
  -26.3260  -11.8550   20.3050 N   0  0  0  0  0  0  0  0  0  0  0  0
  -24.3500  -10.6060   20.9140 C   0  0  0  0  0  0  0  0  0  0  0  0
  -24.7830   -9.6210   21.8290 C   0  0  0  0  0  3  0  0  0  0  0  0
  -24.0570   -8.4200   21.9860 C   0  0  0  0  0  3  0  0  0  0  0  0
  -22.8840   -8.1950   21.2270 C   0  0  0  0  0  0  0  0  0  0  0  0
  -22.4700   -9.1680   20.3010 C   0  0  0  0  0  3  0  0  0  0  0  0
  -23.1960  -10.3600   20.1420 C   0  0  0  0  0  3  0  0  0  0  0  0
  -22.1290   -7.0490   21.2950 O   0  0  0  0  0  0  0  0  0  0  0  0
  -21.9700   -6.3590   22.4710 C   0  0  0  0  0  0  0  0  0  0  0  0
  -21.4190   -6.9650   23.6210 C   0  0  0  0  0  3  0  0  0  0  0  0
  -21.2080   -6.2020   24.7870 C   0  0  0  0  0  3  0  0  0  0  0  0
  -21.5400   -4.8340   24.8010 C   0  0  0  0  0  0  0  0  0  0  0  0
  -22.0830   -4.2270   23.6550 C   0  0  0  0  0  3  0  0  0  0  0  0
  -22.2950   -4.9880   22.4930 C   0  0  0  0  0  0  0  0  0  0  0  0
  -22.7990   -4.3940   21.3840 F   0  0  0  0  0  0  0  0  0  0  0  0
  -21.3300   -4.0980   25.9190 F   0  0  0  0  0  0  0  0  0  0  0  0
  -23.2770  -13.6870   21.3700 C   0  0  0  0  0  0  0  0  0  0  0  0
  -22.6300  -12.9370   22.2540 N   0  0  0  0  0  0  0  0  0  0  0  0
  -22.8050  -14.7500   20.9690 O   0  0  0  0  0  0  0  0  0  0  0  0
  -23.0300  -12.0760   22.5990 H   0  0  0  0  0  0  0  0  0  0  0  0
  -21.7240  -13.2260   22.5920 H   0  0  0  0  0  0  0  0  0  0  0  0
  -25.8320  -15.3950   20.4260 N   0  0  0  0  0  0  0  0  0  0  0  0
  -25.0920  -16.0450   20.6700 H   0  0  0  0  0  0  0  0  0  0  0  0
  -26.6570  -15.8550   20.0580 H   0  0  0  0  0  0  0  0  0  0  0  0
  -31.9480  -17.7810   18.2960 N   0  0  0  0  0  0  0  0  0  0  0  0
  -32.5300  -18.5940   18.1180 H   0  0  0  0  0  0  0  0  0  0  0  0
  -32.4990  -16.9330   18.4120 H   0  0  0  0  0  0  0  0  0  0  0  0
  -28.3190  -26.3000   20.0120 O   0  0  0  0  0  0  0  0  0  0  0  0
  -24.7300  -31.9510   23.1740 C   0  0  0  0  0  0  0  0  0  0  0  0
  -27.3330  -27.3580   19.9830 C   0  0  0  0  0  0  0  0  0  0  0  0
  -23.5450  -30.6130   21.4780 C   0  0  0  0  0  3  0  0  0  0  0  0
  -25.0080  -29.1040   19.9980 C   0  0  0  0  0  0  0  0  0  0  0  0
  -26.1000  -30.8920   21.3380 C   0  0  0  0  0  2  0  0  0  0  0  0
  -26.1840  -29.5260   20.6350 C   0  0  0  0  0  0  0  0  0  0  0  0
  -27.3510  -28.6680   20.6160 C   0  0  0  0  0  3  0  0  0  0  0  0
  -26.1370  -27.0500   19.3010 C   0  0  0  0  0  3  0  0  0  0  0  0
  -24.9970  -27.8800   19.3140 C   0  0  0  0  0  3  0  0  0  0  0  0
  -23.7760  -29.9940   20.0750 C   0  0  0  0  0  2  0  0  0  0  0  0
  -24.8110  -31.1710   22.0520 N   0  0  0  0  0  0  0  0  0  0  0  0
  -23.6400  -32.2120   23.7060 O   0  0  0  0  0  0  0  0  0  0  0  0
  -22.8650  -29.5670   22.3980 C   0  0  0  0  0  0  0  0  0  0  0  0
  -21.5360  -29.4050   22.2660 N   0  0  0  0  0  0  0  0  0  0  0  0
  -23.5350  -28.9060   23.1930 O   0  0  0  0  0  0  0  0  0  0  0  0
  -21.0500  -29.9900   21.6010 H   0  0  0  0  0  0  0  0  0  0  0  0
  -18.1440  -28.2370   22.7770 C   0  0  0  0  0  0  0  0  0  0  0  0
  -20.7120  -28.4400   23.0000 C   0  0  0  0  0  3  0  0  0  0  0  0
  -20.7750  -27.0410   22.3430 C   0  0  0  0  0  2  0  0  0  0  0  0
  -19.6460  -26.7970   21.3370 C   0  0  0  0  0  2  0  0  0  0  0  0
  -18.2810  -26.9270   22.0190 C   0  0  0  0  0  2  0  0  0  0  0  0
  -19.2860  -28.9540   23.2240 C   0  0  0  0  0  0  0  0  0  0  0  0
  -19.1010  -30.1820   23.8970 C   0  0  0  0  0  3  0  0  0  0  0  0
  -17.8090  -30.6920   24.1240 C   0  0  0  0  0  3  0  0  0  0  0  0
  -16.6830  -29.9710   23.6910 C   0  0  0  0  0  3  0  0  0  0  0  0
  -16.8510  -28.7450   23.0230 C   0  0  0  0  0  3  0  0  0  0  0  0
  -26.0020  -32.5680   23.8300 C   0  0  0  0  0  3  0  0  0  0  0  0
  -25.6840  -33.9550   24.2060 N   0  0  0  0  0  0  0  0  0  0  0  0
  -26.0050  -35.0370   23.4840 C   0  0  0  0  0  0  0  0  0  0  0  0
  -26.6670  -34.9720   22.4440 O   0  0  0  0  0  0  0  0  0  0  0  0
  -25.0920  -34.0780   25.0150 H   0  0  0  0  0  0  0  0  0  0  0  0
  -24.2590  -36.8310   23.2180 C   0  0  0  0  0  1  0  0  0  0  0  0
  -25.5170  -36.4070   23.9940 C   0  0  0  0  0  3  0  0  0  0  0  0
  -27.6550  -37.2850   24.8240 C   0  0  0  0  0  1  0  0  0  0  0  0
  -26.5400  -37.4700   23.8980 N   0  0  0  0  0  0  0  0  0  0  0  0
  -26.1300  -38.3830   24.0750 H   0  0  0  0  0  0  0  0  0  0  0  0
  -26.5050  -31.7580   25.0870 C   0  0  1  0  0  0  0  0  0  0  0  0
  -25.4000  -31.4800   26.1330 C   0  0  0  0  0  1  0  0  0  0  0  0
  -27.1020  -30.3970   24.6640 C   0  0  0  0  0  1  0  0  0  0  0  0
  -27.6420  -32.5370   25.7900 C   0  0  0  0  0  1  0  0  0  0  0  0
  1  2  1  0
  2  4  2  0
  3  7  1  0
  3  1  1  0
  5  1  2  0
  6  2  1  0
  7  6  1  0
  8  3  2  0
  9 10  1  0
 11 13  1  0
 12  9  2  0
 13  7  1  0
 13 10  2  0
 14 11  2  0
 14 12  1  0
 15 21  1  0
 15 12  1  0
 16 21  1  0
 17 18  1  0
 17 16  1  0
 19 18  1  0
 19 26  1  0
 19 20  1  0
 21 20  1  0
 22 15  2  0
 23 24  2  0
 24 43  1  0
 25 28  1  0
 25 24  1  0
 26 27  1  0
 26 23  1  0
 27 25  2  0
 28 29  1  0
 29 30  2  0
 31 34  1  0
 31 30  1  0
 32 31  2  0
 33 32  1  0
 33 28  2  0
 34 35  1  0
 35 40  2  0
 35 36  1  0
 36 37  2  0
 37 38  1  0
 38 42  1  0
 39 38  2  0
 40 39  1  0
 41 40  1  0
 43 44  1  0
 44 47  1  0
 44 46  1  0
 45 43  2  0
 48 23  1  0
 48 49  1  0
 50 48  1  0
 51 53  1  0
 51 14  1  0
 52 51  1  0
 54  5  1  0
 55 66  2  0
 56 54  1  0
 56 61  1  0
 57 65  1  0
 57 67  1  0
 58 64  1  0
 58 60  1  0
 59 65  1  0
 60 59  1  0
 61 60  2  0
 62 63  1  0
 62 56  2  0
 63 58  2  0
 64 57  1  0
 65 55  1  0
 67 69  2  0
 68 67  1  0
 70 68  1  0
 71 80  2  0
 71 76  1  0
 72 68  1  0
 72 76  1  0
 73 72  1  0
 74 75  1  0
 74 73  1  0
 75 71  1  0
 76 77  2  0
 77 78  1  0
 79 78  2  0
 80 79  1  0
 81 55  1  0
 81 82  1  0
 81 91  1  0
 82 85  1  0
 83 87  1  0
 83 82  1  0
 84 83  2  0
 87 86  1  0
 89 87  1  0
 89 90  1  0
 89 88  1  0
 91 94  1  1
 91 92  1  0
 93 91  1  0
M  ISO  4   5 101  12 100  15 100  54 101
M  END
>  <TORSDO>  (40) 
F 18

>  <SCORE>  (40) 
-13.248

>  <name>  (40) 
39

>  <ligand_id>  (40) 
39

>  <original_smiles>  (40) 
[H]C([H])=C1C(=C([H])Oc2c([H])c([H])c3c(c2[H])C([H])([H])N(C(=O)C([H])(N([H])C(=O)C([H])(N([H])C([H])([H])[H])C([H])([H])[H])C(C([H])([H])[H])(C([H])([H])[H])C([H])([H])[H])C([H])(C(=O)N([H])C2([H])c4c([H])c([H])c([H])c([H])c4C([H])([H])C([H])([H])C2([H])[H])C3([H])[H])C(=O)N(c2c([H])c([H])c(C(=O)N3C([H])([H])C([H])([H])C([H])([H])C([H])(n4nc(-c5c([H])c([H])c(Oc6c([H])c([H])c(F)c([H])c6F)c([H])c5[H])c(C(=O)N([H])[H])c4N([H])[H])C3([H])[H])c(N([H])[H])c2[H])C1([H])[H]

>  <smiles>  (40) 
[H]C([H])=C1C(=C([H])Oc2c([H])c([H])c3c(c2[H])C([H])([H])N(C(=O)C([H])(N([H])C(=O)C([H])(N([H])C([H])([H])[H])C([H])([H])[H])C(C([H])([H])[H])(C([H])([H])[H])C([H])([H])[H])C([H])(C(=O)N([H])C2([H])c4c([H])c([H])c([H])c([H])c4C([H])([H])C([H])([H])C2([H])[H])C3([H])[H])C(=O)N(c2c([H])c([H])c(C(=O)N3C([H])([H])C([H])([H])C([H])([H])C([H])(n4nc(-c5c([H])c([H])c(Oc6c([H])c([H])c(F)c([H])c6F)c([H])c5[H])c(C(=O)N([H])[H])c4N([H])[H])C3([H])[H])c(N([H])[H])c2[H])C1([H])[H]

$$$$
40:0:0
     RDKit          3D

 94103  0  0  1  0  0  0  0  0999 V2000
  -28.2750  -23.5970   20.8440 C   0  0  0  0  0  3  0  0  0  0  0  0
  -28.6710  -24.1010   19.6740 C   0  0  0  0  0  0  0  0  0  0  0  0
  -28.6460  -22.1850   20.9430 C   0  0  0  0  0  0  0  0  0  0  0  0
  -29.9710  -20.6510   19.5080 C   0  0  0  0  0  0  0  0  0  0  0  0
  -29.3340  -22.9900   18.8870 C   0  0  0  0  0  2  0  0  0  0  0  0
  -29.3570  -21.8430   19.8320 N   0  0  0  0  0  0  0  0  0  0  0  0
  -28.3440  -21.4460   21.8830 O   0  0  0  0  0  0  0  0  0  0  0  0
  -30.3290  -20.4530   18.3390 O   0  0  0  0  0  0  0  0  0  0  0  0
  -31.1650  -18.7190   22.6500 C   0  0  0  0  0  3  0  0  0  0  0  0
  -30.8510  -19.7710   21.7660 C   0  0  0  0  0  3  0  0  0  0  0  0
  -30.9580  -17.3770   22.2750 C   0  0  0  0  0  3  0  0  0  0  0  0
  -30.1190  -18.1400   20.1180 C   0  0  0  0  0  3  0  0  0  0  0  0
  -30.2750  -19.5140   20.4980 C   0  0  0  0  0  0  0  0  0  0  0  0
  -30.4610  -17.0630   20.9940 C   0  0  0  0  0  0  0  0  0  0  0  0
  -30.9390  -14.6720   20.2680 C   0  0  0  0  0  0  0  0  0  0  0  0
  -30.6940  -12.4620   19.1560 C   0  0  0  0  0  2  0  0  0  0  0  0
  -29.7280  -12.6030   17.9580 C   0  0  0  0  0  2  0  0  0  0  0  0
  -28.2540  -12.4850   18.4000 C   0  0  0  0  0  2  0  0  0  0  0  0
  -27.9310  -13.3460   19.6500 C   0  0  0  0  0  3  0  0  0  0  0  0
  -28.9990  -13.1400   20.7460 C   0  0  0  0  0  2  0  0  0  0  0  0
  -30.3080  -13.4660   20.1610 N   0  0  0  0  0  0  0  0  0  0  0  0
  -32.0790  -14.8580   19.8290 O   0  0  0  0  0  0  0  0  0  0  0  0
  -30.1470  -15.6880   20.7060 N   0  0  0  0  0  0  0  0  0  0  0  0
  -29.2200  -15.3960   20.9800 H   0  0  0  0  0  0  0  0  0  0  0  0
  -25.5520  -13.9950   20.3800 C   0  0  0  0  0  0  0  0  0  0  0  0
  -24.4710  -13.2420   20.7590 C   0  0  0  0  0  0  0  0  0  0  0  0
  -24.9080  -11.8830   20.7260 C   0  0  0  0  0  0  0  0  0  0  0  0
  -26.5790  -13.0940   20.1450 N   0  0  0  0  0  0  0  0  0  0  0  0
  -26.1950  -11.8190   20.4090 N   0  0  0  0  0  0  0  0  0  0  0  0
  -24.1610  -10.6340   20.9240 C   0  0  0  0  0  0  0  0  0  0  0  0
  -24.5540   -9.6810   21.8890 C   0  0  0  0  0  3  0  0  0  0  0  0
  -23.8070   -8.4970   22.0730 C   0  0  0  0  0  3  0  0  0  0  0  0
  -22.6530   -8.2580   21.2900 C   0  0  0  0  0  0  0  0  0  0  0  0
  -22.2770   -9.1990   20.3150 C   0  0  0  0  0  3  0  0  0  0  0  0
  -23.0250  -10.3750   20.1310 C   0  0  0  0  0  3  0  0  0  0  0  0
  -21.8820   -7.1230   21.3810 O   0  0  0  0  0  0  0  0  0  0  0  0
  -21.7510   -6.4340   22.5590 C   0  0  0  0  0  0  0  0  0  0  0  0
  -21.2320   -7.0430   23.7230 C   0  0  0  0  0  3  0  0  0  0  0  0
  -21.0490   -6.2810   24.8950 C   0  0  0  0  0  3  0  0  0  0  0  0
  -21.3740   -4.9120   24.9010 C   0  0  0  0  0  0  0  0  0  0  0  0
  -21.8850   -4.3030   23.7410 C   0  0  0  0  0  3  0  0  0  0  0  0
  -22.0690   -5.0610   22.5730 C   0  0  0  0  0  0  0  0  0  0  0  0
  -22.5430   -4.4660   21.4520 F   0  0  0  0  0  0  0  0  0  0  0  0
  -21.1920   -4.1780   26.0240 F   0  0  0  0  0  0  0  0  0  0  0  0
  -23.0840  -13.7460   21.0380 C   0  0  0  0  0  0  0  0  0  0  0  0
  -22.3540  -13.0770   21.9210 N   0  0  0  0  0  0  0  0  0  0  0  0
  -22.6590  -14.7720   20.5080 O   0  0  0  0  0  0  0  0  0  0  0  0
  -22.7080  -12.2480   22.3750 H   0  0  0  0  0  0  0  0  0  0  0  0
  -21.4250  -13.4010   22.1470 H   0  0  0  0  0  0  0  0  0  0  0  0
  -25.7330  -15.3620   20.1910 N   0  0  0  0  0  0  0  0  0  0  0  0
  -24.9580  -16.0120   20.2680 H   0  0  0  0  0  0  0  0  0  0  0  0
  -26.5720  -15.7890   19.8170 H   0  0  0  0  0  0  0  0  0  0  0  0
  -28.5320  -25.5410   19.1070 C   0  0  0  0  0  2  0  0  0  0  0  0
  -28.3050  -26.6300   20.0560 O   0  0  0  0  0  0  0  0  0  0  0  0
  -24.5410  -31.9020   23.1740 C   0  0  0  0  0  0  0  0  0  0  0  0
  -27.1330  -27.3890   20.0420 C   0  0  0  0  0  0  0  0  0  0  0  0
  -23.3090  -30.4890   21.5640 C   0  0  0  0  0  3  0  0  0  0  0  0
  -24.7370  -28.9360   20.1150 C   0  0  0  0  0  0  0  0  0  0  0  0
  -25.8360  -30.8270   21.3220 C   0  0  0  0  0  2  0  0  0  0  0  0
  -25.9080  -29.4450   20.6870 C   0  0  0  0  0  0  0  0  0  0  0  0
  -27.1030  -28.6760   20.6530 C   0  0  0  0  0  3  0  0  0  0  0  0
  -25.9330  -26.9070   19.4710 C   0  0  0  0  0  3  0  0  0  0  0  0
  -24.7470  -27.6690   19.5080 C   0  0  0  0  0  3  0  0  0  0  0  0
  -23.4950  -29.8000   20.1850 C   0  0  0  0  0  2  0  0  0  0  0  0
  -24.5830  -31.0890   22.0790 N   0  0  0  0  0  0  0  0  0  0  0  0
  -23.4680  -32.1770   23.7300 O   0  0  0  0  0  0  0  0  0  0  0  0
  -22.6700  -29.4730   22.5400 C   0  0  0  0  0  0  0  0  0  0  0  0
  -21.3440  -29.2830   22.4300 N   0  0  0  0  0  0  0  0  0  0  0  0
  -23.3670  -28.8590   23.3530 O   0  0  0  0  0  0  0  0  0  0  0  0
  -20.8440  -29.8310   21.7440 H   0  0  0  0  0  0  0  0  0  0  0  0
  -17.9840  -28.0590   22.9730 C   0  0  0  0  0  0  0  0  0  0  0  0
  -20.5430  -28.3410   23.2140 C   0  0  0  0  0  3  0  0  0  0  0  0
  -20.6510  -26.9050   22.6470 C   0  0  0  0  0  2  0  0  0  0  0  0
  -19.5380  -26.5600   21.6520 C   0  0  0  0  0  2  0  0  0  0  0  0
  -18.1610  -26.7070   22.3040 C   0  0  0  0  0  2  0  0  0  0  0  0
  -19.1010  -28.8340   23.3860 C   0  0  0  0  0  0  0  0  0  0  0  0
  -18.8780  -30.0970   23.9720 C   0  0  0  0  0  3  0  0  0  0  0  0
  -17.5710  -30.5930   24.1440 C   0  0  0  0  0  3  0  0  0  0  0  0
  -16.4690  -29.8170   23.7460 C   0  0  0  0  0  3  0  0  0  0  0  0
  -16.6770  -28.5530   23.1680 C   0  0  0  0  0  3  0  0  0  0  0  0
  -25.8350  -32.5400   23.7690 C   0  0  0  0  0  3  0  0  0  0  0  0
  -25.5240  -33.9330   24.1180 N   0  0  0  0  0  0  0  0  0  0  0  0
  -25.8510  -34.9950   23.3710 C   0  0  0  0  0  0  0  0  0  0  0  0
  -26.5180  -34.9050   22.3360 O   0  0  0  0  0  0  0  0  0  0  0  0
  -24.9360  -34.0760   24.9260 H   0  0  0  0  0  0  0  0  0  0  0  0
  -24.1400  -36.8040   23.0150 C   0  0  0  0  0  1  0  0  0  0  0  0
  -25.3630  -36.3780   23.8450 C   0  0  0  0  0  3  0  0  0  0  0  0
  -27.4830  -37.2380   24.7380 C   0  0  0  0  0  1  0  0  0  0  0  0
  -26.4030  -37.4280   23.7730 N   0  0  0  0  0  0  0  0  0  0  0  0
  -26.0000  -38.3480   23.9260 H   0  0  0  0  0  0  0  0  0  0  0  0
  -26.3860  -31.7630   25.0270 C   0  0  1  0  0  0  0  0  0  0  0  0
  -25.3150  -31.5090   26.1150 C   0  0  0  0  0  1  0  0  0  0  0  0
  -26.9740  -30.3970   24.6090 C   0  0  0  0  0  1  0  0  0  0  0  0
  -27.5450  -32.5620   25.6710 C   0  0  0  0  0  1  0  0  0  0  0  0
  1  3  1  0
  2  1  2  0
  3  7  2  0
  4  6  1  0
  4 13  1  0
  5  2  1  0
  5  6  1  0
  6  3  1  0
  8  4  2  0
 10  9  2  0
 11  9  1  0
 12 13  2  0
 12 14  1  0
 13 10  1  0
 14 11  2  0
 15 23  1  0
 16 21  1  0
 17 18  1  0
 17 16  1  0
 19 18  1  0
 19 28  1  0
 19 20  1  0
 21 15  1  0
 21 20  1  0
 22 15  2  0
 23 24  1  0
 23 14  1  0
 25 26  2  0
 26 45  1  0
 27 26  1  0
 27 30  1  0
 28 25  1  0
 28 29  1  0
 29 27  2  0
 30 31  1  0
 31 32  2  0
 33 36  1  0
 33 32  1  0
 34 33  2  0
 35 34  1  0
 35 30  2  0
 36 37  1  0
 37 42  2  0
 37 38  1  0
 38 39  2  0
 39 40  1  0
 40 44  1  0
 41 40  2  0
 42 41  1  0
 43 42  1  0
 45 46  1  0
 46 49  1  0
 46 48  1  0
 47 45  2  0
 50 51  1  0
 50 25  1  0
 52 50  1  0
 53  2  1  0
 53 54  1  0
 55 66  2  0
 56 54  1  0
 56 61  1  0
 57 65  1  0
 57 67  1  0
 58 64  1  0
 58 60  1  0
 59 65  1  0
 60 59  1  0
 61 60  2  0
 62 63  1  0
 62 56  2  0
 63 58  2  0
 64 57  1  0
 65 55  1  0
 67 69  2  0
 68 67  1  0
 70 68  1  0
 71 80  2  0
 71 76  1  0
 72 68  1  0
 72 76  1  0
 73 72  1  0
 74 75  1  0
 74 73  1  0
 75 71  1  0
 76 77  2  0
 77 78  1  0
 79 78  2  0
 80 79  1  0
 81 55  1  0
 81 82  1  0
 81 91  1  0
 82 85  1  0
 83 87  1  0
 83 82  1  0
 84 83  2  0
 87 86  1  0
 89 87  1  0
 89 90  1  0
 89 88  1  0
 91 94  1  1
 91 92  1  0
 93 91  1  0
M  ISO  4  15 100  23 100  53 101  54 101
M  END
>  <TORSDO>  (41) 
F 18

>  <SCORE>  (41) 
-14.514

>  <name>  (41) 
40

>  <ligand_id>  (41) 
40

>  <original_smiles>  (41) 
[H]C1=C(C([H])([H])Oc2c([H])c([H])c3c(c2[H])C([H])([H])N(C(=O)C([H])(N([H])C(=O)C([H])(N([H])C([H])([H])[H])C([H])([H])[H])C(C([H])([H])[H])(C([H])([H])[H])C([H])([H])[H])C([H])(C(=O)N([H])C2([H])c4c([H])c([H])c([H])c([H])c4C([H])([H])C([H])([H])C2([H])[H])C3([H])[H])C([H])([H])N(C(=O)c2c([H])c([H])c([H])c(N([H])C(=O)N3C([H])([H])C([H])([H])C([H])([H])C([H])(n4nc(-c5c([H])c([H])c(Oc6c([H])c([H])c(F)c([H])c6F)c([H])c5[H])c(C(=O)N([H])[H])c4N([H])[H])C3([H])[H])c2[H])C1=O

>  <smiles>  (41) 
[H]C1=C(C([H])([H])Oc2c([H])c([H])c3c(c2[H])C([H])([H])N(C(=O)C([H])(N([H])C(=O)C([H])(N([H])C([H])([H])[H])C([H])([H])[H])C(C([H])([H])[H])(C([H])([H])[H])C([H])([H])[H])C([H])(C(=O)N([H])C2([H])c4c([H])c([H])c([H])c([H])c4C([H])([H])C([H])([H])C2([H])[H])C3([H])[H])C([H])([H])N(C(=O)c2c([H])c([H])c([H])c(N([H])C(=O)N3C([H])([H])C([H])([H])C([H])([H])C([H])(n4nc(-c5c([H])c([H])c(Oc6c([H])c([H])c(F)c([H])c6F)c([H])c5[H])c(C(=O)N([H])[H])c4N([H])[H])C3([H])[H])c2[H])C1=O

$$$$
41:0:0
     RDKit          3D

 93102  0  0  1  0  0  0  0  0999 V2000
  -28.7570  -23.9530   20.5510 C   0  0  0  0  0  0  0  0  0  0  0  0
  -29.4050  -23.1690   19.4930 C   0  0  0  0  0  0  0  0  0  0  0  0
  -28.3440  -25.2610   20.7910 C   0  0  0  0  0  3  0  0  0  0  0  0
  -28.6740  -22.6780   21.4080 C   0  0  0  0  0  2  0  0  0  0  0  0
  -29.4050  -22.0030   20.3160 N   0  0  0  0  0  0  0  0  0  0  0  0
  -29.7370  -23.4600   18.3640 O   0  0  0  0  0  0  0  0  0  0  0  0
  -29.8020  -18.1970   19.2750 C   0  0  0  0  0  3  0  0  0  0  0  0
  -29.5850  -19.6280   19.2090 C   0  0  0  0  0  3  0  0  0  0  0  0
  -30.3450  -18.4340   21.5610 C   0  0  0  0  0  3  0  0  0  0  0  0
  -30.1700  -17.5230   20.4790 C   0  0  0  0  0  0  0  0  0  0  0  0
  -29.6860  -20.5340   20.3190 C   0  0  0  0  0  0  0  0  0  0  0  0
  -30.1120  -19.8400   21.4930 C   0  0  0  0  0  0  0  0  0  0  0  0
  -30.3080  -20.5400   22.6350 F   0  0  0  0  0  0  0  0  0  0  0  0
  -30.1980  -15.9830   20.7830 C   0  0  0  0  0  0  0  0  0  0  0  0
  -29.7330  -15.6720   21.9220 N   0  0  0  0  0  0  0  0  0  0  0  0
  -29.3870  -16.4900   22.4090 H   0  0  0  0  0  0  0  0  0  0  0  0
  -30.8230  -14.8300   19.8530 C   0  0  0  0  0  0  0  0  0  0  0  0
  -30.5310  -12.6300   18.6730 C   0  0  0  0  0  2  0  0  0  0  0  0
  -29.4660  -12.7760   17.5570 C   0  0  0  0  0  2  0  0  0  0  0  0
  -28.0360  -12.5880   18.1060 C   0  0  0  0  0  2  0  0  0  0  0  0
  -27.8030  -13.3820   19.4160 C   0  0  0  0  0  3  0  0  0  0  0  0
  -28.9560  -13.1220   20.4020 C   0  0  0  0  0  2  0  0  0  0  0  0
  -30.2050  -13.5870   19.7630 N   0  0  0  0  0  0  0  0  0  0  0  0
  -31.8670  -15.0380   19.2220 O   0  0  0  0  0  0  0  0  0  0  0  0
  -25.4920  -13.9710   20.3730 C   0  0  0  0  0  0  0  0  0  0  0  0
  -24.4580  -13.1920   20.8170 C   0  0  0  0  0  0  0  0  0  0  0  0
  -24.9040  -11.8400   20.6980 C   0  0  0  0  0  0  0  0  0  0  0  0
  -26.5020  -13.0920   20.0110 N   0  0  0  0  0  0  0  0  0  0  0  0
  -26.1570  -11.8040   20.2630 N   0  0  0  0  0  0  0  0  0  0  0  0
  -24.1890  -10.5760   20.9170 C   0  0  0  0  0  0  0  0  0  0  0  0
  -24.6540   -9.6150   21.8400 C   0  0  0  0  0  3  0  0  0  0  0  0
  -23.9390   -8.4150   22.0450 C   0  0  0  0  0  3  0  0  0  0  0  0
  -22.7440   -8.1700   21.3270 C   0  0  0  0  0  0  0  0  0  0  0  0
  -22.2970   -9.1210   20.3940 C   0  0  0  0  0  3  0  0  0  0  0  0
  -23.0130  -10.3120   20.1870 C   0  0  0  0  0  3  0  0  0  0  0  0
  -21.9980   -7.0210   21.4430 O   0  0  0  0  0  0  0  0  0  0  0  0
  -21.9180   -6.3300   22.6250 C   0  0  0  0  0  0  0  0  0  0  0  0
  -21.4550   -6.9370   23.8130 C   0  0  0  0  0  3  0  0  0  0  0  0
  -21.3230   -6.1710   24.9890 C   0  0  0  0  0  3  0  0  0  0  0  0
  -21.6440   -4.8000   24.9770 C   0  0  0  0  0  0  0  0  0  0  0  0
  -22.1000   -4.1930   23.7940 C   0  0  0  0  0  3  0  0  0  0  0  0
  -22.2330   -4.9570   22.6200 C   0  0  0  0  0  0  0  0  0  0  0  0
  -22.6530   -4.3630   21.4760 F   0  0  0  0  0  0  0  0  0  0  0  0
  -21.5100   -4.0630   26.1040 F   0  0  0  0  0  0  0  0  0  0  0  0
  -23.0980  -13.6680   21.2390 C   0  0  0  0  0  0  0  0  0  0  0  0
  -22.4600  -12.9600   22.1640 N   0  0  0  0  0  0  0  0  0  0  0  0
  -22.6130  -14.7020   20.7820 O   0  0  0  0  0  0  0  0  0  0  0  0
  -22.8670  -12.1220   22.5530 H   0  0  0  0  0  0  0  0  0  0  0  0
  -21.5510  -13.2590   22.4880 H   0  0  0  0  0  0  0  0  0  0  0  0
  -25.6500  -15.3470   20.2270 N   0  0  0  0  0  0  0  0  0  0  0  0
  -24.9110  -16.0040   20.4440 H   0  0  0  0  0  0  0  0  0  0  0  0
  -26.4870  -15.7920   19.8720 H   0  0  0  0  0  0  0  0  0  0  0  0
  -28.4600  -26.4820   20.0820 O   0  0  0  0  0  0  0  0  0  0  0  0
  -24.7460  -31.8470   23.3100 C   0  0  0  0  0  0  0  0  0  0  0  0
  -27.3660  -27.3680   20.1240 C   0  0  0  0  0  0  0  0  0  0  0  0
  -23.5390  -30.4750   21.6510 C   0  0  0  0  0  3  0  0  0  0  0  0
  -24.9900  -28.9670   20.1760 C   0  0  0  0  0  0  0  0  0  0  0  0
  -26.0740  -30.8170   21.4490 C   0  0  0  0  0  2  0  0  0  0  0  0
  -26.1620  -29.4510   20.7720 C   0  0  0  0  0  0  0  0  0  0  0  0
  -27.3570  -28.6640   20.7360 C   0  0  0  0  0  3  0  0  0  0  0  0
  -26.1720  -26.9390   19.5120 C   0  0  0  0  0  3  0  0  0  0  0  0
  -24.9970  -27.7160   19.5380 C   0  0  0  0  0  3  0  0  0  0  0  0
  -23.7450  -29.8310   20.2550 C   0  0  0  0  0  2  0  0  0  0  0  0
  -24.8060  -31.0630   22.1940 N   0  0  0  0  0  0  0  0  0  0  0  0
  -23.6660  -32.1030   23.8620 O   0  0  0  0  0  0  0  0  0  0  0  0
  -22.8920  -29.4340   22.5960 C   0  0  0  0  0  0  0  0  0  0  0  0
  -21.5680  -29.2410   22.4710 N   0  0  0  0  0  0  0  0  0  0  0  0
  -23.5820  -28.8030   23.4000 O   0  0  0  0  0  0  0  0  0  0  0  0
  -21.0680  -29.8030   21.7960 H   0  0  0  0  0  0  0  0  0  0  0  0
  -18.2180  -27.9480   22.9250 C   0  0  0  0  0  0  0  0  0  0  0  0
  -20.7650  -28.2780   23.2280 C   0  0  0  0  0  3  0  0  0  0  0  0
  -20.9140  -26.8520   22.6480 C   0  0  0  0  0  2  0  0  0  0  0  0
  -19.8350  -26.5020   21.6190 C   0  0  0  0  0  2  0  0  0  0  0  0
  -18.4420  -26.6070   22.2450 C   0  0  0  0  0  2  0  0  0  0  0  0
  -19.3090  -28.7390   23.3710 C   0  0  0  0  0  0  0  0  0  0  0  0
  -19.0470  -29.9920   23.9660 C   0  0  0  0  0  3  0  0  0  0  0  0
  -17.7260  -30.4560   24.1170 C   0  0  0  0  0  3  0  0  0  0  0  0
  -16.6490  -29.6620   23.6860 C   0  0  0  0  0  3  0  0  0  0  0  0
  -16.8970  -28.4090   23.0950 C   0  0  0  0  0  3  0  0  0  0  0  0
  -26.0300  -32.4770   23.9340 C   0  0  0  0  0  3  0  0  0  0  0  0
  -25.7130  -33.8660   24.2960 N   0  0  0  0  0  0  0  0  0  0  0  0
  -26.0400  -34.9380   23.5630 C   0  0  0  0  0  0  0  0  0  0  0  0
  -26.7100  -34.8630   22.5290 O   0  0  0  0  0  0  0  0  0  0  0  0
  -25.1180  -33.9990   25.1010 H   0  0  0  0  0  0  0  0  0  0  0  0
  -24.3100  -36.7380   23.2460 C   0  0  0  0  0  1  0  0  0  0  0  0
  -25.5490  -36.3140   24.0540 C   0  0  0  0  0  3  0  0  0  0  0  0
  -27.6780  -37.1810   24.9160 C   0  0  0  0  0  1  0  0  0  0  0  0
  -26.5790  -37.3720   23.9720 N   0  0  0  0  0  0  0  0  0  0  0  0
  -26.1710  -38.2880   24.1420 H   0  0  0  0  0  0  0  0  0  0  0  0
  -26.5620  -31.6850   25.1910 C   0  0  1  0  0  0  0  0  0  0  0  0
  -25.4790  -31.4160   26.2620 C   0  0  0  0  0  1  0  0  0  0  0  0
  -27.1550  -30.3200   24.7680 C   0  0  0  0  0  1  0  0  0  0  0  0
  -27.7100  -32.4760   25.8610 C   0  0  0  0  0  1  0  0  0  0  0  0
  1  3  2  0
  1  4  1  0
  2  5  1  0
  2  1  1  0
  5 11  1  0
  5  4  1  0
  6  2  2  0
  7 10  1  0
  8  7  2  0
  8 11  1  0
 10 14  1  0
 10  9  2  0
 11 12  2  0
 12  9  1  0
 12 13  1  0
 14 15  2  0
 15 16  1  0
 17 14  1  0
 18 23  1  0
 19 20  1  0
 19 18  1  0
 21 20  1  0
 21 28  1  0
 21 22  1  0
 23 17  1  0
 23 22  1  0
 24 17  2  0
 25 26  2  0
 26 45  1  0
 27 26  1  0
 27 30  1  0
 28 29  1  0
 28 25  1  0
 29 27  2  0
 30 31  1  0
 31 32  2  0
 33 36  1  0
 33 32  1  0
 34 33  2  0
 35 34  1  0
 35 30  2  0
 36 37  1  0
 37 38  1  0
 38 39  2  0
 40 39  1  0
 40 44  1  0
 41 40  2  0
 42 37  2  0
 42 41  1  0
 43 42  1  0
 45 46  1  0
 46 49  1  0
 46 48  1  0
 47 45  2  0
 50 25  1  0
 50 51  1  0
 52 50  1  0
 53 55  1  0
 53  3  1  0
 54 65  2  0
 55 60  1  0
 56 64  1  0
 56 66  1  0
 57 63  1  0
 57 59  1  0
 58 64  1  0
 59 58  1  0
 60 59  2  0
 61 62  1  0
 61 55  2  0
 62 57  2  0
 63 56  1  0
 64 54  1  0
 66 68  2  0
 67 66  1  0
 69 67  1  0
 70 79  2  0
 70 75  1  0
 71 67  1  0
 71 75  1  0
 72 71  1  0
 73 74  1  0
 73 72  1  0
 74 70  1  0
 75 76  2  0
 76 77  1  0
 78 77  2  0
 79 78  1  0
 80 54  1  0
 80 81  1  0
 80 90  1  0
 81 84  1  0
 82 86  1  0
 82 81  1  0
 83 82  2  0
 86 85  1  0
 88 86  1  0
 88 89  1  0
 88 87  1  0
 90 93  1  1
 90 91  1  0
 92 90  1  0
M  ISO  4   3 101  14 100  17 100  53 101
M  END
>  <TORSDO>  (42) 
F 18

>  <SCORE>  (42) 
-13.838

>  <name>  (42) 
41

>  <ligand_id>  (42) 
41

>  <original_smiles>  (42) 
[H]N=C(C(=O)N1C([H])([H])C([H])([H])C([H])([H])C([H])(n2nc(-c3c([H])c([H])c(Oc4c([H])c([H])c(F)c([H])c4F)c([H])c3[H])c(C(=O)N([H])[H])c2N([H])[H])C1([H])[H])c1c([H])c([H])c(N2C(=O)C(=C([H])Oc3c([H])c([H])c4c(c3[H])C([H])([H])N(C(=O)C([H])(N([H])C(=O)C([H])(N([H])C([H])([H])[H])C([H])([H])[H])C(C([H])([H])[H])(C([H])([H])[H])C([H])([H])[H])C([H])(C(=O)N([H])C3([H])c5c([H])c([H])c([H])c([H])c5C([H])([H])C([H])([H])C3([H])[H])C4([H])[H])C2([H])[H])c(F)c1[H]

>  <smiles>  (42) 
[H]N=C(C(=O)N1C([H])([H])C([H])([H])C([H])([H])C([H])(n2nc(-c3c([H])c([H])c(Oc4c([H])c([H])c(F)c([H])c4F)c([H])c3[H])c(C(=O)N([H])[H])c2N([H])[H])C1([H])[H])c1c([H])c([H])c(N2C(=O)C(=C([H])Oc3c([H])c([H])c4c(c3[H])C([H])([H])N(C(=O)C([H])(N([H])C(=O)C([H])(N([H])C([H])([H])[H])C([H])([H])[H])C(C([H])([H])[H])(C([H])([H])[H])C([H])([H])[H])C([H])(C(=O)N([H])C3([H])c5c([H])c([H])c([H])c([H])c5C([H])([H])C([H])([H])C3([H])[H])C4([H])[H])C2([H])[H])c(F)c1[H]

$$$$
42:0:0
     RDKit          3D

 94103  0  0  1  0  0  0  0  0999 V2000
  -30.5800  -22.9790   18.0660 C   0  0  0  0  0  0  0  0  0  0  0  0
  -28.8050  -23.9990   19.1640 C   0  0  0  0  0  3  0  0  0  0  0  0
  -31.4050  -22.3870   17.1920 C   0  0  0  0  0  2  0  0  0  0  0  0
  -28.3650  -25.3260   19.2010 C   0  0  0  0  0  2  0  0  0  0  0  0
  -29.2090  -23.5280   17.7730 C   0  0  0  0  0  2  0  0  0  0  0  0
  -30.7910  -23.0990   19.5590 C   0  0  0  0  0  2  0  0  0  0  0  0
  -29.4280  -23.0900   20.1030 N   0  0  0  0  0  0  0  0  0  0  0  0
  -30.2640  -19.6530   21.5430 C   0  0  0  0  0  3  0  0  0  0  0  0
  -28.9950  -19.2240   19.5770 C   0  0  0  0  0  3  0  0  0  0  0  0
  -29.9930  -21.0550   21.4270 C   0  0  0  0  0  3  0  0  0  0  0  0
  -28.7270  -20.6460   19.4580 C   0  0  0  0  0  3  0  0  0  0  0  0
  -29.8340  -18.6750   20.5970 C   0  0  0  0  0  0  0  0  0  0  0  0
  -29.2870  -21.6390   20.3360 C   0  0  0  0  0  0  0  0  0  0  0  0
  -30.6350  -14.8200   20.0980 C   0  0  0  0  0  0  0  0  0  0  0  0
  -30.3350  -12.5810   19.0250 C   0  0  0  0  0  2  0  0  0  0  0  0
  -29.3440  -12.6720   17.8470 C   0  0  0  0  0  2  0  0  0  0  0  0
  -27.9010  -12.4850   18.3540 C   0  0  0  0  0  2  0  0  0  0  0  0
  -27.5830  -13.3570   19.6010 C   0  0  0  0  0  3  0  0  0  0  0  0
  -28.6950  -13.2600   20.6650 C   0  0  0  0  0  2  0  0  0  0  0  0
  -29.9500  -13.6290   20.0010 N   0  0  0  0  0  0  0  0  0  0  0  0
  -31.8220  -14.8140   19.7530 O   0  0  0  0  0  0  0  0  0  0  0  0
  -30.5320  -17.2660   20.5840 C   0  0  0  0  0  0  0  0  0  0  0  0
  -29.9550  -16.0220   20.3330 N   0  0  0  0  0  0  0  0  0  0  0  0
  -31.7300  -17.3290   20.8870 O   0  0  0  0  0  0  0  0  0  0  0  0
  -28.9500  -15.9910   20.3060 H   0  0  0  0  0  0  0  0  0  0  0  0
  -25.2380  -13.9310   20.4590 C   0  0  0  0  0  0  0  0  0  0  0  0
  -24.1900  -13.1510   20.8660 C   0  0  0  0  0  0  0  0  0  0  0  0
  -24.6490  -11.8010   20.7880 C   0  0  0  0  0  0  0  0  0  0  0  0
  -26.2670  -13.0570   20.1540 N   0  0  0  0  0  0  0  0  0  0  0  0
  -25.9240  -11.7690   20.4180 N   0  0  0  0  0  0  0  0  0  0  0  0
  -23.9310  -10.5350   20.9880 C   0  0  0  0  0  0  0  0  0  0  0  0
  -24.3800   -9.5730   21.9180 C   0  0  0  0  0  3  0  0  0  0  0  0
  -23.6640   -8.3710   22.1080 C   0  0  0  0  0  3  0  0  0  0  0  0
  -22.4860   -8.1210   21.3660 C   0  0  0  0  0  0  0  0  0  0  0  0
  -22.0540   -9.0730   20.4250 C   0  0  0  0  0  3  0  0  0  0  0  0
  -22.7700  -10.2660   20.2340 C   0  0  0  0  0  3  0  0  0  0  0  0
  -21.7420   -6.9710   21.4650 O   0  0  0  0  0  0  0  0  0  0  0  0
  -21.6720   -6.2540   22.6330 C   0  0  0  0  0  0  0  0  0  0  0  0
  -21.1810   -6.8220   23.8280 C   0  0  0  0  0  3  0  0  0  0  0  0
  -21.0610   -6.0300   24.9870 C   0  0  0  0  0  3  0  0  0  0  0  0
  -21.4250   -4.6700   24.9510 C   0  0  0  0  0  0  0  0  0  0  0  0
  -21.9110   -4.1020   23.7600 C   0  0  0  0  0  3  0  0  0  0  0  0
  -22.0320   -4.8910   22.6030 C   0  0  0  0  0  0  0  0  0  0  0  0
  -22.4800   -4.3340   21.4530 F   0  0  0  0  0  0  0  0  0  0  0  0
  -21.3040   -3.9060   26.0620 F   0  0  0  0  0  0  0  0  0  0  0  0
  -22.8060  -13.6250   21.2050 C   0  0  0  0  0  0  0  0  0  0  0  0
  -22.1090  -12.9130   22.0830 N   0  0  0  0  0  0  0  0  0  0  0  0
  -22.3510  -14.6600   20.7230 O   0  0  0  0  0  0  0  0  0  0  0  0
  -22.4920  -12.0770   22.5000 H   0  0  0  0  0  0  0  0  0  0  0  0
  -21.1790  -13.2080   22.3410 H   0  0  0  0  0  0  0  0  0  0  0  0
  -25.3950  -15.3040   20.2930 N   0  0  0  0  0  0  0  0  0  0  0  0
  -24.6360  -15.9570   20.4450 H   0  0  0  0  0  0  0  0  0  0  0  0
  -26.2070  -15.7330   19.8700 H   0  0  0  0  0  0  0  0  0  0  0  0
  -28.2840  -26.3660   20.1630 O   0  0  0  0  0  0  0  0  0  0  0  0
  -24.6470  -31.8810   23.2190 C   0  0  0  0  0  0  0  0  0  0  0  0
  -27.2200  -27.3020   20.1000 C   0  0  0  0  0  0  0  0  0  0  0  0
  -23.4310  -30.4970   21.5800 C   0  0  0  0  0  3  0  0  0  0  0  0
  -24.8700  -28.9650   20.1190 C   0  0  0  0  0  0  0  0  0  0  0  0
  -25.9730  -30.8050   21.3810 C   0  0  0  0  0  2  0  0  0  0  0  0
  -26.0490  -29.4300   20.7160 C   0  0  0  0  0  0  0  0  0  0  0  0
  -27.2250  -28.6080   20.7040 C   0  0  0  0  0  3  0  0  0  0  0  0
  -26.0070  -26.9060   19.4930 C   0  0  0  0  0  3  0  0  0  0  0  0
  -24.8540  -27.7090   19.4970 C   0  0  0  0  0  3  0  0  0  0  0  0
  -23.6330  -29.8400   20.1910 C   0  0  0  0  0  2  0  0  0  0  0  0
  -24.7040  -31.0770   22.1170 N   0  0  0  0  0  0  0  0  0  0  0  0
  -23.5690  -32.1520   23.7660 O   0  0  0  0  0  0  0  0  0  0  0  0
  -22.7790  -29.4680   22.5350 C   0  0  0  0  0  0  0  0  0  0  0  0
  -21.4530  -29.2870   22.4140 N   0  0  0  0  0  0  0  0  0  0  0  0
  -23.4640  -28.8380   23.3460 O   0  0  0  0  0  0  0  0  0  0  0  0
  -20.9590  -29.8450   21.7320 H   0  0  0  0  0  0  0  0  0  0  0  0
  -18.0820  -28.0780   22.9280 C   0  0  0  0  0  0  0  0  0  0  0  0
  -20.6410  -28.3420   23.1810 C   0  0  0  0  0  3  0  0  0  0  0  0
  -20.7440  -26.9150   22.5950 C   0  0  0  0  0  2  0  0  0  0  0  0
  -19.6370  -26.5980   21.5840 C   0  0  0  0  0  2  0  0  0  0  0  0
  -18.2580  -26.7350   22.2390 C   0  0  0  0  0  2  0  0  0  0  0  0
  -19.2010  -28.8420   23.3540 C   0  0  0  0  0  0  0  0  0  0  0  0
  -18.9830  -30.1000   23.9560 C   0  0  0  0  0  3  0  0  0  0  0  0
  -17.6770  -30.5930   24.1390 C   0  0  0  0  0  3  0  0  0  0  0  0
  -16.5730  -29.8260   23.7290 C   0  0  0  0  0  3  0  0  0  0  0  0
  -16.7760  -28.5710   23.1280 C   0  0  0  0  0  3  0  0  0  0  0  0
  -25.9330  -32.5140   23.8340 C   0  0  0  0  0  3  0  0  0  0  0  0
  -25.6220  -33.9100   24.1760 N   0  0  0  0  0  0  0  0  0  0  0  0
  -25.9340  -34.9700   23.4170 C   0  0  0  0  0  0  0  0  0  0  0  0
  -26.5820  -34.8730   22.3720 O   0  0  0  0  0  0  0  0  0  0  0  0
  -25.0570  -34.0570   24.9980 H   0  0  0  0  0  0  0  0  0  0  0  0
  -24.1960  -36.7610   23.1000 C   0  0  0  0  0  1  0  0  0  0  0  0
  -25.4500  -36.3540   23.8900 C   0  0  0  0  0  3  0  0  0  0  0  0
  -27.5910  -37.2450   24.7000 C   0  0  0  0  0  1  0  0  0  0  0  0
  -26.4780  -37.4120   23.7700 N   0  0  0  0  0  0  0  0  0  0  0  0
  -26.0690  -38.3300   23.9280 H   0  0  0  0  0  0  0  0  0  0  0  0
  -26.4580  -31.7400   25.1050 C   0  0  1  0  0  0  0  0  0  0  0  0
  -25.3710  -31.4950   26.1780 C   0  0  0  0  0  1  0  0  0  0  0  0
  -27.0440  -30.3660   24.7050 C   0  0  0  0  0  1  0  0  0  0  0  0
  -27.6080  -32.5350   25.7670 C   0  0  0  0  0  1  0  0  0  0  0  0
  1  6  1  0
  2  4  1  0
  2  7  1  0
  3  1  2  0
  4 54  1  0
  5  1  1  0
  5  2  1  0
  6  7  1  0
  7 13  1  0
  9 12  1  0
 10  8  1  0
 11  9  2  0
 11 13  1  0
 12  8  2  0
 13 10  2  0
 14 23  1  0
 15 20  1  0
 16 17  1  0
 16 15  1  0
 18 17  1  0
 18 29  1  0
 18 19  1  0
 20 14  1  0
 20 19  1  0
 21 14  2  0
 22 12  1  0
 22 24  2  0
 23 22  1  0
 25 23  1  0
 26 27  2  0
 27 46  1  0
 28 27  1  0
 28 31  1  0
 29 30  1  0
 29 26  1  0
 30 28  2  0
 31 32  1  0
 32 33  2  0
 34 37  1  0
 34 33  1  0
 35 34  2  0
 36 35  1  0
 36 31  2  0
 37 38  1  0
 38 39  1  0
 39 40  2  0
 41 40  1  0
 41 45  1  0
 42 41  2  0
 43 38  2  0
 43 42  1  0
 44 43  1  0
 46 47  1  0
 47 50  1  0
 47 49  1  0
 48 46  2  0
 51 52  1  0
 51 26  1  0
 53 51  1  0
 55 66  2  0
 56 54  1  0
 56 61  1  0
 57 65  1  0
 57 67  1  0
 58 64  1  0
 58 60  1  0
 59 65  1  0
 60 59  1  0
 61 60  2  0
 62 63  1  0
 62 56  2  0
 63 58  2  0
 64 57  1  0
 65 55  1  0
 67 69  2  0
 68 67  1  0
 70 68  1  0
 71 80  2  0
 71 76  1  0
 72 68  1  0
 72 76  1  0
 73 72  1  0
 74 75  1  0
 74 73  1  0
 75 71  1  0
 76 77  2  0
 77 78  1  0
 79 78  2  0
 80 79  1  0
 81 55  1  0
 81 82  1  0
 81 91  1  0
 82 85  1  0
 83 87  1  0
 83 82  1  0
 84 83  2  0
 87 86  1  0
 89 87  1  0
 89 90  1  0
 89 88  1  0
 91 94  1  1
 91 92  1  0
 93 91  1  0
M  ISO  4   4 101  14 100  23 100  54 101
M  END
>  <TORSDO>  (43) 
F 17

>  <SCORE>  (43) 
-15.194

>  <name>  (43) 
42

>  <ligand_id>  (43) 
42

>  <original_smiles>  (43) 
[H]C([H])=C1C([H])([H])C(=C([H])Oc2c([H])c([H])c3c(c2[H])C([H])([H])N(C(=O)C([H])(N([H])C(=O)C([H])(N([H])C([H])([H])[H])C([H])([H])[H])C(C([H])([H])[H])(C([H])([H])[H])C([H])([H])[H])C([H])(C(=O)N([H])C2([H])c4c([H])c([H])c([H])c([H])c4C([H])([H])C([H])([H])C2([H])[H])C3([H])[H])N(c2c([H])c([H])c(C(=O)N([H])C(=O)N3C([H])([H])C([H])([H])C([H])([H])C([H])(n4nc(-c5c([H])c([H])c(Oc6c([H])c([H])c(F)c([H])c6F)c([H])c5[H])c(C(=O)N([H])[H])c4N([H])[H])C3([H])[H])c([H])c2[H])C1([H])[H]

>  <smiles>  (43) 
[H]C([H])=C1C([H])([H])C(=C([H])Oc2c([H])c([H])c3c(c2[H])C([H])([H])N(C(=O)C([H])(N([H])C(=O)C([H])(N([H])C([H])([H])[H])C([H])([H])[H])C(C([H])([H])[H])(C([H])([H])[H])C([H])([H])[H])C([H])(C(=O)N([H])C2([H])c4c([H])c([H])c([H])c([H])c4C([H])([H])C([H])([H])C2([H])[H])C3([H])[H])N(c2c([H])c([H])c(C(=O)N([H])C(=O)N3C([H])([H])C([H])([H])C([H])([H])C([H])(n4nc(-c5c([H])c([H])c(Oc6c([H])c([H])c(F)c([H])c6F)c([H])c5[H])c(C(=O)N([H])[H])c4N([H])[H])C3([H])[H])c([H])c2[H])C1([H])[H]

$$$$
43:0:0
     RDKit          3D

 91100  0  0  1  0  0  0  0  0999 V2000
  -28.5110  -23.7990   20.4680 C   0  0  0  0  0  0  0  0  0  0  0  0
  -28.0130  -22.5840   21.1040 C   0  0  0  0  0  0  0  0  0  0  0  0
  -28.0210  -25.0950   20.6360 C   0  0  0  0  0  3  0  0  0  0  0  0
  -29.5720  -22.9310   19.7250 C   0  0  0  0  0  2  0  0  0  0  0  0
  -28.9690  -21.7740   20.4560 N   0  0  0  0  0  0  0  0  0  0  0  0
  -27.0990  -22.4150   21.8830 O   0  0  0  0  0  0  0  0  0  0  0  0
  -28.5080  -19.3680   21.0940 C   0  0  0  0  0  3  0  0  0  0  0  0
  -30.3780  -19.6550   19.7010 C   0  0  0  0  0  3  0  0  0  0  0  0
  -28.7190  -17.9550   21.1100 C   0  0  0  0  0  3  0  0  0  0  0  0
  -30.6160  -18.2250   19.7090 C   0  0  0  0  0  3  0  0  0  0  0  0
  -29.3070  -20.3190   20.3910 C   0  0  0  0  0  0  0  0  0  0  0  0
  -29.7800  -17.3120   20.4200 C   0  0  0  0  0  0  0  0  0  0  0  0
  -30.6570  -14.8130   20.0010 C   0  0  0  0  0  0  0  0  0  0  0  0
  -30.4620  -12.5560   18.9300 C   0  0  0  0  0  2  0  0  0  0  0  0
  -29.4400  -12.6530   17.7730 C   0  0  0  0  0  2  0  0  0  0  0  0
  -27.9980  -12.4580   18.2880 C   0  0  0  0  0  2  0  0  0  0  0  0
  -27.7000  -13.3050   19.5530 C   0  0  0  0  0  3  0  0  0  0  0  0
  -28.8270  -13.1590   20.6010 C   0  0  0  0  0  2  0  0  0  0  0  0
  -30.0860  -13.5580   19.9540 N   0  0  0  0  0  0  0  0  0  0  0  0
  -31.7810  -15.0070   19.5300 O   0  0  0  0  0  0  0  0  0  0  0  0
  -29.8440  -15.8270   20.4830 N   0  0  0  0  0  0  0  0  0  0  0  0
  -29.0310  -15.4240   20.9240 H   0  0  0  0  0  0  0  0  0  0  0  0
  -25.3600  -13.8760   20.4420 C   0  0  0  0  0  0  0  0  0  0  0  0
  -24.3180  -13.0920   20.8540 C   0  0  0  0  0  0  0  0  0  0  0  0
  -24.7750  -11.7420   20.7490 C   0  0  0  0  0  0  0  0  0  0  0  0
  -26.3850  -13.0050   20.1130 N   0  0  0  0  0  0  0  0  0  0  0  0
  -26.0430  -11.7140   20.3570 N   0  0  0  0  0  0  0  0  0  0  0  0
  -24.0600  -10.4730   20.9440 C   0  0  0  0  0  0  0  0  0  0  0  0
  -24.5080   -9.5080   21.8710 C   0  0  0  0  0  3  0  0  0  0  0  0
  -23.7920   -8.3040   22.0530 C   0  0  0  0  0  3  0  0  0  0  0  0
  -22.6140   -8.0580   21.3070 C   0  0  0  0  0  0  0  0  0  0  0  0
  -22.1860   -9.0140   20.3690 C   0  0  0  0  0  3  0  0  0  0  0  0
  -22.9020  -10.2080   20.1850 C   0  0  0  0  0  3  0  0  0  0  0  0
  -21.8700   -6.9080   21.3990 O   0  0  0  0  0  0  0  0  0  0  0  0
  -21.7770   -6.2020   22.5720 C   0  0  0  0  0  0  0  0  0  0  0  0
  -21.2940   -6.7920   23.7600 C   0  0  0  0  0  3  0  0  0  0  0  0
  -21.1510   -6.0110   24.9260 C   0  0  0  0  0  3  0  0  0  0  0  0
  -21.4780   -4.6430   24.9030 C   0  0  0  0  0  0  0  0  0  0  0  0
  -21.9540   -4.0530   23.7180 C   0  0  0  0  0  3  0  0  0  0  0  0
  -22.1000   -4.8290   22.5560 C   0  0  0  0  0  0  0  0  0  0  0  0
  -22.5390   -4.2510   21.4120 F   0  0  0  0  0  0  0  0  0  0  0  0
  -21.3330   -3.8910   26.0190 F   0  0  0  0  0  0  0  0  0  0  0  0
  -22.9410  -13.5590   21.2300 C   0  0  0  0  0  0  0  0  0  0  0  0
  -22.2700  -12.8360   22.1200 N   0  0  0  0  0  0  0  0  0  0  0  0
  -22.4720  -14.5980   20.7700 O   0  0  0  0  0  0  0  0  0  0  0  0
  -22.6640  -11.9940   22.5130 H   0  0  0  0  0  0  0  0  0  0  0  0
  -21.3490  -13.1290   22.4130 H   0  0  0  0  0  0  0  0  0  0  0  0
  -25.5150  -15.2530   20.2980 N   0  0  0  0  0  0  0  0  0  0  0  0
  -24.7520  -15.8990   20.4690 H   0  0  0  0  0  0  0  0  0  0  0  0
  -26.3280  -15.7000   19.8940 H   0  0  0  0  0  0  0  0  0  0  0  0
  -28.3410  -26.3870   20.1200 O   0  0  0  0  0  0  0  0  0  0  0  0
  -24.6780  -31.8800   23.1900 C   0  0  0  0  0  0  0  0  0  0  0  0
  -27.2810  -27.3220   20.0840 C   0  0  0  0  0  0  0  0  0  0  0  0
  -23.4700  -30.4900   21.5480 C   0  0  0  0  0  3  0  0  0  0  0  0
  -24.9190  -28.9560   20.0960 C   0  0  0  0  0  0  0  0  0  0  0  0
  -26.0100  -30.8090   21.3540 C   0  0  0  0  0  2  0  0  0  0  0  0
  -26.0920  -29.4330   20.6940 C   0  0  0  0  0  0  0  0  0  0  0  0
  -27.2790  -28.6280   20.6800 C   0  0  0  0  0  3  0  0  0  0  0  0
  -26.0860  -26.9160   19.4500 C   0  0  0  0  0  3  0  0  0  0  0  0
  -24.9200  -27.7040   19.4620 C   0  0  0  0  0  3  0  0  0  0  0  0
  -23.6790  -29.8280   20.1610 C   0  0  0  0  0  2  0  0  0  0  0  0
  -24.7390  -31.0780   22.0870 N   0  0  0  0  0  0  0  0  0  0  0  0
  -23.5970  -32.1500   23.7330 O   0  0  0  0  0  0  0  0  0  0  0  0
  -22.8140  -29.4650   22.5060 C   0  0  0  0  0  0  0  0  0  0  0  0
  -21.4870  -29.2850   22.3870 N   0  0  0  0  0  0  0  0  0  0  0  0
  -23.4990  -28.8360   23.3160 O   0  0  0  0  0  0  0  0  0  0  0  0
  -20.9920  -29.8440   21.7070 H   0  0  0  0  0  0  0  0  0  0  0  0
  -18.1180  -28.0670   22.9030 C   0  0  0  0  0  0  0  0  0  0  0  0
  -20.6770  -28.3380   23.1560 C   0  0  0  0  0  3  0  0  0  0  0  0
  -20.7820  -26.9110   22.5720 C   0  0  0  0  0  2  0  0  0  0  0  0
  -19.6740  -26.5890   21.5620 C   0  0  0  0  0  2  0  0  0  0  0  0
  -18.2970  -26.7230   22.2160 C   0  0  0  0  0  2  0  0  0  0  0  0
  -19.2360  -28.8320   23.3300 C   0  0  0  0  0  0  0  0  0  0  0  0
  -19.0150  -30.0900   23.9330 C   0  0  0  0  0  3  0  0  0  0  0  0
  -17.7090  -30.5830   24.1110 C   0  0  0  0  0  3  0  0  0  0  0  0
  -16.6050  -29.8150   23.6990 C   0  0  0  0  0  3  0  0  0  0  0  0
  -16.8110  -28.5590   23.1000 C   0  0  0  0  0  3  0  0  0  0  0  0
  -25.9610  -32.5140   23.8090 C   0  0  0  0  0  3  0  0  0  0  0  0
  -25.6480  -33.9090   24.1520 N   0  0  0  0  0  0  0  0  0  0  0  0
  -25.9720  -34.9700   23.4020 C   0  0  0  0  0  0  0  0  0  0  0  0
  -26.6350  -34.8790   22.3660 O   0  0  0  0  0  0  0  0  0  0  0  0
  -25.0570  -34.0530   24.9580 H   0  0  0  0  0  0  0  0  0  0  0  0
  -24.2380  -36.7640   23.0750 C   0  0  0  0  0  1  0  0  0  0  0  0
  -25.4850  -36.3530   23.8750 C   0  0  0  0  0  3  0  0  0  0  0  0
  -27.6210  -37.2360   24.7050 C   0  0  0  0  0  1  0  0  0  0  0  0
  -26.5140  -37.4100   23.7680 N   0  0  0  0  0  0  0  0  0  0  0  0
  -26.1070  -38.3280   23.9230 H   0  0  0  0  0  0  0  0  0  0  0  0
  -26.4880  -31.7360   25.0770 C   0  0  1  0  0  0  0  0  0  0  0  0
  -25.4020  -31.4890   26.1510 C   0  0  0  0  0  1  0  0  0  0  0  0
  -27.0730  -30.3620   24.6750 C   0  0  0  0  0  1  0  0  0  0  0  0
  -27.6400  -32.5300   25.7370 C   0  0  0  0  0  1  0  0  0  0  0  0
  1  3  2  0
  1  2  1  0
  2  6  2  0
  4  5  1  0
  4  1  1  0
  5  2  1  0
  7  9  1  0
  8 10  2  0
  8 11  1  0
 10 12  1  0
 11  5  1  0
 11  7  2  0
 12 21  1  0
 12  9  2  0
 13 21  1  0
 14 19  1  0
 15 16  1  0
 15 14  1  0
 17 16  1  0
 17 26  1  0
 17 18  1  0
 19 13  1  0
 19 18  1  0
 20 13  2  0
 21 22  1  0
 23 24  2  0
 24 43  1  0
 25 24  1  0
 25 28  1  0
 26 27  1  0
 26 23  1  0
 27 25  2  0
 28 29  1  0
 29 30  2  0
 31 34  1  0
 31 30  1  0
 32 31  2  0
 33 32  1  0
 33 28  2  0
 34 35  1  0
 35 36  1  0
 36 37  2  0
 38 37  1  0
 38 42  1  0
 39 38  2  0
 40 35  2  0
 40 39  1  0
 41 40  1  0
 43 44  1  0
 44 47  1  0
 44 46  1  0
 45 43  2  0
 48 23  1  0
 48 49  1  0
 50 48  1  0
 51  3  1  0
 52 63  2  0
 53 51  1  0
 53 58  1  0
 54 62  1  0
 54 64  1  0
 55 61  1  0
 55 57  1  0
 56 62  1  0
 57 56  1  0
 58 57  2  0
 59 60  1  0
 59 53  2  0
 60 55  2  0
 61 54  1  0
 62 52  1  0
 64 66  2  0
 65 64  1  0
 67 65  1  0
 68 77  2  0
 68 73  1  0
 69 65  1  0
 69 73  1  0
 70 69  1  0
 71 72  1  0
 71 70  1  0
 72 68  1  0
 73 74  2  0
 74 75  1  0
 76 75  2  0
 77 76  1  0
 78 52  1  0
 78 79  1  0
 78 88  1  0
 79 82  1  0
 80 84  1  0
 80 79  1  0
 81 80  2  0
 84 83  1  0
 86 84  1  0
 86 87  1  0
 86 85  1  0
 88 91  1  1
 88 89  1  0
 90 88  1  0
M  ISO  4   3 101  13 100  21 100  51 101
M  END
>  <TORSDO>  (44) 
F 17

>  <SCORE>  (44) 
-13.947

>  <name>  (44) 
43

>  <ligand_id>  (44) 
43

>  <original_smiles>  (44) 
[H]C(Oc1c([H])c([H])c2c(c1[H])C([H])([H])N(C(=O)C([H])(N([H])C(=O)C([H])(N([H])C([H])([H])[H])C([H])([H])[H])C(C([H])([H])[H])(C([H])([H])[H])C([H])([H])[H])C([H])(C(=O)N([H])C1([H])c3c([H])c([H])c([H])c([H])c3C([H])([H])C([H])([H])C1([H])[H])C2([H])[H])=C1C(=O)N(c2c([H])c([H])c(N([H])C(=O)N3C([H])([H])C([H])([H])C([H])([H])C([H])(n4nc(-c5c([H])c([H])c(Oc6c([H])c([H])c(F)c([H])c6F)c([H])c5[H])c(C(=O)N([H])[H])c4N([H])[H])C3([H])[H])c([H])c2[H])C1([H])[H]

>  <smiles>  (44) 
[H]C(Oc1c([H])c([H])c2c(c1[H])C([H])([H])N(C(=O)C([H])(N([H])C(=O)C([H])(N([H])C([H])([H])[H])C([H])([H])[H])C(C([H])([H])[H])(C([H])([H])[H])C([H])([H])[H])C([H])(C(=O)N([H])C1([H])c3c([H])c([H])c([H])c([H])c3C([H])([H])C([H])([H])C1([H])[H])C2([H])[H])=C1C(=O)N(c2c([H])c([H])c(N([H])C(=O)N3C([H])([H])C([H])([H])C([H])([H])C([H])(n4nc(-c5c([H])c([H])c(Oc6c([H])c([H])c(F)c([H])c6F)c([H])c5[H])c(C(=O)N([H])[H])c4N([H])[H])C3([H])[H])c([H])c2[H])C1([H])[H]

$$$$
44:0:0
     RDKit          3D

 91 99  0  0  1  0  0  0  0  0999 V2000
  -29.9250  -21.9810   20.9860 C   0  0  0  0  0  2  0  0  0  0  0  0
  -28.8780  -23.1190   20.9690 C   0  0  0  0  0  3  0  0  0  0  0  0
  -29.0750  -24.3590   20.6360 N   0  0  0  0  0  0  0  0  0  0  0  0
  -28.0330  -25.3070   20.8620 C   0  0  0  0  0  0  0  0  0  0  0  0
  -27.0210  -25.0760   21.5350 O   0  0  0  0  0  0  0  0  0  0  0  0
  -28.2600  -26.5490   20.2260 O   0  0  0  0  0  0  0  0  0  0  0  0
  -24.5220  -31.9010   23.1840 C   0  0  0  0  0  0  0  0  0  0  0  0
  -27.1740  -27.4190   20.1300 C   0  0  0  0  0  0  0  0  0  0  0  0
  -23.3300  -30.5010   21.5340 C   0  0  0  0  0  3  0  0  0  0  0  0
  -24.7980  -28.9780   20.1010 C   0  0  0  0  0  0  0  0  0  0  0  0
  -25.8620  -30.8520   21.3570 C   0  0  0  0  0  2  0  0  0  0  0  0
  -25.9550  -29.4810   20.7100 C   0  0  0  0  0  0  0  0  0  0  0  0
  -27.1490  -28.7100   20.7260 C   0  0  0  0  0  3  0  0  0  0  0  0
  -26.0090  -26.9710   19.4660 C   0  0  0  0  0  3  0  0  0  0  0  0
  -24.8240  -27.7250   19.4690 C   0  0  0  0  0  3  0  0  0  0  0  0
  -23.5520  -29.8330   20.1510 C   0  0  0  0  0  2  0  0  0  0  0  0
  -24.5900  -31.1010   22.0830 N   0  0  0  0  0  0  0  0  0  0  0  0
  -23.4360  -32.1690   23.7180 O   0  0  0  0  0  0  0  0  0  0  0  0
  -22.6750  -29.4750   22.4870 C   0  0  0  0  0  0  0  0  0  0  0  0
  -21.3500  -29.2950   22.3600 N   0  0  0  0  0  0  0  0  0  0  0  0
  -23.3570  -28.8440   23.2990 O   0  0  0  0  0  0  0  0  0  0  0  0
  -20.8600  -29.8530   21.6750 H   0  0  0  0  0  0  0  0  0  0  0  0
  -17.9720  -28.1060   22.8640 C   0  0  0  0  0  0  0  0  0  0  0  0
  -20.5320  -28.3530   23.1280 C   0  0  0  0  0  3  0  0  0  0  0  0
  -20.6270  -26.9260   22.5410 C   0  0  0  0  0  2  0  0  0  0  0  0
  -19.5210  -26.6150   21.5280 C   0  0  0  0  0  2  0  0  0  0  0  0
  -18.1420  -26.7600   22.1770 C   0  0  0  0  0  2  0  0  0  0  0  0
  -19.0940  -28.8600   23.2960 C   0  0  0  0  0  0  0  0  0  0  0  0
  -18.8820  -30.1200   23.8970 C   0  0  0  0  0  3  0  0  0  0  0  0
  -17.5800  -30.6260   24.0700 C   0  0  0  0  0  3  0  0  0  0  0  0
  -16.4720  -29.8680   23.6550 C   0  0  0  0  0  3  0  0  0  0  0  0
  -16.6690  -28.6090   23.0570 C   0  0  0  0  0  3  0  0  0  0  0  0
  -25.8010  -32.5380   23.8110 C   0  0  0  0  0  3  0  0  0  0  0  0
  -26.3230  -31.7580   25.0810 C   0  0  1  0  0  0  0  0  0  0  0  0
  -25.2320  -31.5050   26.1470 C   0  0  0  0  0  1  0  0  0  0  0  0
  -26.9140  -30.3880   24.6770 C   0  0  0  0  0  1  0  0  0  0  0  0
  -27.4700  -32.5540   25.7470 C   0  0  0  0  0  1  0  0  0  0  0  0
  -25.4820  -33.9300   24.1500 N   0  0  0  0  0  0  0  0  0  0  0  0
  -25.8120  -34.9900   23.4010 C   0  0  0  0  0  0  0  0  0  0  0  0
  -26.4880  -34.8990   22.3720 O   0  0  0  0  0  0  0  0  0  0  0  0
  -24.8830  -34.0740   24.9510 H   0  0  0  0  0  0  0  0  0  0  0  0
  -24.0780  -36.7770   23.0460 C   0  0  0  0  0  1  0  0  0  0  0  0
  -25.3130  -36.3720   23.8660 C   0  0  0  0  0  3  0  0  0  0  0  0
  -27.4370  -37.2590   24.7210 C   0  0  0  0  0  1  0  0  0  0  0  0
  -26.3410  -37.4320   23.7710 N   0  0  0  0  0  0  0  0  0  0  0  0
  -25.9300  -38.3480   23.9230 H   0  0  0  0  0  0  0  0  0  0  0  0
  -29.3620  -20.6400   20.8570 O   0  0  0  0  0  0  0  0  0  0  0  0
  -32.2920  -18.4320   21.6530 C   0  0  0  0  0  3  0  0  0  0  0  0
  -31.7700  -17.1610   21.3580 C   0  0  0  0  0  3  0  0  0  0  0  0
  -31.5120  -19.5910   21.4820 C   0  0  0  0  0  3  0  0  0  0  0  0
  -29.6540  -18.2000   20.7500 C   0  0  0  0  0  3  0  0  0  0  0  0
  -30.4460  -17.0130   20.8840 C   0  0  0  0  0  0  0  0  0  0  0  0
  -30.1740  -19.5090   21.0250 C   0  0  0  0  0  0  0  0  0  0  0  0
  -30.5830  -14.6140   20.1020 C   0  0  0  0  0  0  0  0  0  0  0  0
  -30.2050  -12.4620   18.9350 C   0  0  0  0  0  2  0  0  0  0  0  0
  -29.2010  -12.6660   17.7830 C   0  0  0  0  0  2  0  0  0  0  0  0
  -27.7550  -12.5100   18.2910 C   0  0  0  0  0  2  0  0  0  0  0  0
  -27.4810  -13.3290   19.5810 C   0  0  0  0  0  3  0  0  0  0  0  0
  -28.5990  -13.1290   20.6280 C   0  0  0  0  0  2  0  0  0  0  0  0
  -29.8810  -13.4480   19.9820 N   0  0  0  0  0  0  0  0  0  0  0  0
  -31.7060  -14.7380   19.6070 O   0  0  0  0  0  0  0  0  0  0  0  0
  -29.9170  -15.6930   20.6030 N   0  0  0  0  0  0  0  0  0  0  0  0
  -28.9310  -15.5540   20.7680 H   0  0  0  0  0  0  0  0  0  0  0  0
  -25.1280  -13.9120   20.4320 C   0  0  0  0  0  0  0  0  0  0  0  0
  -24.0840  -13.1300   20.8460 C   0  0  0  0  0  0  0  0  0  0  0  0
  -24.5460  -11.7810   20.7720 C   0  0  0  0  0  0  0  0  0  0  0  0
  -26.1600  -13.0380   20.1310 N   0  0  0  0  0  0  0  0  0  0  0  0
  -25.8190  -11.7500   20.3960 N   0  0  0  0  0  0  0  0  0  0  0  0
  -23.8340  -10.5130   20.9810 C   0  0  0  0  0  0  0  0  0  0  0  0
  -24.3040   -9.5420   21.8920 C   0  0  0  0  0  3  0  0  0  0  0  0
  -23.5910   -8.3400   22.0900 C   0  0  0  0  0  3  0  0  0  0  0  0
  -22.3920   -8.1020   21.3770 C   0  0  0  0  0  0  0  0  0  0  0  0
  -21.9400   -9.0620   20.4540 C   0  0  0  0  0  3  0  0  0  0  0  0
  -22.6540  -10.2550   20.2540 C   0  0  0  0  0  3  0  0  0  0  0  0
  -21.6450   -6.9530   21.4850 O   0  0  0  0  0  0  0  0  0  0  0  0
  -21.6340   -6.2080   22.6380 C   0  0  0  0  0  0  0  0  0  0  0  0
  -21.2470   -6.7620   23.8790 C   0  0  0  0  0  3  0  0  0  0  0  0
  -21.1810   -5.9450   25.0250 C   0  0  0  0  0  3  0  0  0  0  0  0
  -21.4910   -4.5750   24.9320 C   0  0  0  0  0  0  0  0  0  0  0  0
  -21.8720   -4.0220   23.6970 C   0  0  0  0  0  3  0  0  0  0  0  0
  -21.9400   -4.8350   22.5520 C   0  0  0  0  0  0  0  0  0  0  0  0
  -22.2860   -4.2930   21.3610 F   0  0  0  0  0  0  0  0  0  0  0  0
  -21.4210   -3.7870   26.0300 F   0  0  0  0  0  0  0  0  0  0  0  0
  -22.7020  -13.6000   21.1980 C   0  0  0  0  0  0  0  0  0  0  0  0
  -22.0190  -12.8870   22.0860 N   0  0  0  0  0  0  0  0  0  0  0  0
  -22.2380  -14.6330   20.7180 O   0  0  0  0  0  0  0  0  0  0  0  0
  -22.4090  -12.0510   22.4960 H   0  0  0  0  0  0  0  0  0  0  0  0
  -21.0940  -13.1830   22.3620 H   0  0  0  0  0  0  0  0  0  0  0  0
  -25.2810  -15.2860   20.2670 N   0  0  0  0  0  0  0  0  0  0  0  0
  -24.5180  -15.9360   20.4230 H   0  0  0  0  0  0  0  0  0  0  0  0
  -26.1070  -15.7320   19.8900 H   0  0  0  0  0  0  0  0  0  0  0  0
  2  1  1  0
  3  4  1  0
  3  2  2  0
  4  5  2  0
  6  4  1  0
  7 18  2  0
  8  6  1  0
  8 13  1  0
  9 17  1  0
  9 19  1  0
 10 16  1  0
 10 12  1  0
 11 17  1  0
 12 13  2  0
 12 11  1  0
 14 15  1  0
 14  8  2  0
 15 10  2  0
 16  9  1  0
 17  7  1  0
 19 21  2  0
 20 19  1  0
 22 20  1  0
 23 32  2  0
 23 28  1  0
 24 20  1  0
 24 28  1  0
 25 24  1  0
 26 27  1  0
 26 25  1  0
 27 23  1  0
 28 29  2  0
 29 30  1  0
 31 30  2  0
 32 31  1  0
 33  7  1  0
 33 38  1  0
 33 34  1  0
 34 37  1  1
 34 35  1  0
 36 34  1  0
 38 41  1  0
 39 43  1  0
 39 38  1  0
 40 39  2  0
 43 42  1  0
 45 43  1  0
 45 46  1  0
 45 44  1  0
 47  1  1  0
 47 53  1  0
 49 48  2  0
 50 48  1  0
 51 52  2  0
 51 53  1  0
 52 49  1  0
 53 50  2  0
 54 62  1  0
 55 60  1  0
 56 57  1  0
 56 55  1  0
 58 57  1  0
 58 67  1  0
 58 59  1  0
 60 54  1  0
 60 59  1  0
 61 54  2  0
 62 63  1  0
 62 52  1  0
 64 65  2  0
 65 84  1  0
 66 65  1  0
 66 69  1  0
 67 68  1  0
 67 64  1  0
 68 66  2  0
 69 70  1  0
 70 71  2  0
 72 75  1  0
 72 71  1  0
 73 72  2  0
 74 73  1  0
 74 69  2  0
 75 76  1  0
 76 77  1  0
 77 78  2  0
 79 78  1  0
 79 83  1  0
 80 79  2  0
 81 76  2  0
 81 80  1  0
 82 81  1  0
 84 85  1  0
 85 88  1  0
 85 87  1  0
 86 84  2  0
 89 90  1  0
 89 64  1  0
 91 89  1  0
M  ISO  4   4 101   6 101  54 100  62 100
M  END
>  <TORSDO>  (45) 
F 20

>  <SCORE>  (45) 
-13.596

>  <name>  (45) 
44

>  <ligand_id>  (45) 
44

>  <original_smiles>  (45) 
[H]C(=NC(=O)Oc1c([H])c([H])c2c(c1[H])C([H])([H])N(C(=O)C([H])(N([H])C(=O)C([H])(N([H])C([H])([H])[H])C([H])([H])[H])C(C([H])([H])[H])(C([H])([H])[H])C([H])([H])[H])C([H])(C(=O)N([H])C1([H])c3c([H])c([H])c([H])c([H])c3C([H])([H])C([H])([H])C1([H])[H])C2([H])[H])C([H])([H])Oc1c([H])c([H])c([H])c(N([H])C(=O)N2C([H])([H])C([H])([H])C([H])([H])C([H])(n3nc(-c4c([H])c([H])c(Oc5c([H])c([H])c(F)c([H])c5F)c([H])c4[H])c(C(=O)N([H])[H])c3N([H])[H])C2([H])[H])c1[H]

>  <smiles>  (45) 
[H]C(=NC(=O)Oc1c([H])c([H])c2c(c1[H])C([H])([H])N(C(=O)C([H])(N([H])C(=O)C([H])(N([H])C([H])([H])[H])C([H])([H])[H])C(C([H])([H])[H])(C([H])([H])[H])C([H])([H])[H])C([H])(C(=O)N([H])C1([H])c3c([H])c([H])c([H])c([H])c3C([H])([H])C([H])([H])C1([H])[H])C2([H])[H])C([H])([H])Oc1c([H])c([H])c([H])c(N([H])C(=O)N2C([H])([H])C([H])([H])C([H])([H])C([H])(n3nc(-c4c([H])c([H])c(Oc5c([H])c([H])c(F)c([H])c5F)c([H])c4[H])c(C(=O)N([H])[H])c3N([H])[H])C2([H])[H])c1[H]

$$$$
45:0:0
     RDKit          3D

 92101  0  0  1  0  0  0  0  0999 V2000
  -28.1190  -21.8900   20.4400 C   0  0  0  0  0  3  0  0  0  0  0  0
  -30.1640  -23.5750   19.4350 C   0  0  0  0  0  3  0  0  0  0  0  0
  -29.3050  -21.2620   20.2250 C   0  0  0  0  0  0  0  0  0  0  0  0
  -28.9790  -24.1850   19.6410 C   0  0  0  0  0  0  0  0  0  0  0  0
  -30.4830  -22.1090   19.7310 C   0  0  0  0  0  3  0  0  0  0  0  0
  -27.8150  -23.3860   20.2240 C   0  0  0  0  0  3  0  0  0  0  0  0
  -28.4440  -18.8900   20.7770 C   0  0  0  0  0  3  0  0  0  0  0  0
  -30.7820  -19.1730   20.2400 C   0  0  0  0  0  3  0  0  0  0  0  0
  -28.6520  -17.4930   20.9040 C   0  0  0  0  0  3  0  0  0  0  0  0
  -30.9900  -17.7740   20.3600 C   0  0  0  0  0  3  0  0  0  0  0  0
  -29.5030  -19.7690   20.4260 C   0  0  0  0  0  0  0  0  0  0  0  0
  -29.9190  -16.9040   20.6750 C   0  0  0  0  0  0  0  0  0  0  0  0
  -30.7310  -14.5680   20.0700 C   0  0  0  0  0  0  0  0  0  0  0  0
  -30.4320  -12.4300   18.8500 C   0  0  0  0  0  2  0  0  0  0  0  0
  -29.4060  -12.6600   17.7170 C   0  0  0  0  0  2  0  0  0  0  0  0
  -27.9620  -12.4940   18.2330 C   0  0  0  0  0  2  0  0  0  0  0  0
  -27.7030  -13.2780   19.5470 C   0  0  0  0  0  3  0  0  0  0  0  0
  -28.8240  -12.9950   20.5720 C   0  0  0  0  0  2  0  0  0  0  0  0
  -30.1100  -13.3600   19.9470 N   0  0  0  0  0  0  0  0  0  0  0  0
  -31.8000  -14.8220   19.5050 O   0  0  0  0  0  0  0  0  0  0  0  0
  -30.0330  -15.4750   20.7990 N   0  0  0  0  0  0  0  0  0  0  0  0
  -29.2590  -15.0420   21.2820 H   0  0  0  0  0  0  0  0  0  0  0  0
  -25.3570  -13.8670   20.4240 C   0  0  0  0  0  0  0  0  0  0  0  0
  -24.3130  -13.0850   20.8400 C   0  0  0  0  0  0  0  0  0  0  0  0
  -24.7640  -11.7330   20.7320 C   0  0  0  0  0  0  0  0  0  0  0  0
  -26.3810  -12.9910   20.0970 N   0  0  0  0  0  0  0  0  0  0  0  0
  -26.0300  -11.7010   20.3350 N   0  0  0  0  0  0  0  0  0  0  0  0
  -24.0470  -10.4670   20.9250 C   0  0  0  0  0  0  0  0  0  0  0  0
  -24.4780   -9.5110   21.8710 C   0  0  0  0  0  3  0  0  0  0  0  0
  -23.7620   -8.3080   22.0510 C   0  0  0  0  0  3  0  0  0  0  0  0
  -22.6010   -8.0520   21.2830 C   0  0  0  0  0  0  0  0  0  0  0  0
  -22.1880   -8.9970   20.3250 C   0  0  0  0  0  3  0  0  0  0  0  0
  -22.9060  -10.1910   20.1450 C   0  0  0  0  0  3  0  0  0  0  0  0
  -21.8590   -6.8990   21.3690 O   0  0  0  0  0  0  0  0  0  0  0  0
  -21.7220   -6.2190   22.5520 C   0  0  0  0  0  0  0  0  0  0  0  0
  -21.1510   -6.8180   23.6950 C   0  0  0  0  0  3  0  0  0  0  0  0
  -20.9650   -6.0610   24.8690 C   0  0  0  0  0  3  0  0  0  0  0  0
  -21.3410   -4.7050   24.9000 C   0  0  0  0  0  0  0  0  0  0  0  0
  -21.9060   -4.1040   23.7610 C   0  0  0  0  0  3  0  0  0  0  0  0
  -22.0920   -4.8590   22.5900 C   0  0  0  0  0  0  0  0  0  0  0  0
  -22.6180   -4.2690   21.4880 F   0  0  0  0  0  0  0  0  0  0  0  0
  -21.1550   -3.9750   26.0260 F   0  0  0  0  0  0  0  0  0  0  0  0
  -22.9390  -13.5560   21.2240 C   0  0  0  0  0  0  0  0  0  0  0  0
  -22.2660  -12.8320   22.1100 N   0  0  0  0  0  0  0  0  0  0  0  0
  -22.4730  -14.6020   20.7720 O   0  0  0  0  0  0  0  0  0  0  0  0
  -22.6550  -11.9850   22.5000 H   0  0  0  0  0  0  0  0  0  0  0  0
  -21.3470  -13.1300   22.4100 H   0  0  0  0  0  0  0  0  0  0  0  0
  -25.5140  -15.2410   20.2750 N   0  0  0  0  0  0  0  0  0  0  0  0
  -24.7370  -15.8830   20.3960 H   0  0  0  0  0  0  0  0  0  0  0  0
  -26.3150  -15.6720   19.8330 H   0  0  0  0  0  0  0  0  0  0  0  0
  -28.7070  -25.6190   19.1120 C   0  0  0  0  0  2  0  0  0  0  0  0
  -28.4530  -26.6550   20.0970 O   0  0  0  0  0  0  0  0  0  0  0  0
  -24.6260  -31.8750   23.1600 C   0  0  0  0  0  0  0  0  0  0  0  0
  -27.2810  -27.4070   20.0560 C   0  0  0  0  0  0  0  0  0  0  0  0
  -23.4280  -30.4780   21.5100 C   0  0  0  0  0  3  0  0  0  0  0  0
  -24.8870  -28.9490   20.0750 C   0  0  0  0  0  0  0  0  0  0  0  0
  -25.9600  -30.8270   21.3250 C   0  0  0  0  0  2  0  0  0  0  0  0
  -26.0460  -29.4570   20.6730 C   0  0  0  0  0  0  0  0  0  0  0  0
  -27.2410  -28.6910   20.6640 C   0  0  0  0  0  3  0  0  0  0  0  0
  -26.0890  -26.9200   19.4710 C   0  0  0  0  0  3  0  0  0  0  0  0
  -24.9050  -27.6800   19.4740 C   0  0  0  0  0  3  0  0  0  0  0  0
  -23.6420  -29.8080   20.1270 C   0  0  0  0  0  2  0  0  0  0  0  0
  -24.6900  -31.0760   22.0550 N   0  0  0  0  0  0  0  0  0  0  0  0
  -23.5420  -32.1420   23.6960 O   0  0  0  0  0  0  0  0  0  0  0  0
  -22.7760  -29.4510   22.4620 C   0  0  0  0  0  0  0  0  0  0  0  0
  -21.4550  -29.2530   22.3170 N   0  0  0  0  0  0  0  0  0  0  0  0
  -23.4540  -28.8340   23.2880 O   0  0  0  0  0  0  0  0  0  0  0  0
  -20.9680  -29.8050   21.6240 H   0  0  0  0  0  0  0  0  0  0  0  0
  -18.0930  -28.0000   22.7550 C   0  0  0  0  0  0  0  0  0  0  0  0
  -20.6400  -28.3060   23.0770 C   0  0  0  0  0  3  0  0  0  0  0  0
  -20.7800  -26.8730   22.5150 C   0  0  0  0  0  2  0  0  0  0  0  0
  -19.7060  -26.5240   21.4800 C   0  0  0  0  0  2  0  0  0  0  0  0
  -18.3080  -26.6480   22.0940 C   0  0  0  0  0  2  0  0  0  0  0  0
  -19.1890  -28.7860   23.2020 C   0  0  0  0  0  0  0  0  0  0  0  0
  -18.9360  -30.0490   23.7790 C   0  0  0  0  0  3  0  0  0  0  0  0
  -17.6190  -30.5270   23.9150 C   0  0  0  0  0  3  0  0  0  0  0  0
  -16.5370  -29.7390   23.4850 C   0  0  0  0  0  3  0  0  0  0  0  0
  -16.7750  -28.4770   22.9110 C   0  0  0  0  0  3  0  0  0  0  0  0
  -25.9070  -32.5070   23.7860 C   0  0  0  0  0  3  0  0  0  0  0  0
  -25.5880  -33.8980   24.1360 N   0  0  0  0  0  0  0  0  0  0  0  0
  -25.9080  -34.9640   23.3910 C   0  0  0  0  0  0  0  0  0  0  0  0
  -26.5750  -34.8810   22.3570 O   0  0  0  0  0  0  0  0  0  0  0  0
  -24.9940  -34.0350   24.9410 H   0  0  0  0  0  0  0  0  0  0  0  0
  -24.1710  -36.7530   23.0590 C   0  0  0  0  0  1  0  0  0  0  0  0
  -25.4100  -36.3430   23.8690 C   0  0  0  0  0  3  0  0  0  0  0  0
  -27.5330  -37.2300   24.7270 C   0  0  0  0  0  1  0  0  0  0  0  0
  -26.4360  -37.4040   23.7790 N   0  0  0  0  0  0  0  0  0  0  0  0
  -26.0210  -38.3180   23.9410 H   0  0  0  0  0  0  0  0  0  0  0  0
  -26.4330  -31.7220   25.0490 C   0  0  1  0  0  0  0  0  0  0  0  0
  -25.3450  -31.4570   26.1160 C   0  0  0  0  0  1  0  0  0  0  0  0
  -27.0290  -30.3570   24.6340 C   0  0  0  0  0  1  0  0  0  0  0  0
  -27.5760  -32.5170   25.7200 C   0  0  0  0  0  1  0  0  0  0  0  0
  2  4  2  0
  2  5  1  0
  3 11  1  0
  3  1  1  0
  4  6  1  0
  5  3  2  0
  6  1  2  0
  7  9  1  0
  8 10  2  0
  8 11  1  0
 10 12  1  0
 11  7  2  0
 12 21  1  0
 12  9  2  0
 13 21  1  0
 14 19  1  0
 15 16  1  0
 15 14  1  0
 17 16  1  0
 17 26  1  0
 17 18  1  0
 19 13  1  0
 19 18  1  0
 20 13  2  0
 21 22  1  0
 23 24  2  0
 24 43  1  0
 25 24  1  0
 25 28  1  0
 26 27  1  0
 26 23  1  0
 27 25  2  0
 28 29  1  0
 29 30  2  0
 31 34  1  0
 31 30  1  0
 32 31  2  0
 33 32  1  0
 33 28  2  0
 34 35  1  0
 35 40  2  0
 35 36  1  0
 36 37  2  0
 37 38  1  0
 38 42  1  0
 39 38  2  0
 40 39  1  0
 41 40  1  0
 43 44  1  0
 44 47  1  0
 44 46  1  0
 45 43  2  0
 48 49  1  0
 48 23  1  0
 50 48  1  0
 51  4  1  0
 51 52  1  0
 53 64  2  0
 54 52  1  0
 54 59  1  0
 55 63  1  0
 55 65  1  0
 56 62  1  0
 56 58  1  0
 57 63  1  0
 58 57  1  0
 59 58  2  0
 60 61  1  0
 60 54  2  0
 61 56  2  0
 62 55  1  0
 63 53  1  0
 65 67  2  0
 66 65  1  0
 68 66  1  0
 69 78  2  0
 69 74  1  0
 70 66  1  0
 70 74  1  0
 71 70  1  0
 72 73  1  0
 72 71  1  0
 73 69  1  0
 74 75  2  0
 75 76  1  0
 77 76  2  0
 78 77  1  0
 79 53  1  0
 79 80  1  0
 79 89  1  0
 80 83  1  0
 81 85  1  0
 81 80  1  0
 82 81  2  0
 85 84  1  0
 87 85  1  0
 87 88  1  0
 87 86  1  0
 89 92  1  1
 89 90  1  0
 91 89  1  0
M  ISO  4  13 100  21 100  51 101  52 101
M  END
>  <TORSDO>  (46) 
F 18

>  <SCORE>  (46) 
-14.161

>  <name>  (46) 
45

>  <ligand_id>  (46) 
45

>  <original_smiles>  (46) 
[H]C1=C(c2c([H])c([H])c(N([H])C(=O)N3C([H])([H])C([H])([H])C([H])([H])C([H])(n4nc(-c5c([H])c([H])c(Oc6c([H])c([H])c(F)c([H])c6F)c([H])c5[H])c(C(=O)N([H])[H])c4N([H])[H])C3([H])[H])c([H])c2[H])C([H])([H])C([H])=C(C([H])([H])Oc2c([H])c([H])c3c(c2[H])C([H])([H])N(C(=O)C([H])(N([H])C(=O)C([H])(N([H])C([H])([H])[H])C([H])([H])[H])C(C([H])([H])[H])(C([H])([H])[H])C([H])([H])[H])C([H])(C(=O)N([H])C2([H])c4c([H])c([H])c([H])c([H])c4C([H])([H])C([H])([H])C2([H])[H])C3([H])[H])C1([H])[H]

>  <smiles>  (46) 
[H]C1=C(c2c([H])c([H])c(N([H])C(=O)N3C([H])([H])C([H])([H])C([H])([H])C([H])(n4nc(-c5c([H])c([H])c(Oc6c([H])c([H])c(F)c([H])c6F)c([H])c5[H])c(C(=O)N([H])[H])c4N([H])[H])C3([H])[H])c([H])c2[H])C([H])([H])C([H])=C(C([H])([H])Oc2c([H])c([H])c3c(c2[H])C([H])([H])N(C(=O)C([H])(N([H])C(=O)C([H])(N([H])C([H])([H])[H])C([H])([H])[H])C(C([H])([H])[H])(C([H])([H])[H])C([H])([H])[H])C([H])(C(=O)N([H])C2([H])c4c([H])c([H])c([H])c([H])c4C([H])([H])C([H])([H])C2([H])[H])C3([H])[H])C1([H])[H]

$$$$
46:0:0
     RDKit          3D

 92101  0  0  1  0  0  0  0  0999 V2000
  -28.5330  -23.7840   20.4570 C   0  0  0  0  0  0  0  0  0  0  0  0
  -28.0270  -22.5530   21.0520 C   0  0  0  0  0  0  0  0  0  0  0  0
  -28.0250  -25.0730   20.6320 C   0  0  0  0  0  3  0  0  0  0  0  0
  -29.6300  -22.9410   19.7370 C   0  0  0  0  0  2  0  0  0  0  0  0
  -29.0100  -21.7640   20.4190 N   0  0  0  0  0  0  0  0  0  0  0  0
  -27.0890  -22.3590   21.7980 O   0  0  0  0  0  0  0  0  0  0  0  0
  -30.4850  -19.6790   19.6990 C   0  0  0  0  0  3  0  0  0  0  0  0
  -30.7350  -18.2510   19.6760 C   0  0  0  0  0  3  0  0  0  0  0  0
  -28.5160  -19.3290   20.9340 C   0  0  0  0  0  3  0  0  0  0  0  0
  -29.3590  -20.3110   20.3300 C   0  0  0  0  0  0  0  0  0  0  0  0
  -29.8530  -17.3120   20.2900 C   0  0  0  0  0  0  0  0  0  0  0  0
  -28.7360  -17.9170   20.9170 C   0  0  0  0  0  0  0  0  0  0  0  0
  -27.8300  -17.1090   21.5210 F   0  0  0  0  0  0  0  0  0  0  0  0
  -30.7090  -14.8220   19.7990 C   0  0  0  0  0  0  0  0  0  0  0  0
  -30.4900  -12.5900   18.6820 C   0  0  0  0  0  2  0  0  0  0  0  0
  -29.4410  -12.7090   17.5510 C   0  0  0  0  0  2  0  0  0  0  0  0
  -28.0130  -12.5000   18.0940 C   0  0  0  0  0  2  0  0  0  0  0  0
  -27.7410  -13.3180   19.3850 C   0  0  0  0  0  3  0  0  0  0  0  0
  -28.8920  -13.1530   20.4030 C   0  0  0  0  0  2  0  0  0  0  0  0
  -30.1370  -13.5690   19.7350 N   0  0  0  0  0  0  0  0  0  0  0  0
  -31.8230  -15.0270   19.3060 O   0  0  0  0  0  0  0  0  0  0  0  0
  -29.9140  -15.8270   20.3180 N   0  0  0  0  0  0  0  0  0  0  0  0
  -29.1070  -15.4380   20.7840 H   0  0  0  0  0  0  0  0  0  0  0  0
  -25.4210  -13.8610   20.3420 C   0  0  0  0  0  0  0  0  0  0  0  0
  -24.3900  -13.0630   20.7560 C   0  0  0  0  0  0  0  0  0  0  0  0
  -24.8450  -11.7180   20.6050 C   0  0  0  0  0  0  0  0  0  0  0  0
  -26.4410  -13.0000   19.9670 N   0  0  0  0  0  0  0  0  0  0  0  0
  -26.1050  -11.7030   20.1840 N   0  0  0  0  0  0  0  0  0  0  0  0
  -24.1350  -10.4440   20.7810 C   0  0  0  0  0  0  0  0  0  0  0  0
  -24.6290   -9.4360   21.6360 C   0  0  0  0  0  3  0  0  0  0  0  0
  -23.9190   -8.2270   21.8030 C   0  0  0  0  0  3  0  0  0  0  0  0
  -22.7000   -8.0200   21.1160 C   0  0  0  0  0  0  0  0  0  0  0  0
  -22.2240   -9.0190   20.2470 C   0  0  0  0  0  3  0  0  0  0  0  0
  -22.9350  -10.2170   20.0780 C   0  0  0  0  0  3  0  0  0  0  0  0
  -21.9550   -6.8680   21.1960 O   0  0  0  0  0  0  0  0  0  0  0  0
  -21.9620   -6.0830   22.3210 C   0  0  0  0  0  0  0  0  0  0  0  0
  -21.6090   -6.5950   23.5890 C   0  0  0  0  0  3  0  0  0  0  0  0
  -21.5640   -5.7370   24.7070 C   0  0  0  0  0  3  0  0  0  0  0  0
  -21.8610   -4.3690   24.5580 C   0  0  0  0  0  0  0  0  0  0  0  0
  -22.2070   -3.8580   23.2950 C   0  0  0  0  0  3  0  0  0  0  0  0
  -22.2550   -4.7110   22.1790 C   0  0  0  0  0  0  0  0  0  0  0  0
  -22.5680   -4.2080   20.9610 F   0  0  0  0  0  0  0  0  0  0  0  0
  -21.8100   -3.5440   25.6290 F   0  0  0  0  0  0  0  0  0  0  0  0
  -23.0220  -13.5190   21.1780 C   0  0  0  0  0  0  0  0  0  0  0  0
  -22.3790  -12.7800   22.0740 N   0  0  0  0  0  0  0  0  0  0  0  0
  -22.5360  -14.5640   20.7470 O   0  0  0  0  0  0  0  0  0  0  0  0
  -22.7870  -11.9330   22.4420 H   0  0  0  0  0  0  0  0  0  0  0  0
  -21.4660  -13.0660   22.4000 H   0  0  0  0  0  0  0  0  0  0  0  0
  -25.5710  -15.2400   20.2320 N   0  0  0  0  0  0  0  0  0  0  0  0
  -24.8230  -15.8840   20.4630 H   0  0  0  0  0  0  0  0  0  0  0  0
  -26.4030  -15.7070   19.8970 H   0  0  0  0  0  0  0  0  0  0  0  0
  -28.3510  -26.3770   20.1520 O   0  0  0  0  0  0  0  0  0  0  0  0
  -24.6480  -31.8910   23.1380 C   0  0  0  0  0  0  0  0  0  0  0  0
  -27.2830  -27.3060   20.1010 C   0  0  0  0  0  0  0  0  0  0  0  0
  -23.4500  -30.4690   21.5160 C   0  0  0  0  0  3  0  0  0  0  0  0
  -24.9100  -28.9240   20.0870 C   0  0  0  0  0  0  0  0  0  0  0  0
  -25.9890  -30.8020   21.3190 C   0  0  0  0  0  2  0  0  0  0  0  0
  -26.0810  -29.4170   20.6780 C   0  0  0  0  0  0  0  0  0  0  0  0
  -27.2720  -28.6200   20.6780 C   0  0  0  0  0  3  0  0  0  0  0  0
  -26.0930  -26.8820   19.4710 C   0  0  0  0  0  3  0  0  0  0  0  0
  -24.9210  -27.6620   19.4710 C   0  0  0  0  0  3  0  0  0  0  0  0
  -23.6640  -29.7870   20.1400 C   0  0  0  0  0  2  0  0  0  0  0  0
  -24.7150  -31.0730   22.0470 N   0  0  0  0  0  0  0  0  0  0  0  0
  -23.5650  -32.1620   23.6770 O   0  0  0  0  0  0  0  0  0  0  0  0
  -22.8020  -29.4540   22.4890 C   0  0  0  0  0  0  0  0  0  0  0  0
  -21.4720  -29.2780   22.3860 N   0  0  0  0  0  0  0  0  0  0  0  0
  -23.4930  -28.8270   23.2950 O   0  0  0  0  0  0  0  0  0  0  0  0
  -20.9720  -29.8360   21.7080 H   0  0  0  0  0  0  0  0  0  0  0  0
  -18.1030  -28.0850   22.9540 C   0  0  0  0  0  0  0  0  0  0  0  0
  -20.6670  -28.3410   23.1710 C   0  0  0  0  0  3  0  0  0  0  0  0
  -20.7540  -26.9090   22.5920 C   0  0  0  0  0  2  0  0  0  0  0  0
  -19.6310  -26.5910   21.6000 C   0  0  0  0  0  2  0  0  0  0  0  0
  -18.2630  -26.7370   22.2720 C   0  0  0  0  0  2  0  0  0  0  0  0
  -19.2320  -28.8450   23.3620 C   0  0  0  0  0  0  0  0  0  0  0  0
  -19.0260  -30.1070   23.9620 C   0  0  0  0  0  3  0  0  0  0  0  0
  -17.7260  -30.6100   24.1560 C   0  0  0  0  0  3  0  0  0  0  0  0
  -16.6120  -29.8470   23.7630 C   0  0  0  0  0  3  0  0  0  0  0  0
  -16.8020  -28.5870   23.1670 C   0  0  0  0  0  3  0  0  0  0  0  0
  -25.9270  -32.5430   23.7480 C   0  0  0  0  0  3  0  0  0  0  0  0
  -25.6030  -33.9380   24.0780 N   0  0  0  0  0  0  0  0  0  0  0  0
  -25.9140  -34.9940   23.3150 C   0  0  0  0  0  0  0  0  0  0  0  0
  -26.5760  -34.8980   22.2780 O   0  0  0  0  0  0  0  0  0  0  0  0
  -25.0120  -34.0850   24.8840 H   0  0  0  0  0  0  0  0  0  0  0  0
  -24.1600  -36.7660   22.9800 C   0  0  0  0  0  1  0  0  0  0  0  0
  -25.4160  -36.3770   23.7760 C   0  0  0  0  0  3  0  0  0  0  0  0
  -27.5510  -37.2890   24.5790 C   0  0  0  0  0  1  0  0  0  0  0  0
  -26.4340  -37.4430   23.6500 N   0  0  0  0  0  0  0  0  0  0  0  0
  -26.0190  -38.3590   23.8010 H   0  0  0  0  0  0  0  0  0  0  0  0
  -26.4640  -31.7810   25.0230 C   0  0  1  0  0  0  0  0  0  0  0  0
  -25.3820  -31.5370   26.1020 C   0  0  0  0  0  1  0  0  0  0  0  0
  -27.0590  -30.4090   24.6340 C   0  0  0  0  0  1  0  0  0  0  0  0
  -27.6100  -32.5930   25.6730 C   0  0  0  0  0  1  0  0  0  0  0  0
  1  3  2  0
  1  2  1  0
  2  6  2  0
  4  5  1  0
  4  1  1  0
  5  2  1  0
  7 10  1  0
  8  7  2  0
  8 11  1  0
 10  5  1  0
 10  9  2  0
 11 22  1  0
 11 12  2  0
 12  9  1  0
 12 13  1  0
 14 22  1  0
 15 20  1  0
 16 17  1  0
 16 15  1  0
 18 17  1  0
 18 27  1  0
 18 19  1  0
 20 14  1  0
 20 19  1  0
 21 14  2  0
 22 23  1  0
 24 25  2  0
 25 44  1  0
 26 25  1  0
 26 29  1  0
 27 28  1  0
 27 24  1  0
 28 26  2  0
 29 30  1  0
 30 31  2  0
 32 35  1  0
 32 31  1  0
 33 32  2  0
 34 33  1  0
 34 29  2  0
 35 36  1  0
 36 37  1  0
 37 38  2  0
 39 38  1  0
 39 43  1  0
 40 39  2  0
 41 36  2  0
 41 40  1  0
 42 41  1  0
 44 45  1  0
 45 48  1  0
 45 47  1  0
 46 44  2  0
 49 24  1  0
 49 50  1  0
 51 49  1  0
 52  3  1  0
 53 64  2  0
 54 52  1  0
 54 59  1  0
 55 63  1  0
 55 65  1  0
 56 62  1  0
 56 58  1  0
 57 63  1  0
 58 57  1  0
 59 58  2  0
 60 54  2  0
 61 60  1  0
 61 56  2  0
 62 55  1  0
 63 53  1  0
 65 67  2  0
 66 65  1  0
 68 66  1  0
 69 78  2  0
 69 74  1  0
 70 66  1  0
 70 74  1  0
 71 70  1  0
 72 73  1  0
 72 71  1  0
 73 69  1  0
 74 75  2  0
 75 76  1  0
 77 76  2  0
 78 77  1  0
 79 53  1  0
 79 80  1  0
 79 89  1  0
 80 83  1  0
 81 85  1  0
 81 80  1  0
 82 81  2  0
 85 84  1  0
 87 85  1  0
 87 88  1  0
 87 86  1  0
 89 92  1  1
 89 90  1  0
 91 89  1  0
M  ISO  4   3 101  14 100  22 100  52 101
M  END
>  <TORSDO>  (47) 
F 17

>  <SCORE>  (47) 
-12.991

>  <name>  (47) 
46

>  <ligand_id>  (47) 
46

>  <original_smiles>  (47) 
[H]C(Oc1c([H])c([H])c2c(c1[H])C([H])([H])N(C(=O)C([H])(N([H])C(=O)C([H])(N([H])C([H])([H])[H])C([H])([H])[H])C(C([H])([H])[H])(C([H])([H])[H])C([H])([H])[H])C([H])(C(=O)N([H])C1([H])c3c([H])c([H])c([H])c([H])c3C([H])([H])C([H])([H])C1([H])[H])C2([H])[H])=C1C(=O)N(c2c([H])c([H])c(N([H])C(=O)N3C([H])([H])C([H])([H])C([H])([H])C([H])(n4nc(-c5c([H])c([H])c(Oc6c([H])c([H])c(F)c([H])c6F)c([H])c5[H])c(C(=O)N([H])[H])c4N([H])[H])C3([H])[H])c(F)c2[H])C1([H])[H]

>  <smiles>  (47) 
[H]C(Oc1c([H])c([H])c2c(c1[H])C([H])([H])N(C(=O)C([H])(N([H])C(=O)C([H])(N([H])C([H])([H])[H])C([H])([H])[H])C(C([H])([H])[H])(C([H])([H])[H])C([H])([H])[H])C([H])(C(=O)N([H])C1([H])c3c([H])c([H])c([H])c([H])c3C([H])([H])C([H])([H])C1([H])[H])C2([H])[H])=C1C(=O)N(c2c([H])c([H])c(N([H])C(=O)N3C([H])([H])C([H])([H])C([H])([H])C([H])(n4nc(-c5c([H])c([H])c(Oc6c([H])c([H])c(F)c([H])c6F)c([H])c5[H])c(C(=O)N([H])[H])c4N([H])[H])C3([H])[H])c(F)c2[H])C1([H])[H]

$$$$
47:0:0
     RDKit          3D

 93102  0  0  1  0  0  0  0  0999 V2000
  -28.7790  -23.7020   20.3420 C   0  0  0  0  0  0  0  0  0  0  0  0
  -30.1250  -23.5550   20.8320 C   0  0  0  0  0  0  0  0  0  0  0  0
  -28.3540  -22.2810   20.0660 C   0  0  0  0  0  0  0  0  0  0  0  0
  -30.9330  -24.5690   21.1840 C   0  0  0  0  0  1  0  0  0  0  0  0
  -27.9960  -24.8490   20.1250 C   0  0  0  0  0  2  0  0  0  0  0  0
  -30.5070  -22.0780   20.9070 C   0  0  0  0  0  2  0  0  0  0  0  0
  -29.3460  -21.3450   20.3760 N   0  0  0  0  0  0  0  0  0  0  0  0
  -27.2480  -21.9530   19.6250 O   0  0  0  0  0  0  0  0  0  0  0  0
  -29.8490  -18.5670   17.8380 C   0  0  0  0  0  3  0  0  0  0  0  0
  -29.6110  -19.8080   18.4620 C   0  0  0  0  0  3  0  0  0  0  0  0
  -29.9780  -17.3770   18.5810 C   0  0  0  0  0  3  0  0  0  0  0  0
  -29.6230  -18.6740   20.6170 C   0  0  0  0  0  3  0  0  0  0  0  0
  -29.4940  -19.9340   19.8660 C   0  0  0  0  0  0  0  0  0  0  0  0
  -29.8640  -17.3610   19.9900 C   0  0  0  0  0  0  0  0  0  0  0  0
  -30.6020  -14.8560   20.3230 C   0  0  0  0  0  0  0  0  0  0  0  0
  -30.4170  -12.5510   19.3610 C   0  0  0  0  0  2  0  0  0  0  0  0
  -29.4870  -12.5990   18.1260 C   0  0  0  0  0  2  0  0  0  0  0  0
  -28.0160  -12.4220   18.5470 C   0  0  0  0  0  2  0  0  0  0  0  0
  -27.6340  -13.3180   19.7560 C   0  0  0  0  0  3  0  0  0  0  0  0
  -28.6860  -13.2580   20.8850 C   0  0  0  0  0  2  0  0  0  0  0  0
  -29.9830  -13.6180   20.3010 N   0  0  0  0  0  0  0  0  0  0  0  0
  -31.7710  -14.9410   19.9360 O   0  0  0  0  0  0  0  0  0  0  0  0
  -29.8770  -16.0100   20.6490 N   0  0  0  0  0  0  0  0  0  0  0  0
  -29.0680  -15.8240   21.2230 H   0  0  0  0  0  0  0  0  0  0  0  0
  -25.2410  -13.9030   20.4640 C   0  0  0  0  0  0  0  0  0  0  0  0
  -24.1760  -13.1300   20.8330 C   0  0  0  0  0  0  0  0  0  0  0  0
  -24.6420  -11.7790   20.8140 C   0  0  0  0  0  0  0  0  0  0  0  0
  -26.2880  -13.0260   20.2400 N   0  0  0  0  0  0  0  0  0  0  0  0
  -25.9350  -11.7420   20.5140 N   0  0  0  0  0  0  0  0  0  0  0  0
  -23.9150  -10.5170   21.0090 C   0  0  0  0  0  0  0  0  0  0  0  0
  -24.3480   -9.5530   21.9450 C   0  0  0  0  0  3  0  0  0  0  0  0
  -23.6240   -8.3550   22.1270 C   0  0  0  0  0  3  0  0  0  0  0  0
  -22.4480   -8.1140   21.3770 C   0  0  0  0  0  0  0  0  0  0  0  0
  -22.0320   -9.0670   20.4310 C   0  0  0  0  0  3  0  0  0  0  0  0
  -22.7580  -10.2570   20.2450 C   0  0  0  0  0  3  0  0  0  0  0  0
  -21.6930   -6.9700   21.4710 O   0  0  0  0  0  0  0  0  0  0  0  0
  -21.6510   -6.2260   22.6240 C   0  0  0  0  0  0  0  0  0  0  0  0
  -21.2340   -6.7830   23.8530 C   0  0  0  0  0  3  0  0  0  0  0  0
  -21.1390   -5.9670   24.9990 C   0  0  0  0  0  3  0  0  0  0  0  0
  -21.4490   -4.5970   24.9150 C   0  0  0  0  0  0  0  0  0  0  0  0
  -21.8570   -4.0390   23.6910 C   0  0  0  0  0  3  0  0  0  0  0  0
  -21.9540   -4.8520   22.5480 C   0  0  0  0  0  0  0  0  0  0  0  0
  -22.3270   -4.3060   21.3660 F   0  0  0  0  0  0  0  0  0  0  0  0
  -21.3500   -3.8100   26.0120 F   0  0  0  0  0  0  0  0  0  0  0  0
  -22.7750  -13.6060   21.0920 C   0  0  0  0  0  0  0  0  0  0  0  0
  -22.0420  -12.9150   21.9580 N   0  0  0  0  0  0  0  0  0  0  0  0
  -22.3410  -14.6260   20.5610 O   0  0  0  0  0  0  0  0  0  0  0  0
  -22.4060  -12.0890   22.4100 H   0  0  0  0  0  0  0  0  0  0  0  0
  -21.1010  -13.2150   22.1700 H   0  0  0  0  0  0  0  0  0  0  0  0
  -25.4030  -15.2730   20.2760 N   0  0  0  0  0  0  0  0  0  0  0  0
  -24.6360  -15.9280   20.3820 H   0  0  0  0  0  0  0  0  0  0  0  0
  -26.2500  -15.7120   19.9390 H   0  0  0  0  0  0  0  0  0  0  0  0
  -28.2420  -26.2770   20.2350 O   0  0  0  0  0  0  0  0  0  0  0  0
  -24.6210  -31.8960   23.2330 C   0  0  0  0  0  0  0  0  0  0  0  0
  -27.1790  -27.2350   20.1650 C   0  0  0  0  0  0  0  0  0  0  0  0
  -23.4070  -30.5040   21.6000 C   0  0  0  0  0  3  0  0  0  0  0  0
  -24.8430  -28.9470   20.1600 C   0  0  0  0  0  0  0  0  0  0  0  0
  -25.9560  -30.7810   21.4170 C   0  0  0  0  0  2  0  0  0  0  0  0
  -26.0240  -29.3950   20.7690 C   0  0  0  0  0  0  0  0  0  0  0  0
  -27.1880  -28.5480   20.7740 C   0  0  0  0  0  3  0  0  0  0  0  0
  -25.9840  -26.9040   19.4820 C   0  0  0  0  0  3  0  0  0  0  0  0
  -24.8330  -27.7110   19.5070 C   0  0  0  0  0  3  0  0  0  0  0  0
  -23.6150  -29.8350   20.2170 C   0  0  0  0  0  2  0  0  0  0  0  0
  -24.6800  -31.0810   22.1380 N   0  0  0  0  0  0  0  0  0  0  0  0
  -23.5400  -32.1760   23.7710 O   0  0  0  0  0  0  0  0  0  0  0  0
  -22.7430  -29.4870   22.5620 C   0  0  0  0  0  0  0  0  0  0  0  0
  -21.4140  -29.3130   22.4420 N   0  0  0  0  0  0  0  0  0  0  0  0
  -23.4220  -28.8610   23.3790 O   0  0  0  0  0  0  0  0  0  0  0  0
  -20.9230  -29.8700   21.7580 H   0  0  0  0  0  0  0  0  0  0  0  0
  -18.0400  -28.1070   22.9560 C   0  0  0  0  0  0  0  0  0  0  0  0
  -20.5990  -28.3750   23.2180 C   0  0  0  0  0  3  0  0  0  0  0  0
  -20.7020  -26.9410   22.6470 C   0  0  0  0  0  2  0  0  0  0  0  0
  -19.5980  -26.6120   21.6360 C   0  0  0  0  0  2  0  0  0  0  0  0
  -18.2190  -26.7560   22.2830 C   0  0  0  0  0  2  0  0  0  0  0  0
  -19.1580  -28.8720   23.3820 C   0  0  0  0  0  0  0  0  0  0  0  0
  -18.9360  -30.1350   23.9710 C   0  0  0  0  0  3  0  0  0  0  0  0
  -17.6300  -30.6340   24.1400 C   0  0  0  0  0  3  0  0  0  0  0  0
  -16.5270  -29.8640   23.7320 C   0  0  0  0  0  3  0  0  0  0  0  0
  -16.7330  -28.6020   23.1450 C   0  0  0  0  0  3  0  0  0  0  0  0
  -25.9070  -32.5270   23.8470 C   0  0  0  0  0  3  0  0  0  0  0  0
  -25.6000  -33.9260   24.1810 N   0  0  0  0  0  0  0  0  0  0  0  0
  -25.9250  -34.9800   23.4220 C   0  0  0  0  0  0  0  0  0  0  0  0
  -26.5850  -34.8790   22.3840 O   0  0  0  0  0  0  0  0  0  0  0  0
  -25.0140  -34.0800   24.9880 H   0  0  0  0  0  0  0  0  0  0  0  0
  -24.1950  -36.7780   23.0920 C   0  0  0  0  0  1  0  0  0  0  0  0
  -25.4430  -36.3680   23.8890 C   0  0  0  0  0  3  0  0  0  0  0  0
  -27.5860  -37.2500   24.7020 C   0  0  0  0  0  1  0  0  0  0  0  0
  -26.4750  -37.4210   23.7710 N   0  0  0  0  0  0  0  0  0  0  0  0
  -26.0690  -38.3390   23.9270 H   0  0  0  0  0  0  0  0  0  0  0  0
  -26.4280  -31.7570   25.1220 C   0  0  1  0  0  0  0  0  0  0  0  0
  -25.3410  -31.5220   26.1960 C   0  0  0  0  0  1  0  0  0  0  0  0
  -27.0060  -30.3750   24.7330 C   0  0  0  0  0  1  0  0  0  0  0  0
  -27.5870  -32.5480   25.7760 C   0  0  0  0  0  1  0  0  0  0  0  0
  1  2  2  0
  2  6  1  0
  2  4  1  0
  3  1  1  0
  3  7  1  0
  5 53  1  0
  5  1  1  0
  7  6  1  0
  8  3  2  0
  9 10  2  0
  9 11  1  0
 10 13  1  0
 11 14  2  0
 13  7  1  0
 13 12  2  0
 14 12  1  0
 14 23  1  0
 15 23  1  0
 16 21  1  0
 17 18  1  0
 17 16  1  0
 19 18  1  0
 19 28  1  0
 19 20  1  0
 21 15  1  0
 21 20  1  0
 22 15  2  0
 23 24  1  0
 25 26  2  0
 26 45  1  0
 27 26  1  0
 27 30  1  0
 28 25  1  0
 28 29  1  0
 29 27  2  0
 30 31  1  0
 31 32  2  0
 33 36  1  0
 33 32  1  0
 34 33  2  0
 35 34  1  0
 35 30  2  0
 36 37  1  0
 37 38  1  0
 38 39  2  0
 40 39  1  0
 40 44  1  0
 41 40  2  0
 42 37  2  0
 42 41  1  0
 43 42  1  0
 45 46  1  0
 46 49  1  0
 46 48  1  0
 47 45  2  0
 50 51  1  0
 50 25  1  0
 52 50  1  0
 54 65  2  0
 55 53  1  0
 55 60  1  0
 56 64  1  0
 56 66  1  0
 57 63  1  0
 57 59  1  0
 58 64  1  0
 59 60  2  0
 59 58  1  0
 61 62  1  0
 61 55  2  0
 62 57  2  0
 63 56  1  0
 64 54  1  0
 66 68  2  0
 67 66  1  0
 69 67  1  0
 70 79  2  0
 70 75  1  0
 71 67  1  0
 71 75  1  0
 72 71  1  0
 73 74  1  0
 73 72  1  0
 74 70  1  0
 75 76  2  0
 76 77  1  0
 78 77  2  0
 79 78  1  0
 80 54  1  0
 80 81  1  0
 80 90  1  0
 81 84  1  0
 82 86  1  0
 82 81  1  0
 83 82  2  0
 86 85  1  0
 88 86  1  0
 88 89  1  0
 88 87  1  0
 90 93  1  1
 90 91  1  0
 92 90  1  0
M  ISO  4   5 101  15 100  23 100  53 101
M  END
>  <TORSDO>  (48) 
F 17

>  <SCORE>  (48) 
-15.266

>  <name>  (48) 
47

>  <ligand_id>  (48) 
47

>  <original_smiles>  (48) 
[H]C([H])=C1C(=C([H])Oc2c([H])c([H])c3c(c2[H])C([H])([H])N(C(=O)C([H])(N([H])C(=O)C([H])(N([H])C([H])([H])[H])C([H])([H])[H])C(C([H])([H])[H])(C([H])([H])[H])C([H])([H])[H])C([H])(C(=O)N([H])C2([H])c4c([H])c([H])c([H])c([H])c4C([H])([H])C([H])([H])C2([H])[H])C3([H])[H])C(=O)N(c2c([H])c([H])c([H])c(N([H])C(=O)N3C([H])([H])C([H])([H])C([H])([H])C([H])(n4nc(-c5c([H])c([H])c(Oc6c([H])c([H])c(F)c([H])c6F)c([H])c5[H])c(C(=O)N([H])[H])c4N([H])[H])C3([H])[H])c2[H])C1([H])[H]

>  <smiles>  (48) 
[H]C([H])=C1C(=C([H])Oc2c([H])c([H])c3c(c2[H])C([H])([H])N(C(=O)C([H])(N([H])C(=O)C([H])(N([H])C([H])([H])[H])C([H])([H])[H])C(C([H])([H])[H])(C([H])([H])[H])C([H])([H])[H])C([H])(C(=O)N([H])C2([H])c4c([H])c([H])c([H])c([H])c4C([H])([H])C([H])([H])C2([H])[H])C3([H])[H])C(=O)N(c2c([H])c([H])c([H])c(N([H])C(=O)N3C([H])([H])C([H])([H])C([H])([H])C([H])(n4nc(-c5c([H])c([H])c(Oc6c([H])c([H])c(F)c([H])c6F)c([H])c5[H])c(C(=O)N([H])[H])c4N([H])[H])C3([H])[H])c2[H])C1([H])[H]

$$$$
48:0:0
     RDKit          3D

 83 88  0  0  1  0  0  0  0  0999 V2000
  -28.2010  -22.4020   20.2220 C   0  0  0  0  0  1  0  0  0  0  0  0
  -28.5950  -20.6160   20.1380 C   0  0  0  0  0  2  0  0  0  0  0  0
  -27.3220  -19.9490   20.6400 C   0  0  0  0  0  1  0  0  0  0  0  0
  -29.9980  -17.0280   19.9420 C   0  0  0  0  0  0  0  0  0  0  0  0
  -30.3720  -14.2040   19.1250 C   0  0  0  0  0  2  0  0  0  0  0  0
  -29.6480  -13.2000   18.1140 C   0  0  0  0  0  2  0  0  0  0  0  0
  -28.4040  -12.5420   18.7070 C   0  0  0  0  0  2  0  0  0  0  0  0
  -27.7280  -13.5820   19.6050 C   0  0  0  0  0  3  0  0  0  0  0  0
  -28.6790  -14.4360   20.5580 C   0  0  0  0  0  2  0  0  0  0  0  0
  -29.5460  -15.4640   19.7700 N   0  0  0  0  0  0  0  0  0  0  0  0
  -31.2260  -16.6480   19.8950 O   0  0  0  0  0  0  0  0  0  0  0  0
  -29.5780  -18.8640   19.8350 N   0  0  0  0  0  2  0  0  0  0  0  0
  -25.4180  -13.9230   20.5290 C   0  0  0  0  0  0  0  0  0  0  0  0
  -24.4000  -13.0990   20.9060 C   0  0  0  0  0  0  0  0  0  0  0  0
  -24.8990  -11.7630   20.7870 C   0  0  0  0  0  0  0  0  0  0  0  0
  -26.4810  -13.1090   20.2080 N   0  0  0  0  0  0  0  0  0  0  0  0
  -26.1820  -11.7880   20.4050 N   0  0  0  0  0  0  0  0  0  0  0  0
  -24.1900  -10.4800   20.9640 C   0  0  0  0  0  0  0  0  0  0  0  0
  -24.6240   -9.5110   21.8960 C   0  0  0  0  0  3  0  0  0  0  0  0
  -23.9020   -8.3080   22.0750 C   0  0  0  0  0  3  0  0  0  0  0  0
  -22.7300   -8.0620   21.3220 C   0  0  0  0  0  0  0  0  0  0  0  0
  -22.3110   -9.0200   20.3810 C   0  0  0  0  0  3  0  0  0  0  0  0
  -23.0320  -10.2130   20.2010 C   0  0  0  0  0  3  0  0  0  0  0  0
  -21.9840   -6.9100   21.4060 O   0  0  0  0  0  0  0  0  0  0  0  0
  -21.8740   -6.2030   22.5780 C   0  0  0  0  0  0  0  0  0  0  0  0
  -21.3340   -6.7820   23.7480 C   0  0  0  0  0  3  0  0  0  0  0  0
  -21.1730   -6.0020   24.9100 C   0  0  0  0  0  3  0  0  0  0  0  0
  -21.5440   -4.6440   24.9050 C   0  0  0  0  0  0  0  0  0  0  0  0
  -22.0750   -4.0640   23.7400 C   0  0  0  0  0  3  0  0  0  0  0  0
  -22.2370   -4.8400   22.5790 C   0  0  0  0  0  0  0  0  0  0  0  0
  -22.7290   -4.2700   21.4530 F   0  0  0  0  0  0  0  0  0  0  0  0
  -21.3830   -3.8930   26.0190 F   0  0  0  0  0  0  0  0  0  0  0  0
  -23.0100  -13.5380   21.2550 C   0  0  0  0  0  0  0  0  0  0  0  0
  -22.3460  -12.8150   22.1490 N   0  0  0  0  0  0  0  0  0  0  0  0
  -22.5280  -14.5630   20.7750 O   0  0  0  0  0  0  0  0  0  0  0  0
  -22.7590  -11.9910   22.5590 H   0  0  0  0  0  0  0  0  0  0  0  0
  -21.4160  -13.0920   22.4280 H   0  0  0  0  0  0  0  0  0  0  0  0
  -25.5300  -15.3040   20.3960 N   0  0  0  0  0  0  0  0  0  0  0  0
  -24.7630  -15.9370   20.5990 H   0  0  0  0  0  0  0  0  0  0  0  0
  -26.3690  -15.7780   20.0850 H   0  0  0  0  0  0  0  0  0  0  0  0
  -31.4060  -20.5010   19.5690 C   0  0  0  0  0  2  0  0  0  0  0  0
  -30.7620  -19.3600   19.2590 C   0  0  0  0  0  3  0  0  0  0  0  0
  -28.2420  -24.3480   20.1720 O   0  0  0  0  0  1  0  0  0  0  0  0
  -24.7950  -31.7450   23.0900 C   0  0  0  0  0  0  0  0  0  0  0  0
  -27.3380  -25.9280   20.2240 C   0  0  0  0  0  0  0  0  0  0  0  0
  -23.6660  -30.3120   21.4530 C   0  0  0  0  0  3  0  0  0  0  0  0
  -25.1390  -28.4860   20.1230 C   0  0  0  0  0  0  0  0  0  0  0  0
  -26.2700  -30.2110   21.4680 C   0  0  0  0  0  2  0  0  0  0  0  0
  -26.3360  -28.6820   20.8190 C   0  0  0  0  0  0  0  0  0  0  0  0
  -27.3720  -27.4680   20.8140 C   0  0  0  0  0  3  0  0  0  0  0  0
  -26.1050  -26.1670   19.4660 C   0  0  0  0  0  3  0  0  0  0  0  0
  -25.1140  -27.2580   19.4180 C   0  0  0  0  0  3  0  0  0  0  0  0
  -23.9680  -29.5370   20.1220 C   0  0  0  0  0  2  0  0  0  0  0  0
  -24.9460  -30.8100   22.0570 N   0  0  0  0  0  0  0  0  0  0  0  0
  -23.6780  -32.0830   23.5310 O   0  0  0  0  0  0  0  0  0  0  0  0
  -22.8550  -29.4200   22.4390 C   0  0  0  0  0  0  0  0  0  0  0  0
  -21.5140  -29.3250   22.3060 N   0  0  0  0  0  0  0  0  0  0  0  0
  -23.4620  -28.7980   23.3100 O   0  0  0  0  0  0  0  0  0  0  0  0
  -21.0630  -29.8780   21.5890 H   0  0  0  0  0  0  0  0  0  0  0  0
  -18.0830  -28.1900   22.8590 C   0  0  0  0  0  0  0  0  0  0  0  0
  -20.6560  -28.4040   23.0710 C   0  0  0  0  0  3  0  0  0  0  0  0
  -20.7100  -26.9790   22.4660 C   0  0  0  0  0  2  0  0  0  0  0  0
  -19.5830  -26.7050   21.4660 C   0  0  0  0  0  2  0  0  0  0  0  0
  -18.2200  -26.8570   22.1440 C   0  0  0  0  0  2  0  0  0  0  0  0
  -19.2260  -28.9240   23.2800 C   0  0  0  0  0  0  0  0  0  0  0  0
  -19.0380  -30.1660   23.9240 C   0  0  0  0  0  3  0  0  0  0  0  0
  -17.7430  -30.6750   24.1450 C   0  0  0  0  0  3  0  0  0  0  0  0
  -16.6180  -29.9410   23.7320 C   0  0  0  0  0  3  0  0  0  0  0  0
  -16.7890  -28.7000   23.0960 C   0  0  0  0  0  3  0  0  0  0  0  0
  -26.0040  -32.4490   23.7870 C   0  0  0  0  0  3  0  0  0  0  0  0
  -25.6410  -33.8540   24.1180 N   0  0  0  0  0  0  0  0  0  0  0  0
  -25.9610  -34.9430   23.4030 C   0  0  0  0  0  0  0  0  0  0  0  0
  -26.6280  -34.8750   22.3690 O   0  0  0  0  0  0  0  0  0  0  0  0
  -25.0370  -33.9760   24.9180 H   0  0  0  0  0  0  0  0  0  0  0  0
  -24.1950  -36.7350   23.1520 C   0  0  0  0  0  1  0  0  0  0  0  0
  -25.4740  -36.3260   23.9030 C   0  0  0  0  0  3  0  0  0  0  0  0
  -27.6200  -37.2540   24.6690 C   0  0  0  0  0  1  0  0  0  0  0  0
  -26.4840  -37.4020   23.7630 N   0  0  0  0  0  0  0  0  0  0  0  0
  -26.0660  -38.3130   23.9300 H   0  0  0  0  0  0  0  0  0  0  0  0
  -26.4590  -31.7190   25.1130 C   0  0  1  0  0  0  0  0  0  0  0  0
  -25.3180  -31.4990   26.1370 C   0  0  0  0  0  1  0  0  0  0  0  0
  -27.0720  -30.3380   24.8060 C   0  0  0  0  0  1  0  0  0  0  0  0
  -27.5720  -32.5390   25.8090 C   0  0  0  0  0  1  0  0  0  0  0  0
  2  1  1  0
  2  3  1  0
  5 10  1  0
  6  7  1  0
  6  5  1  0
  8  7  1  0
  8 16  1  0
  8  9  1  0
 10  4  1  0
 10  9  1  0
 11  4  2  0
 12  4  1  0
 13 14  2  0
 14 33  1  0
 15 14  1  0
 15 18  1  0
 16 17  1  0
 16 13  1  0
 17 15  2  0
 18 19  1  0
 19 20  2  0
 21 24  1  0
 21 20  1  0
 22 21  2  0
 23 22  1  0
 23 18  2  0
 24 25  1  0
 25 30  2  0
 25 26  1  0
 26 27  2  0
 28 27  1  0
 28 32  1  0
 29 28  2  0
 30 29  1  0
 31 30  1  0
 33 34  1  0
 34 37  1  0
 34 36  1  0
 35 33  2  0
 38 13  1  0
 38 39  1  0
 40 38  1  0
 42 41  2  0
 42 12  1  0
 43 45  1  0
 44 55  2  0
 45 50  1  0
 46 54  1  0
 46 56  1  0
 47 49  1  0
 48 54  1  0
 49 48  1  0
 50 49  2  0
 51 45  2  0
 52 51  1  0
 52 47  2  0
 53 47  1  0
 53 46  1  0
 54 44  1  0
 56 58  2  0
 57 56  1  0
 59 57  1  0
 60 69  2  0
 60 65  1  0
 61 57  1  0
 61 65  1  0
 62 61  1  0
 63 64  1  0
 63 62  1  0
 64 60  1  0
 65 66  2  0
 66 67  1  0
 68 67  2  0
 69 68  1  0
 70 44  1  0
 70 71  1  0
 70 80  1  0
 71 74  1  0
 72 76  1  0
 72 71  1  0
 73 72  2  0
 76 75  1  0
 78 76  1  0
 78 79  1  0
 78 77  1  0
 80 83  1  1
 80 81  1  0
 82 80  1  0
M  ISO  4   1 101   4 100  12 100  43 101
M  END
>  <TORSDO>  (49) 
F 17

>  <SCORE>  (49) 
-14.856

>  <name>  (49) 
48

>  <ligand_id>  (49) 
48

>  <original_smiles>  (49) 
[H]C([H])=C([H])N(C(=O)N1C([H])([H])C([H])([H])C([H])([H])C([H])(n2nc(-c3c([H])c([H])c(Oc4c([H])c([H])c(F)c([H])c4F)c([H])c3[H])c(C(=O)N([H])[H])c2N([H])[H])C1([H])[H])C(=C([H])Oc1c([H])c([H])c2c(c1[H])C([H])([H])N(C(=O)C([H])(N([H])C(=O)C([H])(N([H])C([H])([H])[H])C([H])([H])[H])C(C([H])([H])[H])(C([H])([H])[H])C([H])([H])[H])C([H])(C(=O)N([H])C1([H])c3c([H])c([H])c([H])c([H])c3C([H])([H])C([H])([H])C1([H])[H])C2([H])[H])C([H])([H])[H]

>  <smiles>  (49) 
[H]C([H])=C([H])N(C(=O)N1C([H])([H])C([H])([H])C([H])([H])C([H])(n2nc(-c3c([H])c([H])c(Oc4c([H])c([H])c(F)c([H])c4F)c([H])c3[H])c(C(=O)N([H])[H])c2N([H])[H])C1([H])[H])C(=C([H])Oc1c([H])c([H])c2c(c1[H])C([H])([H])N(C(=O)C([H])(N([H])C(=O)C([H])(N([H])C([H])([H])[H])C([H])([H])[H])C(C([H])([H])[H])(C([H])([H])[H])C([H])([H])[H])C([H])(C(=O)N([H])C1([H])c3c([H])c([H])c([H])c([H])c3C([H])([H])C([H])([H])C1([H])[H])C2([H])[H])C([H])([H])[H]

$$$$
49:0:0
     RDKit          3D

 90 98  0  0  1  0  0  0  0  0999 V2000
  -28.8300  -21.3240   20.7950 C   0  0  0  0  0  0  0  0  0  0  0  0
  -27.9250  -21.1510   21.6130 O   0  0  0  0  0  0  0  0  0  0  0  0
  -32.0410  -19.2830   20.1510 C   0  0  0  0  0  3  0  0  0  0  0  0
  -31.1220  -20.3370   20.2990 C   0  0  0  0  0  3  0  0  0  0  0  0
  -31.6440  -17.9320   20.2230 C   0  0  0  0  0  3  0  0  0  0  0  0
  -29.3660  -18.6710   20.5940 C   0  0  0  0  0  3  0  0  0  0  0  0
  -29.7530  -20.0860   20.5230 C   0  0  0  0  0  0  0  0  0  0  0  0
  -30.2990  -17.5440   20.4410 C   0  0  0  0  0  0  0  0  0  0  0  0
  -30.6680  -14.9120   20.2390 C   0  0  0  0  0  0  0  0  0  0  0  0
  -30.4220  -12.6370   19.2090 C   0  0  0  0  0  2  0  0  0  0  0  0
  -29.4520  -12.7090   18.0100 C   0  0  0  0  0  2  0  0  0  0  0  0
  -28.0000  -12.5130   18.4830 C   0  0  0  0  0  2  0  0  0  0  0  0
  -27.6550  -13.3950   19.7120 C   0  0  0  0  0  3  0  0  0  0  0  0
  -28.7450  -13.3250   20.8040 C   0  0  0  0  0  2  0  0  0  0  0  0
  -30.0190  -13.6930   20.1740 N   0  0  0  0  0  0  0  0  0  0  0  0
  -31.8470  -14.9510   19.8770 O   0  0  0  0  0  0  0  0  0  0  0  0
  -29.9390  -16.0810   20.5140 N   0  0  0  0  0  0  0  0  0  0  0  0
  -28.9800  -15.8940   20.7570 H   0  0  0  0  0  0  0  0  0  0  0  0
  -25.2900  -13.9640   20.5140 C   0  0  0  0  0  0  0  0  0  0  0  0
  -24.2370  -13.1800   20.9020 C   0  0  0  0  0  0  0  0  0  0  0  0
  -24.7050  -11.8310   20.8420 C   0  0  0  0  0  0  0  0  0  0  0  0
  -26.3290  -13.0910   20.2370 N   0  0  0  0  0  0  0  0  0  0  0  0
  -25.9870  -11.8020   20.4990 N   0  0  0  0  0  0  0  0  0  0  0  0
  -23.9870  -10.5630   21.0310 C   0  0  0  0  0  0  0  0  0  0  0  0
  -24.4330   -9.5950   21.9580 C   0  0  0  0  0  3  0  0  0  0  0  0
  -23.7130   -8.3930   22.1390 C   0  0  0  0  0  3  0  0  0  0  0  0
  -22.5340   -8.1520   21.3940 C   0  0  0  0  0  0  0  0  0  0  0  0
  -22.1080   -9.1090   20.4550 C   0  0  0  0  0  3  0  0  0  0  0  0
  -22.8280  -10.3010   20.2740 C   0  0  0  0  0  3  0  0  0  0  0  0
  -21.7860   -7.0010   21.4840 O   0  0  0  0  0  0  0  0  0  0  0  0
  -21.7370   -6.2650   22.6400 C   0  0  0  0  0  0  0  0  0  0  0  0
  -21.2780   -6.8160   23.8560 C   0  0  0  0  0  3  0  0  0  0  0  0
  -21.1780   -6.0040   25.0040 C   0  0  0  0  0  3  0  0  0  0  0  0
  -21.5280   -4.6410   24.9360 C   0  0  0  0  0  0  0  0  0  0  0  0
  -21.9790   -4.0900   23.7240 C   0  0  0  0  0  3  0  0  0  0  0  0
  -22.0810   -4.8990   22.5790 C   0  0  0  0  0  0  0  0  0  0  0  0
  -22.4970   -4.3580   21.4080 F   0  0  0  0  0  0  0  0  0  0  0  0
  -21.4240   -3.8580   26.0350 F   0  0  0  0  0  0  0  0  0  0  0  0
  -22.8460  -13.6470   21.2150 C   0  0  0  0  0  0  0  0  0  0  0  0
  -22.1440  -12.9340   22.0870 N   0  0  0  0  0  0  0  0  0  0  0  0
  -22.3920  -14.6780   20.7200 O   0  0  0  0  0  0  0  0  0  0  0  0
  -22.5250  -12.0970   22.5060 H   0  0  0  0  0  0  0  0  0  0  0  0
  -21.2110  -13.2270   22.3400 H   0  0  0  0  0  0  0  0  0  0  0  0
  -25.4430  -15.3370   20.3440 N   0  0  0  0  0  0  0  0  0  0  0  0
  -24.6730  -15.9860   20.4630 H   0  0  0  0  0  0  0  0  0  0  0  0
  -26.2700  -15.7740   19.9570 H   0  0  0  0  0  0  0  0  0  0  0  0
  -28.5090  -23.7240   20.4950 C   0  0  0  0  0  3  0  0  0  0  0  0
  -29.0530  -22.5740   20.1090 N   0  0  0  0  0  0  0  0  0  0  0  0
  -28.5240  -25.1150   19.6680 C   0  0  0  0  0  2  0  0  0  0  0  0
  -28.3910  -26.4790   20.3050 O   0  0  0  0  0  0  0  0  0  0  0  0
  -24.6150  -31.9220   23.2290 C   0  0  0  0  0  0  0  0  0  0  0  0
  -27.2700  -27.3390   20.1870 C   0  0  0  0  0  0  0  0  0  0  0  0
  -23.4300  -30.5160   21.5780 C   0  0  0  0  0  3  0  0  0  0  0  0
  -24.8990  -28.9750   20.1490 C   0  0  0  0  0  0  0  0  0  0  0  0
  -25.9680  -30.8460   21.4060 C   0  0  0  0  0  2  0  0  0  0  0  0
  -26.0620  -29.4640   20.7570 C   0  0  0  0  0  0  0  0  0  0  0  0
  -27.2440  -28.6560   20.7660 C   0  0  0  0  0  3  0  0  0  0  0  0
  -26.0790  -26.9180   19.5540 C   0  0  0  0  0  3  0  0  0  0  0  0
  -24.9150  -27.7130   19.5370 C   0  0  0  0  0  3  0  0  0  0  0  0
  -23.6540  -29.8430   20.1980 C   0  0  0  0  0  2  0  0  0  0  0  0
  -24.6900  -31.1160   22.1270 N   0  0  0  0  0  0  0  0  0  0  0  0
  -23.5270  -32.1870   23.7630 O   0  0  0  0  0  0  0  0  0  0  0  0
  -22.7700  -29.4950   22.5390 C   0  0  0  0  0  0  0  0  0  0  0  0
  -21.4420  -29.3150   22.4170 N   0  0  0  0  0  0  0  0  0  0  0  0
  -23.4520  -28.8680   23.3540 O   0  0  0  0  0  0  0  0  0  0  0  0
  -20.9500  -29.8740   21.7330 H   0  0  0  0  0  0  0  0  0  0  0  0
  -18.0720  -28.1020   22.9280 C   0  0  0  0  0  0  0  0  0  0  0  0
  -20.6320  -28.3670   23.1840 C   0  0  0  0  0  3  0  0  0  0  0  0
  -20.7300  -26.9420   22.5920 C   0  0  0  0  0  2  0  0  0  0  0  0
  -19.6240  -26.6280   21.5790 C   0  0  0  0  0  2  0  0  0  0  0  0
  -18.2460  -26.7620   22.2340 C   0  0  0  0  0  2  0  0  0  0  0  0
  -19.1920  -28.8630   23.3580 C   0  0  0  0  0  0  0  0  0  0  0  0
  -18.9730  -30.1180   23.9660 C   0  0  0  0  0  3  0  0  0  0  0  0
  -17.6660  -30.6130   24.1470 C   0  0  0  0  0  3  0  0  0  0  0  0
  -16.5620  -29.8480   23.7330 C   0  0  0  0  0  3  0  0  0  0  0  0
  -16.7660  -28.5950   23.1290 C   0  0  0  0  0  3  0  0  0  0  0  0
  -25.8870  -32.5670   23.8590 C   0  0  0  0  0  3  0  0  0  0  0  0
  -26.3960  -31.8080   25.1460 C   0  0  1  0  0  0  0  0  0  0  0  0
  -25.2960  -31.5690   26.2070 C   0  0  0  0  0  1  0  0  0  0  0  0
  -26.9920  -30.4310   24.7700 C   0  0  0  0  0  1  0  0  0  0  0  0
  -27.5350  -32.6140   25.8160 C   0  0  0  0  0  1  0  0  0  0  0  0
  -25.5670  -33.9650   24.1800 N   0  0  0  0  0  0  0  0  0  0  0  0
  -25.9020  -35.0180   23.4220 C   0  0  0  0  0  0  0  0  0  0  0  0
  -26.5800  -34.9120   22.3950 O   0  0  0  0  0  0  0  0  0  0  0  0
  -24.9650  -34.1180   24.9750 H   0  0  0  0  0  0  0  0  0  0  0  0
  -24.1760  -36.8130   23.0440 C   0  0  0  0  0  1  0  0  0  0  0  0
  -25.4080  -36.4080   23.8710 C   0  0  0  0  0  3  0  0  0  0  0  0
  -27.5250  -37.3030   24.7370 C   0  0  0  0  0  1  0  0  0  0  0  0
  -26.4430  -37.4600   23.7680 N   0  0  0  0  0  0  0  0  0  0  0  0
  -26.0340  -38.3820   23.8950 H   0  0  0  0  0  0  0  0  0  0  0  0
  1  2  2  0
  3  5  2  0
  3  4  1  0
  4  7  2  0
  5  8  1  0
  7  6  1  0
  7  1  1  0
  8 17  1  0
  8  6  2  0
  9 17  1  0
 10 15  1  0
 11 12  1  0
 11 10  1  0
 13 12  1  0
 13 22  1  0
 13 14  1  0
 15  9  1  0
 15 14  1  0
 16  9  2  0
 17 18  1  0
 19 20  2  0
 20 39  1  0
 21 20  1  0
 21 24  1  0
 22 23  1  0
 22 19  1  0
 23 21  2  0
 24 25  1  0
 25 26  2  0
 27 30  1  0
 27 26  1  0
 28 27  2  0
 29 28  1  0
 29 24  2  0
 30 31  1  0
 31 32  1  0
 32 33  2  0
 34 33  1  0
 34 38  1  0
 35 34  2  0
 36 31  2  0
 36 35  1  0
 37 36  1  0
 39 40  1  0
 40 43  1  0
 40 42  1  0
 41 39  2  0
 44 45  1  0
 44 19  1  0
 46 44  1  0
 48 47  2  0
 48  1  1  0
 49 50  1  0
 49 47  1  0
 51 62  2  0
 52 50  1  0
 52 57  1  0
 53 61  1  0
 53 63  1  0
 54 60  1  0
 54 56  1  0
 55 61  1  0
 56 57  2  0
 56 55  1  0
 58 52  2  0
 59 58  1  0
 59 54  2  0
 60 53  1  0
 61 51  1  0
 63 65  2  0
 64 63  1  0
 66 64  1  0
 67 76  2  0
 67 72  1  0
 68 64  1  0
 68 72  1  0
 69 68  1  0
 70 71  1  0
 70 69  1  0
 71 67  1  0
 72 73  2  0
 73 74  1  0
 75 74  2  0
 76 75  1  0
 77 51  1  0
 77 82  1  0
 77 78  1  0
 78 81  1  1
 78 79  1  0
 80 78  1  0
 82 85  1  0
 83 87  1  0
 83 82  1  0
 84 83  2  0
 87 86  1  0
 89 87  1  0
 89 90  1  0
 89 88  1  0
M  ISO  4   9 100  17 100  49 101  50 101
M  END
>  <TORSDO>  (50) 
F 19

>  <SCORE>  (50) 
-14.130

>  <name>  (50) 
49

>  <ligand_id>  (50) 
49

>  <original_smiles>  (50) 
[H]C(=NC(=O)c1c([H])c([H])c([H])c(N([H])C(=O)N2C([H])([H])C([H])([H])C([H])([H])C([H])(n3nc(-c4c([H])c([H])c(Oc5c([H])c([H])c(F)c([H])c5F)c([H])c4[H])c(C(=O)N([H])[H])c3N([H])[H])C2([H])[H])c1[H])C([H])([H])Oc1c([H])c([H])c2c(c1[H])C([H])([H])N(C(=O)C([H])(N([H])C(=O)C([H])(N([H])C([H])([H])[H])C([H])([H])[H])C(C([H])([H])[H])(C([H])([H])[H])C([H])([H])[H])C([H])(C(=O)N([H])C1([H])c3c([H])c([H])c([H])c([H])c3C([H])([H])C([H])([H])C1([H])[H])C2([H])[H]

>  <smiles>  (50) 
[H]C(=NC(=O)c1c([H])c([H])c([H])c(N([H])C(=O)N2C([H])([H])C([H])([H])C([H])([H])C([H])(n3nc(-c4c([H])c([H])c(Oc5c([H])c([H])c(F)c([H])c5F)c([H])c4[H])c(C(=O)N([H])[H])c3N([H])[H])C2([H])[H])c1[H])C([H])([H])Oc1c([H])c([H])c2c(c1[H])C([H])([H])N(C(=O)C([H])(N([H])C(=O)C([H])(N([H])C([H])([H])[H])C([H])([H])[H])C(C([H])([H])[H])(C([H])([H])[H])C([H])([H])[H])C([H])(C(=O)N([H])C1([H])c3c([H])c([H])c([H])c([H])c3C([H])([H])C([H])([H])C1([H])[H])C2([H])[H]

$$$$
50:0:0
     RDKit          3D

 81 85  0  0  1  0  0  0  0  0999 V2000
  -28.1340  -24.5200   20.3040 O   0  0  0  0  0  1  0  0  0  0  0  0
  -24.7380  -31.7700   23.0940 C   0  0  0  0  0  0  0  0  0  0  0  0
  -27.2380  -26.0460   20.2630 C   0  0  0  0  0  0  0  0  0  0  0  0
  -23.5830  -30.3300   21.4820 C   0  0  0  0  0  3  0  0  0  0  0  0
  -25.0370  -28.5160   20.1500 C   0  0  0  0  0  0  0  0  0  0  0  0
  -26.1840  -30.2650   21.4550 C   0  0  0  0  0  2  0  0  0  0  0  0
  -26.2410  -28.7470   20.8220 C   0  0  0  0  0  0  0  0  0  0  0  0
  -27.2860  -27.5670   20.8250 C   0  0  0  0  0  3  0  0  0  0  0  0
  -25.9940  -26.2060   19.5240 C   0  0  0  0  0  3  0  0  0  0  0  0
  -24.9940  -27.2760   19.4730 C   0  0  0  0  0  3  0  0  0  0  0  0
  -23.8620  -29.5530   20.1500 C   0  0  0  0  0  2  0  0  0  0  0  0
  -24.8690  -30.8390   22.0620 N   0  0  0  0  0  0  0  0  0  0  0  0
  -23.6290  -32.1090   23.5550 O   0  0  0  0  0  0  0  0  0  0  0  0
  -22.7910  -29.4370   22.4810 C   0  0  0  0  0  0  0  0  0  0  0  0
  -21.4490  -29.3380   22.3640 N   0  0  0  0  0  0  0  0  0  0  0  0
  -23.4110  -28.8170   23.3480 O   0  0  0  0  0  0  0  0  0  0  0  0
  -20.9900  -29.8850   21.6490 H   0  0  0  0  0  0  0  0  0  0  0  0
  -18.0290  -28.1920   22.9260 C   0  0  0  0  0  0  0  0  0  0  0  0
  -20.6000  -28.4270   23.1490 C   0  0  0  0  0  3  0  0  0  0  0  0
  -20.6650  -26.9880   22.5850 C   0  0  0  0  0  2  0  0  0  0  0  0
  -19.5490  -26.6830   21.5810 C   0  0  0  0  0  2  0  0  0  0  0  0
  -18.1780  -26.8450   22.2400 C   0  0  0  0  0  2  0  0  0  0  0  0
  -19.1640  -28.9430   23.3370 C   0  0  0  0  0  0  0  0  0  0  0  0
  -18.9640  -30.1990   23.9490 C   0  0  0  0  0  3  0  0  0  0  0  0
  -17.6650  -30.7060   24.1470 C   0  0  0  0  0  3  0  0  0  0  0  0
  -16.5460  -29.9550   23.7450 C   0  0  0  0  0  3  0  0  0  0  0  0
  -16.7290  -28.6990   23.1410 C   0  0  0  0  0  3  0  0  0  0  0  0
  -25.9660  -32.4660   23.7640 C   0  0  0  0  0  3  0  0  0  0  0  0
  -25.6100  -33.8690   24.0980 N   0  0  0  0  0  0  0  0  0  0  0  0
  -25.9280  -34.9550   23.3780 C   0  0  0  0  0  0  0  0  0  0  0  0
  -26.5880  -34.8840   22.3400 O   0  0  0  0  0  0  0  0  0  0  0  0
  -25.0150  -33.9940   24.9040 H   0  0  0  0  0  0  0  0  0  0  0  0
  -24.1680  -36.7520   23.1300 C   0  0  0  0  0  1  0  0  0  0  0  0
  -25.4460  -36.3380   23.8790 C   0  0  0  0  0  3  0  0  0  0  0  0
  -27.5960  -37.2570   24.6420 C   0  0  0  0  0  1  0  0  0  0  0  0
  -26.4590  -37.4100   23.7380 N   0  0  0  0  0  0  0  0  0  0  0  0
  -26.0440  -38.3230   23.9010 H   0  0  0  0  0  0  0  0  0  0  0  0
  -26.4430  -31.7350   25.0810 C   0  0  1  0  0  0  0  0  0  0  0  0
  -25.3200  -31.5230   26.1240 C   0  0  0  0  0  1  0  0  0  0  0  0
  -27.0420  -30.3490   24.7640 C   0  0  0  0  0  1  0  0  0  0  0  0
  -27.5730  -32.5500   25.7540 C   0  0  0  0  0  1  0  0  0  0  0  0
  -28.1180  -22.3850   20.1970 C   0  0  0  0  0 15  0  0  0  0  0  0
  -29.1810  -18.6160   20.1990 C   0  0  0  0  0  1  0  0  0  0  0  0
  -29.1460  -20.3940   20.2280 C   0  0  0  0  0  2  0  0  0  0  0  0
  -30.5490  -21.0000   20.3070 C   0  0  0  0  0  1  0  0  0  0  0  0
  -29.9150  -16.7340   20.1680 C   0  0  0  0  0  2  0  0  0  0  0  0
  -30.3090  -13.9270   19.4530 C   0  0  0  0  0  2  0  0  0  0  0  0
  -29.5800  -13.0650   18.3350 C   0  0  0  0  0  2  0  0  0  0  0  0
  -28.2570  -12.4730   18.8190 C   0  0  0  0  0  2  0  0  0  0  0  0
  -27.5750  -13.5090   19.7210 C   0  0  0  0  0  3  0  0  0  0  0  0
  -28.4950  -14.2500   20.7650 C   0  0  0  0  0  2  0  0  0  0  0  0
  -29.5100  -15.1810   20.0850 N   0  0  0  0  0  0  0  0  0  0  0  0
  -31.1560  -16.4540   20.0930 O   0  0  0  0  0  1  0  0  0  0  0  0
  -25.2060  -13.8920   20.4760 C   0  0  0  0  0  0  0  0  0  0  0  0
  -24.1700  -13.0800   20.8270 C   0  0  0  0  0  0  0  0  0  0  0  0
  -24.6820  -11.7450   20.8020 C   0  0  0  0  0  0  0  0  0  0  0  0
  -26.2870  -13.0680   20.2530 N   0  0  0  0  0  0  0  0  0  0  0  0
  -25.9850  -11.7590   20.5010 N   0  0  0  0  0  0  0  0  0  0  0  0
  -23.9720  -10.4650   20.9880 C   0  0  0  0  0  0  0  0  0  0  0  0
  -24.3960   -9.5080   21.9370 C   0  0  0  0  0  3  0  0  0  0  0  0
  -23.6760   -8.3070   22.1200 C   0  0  0  0  0  3  0  0  0  0  0  0
  -22.5150   -8.0490   21.3530 C   0  0  0  0  0  0  0  0  0  0  0  0
  -22.1060   -8.9940   20.3960 C   0  0  0  0  0  3  0  0  0  0  0  0
  -22.8270  -10.1880   20.2120 C   0  0  0  0  0  3  0  0  0  0  0  0
  -21.7690   -6.8970   21.4420 O   0  0  0  0  0  0  0  0  0  0  0  0
  -21.7110   -6.1620   22.5990 C   0  0  0  0  0  0  0  0  0  0  0  0
  -21.2580   -6.7200   23.8150 C   0  0  0  0  0  3  0  0  0  0  0  0
  -21.1470   -5.9130   24.9630 C   0  0  0  0  0  3  0  0  0  0  0  0
  -21.4800   -4.5460   24.8990 C   0  0  0  0  0  0  0  0  0  0  0  0
  -21.9250   -3.9860   23.6890 C   0  0  0  0  0  3  0  0  0  0  0  0
  -22.0370   -4.7910   22.5420 C   0  0  0  0  0  0  0  0  0  0  0  0
  -22.4450   -4.2410   21.3720 F   0  0  0  0  0  0  0  0  0  0  0  0
  -21.3680   -3.7670   26.0010 F   0  0  0  0  0  0  0  0  0  0  0  0
  -22.7580  -13.5240   21.0680 C   0  0  0  0  0  0  0  0  0  0  0  0
  -22.0340  -12.8270   21.9340 N   0  0  0  0  0  0  0  0  0  0  0  0
  -22.3090  -14.5330   20.5260 O   0  0  0  0  0  0  0  0  0  0  0  0
  -22.4130  -12.0130   22.3960 H   0  0  0  0  0  0  0  0  0  0  0  0
  -21.0860  -13.1120   22.1400 H   0  0  0  0  0  0  0  0  0  0  0  0
  -25.3180  -15.2670   20.2870 N   0  0  0  0  0  0  0  0  0  0  0  0
  -24.5260  -15.8920   20.3840 H   0  0  0  0  0  0  0  0  0  0  0  0
  -26.1590  -15.7370   19.9760 H   0  0  0  0  0  0  0  0  0  0  0  0
  2 13  2  0
  3  1  1  0
  3  8  1  0
  4 12  1  0
  4 14  1  0
  5  7  1  0
  6 12  1  0
  7  8  2  0
  7  6  1  0
  9  3  2  0
 10  9  1  0
 10  5  2  0
 11  5  1  0
 11  4  1  0
 12  2  1  0
 14 16  2  0
 15 14  1  0
 17 15  1  0
 18 27  2  0
 18 23  1  0
 19 15  1  0
 19 23  1  0
 20 19  1  0
 21 22  1  0
 21 20  1  0
 22 18  1  0
 23 24  2  0
 24 25  1  0
 26 25  2  0
 27 26  1  0
 28  2  1  0
 28 29  1  0
 28 38  1  0
 29 32  1  0
 30 34  1  0
 30 29  1  0
 31 30  2  0
 34 33  1  0
 36 34  1  0
 36 37  1  0
 36 35  1  0
 38 41  1  1
 38 39  1  0
 40 38  1  0
 43 44  1  0
 44 45  1  0
 47 52  1  0
 48 49  1  0
 48 47  1  0
 50 49  1  0
 50 57  1  0
 50 51  1  0
 52 46  1  0
 52 51  1  0
 53 46  1  0
 54 55  2  0
 55 74  1  0
 56 55  1  0
 56 59  1  0
 57 54  1  0
 57 58  1  0
 58 56  2  0
 59 60  1  0
 60 61  2  0
 62 65  1  0
 62 61  1  0
 63 62  2  0
 64 63  1  0
 64 59  2  0
 65 66  1  0
 66 67  1  0
 67 68  2  0
 69 68  1  0
 69 73  1  0
 70 69  2  0
 71 66  2  0
 71 70  1  0
 72 71  1  0
 74 75  1  0
 75 78  1  0
 75 77  1  0
 76 74  2  0
 79 80  1  0
 79 54  1  0
 81 79  1  0
M  ISO  4   1 101  42 101  43 100  46 100
M  END
>  <TORSDO>  (51) 
F 17

>  <SCORE>  (51) 
-16.143

>  <name>  (51) 
50

>  <ligand_id>  (51) 
50

>  <original_smiles>  (51) 
[H]C(C(=O)N1C([H])([H])C([H])([H])C([H])([H])C([H])(n2nc(-c3c([H])c([H])c(Oc4c([H])c([H])c(F)c([H])c4F)c([H])c3[H])c(C(=O)N([H])[H])c2N([H])[H])C1([H])[H])=C(C([H])([H])[H])C([H])([H])Oc1c([H])c([H])c2c(c1[H])C([H])([H])N(C(=O)C([H])(N([H])C(=O)C([H])(N([H])C([H])([H])[H])C([H])([H])[H])C(C([H])([H])[H])(C([H])([H])[H])C([H])([H])[H])C([H])(C(=O)N([H])C1([H])c3c([H])c([H])c([H])c([H])c3C([H])([H])C([H])([H])C1([H])[H])C2([H])[H]

>  <smiles>  (51) 
[H]C(C(=O)N1C([H])([H])C([H])([H])C([H])([H])C([H])(n2nc(-c3c([H])c([H])c(Oc4c([H])c([H])c(F)c([H])c4F)c([H])c3[H])c(C(=O)N([H])[H])c2N([H])[H])C1([H])[H])=C(C([H])([H])[H])C([H])([H])Oc1c([H])c([H])c2c(c1[H])C([H])([H])N(C(=O)C([H])(N([H])C(=O)C([H])(N([H])C([H])([H])[H])C([H])([H])[H])C(C([H])([H])[H])(C([H])([H])[H])C([H])([H])[H])C([H])(C(=O)N([H])C1([H])c3c([H])c([H])c([H])c([H])c3C([H])([H])C([H])([H])C1([H])[H])C2([H])[H]

$$$$
51:0:0
     RDKit          3D

 96105  0  0  1  0  0  0  0  0999 V2000
  -31.8460  -18.7410   20.9040 C   0  0  0  0  0  3  0  0  0  0  0  0
  -31.6430  -20.1190   20.6700 C   0  0  0  0  0  3  0  0  0  0  0  0
  -29.2490  -19.7590   20.7040 C   0  0  0  0  0  3  0  0  0  0  0  0
  -30.7590  -17.8520   21.0740 C   0  0  0  0  0  0  0  0  0  0  0  0
  -30.3390  -20.6590   20.5730 C   0  0  0  0  0  0  0  0  0  0  0  0
  -29.4460  -18.3790   20.9620 C   0  0  0  0  0  0  0  0  0  0  0  0
  -30.4940  -24.3650   20.4340 C   0  0  0  0  0  3  0  0  0  0  0  0
  -29.2730  -24.1450   19.9480 C   0  0  0  0  0  0  0  0  0  0  0  0
  -29.0480  -22.7070   19.9000 C   0  0  0  0  0  0  0  0  0  0  0  0
  -31.1890  -23.0640   20.7350 C   0  0  0  0  0  2  0  0  0  0  0  0
  -30.1480  -22.0820   20.3980 N   0  0  0  0  0  0  0  0  0  0  0  0
  -28.0370  -22.1480   19.4620 O   0  0  0  0  0  0  0  0  0  0  0  0
  -28.2100  -25.1320   19.4710 C   0  0  0  0  0  2  0  0  0  0  0  0
  -28.3910  -26.5360   19.7820 O   0  0  0  0  0  0  0  0  0  0  0  0
  -24.4920  -31.6210   22.9600 C   0  0  0  0  0  0  0  0  0  0  0  0
  -27.2250  -27.2950   19.7570 C   0  0  0  0  0  0  0  0  0  0  0  0
  -23.3170  -30.2350   21.2890 C   0  0  0  0  0  3  0  0  0  0  0  0
  -24.8000  -28.7800   19.8160 C   0  0  0  0  0  0  0  0  0  0  0  0
  -25.8390  -30.6490   21.0970 C   0  0  0  0  0  2  0  0  0  0  0  0
  -25.9540  -29.2980   20.4170 C   0  0  0  0  0  0  0  0  0  0  0  0
  -27.1690  -28.5650   20.3870 C   0  0  0  0  0  3  0  0  0  0  0  0
  -26.0420  -26.8170   19.1310 C   0  0  0  0  0  3  0  0  0  0  0  0
  -24.8410  -27.5380   19.1710 C   0  0  0  0  0  3  0  0  0  0  0  0
  -23.5380  -29.6070   19.8890 C   0  0  0  0  0  2  0  0  0  0  0  0
  -24.5680  -30.8490   21.8400 N   0  0  0  0  0  0  0  0  0  0  0  0
  -23.4050  -31.8530   23.5070 O   0  0  0  0  0  0  0  0  0  0  0  0
  -22.6930  -29.1690   22.2210 C   0  0  0  0  0  0  0  0  0  0  0  0
  -21.3660  -28.9870   22.1220 N   0  0  0  0  0  0  0  0  0  0  0  0
  -23.4000  -28.5130   22.9900 O   0  0  0  0  0  0  0  0  0  0  0  0
  -20.8560  -29.5710   21.4740 H   0  0  0  0  0  0  0  0  0  0  0  0
  -18.0030  -27.7860   22.6860 C   0  0  0  0  0  0  0  0  0  0  0  0
  -20.5710  -28.0170   22.8760 C   0  0  0  0  0  3  0  0  0  0  0  0
  -20.6440  -26.6150   22.2270 C   0  0  0  0  0  2  0  0  0  0  0  0
  -19.5030  -26.3480   21.2410 C   0  0  0  0  0  2  0  0  0  0  0  0
  -18.1470  -26.4700   21.9400 C   0  0  0  0  0  2  0  0  0  0  0  0
  -19.1430  -28.5210   23.1100 C   0  0  0  0  0  0  0  0  0  0  0  0
  -18.9530  -29.7560   23.7670 C   0  0  0  0  0  3  0  0  0  0  0  0
  -17.6600  -30.2570   24.0020 C   0  0  0  0  0  3  0  0  0  0  0  0
  -16.5360  -29.5180   23.5930 C   0  0  0  0  0  3  0  0  0  0  0  0
  -16.7080  -28.2840   22.9410 C   0  0  0  0  0  3  0  0  0  0  0  0
  -25.7630  -32.2680   23.5920 C   0  0  0  0  0  3  0  0  0  0  0  0
  -26.3340  -31.4500   24.8130 C   0  0  1  0  0  0  0  0  0  0  0  0
  -25.2760  -31.1230   25.8920 C   0  0  0  0  0  1  0  0  0  0  0  0
  -26.9510  -30.1150   24.3350 C   0  0  0  0  0  1  0  0  0  0  0  0
  -27.4760  -32.2460   25.4890 C   0  0  0  0  0  1  0  0  0  0  0  0
  -25.4060  -33.6330   24.0010 N   0  0  0  0  0  0  0  0  0  0  0  0
  -25.7000  -34.7370   23.3010 C   0  0  0  0  0  0  0  0  0  0  0  0
  -26.3700  -34.7160   22.2640 O   0  0  0  0  0  0  0  0  0  0  0  0
  -24.8100  -33.7230   24.8090 H   0  0  0  0  0  0  0  0  0  0  0  0
  -23.9050  -36.4810   23.0490 C   0  0  0  0  0  1  0  0  0  0  0  0
  -25.1640  -36.0800   23.8340 C   0  0  0  0  0  3  0  0  0  0  0  0
  -27.2640  -36.9970   24.7140 C   0  0  0  0  0  1  0  0  0  0  0  0
  -26.1560  -37.1740   23.7780 N   0  0  0  0  0  0  0  0  0  0  0  0
  -25.7170  -38.0690   23.9730 H   0  0  0  0  0  0  0  0  0  0  0  0
  -28.3250  -17.5720   21.1490 N   0  0  0  0  0  0  0  0  0  0  0  0
  -27.4310  -18.0220   21.3130 H   0  0  0  0  0  0  0  0  0  0  0  0
  -28.4280  -16.7140   21.6760 H   0  0  0  0  0  0  0  0  0  0  0  0
  -31.0580  -16.4050   21.5190 C   0  0  0  0  0  2  0  0  0  0  0  0
  -30.7410  -14.4080   20.0370 C   0  0  0  0  0  0  0  0  0  0  0  0
  -30.2690  -12.3200   18.7930 C   0  0  0  0  0  2  0  0  0  0  0  0
  -29.2410  -12.5670   17.6730 C   0  0  0  0  0  2  0  0  0  0  0  0
  -27.8050  -12.4320   18.2150 C   0  0  0  0  0  2  0  0  0  0  0  0
  -27.5800  -13.2440   19.5180 C   0  0  0  0  0  3  0  0  0  0  0  0
  -28.7120  -12.9800   20.5360 C   0  0  0  0  0  2  0  0  0  0  0  0
  -29.9960  -13.2780   19.8770 N   0  0  0  0  0  0  0  0  0  0  0  0
  -31.7820  -14.6130   19.4070 O   0  0  0  0  0  0  0  0  0  0  0  0
  -30.2790  -15.3050   20.9250 N   0  0  0  0  0  0  0  0  0  0  0  0
  -29.3880  -15.0970   21.3490 H   0  0  0  0  0  0  0  0  0  0  0  0
  -25.2580  -13.8710   20.4350 C   0  0  0  0  0  0  0  0  0  0  0  0
  -24.2030  -13.1070   20.8560 C   0  0  0  0  0  0  0  0  0  0  0  0
  -24.6300  -11.7480   20.7400 C   0  0  0  0  0  0  0  0  0  0  0  0
  -26.2620  -12.9790   20.0920 N   0  0  0  0  0  0  0  0  0  0  0  0
  -25.8910  -11.6940   20.3320 N   0  0  0  0  0  0  0  0  0  0  0  0
  -23.8910  -10.4940   20.9410 C   0  0  0  0  0  0  0  0  0  0  0  0
  -24.3390   -9.5100   21.8500 C   0  0  0  0  0  3  0  0  0  0  0  0
  -23.6020   -8.3210   22.0380 C   0  0  0  0  0  3  0  0  0  0  0  0
  -22.4020   -8.1080   21.3180 C   0  0  0  0  0  0  0  0  0  0  0  0
  -21.9730   -9.0810   20.3980 C   0  0  0  0  0  3  0  0  0  0  0  0
  -22.7110  -10.2610   20.2080 C   0  0  0  0  0  3  0  0  0  0  0  0
  -21.6350   -6.9730   21.4180 O   0  0  0  0  0  0  0  0  0  0  0  0
  -21.5730   -6.2450   22.5790 C   0  0  0  0  0  0  0  0  0  0  0  0
  -21.1350   -6.8160   23.7940 C   0  0  0  0  0  3  0  0  0  0  0  0
  -21.0200   -6.0140   24.9480 C   0  0  0  0  0  3  0  0  0  0  0  0
  -21.3340   -4.6430   24.8860 C   0  0  0  0  0  0  0  0  0  0  0  0
  -21.7650   -4.0710   23.6760 C   0  0  0  0  0  3  0  0  0  0  0  0
  -21.8810   -4.8710   22.5250 C   0  0  0  0  0  0  0  0  0  0  0  0
  -22.2760   -4.3110   21.3560 F   0  0  0  0  0  0  0  0  0  0  0  0
  -21.2160   -3.8700   25.9920 F   0  0  0  0  0  0  0  0  0  0  0  0
  -22.8430  -13.6010   21.2560 C   0  0  0  0  0  0  0  0  0  0  0  0
  -22.1680  -12.8850   22.1490 N   0  0  0  0  0  0  0  0  0  0  0  0
  -22.3900  -14.6560   20.8130 O   0  0  0  0  0  0  0  0  0  0  0  0
  -22.5480  -12.0310   22.5290 H   0  0  0  0  0  0  0  0  0  0  0  0
  -21.2570  -13.1960   22.4570 H   0  0  0  0  0  0  0  0  0  0  0  0
  -25.4410  -15.2430   20.2970 N   0  0  0  0  0  0  0  0  0  0  0  0
  -24.7110  -15.9140   20.5120 H   0  0  0  0  0  0  0  0  0  0  0  0
  -26.3000  -15.6820   19.9850 H   0  0  0  0  0  0  0  0  0  0  0  0
  1  4  1  0
  2  1  2  0
  3  6  1  0
  4 58  1  0
  5  2  1  0
  5  3  2  0
  6  4  2  0
  6 55  1  0
  7 10  1  0
  8  7  2  0
  9  8  1  0
  9 11  1  0
 11  5  1  0
 11 10  1  0
 12  9  2  0
 13 14  1  0
 13  8  1  0
 15 26  2  0
 16 14  1  0
 16 21  1  0
 17 25  1  0
 17 27  1  0
 18 24  1  0
 18 20  1  0
 19 25  1  0
 20 19  1  0
 21 20  2  0
 22 23  1  0
 22 16  2  0
 23 18  2  0
 24 17  1  0
 25 15  1  0
 27 29  2  0
 28 27  1  0
 30 28  1  0
 31 40  2  0
 31 36  1  0
 32 28  1  0
 32 36  1  0
 33 32  1  0
 34 35  1  0
 34 33  1  0
 35 31  1  0
 36 37  2  0
 37 38  1  0
 39 38  2  0
 40 39  1  0
 41 15  1  0
 41 46  1  0
 41 42  1  0
 42 45  1  1
 42 43  1  0
 44 42  1  0
 46 49  1  0
 47 51  1  0
 47 46  1  0
 48 47  2  0
 51 50  1  0
 53 51  1  0
 53 54  1  0
 53 52  1  0
 55 56  1  0
 55 57  1  0
 59 67  1  0
 60 65  1  0
 61 62  1  0
 61 60  1  0
 63 62  1  0
 63 72  1  0
 63 64  1  0
 65 59  1  0
 65 64  1  0
 66 59  2  0
 67 68  1  0
 67 58  1  0
 69 70  2  0
 70 89  1  0
 71 70  1  0
 71 74  1  0
 72 73  1  0
 72 69  1  0
 73 71  2  0
 74 75  1  0
 75 76  2  0
 77 80  1  0
 77 76  1  0
 78 77  2  0
 79 78  1  0
 79 74  2  0
 80 81  1  0
 81 82  1  0
 82 83  2  0
 84 83  1  0
 84 88  1  0
 85 84  2  0
 86 81  2  0
 86 85  1  0
 87 86  1  0
 89 90  1  0
 90 93  1  0
 90 92  1  0
 91 89  2  0
 94 69  1  0
 94 95  1  0
 96 94  1  0
M  ISO  4  13 101  14 101  59 100  67 100
M  END
>  <TORSDO>  (52) 
F 20

>  <SCORE>  (52) 
-13.524

>  <name>  (52) 
51

>  <ligand_id>  (52) 
51

>  <original_smiles>  (52) 
[H]C1=C(C([H])([H])Oc2c([H])c([H])c3c(c2[H])C([H])([H])N(C(=O)C([H])(N([H])C(=O)C([H])(N([H])C([H])([H])[H])C([H])([H])[H])C(C([H])([H])[H])(C([H])([H])[H])C([H])([H])[H])C([H])(C(=O)N([H])C2([H])c4c([H])c([H])c([H])c([H])c4C([H])([H])C([H])([H])C2([H])[H])C3([H])[H])C(=O)N(c2c([H])c([H])c(C([H])([H])N([H])C(=O)N3C([H])([H])C([H])([H])C([H])([H])C([H])(n4nc(-c5c([H])c([H])c(Oc6c([H])c([H])c(F)c([H])c6F)c([H])c5[H])c(C(=O)N([H])[H])c4N([H])[H])C3([H])[H])c(N([H])[H])c2[H])C1([H])[H]

>  <smiles>  (52) 
[H]C1=C(C([H])([H])Oc2c([H])c([H])c3c(c2[H])C([H])([H])N(C(=O)C([H])(N([H])C(=O)C([H])(N([H])C([H])([H])[H])C([H])([H])[H])C(C([H])([H])[H])(C([H])([H])[H])C([H])([H])[H])C([H])(C(=O)N([H])C2([H])c4c([H])c([H])c([H])c([H])c4C([H])([H])C([H])([H])C2([H])[H])C3([H])[H])C(=O)N(c2c([H])c([H])c(C([H])([H])N([H])C(=O)N3C([H])([H])C([H])([H])C([H])([H])C([H])(n4nc(-c5c([H])c([H])c(Oc6c([H])c([H])c(F)c([H])c6F)c([H])c5[H])c(C(=O)N([H])[H])c4N([H])[H])C3([H])[H])c(N([H])[H])c2[H])C1([H])[H]

$$$$
52:0:0
     RDKit          3D

 91 99  0  0  1  0  0  0  0  0999 V2000
  -29.9510  -21.3080   20.1180 C   0  0  0  0  0  0  0  0  0  0  0  0
  -29.2640  -23.7710   20.1460 C   0  0  0  0  0  0  0  0  0  0  0  0
  -29.0500  -22.3840   20.0360 N   0  0  0  0  0  0  0  0  0  0  0  0
  -31.1670  -21.5120   20.1910 O   0  0  0  0  0  0  0  0  0  0  0  0
  -30.3660  -24.2330   20.4650 O   0  0  0  0  0  0  0  0  0  0  0  0
  -28.0960  -22.1130   19.8630 H   0  0  0  0  0  0  0  0  0  0  0  0
  -30.2690  -18.5530   20.1340 C   0  0  0  0  0  3  0  0  0  0  0  0
  -28.1160  -17.6920   20.3070 C   0  0  0  0  0  3  0  0  0  0  0  0
  -29.4440  -17.3280   20.2510 C   0  0  0  0  0  0  0  0  0  0  0  0
  -29.5540  -19.7890   20.1110 C   0  0  0  0  0  0  0  0  0  0  0  0
  -27.8490  -19.4280   20.2140 S   0  0  0  0  0  0  0  0  0  0  0  0
  -30.5820  -14.8430   19.9590 C   0  0  0  0  0  0  0  0  0  0  0  0
  -30.4450  -12.5180   19.0000 C   0  0  0  0  0  2  0  0  0  0  0  0
  -29.4330  -12.5410   17.8300 C   0  0  0  0  0  2  0  0  0  0  0  0
  -27.9860  -12.3590   18.3380 C   0  0  0  0  0  2  0  0  0  0  0  0
  -27.6690  -13.2650   19.5560 C   0  0  0  0  0  3  0  0  0  0  0  0
  -28.7860  -13.1740   20.6210 C   0  0  0  0  0  2  0  0  0  0  0  0
  -30.0480  -13.5670   19.9680 N   0  0  0  0  0  0  0  0  0  0  0  0
  -31.7210  -15.0330   19.5170 O   0  0  0  0  0  0  0  0  0  0  0  0
  -29.7010  -15.8500   20.3480 N   0  0  0  0  0  0  0  0  0  0  0  0
  -28.8990  -15.3790   20.7330 H   0  0  0  0  0  0  0  0  0  0  0  0
  -25.3450  -13.8870   20.4500 C   0  0  0  0  0  0  0  0  0  0  0  0
  -24.2860  -13.1270   20.8630 C   0  0  0  0  0  0  0  0  0  0  0  0
  -24.7120  -11.7670   20.7600 C   0  0  0  0  0  0  0  0  0  0  0  0
  -26.3490  -12.9910   20.1170 N   0  0  0  0  0  0  0  0  0  0  0  0
  -25.9800  -11.7090   20.3640 N   0  0  0  0  0  0  0  0  0  0  0  0
  -23.9700  -10.5160   20.9560 C   0  0  0  0  0  0  0  0  0  0  0  0
  -24.4080   -9.5320   21.8680 C   0  0  0  0  0  3  0  0  0  0  0  0
  -23.6670   -8.3450   22.0540 C   0  0  0  0  0  3  0  0  0  0  0  0
  -22.4710   -8.1340   21.3260 C   0  0  0  0  0  0  0  0  0  0  0  0
  -22.0500   -9.1070   20.4030 C   0  0  0  0  0  3  0  0  0  0  0  0
  -22.7920  -10.2850   20.2160 C   0  0  0  0  0  3  0  0  0  0  0  0
  -21.7010   -7.0010   21.4210 O   0  0  0  0  0  0  0  0  0  0  0  0
  -21.6260   -6.2770   22.5840 C   0  0  0  0  0  0  0  0  0  0  0  0
  -21.1670   -6.8490   23.7900 C   0  0  0  0  0  3  0  0  0  0  0  0
  -21.0400   -6.0510   24.9440 C   0  0  0  0  0  3  0  0  0  0  0  0
  -21.3620   -4.6820   24.8940 C   0  0  0  0  0  0  0  0  0  0  0  0
  -21.8160   -4.1090   23.6920 C   0  0  0  0  0  3  0  0  0  0  0  0
  -21.9440   -4.9040   22.5400 C   0  0  0  0  0  0  0  0  0  0  0  0
  -22.3610   -4.3430   21.3800 F   0  0  0  0  0  0  0  0  0  0  0  0
  -21.2340   -3.9120   26.0000 F   0  0  0  0  0  0  0  0  0  0  0  0
  -22.9200  -13.6270   21.2360 C   0  0  0  0  0  0  0  0  0  0  0  0
  -22.2310  -12.9220   22.1280 N   0  0  0  0  0  0  0  0  0  0  0  0
  -22.4740  -14.6740   20.7720 O   0  0  0  0  0  0  0  0  0  0  0  0
  -22.6040  -12.0740   22.5260 H   0  0  0  0  0  0  0  0  0  0  0  0
  -21.3160  -13.2390   22.4160 H   0  0  0  0  0  0  0  0  0  0  0  0
  -25.5300  -15.2590   20.3020 N   0  0  0  0  0  0  0  0  0  0  0  0
  -24.7710  -15.9140   20.4590 H   0  0  0  0  0  0  0  0  0  0  0  0
  -26.3120  -15.6700   19.8110 H   0  0  0  0  0  0  0  0  0  0  0  0
  -28.1110  -24.8690   19.8580 C   0  0  0  0  0  2  0  0  0  0  0  0
  -28.3680  -26.3500   20.1370 O   0  0  0  0  0  0  0  0  0  0  0  0
  -24.6120  -31.8210   23.2050 C   0  0  0  0  0  0  0  0  0  0  0  0
  -27.2770  -27.2680   20.0880 C   0  0  0  0  0  0  0  0  0  0  0  0
  -23.4430  -30.4550   21.5180 C   0  0  0  0  0  3  0  0  0  0  0  0
  -24.9210  -28.9370   20.0780 C   0  0  0  0  0  0  0  0  0  0  0  0
  -25.9920  -30.7640   21.3880 C   0  0  0  0  0  2  0  0  0  0  0  0
  -26.0850  -29.3960   20.7070 C   0  0  0  0  0  0  0  0  0  0  0  0
  -27.2660  -28.5750   20.6990 C   0  0  0  0  0  3  0  0  0  0  0  0
  -26.0830  -26.8910   19.4310 C   0  0  0  0  0  3  0  0  0  0  0  0
  -24.9270  -27.6960   19.4290 C   0  0  0  0  0  3  0  0  0  0  0  0
  -23.6840  -29.8160   20.1260 C   0  0  0  0  0  2  0  0  0  0  0  0
  -24.7010  -31.0310   22.0940 N   0  0  0  0  0  0  0  0  0  0  0  0
  -23.5180  -32.0840   23.7250 O   0  0  0  0  0  0  0  0  0  0  0  0
  -22.7650  -29.4160   22.4450 C   0  0  0  0  0  0  0  0  0  0  0  0
  -21.4370  -29.2520   22.3080 N   0  0  0  0  0  0  0  0  0  0  0  0
  -23.4330  -28.7650   23.2500 O   0  0  0  0  0  0  0  0  0  0  0  0
  -20.9550  -29.8290   21.6320 H   0  0  0  0  0  0  0  0  0  0  0  0
  -18.0430  -28.0930   22.8010 C   0  0  0  0  0  0  0  0  0  0  0  0
  -20.6090  -28.2970   23.0470 C   0  0  0  0  0  3  0  0  0  0  0  0
  -20.6780  -26.8890   22.4110 C   0  0  0  0  0  2  0  0  0  0  0  0
  -19.5580  -26.6300   21.3990 C   0  0  0  0  0  2  0  0  0  0  0  0
  -18.1860  -26.7710   22.0660 C   0  0  0  0  0  2  0  0  0  0  0  0
  -19.1800  -28.8160   23.2480 C   0  0  0  0  0  0  0  0  0  0  0  0
  -18.9900  -30.0550   23.8980 C   0  0  0  0  0  3  0  0  0  0  0  0
  -17.6960  -30.5710   24.1030 C   0  0  0  0  0  3  0  0  0  0  0  0
  -16.5740  -29.8440   23.6710 C   0  0  0  0  0  3  0  0  0  0  0  0
  -16.7480  -28.6070   23.0270 C   0  0  0  0  0  3  0  0  0  0  0  0
  -25.8800  -32.4480   23.8610 C   0  0  0  0  0  3  0  0  0  0  0  0
  -25.5660  -33.8480   24.1870 N   0  0  0  0  0  0  0  0  0  0  0  0
  -25.8960  -34.9000   23.4280 C   0  0  0  0  0  0  0  0  0  0  0  0
  -26.5650  -34.7970   22.3960 O   0  0  0  0  0  0  0  0  0  0  0  0
  -24.9720  -34.0030   24.9880 H   0  0  0  0  0  0  0  0  0  0  0  0
  -24.1570  -36.6860   23.0860 C   0  0  0  0  0  1  0  0  0  0  0  0
  -25.4090  -36.2900   23.8830 C   0  0  0  0  0  3  0  0  0  0  0  0
  -27.5440  -37.1960   24.6920 C   0  0  0  0  0  1  0  0  0  0  0  0
  -26.4370  -37.3460   23.7520 N   0  0  0  0  0  0  0  0  0  0  0  0
  -26.0270  -38.2670   23.8870 H   0  0  0  0  0  0  0  0  0  0  0  0
  -26.3570  -31.6740   25.1510 C   0  0  1  0  0  0  0  0  0  0  0  0
  -25.2330  -31.4380   26.1870 C   0  0  0  0  0  1  0  0  0  0  0  0
  -26.9480  -30.2950   24.7770 C   0  0  0  0  0  1  0  0  0  0  0  0
  -27.4910  -32.4640   25.8460 C   0  0  0  0  0  1  0  0  0  0  0  0
  1  4  2  0
  2  5  2  0
  3  1  1  0
  3  2  1  0
  6  3  1  0
  7  9  1  0
  9  8  2  0
  9 20  1  0
 10  1  1  0
 10  7  2  0
 10 11  1  0
 11  8  1  0
 12 18  1  0
 12 20  1  0
 13 18  1  0
 14 15  1  0
 14 13  1  0
 16 15  1  0
 16 25  1  0
 16 17  1  0
 18 17  1  0
 19 12  2  0
 20 21  1  0
 22 23  2  0
 23 42  1  0
 24 23  1  0
 24 27  1  0
 25 26  1  0
 25 22  1  0
 26 24  2  0
 27 28  1  0
 28 29  2  0
 30 33  1  0
 30 29  1  0
 31 30  2  0
 32 31  1  0
 32 27  2  0
 33 34  1  0
 34 35  1  0
 35 36  2  0
 37 36  1  0
 37 41  1  0
 38 37  2  0
 39 34  2  0
 39 38  1  0
 40 39  1  0
 42 43  1  0
 43 46  1  0
 43 45  1  0
 44 42  2  0
 47 22  1  0
 47 48  1  0
 49 47  1  0
 50 51  1  0
 50  2  1  0
 52 63  2  0
 53 51  1  0
 53 58  1  0
 54 62  1  0
 54 64  1  0
 55 61  1  0
 55 57  1  0
 56 62  1  0
 57 56  1  0
 58 57  2  0
 59 53  2  0
 60 59  1  0
 60 55  2  0
 61 54  1  0
 62 52  1  0
 64 66  2  0
 65 64  1  0
 67 65  1  0
 68 77  2  0
 68 73  1  0
 69 65  1  0
 69 73  1  0
 70 69  1  0
 71 72  1  0
 71 70  1  0
 72 68  1  0
 73 74  2  0
 74 75  1  0
 76 75  2  0
 77 76  1  0
 78 52  1  0
 78 79  1  0
 78 88  1  0
 79 82  1  0
 80 84  1  0
 80 79  1  0
 81 80  2  0
 84 83  1  0
 86 84  1  0
 86 87  1  0
 86 85  1  0
 88 91  1  1
 88 89  1  0
 90 88  1  0
M  ISO  4  12 100  20 100  50 101  51 101
M  END
>  <TORSDO>  (53) 
F 18

>  <SCORE>  (53) 
-14.530

>  <name>  (53) 
52

>  <ligand_id>  (53) 
52

>  <original_smiles>  (53) 
[H]c1sc(C(=O)N([H])C(=O)C([H])([H])Oc2c([H])c([H])c3c(c2[H])C([H])([H])N(C(=O)C([H])(N([H])C(=O)C([H])(N([H])C([H])([H])[H])C([H])([H])[H])C(C([H])([H])[H])(C([H])([H])[H])C([H])([H])[H])C([H])(C(=O)N([H])C2([H])c4c([H])c([H])c([H])c([H])c4C([H])([H])C([H])([H])C2([H])[H])C3([H])[H])c([H])c1N([H])C(=O)N1C([H])([H])C([H])([H])C([H])([H])C([H])(n2nc(-c3c([H])c([H])c(Oc4c([H])c([H])c(F)c([H])c4F)c([H])c3[H])c(C(=O)N([H])[H])c2N([H])[H])C1([H])[H]

>  <smiles>  (53) 
[H]c1sc(C(=O)N([H])C(=O)C([H])([H])Oc2c([H])c([H])c3c(c2[H])C([H])([H])N(C(=O)C([H])(N([H])C(=O)C([H])(N([H])C([H])([H])[H])C([H])([H])[H])C(C([H])([H])[H])(C([H])([H])[H])C([H])([H])[H])C([H])(C(=O)N([H])C2([H])c4c([H])c([H])c([H])c([H])c4C([H])([H])C([H])([H])C2([H])[H])C3([H])[H])c([H])c1N([H])C(=O)N1C([H])([H])C([H])([H])C([H])([H])C([H])(n2nc(-c3c([H])c([H])c(Oc4c([H])c([H])c(F)c([H])c4F)c([H])c3[H])c(C(=O)N([H])[H])c2N([H])[H])C1([H])[H]

$$$$
53:0:0
     RDKit          3D

 91100  0  0  1  0  0  0  0  0999 V2000
  -28.6100  -23.8040   20.3100 C   0  0  0  0  0  0  0  0  0  0  0  0
  -28.0830  -22.5610   20.8670 C   0  0  0  0  0  0  0  0  0  0  0  0
  -28.1100  -25.0950   20.5140 C   0  0  0  0  0  3  0  0  0  0  0  0
  -29.7120  -22.9630   19.5890 C   0  0  0  0  0  2  0  0  0  0  0  0
  -29.0530  -21.7720   20.2110 N   0  0  0  0  0  0  0  0  0  0  0  0
  -27.1520  -22.3640   21.6210 O   0  0  0  0  0  0  0  0  0  0  0  0
  -28.7520  -19.3780   20.9860 C   0  0  0  0  0  3  0  0  0  0  0  0
  -30.4190  -19.6450   19.3600 C   0  0  0  0  0  3  0  0  0  0  0  0
  -29.0330  -17.9780   21.0580 C   0  0  0  0  0  3  0  0  0  0  0  0
  -30.7120  -18.2230   19.4130 C   0  0  0  0  0  3  0  0  0  0  0  0
  -29.4290  -20.3210   20.1570 C   0  0  0  0  0  0  0  0  0  0  0  0
  -30.0430  -17.3190   20.2980 C   0  0  0  0  0  0  0  0  0  0  0  0
  -30.8620  -14.8600   19.7410 C   0  0  0  0  0  0  0  0  0  0  0  0
  -30.5270  -12.6310   18.6150 C   0  0  0  0  0  2  0  0  0  0  0  0
  -29.4570  -12.7310   17.5040 C   0  0  0  0  0  2  0  0  0  0  0  0
  -28.0410  -12.5390   18.0820 C   0  0  0  0  0  2  0  0  0  0  0  0
  -27.8080  -13.3870   19.3580 C   0  0  0  0  0  3  0  0  0  0  0  0
  -28.9750  -13.2320   20.3510 C   0  0  0  0  0  2  0  0  0  0  0  0
  -30.2130  -13.6360   19.6630 N   0  0  0  0  0  0  0  0  0  0  0  0
  -31.8990  -15.0330   19.0900 O   0  0  0  0  0  0  0  0  0  0  0  0
  -30.4710  -15.5590   22.0010 C   0  0  0  0  0  1  0  0  0  0  0  0
  -30.3490  -15.8690   20.5640 N   0  0  0  0  0  0  0  0  0  0  0  0
  -25.5430  -13.9770   20.4090 C   0  0  0  0  0  0  0  0  0  0  0  0
  -24.5050  -13.2010   20.8480 C   0  0  0  0  0  0  0  0  0  0  0  0
  -24.9190  -11.8450   20.6650 C   0  0  0  0  0  0  0  0  0  0  0  0
  -26.5210  -13.0940   19.9820 N   0  0  0  0  0  0  0  0  0  0  0  0
  -26.1610  -11.8020   20.1980 N   0  0  0  0  0  0  0  0  0  0  0  0
  -24.1820  -10.5880   20.8520 C   0  0  0  0  0  0  0  0  0  0  0  0
  -24.6350   -9.5910   21.7430 C   0  0  0  0  0  3  0  0  0  0  0  0
  -23.9000   -8.4000   21.9180 C   0  0  0  0  0  3  0  0  0  0  0  0
  -22.6940   -8.1970   21.2020 C   0  0  0  0  0  0  0  0  0  0  0  0
  -22.2600   -9.1830   20.3000 C   0  0  0  0  0  3  0  0  0  0  0  0
  -22.9970  -10.3660   20.1220 C   0  0  0  0  0  3  0  0  0  0  0  0
  -21.9280   -7.0610   21.2900 O   0  0  0  0  0  0  0  0  0  0  0  0
  -21.8530   -6.3300   22.4480 C   0  0  0  0  0  0  0  0  0  0  0  0
  -21.4000   -6.8970   23.6590 C   0  0  0  0  0  3  0  0  0  0  0  0
  -21.2730   -6.0920   24.8090 C   0  0  0  0  0  3  0  0  0  0  0  0
  -21.5880   -4.7220   24.7480 C   0  0  0  0  0  0  0  0  0  0  0  0
  -22.0340   -4.1540   23.5430 C   0  0  0  0  0  3  0  0  0  0  0  0
  -22.1630   -4.9550   22.3940 C   0  0  0  0  0  0  0  0  0  0  0  0
  -22.5720   -4.3990   21.2290 F   0  0  0  0  0  0  0  0  0  0  0  0
  -21.4590   -3.9460   25.8510 F   0  0  0  0  0  0  0  0  0  0  0  0
  -23.1650  -13.6870   21.3220 C   0  0  0  0  0  0  0  0  0  0  0  0
  -22.5390  -12.9600   22.2410 N   0  0  0  0  0  0  0  0  0  0  0  0
  -22.6870  -14.7430   20.9110 O   0  0  0  0  0  0  0  0  0  0  0  0
  -22.9410  -12.1030   22.5930 H   0  0  0  0  0  0  0  0  0  0  0  0
  -21.6460  -13.2650   22.6000 H   0  0  0  0  0  0  0  0  0  0  0  0
  -25.7280  -15.3520   20.3150 N   0  0  0  0  0  0  0  0  0  0  0  0
  -25.0070  -16.0170   20.5770 H   0  0  0  0  0  0  0  0  0  0  0  0
  -26.5570  -15.7950   19.9400 H   0  0  0  0  0  0  0  0  0  0  0  0
  -28.4530  -26.4150   20.0860 O   0  0  0  0  0  0  0  0  0  0  0  0
  -24.7090  -31.9050   23.0950 C   0  0  0  0  0  0  0  0  0  0  0  0
  -27.3930  -27.3550   20.0360 C   0  0  0  0  0  0  0  0  0  0  0  0
  -23.5420  -30.5130   21.4250 C   0  0  0  0  0  3  0  0  0  0  0  0
  -25.0280  -28.9870   20.0010 C   0  0  0  0  0  0  0  0  0  0  0  0
  -26.0860  -30.8400   21.2860 C   0  0  0  0  0  2  0  0  0  0  0  0
  -26.1890  -29.4650   20.6250 C   0  0  0  0  0  0  0  0  0  0  0  0
  -27.3760  -28.6610   20.6350 C   0  0  0  0  0  3  0  0  0  0  0  0
  -26.2130  -26.9490   19.3760 C   0  0  0  0  0  3  0  0  0  0  0  0
  -25.0450  -27.7360   19.3650 C   0  0  0  0  0  3  0  0  0  0  0  0
  -23.7840  -29.8550   20.0410 C   0  0  0  0  0  2  0  0  0  0  0  0
  -24.7970  -31.1040   21.9910 N   0  0  0  0  0  0  0  0  0  0  0  0
  -23.6150  -32.1700   23.6150 O   0  0  0  0  0  0  0  0  0  0  0  0
  -22.8710  -29.4830   22.3660 C   0  0  0  0  0  0  0  0  0  0  0  0
  -21.5370  -29.3440   22.2650 N   0  0  0  0  0  0  0  0  0  0  0  0
  -23.5490  -28.8130   23.1500 O   0  0  0  0  0  0  0  0  0  0  0  0
  -21.0490  -29.9350   21.6060 H   0  0  0  0  0  0  0  0  0  0  0  0
  -18.1370  -28.2390   22.8300 C   0  0  0  0  0  0  0  0  0  0  0  0
  -20.7100  -28.4030   23.0230 C   0  0  0  0  0  3  0  0  0  0  0  0
  -20.7430  -26.9940   22.3850 C   0  0  0  0  0  2  0  0  0  0  0  0
  -19.5990  -26.7520   21.3970 C   0  0  0  0  0  2  0  0  0  0  0  0
  -18.2450  -26.9150   22.0930 C   0  0  0  0  0  2  0  0  0  0  0  0
  -19.2950  -28.9450   23.2530 C   0  0  0  0  0  0  0  0  0  0  0  0
  -19.1390  -30.1880   23.9050 C   0  0  0  0  0  3  0  0  0  0  0  0
  -17.8580  -30.7230   24.1370 C   0  0  0  0  0  3  0  0  0  0  0  0
  -16.7150  -30.0140   23.7290 C   0  0  0  0  0  3  0  0  0  0  0  0
  -16.8560  -28.7740   23.0820 C   0  0  0  0  0  3  0  0  0  0  0  0
  -25.9760  -32.5440   23.7410 C   0  0  0  0  0  3  0  0  0  0  0  0
  -25.6330  -33.9200   24.1270 N   0  0  0  0  0  0  0  0  0  0  0  0
  -25.9650  -35.0140   23.4270 C   0  0  0  0  0  0  0  0  0  0  0  0
  -26.6610  -34.9710   22.4090 O   0  0  0  0  0  0  0  0  0  0  0  0
  -25.0160  -34.0280   24.9200 H   0  0  0  0  0  0  0  0  0  0  0  0
  -24.2330  -36.8100   23.0980 C   0  0  0  0  0  1  0  0  0  0  0  0
  -25.4440  -36.3720   23.9390 C   0  0  0  0  0  3  0  0  0  0  0  0
  -27.5310  -37.2290   24.9060 C   0  0  0  0  0  1  0  0  0  0  0  0
  -26.4690  -37.4390   23.9260 N   0  0  0  0  0  0  0  0  0  0  0  0
  -26.0470  -38.3460   24.1050 H   0  0  0  0  0  0  0  0  0  0  0  0
  -26.5100  -31.7370   24.9870 C   0  0  1  0  0  0  0  0  0  0  0  0
  -25.4200  -31.4260   26.0410 C   0  0  0  0  0  1  0  0  0  0  0  0
  -27.1330  -30.3920   24.5450 C   0  0  0  0  0  1  0  0  0  0  0  0
  -27.6360  -32.5350   25.6860 C   0  0  0  0  0  1  0  0  0  0  0  0
  1  3  2  0
  1  2  1  0
  2  6  2  0
  4  5  1  0
  4  1  1  0
  5  2  1  0
  7  9  1  0
  8 10  2  0
  8 11  1  0
 10 12  1  0
 11  5  1  0
 11  7  2  0
 12 22  1  0
 12  9  2  0
 13 22  1  0
 14 19  1  0
 15 16  1  0
 15 14  1  0
 17 16  1  0
 17 26  1  0
 17 18  1  0
 19 13  1  0
 19 18  1  0
 20 13  2  0
 22 21  1  0
 23 24  2  0
 24 43  1  0
 25 24  1  0
 25 28  1  0
 26 27  1  0
 26 23  1  0
 27 25  2  0
 28 29  1  0
 29 30  2  0
 31 34  1  0
 31 30  1  0
 32 31  2  0
 33 32  1  0
 33 28  2  0
 34 35  1  0
 35 36  1  0
 36 37  2  0
 38 37  1  0
 38 42  1  0
 39 38  2  0
 40 35  2  0
 40 39  1  0
 41 40  1  0
 43 44  1  0
 44 46  1  0
 44 47  1  0
 45 43  2  0
 48 23  1  0
 48 49  1  0
 50 48  1  0
 51  3  1  0
 52 63  2  0
 53 51  1  0
 53 58  1  0
 54 62  1  0
 54 64  1  0
 55 61  1  0
 55 57  1  0
 56 62  1  0
 57 58  2  0
 57 56  1  0
 59 53  2  0
 60 59  1  0
 60 55  2  0
 61 54  1  0
 62 52  1  0
 64 66  2  0
 65 64  1  0
 67 65  1  0
 68 77  2  0
 68 73  1  0
 69 65  1  0
 69 73  1  0
 70 69  1  0
 71 72  1  0
 71 70  1  0
 72 68  1  0
 73 74  2  0
 74 75  1  0
 76 75  2  0
 77 76  1  0
 78 52  1  0
 78 79  1  0
 78 88  1  0
 79 82  1  0
 80 84  1  0
 80 79  1  0
 81 80  2  0
 84 83  1  0
 86 84  1  0
 86 87  1  0
 86 85  1  0
 88 91  1  1
 88 89  1  0
 90 88  1  0
M  ISO  4   3 101  13 100  22 100  51 101
M  END
>  <TORSDO>  (54) 
F 17

>  <SCORE>  (54) 
-13.503

>  <name>  (54) 
53

>  <ligand_id>  (54) 
53

>  <original_smiles>  (54) 
[H]C(Oc1c([H])c([H])c2c(c1[H])C([H])([H])N(C(=O)C([H])(N([H])C(=O)C([H])(N([H])C([H])([H])[H])C([H])([H])[H])C(C([H])([H])[H])(C([H])([H])[H])C([H])([H])[H])C([H])(C(=O)N([H])C1([H])c3c([H])c([H])c([H])c([H])c3C([H])([H])C([H])([H])C1([H])[H])C2([H])[H])=C1C(=O)N(c2c([H])c([H])c(N(C(=O)N3C([H])([H])C([H])([H])C([H])([H])C([H])(n4nc(-c5c([H])c([H])c(Oc6c([H])c([H])c(F)c([H])c6F)c([H])c5[H])c(C(=O)N([H])[H])c4N([H])[H])C3([H])[H])C([H])([H])[H])c([H])c2[H])C1([H])[H]

>  <smiles>  (54) 
[H]C(Oc1c([H])c([H])c2c(c1[H])C([H])([H])N(C(=O)C([H])(N([H])C(=O)C([H])(N([H])C([H])([H])[H])C([H])([H])[H])C(C([H])([H])[H])(C([H])([H])[H])C([H])([H])[H])C([H])(C(=O)N([H])C1([H])c3c([H])c([H])c([H])c([H])c3C([H])([H])C([H])([H])C1([H])[H])C2([H])[H])=C1C(=O)N(c2c([H])c([H])c(N(C(=O)N3C([H])([H])C([H])([H])C([H])([H])C([H])(n4nc(-c5c([H])c([H])c(Oc6c([H])c([H])c(F)c([H])c6F)c([H])c5[H])c(C(=O)N([H])[H])c4N([H])[H])C3([H])[H])C([H])([H])[H])c([H])c2[H])C1([H])[H]

$$$$
54:0:0
     RDKit          3D

 93102  0  0  1  0  0  0  0  0999 V2000
  -29.5990  -24.1090   21.8430 C   0  0  0  0  0  0  0  0  0  0  0  0
  -28.8720  -23.8510   20.7460 C   0  0  0  0  0  0  0  0  0  0  0  0
  -29.9550  -25.1890   22.5590 C   0  0  0  0  0  1  0  0  0  0  0  0
  -28.2080  -24.8670   20.0290 C   0  0  0  0  0  2  0  0  0  0  0  0
  -29.9030  -22.6700   22.0840 C   0  0  0  0  0  2  0  0  0  0  0  0
  -29.1580  -22.3770   20.8530 N   0  0  0  0  0  0  0  0  0  0  0  0
  -29.5360  -19.8890   21.2360 C   0  0  0  0  0  3  0  0  0  0  0  0
  -29.7310  -18.5080   21.1670 C   0  0  0  0  0  3  0  0  0  0  0  0
  -28.9310  -20.6330   19.0930 C   0  0  0  0  0  3  0  0  0  0  0  0
  -29.3850  -17.9050   18.9250 C   0  0  0  0  0  3  0  0  0  0  0  0
  -29.1880  -20.9430   20.3890 C   0  0  0  0  0  0  0  0  0  0  0  0
  -29.7330  -17.5360   20.1870 C   0  0  0  0  0  0  0  0  0  0  0  0
  -29.0070  -19.2820   18.4030 C   0  0  0  0  0  0  0  0  0  0  0  0
  -28.6810  -19.3030   17.2130 O   0  0  0  0  0  0  0  0  0  0  0  0
  -30.5310  -14.9710   20.0480 C   0  0  0  0  0  0  0  0  0  0  0  0
  -30.3660  -12.6570   19.0500 C   0  0  0  0  0  2  0  0  0  0  0  0
  -29.3730  -12.6990   17.8640 C   0  0  0  0  0  2  0  0  0  0  0  0
  -27.9260  -12.4900   18.3490 C   0  0  0  0  0  2  0  0  0  0  0  0
  -27.5940  -13.3680   19.5850 C   0  0  0  0  0  3  0  0  0  0  0  0
  -28.6970  -13.2930   20.6630 C   0  0  0  0  0  2  0  0  0  0  0  0
  -29.9610  -13.7010   20.0330 N   0  0  0  0  0  0  0  0  0  0  0  0
  -31.6560  -15.1060   19.5540 O   0  0  0  0  0  0  0  0  0  0  0  0
  -29.7740  -16.0740   20.5050 N   0  0  0  0  0  0  0  0  0  0  0  0
  -28.9830  -15.7760   21.0590 H   0  0  0  0  0  0  0  0  0  0  0  0
  -25.2470  -13.9390   20.4410 C   0  0  0  0  0  0  0  0  0  0  0  0
  -24.2010  -13.1570   20.8490 C   0  0  0  0  0  0  0  0  0  0  0  0
  -24.6590  -11.8070   20.7650 C   0  0  0  0  0  0  0  0  0  0  0  0
  -26.2760  -13.0640   20.1330 N   0  0  0  0  0  0  0  0  0  0  0  0
  -25.9330  -11.7760   20.3910 N   0  0  0  0  0  0  0  0  0  0  0  0
  -23.9390  -10.5410   20.9650 C   0  0  0  0  0  0  0  0  0  0  0  0
  -24.3950   -9.5680   21.8820 C   0  0  0  0  0  3  0  0  0  0  0  0
  -23.6730   -8.3690   22.0700 C   0  0  0  0  0  3  0  0  0  0  0  0
  -22.4830   -8.1350   21.3420 C   0  0  0  0  0  0  0  0  0  0  0  0
  -22.0450   -9.0970   20.4150 C   0  0  0  0  0  3  0  0  0  0  0  0
  -22.7670  -10.2880   20.2250 C   0  0  0  0  0  3  0  0  0  0  0  0
  -21.7290   -6.9890   21.4410 O   0  0  0  0  0  0  0  0  0  0  0  0
  -21.6790   -6.2600   22.6020 C   0  0  0  0  0  0  0  0  0  0  0  0
  -21.2500   -6.8280   23.8210 C   0  0  0  0  0  3  0  0  0  0  0  0
  -21.1460   -6.0240   24.9730 C   0  0  0  0  0  3  0  0  0  0  0  0
  -21.4620   -4.6530   24.9090 C   0  0  0  0  0  0  0  0  0  0  0  0
  -21.8840   -4.0850   23.6940 C   0  0  0  0  0  3  0  0  0  0  0  0
  -21.9890   -4.8850   22.5440 C   0  0  0  0  0  0  0  0  0  0  0  0
  -22.3750   -4.3290   21.3700 F   0  0  0  0  0  0  0  0  0  0  0  0
  -21.3550   -3.8780   26.0130 F   0  0  0  0  0  0  0  0  0  0  0  0
  -22.8200  -13.6310   21.2010 C   0  0  0  0  0  0  0  0  0  0  0  0
  -22.1360  -12.9210   22.0910 N   0  0  0  0  0  0  0  0  0  0  0  0
  -22.3580  -14.6660   20.7210 O   0  0  0  0  0  0  0  0  0  0  0  0
  -22.5220  -12.0830   22.5020 H   0  0  0  0  0  0  0  0  0  0  0  0
  -21.2100  -13.2180   22.3690 H   0  0  0  0  0  0  0  0  0  0  0  0
  -25.4050  -15.3130   20.2830 N   0  0  0  0  0  0  0  0  0  0  0  0
  -24.6410  -15.9630   20.4340 H   0  0  0  0  0  0  0  0  0  0  0  0
  -26.2360  -15.7580   19.9150 H   0  0  0  0  0  0  0  0  0  0  0  0
  -28.2820  -26.3120   20.2420 O   0  0  0  0  0  0  0  0  0  0  0  0
  -24.6430  -31.9210   23.2390 C   0  0  0  0  0  0  0  0  0  0  0  0
  -27.1890  -27.2390   20.1760 C   0  0  0  0  0  0  0  0  0  0  0  0
  -23.4250  -30.5290   21.6070 C   0  0  0  0  0  3  0  0  0  0  0  0
  -24.8550  -28.9590   20.1630 C   0  0  0  0  0  0  0  0  0  0  0  0
  -25.9710  -30.8000   21.4170 C   0  0  0  0  0  2  0  0  0  0  0  0
  -26.0340  -29.4120   20.7650 C   0  0  0  0  0  0  0  0  0  0  0  0
  -27.1990  -28.5660   20.7580 C   0  0  0  0  0  3  0  0  0  0  0  0
  -25.9840  -26.8760   19.5360 C   0  0  0  0  0  3  0  0  0  0  0  0
  -24.8380  -27.7050   19.5350 C   0  0  0  0  0  3  0  0  0  0  0  0
  -23.6280  -29.8550   20.2240 C   0  0  0  0  0  2  0  0  0  0  0  0
  -24.7000  -31.1050   22.1430 N   0  0  0  0  0  0  0  0  0  0  0  0
  -23.5630  -32.2050   23.7790 O   0  0  0  0  0  0  0  0  0  0  0  0
  -22.7550  -29.5210   22.5740 C   0  0  0  0  0  0  0  0  0  0  0  0
  -21.4270  -29.3470   22.4510 N   0  0  0  0  0  0  0  0  0  0  0  0
  -23.4330  -28.8960   23.3940 O   0  0  0  0  0  0  0  0  0  0  0  0
  -20.9380  -29.9010   21.7610 H   0  0  0  0  0  0  0  0  0  0  0  0
  -18.0500  -28.1410   22.9580 C   0  0  0  0  0  0  0  0  0  0  0  0
  -20.6080  -28.4110   23.2250 C   0  0  0  0  0  3  0  0  0  0  0  0
  -20.7140  -26.9770   22.6540 C   0  0  0  0  0  2  0  0  0  0  0  0
  -19.6140  -26.6480   21.6410 C   0  0  0  0  0  2  0  0  0  0  0  0
  -18.2320  -26.7910   22.2850 C   0  0  0  0  0  2  0  0  0  0  0  0
  -19.1670  -28.9090   23.3830 C   0  0  0  0  0  0  0  0  0  0  0  0
  -18.9430  -30.1720   23.9730 C   0  0  0  0  0  3  0  0  0  0  0  0
  -17.6370  -30.6680   24.1420 C   0  0  0  0  0  3  0  0  0  0  0  0
  -16.5350  -29.8970   23.7320 C   0  0  0  0  0  3  0  0  0  0  0  0
  -16.7430  -28.6370   23.1440 C   0  0  0  0  0  3  0  0  0  0  0  0
  -25.9290  -32.5490   23.8570 C   0  0  0  0  0  3  0  0  0  0  0  0
  -25.6240  -33.9460   24.2020 N   0  0  0  0  0  0  0  0  0  0  0  0
  -25.9310  -35.0060   23.4440 C   0  0  0  0  0  0  0  0  0  0  0  0
  -26.5730  -34.9130   22.3930 O   0  0  0  0  0  0  0  0  0  0  0  0
  -25.0510  -34.0940   25.0200 H   0  0  0  0  0  0  0  0  0  0  0  0
  -24.1800  -36.7930   23.1680 C   0  0  0  0  0  1  0  0  0  0  0  0
  -25.4550  -36.3920   23.9260 C   0  0  0  0  0  3  0  0  0  0  0  0
  -27.6150  -37.2900   24.6760 C   0  0  0  0  0  1  0  0  0  0  0  0
  -26.4770  -37.4510   23.7750 N   0  0  0  0  0  0  0  0  0  0  0  0
  -26.0710  -38.3690   23.9390 H   0  0  0  0  0  0  0  0  0  0  0  0
  -26.4530  -31.7710   25.1270 C   0  0  1  0  0  0  0  0  0  0  0  0
  -25.3680  -31.5320   26.2020 C   0  0  0  0  0  1  0  0  0  0  0  0
  -27.0300  -30.3930   24.7280 C   0  0  0  0  0  1  0  0  0  0  0  0
  -27.6090  -32.5600   25.7850 C   0  0  0  0  0  1  0  0  0  0  0  0
  1  5  1  0
  1  3  1  0
  2  6  1  0
  2  1  2  0
  4 53  1  0
  4  2  1  0
  6  5  1  0
  8  7  2  0
  9 11  2  0
 10 12  2  0
 11  6  1  0
 11  7  1  0
 12 23  1  0
 12  8  1  0
 13 10  1  0
 13  9  1  0
 14 13  2  0
 15 23  1  0
 16 21  1  0
 17 18  1  0
 17 16  1  0
 19 18  1  0
 19 28  1  0
 19 20  1  0
 21 15  1  0
 21 20  1  0
 22 15  2  0
 23 24  1  0
 25 26  2  0
 26 45  1  0
 27 26  1  0
 27 30  1  0
 28 29  1  0
 28 25  1  0
 29 27  2  0
 30 31  1  0
 31 32  2  0
 33 36  1  0
 33 32  1  0
 34 33  2  0
 35 34  1  0
 35 30  2  0
 36 37  1  0
 37 38  1  0
 38 39  2  0
 40 39  1  0
 40 44  1  0
 41 40  2  0
 42 37  2  0
 42 41  1  0
 43 42  1  0
 45 46  1  0
 46 49  1  0
 46 48  1  0
 47 45  2  0
 50 51  1  0
 50 25  1  0
 52 50  1  0
 54 65  2  0
 55 53  1  0
 55 60  1  0
 56 64  1  0
 56 66  1  0
 57 63  1  0
 57 59  1  0
 58 64  1  0
 59 58  1  0
 60 59  2  0
 61 55  2  0
 62 61  1  0
 62 57  2  0
 63 56  1  0
 64 54  1  0
 66 68  2  0
 67 66  1  0
 69 67  1  0
 70 79  2  0
 70 75  1  0
 71 67  1  0
 71 75  1  0
 72 71  1  0
 73 74  1  0
 73 72  1  0
 74 70  1  0
 75 76  2  0
 76 77  1  0
 78 77  2  0
 79 78  1  0
 80 54  1  0
 80 81  1  0
 80 90  1  0
 81 84  1  0
 82 86  1  0
 82 81  1  0
 83 82  2  0
 86 85  1  0
 88 86  1  0
 88 89  1  0
 88 87  1  0
 90 93  1  1
 90 91  1  0
 92 90  1  0
M  ISO  4   4 101  15 100  23 100  53 101
M  END
>  <TORSDO>  (55) 
F 17

>  <SCORE>  (55) 
-15.054

>  <name>  (55) 
54

>  <ligand_id>  (55) 
54

>  <original_smiles>  (55) 
[H]C([H])=C1C(=C([H])Oc2c([H])c([H])c3c(c2[H])C([H])([H])N(C(=O)C([H])(N([H])C(=O)C([H])(N([H])C([H])([H])[H])C([H])([H])[H])C(C([H])([H])[H])(C([H])([H])[H])C([H])([H])[H])C([H])(C(=O)N([H])C2([H])c4c([H])c([H])c([H])c([H])c4C([H])([H])C([H])([H])C2([H])[H])C3([H])[H])N(c2c([H])c([H])c(N([H])C(=O)N3C([H])([H])C([H])([H])C([H])([H])C([H])(n4nc(-c5c([H])c([H])c(Oc6c([H])c([H])c(F)c([H])c6F)c([H])c5[H])c(C(=O)N([H])[H])c4N([H])[H])C3([H])[H])c([H])c(=O)c2[H])C1([H])[H]

>  <smiles>  (55) 
[H]C([H])=C1C(=C([H])Oc2c([H])c([H])c3c(c2[H])C([H])([H])N(C(=O)C([H])(N([H])C(=O)C([H])(N([H])C([H])([H])[H])C([H])([H])[H])C(C([H])([H])[H])(C([H])([H])[H])C([H])([H])[H])C([H])(C(=O)N([H])C2([H])c4c([H])c([H])c([H])c([H])c4C([H])([H])C([H])([H])C2([H])[H])C3([H])[H])N(c2c([H])c([H])c(N([H])C(=O)N3C([H])([H])C([H])([H])C([H])([H])C([H])(n4nc(-c5c([H])c([H])c(Oc6c([H])c([H])c(F)c([H])c6F)c([H])c5[H])c(C(=O)N([H])[H])c4N([H])[H])C3([H])[H])c([H])c(=O)c2[H])C1([H])[H]

$$$$
55:0:0
     RDKit          3D

 96105  0  0  1  0  0  0  0  0999 V2000
  -28.2230  -24.6010   21.2460 C   0  0  0  0  0  0  0  0  0  0  0  0
  -27.6930  -23.9180   22.4030 C   0  0  0  0  0  0  0  0  0  0  0  0
  -28.8030  -23.5630   20.3810 C   0  0  0  0  0  0  0  0  0  0  0  0
  -27.1930  -24.4790   23.5200 C   0  0  0  0  0  1  0  0  0  0  0  0
  -28.1060  -25.9480   21.0500 C   0  0  0  0  0  2  0  0  0  0  0  0
  -27.7860  -22.4430   22.1970 C   0  0  0  0  0  2  0  0  0  0  0  0
  -28.5670  -22.3470   20.9710 N   0  0  0  0  0  0  0  0  0  0  0  0
  -29.4030  -23.7280   19.3150 O   0  0  0  0  0  0  0  0  0  0  0  0
  -31.0750  -19.5800   21.1580 C   0  0  0  0  0  3  0  0  0  0  0  0
  -30.5020  -20.8680   21.1990 C   0  0  0  0  0  3  0  0  0  0  0  0
  -29.0990  -18.6940   20.0780 C   0  0  0  0  0  3  0  0  0  0  0  0
  -30.3940  -18.4610   20.6080 C   0  0  0  0  0  0  0  0  0  0  0  0
  -29.2060  -21.0890   20.7000 C   0  0  0  0  0  0  0  0  0  0  0  0
  -28.5060  -19.9880   20.1410 C   0  0  0  0  0  0  0  0  0  0  0  0
  -27.2430  -20.1590   19.6830 F   0  0  0  0  0  0  0  0  0  0  0  0
  -31.0530  -14.7770   19.9830 C   0  0  0  0  0  0  0  0  0  0  0  0
  -30.6270  -12.5670   18.9640 C   0  0  0  0  0  2  0  0  0  0  0  0
  -29.6240  -12.6900   17.8020 C   0  0  0  0  0  2  0  0  0  0  0  0
  -28.1870  -12.5490   18.3350 C   0  0  0  0  0  2  0  0  0  0  0  0
  -27.9110  -13.4460   19.5710 C   0  0  0  0  0  3  0  0  0  0  0  0
  -29.0410  -13.3580   20.6210 C   0  0  0  0  0  2  0  0  0  0  0  0
  -30.3110  -13.6330   19.9380 N   0  0  0  0  0  0  0  0  0  0  0  0
  -32.1760  -14.7870   19.4710 O   0  0  0  0  0  0  0  0  0  0  0  0
  -31.1260  -17.1220   20.5490 C   0  0  0  0  0  0  0  0  0  0  0  0
  -30.4660  -15.9340   20.4090 N   0  0  0  0  0  0  0  0  0  0  0  0
  -32.3580  -17.1830   20.6650 O   0  0  0  0  0  0  0  0  0  0  0  0
  -29.4740  -15.9240   20.5720 H   0  0  0  0  0  0  0  0  0  0  0  0
  -25.6030  -14.0370   20.5290 C   0  0  0  0  0  0  0  0  0  0  0  0
  -24.5530  -13.2610   20.9380 C   0  0  0  0  0  0  0  0  0  0  0  0
  -24.9800  -11.9060   20.7840 C   0  0  0  0  0  0  0  0  0  0  0  0
  -26.6040  -13.1560   20.1540 N   0  0  0  0  0  0  0  0  0  0  0  0
  -26.2400  -11.8660   20.3690 N   0  0  0  0  0  0  0  0  0  0  0  0
  -24.2440  -10.6470   20.9540 C   0  0  0  0  0  0  0  0  0  0  0  0
  -24.6600   -9.6660   21.8820 C   0  0  0  0  0  3  0  0  0  0  0  0
  -23.9240   -8.4720   22.0390 C   0  0  0  0  0  3  0  0  0  0  0  0
  -22.7580   -8.2510   21.2680 C   0  0  0  0  0  0  0  0  0  0  0  0
  -22.3630   -9.2190   20.3280 C   0  0  0  0  0  3  0  0  0  0  0  0
  -23.0980  -10.4050   20.1690 C   0  0  0  0  0  3  0  0  0  0  0  0
  -21.9940   -7.1100   21.3350 O   0  0  0  0  0  0  0  0  0  0  0  0
  -21.8260   -6.4250   22.5110 C   0  0  0  0  0  0  0  0  0  0  0  0
  -21.2580   -7.0320   23.6540 C   0  0  0  0  0  3  0  0  0  0  0  0
  -21.0430   -6.2710   24.8210 C   0  0  0  0  0  3  0  0  0  0  0  0
  -21.3820   -4.9050   24.8440 C   0  0  0  0  0  0  0  0  0  0  0  0
  -21.9380   -4.2970   23.7050 C   0  0  0  0  0  3  0  0  0  0  0  0
  -22.1570   -5.0550   22.5410 C   0  0  0  0  0  0  0  0  0  0  0  0
  -22.6760   -4.4600   21.4410 F   0  0  0  0  0  0  0  0  0  0  0  0
  -21.1660   -4.1710   25.9610 F   0  0  0  0  0  0  0  0  0  0  0  0
  -23.1940  -13.7440   21.3520 C   0  0  0  0  0  0  0  0  0  0  0  0
  -22.5260  -13.0120   22.2350 N   0  0  0  0  0  0  0  0  0  0  0  0
  -22.7380  -14.8050   20.9290 O   0  0  0  0  0  0  0  0  0  0  0  0
  -22.9100  -12.1510   22.5970 H   0  0  0  0  0  0  0  0  0  0  0  0
  -21.6170  -13.3140   22.5520 H   0  0  0  0  0  0  0  0  0  0  0  0
  -25.7840  -15.4120   20.4230 N   0  0  0  0  0  0  0  0  0  0  0  0
  -25.0400  -16.0690   20.6280 H   0  0  0  0  0  0  0  0  0  0  0  0
  -26.6020  -15.8540   20.0220 H   0  0  0  0  0  0  0  0  0  0  0  0
  -28.3610  -26.7540   19.9470 O   0  0  0  0  0  0  0  0  0  0  0  0
  -24.5970  -31.9040   23.0460 C   0  0  0  0  0  0  0  0  0  0  0  0
  -27.3130  -27.6390   19.7780 C   0  0  0  0  0  0  0  0  0  0  0  0
  -23.4190  -30.5530   21.3410 C   0  0  0  0  0  3  0  0  0  0  0  0
  -24.9070  -29.1260   19.8300 C   0  0  0  0  0  0  0  0  0  0  0  0
  -25.9410  -30.9750   21.1600 C   0  0  0  0  0  2  0  0  0  0  0  0
  -26.0570  -29.6410   20.4430 C   0  0  0  0  0  0  0  0  0  0  0  0
  -27.2710  -28.9080   20.4110 C   0  0  0  0  0  3  0  0  0  0  0  0
  -26.1540  -27.1530   19.1430 C   0  0  0  0  0  3  0  0  0  0  0  0
  -24.9540  -27.8850   19.1690 C   0  0  0  0  0  3  0  0  0  0  0  0
  -23.6410  -29.9480   19.9290 C   0  0  0  0  0  2  0  0  0  0  0  0
  -24.6710  -31.1570   21.9070 N   0  0  0  0  0  0  0  0  0  0  0  0
  -23.5100  -32.1280   23.5970 O   0  0  0  0  0  0  0  0  0  0  0  0
  -22.7890  -29.4770   22.2540 C   0  0  0  0  0  0  0  0  0  0  0  0
  -21.4620  -29.3020   22.1470 N   0  0  0  0  0  0  0  0  0  0  0  0
  -23.4900  -28.8070   23.0170 O   0  0  0  0  0  0  0  0  0  0  0  0
  -20.9590  -29.9000   21.5080 H   0  0  0  0  0  0  0  0  0  0  0  0
  -18.0880  -28.1270   22.7020 C   0  0  0  0  0  0  0  0  0  0  0  0
  -20.6600  -28.3200   22.8780 C   0  0  0  0  0  3  0  0  0  0  0  0
  -20.7070  -26.9370   22.1880 C   0  0  0  0  0  2  0  0  0  0  0  0
  -19.5580  -26.7130   21.2010 C   0  0  0  0  0  2  0  0  0  0  0  0
  -18.2090  -26.8310   21.9160 C   0  0  0  0  0  2  0  0  0  0  0  0
  -19.2400  -28.8350   23.1370 C   0  0  0  0  0  0  0  0  0  0  0  0
  -19.0710  -30.0510   23.8340 C   0  0  0  0  0  3  0  0  0  0  0  0
  -17.7860  -30.5590   24.0980 C   0  0  0  0  0  3  0  0  0  0  0  0
  -16.6500  -29.8450   23.6790 C   0  0  0  0  0  3  0  0  0  0  0  0
  -16.8030  -28.6310   22.9880 C   0  0  0  0  0  3  0  0  0  0  0  0
  -25.8680  -32.5360   23.6960 C   0  0  0  0  0  3  0  0  0  0  0  0
  -25.5350  -33.9150   24.0750 N   0  0  0  0  0  0  0  0  0  0  0  0
  -25.8620  -35.0030   23.3630 C   0  0  0  0  0  0  0  0  0  0  0  0
  -26.5460  -34.9490   22.3350 O   0  0  0  0  0  0  0  0  0  0  0  0
  -24.9350  -34.0320   24.8780 H   0  0  0  0  0  0  0  0  0  0  0  0
  -24.1150  -36.7850   23.0450 C   0  0  0  0  0  1  0  0  0  0  0  0
  -25.3450  -36.3640   23.8650 C   0  0  0  0  0  3  0  0  0  0  0  0
  -27.4490  -37.2430   24.7750 C   0  0  0  0  0  1  0  0  0  0  0  0
  -26.3640  -37.4360   23.8150 N   0  0  0  0  0  0  0  0  0  0  0  0
  -25.9440  -38.3430   23.9900 H   0  0  0  0  0  0  0  0  0  0  0  0
  -26.3960  -31.7280   24.9460 C   0  0  1  0  0  0  0  0  0  0  0  0
  -25.3070  -31.4330   26.0020 C   0  0  0  0  0  1  0  0  0  0  0  0
  -27.0000  -30.3760   24.5040 C   0  0  0  0  0  1  0  0  0  0  0  0
  -27.5350  -32.5140   25.6370 C   0  0  0  0  0  1  0  0  0  0  0  0
  1  2  2  0
  2  4  1  0
  3  7  1  0
  3  1  1  0
  5  1  1  0
  6  2  1  0
  7  6  1  0
  8  3  2  0
  9 10  1  0
 11 14  2  0
 11 12  1  0
 12  9  2  0
 13  7  1  0
 13 10  2  0
 14 13  1  0
 15 14  1  0
 16 25  1  0
 17 22  1  0
 18 19  1  0
 18 17  1  0
 20 19  1  0
 20 31  1  0
 20 21  1  0
 22 16  1  0
 22 21  1  0
 23 16  2  0
 24 12  1  0
 24 26  2  0
 25 24  1  0
 25 27  1  0
 28 29  2  0
 29 48  1  0
 30 29  1  0
 30 33  1  0
 31 32  1  0
 31 28  1  0
 32 30  2  0
 33 34  1  0
 34 35  2  0
 36 39  1  0
 36 35  1  0
 37 36  2  0
 38 37  1  0
 38 33  2  0
 39 40  1  0
 40 45  2  0
 40 41  1  0
 41 42  2  0
 42 43  1  0
 43 47  1  0
 44 43  2  0
 45 44  1  0
 46 45  1  0
 48 49  1  0
 49 52  1  0
 49 51  1  0
 50 48  2  0
 53 28  1  0
 53 54  1  0
 55 53  1  0
 56  5  1  0
 57 68  2  0
 58 56  1  0
 58 63  1  0
 59 67  1  0
 59 69  1  0
 60 66  1  0
 60 62  1  0
 61 67  1  0
 62 61  1  0
 63 62  2  0
 64 65  1  0
 64 58  2  0
 65 60  2  0
 66 59  1  0
 67 57  1  0
 69 71  2  0
 70 69  1  0
 72 70  1  0
 73 82  2  0
 73 78  1  0
 74 70  1  0
 74 78  1  0
 75 74  1  0
 76 77  1  0
 76 75  1  0
 77 73  1  0
 78 79  2  0
 79 80  1  0
 81 80  2  0
 82 81  1  0
 83 57  1  0
 83 84  1  0
 83 93  1  0
 84 87  1  0
 85 89  1  0
 85 84  1  0
 86 85  2  0
 89 88  1  0
 91 89  1  0
 91 92  1  0
 91 90  1  0
 93 96  1  1
 93 94  1  0
 95 93  1  0
M  ISO  4   5 101  16 100  25 100  56 101
M  END
>  <TORSDO>  (56) 
F 17

>  <SCORE>  (56) 
-12.702

>  <name>  (56) 
55

>  <ligand_id>  (56) 
55

>  <original_smiles>  (56) 
[H]C([H])=C1C(=C([H])Oc2c([H])c([H])c3c(c2[H])C([H])([H])N(C(=O)C([H])(N([H])C(=O)C([H])(N([H])C([H])([H])[H])C([H])([H])[H])C(C([H])([H])[H])(C([H])([H])[H])C([H])([H])[H])C([H])(C(=O)N([H])C2([H])c4c([H])c([H])c([H])c([H])c4C([H])([H])C([H])([H])C2([H])[H])C3([H])[H])C(=O)N(c2c([H])c([H])c(C(=O)N([H])C(=O)N3C([H])([H])C([H])([H])C([H])([H])C([H])(n4nc(-c5c([H])c([H])c(Oc6c([H])c([H])c(F)c([H])c6F)c([H])c5[H])c(C(=O)N([H])[H])c4N([H])[H])C3([H])[H])c([H])c2F)C1([H])[H]

>  <smiles>  (56) 
[H]C([H])=C1C(=C([H])Oc2c([H])c([H])c3c(c2[H])C([H])([H])N(C(=O)C([H])(N([H])C(=O)C([H])(N([H])C([H])([H])[H])C([H])([H])[H])C(C([H])([H])[H])(C([H])([H])[H])C([H])([H])[H])C([H])(C(=O)N([H])C2([H])c4c([H])c([H])c([H])c([H])c4C([H])([H])C([H])([H])C2([H])[H])C3([H])[H])C(=O)N(c2c([H])c([H])c(C(=O)N([H])C(=O)N3C([H])([H])C([H])([H])C([H])([H])C([H])(n4nc(-c5c([H])c([H])c(Oc6c([H])c([H])c(F)c([H])c6F)c([H])c5[H])c(C(=O)N([H])[H])c4N([H])[H])C3([H])[H])c([H])c2F)C1([H])[H]

$$$$
56:0:0
     RDKit          3D

 97105  0  0  1  0  0  0  0  0999 V2000
  -29.5190  -20.7130   21.3440 C   0  0  0  0  0  0  0  0  0  0  0  0
  -29.8500  -23.1830   21.1400 C   0  0  0  0  0  0  0  0  0  0  0  0
  -30.2510  -21.8060   21.0390 N   0  0  0  0  0  0  0  0  0  0  0  0
  -28.2630  -20.8060   21.7960 N   0  0  0  0  0  4  0  0  0  0  0  0
  -28.7480  -23.5200   21.5870 O   0  0  0  0  0  0  0  0  0  0  0  0
  -31.1730  -21.5550   20.7150 H   0  0  0  0  0  0  0  0  0  0  0  0
  -27.6970  -19.9850   21.9420 H   0  0  0  0  0  0  0  0  0  0  0  0
  -27.8640  -21.7280   21.9250 H   0  0  0  0  0  0  0  0  0  0  0  0
  -30.6020  -18.9320   19.9340 C   0  0  0  0  0  3  0  0  0  0  0  0
  -31.0700  -17.6080   19.7790 C   0  0  0  0  0  3  0  0  0  0  0  0
  -30.0750  -18.4740   22.2700 C   0  0  0  0  0  3  0  0  0  0  0  0
  -30.0850  -19.3680   21.1770 C   0  0  0  0  0  0  0  0  0  0  0  0
  -31.0140  -16.7040   20.8680 C   0  0  0  0  0  0  0  0  0  0  0  0
  -30.5310  -17.1540   22.1130 C   0  0  0  0  0  0  0  0  0  0  0  0
  -30.4740  -16.2930   23.1580 F   0  0  0  0  0  0  0  0  0  0  0  0
  -31.6210  -14.6120   19.7090 C   0  0  0  0  0  0  0  0  0  0  0  0
  -31.1870  -12.4510   18.5940 C   0  0  0  0  0  2  0  0  0  0  0  0
  -30.0790  -12.5880   17.5320 C   0  0  0  0  0  2  0  0  0  0  0  0
  -28.6840  -12.4270   18.1670 C   0  0  0  0  0  2  0  0  0  0  0  0
  -28.5000  -13.3180   19.4210 C   0  0  0  0  0  3  0  0  0  0  0  0
  -29.6930  -13.1420   20.3860 C   0  0  0  0  0  2  0  0  0  0  0  0
  -30.9460  -13.4340   19.6590 N   0  0  0  0  0  0  0  0  0  0  0  0
  -32.4830  -14.9430   18.8880 O   0  0  0  0  0  0  0  0  0  0  0  0
  -31.3650  -15.3330   20.8040 N   0  0  0  0  0  0  0  0  0  0  0  0
  -30.9430  -14.7980   21.5490 H   0  0  0  0  0  0  0  0  0  0  0  0
  -26.3080  -13.9330   20.6320 C   0  0  0  0  0  0  0  0  0  0  0  0
  -25.2580  -13.1690   21.0680 C   0  0  0  0  0  0  0  0  0  0  0  0
  -25.5940  -11.8180   20.7450 C   0  0  0  0  0  0  0  0  0  0  0  0
  -27.2250  -13.0480   20.0860 N   0  0  0  0  0  0  0  0  0  0  0  0
  -26.8050  -11.7610   20.2030 N   0  0  0  0  0  0  0  0  0  0  0  0
  -24.8120  -10.5820   20.8680 C   0  0  0  0  0  0  0  0  0  0  0  0
  -25.2190   -9.5320   21.7220 C   0  0  0  0  0  3  0  0  0  0  0  0
  -24.4410   -8.3610   21.8360 C   0  0  0  0  0  3  0  0  0  0  0  0
  -23.2420   -8.2300   21.0970 C   0  0  0  0  0  0  0  0  0  0  0  0
  -22.8530   -9.2680   20.2330 C   0  0  0  0  0  3  0  0  0  0  0  0
  -23.6300  -10.4320   20.1160 C   0  0  0  0  0  3  0  0  0  0  0  0
  -22.4350   -7.1180   21.1260 O   0  0  0  0  0  0  0  0  0  0  0  0
  -22.2160   -6.4170   22.2850 C   0  0  0  0  0  0  0  0  0  0  0  0
  -21.7090   -7.0390   23.4470 C   0  0  0  0  0  3  0  0  0  0  0  0
  -21.4330   -6.2690   24.5940 C   0  0  0  0  0  3  0  0  0  0  0  0
  -21.6540   -4.8780   24.5790 C   0  0  0  0  0  0  0  0  0  0  0  0
  -22.1520   -4.2560   23.4210 C   0  0  0  0  0  3  0  0  0  0  0  0
  -22.4300   -5.0240   22.2760 C   0  0  0  0  0  0  0  0  0  0  0  0
  -22.8910   -4.4170   21.1560 F   0  0  0  0  0  0  0  0  0  0  0  0
  -21.3810   -4.1370   25.6780 F   0  0  0  0  0  0  0  0  0  0  0  0
  -23.9730  -13.6670   21.6620 C   0  0  0  0  0  0  0  0  0  0  0  0
  -23.3820  -12.9030   22.5750 N   0  0  0  0  0  0  0  0  0  0  0  0
  -23.5070  -14.7630   21.3530 O   0  0  0  0  0  0  0  0  0  0  0  0
  -23.7750  -12.0130   22.8460 H   0  0  0  0  0  0  0  0  0  0  0  0
  -22.5260  -13.2140   23.0130 H   0  0  0  0  0  0  0  0  0  0  0  0
  -26.5510  -15.3040   20.6400 N   0  0  0  0  0  0  0  0  0  0  0  0
  -25.8650  -15.9710   20.9750 H   0  0  0  0  0  0  0  0  0  0  0  0
  -27.3620  -15.7430   20.2230 H   0  0  0  0  0  0  0  0  0  0  0  0
  -30.8810  -24.2120   20.6560 C   0  0  0  0  0  2  0  0  0  0  0  0
  -30.3160  -25.2110   19.6220 C   0  0  0  0  0  2  0  0  0  0  0  0
  -29.2770  -26.2110   20.1620 C   0  0  0  0  0  2  0  0  0  0  0  0
  -28.9190  -27.0880   19.1050 O   0  0  0  0  0  0  0  0  0  0  0  0
  -24.9940  -31.4800   23.1030 C   0  0  0  0  0  0  0  0  0  0  0  0
  -27.7250  -27.7290   19.3010 C   0  0  0  0  0  0  0  0  0  0  0  0
  -23.7920  -30.2930   21.2940 C   0  0  0  0  0  3  0  0  0  0  0  0
  -25.2630  -29.0610   19.6130 C   0  0  0  0  0  0  0  0  0  0  0  0
  -26.2870  -30.8060   21.0860 C   0  0  0  0  0  2  0  0  0  0  0  0
  -26.4120  -29.5530   20.2470 C   0  0  0  0  0  0  0  0  0  0  0  0
  -27.6480  -28.8900   20.0960 C   0  0  0  0  0  3  0  0  0  0  0  0
  -26.5650  -27.2370   18.6690 C   0  0  0  0  0  3  0  0  0  0  0  0
  -25.3310  -27.8980   18.8250 C   0  0  0  0  0  3  0  0  0  0  0  0
  -23.9830  -29.8390   19.8220 C   0  0  0  0  0  2  0  0  0  0  0  0
  -25.0440  -30.8650   21.8880 N   0  0  0  0  0  0  0  0  0  0  0  0
  -23.9220  -31.6160   23.7090 O   0  0  0  0  0  0  0  0  0  0  0  0
  -23.2190  -29.1070   22.1030 C   0  0  0  0  0  0  0  0  0  0  0  0
  -21.8970  -28.8940   21.9930 N   0  0  0  0  0  0  0  0  0  0  0  0
  -23.9570  -28.3880   22.7820 O   0  0  0  0  0  0  0  0  0  0  0  0
  -21.3620  -29.5320   21.4210 H   0  0  0  0  0  0  0  0  0  0  0  0
  -18.5870  -27.5090   22.4090 C   0  0  0  0  0  0  0  0  0  0  0  0
  -21.1440  -27.8150   22.6310 C   0  0  0  0  0  3  0  0  0  0  0  0
  -21.2680  -26.5000   21.8270 C   0  0  0  0  0  2  0  0  0  0  0  0
  -20.1370  -26.3030   20.8130 C   0  0  0  0  0  2  0  0  0  0  0  0
  -18.7790  -26.2910   21.5210 C   0  0  0  0  0  2  0  0  0  0  0  0
  -19.6980  -28.2340   22.9170 C   0  0  0  0  0  0  0  0  0  0  0  0
  -19.4650  -29.3790   23.7090 C   0  0  0  0  0  3  0  0  0  0  0  0
  -18.1530  -29.8000   23.9970 C   0  0  0  0  0  3  0  0  0  0  0  0
  -17.0570  -29.0700   23.5060 C   0  0  0  0  0  3  0  0  0  0  0  0
  -17.2760  -27.9250   22.7170 C   0  0  0  0  0  3  0  0  0  0  0  0
  -26.2750  -32.0660   23.7770 C   0  0  0  0  0  3  0  0  0  0  0  0
  -26.8740  -31.1270   24.8950 C   0  0  1  0  0  0  0  0  0  0  0  0
  -25.8320  -30.6590   25.9370 C   0  0  0  0  0  1  0  0  0  0  0  0
  -27.5110  -29.8670   24.2640 C   0  0  0  0  0  1  0  0  0  0  0  0
  -28.0060  -31.8650   25.6490 C   0  0  0  0  0  1  0  0  0  0  0  0
  -25.9210  -33.3780   24.3330 N   0  0  0  0  0  0  0  0  0  0  0  0
  -26.1790  -34.5500   23.7380 C   0  0  0  0  0  0  0  0  0  0  0  0
  -26.8130  -34.6400   22.6820 O   0  0  0  0  0  0  0  0  0  0  0  0
  -25.3520  -33.3770   25.1670 H   0  0  0  0  0  0  0  0  0  0  0  0
  -24.3500  -36.2750   23.7370 C   0  0  0  0  0  1  0  0  0  0  0  0
  -25.6500  -35.8250   24.4210 C   0  0  0  0  0  3  0  0  0  0  0  0
  -27.7790  -36.6940   25.2820 C   0  0  0  0  0  1  0  0  0  0  0  0
  -26.6240  -36.9380   24.4240 N   0  0  0  0  0  0  0  0  0  0  0  0
  -26.1820  -37.8030   24.7250 H   0  0  0  0  0  0  0  0  0  0  0  0
  1  4  2  0
  2  5  2  0
  3  2  1  0
  3  1  1  0
  4  8  1  0
  4  7  1  0
  6  3  1  0
  9 12  1  0
 10  9  2  0
 10 13  1  0
 12  1  1  0
 12 11  2  0
 13 14  2  0
 14 11  1  0
 14 15  1  0
 16 24  1  0
 17 22  1  0
 18 19  1  0
 18 17  1  0
 20 19  1  0
 20 29  1  0
 20 21  1  0
 22 16  1  0
 22 21  1  0
 23 16  2  0
 24 13  1  0
 24 25  1  0
 26 51  1  0
 26 27  2  0
 27 46  1  0
 28 31  1  0
 28 27  1  0
 29 30  1  0
 29 26  1  0
 30 28  2  0
 31 32  1  0
 32 33  2  0
 34 37  1  0
 34 33  1  0
 35 34  2  0
 36 35  1  0
 36 31  2  0
 37 38  1  0
 38 39  1  0
 39 40  2  0
 41 40  1  0
 41 45  1  0
 42 41  2  0
 43 38  2  0
 43 42  1  0
 44 43  1  0
 46 47  1  0
 47 49  1  0
 47 50  1  0
 48 46  2  0
 51 52  1  0
 53 51  1  0
 54  2  1  0
 55 56  1  0
 55 54  1  0
 57 59  1  0
 57 56  1  0
 58 69  2  0
 59 64  1  0
 60 68  1  0
 60 70  1  0
 61 67  1  0
 61 63  1  0
 62 68  1  0
 63 62  1  0
 64 63  2  0
 65 66  1  0
 65 59  2  0
 66 61  2  0
 67 60  1  0
 68 58  1  0
 70 72  2  0
 71 70  1  0
 73 71  1  0
 74 83  2  0
 74 79  1  0
 75 71  1  0
 75 79  1  0
 76 75  1  0
 77 78  1  0
 77 76  1  0
 78 74  1  0
 79 80  2  0
 80 81  1  0
 82 81  2  0
 83 82  1  0
 84 58  1  0
 84 89  1  0
 84 85  1  0
 85 88  1  1
 85 86  1  0
 87 85  1  0
 89 92  1  0
 90 89  1  0
 90 94  1  0
 91 90  2  0
 94 93  1  0
 94 96  1  0
 96 97  1  0
 96 95  1  0
M  ISO  4  16 100  24 100  56 101  57 101
M  END
>  <TORSDO>  (57) 
F 20

>  <SCORE>  (57) 
-8.669

>  <name>  (57) 
56

>  <ligand_id>  (57) 
56

>  <original_smiles>  (57) 
[H]c1c([H])c([H])c2c(c1[H])C([H])([H])C([H])([H])C([H])([H])C2([H])N([H])C(=O)C1([H])N(C(=O)C([H])(N([H])C(=O)C([H])(N([H])C([H])([H])[H])C([H])([H])[H])C(C([H])([H])[H])(C([H])([H])[H])C([H])([H])[H])C([H])([H])c2c([H])c(OC([H])([H])C([H])([H])C([H])([H])C(=O)N([H])C(c3c([H])c([H])c(N([H])C(=O)N4C([H])([H])C([H])([H])C([H])([H])C([H])(n5nc(-c6c([H])c([H])c(Oc7c([H])c([H])c(F)c([H])c7F)c([H])c6[H])c(C(=O)N([H])[H])c5N([H])[H])C4([H])[H])c(F)c3[H])=[N+]([H])[H])c([H])c([H])c2C1([H])[H]

>  <smiles>  (57) 
[H]c1c([H])c([H])c2c(c1[H])C([H])([H])C([H])([H])C([H])([H])C2([H])N([H])C(=O)C1([H])N(C(=O)C([H])(N([H])C(=O)C([H])(N([H])C([H])([H])[H])C([H])([H])[H])C(C([H])([H])[H])(C([H])([H])[H])C([H])([H])[H])C([H])([H])c2c([H])c(OC([H])([H])C([H])([H])C([H])([H])C(=O)N([H])C(c3c([H])c([H])c(N([H])C(=O)N4C([H])([H])C([H])([H])C([H])([H])C([H])(n5nc(-c6c([H])c([H])c(Oc7c([H])c([H])c(F)c([H])c7F)c([H])c6[H])c(C(=O)N([H])[H])c5N([H])[H])C4([H])[H])c(F)c3[H])=[N+]([H])[H])c([H])c([H])c2C1([H])[H]

$$$$
57:0:0
     RDKit          3D

 94103  0  0  1  0  0  0  0  0999 V2000
  -28.5270  -24.3010   20.6550 C   0  0  0  0  0  0  0  0  0  0  0  0
  -28.3000  -23.0910   21.3910 C   0  0  0  0  0  0  0  0  0  0  0  0
  -29.1180  -23.5310   19.5970 C   0  0  0  0  0  0  0  0  0  0  0  0
  -28.2430  -25.5990   20.9220 C   0  0  0  0  0  3  0  0  0  0  0  0
  -28.8870  -22.3490   20.3470 N   0  0  0  0  0  0  0  0  0  0  0  0
  -27.8280  -22.8860   22.4920 O   0  0  0  0  0  0  0  0  0  0  0  0
  -29.6290  -23.8500   18.5410 O   0  0  0  0  0  0  0  0  0  0  0  0
  -30.9150  -19.2790   19.4300 C   0  0  0  0  0  3  0  0  0  0  0  0
  -29.1920  -18.5870   20.9700 C   0  0  0  0  0  3  0  0  0  0  0  0
  -30.3960  -20.5920   19.4260 C   0  0  0  0  0  3  0  0  0  0  0  0
  -28.6980  -19.9180   20.9770 C   0  0  0  0  0  3  0  0  0  0  0  0
  -30.3440  -18.2630   20.2260 C   0  0  0  0  0  0  0  0  0  0  0  0
  -29.3060  -20.9780   20.2430 C   0  0  0  0  0  0  0  0  0  0  0  0
  -31.0970  -14.6200   19.9220 C   0  0  0  0  0  0  0  0  0  0  0  0
  -30.6640  -12.4220   18.8930 C   0  0  0  0  0  2  0  0  0  0  0  0
  -29.6680  -12.5740   17.7300 C   0  0  0  0  0  2  0  0  0  0  0  0
  -28.2250  -12.4450   18.2510 C   0  0  0  0  0  2  0  0  0  0  0  0
  -27.9510  -13.3360   19.4940 C   0  0  0  0  0  3  0  0  0  0  0  0
  -29.0750  -13.2190   20.5480 C   0  0  0  0  0  2  0  0  0  0  0  0
  -30.3520  -13.4800   19.8720 N   0  0  0  0  0  0  0  0  0  0  0  0
  -32.2330  -14.6330   19.4430 O   0  0  0  0  0  0  0  0  0  0  0  0
  -31.1100  -16.9710   20.4070 C   0  0  0  0  0  0  0  0  0  0  0  0
  -30.4790  -15.7720   20.2980 N   0  0  0  0  0  0  0  0  0  0  0  0
  -32.3240  -17.0940   20.6130 O   0  0  0  0  0  0  0  0  0  0  0  0
  -29.4770  -15.7650   20.3720 H   0  0  0  0  0  0  0  0  0  0  0  0
  -25.6310  -13.9490   20.4110 C   0  0  0  0  0  0  0  0  0  0  0  0
  -24.5770  -13.1800   20.8240 C   0  0  0  0  0  0  0  0  0  0  0  0
  -25.0060  -11.8230   20.7040 C   0  0  0  0  0  0  0  0  0  0  0  0
  -26.6370  -13.0600   20.0670 N   0  0  0  0  0  0  0  0  0  0  0  0
  -26.2700  -11.7730   20.3030 N   0  0  0  0  0  0  0  0  0  0  0  0
  -24.2670  -10.5670   20.8920 C   0  0  0  0  0  0  0  0  0  0  0  0
  -24.6640   -9.6120   21.8540 C   0  0  0  0  0  3  0  0  0  0  0  0
  -23.9250   -8.4230   22.0290 C   0  0  0  0  0  3  0  0  0  0  0  0
  -22.7760   -8.1780   21.2410 C   0  0  0  0  0  0  0  0  0  0  0  0
  -22.3970   -9.1220   20.2700 C   0  0  0  0  0  3  0  0  0  0  0  0
  -23.1370  -10.3030   20.0930 C   0  0  0  0  0  3  0  0  0  0  0  0
  -22.0110   -7.0390   21.3250 O   0  0  0  0  0  0  0  0  0  0  0  0
  -21.8170   -6.3880   22.5160 C   0  0  0  0  0  0  0  0  0  0  0  0
  -21.2320   -7.0300   23.6300 C   0  0  0  0  0  3  0  0  0  0  0  0
  -20.9880   -6.3030   24.8120 C   0  0  0  0  0  3  0  0  0  0  0  0
  -21.3170   -4.9370   24.8820 C   0  0  0  0  0  0  0  0  0  0  0  0
  -21.8950   -4.2950   23.7720 C   0  0  0  0  0  3  0  0  0  0  0  0
  -22.1410   -5.0180   22.5920 C   0  0  0  0  0  0  0  0  0  0  0  0
  -22.6780   -4.3900   21.5180 F   0  0  0  0  0  0  0  0  0  0  0  0
  -21.0760   -4.2370   26.0150 F   0  0  0  0  0  0  0  0  0  0  0  0
  -23.2140  -13.6720   21.2150 C   0  0  0  0  0  0  0  0  0  0  0  0
  -22.5320  -12.9520   22.0990 N   0  0  0  0  0  0  0  0  0  0  0  0
  -22.7650  -14.7280   20.7730 O   0  0  0  0  0  0  0  0  0  0  0  0
  -22.9110  -12.0970   22.4790 H   0  0  0  0  0  0  0  0  0  0  0  0
  -21.6200  -13.2610   22.4040 H   0  0  0  0  0  0  0  0  0  0  0  0
  -25.8130  -15.3220   20.2780 N   0  0  0  0  0  0  0  0  0  0  0  0
  -25.0650  -15.9820   20.4640 H   0  0  0  0  0  0  0  0  0  0  0  0
  -26.6350  -15.7600   19.8830 H   0  0  0  0  0  0  0  0  0  0  0  0
  -28.4350  -26.6970   20.1030 O   0  0  0  0  0  0  0  0  0  0  0  0
  -24.6680  -31.9030   23.1900 C   0  0  0  0  0  0  0  0  0  0  0  0
  -27.3300  -27.5150   20.0470 C   0  0  0  0  0  0  0  0  0  0  0  0
  -23.4700  -30.5120   21.5330 C   0  0  0  0  0  3  0  0  0  0  0  0
  -24.9330  -29.0110   20.0770 C   0  0  0  0  0  0  0  0  0  0  0  0
  -25.9940  -30.8950   21.3330 C   0  0  0  0  0  2  0  0  0  0  0  0
  -26.0910  -29.5340   20.6700 C   0  0  0  0  0  0  0  0  0  0  0  0
  -27.2980  -28.7930   20.6530 C   0  0  0  0  0  3  0  0  0  0  0  0
  -26.1610  -27.0130   19.4390 C   0  0  0  0  0  3  0  0  0  0  0  0
  -24.9650  -27.7510   19.4550 C   0  0  0  0  0  3  0  0  0  0  0  0
  -23.6810  -29.8560   20.1430 C   0  0  0  0  0  2  0  0  0  0  0  0
  -24.7290  -31.1170   22.0770 N   0  0  0  0  0  0  0  0  0  0  0  0
  -23.5860  -32.1590   23.7360 O   0  0  0  0  0  0  0  0  0  0  0  0
  -22.8300  -29.4720   22.4810 C   0  0  0  0  0  0  0  0  0  0  0  0
  -21.5040  -29.2920   22.3670 N   0  0  0  0  0  0  0  0  0  0  0  0
  -23.5230  -28.8330   23.2780 O   0  0  0  0  0  0  0  0  0  0  0  0
  -21.0060  -29.8600   21.6960 H   0  0  0  0  0  0  0  0  0  0  0  0
  -18.1360  -28.0880   22.8810 C   0  0  0  0  0  0  0  0  0  0  0  0
  -20.6970  -28.3400   23.1290 C   0  0  0  0  0  3  0  0  0  0  0  0
  -20.7920  -26.9190   22.5260 C   0  0  0  0  0  2  0  0  0  0  0  0
  -19.6780  -26.6160   21.5180 C   0  0  0  0  0  2  0  0  0  0  0  0
  -18.3040  -26.7500   22.1810 C   0  0  0  0  0  2  0  0  0  0  0  0
  -19.2600  -28.8410   23.3130 C   0  0  0  0  0  0  0  0  0  0  0  0
  -19.0480  -30.0940   23.9290 C   0  0  0  0  0  3  0  0  0  0  0  0
  -17.7460  -30.5920   24.1180 C   0  0  0  0  0  3  0  0  0  0  0  0
  -16.6370  -29.8360   23.7030 C   0  0  0  0  0  3  0  0  0  0  0  0
  -16.8330  -28.5850   23.0910 C   0  0  0  0  0  3  0  0  0  0  0  0
  -25.9500  -32.5370   23.8130 C   0  0  0  0  0  3  0  0  0  0  0  0
  -25.6300  -33.9280   24.1620 N   0  0  0  0  0  0  0  0  0  0  0  0
  -25.9450  -34.9920   23.4100 C   0  0  0  0  0  0  0  0  0  0  0  0
  -26.6080  -34.9060   22.3720 O   0  0  0  0  0  0  0  0  0  0  0  0
  -25.0410  -34.0680   24.9690 H   0  0  0  0  0  0  0  0  0  0  0  0
  -24.1970  -36.7700   23.0880 C   0  0  0  0  0  1  0  0  0  0  0  0
  -25.4480  -36.3700   23.8870 C   0  0  0  0  0  3  0  0  0  0  0  0
  -27.5760  -37.2690   24.7160 C   0  0  0  0  0  1  0  0  0  0  0  0
  -26.4690  -37.4350   23.7780 N   0  0  0  0  0  0  0  0  0  0  0  0
  -26.0540  -38.3490   23.9350 H   0  0  0  0  0  0  0  0  0  0  0  0
  -26.4810  -31.7530   25.0750 C   0  0  1  0  0  0  0  0  0  0  0  0
  -25.3950  -31.4850   26.1420 C   0  0  0  0  0  1  0  0  0  0  0  0
  -27.0800  -30.3890   24.6570 C   0  0  0  0  0  1  0  0  0  0  0  0
  -27.6240  -32.5520   25.7460 C   0  0  0  0  0  1  0  0  0  0  0  0
  1  4  2  0
  1  2  1  0
  2  6  2  0
  3  5  1  0
  3  1  1  0
  5  2  1  0
  7  3  2  0
  8 12  1  0
  9 11  1  0
 10  8  2  0
 10 13  1  0
 12 22  1  0
 12  9  2  0
 13  5  1  0
 13 11  2  0
 14 23  1  0
 15 20  1  0
 16 17  1  0
 16 15  1  0
 18 17  1  0
 18 29  1  0
 18 19  1  0
 20 14  1  0
 20 19  1  0
 21 14  2  0
 22 24  2  0
 23 25  1  0
 23 22  1  0
 26 27  2  0
 27 46  1  0
 28 27  1  0
 28 31  1  0
 29 30  1  0
 29 26  1  0
 30 28  2  0
 31 32  1  0
 32 33  2  0
 34 37  1  0
 34 33  1  0
 35 34  2  0
 36 35  1  0
 36 31  2  0
 37 38  1  0
 38 43  2  0
 38 39  1  0
 39 40  2  0
 40 41  1  0
 41 45  1  0
 42 41  2  0
 43 42  1  0
 44 43  1  0
 46 47  1  0
 47 50  1  0
 47 49  1  0
 48 46  2  0
 51 26  1  0
 51 52  1  0
 53 51  1  0
 54  4  1  0
 55 66  2  0
 56 54  1  0
 56 61  1  0
 57 65  1  0
 57 67  1  0
 58 64  1  0
 58 60  1  0
 59 65  1  0
 60 59  1  0
 61 60  2  0
 62 63  1  0
 62 56  2  0
 63 58  2  0
 64 57  1  0
 65 55  1  0
 67 69  2  0
 68 67  1  0
 70 68  1  0
 71 80  2  0
 71 76  1  0
 72 68  1  0
 72 76  1  0
 73 72  1  0
 74 75  1  0
 74 73  1  0
 75 71  1  0
 76 77  2  0
 77 78  1  0
 79 78  2  0
 80 79  1  0
 81 55  1  0
 81 82  1  0
 81 91  1  0
 82 85  1  0
 83 87  1  0
 83 82  1  0
 84 83  2  0
 87 86  1  0
 89 87  1  0
 89 90  1  0
 89 88  1  0
 91 94  1  1
 91 92  1  0
 93 91  1  0
M  ISO  4   4 101  14 100  23 100  54 101
M  END
>  <TORSDO>  (58) 
F 17

>  <SCORE>  (58) 
-14.236

>  <name>  (58) 
57

>  <ligand_id>  (58) 
57

>  <original_smiles>  (58) 
[H]C(Oc1c([H])c([H])c2c(c1[H])C([H])([H])N(C(=O)C([H])(N([H])C(=O)C([H])(N([H])C([H])([H])[H])C([H])([H])[H])C(C([H])([H])[H])(C([H])([H])[H])C([H])([H])[H])C([H])(C(=O)N([H])C1([H])c3c([H])c([H])c([H])c([H])c3C([H])([H])C([H])([H])C1([H])[H])C2([H])[H])=C1C(=O)N(c2c([H])c([H])c(C(=O)N([H])C(=O)N3C([H])([H])C([H])([H])C([H])([H])C([H])(n4nc(-c5c([H])c([H])c(Oc6c([H])c([H])c(F)c([H])c6F)c([H])c5[H])c(C(=O)N([H])[H])c4N([H])[H])C3([H])[H])c([H])c2[H])C1=O

>  <smiles>  (58) 
[H]C(Oc1c([H])c([H])c2c(c1[H])C([H])([H])N(C(=O)C([H])(N([H])C(=O)C([H])(N([H])C([H])([H])[H])C([H])([H])[H])C(C([H])([H])[H])(C([H])([H])[H])C([H])([H])[H])C([H])(C(=O)N([H])C1([H])c3c([H])c([H])c([H])c([H])c3C([H])([H])C([H])([H])C1([H])[H])C2([H])[H])=C1C(=O)N(c2c([H])c([H])c(C(=O)N([H])C(=O)N3C([H])([H])C([H])([H])C([H])([H])C([H])(n4nc(-c5c([H])c([H])c(Oc6c([H])c([H])c(F)c([H])c6F)c([H])c5[H])c(C(=O)N([H])[H])c4N([H])[H])C3([H])[H])c([H])c2[H])C1=O

$$$$
58:0:0
     RDKit          3D

 93102  0  0  1  0  0  0  0  0999 V2000
  -27.6830  -22.1870   20.8250 C   0  0  0  0  0  3  0  0  0  0  0  0
  -28.4870  -23.0740   20.2040 C   0  0  0  0  0  0  0  0  0  0  0  0
  -28.0660  -20.7710   20.6780 C   0  0  0  0  0  0  0  0  0  0  0  0
  -29.5000  -22.0500   19.6440 C   0  0  0  0  0  0  0  0  0  0  0  0
  -29.1830  -20.6750   19.9260 N   0  0  0  0  0  0  0  0  0  0  0  0
  -27.4990  -19.8060   21.2010 O   0  0  0  0  0  0  0  0  0  0  0  0
  -30.5270  -22.3710   19.0370 O   0  0  0  0  0  0  0  0  0  0  0  0
  -30.0000  -19.1060   16.7340 C   0  0  0  0  0  3  0  0  0  0  0  0
  -31.1620  -18.3910   17.0390 C   0  0  0  0  0  3  0  0  0  0  0  0
  -29.2170  -19.5880   17.7930 C   0  0  0  0  0  3  0  0  0  0  0  0
  -31.3680  -17.9090   18.3480 C   0  0  0  0  0  3  0  0  0  0  0  0
  -29.5390  -19.3340   19.1550 C   0  0  0  0  0  0  0  0  0  0  0  0
  -30.3880  -18.0540   19.3680 C   0  0  0  0  0  0  0  0  0  0  0  0
  -30.8180  -15.3120   19.8820 C   0  0  0  0  0  0  0  0  0  0  0  0
  -30.6500  -12.9180   18.9790 C   0  0  0  0  0  2  0  0  0  0  0  0
  -29.6750  -12.8410   17.7850 C   0  0  0  0  0  2  0  0  0  0  0  0
  -28.2340  -12.6180   18.2790 C   0  0  0  0  0  2  0  0  0  0  0  0
  -27.8740  -13.5300   19.4850 C   0  0  0  0  0  3  0  0  0  0  0  0
  -28.9840  -13.5890   20.5580 C   0  0  0  0  0  2  0  0  0  0  0  0
  -30.1990  -14.0450   19.8620 N   0  0  0  0  0  0  0  0  0  0  0  0
  -32.0390  -15.2570   19.6600 O   0  0  0  0  0  0  0  0  0  0  0  0
  -30.1170  -16.6020   19.9520 N   0  0  0  0  0  0  0  0  0  0  0  0
  -29.1610  -16.4850   20.2530 H   0  0  0  0  0  0  0  0  0  0  0  0
  -25.5260  -14.0820   20.3120 C   0  0  0  0  0  0  0  0  0  0  0  0
  -24.4780  -13.2970   20.7030 C   0  0  0  0  0  0  0  0  0  0  0  0
  -24.9480  -11.9500   20.6540 C   0  0  0  0  0  0  0  0  0  0  0  0
  -26.5650  -13.2120   20.0390 N   0  0  0  0  0  0  0  0  0  0  0  0
  -26.2340  -11.9240   20.3200 N   0  0  0  0  0  0  0  0  0  0  0  0
  -24.2280  -10.6840   20.8480 C   0  0  0  0  0  0  0  0  0  0  0  0
  -24.6350   -9.7510   21.8270 C   0  0  0  0  0  3  0  0  0  0  0  0
  -23.9110   -8.5540   22.0200 C   0  0  0  0  0  3  0  0  0  0  0  0
  -22.7670   -8.2800   21.2310 C   0  0  0  0  0  0  0  0  0  0  0  0
  -22.3840   -9.2020   20.2400 C   0  0  0  0  0  3  0  0  0  0  0  0
  -23.1070  -10.3910   20.0480 C   0  0  0  0  0  3  0  0  0  0  0  0
  -22.0190   -7.1350   21.3290 O   0  0  0  0  0  0  0  0  0  0  0  0
  -21.8620   -6.4750   22.5220 C   0  0  0  0  0  0  0  0  0  0  0  0
  -21.2780   -7.0990   23.6480 C   0  0  0  0  0  3  0  0  0  0  0  0
  -21.0660   -6.3610   24.8310 C   0  0  0  0  0  3  0  0  0  0  0  0
  -21.4310   -5.0030   24.8880 C   0  0  0  0  0  0  0  0  0  0  0  0
  -22.0030   -4.3780   23.7670 C   0  0  0  0  0  3  0  0  0  0  0  0
  -22.2160   -5.1110   22.5860 C   0  0  0  0  0  0  0  0  0  0  0  0
  -22.7490   -4.5000   21.5010 F   0  0  0  0  0  0  0  0  0  0  0  0
  -21.2210   -4.2930   26.0200 F   0  0  0  0  0  0  0  0  0  0  0  0
  -23.0860  -13.7680   21.0030 C   0  0  0  0  0  0  0  0  0  0  0  0
  -22.3870  -13.0810   21.8960 N   0  0  0  0  0  0  0  0  0  0  0  0
  -22.6260  -14.7830   20.4840 O   0  0  0  0  0  0  0  0  0  0  0  0
  -22.7730  -12.2600   22.3350 H   0  0  0  0  0  0  0  0  0  0  0  0
  -21.4580  -13.3900   22.1450 H   0  0  0  0  0  0  0  0  0  0  0  0
  -25.6640  -15.4560   20.1330 N   0  0  0  0  0  0  0  0  0  0  0  0
  -24.8600  -16.0720   20.2300 H   0  0  0  0  0  0  0  0  0  0  0  0
  -26.4820  -15.9150   19.7540 H   0  0  0  0  0  0  0  0  0  0  0  0
  -28.4530  -24.7170   20.6780 C   0  0  0  0  0  2  0  0  0  0  0  0
  -28.3680  -26.1500   19.9710 O   0  0  0  0  0  0  0  0  0  0  0  0
  -24.6740  -31.9260   23.1600 C   0  0  0  0  0  0  0  0  0  0  0  0
  -27.3110  -27.1590   20.1070 C   0  0  0  0  0  0  0  0  0  0  0  0
  -23.5040  -30.5130   21.5260 C   0  0  0  0  0  3  0  0  0  0  0  0
  -24.9670  -28.9280   20.1200 C   0  0  0  0  0  0  0  0  0  0  0  0
  -26.0620  -30.7830   21.3690 C   0  0  0  0  0  2  0  0  0  0  0  0
  -26.1550  -29.3800   20.7110 C   0  0  0  0  0  0  0  0  0  0  0  0
  -27.3310  -28.5150   20.6800 C   0  0  0  0  0  3  0  0  0  0  0  0
  -26.0890  -26.8370   19.4840 C   0  0  0  0  0  3  0  0  0  0  0  0
  -24.9490  -27.6740   19.4950 C   0  0  0  0  0  3  0  0  0  0  0  0
  -23.7370  -29.8230   20.1540 C   0  0  0  0  0  2  0  0  0  0  0  0
  -24.7670  -31.1000   22.0700 N   0  0  0  0  0  0  0  0  0  0  0  0
  -23.5800  -32.1960   23.6830 O   0  0  0  0  0  0  0  0  0  0  0  0
  -22.8280  -29.5040   22.4910 C   0  0  0  0  0  0  0  0  0  0  0  0
  -21.5010  -29.3180   22.3610 N   0  0  0  0  0  0  0  0  0  0  0  0
  -23.5040  -28.8920   23.3220 O   0  0  0  0  0  0  0  0  0  0  0  0
  -21.0100  -29.8540   21.6610 H   0  0  0  0  0  0  0  0  0  0  0  0
  -18.1390  -28.0520   22.8660 C   0  0  0  0  0  0  0  0  0  0  0  0
  -20.6930  -28.3710   23.1350 C   0  0  0  0  0  3  0  0  0  0  0  0
  -20.8250  -26.9360   22.5680 C   0  0  0  0  0  2  0  0  0  0  0  0
  -19.7310  -26.5790   21.5610 C   0  0  0  0  0  2  0  0  0  0  0  0
  -18.3440  -26.7010   22.2030 C   0  0  0  0  0  2  0  0  0  0  0  0
  -19.2440  -28.8400   23.2920 C   0  0  0  0  0  0  0  0  0  0  0  0
  -18.9930  -30.0960   23.8840 C   0  0  0  0  0  3  0  0  0  0  0  0
  -17.6800  -30.5600   24.0570 C   0  0  0  0  0  3  0  0  0  0  0  0
  -16.5910  -29.7730   23.6400 C   0  0  0  0  0  3  0  0  0  0  0  0
  -16.8220  -28.5170   23.0520 C   0  0  0  0  0  3  0  0  0  0  0  0
  -25.9360  -32.5860   23.7940 C   0  0  0  0  0  3  0  0  0  0  0  0
  -25.5960  -33.9790   24.1270 N   0  0  0  0  0  0  0  0  0  0  0  0
  -25.9160  -35.0460   23.3870 C   0  0  0  0  0  0  0  0  0  0  0  0
  -26.5890  -34.9620   22.3560 O   0  0  0  0  0  0  0  0  0  0  0  0
  -24.9980  -34.1150   24.9300 H   0  0  0  0  0  0  0  0  0  0  0  0
  -24.1700  -36.8260   23.0480 C   0  0  0  0  0  1  0  0  0  0  0  0
  -25.4110  -36.4230   23.8590 C   0  0  0  0  0  3  0  0  0  0  0  0
  -27.5220  -37.3280   24.7240 C   0  0  0  0  0  1  0  0  0  0  0  0
  -26.4300  -37.4900   23.7680 N   0  0  0  0  0  0  0  0  0  0  0  0
  -26.0130  -38.4030   23.9220 H   0  0  0  0  0  0  0  0  0  0  0  0
  -26.4600  -31.8280   25.0750 C   0  0  1  0  0  0  0  0  0  0  0  0
  -25.3630  -31.5640   26.1330 C   0  0  0  0  0  1  0  0  0  0  0  0
  -27.0690  -30.4600   24.6960 C   0  0  0  0  0  1  0  0  0  0  0  0
  -27.5900  -32.6460   25.7420 C   0  0  0  0  0  1  0  0  0  0  0  0
  2 52  1  0
  2  1  2  0
  3  1  1  0
  3  6  2  0
  4  5  1  0
  4  2  1  0
  5  3  1  0
  7  4  2  0
  8  9  2  0
  8 10  1  0
  9 11  1  0
 10 12  2  0
 11 13  2  0
 12 13  1  0
 12  5  1  0
 13 22  1  0
 14 22  1  0
 15 20  1  0
 16 17  1  0
 16 15  1  0
 18 17  1  0
 18 27  1  0
 18 19  1  0
 20 14  1  0
 20 19  1  0
 21 14  2  0
 22 23  1  0
 24 25  2  0
 25 44  1  0
 26 25  1  0
 26 29  1  0
 27 24  1  0
 27 28  1  0
 28 26  2  0
 29 30  1  0
 30 31  2  0
 32 35  1  0
 32 31  1  0
 33 32  2  0
 34 33  1  0
 34 29  2  0
 35 36  1  0
 36 41  2  0
 36 37  1  0
 37 38  2  0
 38 39  1  0
 39 43  1  0
 40 39  2  0
 41 40  1  0
 42 41  1  0
 44 45  1  0
 45 48  1  0
 45 47  1  0
 46 44  2  0
 49 50  1  0
 49 24  1  0
 51 49  1  0
 53 55  1  0
 53 52  1  0
 54 65  2  0
 55 60  1  0
 56 64  1  0
 56 66  1  0
 57 63  1  0
 57 59  1  0
 58 64  1  0
 59 58  1  0
 60 59  2  0
 61 62  1  0
 61 55  2  0
 62 57  2  0
 63 56  1  0
 64 54  1  0
 66 68  2  0
 67 66  1  0
 69 67  1  0
 70 79  2  0
 70 75  1  0
 71 67  1  0
 71 75  1  0
 72 71  1  0
 73 74  1  0
 73 72  1  0
 74 70  1  0
 75 76  2  0
 76 77  1  0
 78 77  2  0
 79 78  1  0
 80 54  1  0
 80 81  1  0
 80 90  1  0
 81 84  1  0
 82 86  1  0
 82 81  1  0
 83 82  2  0
 86 85  1  0
 88 86  1  0
 88 89  1  0
 88 87  1  0
 90 93  1  1
 90 91  1  0
 92 90  1  0
M  ISO  4  14 100  22 100  52 101  53 101
M  END
>  <TORSDO>  (59) 
F 18

>  <SCORE>  (59) 
-14.115

>  <name>  (59) 
58

>  <ligand_id>  (59) 
58

>  <original_smiles>  (59) 
[H]C1=C(C([H])([H])Oc2c([H])c([H])c3c(c2[H])C([H])([H])N(C(=O)C([H])(N([H])C(=O)C([H])(N([H])C([H])([H])[H])C([H])([H])[H])C(C([H])([H])[H])(C([H])([H])[H])C([H])([H])[H])C([H])(C(=O)N([H])C2([H])c4c([H])c([H])c([H])c([H])c4C([H])([H])C([H])([H])C2([H])[H])C3([H])[H])C(=O)N(c2c([H])c([H])c([H])c([H])c2N([H])C(=O)N2C([H])([H])C([H])([H])C([H])([H])C([H])(n3nc(-c4c([H])c([H])c(Oc5c([H])c([H])c(F)c([H])c5F)c([H])c4[H])c(C(=O)N([H])[H])c3N([H])[H])C2([H])[H])C1=O

>  <smiles>  (59) 
[H]C1=C(C([H])([H])Oc2c([H])c([H])c3c(c2[H])C([H])([H])N(C(=O)C([H])(N([H])C(=O)C([H])(N([H])C([H])([H])[H])C([H])([H])[H])C(C([H])([H])[H])(C([H])([H])[H])C([H])([H])[H])C([H])(C(=O)N([H])C2([H])c4c([H])c([H])c([H])c([H])c4C([H])([H])C([H])([H])C2([H])[H])C3([H])[H])C(=O)N(c2c([H])c([H])c([H])c([H])c2N([H])C(=O)N2C([H])([H])C([H])([H])C([H])([H])C([H])(n3nc(-c4c([H])c([H])c(Oc5c([H])c([H])c(F)c([H])c5F)c([H])c4[H])c(C(=O)N([H])[H])c3N([H])[H])C2([H])[H])C1=O

$$$$
59:0:0
     RDKit          3D

 94102  0  0  1  0  0  0  0  0999 V2000
  -29.8940  -21.4400   20.0330 C   0  0  0  0  0  0  0  0  0  0  0  0
  -28.5280  -23.4840   20.4850 C   0  0  0  0  0  0  0  0  0  0  0  0
  -28.8520  -22.1530   20.5330 N   0  0  0  0  0  0  0  0  0  0  0  0
  -30.8470  -21.9610   19.4460 O   0  0  0  0  0  0  0  0  0  0  0  0
  -27.9620  -23.9610   21.4720 O   0  0  0  0  0  0  0  0  0  0  0  0
  -28.3140  -21.6280   21.2010 H   0  0  0  0  0  0  0  0  0  0  0  0
  -30.6090  -19.0890   19.2950 C   0  0  0  0  0  3  0  0  0  0  0  0
  -29.2560  -19.2500   21.2860 C   0  0  0  0  0  3  0  0  0  0  0  0
  -30.6770  -17.6770   19.4360 C   0  0  0  0  0  3  0  0  0  0  0  0
  -29.3140  -17.8350   21.4230 C   0  0  0  0  0  3  0  0  0  0  0  0
  -29.8950  -19.9140   20.2050 C   0  0  0  0  0  0  0  0  0  0  0  0
  -30.0290  -17.0160   20.5100 C   0  0  0  0  0  0  0  0  0  0  0  0
  -30.7160  -14.5890   20.0790 C   0  0  0  0  0  0  0  0  0  0  0  0
  -30.4160  -12.4240   18.9170 C   0  0  0  0  0  2  0  0  0  0  0  0
  -29.4020  -12.6480   17.7730 C   0  0  0  0  0  2  0  0  0  0  0  0
  -27.9530  -12.4960   18.2790 C   0  0  0  0  0  2  0  0  0  0  0  0
  -27.6890  -13.2840   19.5910 C   0  0  0  0  0  3  0  0  0  0  0  0
  -28.8070  -13.0290   20.6260 C   0  0  0  0  0  2  0  0  0  0  0  0
  -30.0910  -13.3780   19.9940 N   0  0  0  0  0  0  0  0  0  0  0  0
  -31.8170  -14.7930   19.5560 O   0  0  0  0  0  0  0  0  0  0  0  0
  -29.9960  -15.5770   20.6770 N   0  0  0  0  0  0  0  0  0  0  0  0
  -29.2130  -15.2300   21.2110 H   0  0  0  0  0  0  0  0  0  0  0  0
  -25.3380  -13.8710   20.4570 C   0  0  0  0  0  0  0  0  0  0  0  0
  -24.2900  -13.0900   20.8640 C   0  0  0  0  0  0  0  0  0  0  0  0
  -24.7420  -11.7380   20.7620 C   0  0  0  0  0  0  0  0  0  0  0  0
  -26.3640  -12.9940   20.1360 N   0  0  0  0  0  0  0  0  0  0  0  0
  -26.0110  -11.7050   20.3770 N   0  0  0  0  0  0  0  0  0  0  0  0
  -24.0220  -10.4730   20.9580 C   0  0  0  0  0  0  0  0  0  0  0  0
  -24.4680   -9.5050   21.8850 C   0  0  0  0  0  3  0  0  0  0  0  0
  -23.7490   -8.3040   22.0690 C   0  0  0  0  0  3  0  0  0  0  0  0
  -22.5690   -8.0620   21.3260 C   0  0  0  0  0  0  0  0  0  0  0  0
  -22.1420   -9.0180   20.3870 C   0  0  0  0  0  3  0  0  0  0  0  0
  -22.8620  -10.2110   20.2010 C   0  0  0  0  0  3  0  0  0  0  0  0
  -21.8220   -6.9130   21.4170 O   0  0  0  0  0  0  0  0  0  0  0  0
  -21.7360   -6.2010   22.5870 C   0  0  0  0  0  0  0  0  0  0  0  0
  -21.2360   -6.7770   23.7750 C   0  0  0  0  0  3  0  0  0  0  0  0
  -21.0990   -5.9900   24.9360 C   0  0  0  0  0  3  0  0  0  0  0  0
  -21.4540   -4.6280   24.9100 C   0  0  0  0  0  0  0  0  0  0  0  0
  -21.9470   -4.0520   23.7260 C   0  0  0  0  0  3  0  0  0  0  0  0
  -22.0860   -4.8350   22.5680 C   0  0  0  0  0  0  0  0  0  0  0  0
  -22.5410   -4.2700   21.4230 F   0  0  0  0  0  0  0  0  0  0  0  0
  -21.3160   -3.8690   26.0220 F   0  0  0  0  0  0  0  0  0  0  0  0
  -22.9130  -13.5620   21.2360 C   0  0  0  0  0  0  0  0  0  0  0  0
  -22.2360  -12.8420   22.1240 N   0  0  0  0  0  0  0  0  0  0  0  0
  -22.4490  -14.6030   20.7750 O   0  0  0  0  0  0  0  0  0  0  0  0
  -22.6260  -12.0000   22.5190 H   0  0  0  0  0  0  0  0  0  0  0  0
  -21.3150  -13.1400   22.4140 H   0  0  0  0  0  0  0  0  0  0  0  0
  -25.4990  -15.2460   20.3190 N   0  0  0  0  0  0  0  0  0  0  0  0
  -24.7440  -15.8990   20.5000 H   0  0  0  0  0  0  0  0  0  0  0  0
  -26.3350  -15.6970   19.9690 H   0  0  0  0  0  0  0  0  0  0  0  0
  -28.6210  -25.6310   19.1640 C   0  0  0  0  0  3  0  0  0  0  0  0
  -28.6860  -24.2610   19.2260 C   0  0  0  0  0  0  0  0  0  0  0  0
  -28.8150  -23.5250   17.8960 C   0  0  0  0  0  1  0  0  0  0  0  0
  -28.4190  -26.5690   20.1670 O   0  0  0  0  0  0  0  0  0  0  0  0
  -24.6500  -31.8640   23.2050 C   0  0  0  0  0  0  0  0  0  0  0  0
  -27.2870  -27.3820   20.1070 C   0  0  0  0  0  0  0  0  0  0  0  0
  -23.4470  -30.4670   21.5600 C   0  0  0  0  0  3  0  0  0  0  0  0
  -24.9000  -28.9350   20.1230 C   0  0  0  0  0  0  0  0  0  0  0  0
  -25.9790  -30.8120   21.3680 C   0  0  0  0  0  2  0  0  0  0  0  0
  -26.0640  -29.4420   20.7130 C   0  0  0  0  0  0  0  0  0  0  0  0
  -27.2600  -28.6720   20.7050 C   0  0  0  0  0  3  0  0  0  0  0  0
  -26.0950  -26.9030   19.5170 C   0  0  0  0  0  3  0  0  0  0  0  0
  -24.9130  -27.6670   19.5210 C   0  0  0  0  0  3  0  0  0  0  0  0
  -23.6580  -29.7990   20.1760 C   0  0  0  0  0  2  0  0  0  0  0  0
  -24.7100  -31.0640   22.1020 N   0  0  0  0  0  0  0  0  0  0  0  0
  -23.5670  -32.1330   23.7440 O   0  0  0  0  0  0  0  0  0  0  0  0
  -22.7940  -29.4420   22.5170 C   0  0  0  0  0  0  0  0  0  0  0  0
  -21.4650  -29.2720   22.4050 N   0  0  0  0  0  0  0  0  0  0  0  0
  -23.4800  -28.8050   23.3210 O   0  0  0  0  0  0  0  0  0  0  0  0
  -20.9710  -29.8380   21.7290 H   0  0  0  0  0  0  0  0  0  0  0  0
  -18.0890  -28.0930   22.9310 C   0  0  0  0  0  0  0  0  0  0  0  0
  -20.6520  -28.3320   23.1750 C   0  0  0  0  0  3  0  0  0  0  0  0
  -20.7390  -26.9050   22.5850 C   0  0  0  0  0  2  0  0  0  0  0  0
  -19.6220  -26.6000   21.5820 C   0  0  0  0  0  2  0  0  0  0  0  0
  -18.2490  -26.7490   22.2410 C   0  0  0  0  0  2  0  0  0  0  0  0
  -19.2170  -28.8420   23.3560 C   0  0  0  0  0  0  0  0  0  0  0  0
  -19.0140  -30.1020   23.9630 C   0  0  0  0  0  3  0  0  0  0  0  0
  -17.7150  -30.6100   24.1490 C   0  0  0  0  0  3  0  0  0  0  0  0
  -16.6010  -29.8560   23.7400 C   0  0  0  0  0  3  0  0  0  0  0  0
  -16.7890  -28.6000   23.1370 C   0  0  0  0  0  3  0  0  0  0  0  0
  -25.9330  -32.4970   23.8260 C   0  0  0  0  0  3  0  0  0  0  0  0
  -25.6170  -33.8890   24.1710 N   0  0  0  0  0  0  0  0  0  0  0  0
  -25.9300  -34.9510   23.4160 C   0  0  0  0  0  0  0  0  0  0  0  0
  -26.5860  -34.8610   22.3740 O   0  0  0  0  0  0  0  0  0  0  0  0
  -25.0370  -34.0320   24.9850 H   0  0  0  0  0  0  0  0  0  0  0  0
  -24.1850  -36.7340   23.0940 C   0  0  0  0  0  1  0  0  0  0  0  0
  -25.4370  -36.3320   23.8900 C   0  0  0  0  0  3  0  0  0  0  0  0
  -27.5700  -37.2300   24.7110 C   0  0  0  0  0  1  0  0  0  0  0  0
  -26.4610  -37.3930   23.7740 N   0  0  0  0  0  0  0  0  0  0  0  0
  -26.0500  -38.3100   23.9260 H   0  0  0  0  0  0  0  0  0  0  0  0
  -26.4610  -31.7180   25.0930 C   0  0  1  0  0  0  0  0  0  0  0  0
  -25.3740  -31.4600   26.1640 C   0  0  0  0  0  1  0  0  0  0  0  0
  -27.0540  -30.3500   24.6830 C   0  0  0  0  0  1  0  0  0  0  0  0
  -27.6050  -32.5170   25.7600 C   0  0  0  0  0  1  0  0  0  0  0  0
  1 11  1  0
  1  3  1  0
  2  3  1  0
  2  5  2  0
  3  6  1  0
  4  1  2  0
  7  9  2  0
  7 11  1  0
  8 10  1  0
  9 12  1  0
 11  8  2  0
 12 21  1  0
 12 10  2  0
 13 21  1  0
 14 19  1  0
 15 16  1  0
 15 14  1  0
 17 16  1  0
 17 26  1  0
 17 18  1  0
 19 13  1  0
 19 18  1  0
 20 13  2  0
 21 22  1  0
 23 24  2  0
 24 43  1  0
 25 24  1  0
 25 28  1  0
 26 27  1  0
 26 23  1  0
 27 25  2  0
 28 29  1  0
 29 30  2  0
 31 34  1  0
 31 30  1  0
 32 31  2  0
 33 32  1  0
 33 28  2  0
 34 35  1  0
 35 36  1  0
 36 37  2  0
 38 37  1  0
 38 42  1  0
 39 38  2  0
 40 35  2  0
 40 39  1  0
 41 40  1  0
 43 44  1  0
 44 47  1  0
 44 46  1  0
 45 43  2  0
 48 23  1  0
 48 49  1  0
 50 48  1  0
 51 52  2  0
 51 54  1  0
 52  2  1  0
 53 52  1  0
 55 66  2  0
 56 54  1  0
 56 61  1  0
 57 65  1  0
 57 67  1  0
 58 64  1  0
 58 60  1  0
 59 65  1  0
 60 59  1  0
 61 60  2  0
 62 63  1  0
 62 56  2  0
 63 58  2  0
 64 57  1  0
 65 55  1  0
 67 69  2  0
 68 67  1  0
 70 68  1  0
 71 80  2  0
 71 76  1  0
 72 68  1  0
 72 76  1  0
 73 72  1  0
 74 75  1  0
 74 73  1  0
 75 71  1  0
 76 77  2  0
 77 78  1  0
 79 78  2  0
 80 79  1  0
 81 55  1  0
 81 82  1  0
 81 91  1  0
 82 85  1  0
 83 87  1  0
 83 82  1  0
 84 83  2  0
 87 86  1  0
 89 87  1  0
 89 90  1  0
 89 88  1  0
 91 94  1  1
 91 92  1  0
 93 91  1  0
M  ISO  4  13 100  21 100  51 101  54 101
M  END
>  <TORSDO>  (60) 
F 18

>  <SCORE>  (60) 
-13.885

>  <name>  (60) 
59

>  <ligand_id>  (60) 
59

>  <original_smiles>  (60) 
[H]C(Oc1c([H])c([H])c2c(c1[H])C([H])([H])N(C(=O)C([H])(N([H])C(=O)C([H])(N([H])C([H])([H])[H])C([H])([H])[H])C(C([H])([H])[H])(C([H])([H])[H])C([H])([H])[H])C([H])(C(=O)N([H])C1([H])c3c([H])c([H])c([H])c([H])c3C([H])([H])C([H])([H])C1([H])[H])C2([H])[H])=C(C(=O)N([H])C(=O)c1c([H])c([H])c(N([H])C(=O)N2C([H])([H])C([H])([H])C([H])([H])C([H])(n3nc(-c4c([H])c([H])c(Oc5c([H])c([H])c(F)c([H])c5F)c([H])c4[H])c(C(=O)N([H])[H])c3N([H])[H])C2([H])[H])c([H])c1[H])C([H])([H])[H]

>  <smiles>  (60) 
[H]C(Oc1c([H])c([H])c2c(c1[H])C([H])([H])N(C(=O)C([H])(N([H])C(=O)C([H])(N([H])C([H])([H])[H])C([H])([H])[H])C(C([H])([H])[H])(C([H])([H])[H])C([H])([H])[H])C([H])(C(=O)N([H])C1([H])c3c([H])c([H])c([H])c([H])c3C([H])([H])C([H])([H])C1([H])[H])C2([H])[H])=C(C(=O)N([H])C(=O)c1c([H])c([H])c(N([H])C(=O)N2C([H])([H])C([H])([H])C([H])([H])C([H])(n3nc(-c4c([H])c([H])c(Oc5c([H])c([H])c(F)c([H])c5F)c([H])c4[H])c(C(=O)N([H])[H])c3N([H])[H])C2([H])[H])c([H])c1[H])C([H])([H])[H]

$$$$
60:0:0
     RDKit          3D

 93102  0  0  1  0  0  0  0  0999 V2000
  -28.9030  -24.0300   20.1310 C   0  0  0  0  0  0  0  0  0  0  0  0
  -29.7460  -23.8020   21.2740 C   0  0  0  0  0  0  0  0  0  0  0  0
  -28.7280  -22.7040   19.5030 C   0  0  0  0  0  0  0  0  0  0  0  0
  -30.1190  -24.7310   22.1690 C   0  0  0  0  0  1  0  0  0  0  0  0
  -28.3220  -25.1820   19.6420 C   0  0  0  0  0  2  0  0  0  0  0  0
  -30.1430  -22.3360   21.3280 C   0  0  0  0  0  2  0  0  0  0  0  0
  -29.3470  -21.7170   20.2560 N   0  0  0  0  0  0  0  0  0  0  0  0
  -28.1070  -22.5040   18.4520 O   0  0  0  0  0  0  0  0  0  0  0  0
  -27.5640  -18.5440   19.5420 C   0  0  0  0  0  3  0  0  0  0  0  0
  -30.2560  -19.4060   20.4510 C   0  0  0  0  0  3  0  0  0  0  0  0
  -28.0650  -17.3220   19.7820 C   0  0  0  0  0  2  0  0  0  0  0  0
  -30.4350  -18.0330   20.4690 C   0  0  0  0  0  3  0  0  0  0  0  0
  -28.0380  -19.7890   19.6930 C   0  0  0  0  0  3  0  0  0  0  0  0
  -29.2360  -20.2670   20.1040 C   0  0  0  0  0  0  0  0  0  0  0  0
  -29.4090  -16.9430   20.2650 C   0  0  0  0  0  0  0  0  0  0  0  0
  -29.4590  -15.6500   20.4410 N   0  0  0  0  0  2  0  0  0  0  0  0
  -30.4990  -14.6930   20.4470 C   0  0  0  0  0  0  0  0  0  0  0  0
  -30.4130  -12.4090   19.4690 C   0  0  0  0  0  2  0  0  0  0  0  0
  -29.4740  -12.5080   18.2420 C   0  0  0  0  0  2  0  0  0  0  0  0
  -27.9940  -12.3260   18.6430 C   0  0  0  0  0  2  0  0  0  0  0  0
  -27.6010  -13.2030   19.8580 C   0  0  0  0  0  3  0  0  0  0  0  0
  -28.6490  -13.0650   20.9890 C   0  0  0  0  0  2  0  0  0  0  0  0
  -29.9790  -13.4200   20.4510 N   0  0  0  0  0  0  0  0  0  0  0  0
  -31.6890  -14.8920   20.1980 O   0  0  0  0  0  0  0  0  0  0  0  0
  -25.1980  -13.8230   20.5380 C   0  0  0  0  0  0  0  0  0  0  0  0
  -24.1200  -13.0580   20.8890 C   0  0  0  0  0  0  0  0  0  0  0  0
  -24.5810  -11.7070   20.8770 C   0  0  0  0  0  0  0  0  0  0  0  0
  -26.2450  -12.9370   20.3250 N   0  0  0  0  0  0  0  0  0  0  0  0
  -25.8750  -11.6590   20.5910 N   0  0  0  0  0  0  0  0  0  0  0  0
  -23.8500  -10.4500   21.0660 C   0  0  0  0  0  0  0  0  0  0  0  0
  -24.2760   -9.4830   22.0030 C   0  0  0  0  0  3  0  0  0  0  0  0
  -23.5490   -8.2870   22.1780 C   0  0  0  0  0  3  0  0  0  0  0  0
  -22.3800   -8.0520   21.4140 C   0  0  0  0  0  0  0  0  0  0  0  0
  -21.9730   -9.0080   20.4680 C   0  0  0  0  0  3  0  0  0  0  0  0
  -22.7020  -10.1940   20.2900 C   0  0  0  0  0  3  0  0  0  0  0  0
  -21.6220   -6.9080   21.4990 O   0  0  0  0  0  0  0  0  0  0  0  0
  -21.5750   -6.1610   22.6480 C   0  0  0  0  0  0  0  0  0  0  0  0
  -21.1600   -6.7130   23.8800 C   0  0  0  0  0  3  0  0  0  0  0  0
  -21.0590   -5.8930   25.0210 C   0  0  0  0  0  3  0  0  0  0  0  0
  -21.3620   -4.5210   24.9310 C   0  0  0  0  0  0  0  0  0  0  0  0
  -21.7700   -3.9680   23.7040 C   0  0  0  0  0  3  0  0  0  0  0  0
  -21.8730   -4.7870   22.5660 C   0  0  0  0  0  0  0  0  0  0  0  0
  -22.2470   -4.2440   21.3810 F   0  0  0  0  0  0  0  0  0  0  0  0
  -21.2560   -3.7310   26.0240 F   0  0  0  0  0  0  0  0  0  0  0  0
  -22.7200  -13.5430   21.1320 C   0  0  0  0  0  0  0  0  0  0  0  0
  -21.9750  -12.8570   21.9920 N   0  0  0  0  0  0  0  0  0  0  0  0
  -22.2930  -14.5650   20.5960 O   0  0  0  0  0  0  0  0  0  0  0  0
  -22.3320  -12.0300   22.4470 H   0  0  0  0  0  0  0  0  0  0  0  0
  -21.0360  -13.1630   22.1980 H   0  0  0  0  0  0  0  0  0  0  0  0
  -25.3680  -15.1920   20.3690 N   0  0  0  0  0  0  0  0  0  0  0  0
  -24.6210  -15.8610   20.5120 H   0  0  0  0  0  0  0  0  0  0  0  0
  -26.2700  -15.6210   20.2240 H   0  0  0  0  0  0  0  0  0  0  0  0
  -28.3660  -26.5040   20.1350 O   0  0  0  0  0  0  0  0  0  0  0  0
  -24.6390  -31.8710   23.2250 C   0  0  0  0  0  0  0  0  0  0  0  0
  -27.2220  -27.3280   20.1080 C   0  0  0  0  0  0  0  0  0  0  0  0
  -23.4140  -30.4790   21.5970 C   0  0  0  0  0  3  0  0  0  0  0  0
  -24.8450  -28.9330   20.1500 C   0  0  0  0  0  0  0  0  0  0  0  0
  -25.9500  -30.7980   21.3810 C   0  0  0  0  0  2  0  0  0  0  0  0
  -26.0220  -29.4210   20.7310 C   0  0  0  0  0  0  0  0  0  0  0  0
  -27.2090  -28.6290   20.7040 C   0  0  0  0  0  3  0  0  0  0  0  0
  -26.0060  -26.8860   19.5300 C   0  0  0  0  0  3  0  0  0  0  0  0
  -24.8380  -27.6700   19.5460 C   0  0  0  0  0  3  0  0  0  0  0  0
  -23.6080  -29.8050   20.2140 C   0  0  0  0  0  2  0  0  0  0  0  0
  -24.6880  -31.0660   22.1250 N   0  0  0  0  0  0  0  0  0  0  0  0
  -23.5630  -32.1470   23.7750 O   0  0  0  0  0  0  0  0  0  0  0  0
  -22.7630  -29.4600   22.5630 C   0  0  0  0  0  0  0  0  0  0  0  0
  -21.4360  -29.2790   22.4480 N   0  0  0  0  0  0  0  0  0  0  0  0
  -23.4500  -28.8360   23.3770 O   0  0  0  0  0  0  0  0  0  0  0  0
  -20.9410  -29.8350   21.7640 H   0  0  0  0  0  0  0  0  0  0  0  0
  -18.0670  -28.0660   22.9600 C   0  0  0  0  0  0  0  0  0  0  0  0
  -20.6240  -28.3400   23.2240 C   0  0  0  0  0  3  0  0  0  0  0  0
  -20.7330  -26.9070   22.6530 C   0  0  0  0  0  2  0  0  0  0  0  0
  -19.6300  -26.5730   21.6440 C   0  0  0  0  0  2  0  0  0  0  0  0
  -18.2490  -26.7140   22.2900 C   0  0  0  0  0  2  0  0  0  0  0  0
  -19.1820  -28.8360   23.3830 C   0  0  0  0  0  0  0  0  0  0  0  0
  -18.9580  -30.1010   23.9690 C   0  0  0  0  0  3  0  0  0  0  0  0
  -17.6500  -30.5950   24.1350 C   0  0  0  0  0  3  0  0  0  0  0  0
  -16.5490  -29.8220   23.7270 C   0  0  0  0  0  3  0  0  0  0  0  0
  -16.7580  -28.5600   23.1450 C   0  0  0  0  0  3  0  0  0  0  0  0
  -25.9310  -32.4990   23.8340 C   0  0  0  0  0  3  0  0  0  0  0  0
  -25.6250  -33.8930   24.1820 N   0  0  0  0  0  0  0  0  0  0  0  0
  -25.9370  -34.9540   23.4260 C   0  0  0  0  0  0  0  0  0  0  0  0
  -26.5840  -34.8620   22.3790 O   0  0  0  0  0  0  0  0  0  0  0  0
  -25.0460  -34.0390   24.9970 H   0  0  0  0  0  0  0  0  0  0  0  0
  -24.1920  -36.7410   23.1320 C   0  0  0  0  0  1  0  0  0  0  0  0
  -25.4570  -36.3380   23.9060 C   0  0  0  0  0  3  0  0  0  0  0  0
  -27.6100  -37.2240   24.6830 C   0  0  0  0  0  1  0  0  0  0  0  0
  -26.4810  -37.3960   23.7720 N   0  0  0  0  0  0  0  0  0  0  0  0
  -26.0750  -38.3130   23.9390 H   0  0  0  0  0  0  0  0  0  0  0  0
  -26.4660  -31.7160   25.0950 C   0  0  1  0  0  0  0  0  0  0  0  0
  -25.3900  -31.4690   26.1780 C   0  0  0  0  0  1  0  0  0  0  0  0
  -27.0410  -30.3420   24.6800 C   0  0  0  0  0  1  0  0  0  0  0  0
  -27.6290  -32.5010   25.7450 C   0  0  0  0  0  1  0  0  0  0  0  0
  1  2  2  0
  2  6  1  0
  2  4  1  0
  3  1  1  0
  3  7  1  0
  5  1  1  0
  5 53  1  0
  7  6  1  0
  8  3  2  0
  9 13  2  0
  9 11  1  0
 10 12  1  0
 11 15  1  0
 13 14  1  0
 14  7  1  0
 14 10  2  0
 15 16  1  0
 15 12  2  0
 16 17  1  0
 17 23  1  0
 18 23  1  0
 19 20  1  0
 19 18  1  0
 21 20  1  0
 21 28  1  0
 21 22  1  0
 23 22  1  0
 24 17  2  0
 25 26  2  0
 26 45  1  0
 27 26  1  0
 27 30  1  0
 28 25  1  0
 28 29  1  0
 29 27  2  0
 30 31  1  0
 31 32  2  0
 33 36  1  0
 33 32  1  0
 34 33  2  0
 35 34  1  0
 35 30  2  0
 36 37  1  0
 37 38  1  0
 38 39  2  0
 40 39  1  0
 40 44  1  0
 41 40  2  0
 42 37  2  0
 42 41  1  0
 43 42  1  0
 45 46  1  0
 46 49  1  0
 46 48  1  0
 47 45  2  0
 50 51  1  0
 50 25  1  0
 52 50  1  0
 54 65  2  0
 55 53  1  0
 55 60  1  0
 56 64  1  0
 56 66  1  0
 57 63  1  0
 57 59  1  0
 58 64  1  0
 59 58  1  0
 60 59  2  0
 61 62  1  0
 61 55  2  0
 62 57  2  0
 63 56  1  0
 64 54  1  0
 66 68  2  0
 67 66  1  0
 69 67  1  0
 70 79  2  0
 70 75  1  0
 71 67  1  0
 71 75  1  0
 72 71  1  0
 73 74  1  0
 73 72  1  0
 74 70  1  0
 75 76  2  0
 76 77  1  0
 78 77  2  0
 79 78  1  0
 80 54  1  0
 80 81  1  0
 80 90  1  0
 81 84  1  0
 82 86  1  0
 82 81  1  0
 83 82  2  0
 86 85  1  0
 88 86  1  0
 88 89  1  0
 88 87  1  0
 90 93  1  1
 90 91  1  0
 92 90  1  0
M  ISO  4   5 101  16 100  17 100  53 101
M  END
>  <TORSDO>  (61) 
F 17

>  <SCORE>  (61) 
-15.459

>  <name>  (61) 
60

>  <ligand_id>  (61) 
60

>  <original_smiles>  (61) 
[H]C([H])=C1C(=C([H])Oc2c([H])c([H])c3c(c2[H])C([H])([H])N(C(=O)C([H])(N([H])C(=O)C([H])(N([H])C([H])([H])[H])C([H])([H])[H])C(C([H])([H])[H])(C([H])([H])[H])C([H])([H])[H])C([H])(C(=O)N([H])C2([H])c4c([H])c([H])c([H])c([H])c4C([H])([H])C([H])([H])C2([H])[H])C3([H])[H])C(=O)N(c2c([H])c([H])c([H])c(=NC(=O)N3C([H])([H])C([H])([H])C([H])([H])C([H])(n4nc(-c5c([H])c([H])c(Oc6c([H])c([H])c(F)c([H])c6F)c([H])c5[H])c(C(=O)N([H])[H])c4N([H])[H])C3([H])[H])c([H])c2[H])C1([H])[H]

>  <smiles>  (61) 
[H]C([H])=C1C(=C([H])Oc2c([H])c([H])c3c(c2[H])C([H])([H])N(C(=O)C([H])(N([H])C(=O)C([H])(N([H])C([H])([H])[H])C([H])([H])[H])C(C([H])([H])[H])(C([H])([H])[H])C([H])([H])[H])C([H])(C(=O)N([H])C2([H])c4c([H])c([H])c([H])c([H])c4C([H])([H])C([H])([H])C2([H])[H])C3([H])[H])C(=O)N(c2c([H])c([H])c([H])c(=NC(=O)N3C([H])([H])C([H])([H])C([H])([H])C([H])(n4nc(-c5c([H])c([H])c(Oc6c([H])c([H])c(F)c([H])c6F)c([H])c5[H])c(C(=O)N([H])[H])c4N([H])[H])C3([H])[H])c([H])c2[H])C1([H])[H]

$$$$
61:0:0
     RDKit          3D

 92101  0  0  1  0  0  0  0  0999 V2000
  -29.8720  -20.2910   21.2580 C   0  0  0  0  0  3  0  0  0  0  0  0
  -28.5870  -19.5130   19.3570 C   0  0  0  0  0  3  0  0  0  0  0  0
  -29.6150  -21.6320   20.8910 C   0  0  0  0  0  3  0  0  0  0  0  0
  -28.3320  -20.8540   18.9900 C   0  0  0  0  0  3  0  0  0  0  0  0
  -29.3840  -19.2100   20.4830 C   0  0  0  0  0  0  0  0  0  0  0  0
  -28.8500  -21.9360   19.7360 C   0  0  0  0  0  0  0  0  0  0  0  0
  -30.8740  -14.5190   20.0920 C   0  0  0  0  0  0  0  0  0  0  0  0
  -30.4800  -12.3890   18.9110 C   0  0  0  0  0  2  0  0  0  0  0  0
  -29.4690  -12.6200   17.7700 C   0  0  0  0  0  2  0  0  0  0  0  0
  -28.0250  -12.4750   18.2870 C   0  0  0  0  0  2  0  0  0  0  0  0
  -27.7670  -13.2900   19.5830 C   0  0  0  0  0  3  0  0  0  0  0  0
  -28.8870  -13.0540   20.6210 C   0  0  0  0  0  2  0  0  0  0  0  0
  -30.1720  -13.3580   19.9730 N   0  0  0  0  0  0  0  0  0  0  0  0
  -31.9790  -14.6790   19.5630 O   0  0  0  0  0  0  0  0  0  0  0  0
  -30.1800  -17.4030   22.0390 C   0  0  0  0  0  3  0  0  0  0  0  0
  -29.7070  -17.7970   20.8530 C   0  0  0  0  0  0  0  0  0  0  0  0
  -29.7720  -16.6250   19.9730 C   0  0  0  0  0  0  0  0  0  0  0  0
  -30.5580  -15.9540   22.0530 C   0  0  0  0  0  2  0  0  0  0  0  0
  -30.2380  -15.5600   20.6830 N   0  0  0  0  0  0  0  0  0  0  0  0
  -29.4630  -16.5980   18.7760 O   0  0  0  0  0  0  0  0  0  0  0  0
  -25.4280  -13.8910   20.4640 C   0  0  0  0  0  0  0  0  0  0  0  0
  -24.3780  -13.1150   20.8760 C   0  0  0  0  0  0  0  0  0  0  0  0
  -24.8240  -11.7620   20.7730 C   0  0  0  0  0  0  0  0  0  0  0  0
  -26.4460  -13.0100   20.1380 N   0  0  0  0  0  0  0  0  0  0  0  0
  -26.0910  -11.7220   20.3810 N   0  0  0  0  0  0  0  0  0  0  0  0
  -24.0990  -10.4990   20.9680 C   0  0  0  0  0  0  0  0  0  0  0  0
  -24.5450   -9.5260   21.8880 C   0  0  0  0  0  3  0  0  0  0  0  0
  -23.8220   -8.3280   22.0710 C   0  0  0  0  0  3  0  0  0  0  0  0
  -22.6370   -8.0950   21.3320 C   0  0  0  0  0  0  0  0  0  0  0  0
  -22.2100   -9.0560   20.4000 C   0  0  0  0  0  3  0  0  0  0  0  0
  -22.9350  -10.2460   20.2160 C   0  0  0  0  0  3  0  0  0  0  0  0
  -21.8840   -6.9500   21.4250 O   0  0  0  0  0  0  0  0  0  0  0  0
  -21.8010   -6.2350   22.5930 C   0  0  0  0  0  0  0  0  0  0  0  0
  -21.3190   -6.8130   23.7880 C   0  0  0  0  0  3  0  0  0  0  0  0
  -21.1850   -6.0240   24.9470 C   0  0  0  0  0  3  0  0  0  0  0  0
  -21.5220   -4.6580   24.9140 C   0  0  0  0  0  0  0  0  0  0  0  0
  -21.9980   -4.0800   23.7240 C   0  0  0  0  0  3  0  0  0  0  0  0
  -22.1330   -4.8650   22.5660 C   0  0  0  0  0  0  0  0  0  0  0  0
  -22.5710   -4.2980   21.4160 F   0  0  0  0  0  0  0  0  0  0  0  0
  -21.3870   -3.8980   26.0250 F   0  0  0  0  0  0  0  0  0  0  0  0
  -23.0060  -13.5930   21.2530 C   0  0  0  0  0  0  0  0  0  0  0  0
  -22.3280  -12.8750   22.1410 N   0  0  0  0  0  0  0  0  0  0  0  0
  -22.5450  -14.6380   20.7940 O   0  0  0  0  0  0  0  0  0  0  0  0
  -22.7150  -12.0290   22.5340 H   0  0  0  0  0  0  0  0  0  0  0  0
  -21.4100  -13.1760   22.4360 H   0  0  0  0  0  0  0  0  0  0  0  0
  -25.5940  -15.2650   20.3190 N   0  0  0  0  0  0  0  0  0  0  0  0
  -24.8390  -15.9210   20.4880 H   0  0  0  0  0  0  0  0  0  0  0  0
  -26.4170  -15.7030   19.9250 H   0  0  0  0  0  0  0  0  0  0  0  0
  -28.7750  -24.3070   19.9120 C   0  0  0  0  0  3  0  0  0  0  0  0
  -28.6490  -23.2350   19.2240 N   0  0  0  0  0  0  0  0  0  0  0  0
  -28.7510  -25.6970   19.2680 C   0  0  0  0  0  2  0  0  0  0  0  0
  -28.5140  -26.7810   20.1840 O   0  0  0  0  0  0  0  0  0  0  0  0
  -24.6710  -31.9320   23.2480 C   0  0  0  0  0  0  0  0  0  0  0  0
  -27.3130  -27.4680   20.1740 C   0  0  0  0  0  0  0  0  0  0  0  0
  -23.4580  -30.5110   21.6290 C   0  0  0  0  0  3  0  0  0  0  0  0
  -24.9060  -28.9670   20.2060 C   0  0  0  0  0  0  0  0  0  0  0  0
  -25.9810  -30.8760   21.4080 C   0  0  0  0  0  2  0  0  0  0  0  0
  -26.0660  -29.4990   20.7800 C   0  0  0  0  0  0  0  0  0  0  0  0
  -27.2670  -28.7530   20.7650 C   0  0  0  0  0  3  0  0  0  0  0  0
  -26.1230  -26.9420   19.6170 C   0  0  0  0  0  3  0  0  0  0  0  0
  -24.9280  -27.6870   19.6260 C   0  0  0  0  0  3  0  0  0  0  0  0
  -23.6580  -29.8210   20.2530 C   0  0  0  0  0  2  0  0  0  0  0  0
  -24.7220  -31.1230   22.1530 N   0  0  0  0  0  0  0  0  0  0  0  0
  -23.5930  -32.2040   23.7950 O   0  0  0  0  0  0  0  0  0  0  0  0
  -22.8200  -29.4960   22.6030 C   0  0  0  0  0  0  0  0  0  0  0  0
  -21.5000  -29.2830   22.4660 N   0  0  0  0  0  0  0  0  0  0  0  0
  -23.5090  -28.9000   23.4360 O   0  0  0  0  0  0  0  0  0  0  0  0
  -21.0060  -29.8170   21.7650 H   0  0  0  0  0  0  0  0  0  0  0  0
  -18.1530  -28.0070   22.9310 C   0  0  0  0  0  0  0  0  0  0  0  0
  -20.6960  -28.3430   23.2460 C   0  0  0  0  0  3  0  0  0  0  0  0
  -20.8500  -26.9010   22.7110 C   0  0  0  0  0  2  0  0  0  0  0  0
  -19.7780  -26.5210   21.6840 C   0  0  0  0  0  2  0  0  0  0  0  0
  -18.3800  -26.6440   22.2960 C   0  0  0  0  0  2  0  0  0  0  0  0
  -19.2410  -28.8110   23.3630 C   0  0  0  0  0  0  0  0  0  0  0  0
  -18.9760  -30.0840   23.9130 C   0  0  0  0  0  3  0  0  0  0  0  0
  -17.6550  -30.5530   24.0380 C   0  0  0  0  0  3  0  0  0  0  0  0
  -16.5810  -29.7470   23.6240 C   0  0  0  0  0  3  0  0  0  0  0  0
  -16.8300  -28.4750   23.0760 C   0  0  0  0  0  3  0  0  0  0  0  0
  -25.9590  -32.5740   23.8530 C   0  0  0  0  0  3  0  0  0  0  0  0
  -25.6430  -33.9690   24.1890 N   0  0  0  0  0  0  0  0  0  0  0  0
  -25.9600  -35.0240   23.4280 C   0  0  0  0  0  0  0  0  0  0  0  0
  -26.6210  -34.9270   22.3900 O   0  0  0  0  0  0  0  0  0  0  0  0
  -25.0550  -34.1170   24.9960 H   0  0  0  0  0  0  0  0  0  0  0  0
  -24.2170  -36.8040   23.0860 C   0  0  0  0  0  1  0  0  0  0  0  0
  -25.4650  -36.4080   23.8910 C   0  0  0  0  0  3  0  0  0  0  0  0
  -27.5950  -37.3070   24.7160 C   0  0  0  0  0  1  0  0  0  0  0  0
  -26.4890  -37.4680   23.7770 N   0  0  0  0  0  0  0  0  0  0  0  0
  -26.0760  -38.3850   23.9280 H   0  0  0  0  0  0  0  0  0  0  0  0
  -26.5030  -31.8050   25.1190 C   0  0  1  0  0  0  0  0  0  0  0  0
  -25.4230  -31.5340   26.1930 C   0  0  0  0  0  1  0  0  0  0  0  0
  -27.1120  -30.4430   24.7100 C   0  0  0  0  0  1  0  0  0  0  0  0
  -27.6410  -32.6180   25.7790 C   0  0  0  0  0  1  0  0  0  0  0  0
  2  5  1  0
  3  1  1  0
  4  2  2  0
  4  6  1  0
  5 16  1  0
  5  1  2  0
  6  3  2  0
  7 19  1  0
  8 13  1  0
  9 10  1  0
  9  8  1  0
 11 10  1  0
 11 24  1  0
 11 12  1  0
 13  7  1  0
 13 12  1  0
 14  7  2  0
 15 18  1  0
 16 15  2  0
 17 19  1  0
 17 16  1  0
 19 18  1  0
 20 17  2  0
 21 22  2  0
 22 41  1  0
 23 22  1  0
 23 26  1  0
 24 25  1  0
 24 21  1  0
 25 23  2  0
 26 27  1  0
 27 28  2  0
 29 32  1  0
 29 28  1  0
 30 29  2  0
 31 30  1  0
 31 26  2  0
 32 33  1  0
 33 34  1  0
 34 35  2  0
 36 35  1  0
 36 40  1  0
 37 36  2  0
 38 33  2  0
 38 37  1  0
 39 38  1  0
 41 42  1  0
 42 45  1  0
 42 44  1  0
 43 41  2  0
 46 21  1  0
 46 47  1  0
 48 46  1  0
 50  6  1  0
 50 49  2  0
 51 49  1  0
 51 52  1  0
 53 64  2  0
 54 52  1  0
 54 59  1  0
 55 63  1  0
 55 65  1  0
 56 62  1  0
 56 58  1  0
 57 63  1  0
 58 57  1  0
 59 58  2  0
 60 61  1  0
 60 54  2  0
 61 56  2  0
 62 55  1  0
 63 53  1  0
 65 67  2  0
 66 65  1  0
 68 66  1  0
 69 78  2  0
 69 74  1  0
 70 66  1  0
 70 74  1  0
 71 70  1  0
 72 73  1  0
 72 71  1  0
 73 69  1  0
 74 75  2  0
 75 76  1  0
 77 76  2  0
 78 77  1  0
 79 53  1  0
 79 80  1  0
 79 89  1  0
 80 83  1  0
 81 85  1  0
 81 80  1  0
 82 81  2  0
 85 84  1  0
 87 85  1  0
 87 88  1  0
 87 86  1  0
 89 92  1  1
 89 90  1  0
 91 89  1  0
M  ISO  4   7 100  19 100  51 101  52 101
M  END
>  <TORSDO>  (62) 
F 18

>  <SCORE>  (62) 
-14.445

>  <name>  (62) 
61

>  <ligand_id>  (62) 
61

>  <original_smiles>  (62) 
[H]C(=Nc1c([H])c([H])c(C2=C([H])C([H])([H])N(C(=O)N3C([H])([H])C([H])([H])C([H])([H])C([H])(n4nc(-c5c([H])c([H])c(Oc6c([H])c([H])c(F)c([H])c6F)c([H])c5[H])c(C(=O)N([H])[H])c4N([H])[H])C3([H])[H])C2=O)c([H])c1[H])C([H])([H])Oc1c([H])c([H])c2c(c1[H])C([H])([H])N(C(=O)C([H])(N([H])C(=O)C([H])(N([H])C([H])([H])[H])C([H])([H])[H])C(C([H])([H])[H])(C([H])([H])[H])C([H])([H])[H])C([H])(C(=O)N([H])C1([H])c3c([H])c([H])c([H])c([H])c3C([H])([H])C([H])([H])C1([H])[H])C2([H])[H]

>  <smiles>  (62) 
[H]C(=Nc1c([H])c([H])c(C2=C([H])C([H])([H])N(C(=O)N3C([H])([H])C([H])([H])C([H])([H])C([H])(n4nc(-c5c([H])c([H])c(Oc6c([H])c([H])c(F)c([H])c6F)c([H])c5[H])c(C(=O)N([H])[H])c4N([H])[H])C3([H])[H])C2=O)c([H])c1[H])C([H])([H])Oc1c([H])c([H])c2c(c1[H])C([H])([H])N(C(=O)C([H])(N([H])C(=O)C([H])(N([H])C([H])([H])[H])C([H])([H])[H])C(C([H])([H])[H])(C([H])([H])[H])C([H])([H])[H])C([H])(C(=O)N([H])C1([H])c3c([H])c([H])c([H])c([H])c3C([H])([H])C([H])([H])C1([H])[H])C2([H])[H]

$$$$
62:0:0
     RDKit          3D

 92101  0  0  1  0  0  0  0  0999 V2000
  -28.7700  -24.4130   20.7270 C   0  0  0  0  0  0  0  0  0  0  0  0
  -28.6450  -23.3060   21.6400 C   0  0  0  0  0  0  0  0  0  0  0  0
  -28.4970  -25.7270   20.9400 C   0  0  0  0  0  3  0  0  0  0  0  0
  -29.2520  -23.4800   19.6190 C   0  0  0  0  0  2  0  0  0  0  0  0
  -28.9530  -22.4200   20.6050 N   0  0  0  0  0  0  0  0  0  0  0  0
  -28.4470  -23.2600   22.8370 O   0  0  0  0  0  0  0  0  0  0  0  0
  -30.1690  -18.9730   21.6410 C   0  0  0  0  0  3  0  0  0  0  0  0
  -30.1560  -19.0440   19.2330 C   0  0  0  0  0  3  0  0  0  0  0  0
  -29.6580  -20.2910   21.6730 C   0  0  0  0  0  3  0  0  0  0  0  0
  -29.6430  -20.3680   19.2840 C   0  0  0  0  0  3  0  0  0  0  0  0
  -30.4610  -18.3370   20.4190 C   0  0  0  0  0  0  0  0  0  0  0  0
  -29.4100  -21.0570   20.5040 C   0  0  0  0  0  0  0  0  0  0  0  0
  -31.2650  -17.0190   20.4030 C   0  0  0  0  0  2  0  0  0  0  0  0
  -31.1600  -14.6300   19.6780 C   0  0  0  0  0  0  0  0  0  0  0  0
  -30.7610  -12.3660   18.7720 C   0  0  0  0  0  2  0  0  0  0  0  0
  -29.7460  -12.4420   17.6140 C   0  0  0  0  0  2  0  0  0  0  0  0
  -28.3050  -12.3580   18.1530 C   0  0  0  0  0  2  0  0  0  0  0  0
  -28.0500  -13.3260   19.3400 C   0  0  0  0  0  3  0  0  0  0  0  0
  -29.1750  -13.2340   20.3930 C   0  0  0  0  0  2  0  0  0  0  0  0
  -30.4530  -13.4660   19.7040 N   0  0  0  0  0  0  0  0  0  0  0  0
  -32.2620  -14.7100   19.1290 O   0  0  0  0  0  0  0  0  0  0  0  0
  -30.5650  -15.7350   20.1890 N   0  0  0  0  0  0  0  0  0  0  0  0
  -29.6380  -15.6330   20.5740 H   0  0  0  0  0  0  0  0  0  0  0  0
  -25.7690  -14.0400   20.2850 C   0  0  0  0  0  0  0  0  0  0  0  0
  -24.6930  -13.3160   20.7240 C   0  0  0  0  0  0  0  0  0  0  0  0
  -25.0690  -11.9430   20.6120 C   0  0  0  0  0  0  0  0  0  0  0  0
  -26.7330  -13.1090   19.9330 N   0  0  0  0  0  0  0  0  0  0  0  0
  -26.3210  -11.8400   20.1880 N   0  0  0  0  0  0  0  0  0  0  0  0
  -24.2870  -10.7180   20.8290 C   0  0  0  0  0  0  0  0  0  0  0  0
  -24.7000   -9.7330   21.7520 C   0  0  0  0  0  3  0  0  0  0  0  0
  -23.9210   -8.5730   21.9570 C   0  0  0  0  0  3  0  0  0  0  0  0
  -22.7150   -8.3920   21.2380 C   0  0  0  0  0  0  0  0  0  0  0  0
  -22.3210   -9.3650   20.3050 C   0  0  0  0  0  3  0  0  0  0  0  0
  -23.0990  -10.5160   20.0980 C   0  0  0  0  0  3  0  0  0  0  0  0
  -21.9070   -7.2860   21.3540 O   0  0  0  0  0  0  0  0  0  0  0  0
  -21.7940   -6.5980   22.5350 C   0  0  0  0  0  0  0  0  0  0  0  0
  -21.3430   -7.2190   23.7190 C   0  0  0  0  0  3  0  0  0  0  0  0
  -21.1750   -6.4570   24.8940 C   0  0  0  0  0  3  0  0  0  0  0  0
  -21.4470   -5.0770   24.8840 C   0  0  0  0  0  0  0  0  0  0  0  0
  -21.8920   -4.4550   23.7030 C   0  0  0  0  0  3  0  0  0  0  0  0
  -22.0620   -5.2130   22.5310 C   0  0  0  0  0  0  0  0  0  0  0  0
  -22.4700   -4.6060   21.3910 F   0  0  0  0  0  0  0  0  0  0  0  0
  -21.2790   -4.3440   26.0090 F   0  0  0  0  0  0  0  0  0  0  0  0
  -23.3570  -13.8640   21.1350 C   0  0  0  0  0  0  0  0  0  0  0  0
  -22.6770  -13.1900   22.0570 N   0  0  0  0  0  0  0  0  0  0  0  0
  -22.9300  -14.9210   20.6740 O   0  0  0  0  0  0  0  0  0  0  0  0
  -23.0370  -12.3340   22.4510 H   0  0  0  0  0  0  0  0  0  0  0  0
  -21.7820  -13.5370   22.3730 H   0  0  0  0  0  0  0  0  0  0  0  0
  -25.9980  -15.4040   20.1350 N   0  0  0  0  0  0  0  0  0  0  0  0
  -25.2870  -16.0970   20.3390 H   0  0  0  0  0  0  0  0  0  0  0  0
  -26.8430  -15.8060   19.7500 H   0  0  0  0  0  0  0  0  0  0  0  0
  -28.5740  -26.7700   20.0370 O   0  0  0  0  0  0  0  0  0  0  0  0
  -24.7350  -31.8340   23.2980 C   0  0  0  0  0  0  0  0  0  0  0  0
  -27.4480  -27.5660   20.0260 C   0  0  0  0  0  0  0  0  0  0  0  0
  -23.5440  -30.4500   21.6300 C   0  0  0  0  0  3  0  0  0  0  0  0
  -25.0200  -29.0140   20.1200 C   0  0  0  0  0  0  0  0  0  0  0  0
  -26.0550  -30.8940   21.4000 C   0  0  0  0  0  2  0  0  0  0  0  0
  -26.1740  -29.5490   20.7080 C   0  0  0  0  0  0  0  0  0  0  0  0
  -27.3960  -28.8320   20.6590 C   0  0  0  0  0  3  0  0  0  0  0  0
  -26.2810  -27.0540   19.4260 C   0  0  0  0  0  3  0  0  0  0  0  0
  -25.0690  -27.7670   19.4740 C   0  0  0  0  0  3  0  0  0  0  0  0
  -23.7480  -29.8280   20.2220 C   0  0  0  0  0  2  0  0  0  0  0  0
  -24.7970  -31.0720   22.1680 N   0  0  0  0  0  0  0  0  0  0  0  0
  -23.6560  -32.0530   23.8650 O   0  0  0  0  0  0  0  0  0  0  0  0
  -22.9420  -29.3770   22.5650 C   0  0  0  0  0  0  0  0  0  0  0  0
  -21.6360  -29.1030   22.4030 N   0  0  0  0  0  0  0  0  0  0  0  0
  -23.6470  -28.7940   23.3930 O   0  0  0  0  0  0  0  0  0  0  0  0
  -21.1240  -29.6300   21.7100 H   0  0  0  0  0  0  0  0  0  0  0  0
  -18.3720  -27.5850   22.7210 C   0  0  0  0  0  0  0  0  0  0  0  0
  -20.8690  -28.1020   23.1450 C   0  0  0  0  0  3  0  0  0  0  0  0
  -21.1500  -26.6780   22.6110 C   0  0  0  0  0  2  0  0  0  0  0  0
  -20.1510  -26.2280   21.5390 C   0  0  0  0  0  2  0  0  0  0  0  0
  -18.7250  -26.2460   22.0930 C   0  0  0  0  0  2  0  0  0  0  0  0
  -19.3800  -28.4620   23.2010 C   0  0  0  0  0  0  0  0  0  0  0  0
  -19.0000  -29.7090   23.7440 C   0  0  0  0  0  3  0  0  0  0  0  0
  -17.6440  -30.0800   23.8150 C   0  0  0  0  0  3  0  0  0  0  0  0
  -16.6510  -29.2010   23.3530 C   0  0  0  0  0  3  0  0  0  0  0  0
  -17.0150  -27.9550   22.8110 C   0  0  0  0  0  3  0  0  0  0  0  0
  -26.0120  -32.4840   23.9170 C   0  0  0  0  0  3  0  0  0  0  0  0
  -25.6900  -33.8810   24.2300 N   0  0  0  0  0  0  0  0  0  0  0  0
  -26.0200  -34.9290   23.4620 C   0  0  0  0  0  0  0  0  0  0  0  0
  -26.6980  -34.8200   22.4370 O   0  0  0  0  0  0  0  0  0  0  0  0
  -25.0870  -34.0390   25.0260 H   0  0  0  0  0  0  0  0  0  0  0  0
  -24.2770  -36.7000   23.0740 C   0  0  0  0  0  1  0  0  0  0  0  0
  -25.5150  -36.3170   23.9000 C   0  0  0  0  0  3  0  0  0  0  0  0
  -27.6350  -37.2310   24.7370 C   0  0  0  0  0  1  0  0  0  0  0  0
  -26.5380  -37.3790   23.7840 N   0  0  0  0  0  0  0  0  0  0  0  0
  -26.1220  -38.2960   23.9220 H   0  0  0  0  0  0  0  0  0  0  0  0
  -26.5340  -31.7290   25.2010 C   0  0  1  0  0  0  0  0  0  0  0  0
  -25.4410  -31.4900   26.2680 C   0  0  0  0  0  1  0  0  0  0  0  0
  -27.1290  -30.3530   24.8200 C   0  0  0  0  0  1  0  0  0  0  0  0
  -27.6750  -32.5390   25.8590 C   0  0  0  0  0  1  0  0  0  0  0  0
  1  3  2  0
  1  2  1  0
  2  6  2  0
  4  5  1  0
  4  1  1  0
  5  2  1  0
  7  9  1  0
  8 10  2  0
  8 11  1  0
 10 12  1  0
 11  7  2  0
 12  5  1  0
 12  9  2  0
 13 11  1  0
 14 20  1  0
 14 22  1  0
 15 20  1  0
 16 17  1  0
 16 15  1  0
 18 17  1  0
 18 27  1  0
 18 19  1  0
 20 19  1  0
 21 14  2  0
 22 13  1  0
 22 23  1  0
 24 25  2  0
 25 44  1  0
 26 25  1  0
 26 29  1  0
 27 28  1  0
 27 24  1  0
 28 26  2  0
 29 30  1  0
 30 31  2  0
 32 35  1  0
 32 31  1  0
 33 32  2  0
 34 33  1  0
 34 29  2  0
 35 36  1  0
 36 37  1  0
 37 38  2  0
 39 38  1  0
 39 43  1  0
 40 39  2  0
 41 36  2  0
 41 40  1  0
 42 41  1  0
 44 45  1  0
 45 48  1  0
 45 47  1  0
 46 44  2  0
 49 24  1  0
 49 50  1  0
 51 49  1  0
 52  3  1  0
 53 64  2  0
 54 52  1  0
 54 59  1  0
 55 63  1  0
 55 65  1  0
 56 62  1  0
 56 58  1  0
 57 63  1  0
 58 57  1  0
 59 58  2  0
 60 61  1  0
 60 54  2  0
 61 56  2  0
 62 55  1  0
 63 53  1  0
 65 67  2  0
 66 65  1  0
 68 66  1  0
 69 78  2  0
 69 74  1  0
 70 66  1  0
 70 74  1  0
 71 70  1  0
 72 73  1  0
 72 71  1  0
 73 69  1  0
 74 75  2  0
 75 76  1  0
 77 76  2  0
 78 77  1  0
 79 53  1  0
 79 80  1  0
 79 89  1  0
 80 83  1  0
 81 85  1  0
 81 80  1  0
 82 81  2  0
 85 84  1  0
 87 85  1  0
 87 88  1  0
 87 86  1  0
 89 92  1  1
 89 90  1  0
 91 89  1  0
M  ISO  4   3 101  14 100  22 100  52 101
M  END
>  <TORSDO>  (63) 
F 18

>  <SCORE>  (63) 
-13.182

>  <name>  (63) 
62

>  <ligand_id>  (63) 
62

>  <original_smiles>  (63) 
[H]C(Oc1c([H])c([H])c2c(c1[H])C([H])([H])N(C(=O)C([H])(N([H])C(=O)C([H])(N([H])C([H])([H])[H])C([H])([H])[H])C(C([H])([H])[H])(C([H])([H])[H])C([H])([H])[H])C([H])(C(=O)N([H])C1([H])c3c([H])c([H])c([H])c([H])c3C([H])([H])C([H])([H])C1([H])[H])C2([H])[H])=C1C(=O)N(c2c([H])c([H])c(C([H])([H])N([H])C(=O)N3C([H])([H])C([H])([H])C([H])([H])C([H])(n4nc(-c5c([H])c([H])c(Oc6c([H])c([H])c(F)c([H])c6F)c([H])c5[H])c(C(=O)N([H])[H])c4N([H])[H])C3([H])[H])c([H])c2[H])C1([H])[H]

>  <smiles>  (63) 
[H]C(Oc1c([H])c([H])c2c(c1[H])C([H])([H])N(C(=O)C([H])(N([H])C(=O)C([H])(N([H])C([H])([H])[H])C([H])([H])[H])C(C([H])([H])[H])(C([H])([H])[H])C([H])([H])[H])C([H])(C(=O)N([H])C1([H])c3c([H])c([H])c([H])c([H])c3C([H])([H])C([H])([H])C1([H])[H])C2([H])[H])=C1C(=O)N(c2c([H])c([H])c(C([H])([H])N([H])C(=O)N3C([H])([H])C([H])([H])C([H])([H])C([H])(n4nc(-c5c([H])c([H])c(Oc6c([H])c([H])c(F)c([H])c6F)c([H])c5[H])c(C(=O)N([H])[H])c4N([H])[H])C3([H])[H])c([H])c2[H])C1([H])[H]

$$$$
63:0:0
     RDKit          3D

 91100  0  0  1  0  0  0  0  0999 V2000
  -29.2050  -22.4340   20.3330 C   0  0  0  0  0  0  0  0  0  0  0  0
  -27.2190  -20.4540   17.9550 C   0  0  0  0  0  2  0  0  0  0  0  0
  -27.9870  -19.2730   18.4800 C   0  0  0  0  0  2  0  0  0  0  0  0
  -28.0860  -21.6530   18.3170 C   0  0  0  0  0  2  0  0  0  0  0  0
  -28.6870  -19.7860   19.7520 C   0  0  0  0  0  3  0  0  0  0  0  0
  -28.8570  -21.3260   19.5410 N   0  0  0  0  0  0  0  0  0  0  0  0
  -30.2660  -22.4350   20.9610 O   0  0  0  0  0  0  0  0  0  0  0  0
  -30.1770  -17.4320   19.4490 C   0  0  0  0  0  3  0  0  0  0  0  0
  -29.7010  -18.2420   21.5480 C   0  0  0  0  0  3  0  0  0  0  0  0
  -29.6310  -18.5780   20.2190 C   0  0  0  0  0  0  0  0  0  0  0  0
  -30.4170  -16.2200   20.1400 C   0  0  0  0  0  0  0  0  0  0  0  0
  -30.2030  -16.5690   21.8420 S   0  0  0  0  0  0  0  0  0  0  0  0
  -30.9950  -14.8140   19.7420 C   0  0  0  0  0  0  0  0  0  0  0  0
  -30.6550  -12.5120   18.8000 C   0  0  0  0  0  2  0  0  0  0  0  0
  -29.6390  -12.5500   17.6370 C   0  0  0  0  0  2  0  0  0  0  0  0
  -28.2030  -12.4080   18.1600 C   0  0  0  0  0  2  0  0  0  0  0  0
  -27.9240  -13.3220   19.3790 C   0  0  0  0  0  3  0  0  0  0  0  0
  -29.0560  -13.2790   20.4280 C   0  0  0  0  0  2  0  0  0  0  0  0
  -30.3180  -13.6040   19.7540 N   0  0  0  0  0  0  0  0  0  0  0  0
  -32.1220  -14.8300   19.2410 O   0  0  0  0  0  0  0  0  0  0  0  0
  -25.6150  -13.9400   20.3020 C   0  0  0  0  0  0  0  0  0  0  0  0
  -24.5640  -13.1780   20.7330 C   0  0  0  0  0  0  0  0  0  0  0  0
  -24.9950  -11.8200   20.6410 C   0  0  0  0  0  0  0  0  0  0  0  0
  -26.6170  -13.0470   19.9710 N   0  0  0  0  0  0  0  0  0  0  0  0
  -26.2580  -11.7640   20.2390 N   0  0  0  0  0  0  0  0  0  0  0  0
  -24.2570  -10.5680   20.8570 C   0  0  0  0  0  0  0  0  0  0  0  0
  -24.6750   -9.6140   21.8110 C   0  0  0  0  0  3  0  0  0  0  0  0
  -23.9300   -8.4300   22.0130 C   0  0  0  0  0  3  0  0  0  0  0  0
  -22.7560   -8.1930   21.2600 C   0  0  0  0  0  0  0  0  0  0  0  0
  -22.3590   -9.1350   20.2950 C   0  0  0  0  0  3  0  0  0  0  0  0
  -23.1040  -10.3090   20.0920 C   0  0  0  0  0  3  0  0  0  0  0  0
  -21.9810   -7.0630   21.3760 O   0  0  0  0  0  0  0  0  0  0  0  0
  -21.8460   -6.4010   22.5680 C   0  0  0  0  0  0  0  0  0  0  0  0
  -21.3240   -7.0340   23.7190 C   0  0  0  0  0  3  0  0  0  0  0  0
  -21.1320   -6.2980   24.9030 C   0  0  0  0  0  3  0  0  0  0  0  0
  -21.4520   -4.9270   24.9420 C   0  0  0  0  0  0  0  0  0  0  0  0
  -21.9710   -4.2950   23.7990 C   0  0  0  0  0  3  0  0  0  0  0  0
  -22.1600   -5.0270   22.6140 C   0  0  0  0  0  0  0  0  0  0  0  0
  -22.6370   -4.4050   21.5090 F   0  0  0  0  0  0  0  0  0  0  0  0
  -21.2630   -4.2190   26.0790 F   0  0  0  0  0  0  0  0  0  0  0  0
  -23.2010  -13.6780   21.1130 C   0  0  0  0  0  0  0  0  0  0  0  0
  -22.5380  -12.9920   22.0350 N   0  0  0  0  0  0  0  0  0  0  0  0
  -22.7390  -14.7120   20.6320 O   0  0  0  0  0  0  0  0  0  0  0  0
  -22.9260  -12.1550   22.4420 H   0  0  0  0  0  0  0  0  0  0  0  0
  -21.6340  -13.3180   22.3460 H   0  0  0  0  0  0  0  0  0  0  0  0
  -25.7960  -15.3110   20.1430 N   0  0  0  0  0  0  0  0  0  0  0  0
  -25.0670  -15.9870   20.3440 H   0  0  0  0  0  0  0  0  0  0  0  0
  -26.6470  -15.7410   19.8010 H   0  0  0  0  0  0  0  0  0  0  0  0
  -28.0950  -23.4420   20.5920 C   0  0  0  0  0  3  0  0  0  0  0  0
  -27.7870  -24.8170   20.6510 C   0  0  0  0  0  3  0  0  0  0  0  0
  -28.3090  -26.1510   20.4150 O   0  0  0  0  0  0  0  0  0  0  0  0
  -24.5250  -31.7520   23.1820 C   0  0  0  0  0  0  0  0  0  0  0  0
  -27.3080  -27.1600   20.2320 C   0  0  0  0  0  0  0  0  0  0  0  0
  -23.3880  -30.2920   21.5520 C   0  0  0  0  0  3  0  0  0  0  0  0
  -24.9160  -28.7820   20.1390 C   0  0  0  0  0  0  0  0  0  0  0  0
  -25.9260  -30.6720   21.4020 C   0  0  0  0  0  2  0  0  0  0  0  0
  -26.0670  -29.2860   20.7610 C   0  0  0  0  0  0  0  0  0  0  0  0
  -27.2700  -28.4900   20.7950 C   0  0  0  0  0  3  0  0  0  0  0  0
  -26.1660  -26.7890   19.4870 C   0  0  0  0  0  3  0  0  0  0  0  0
  -24.9820  -27.5480   19.4700 C   0  0  0  0  0  3  0  0  0  0  0  0
  -23.6470  -29.6190   20.1790 C   0  0  0  0  0  2  0  0  0  0  0  0
  -24.6300  -30.9240   22.1030 N   0  0  0  0  0  0  0  0  0  0  0  0
  -23.4260  -32.0030   23.7030 O   0  0  0  0  0  0  0  0  0  0  0  0
  -22.7450  -29.2690   22.5170 C   0  0  0  0  0  0  0  0  0  0  0  0
  -21.4300  -29.0300   22.3650 N   0  0  0  0  0  0  0  0  0  0  0  0
  -23.4310  -28.6910   23.3640 O   0  0  0  0  0  0  0  0  0  0  0  0
  -20.9290  -29.5480   21.6550 H   0  0  0  0  0  0  0  0  0  0  0  0
  -18.1110  -27.6470   22.7860 C   0  0  0  0  0  0  0  0  0  0  0  0
  -20.6380  -28.0740   23.1400 C   0  0  0  0  0  3  0  0  0  0  0  0
  -20.8530  -26.6320   22.6250 C   0  0  0  0  0  2  0  0  0  0  0  0
  -19.8140  -26.2060   21.5820 C   0  0  0  0  0  2  0  0  0  0  0  0
  -18.4000  -26.2880   22.1660 C   0  0  0  0  0  2  0  0  0  0  0  0
  -19.1660  -28.4910   23.2270 C   0  0  0  0  0  0  0  0  0  0  0  0
  -18.8510  -29.7590   23.7630 C   0  0  0  0  0  3  0  0  0  0  0  0
  -17.5150  -30.1860   23.8640 C   0  0  0  0  0  3  0  0  0  0  0  0
  -16.4730  -29.3430   23.4390 C   0  0  0  0  0  3  0  0  0  0  0  0
  -16.7720  -28.0750   22.9080 C   0  0  0  0  0  3  0  0  0  0  0  0
  -25.7780  -32.4420   23.8030 C   0  0  0  0  0  3  0  0  0  0  0  0
  -25.4100  -33.8310   24.1170 N   0  0  0  0  0  0  0  0  0  0  0  0
  -25.7380  -34.8940   23.3670 C   0  0  0  0  0  0  0  0  0  0  0  0
  -26.4500  -34.8110   22.3630 O   0  0  0  0  0  0  0  0  0  0  0  0
  -24.7770  -33.9680   24.8900 H   0  0  0  0  0  0  0  0  0  0  0  0
  -23.9800  -36.6470   22.9370 C   0  0  0  0  0  1  0  0  0  0  0  0
  -25.1910  -36.2670   23.8050 C   0  0  0  0  0  3  0  0  0  0  0  0
  -27.2600  -37.2050   24.7400 C   0  0  0  0  0  1  0  0  0  0  0  0
  -26.1990  -37.3500   23.7470 N   0  0  0  0  0  0  0  0  0  0  0  0
  -25.7580  -38.2550   23.8870 H   0  0  0  0  0  0  0  0  0  0  0  0
  -26.3140  -31.7050   25.0910 C   0  0  1  0  0  0  0  0  0  0  0  0
  -25.2210  -31.4350   26.1490 C   0  0  0  0  0  1  0  0  0  0  0  0
  -26.9620  -30.3490   24.7260 C   0  0  0  0  0  1  0  0  0  0  0  0
  -27.4190  -32.5550   25.7630 C   0  0  0  0  0  1  0  0  0  0  0  0
  1 49  1  0
  1  7  2  0
  2  4  1  0
  2  3  1  0
  3  5  1  0
  4  6  1  0
  5 10  1  0
  6  5  1  0
  6  1  1  0
  8 11  2  0
  8 10  1  0
  9 12  1  0
 10  9  2  0
 11 12  1  0
 13 19  1  0
 13 11  1  0
 14 19  1  0
 15 16  1  0
 15 14  1  0
 17 16  1  0
 17 24  1  0
 17 18  1  0
 19 18  1  0
 20 13  2  0
 21 22  2  0
 22 41  1  0
 23 22  1  0
 23 26  1  0
 24 25  1  0
 24 21  1  0
 25 23  2  0
 26 27  1  0
 27 28  2  0
 29 32  1  0
 29 28  1  0
 30 29  2  0
 31 30  1  0
 31 26  2  0
 32 33  1  0
 33 38  2  0
 33 34  1  0
 34 35  2  0
 35 36  1  0
 36 40  1  0
 37 36  2  0
 38 37  1  0
 39 38  1  0
 41 42  1  0
 42 45  1  0
 42 44  1  0
 43 41  2  0
 46 21  1  0
 46 47  1  0
 48 46  1  0
 49 50  2  0
 51 50  1  0
 52 63  2  0
 53 51  1  0
 53 58  1  0
 54 62  1  0
 54 64  1  0
 55 61  1  0
 55 57  1  0
 56 62  1  0
 57 58  2  0
 57 56  1  0
 59 53  2  0
 60 59  1  0
 60 55  2  0
 61 54  1  0
 62 52  1  0
 64 66  2  0
 65 64  1  0
 67 65  1  0
 68 77  2  0
 68 73  1  0
 69 65  1  0
 69 73  1  0
 70 69  1  0
 71 72  1  0
 71 70  1  0
 72 68  1  0
 73 74  2  0
 74 75  1  0
 76 75  2  0
 77 76  1  0
 78 52  1  0
 78 79  1  0
 78 88  1  0
 79 82  1  0
 80 84  1  0
 80 79  1  0
 81 80  2  0
 84 83  1  0
 86 84  1  0
 86 87  1  0
 86 85  1  0
 88 91  1  1
 88 89  1  0
 90 88  1  0
M  ISO  4  11 100  13 100  50 101  51 101
M  END
>  <TORSDO>  (64) 
F 18

>  <SCORE>  (64) 
-14.076

>  <name>  (64) 
63

>  <ligand_id>  (64) 
63

>  <original_smiles>  (64) 
[H]C(Oc1c([H])c([H])c2c(c1[H])C([H])([H])N(C(=O)C([H])(N([H])C(=O)C([H])(N([H])C([H])([H])[H])C([H])([H])[H])C(C([H])([H])[H])(C([H])([H])[H])C([H])([H])[H])C([H])(C(=O)N([H])C1([H])c3c([H])c([H])c([H])c([H])c3C([H])([H])C([H])([H])C1([H])[H])C2([H])[H])=C([H])C(=O)N1C([H])([H])C([H])([H])C([H])([H])C1([H])c1c([H])sc(C(=O)N2C([H])([H])C([H])([H])C([H])([H])C([H])(n3nc(-c4c([H])c([H])c(Oc5c([H])c([H])c(F)c([H])c5F)c([H])c4[H])c(C(=O)N([H])[H])c3N([H])[H])C2([H])[H])c1[H]

>  <smiles>  (64) 
[H]C(Oc1c([H])c([H])c2c(c1[H])C([H])([H])N(C(=O)C([H])(N([H])C(=O)C([H])(N([H])C([H])([H])[H])C([H])([H])[H])C(C([H])([H])[H])(C([H])([H])[H])C([H])([H])[H])C([H])(C(=O)N([H])C1([H])c3c([H])c([H])c([H])c([H])c3C([H])([H])C([H])([H])C1([H])[H])C2([H])[H])=C([H])C(=O)N1C([H])([H])C([H])([H])C([H])([H])C1([H])c1c([H])sc(C(=O)N2C([H])([H])C([H])([H])C([H])([H])C([H])(n3nc(-c4c([H])c([H])c(Oc5c([H])c([H])c(F)c([H])c5F)c([H])c4[H])c(C(=O)N([H])[H])c3N([H])[H])C2([H])[H])c1[H]

$$$$
64:0:0
     RDKit          3D

 94103  0  0  1  0  0  0  0  0999 V2000
  -29.9470  -19.5350   19.6930 C   0  0  0  0  0  3  0  0  0  0  0  0
  -28.0920  -18.0420   19.2100 C   0  0  0  0  0  3  0  0  0  0  0  0
  -27.7630  -20.4620   19.3160 C   0  0  0  0  0  3  0  0  0  0  0  0
  -29.4660  -18.1870   19.4960 C   0  0  0  0  0  0  0  0  0  0  0  0
  -29.1240  -20.7220   19.6150 C   0  0  0  0  0  0  0  0  0  0  0  0
  -27.2500  -19.1660   19.1200 C   0  0  0  0  0  0  0  0  0  0  0  0
  -29.3840  -24.1390   19.8710 C   0  0  0  0  0  0  0  0  0  0  0  0
  -29.7940  -23.1610   18.8800 C   0  0  0  0  0  0  0  0  0  0  0  0
  -29.3680  -25.5130   19.8090 C   0  0  0  0  0  3  0  0  0  0  0  0
  -28.9660  -23.0050   20.8020 C   0  0  0  0  0  2  0  0  0  0  0  0
  -29.5820  -22.1030   19.7860 N   0  0  0  0  0  0  0  0  0  0  0  0
  -30.0470  -23.2770   17.6980 O   0  0  0  0  0  0  0  0  0  0  0  0
  -28.9570  -26.4420   20.7750 O   0  0  0  0  0  0  0  0  0  0  0  0
  -24.7280  -31.6850   23.3030 C   0  0  0  0  0  0  0  0  0  0  0  0
  -27.8250  -27.2410   20.5630 C   0  0  0  0  0  0  0  0  0  0  0  0
  -23.7650  -30.2510   21.5390 C   0  0  0  0  0  3  0  0  0  0  0  0
  -25.4170  -28.7520   20.2890 C   0  0  0  0  0  0  0  0  0  0  0  0
  -26.2950  -30.6560   21.6420 C   0  0  0  0  0  2  0  0  0  0  0  0
  -26.4920  -29.2850   21.0130 C   0  0  0  0  0  0  0  0  0  0  0  0
  -27.6970  -28.5380   21.1440 C   0  0  0  0  0  3  0  0  0  0  0  0
  -26.7240  -26.7500   19.8240 C   0  0  0  0  0  3  0  0  0  0  0  0
  -25.5340  -27.4900   19.6870 C   0  0  0  0  0  3  0  0  0  0  0  0
  -24.1550  -29.5820   20.1940 C   0  0  0  0  0  2  0  0  0  0  0  0
  -24.9410  -30.8820   22.2190 N   0  0  0  0  0  0  0  0  0  0  0  0
  -23.5820  -31.9260   23.7110 O   0  0  0  0  0  0  0  0  0  0  0  0
  -23.0310  -29.2120   22.4200 C   0  0  0  0  0  0  0  0  0  0  0  0
  -21.7090  -29.0730   22.2180 N   0  0  0  0  0  0  0  0  0  0  0  0
  -23.6530  -28.5370   23.2450 O   0  0  0  0  0  0  0  0  0  0  0  0
  -21.2710  -29.6660   21.5280 H   0  0  0  0  0  0  0  0  0  0  0  0
  -18.2620  -28.0550   22.6190 C   0  0  0  0  0  0  0  0  0  0  0  0
  -20.8300  -28.1250   22.9050 C   0  0  0  0  0  3  0  0  0  0  0  0
  -20.8440  -26.7460   22.2070 C   0  0  0  0  0  2  0  0  0  0  0  0
  -19.7250  -26.5820   21.1710 C   0  0  0  0  0  2  0  0  0  0  0  0
  -18.3540  -26.7590   21.8300 C   0  0  0  0  0  2  0  0  0  0  0  0
  -19.4250  -28.7030   23.1100 C   0  0  0  0  0  0  0  0  0  0  0  0
  -19.2860  -29.9240   23.8070 C   0  0  0  0  0  3  0  0  0  0  0  0
  -18.0160  -30.4910   24.0190 C   0  0  0  0  0  3  0  0  0  0  0  0
  -16.8660  -29.8360   23.5440 C   0  0  0  0  0  3  0  0  0  0  0  0
  -16.9900  -28.6200   22.8490 C   0  0  0  0  0  3  0  0  0  0  0  0
  -25.9120  -32.3560   24.0660 C   0  0  0  0  0  3  0  0  0  0  0  0
  -26.2600  -31.6390   25.4290 C   0  0  1  0  0  0  0  0  0  0  0  0
  -25.0330  -31.4200   26.3450 C   0  0  0  0  0  1  0  0  0  0  0  0
  -26.9100  -30.2610   25.1720 C   0  0  0  0  0  1  0  0  0  0  0  0
  -27.2990  -32.4770   26.2100 C   0  0  0  0  0  1  0  0  0  0  0  0
  -25.5500  -33.7610   24.2970 N   0  0  0  0  0  0  0  0  0  0  0  0
  -25.9640  -34.7890   23.5430 C   0  0  0  0  0  0  0  0  0  0  0  0
  -26.7590  -34.6540   22.6080 O   0  0  0  0  0  0  0  0  0  0  0  0
  -24.8590  -33.9390   25.0110 H   0  0  0  0  0  0  0  0  0  0  0  0
  -24.2630  -36.5310   22.9150 C   0  0  0  0  0  1  0  0  0  0  0  0
  -25.4110  -36.1870   23.8770 C   0  0  0  0  0  3  0  0  0  0  0  0
  -27.4230  -37.1490   24.9040 C   0  0  0  0  0  1  0  0  0  0  0  0
  -26.4360  -37.2510   23.8320 N   0  0  0  0  0  0  0  0  0  0  0  0
  -26.0040  -38.1700   23.8870 H   0  0  0  0  0  0  0  0  0  0  0  0
  -25.8960  -18.9970   18.8290 N   0  0  0  0  0  0  0  0  0  0  0  0
  -25.3460  -19.8060   18.5570 H   0  0  0  0  0  0  0  0  0  0  0  0
  -25.5970  -18.1430   18.3670 H   0  0  0  0  0  0  0  0  0  0  0  0
  -30.3340  -16.9290   19.5560 C   0  0  0  0  0  3  0  0  0  0  0  0
  -29.9550  -15.7330   19.9190 N   0  0  0  0  0  0  0  0  0  0  0  0
  -30.8610  -14.6390   19.8630 C   0  0  0  0  0  0  0  0  0  0  0  0
  -30.8310  -12.1720   19.5240 C   0  0  0  0  0  2  0  0  0  0  0  0
  -29.9440  -11.8720   18.2950 C   0  0  0  0  0  2  0  0  0  0  0  0
  -28.4640  -11.7420   18.7080 C   0  0  0  0  0  2  0  0  0  0  0  0
  -27.9980  -12.9080   19.6210 C   0  0  0  0  0  3  0  0  0  0  0  0
  -29.0060  -13.1660   20.7600 C   0  0  0  0  0  2  0  0  0  0  0  0
  -30.3220  -13.4090   20.1490 N   0  0  0  0  0  0  0  0  0  0  0  0
  -32.0210  -14.7090   19.4470 O   0  0  0  0  0  0  0  0  0  0  0  0
  -25.6470  -13.6200   20.3700 C   0  0  0  0  0  0  0  0  0  0  0  0
  -24.5520  -12.9010   20.7650 C   0  0  0  0  0  0  0  0  0  0  0  0
  -24.9550  -11.5290   20.7460 C   0  0  0  0  0  0  0  0  0  0  0  0
  -26.6460  -12.6920   20.1300 N   0  0  0  0  0  0  0  0  0  0  0  0
  -26.2360  -11.4290   20.4150 N   0  0  0  0  0  0  0  0  0  0  0  0
  -24.1770  -10.3030   20.9660 C   0  0  0  0  0  0  0  0  0  0  0  0
  -24.6000   -9.3150   21.8840 C   0  0  0  0  0  3  0  0  0  0  0  0
  -23.8250   -8.1530   22.0920 C   0  0  0  0  0  3  0  0  0  0  0  0
  -22.6140   -7.9710   21.3830 C   0  0  0  0  0  0  0  0  0  0  0  0
  -22.2100   -8.9460   20.4540 C   0  0  0  0  0  3  0  0  0  0  0  0
  -22.9840  -10.0990   20.2440 C   0  0  0  0  0  3  0  0  0  0  0  0
  -21.8120   -6.8620   21.5010 O   0  0  0  0  0  0  0  0  0  0  0  0
  -21.7810   -6.1150   22.6510 C   0  0  0  0  0  0  0  0  0  0  0  0
  -21.4100   -6.6740   23.8940 C   0  0  0  0  0  3  0  0  0  0  0  0
  -21.3240   -5.8540   25.0370 C   0  0  0  0  0  3  0  0  0  0  0  0
  -21.5990   -4.4770   24.9390 C   0  0  0  0  0  0  0  0  0  0  0  0
  -21.9640   -3.9180   23.7010 C   0  0  0  0  0  3  0  0  0  0  0  0
  -22.0520   -4.7350   22.5610 C   0  0  0  0  0  0  0  0  0  0  0  0
  -22.3830   -4.1870   21.3660 F   0  0  0  0  0  0  0  0  0  0  0  0
  -21.5090   -3.6870   26.0340 F   0  0  0  0  0  0  0  0  0  0  0  0
  -23.1830  -13.4430   21.0540 C   0  0  0  0  0  0  0  0  0  0  0  0
  -22.4530  -12.8100   21.9650 N   0  0  0  0  0  0  0  0  0  0  0  0
  -22.7700  -14.4630   20.5050 O   0  0  0  0  0  0  0  0  0  0  0  0
  -22.8010  -11.9840   22.4300 H   0  0  0  0  0  0  0  0  0  0  0  0
  -21.5340  -13.1550   22.2020 H   0  0  0  0  0  0  0  0  0  0  0  0
  -25.8730  -14.9800   20.1780 N   0  0  0  0  0  0  0  0  0  0  0  0
  -25.1460  -15.6760   20.3030 H   0  0  0  0  0  0  0  0  0  0  0  0
  -26.7610  -15.3740   19.8960 H   0  0  0  0  0  0  0  0  0  0  0  0
  2  4  1  0
  3  5  2  0
  4 57  1  0
  4  1  2  0
  5  1  1  0
  5 11  1  0
  6  2  2  0
  6  3  1  0
  7 10  1  0
  8 11  1  0
  8  7  1  0
  9  7  2  0
  9 13  1  0
 11 10  1  0
 12  8  2  0
 14 25  2  0
 15 13  1  0
 15 20  1  0
 16 24  1  0
 16 26  1  0
 17 19  1  0
 18 24  1  0
 19 20  2  0
 19 18  1  0
 21 15  2  0
 22 21  1  0
 22 17  2  0
 23 17  1  0
 23 16  1  0
 24 14  1  0
 26 28  2  0
 27 26  1  0
 29 27  1  0
 30 39  2  0
 30 35  1  0
 31 27  1  0
 31 35  1  0
 32 31  1  0
 33 34  1  0
 33 32  1  0
 34 30  1  0
 35 36  2  0
 36 37  1  0
 38 37  2  0
 39 38  1  0
 40 14  1  0
 40 45  1  0
 40 41  1  0
 41 44  1  1
 41 42  1  0
 43 41  1  0
 45 48  1  0
 46 50  1  0
 46 45  1  0
 47 46  2  0
 50 49  1  0
 52 50  1  0
 52 53  1  0
 52 51  1  0
 54  6  1  0
 55 54  1  0
 56 54  1  0
 57 58  2  0
 59 58  1  0
 59 65  1  0
 60 65  1  0
 61 62  1  0
 61 60  1  0
 63 62  1  0
 63 70  1  0
 63 64  1  0
 65 64  1  0
 66 59  2  0
 67 68  2  0
 68 87  1  0
 69 68  1  0
 69 72  1  0
 70 67  1  0
 70 71  1  0
 71 69  2  0
 72 73  1  0
 73 74  2  0
 75 78  1  0
 75 74  1  0
 76 75  2  0
 77 76  1  0
 77 72  2  0
 78 79  1  0
 79 80  1  0
 80 81  2  0
 82 81  1  0
 82 86  1  0
 83 82  2  0
 84 79  2  0
 84 83  1  0
 85 84  1  0
 87 88  1  0
 88 91  1  0
 88 90  1  0
 89 87  2  0
 92 93  1  0
 92 67  1  0
 94 92  1  0
M  ISO  4   9 101  13 101  58 100  59 100
M  END
>  <TORSDO>  (65) 
F 19

>  <SCORE>  (65) 
-13.645

>  <name>  (65) 
64

>  <ligand_id>  (65) 
64

>  <original_smiles>  (65) 
[H]C(=NC(=O)N1C([H])([H])C([H])([H])C([H])([H])C([H])(n2nc(-c3c([H])c([H])c(Oc4c([H])c([H])c(F)c([H])c4F)c([H])c3[H])c(C(=O)N([H])[H])c2N([H])[H])C1([H])[H])c1c([H])c(N([H])[H])c([H])c(N2C(=O)C(=C([H])Oc3c([H])c([H])c4c(c3[H])C([H])([H])N(C(=O)C([H])(N([H])C(=O)C([H])(N([H])C([H])([H])[H])C([H])([H])[H])C(C([H])([H])[H])(C([H])([H])[H])C([H])([H])[H])C([H])(C(=O)N([H])C3([H])c5c([H])c([H])c([H])c([H])c5C([H])([H])C([H])([H])C3([H])[H])C4([H])[H])C2([H])[H])c1[H]

>  <smiles>  (65) 
[H]C(=NC(=O)N1C([H])([H])C([H])([H])C([H])([H])C([H])(n2nc(-c3c([H])c([H])c(Oc4c([H])c([H])c(F)c([H])c4F)c([H])c3[H])c(C(=O)N([H])[H])c2N([H])[H])C1([H])[H])c1c([H])c(N([H])[H])c([H])c(N2C(=O)C(=C([H])Oc3c([H])c([H])c4c(c3[H])C([H])([H])N(C(=O)C([H])(N([H])C(=O)C([H])(N([H])C([H])([H])[H])C([H])([H])[H])C(C([H])([H])[H])(C([H])([H])[H])C([H])([H])[H])C([H])(C(=O)N([H])C3([H])c5c([H])c([H])c([H])c([H])c5C([H])([H])C([H])([H])C3([H])[H])C4([H])[H])C2([H])[H])c1[H]

$$$$
65:0:0
     RDKit          3D

 96106  0  0  1  0  0  0  0  0999 V2000
  -28.1820  -19.9670   20.5910 C   0  0  0  0  0  3  0  0  0  0  0  0
  -28.9910  -18.8990   20.1670 C   0  0  0  0  0  3  0  0  0  0  0  0
  -28.2830  -21.2280   19.9700 C   0  0  0  0  0  3  0  0  0  0  0  0
  -29.9370  -20.3650   18.4570 C   0  0  0  0  0  3  0  0  0  0  0  0
  -29.8970  -19.0950   19.1080 C   0  0  0  0  0  0  0  0  0  0  0  0
  -29.1590  -21.4770   18.8860 C   0  0  0  0  0  0  0  0  0  0  0  0
  -29.8640  -24.5160   17.5530 C   0  0  0  0  0  0  0  0  0  0  0  0
  -28.9800  -23.4600   17.1160 C   0  0  0  0  0  0  0  0  0  0  0  0
  -30.1410  -25.7780   17.1370 C   0  0  0  0  0  3  0  0  0  0  0  0
  -30.3300  -23.6670   18.7190 C   0  0  0  0  0  2  0  0  0  0  0  0
  -29.2120  -22.7980   18.3310 N   0  0  0  0  0  0  0  0  0  0  0  0
  -28.4060  -23.2520   16.0670 O   0  0  0  0  0  0  0  0  0  0  0  0
  -29.5300  -26.4730   16.1150 O   0  0  0  0  0  0  0  0  0  0  0  0
  -24.8670  -28.0410   21.2720 C   0  0  0  0  0  0  0  0  0  0  0  0
  -28.2590  -26.8880   16.4400 C   0  0  0  0  0  0  0  0  0  0  0  0
  -23.9170  -27.5260   19.0470 C   0  0  0  0  0  3  0  0  0  0  0  0
  -25.5810  -27.4780   17.1120 C   0  0  0  0  0  0  0  0  0  0  0  0
  -26.2440  -28.5700   19.2610 C   0  0  0  0  0  2  0  0  0  0  0  0
  -26.6180  -27.8620   17.9740 C   0  0  0  0  0  0  0  0  0  0  0  0
  -27.9630  -27.5730   17.6420 C   0  0  0  0  0  3  0  0  0  0  0  0
  -27.2090  -26.5300   15.5730 C   0  0  0  0  0  3  0  0  0  0  0  0
  -25.8710  -26.8140   15.9070 C   0  0  0  0  0  3  0  0  0  0  0  0
  -24.1690  -27.8090   17.5420 C   0  0  0  0  0  2  0  0  0  0  0  0
  -25.0280  -28.0300   19.9180 N   0  0  0  0  0  0  0  0  0  0  0  0
  -23.8040  -27.6790   21.7950 O   0  0  0  0  0  0  0  0  0  0  0  0
  -23.6320  -26.0180   19.2310 C   0  0  0  0  0  0  0  0  0  0  0  0
  -22.4080  -25.5920   18.8750 N   0  0  0  0  0  0  0  0  0  0  0  0
  -24.5060  -25.2580   19.6560 O   0  0  0  0  0  0  0  0  0  0  0  0
  -21.7470  -26.2800   18.5440 H   0  0  0  0  0  0  0  0  0  0  0  0
  -19.5230  -23.4880   18.3220 C   0  0  0  0  0  0  0  0  0  0  0  0
  -21.9320  -24.2100   18.9230 C   0  0  0  0  0  3  0  0  0  0  0  0
  -22.3710  -23.4230   17.6680 C   0  0  0  0  0  2  0  0  0  0  0  0
  -21.3270  -23.4400   16.5470 C   0  0  0  0  0  2  0  0  0  0  0  0
  -20.0060  -22.8380   17.0360 C   0  0  0  0  0  2  0  0  0  0  0  0
  -20.4240  -24.1450   19.2000 C   0  0  0  0  0  0  0  0  0  0  0  0
  -19.9190  -24.7620   20.3650 C   0  0  0  0  0  3  0  0  0  0  0  0
  -18.5420  -24.7290   20.6580 C   0  0  0  0  0  3  0  0  0  0  0  0
  -17.6560  -24.0630   19.7930 C   0  0  0  0  0  3  0  0  0  0  0  0
  -18.1470  -23.4410   18.6310 C   0  0  0  0  0  3  0  0  0  0  0  0
  -26.0010  -28.5320   22.2260 C   0  0  0  0  0  3  0  0  0  0  0  0
  -26.6390  -27.3690   23.0820 C   0  0  1  0  0  0  0  0  0  0  0  0
  -25.6020  -26.5320   23.8680 C   0  0  0  0  0  1  0  0  0  0  0  0
  -27.4360  -26.4010   22.1750 C   0  0  0  0  0  1  0  0  0  0  0  0
  -27.6490  -27.9570   24.0950 C   0  0  0  0  0  1  0  0  0  0  0  0
  -25.4260  -29.5640   23.1000 N   0  0  0  0  0  0  0  0  0  0  0  0
  -25.6770  -30.8750   22.9920 C   0  0  0  0  0  0  0  0  0  0  0  0
  -26.4820  -31.3390   22.1790 O   0  0  0  0  0  0  0  0  0  0  0  0
  -24.7150  -29.2620   23.7490 H   0  0  0  0  0  0  0  0  0  0  0  0
  -23.7940  -32.5350   23.1580 C   0  0  0  0  0  1  0  0  0  0  0  0
  -24.9150  -31.8240   23.9360 C   0  0  0  0  0  3  0  0  0  0  0  0
  -26.6910  -32.2520   25.5750 C   0  0  0  0  0  1  0  0  0  0  0  0
  -25.7820  -32.8290   24.5880 N   0  0  0  0  0  0  0  0  0  0  0  0
  -25.2240  -33.5420   25.0490 H   0  0  0  0  0  0  0  0  0  0  0  0
  -30.9270  -16.7410   19.2250 C   0  0  0  0  0  3  0  0  0  0  0  0
  -31.9170  -18.3130   17.9630 C   0  0  0  0  0  3  0  0  0  0  0  0
  -32.0530  -16.1520   18.6750 C   0  0  0  0  0  0  0  0  0  0  0  0
  -32.6660  -17.1860   17.8780 C   0  0  0  0  0  0  0  0  0  0  0  0
  -30.8410  -18.0740   18.7830 N   0  0  0  0  0  0  0  0  0  0  0  0
  -32.5800  -14.7300   18.7910 C   0  0  0  0  0  0  0  0  0  0  0  0
  -32.2620  -12.2940   18.6460 C   0  0  0  0  0  2  0  0  0  0  0  0
  -31.1990  -11.9810   17.5780 C   0  0  0  0  0  2  0  0  0  0  0  0
  -29.8100  -11.9320   18.2350 C   0  0  0  0  0  2  0  0  0  0  0  0
  -29.5290  -13.1620   19.1430 C   0  0  0  0  0  3  0  0  0  0  0  0
  -30.7230  -13.5020   20.0630 C   0  0  0  0  0  2  0  0  0  0  0  0
  -31.9230  -13.6110   19.2290 N   0  0  0  0  0  0  0  0  0  0  0  0
  -33.6800  -14.5740   18.2680 O   0  0  0  0  0  0  0  0  0  0  0  0
  -27.4760  -13.9510   20.4630 C   0  0  0  0  0  0  0  0  0  0  0  0
  -26.4060  -13.2760   20.9900 C   0  0  0  0  0  0  0  0  0  0  0  0
  -26.6330  -11.8940   20.7080 C   0  0  0  0  0  0  0  0  0  0  0  0
  -28.2930  -12.9860   19.9010 N   0  0  0  0  0  0  0  0  0  0  0  0
  -27.8050  -11.7340   20.1050 N   0  0  0  0  0  0  0  0  0  0  0  0
  -25.7740  -10.7210   20.9290 C   0  0  0  0  0  0  0  0  0  0  0  0
  -25.9880   -9.8430   22.0140 C   0  0  0  0  0  3  0  0  0  0  0  0
  -25.1360   -8.7340   22.2160 C   0  0  0  0  0  3  0  0  0  0  0  0
  -24.0580   -8.4970   21.3320 C   0  0  0  0  0  0  0  0  0  0  0  0
  -23.8640   -9.3610   20.2400 C   0  0  0  0  0  3  0  0  0  0  0  0
  -24.7140  -10.4610   20.0380 C   0  0  0  0  0  3  0  0  0  0  0  0
  -23.1960   -7.4320   21.4350 O   0  0  0  0  0  0  0  0  0  0  0  0
  -22.5290   -7.1560   22.6010 C   0  0  0  0  0  0  0  0  0  0  0  0
  -21.5840   -8.0500   23.1480 C   0  0  0  0  0  3  0  0  0  0  0  0
  -20.8690   -7.6980   24.3100 C   0  0  0  0  0  3  0  0  0  0  0  0
  -21.0910   -6.4490   24.9220 C   0  0  0  0  0  0  0  0  0  0  0  0
  -22.0280   -5.5540   24.3760 C   0  0  0  0  0  3  0  0  0  0  0  0
  -22.7430   -5.9060   23.2170 C   0  0  0  0  0  0  0  0  0  0  0  0
  -23.6290   -5.0320   22.6830 F   0  0  0  0  0  0  0  0  0  0  0  0
  -20.4000   -6.1050   26.0330 F   0  0  0  0  0  0  0  0  0  0  0  0
  -25.1950  -13.8880   21.6290 C   0  0  0  0  0  0  0  0  0  0  0  0
  -24.6090  -13.2040   22.6060 N   0  0  0  0  0  0  0  0  0  0  0  0
  -24.7900  -15.0010   21.2960 O   0  0  0  0  0  0  0  0  0  0  0  0
  -24.9560  -12.3000   22.8870 H   0  0  0  0  0  0  0  0  0  0  0  0
  -23.8040  -13.5920   23.0760 H   0  0  0  0  0  0  0  0  0  0  0  0
  -27.8090  -15.3000   20.3940 N   0  0  0  0  0  0  0  0  0  0  0  0
  -27.1840  -16.0220   20.7340 H   0  0  0  0  0  0  0  0  0  0  0  0
  -28.5970  -15.6690   19.8770 H   0  0  0  0  0  0  0  0  0  0  0  0
  -33.8080  -17.1200   17.1310 O   0  0  0  0  0  0  0  0  0  0  0  0
  -34.0140  -17.9340   16.6790 H   0  0  0  0  0  0  0  0  0  0  0  0
  2  1  1  0
  3  1  2  0
  4  6  2  0
  4  5  1  0
  5  2  2  0
  6  3  1  0
  7 10  1  0
  8  7  1  0
  8 11  1  0
  9  7  2  0
 11 10  1  0
 11  6  1  0
 12  8  2  0
 13 15  1  0
 13  9  1  0
 14 25  2  0
 15 20  1  0
 16 26  1  0
 16 24  1  0
 17 23  1  0
 17 19  1  0
 18 24  1  0
 19 18  1  0
 20 19  2  0
 21 22  1  0
 21 15  2  0
 22 17  2  0
 23 16  1  0
 24 14  1  0
 26 28  2  0
 27 26  1  0
 29 27  1  0
 30 39  2  0
 30 35  1  0
 31 27  1  0
 31 35  1  0
 32 31  1  0
 33 34  1  0
 33 32  1  0
 34 30  1  0
 35 36  2  0
 36 37  1  0
 38 37  2  0
 39 38  1  0
 40 14  1  0
 40 41  1  0
 40 45  1  0
 41 42  1  1
 41 44  1  0
 43 41  1  0
 45 48  1  0
 46 45  1  0
 46 50  1  0
 47 46  2  0
 50 49  1  0
 50 52  1  0
 52 53  1  0
 52 51  1  0
 55 58  1  0
 56 59  1  0
 56 54  2  0
 57 55  2  0
 57 56  1  0
 58  5  1  0
 58 54  1  0
 59 65  1  0
 60 65  1  0
 61 62  1  0
 61 60  1  0
 63 62  1  0
 63 70  1  0
 63 64  1  0
 65 64  1  0
 66 59  2  0
 67 68  2  0
 68 87  1  0
 69 72  1  0
 69 68  1  0
 70 71  1  0
 70 67  1  0
 71 69  2  0
 72 73  1  0
 73 74  2  0
 75 78  1  0
 75 74  1  0
 76 75  2  0
 77 76  1  0
 77 72  2  0
 78 79  1  0
 79 80  2  0
 79 84  1  0
 80 81  1  0
 81 82  2  0
 82 86  1  0
 83 82  1  0
 84 83  2  0
 85 84  1  0
 87 88  1  0
 88 90  1  0
 88 91  1  0
 89 87  2  0
 92 67  1  0
 92 93  1  0
 94 92  1  0
 95 57  1  0
 96 95  1  0
M  ISO  4   9 101  13 101  56 100  59 100
M  END
>  <TORSDO>  (66) 
F 19

>  <SCORE>  (66) 
-6.936

>  <name>  (66) 
65

>  <ligand_id>  (66) 
65

>  <original_smiles>  (66) 
[H]Oc1c(C(=O)N2C([H])([H])C([H])([H])C([H])([H])C([H])(n3nc(-c4c([H])c([H])c(Oc5c([H])c([H])c(F)c([H])c5F)c([H])c4[H])c(C(=O)N([H])[H])c3N([H])[H])C2([H])[H])c([H])n(-c2c([H])c([H])c([H])c(N3C(=O)C(=C([H])Oc4c([H])c([H])c5c(c4[H])C([H])([H])N(C(=O)C([H])(N([H])C(=O)C([H])(N([H])C([H])([H])[H])C([H])([H])[H])C(C([H])([H])[H])(C([H])([H])[H])C([H])([H])[H])C([H])(C(=O)N([H])C4([H])c6c([H])c([H])c([H])c([H])c6C([H])([H])C([H])([H])C4([H])[H])C5([H])[H])C3([H])[H])c2[H])c1[H]

>  <smiles>  (66) 
[H]Oc1c(C(=O)N2C([H])([H])C([H])([H])C([H])([H])C([H])(n3nc(-c4c([H])c([H])c(Oc5c([H])c([H])c(F)c([H])c5F)c([H])c4[H])c(C(=O)N([H])[H])c3N([H])[H])C2([H])[H])c([H])n(-c2c([H])c([H])c([H])c(N3C(=O)C(=C([H])Oc4c([H])c([H])c5c(c4[H])C([H])([H])N(C(=O)C([H])(N([H])C(=O)C([H])(N([H])C([H])([H])[H])C([H])([H])[H])C(C([H])([H])[H])(C([H])([H])[H])C([H])([H])[H])C([H])(C(=O)N([H])C4([H])c6c([H])c([H])c([H])c([H])c6C([H])([H])C([H])([H])C4([H])[H])C5([H])[H])C3([H])[H])c2[H])c1[H]

$$$$
66:0:0
     RDKit          3D

 96105  0  0  1  0  0  0  0  0999 V2000
  -29.5780  -22.8090   21.7410 C   0  0  0  0  0  2  0  0  0  0  0  0
  -28.3230  -22.6970   22.1910 C   0  0  0  0  0  3  0  0  0  0  0  0
  -27.4820  -22.9200   21.0550 C   0  0  0  0  0  0  0  0  0  0  0  0
  -28.3940  -23.5530   20.1190 C   0  0  0  0  0  3  0  0  0  0  0  0
  -26.1630  -22.6810   20.9430 C   0  0  0  0  0  2  0  0  0  0  0  0
  -27.9440  -24.8820   19.8470 C   0  0  0  0  0  2  0  0  0  0  0  0
  -29.6210  -22.7660   20.3470 N   0  0  0  0  0  0  0  0  0  0  0  0
  -31.0690  -19.1210   20.7660 C   0  0  0  0  0  3  0  0  0  0  0  0
  -30.9100  -20.5660   20.7680 C   0  0  0  0  0  3  0  0  0  0  0  0
  -29.4470  -18.9870   19.0870 C   0  0  0  0  0  3  0  0  0  0  0  0
  -30.3050  -18.2100   19.9640 C   0  0  0  0  0  0  0  0  0  0  0  0
  -29.9400  -21.3300   20.0120 C   0  0  0  0  0  0  0  0  0  0  0  0
  -29.2740  -20.4400   19.0930 C   0  0  0  0  0  0  0  0  0  0  0  0
  -28.3830  -20.9630   18.2160 F   0  0  0  0  0  0  0  0  0  0  0  0
  -30.0700  -16.6310   20.3030 C   0  0  0  0  0  0  0  0  0  0  0  0
  -29.0620  -16.5180   21.0600 N   0  0  0  0  0  0  0  0  0  0  0  0
  -28.7010  -17.4400   21.2900 H   0  0  0  0  0  0  0  0  0  0  0  0
  -30.9150  -15.2270   19.8690 C   0  0  0  0  0  0  0  0  0  0  0  0
  -30.7850  -12.8310   19.0070 C   0  0  0  0  0  2  0  0  0  0  0  0
  -29.7800  -12.7330   17.8330 C   0  0  0  0  0  2  0  0  0  0  0  0
  -28.3430  -12.5160   18.3490 C   0  0  0  0  0  2  0  0  0  0  0  0
  -27.9900  -13.4610   19.5280 C   0  0  0  0  0  3  0  0  0  0  0  0
  -29.1160  -13.4730   20.5840 C   0  0  0  0  0  2  0  0  0  0  0  0
  -30.3470  -13.9360   19.9150 N   0  0  0  0  0  0  0  0  0  0  0  0
  -32.0680  -15.2990   19.4220 O   0  0  0  0  0  0  0  0  0  0  0  0
  -25.6820  -14.0500   20.4840 C   0  0  0  0  0  0  0  0  0  0  0  0
  -24.6260  -13.2820   20.8790 C   0  0  0  0  0  0  0  0  0  0  0  0
  -25.0420  -11.9230   20.7290 C   0  0  0  0  0  0  0  0  0  0  0  0
  -26.6820  -13.1660   20.1100 N   0  0  0  0  0  0  0  0  0  0  0  0
  -26.3050  -11.8740   20.3170 N   0  0  0  0  0  0  0  0  0  0  0  0
  -24.2930  -10.6690   20.8970 C   0  0  0  0  0  0  0  0  0  0  0  0
  -24.6900   -9.6860   21.8320 C   0  0  0  0  0  3  0  0  0  0  0  0
  -23.9370   -8.5020   21.9880 C   0  0  0  0  0  3  0  0  0  0  0  0
  -22.7780   -8.2880   21.2040 C   0  0  0  0  0  0  0  0  0  0  0  0
  -22.4030   -9.2590   20.2570 C   0  0  0  0  0  3  0  0  0  0  0  0
  -23.1540  -10.4360   20.1010 C   0  0  0  0  0  3  0  0  0  0  0  0
  -22.0090   -7.1530   21.2570 O   0  0  0  0  0  0  0  0  0  0  0  0
  -21.8160   -6.4740   22.4340 C   0  0  0  0  0  0  0  0  0  0  0  0
  -21.2260   -7.0900   23.5580 C   0  0  0  0  0  3  0  0  0  0  0  0
  -20.9800   -6.3390   24.7230 C   0  0  0  0  0  3  0  0  0  0  0  0
  -21.3180   -4.9730   24.7650 C   0  0  0  0  0  0  0  0  0  0  0  0
  -21.9010   -4.3550   23.6450 C   0  0  0  0  0  3  0  0  0  0  0  0
  -22.1480   -5.1050   22.4810 C   0  0  0  0  0  0  0  0  0  0  0  0
  -22.6940   -4.5040   21.3970 F   0  0  0  0  0  0  0  0  0  0  0  0
  -21.0740   -4.2480   25.8830 F   0  0  0  0  0  0  0  0  0  0  0  0
  -23.2690  -13.7790   21.2890 C   0  0  0  0  0  0  0  0  0  0  0  0
  -22.5910  -13.0610   22.1730 N   0  0  0  0  0  0  0  0  0  0  0  0
  -22.8220  -14.8450   20.8630 O   0  0  0  0  0  0  0  0  0  0  0  0
  -22.9700  -12.2070   22.5580 H   0  0  0  0  0  0  0  0  0  0  0  0
  -21.6840  -13.3860   22.4790 H   0  0  0  0  0  0  0  0  0  0  0  0
  -25.8610  -15.4280   20.3880 N   0  0  0  0  0  0  0  0  0  0  0  0
  -25.0870  -16.0700   20.4990 H   0  0  0  0  0  0  0  0  0  0  0  0
  -26.7410  -15.8880   20.1820 H   0  0  0  0  0  0  0  0  0  0  0  0
  -27.9370  -22.6140   23.4710 O   0  0  0  0  0  0  0  0  0  0  0  0
  -28.7180  -22.5420   24.0060 H   0  0  0  0  0  0  0  0  0  0  0  0
  -28.3940  -26.2520   19.6140 O   0  0  0  0  0  0  0  0  0  0  0  0
  -24.7210  -31.6900   23.0730 C   0  0  0  0  0  0  0  0  0  0  0  0
  -27.3750  -27.2830   19.6370 C   0  0  0  0  0  0  0  0  0  0  0  0
  -23.5430  -30.3820   21.3580 C   0  0  0  0  0  3  0  0  0  0  0  0
  -25.0130  -28.9650   19.7920 C   0  0  0  0  0  0  0  0  0  0  0  0
  -26.0970  -30.7090   21.1950 C   0  0  0  0  0  2  0  0  0  0  0  0
  -26.1930  -29.3790   20.4280 C   0  0  0  0  0  0  0  0  0  0  0  0
  -27.3770  -28.5530   20.3440 C   0  0  0  0  0  3  0  0  0  0  0  0
  -26.1820  -27.0090   18.9320 C   0  0  0  0  0  3  0  0  0  0  0  0
  -25.0200  -27.7950   19.0280 C   0  0  0  0  0  3  0  0  0  0  0  0
  -23.7630  -29.8180   19.9310 C   0  0  0  0  0  2  0  0  0  0  0  0
  -24.8100  -30.9450   21.9290 N   0  0  0  0  0  0  0  0  0  0  0  0
  -23.6330  -31.9150   23.6230 O   0  0  0  0  0  0  0  0  0  0  0  0
  -22.8960  -29.2910   22.2480 C   0  0  0  0  0  0  0  0  0  0  0  0
  -21.5720  -29.0980   22.1100 N   0  0  0  0  0  0  0  0  0  0  0  0
  -23.5860  -28.6290   23.0260 O   0  0  0  0  0  0  0  0  0  0  0  0
  -21.0750  -29.6840   21.4540 H   0  0  0  0  0  0  0  0  0  0  0  0
  -18.2100  -27.8130   22.5750 C   0  0  0  0  0  0  0  0  0  0  0  0
  -20.7710  -28.0960   22.8230 C   0  0  0  0  0  3  0  0  0  0  0  0
  -20.8810  -26.7080   22.1480 C   0  0  0  0  0  2  0  0  0  0  0  0
  -19.7670  -26.4410   21.1320 C   0  0  0  0  0  2  0  0  0  0  0  0
  -18.3950  -26.5180   21.8040 C   0  0  0  0  0  2  0  0  0  0  0  0
  -19.3250  -28.5620   23.0420 C   0  0  0  0  0  0  0  0  0  0  0  0
  -19.0930  -29.7730   23.7300 C   0  0  0  0  0  3  0  0  0  0  0  0
  -17.7810  -30.2340   23.9570 C   0  0  0  0  0  3  0  0  0  0  0  0
  -16.6830  -29.4830   23.5040 C   0  0  0  0  0  3  0  0  0  0  0  0
  -16.8990  -28.2750   22.8170 C   0  0  0  0  0  3  0  0  0  0  0  0
  -25.9870  -32.3130   23.7310 C   0  0  0  0  0  3  0  0  0  0  0  0
  -26.5090  -31.4880   24.9730 C   0  0  1  0  0  0  0  0  0  0  0  0
  -25.4140  -31.1790   26.0240 C   0  0  0  0  0  1  0  0  0  0  0  0
  -27.1110  -30.1380   24.5200 C   0  0  0  0  0  1  0  0  0  0  0  0
  -27.6530  -32.2670   25.6630 C   0  0  0  0  0  1  0  0  0  0  0  0
  -25.6510  -33.6900   24.1290 N   0  0  0  0  0  0  0  0  0  0  0  0
  -25.9280  -34.7840   23.4050 C   0  0  0  0  0  0  0  0  0  0  0  0
  -26.5570  -34.7380   22.3450 O   0  0  0  0  0  0  0  0  0  0  0  0
  -25.0670  -33.7950   24.9470 H   0  0  0  0  0  0  0  0  0  0  0  0
  -24.1310  -36.5400   23.2220 C   0  0  0  0  0  1  0  0  0  0  0  0
  -25.4310  -36.1440   23.9390 C   0  0  0  0  0  3  0  0  0  0  0  0
  -27.5810  -37.0760   24.6800 C   0  0  0  0  0  1  0  0  0  0  0  0
  -26.4270  -37.2310   23.7990 N   0  0  0  0  0  0  0  0  0  0  0  0
  -26.0030  -38.1380   23.9760 H   0  0  0  0  0  0  0  0  0  0  0  0
  1  2  1  0
  2 54  1  0
  3  2  1  0
  4  6  1  0
  4  7  1  0
  4  3  1  0
  5  3  2  0
  7  1  1  0
  8  9  1  0
 10 13  2  0
 10 11  1  0
 11 15  1  0
 11  8  2  0
 12  7  1  0
 12  9  2  0
 13 12  1  0
 14 13  1  0
 15 16  2  0
 16 17  1  0
 18 24  1  0
 18 15  1  0
 19 24  1  0
 20 21  1  0
 20 19  1  0
 22 21  1  0
 22 29  1  0
 22 23  1  0
 24 23  1  0
 25 18  2  0
 26 27  2  0
 27 46  1  0
 28 27  1  0
 28 31  1  0
 29 30  1  0
 29 26  1  0
 30 28  2  0
 31 32  1  0
 32 33  2  0
 34 37  1  0
 34 33  1  0
 35 34  2  0
 36 35  1  0
 36 31  2  0
 37 38  1  0
 38 43  2  0
 38 39  1  0
 39 40  2  0
 40 41  1  0
 41 45  1  0
 42 41  2  0
 43 42  1  0
 44 43  1  0
 46 47  1  0
 47 50  1  0
 47 49  1  0
 48 46  2  0
 51 26  1  0
 51 52  1  0
 53 51  1  0
 54 55  1  0
 56 58  1  0
 56  6  1  0
 57 68  2  0
 58 63  1  0
 59 67  1  0
 59 69  1  0
 60 66  1  0
 60 62  1  0
 61 67  1  0
 62 61  1  0
 63 62  2  0
 64 65  1  0
 64 58  2  0
 65 60  2  0
 66 59  1  0
 67 57  1  0
 69 71  2  0
 70 69  1  0
 72 70  1  0
 73 82  2  0
 73 78  1  0
 74 70  1  0
 74 78  1  0
 75 74  1  0
 76 77  1  0
 76 75  1  0
 77 73  1  0
 78 79  2  0
 79 80  1  0
 81 80  2  0
 82 81  1  0
 83 57  1  0
 83 88  1  0
 83 84  1  0
 84 87  1  1
 84 85  1  0
 86 84  1  0
 88 91  1  0
 89 93  1  0
 89 88  1  0
 90 89  2  0
 93 92  1  0
 95 93  1  0
 95 96  1  0
 95 94  1  0
M  ISO  4   6 101  15 100  18 100  56 101
M  END
>  <TORSDO>  (67) 
F 19

>  <SCORE>  (67) 
-12.159

>  <name>  (67) 
66

>  <ligand_id>  (67) 
66

>  <original_smiles>  (67) 
[H]N=C(C(=O)N1C([H])([H])C([H])([H])C([H])([H])C([H])(n2nc(-c3c([H])c([H])c(Oc4c([H])c([H])c(F)c([H])c4F)c([H])c3[H])c(C(=O)N([H])[H])c2N([H])[H])C1([H])[H])c1c([H])c([H])c(-n2c([H])c(O[H])c(=C([H])[H])c2=C([H])Oc2c([H])c([H])c3c(c2[H])C([H])([H])N(C(=O)C([H])(N([H])C(=O)C([H])(N([H])C([H])([H])[H])C([H])([H])[H])C(C([H])([H])[H])(C([H])([H])[H])C([H])([H])[H])C([H])(C(=O)N([H])C2([H])c4c([H])c([H])c([H])c([H])c4C([H])([H])C([H])([H])C2([H])[H])C3([H])[H])c(F)c1[H]

>  <smiles>  (67) 
[H]N=C(C(=O)N1C([H])([H])C([H])([H])C([H])([H])C([H])(n2nc(-c3c([H])c([H])c(Oc4c([H])c([H])c(F)c([H])c4F)c([H])c3[H])c(C(=O)N([H])[H])c2N([H])[H])C1([H])[H])c1c([H])c([H])c(-n2c([H])c(O[H])c(=C([H])[H])c2=C([H])Oc2c([H])c([H])c3c(c2[H])C([H])([H])N(C(=O)C([H])(N([H])C(=O)C([H])(N([H])C([H])([H])[H])C([H])([H])[H])C(C([H])([H])[H])(C([H])([H])[H])C([H])([H])[H])C([H])(C(=O)N([H])C2([H])c4c([H])c([H])c([H])c([H])c4C([H])([H])C([H])([H])C2([H])[H])C3([H])[H])c(F)c1[H]

$$$$
67:0:0
     RDKit          3D

 94103  0  0  1  0  0  0  0  0999 V2000
  -28.7750  -24.0290   19.1210 C   0  0  0  0  0  0  0  0  0  0  0  0
  -28.9900  -23.4010   17.8350 C   0  0  0  0  0  0  0  0  0  0  0  0
  -28.9560  -22.8920   20.0970 C   0  0  0  0  0  0  0  0  0  0  0  0
  -28.7270  -23.9280   16.6230 C   0  0  0  0  0  2  0  0  0  0  0  0
  -28.4890  -25.4000   19.2100 C   0  0  0  0  0  3  0  0  0  0  0  0
  -29.4950  -22.0010   18.0010 C   0  0  0  0  0  2  0  0  0  0  0  0
  -29.3400  -21.7200   19.4280 N   0  0  0  0  0  0  0  0  0  0  0  0
  -28.7950  -22.9580   21.3200 O   0  0  0  0  0  0  0  0  0  0  0  0
  -28.6410  -19.5450   20.6360 C   0  0  0  0  0  3  0  0  0  0  0  0
  -28.7630  -18.1230   20.8250 C   0  0  0  0  0  3  0  0  0  0  0  0
  -30.7710  -18.0910   19.5420 C   0  0  0  0  0  3  0  0  0  0  0  0
  -29.5620  -20.2980   19.8550 C   0  0  0  0  0  0  0  0  0  0  0  0
  -29.8150  -17.3280   20.2710 C   0  0  0  0  0  0  0  0  0  0  0  0
  -30.6480  -19.5120   19.3410 C   0  0  0  0  0  0  0  0  0  0  0  0
  -31.6120  -20.1170   18.6070 F   0  0  0  0  0  0  0  0  0  0  0  0
  -30.5830  -14.7850   20.0010 C   0  0  0  0  0  0  0  0  0  0  0  0
  -30.3460  -12.5320   18.9350 C   0  0  0  0  0  2  0  0  0  0  0  0
  -29.3280  -12.6500   17.7770 C   0  0  0  0  0  2  0  0  0  0  0  0
  -27.8850  -12.4720   18.2920 C   0  0  0  0  0  2  0  0  0  0  0  0
  -27.5980  -13.3140   19.5630 C   0  0  0  0  0  3  0  0  0  0  0  0
  -28.7240  -13.1620   20.6090 C   0  0  0  0  0  2  0  0  0  0  0  0
  -29.9870  -13.5430   19.9570 N   0  0  0  0  0  0  0  0  0  0  0  0
  -31.7210  -14.9410   19.5450 O   0  0  0  0  0  0  0  0  0  0  0  0
  -29.8000  -15.8440   20.4400 N   0  0  0  0  0  0  0  0  0  0  0  0
  -28.9610  -15.5030   20.8850 H   0  0  0  0  0  0  0  0  0  0  0  0
  -25.2600  -13.9010   20.4470 C   0  0  0  0  0  0  0  0  0  0  0  0
  -24.2140  -13.1220   20.8640 C   0  0  0  0  0  0  0  0  0  0  0  0
  -24.6660  -11.7710   20.7680 C   0  0  0  0  0  0  0  0  0  0  0  0
  -26.2820  -13.0220   20.1240 N   0  0  0  0  0  0  0  0  0  0  0  0
  -25.9340  -11.7340   20.3780 N   0  0  0  0  0  0  0  0  0  0  0  0
  -23.9440  -10.5070   20.9710 C   0  0  0  0  0  0  0  0  0  0  0  0
  -24.4050   -9.5300   21.8800 C   0  0  0  0  0  3  0  0  0  0  0  0
  -23.6830   -8.3320   22.0720 C   0  0  0  0  0  3  0  0  0  0  0  0
  -22.4860   -8.1020   21.3520 C   0  0  0  0  0  0  0  0  0  0  0  0
  -22.0440   -9.0680   20.4310 C   0  0  0  0  0  3  0  0  0  0  0  0
  -22.7660  -10.2580   20.2390 C   0  0  0  0  0  3  0  0  0  0  0  0
  -21.7330   -6.9570   21.4530 O   0  0  0  0  0  0  0  0  0  0  0  0
  -21.6920   -6.2220   22.6120 C   0  0  0  0  0  0  0  0  0  0  0  0
  -21.2620   -6.7830   23.8340 C   0  0  0  0  0  3  0  0  0  0  0  0
  -21.1680   -5.9740   24.9840 C   0  0  0  0  0  3  0  0  0  0  0  0
  -21.4960   -4.6060   24.9130 C   0  0  0  0  0  0  0  0  0  0  0  0
  -21.9200   -4.0460   23.6950 C   0  0  0  0  0  3  0  0  0  0  0  0
  -22.0150   -4.8520   22.5470 C   0  0  0  0  0  0  0  0  0  0  0  0
  -22.4040   -4.3020   21.3720 F   0  0  0  0  0  0  0  0  0  0  0  0
  -21.3990   -3.8280   26.0170 F   0  0  0  0  0  0  0  0  0  0  0  0
  -22.8400  -13.5990   21.2330 C   0  0  0  0  0  0  0  0  0  0  0  0
  -22.1620  -12.8850   22.1250 N   0  0  0  0  0  0  0  0  0  0  0  0
  -22.3770  -14.6400   20.7670 O   0  0  0  0  0  0  0  0  0  0  0  0
  -22.5500  -12.0430   22.5240 H   0  0  0  0  0  0  0  0  0  0  0  0
  -21.2420  -13.1860   22.4150 H   0  0  0  0  0  0  0  0  0  0  0  0
  -25.4230  -15.2740   20.2950 N   0  0  0  0  0  0  0  0  0  0  0  0
  -24.6650  -15.9280   20.4620 H   0  0  0  0  0  0  0  0  0  0  0  0
  -26.2390  -15.7140   19.8900 H   0  0  0  0  0  0  0  0  0  0  0  0
  -28.2830  -26.3560   20.2330 O   0  0  0  0  0  0  0  0  0  0  0  0
  -24.6100  -31.8720   23.2220 C   0  0  0  0  0  0  0  0  0  0  0  0
  -27.2160  -27.2850   20.1380 C   0  0  0  0  0  0  0  0  0  0  0  0
  -23.4070  -30.4820   21.5760 C   0  0  0  0  0  3  0  0  0  0  0  0
  -24.8580  -28.9350   20.1370 C   0  0  0  0  0  0  0  0  0  0  0  0
  -25.9520  -30.7850   21.4010 C   0  0  0  0  0  2  0  0  0  0  0  0
  -26.0310  -29.4080   20.7420 C   0  0  0  0  0  0  0  0  0  0  0  0
  -27.2110  -28.5920   20.7370 C   0  0  0  0  0  3  0  0  0  0  0  0
  -26.0130  -26.8780   19.5170 C   0  0  0  0  0  3  0  0  0  0  0  0
  -24.8540  -27.6770   19.5160 C   0  0  0  0  0  3  0  0  0  0  0  0
  -23.6230  -29.8150   20.1920 C   0  0  0  0  0  2  0  0  0  0  0  0
  -24.6750  -31.0650   22.1220 N   0  0  0  0  0  0  0  0  0  0  0  0
  -23.5250  -32.1490   23.7560 O   0  0  0  0  0  0  0  0  0  0  0  0
  -22.7400  -29.4630   22.5320 C   0  0  0  0  0  0  0  0  0  0  0  0
  -21.4110  -29.2960   22.4120 N   0  0  0  0  0  0  0  0  0  0  0  0
  -23.4170  -28.8260   23.3430 O   0  0  0  0  0  0  0  0  0  0  0  0
  -20.9230  -29.8620   21.7310 H   0  0  0  0  0  0  0  0  0  0  0  0
  -18.0270  -28.1200   22.9280 C   0  0  0  0  0  0  0  0  0  0  0  0
  -20.5890  -28.3590   23.1810 C   0  0  0  0  0  3  0  0  0  0  0  0
  -20.6760  -26.9320   22.5930 C   0  0  0  0  0  2  0  0  0  0  0  0
  -19.5640  -26.6260   21.5850 C   0  0  0  0  0  2  0  0  0  0  0  0
  -18.1890  -26.7760   22.2390 C   0  0  0  0  0  2  0  0  0  0  0  0
  -19.1550  -28.8710   23.3560 C   0  0  0  0  0  0  0  0  0  0  0  0
  -18.9490  -30.1290   23.9610 C   0  0  0  0  0  3  0  0  0  0  0  0
  -17.6490  -30.6380   24.1420 C   0  0  0  0  0  3  0  0  0  0  0  0
  -16.5360  -29.8850   23.7290 C   0  0  0  0  0  3  0  0  0  0  0  0
  -16.7260  -28.6280   23.1280 C   0  0  0  0  0  3  0  0  0  0  0  0
  -25.8900  -32.5030   23.8480 C   0  0  0  0  0  3  0  0  0  0  0  0
  -25.5790  -33.8980   24.1880 N   0  0  0  0  0  0  0  0  0  0  0  0
  -25.8950  -34.9580   23.4300 C   0  0  0  0  0  0  0  0  0  0  0  0
  -26.5490  -34.8610   22.3880 O   0  0  0  0  0  0  0  0  0  0  0  0
  -24.9950  -34.0460   24.9980 H   0  0  0  0  0  0  0  0  0  0  0  0
  -24.1500  -36.7430   23.1200 C   0  0  0  0  0  1  0  0  0  0  0  0
  -25.4100  -36.3420   23.9030 C   0  0  0  0  0  3  0  0  0  0  0  0
  -27.5550  -37.2380   24.6950 C   0  0  0  0  0  1  0  0  0  0  0  0
  -26.4350  -37.4010   23.7720 N   0  0  0  0  0  0  0  0  0  0  0  0
  -26.0260  -38.3190   23.9280 H   0  0  0  0  0  0  0  0  0  0  0  0
  -26.4060  -31.7250   25.1210 C   0  0  1  0  0  0  0  0  0  0  0  0
  -25.3130  -31.4820   26.1870 C   0  0  0  0  0  1  0  0  0  0  0  0
  -26.9910  -30.3490   24.7240 C   0  0  0  0  0  1  0  0  0  0  0  0
  -27.5560  -32.5170   25.7870 C   0  0  0  0  0  1  0  0  0  0  0  0
  1  5  2  0
  1  3  1  0
  2  6  1  0
  2  1  1  0
  3  8  2  0
  4  2  2  0
  5 54  1  0
  6  7  1  0
  7 12  1  0
  7  3  1  0
  9 10  1  0
 11 13  1  0
 12  9  2  0
 13 24  1  0
 13 10  2  0
 14 11  2  0
 14 12  1  0
 15 14  1  0
 16 24  1  0
 17 22  1  0
 18 19  1  0
 18 17  1  0
 20 19  1  0
 20 29  1  0
 20 21  1  0
 22 16  1  0
 22 21  1  0
 23 16  2  0
 24 25  1  0
 26 27  2  0
 27 46  1  0
 28 27  1  0
 28 31  1  0
 29 30  1  0
 29 26  1  0
 30 28  2  0
 31 32  1  0
 32 33  2  0
 34 37  1  0
 34 33  1  0
 35 34  2  0
 36 35  1  0
 36 31  2  0
 37 38  1  0
 38 39  1  0
 39 40  2  0
 41 40  1  0
 41 45  1  0
 42 41  2  0
 43 38  2  0
 43 42  1  0
 44 43  1  0
 46 47  1  0
 47 50  1  0
 47 49  1  0
 48 46  2  0
 51 26  1  0
 51 52  1  0
 53 51  1  0
 55 66  2  0
 56 54  1  0
 56 61  1  0
 57 65  1  0
 57 67  1  0
 58 64  1  0
 58 60  1  0
 59 65  1  0
 60 59  1  0
 61 60  2  0
 62 56  2  0
 63 62  1  0
 63 58  2  0
 64 57  1  0
 65 55  1  0
 67 69  2  0
 68 67  1  0
 70 68  1  0
 71 80  2  0
 71 76  1  0
 72 68  1  0
 72 76  1  0
 73 72  1  0
 74 75  1  0
 74 73  1  0
 75 71  1  0
 76 77  2  0
 77 78  1  0
 79 78  2  0
 80 79  1  0
 81 55  1  0
 81 82  1  0
 81 91  1  0
 82 85  1  0
 83 87  1  0
 83 82  1  0
 84 83  2  0
 87 86  1  0
 89 87  1  0
 89 90  1  0
 89 88  1  0
 91 94  1  1
 91 92  1  0
 93 91  1  0
M  ISO  4   5 101  16 100  24 100  54 101
M  END
>  <TORSDO>  (68) 
F 17

>  <SCORE>  (68) 
-14.887

>  <name>  (68) 
67

>  <ligand_id>  (68) 
67

>  <original_smiles>  (68) 
[H]C([H])=C1C(=C([H])Oc2c([H])c([H])c3c(c2[H])C([H])([H])N(C(=O)C([H])(N([H])C(=O)C([H])(N([H])C([H])([H])[H])C([H])([H])[H])C(C([H])([H])[H])(C([H])([H])[H])C([H])([H])[H])C([H])(C(=O)N([H])C2([H])c4c([H])c([H])c([H])c([H])c4C([H])([H])C([H])([H])C2([H])[H])C3([H])[H])C(=O)N(c2c([H])c([H])c(N([H])C(=O)N3C([H])([H])C([H])([H])C([H])([H])C([H])(n4nc(-c5c([H])c([H])c(Oc6c([H])c([H])c(F)c([H])c6F)c([H])c5[H])c(C(=O)N([H])[H])c4N([H])[H])C3([H])[H])c([H])c2F)C1([H])[H]

>  <smiles>  (68) 
[H]C([H])=C1C(=C([H])Oc2c([H])c([H])c3c(c2[H])C([H])([H])N(C(=O)C([H])(N([H])C(=O)C([H])(N([H])C([H])([H])[H])C([H])([H])[H])C(C([H])([H])[H])(C([H])([H])[H])C([H])([H])[H])C([H])(C(=O)N([H])C2([H])c4c([H])c([H])c([H])c([H])c4C([H])([H])C([H])([H])C2([H])[H])C3([H])[H])C(=O)N(c2c([H])c([H])c(N([H])C(=O)N3C([H])([H])C([H])([H])C([H])([H])C([H])(n4nc(-c5c([H])c([H])c(Oc6c([H])c([H])c(F)c([H])c6F)c([H])c5[H])c(C(=O)N([H])[H])c4N([H])[H])C3([H])[H])c([H])c2F)C1([H])[H]

$$$$
68:0:0
     RDKit          3D

 94103  0  0  1  0  0  0  0  0999 V2000
  -28.8240  -24.0050   19.0430 C   0  0  0  0  0  0  0  0  0  0  0  0
  -29.1210  -23.4180   17.7550 C   0  0  0  0  0  0  0  0  0  0  0  0
  -28.9480  -22.8380   19.9940 C   0  0  0  0  0  0  0  0  0  0  0  0
  -28.9290  -23.9790   16.5450 C   0  0  0  0  0  2  0  0  0  0  0  0
  -28.5320  -25.3740   19.1560 C   0  0  0  0  0  3  0  0  0  0  0  0
  -29.6270  -22.0170   17.9120 C   0  0  0  0  0  2  0  0  0  0  0  0
  -29.3740  -21.6850   19.3120 N   0  0  0  0  0  0  0  0  0  0  0  0
  -28.7100  -22.8670   21.2060 O   0  0  0  0  0  0  0  0  0  0  0  0
  -30.5340  -19.4270   18.9960 C   0  0  0  0  0  3  0  0  0  0  0  0
  -30.6770  -18.0090   19.1860 C   0  0  0  0  0  3  0  0  0  0  0  0
  -28.8170  -19.5180   20.6470 C   0  0  0  0  0  3  0  0  0  0  0  0
  -29.5900  -20.2490   19.6970 C   0  0  0  0  0  0  0  0  0  0  0  0
  -29.8600  -17.2780   20.0910 C   0  0  0  0  0  0  0  0  0  0  0  0
  -28.9370  -18.0930   20.8200 C   0  0  0  0  0  0  0  0  0  0  0  0
  -28.1110  -17.4800   21.7010 F   0  0  0  0  0  0  0  0  0  0  0  0
  -30.5690  -14.7360   19.7550 C   0  0  0  0  0  0  0  0  0  0  0  0
  -30.2600  -12.5000   18.6720 C   0  0  0  0  0  2  0  0  0  0  0  0
  -29.1980  -12.6450   17.5580 C   0  0  0  0  0  2  0  0  0  0  0  0
  -27.7760  -12.4740   18.1290 C   0  0  0  0  0  2  0  0  0  0  0  0
  -27.5490  -13.3010   19.4210 C   0  0  0  0  0  3  0  0  0  0  0  0
  -28.7160  -13.1250   20.4190 C   0  0  0  0  0  2  0  0  0  0  0  0
  -29.9560  -13.5010   19.7210 N   0  0  0  0  0  0  0  0  0  0  0  0
  -31.6820  -14.8840   19.2410 O   0  0  0  0  0  0  0  0  0  0  0  0
  -29.8370  -15.7980   20.2630 N   0  0  0  0  0  0  0  0  0  0  0  0
  -29.0390  -15.4870   20.7980 H   0  0  0  0  0  0  0  0  0  0  0  0
  -25.2620  -13.8960   20.4240 C   0  0  0  0  0  0  0  0  0  0  0  0
  -24.2230  -13.1230   20.8640 C   0  0  0  0  0  0  0  0  0  0  0  0
  -24.6500  -11.7670   20.7160 C   0  0  0  0  0  0  0  0  0  0  0  0
  -26.2560  -13.0120   20.0330 N   0  0  0  0  0  0  0  0  0  0  0  0
  -25.8990  -11.7230   20.2690 N   0  0  0  0  0  0  0  0  0  0  0  0
  -23.9180  -10.5100   20.9170 C   0  0  0  0  0  0  0  0  0  0  0  0
  -24.3980   -9.5060   21.7870 C   0  0  0  0  0  3  0  0  0  0  0  0
  -23.6660   -8.3150   21.9790 C   0  0  0  0  0  3  0  0  0  0  0  0
  -22.4400   -8.1170   21.3020 C   0  0  0  0  0  0  0  0  0  0  0  0
  -21.9780   -9.1090   20.4190 C   0  0  0  0  0  3  0  0  0  0  0  0
  -22.7090  -10.2930   20.2250 C   0  0  0  0  0  3  0  0  0  0  0  0
  -21.6750   -6.9810   21.4070 O   0  0  0  0  0  0  0  0  0  0  0  0
  -21.6590   -6.2270   22.5530 C   0  0  0  0  0  0  0  0  0  0  0  0
  -21.2930   -6.7770   23.8010 C   0  0  0  0  0  3  0  0  0  0  0  0
  -21.2220   -5.9510   24.9400 C   0  0  0  0  0  3  0  0  0  0  0  0
  -21.5060   -4.5760   24.8330 C   0  0  0  0  0  0  0  0  0  0  0  0
  -21.8660   -4.0260   23.5900 C   0  0  0  0  0  3  0  0  0  0  0  0
  -21.9380   -4.8490   22.4530 C   0  0  0  0  0  0  0  0  0  0  0  0
  -22.2650   -4.3100   21.2540 F   0  0  0  0  0  0  0  0  0  0  0  0
  -21.4310   -3.7820   25.9270 F   0  0  0  0  0  0  0  0  0  0  0  0
  -22.8740  -13.6100   21.3070 C   0  0  0  0  0  0  0  0  0  0  0  0
  -22.2340  -12.8910   22.2230 N   0  0  0  0  0  0  0  0  0  0  0  0
  -22.4010  -14.6600   20.8770 O   0  0  0  0  0  0  0  0  0  0  0  0
  -22.6310  -12.0410   22.5920 H   0  0  0  0  0  0  0  0  0  0  0  0
  -21.3330  -13.2000   22.5610 H   0  0  0  0  0  0  0  0  0  0  0  0
  -25.4390  -15.2710   20.3000 N   0  0  0  0  0  0  0  0  0  0  0  0
  -24.7100  -15.9340   20.5400 H   0  0  0  0  0  0  0  0  0  0  0  0
  -26.2640  -15.7160   19.9180 H   0  0  0  0  0  0  0  0  0  0  0  0
  -28.2860  -26.3020   20.1960 O   0  0  0  0  0  0  0  0  0  0  0  0
  -24.6360  -31.8260   23.1850 C   0  0  0  0  0  0  0  0  0  0  0  0
  -27.2200  -27.2320   20.0960 C   0  0  0  0  0  0  0  0  0  0  0  0
  -23.4210  -30.4300   21.5530 C   0  0  0  0  0  3  0  0  0  0  0  0
  -24.8620  -28.8800   20.1060 C   0  0  0  0  0  0  0  0  0  0  0  0
  -25.9640  -30.7350   21.3570 C   0  0  0  0  0  2  0  0  0  0  0  0
  -26.0390  -29.3550   20.7000 C   0  0  0  0  0  0  0  0  0  0  0  0
  -27.2180  -28.5400   20.6900 C   0  0  0  0  0  3  0  0  0  0  0  0
  -26.0160  -26.8210   19.4820 C   0  0  0  0  0  3  0  0  0  0  0  0
  -24.8560  -27.6210   19.4870 C   0  0  0  0  0  3  0  0  0  0  0  0
  -23.6260  -29.7580   20.1690 C   0  0  0  0  0  2  0  0  0  0  0  0
  -24.6930  -31.0150   22.0870 N   0  0  0  0  0  0  0  0  0  0  0  0
  -23.5560  -32.1050   23.7260 O   0  0  0  0  0  0  0  0  0  0  0  0
  -22.7620  -29.4140   22.5170 C   0  0  0  0  0  0  0  0  0  0  0  0
  -21.4340  -29.2430   22.4060 N   0  0  0  0  0  0  0  0  0  0  0  0
  -23.4470  -28.7830   23.3280 O   0  0  0  0  0  0  0  0  0  0  0  0
  -20.9400  -29.8030   21.7250 H   0  0  0  0  0  0  0  0  0  0  0  0
  -18.0570  -28.0550   22.9420 C   0  0  0  0  0  0  0  0  0  0  0  0
  -20.6200  -28.3060   23.1840 C   0  0  0  0  0  3  0  0  0  0  0  0
  -20.7100  -26.8760   22.6030 C   0  0  0  0  0  2  0  0  0  0  0  0
  -19.5950  -26.5590   21.6010 C   0  0  0  0  0  2  0  0  0  0  0  0
  -18.2210  -26.7070   22.2610 C   0  0  0  0  0  2  0  0  0  0  0  0
  -19.1830  -28.8130   23.3610 C   0  0  0  0  0  0  0  0  0  0  0  0
  -18.9740  -30.0740   23.9600 C   0  0  0  0  0  3  0  0  0  0  0  0
  -17.6720  -30.5780   24.1420 C   0  0  0  0  0  3  0  0  0  0  0  0
  -16.5620  -29.8180   23.7380 C   0  0  0  0  0  3  0  0  0  0  0  0
  -16.7550  -28.5580   23.1440 C   0  0  0  0  0  3  0  0  0  0  0  0
  -25.9220  -32.4600   23.7990 C   0  0  0  0  0  3  0  0  0  0  0  0
  -25.6210  -33.8660   24.1080 N   0  0  0  0  0  0  0  0  0  0  0  0
  -25.9510  -34.9060   23.3290 C   0  0  0  0  0  0  0  0  0  0  0  0
  -26.6080  -34.7810   22.2920 O   0  0  0  0  0  0  0  0  0  0  0  0
  -25.0350  -34.0360   24.9120 H   0  0  0  0  0  0  0  0  0  0  0  0
  -24.2250  -36.7010   22.9720 C   0  0  0  0  0  1  0  0  0  0  0  0
  -25.4760  -36.3030   23.7700 C   0  0  0  0  0  3  0  0  0  0  0  0
  -27.6280  -37.1940   24.5520 C   0  0  0  0  0  1  0  0  0  0  0  0
  -26.5120  -37.3510   23.6220 N   0  0  0  0  0  0  0  0  0  0  0  0
  -26.1120  -38.2750   23.7600 H   0  0  0  0  0  0  0  0  0  0  0  0
  -26.4290  -31.7060   25.0890 C   0  0  1  0  0  0  0  0  0  0  0  0
  -25.3340  -31.4990   26.1610 C   0  0  0  0  0  1  0  0  0  0  0  0
  -27.0000  -30.3160   24.7250 C   0  0  0  0  0  1  0  0  0  0  0  0
  -27.5870  -32.5010   25.7380 C   0  0  0  0  0  1  0  0  0  0  0  0
  1  5  2  0
  1  3  1  0
  2  6  1  0
  2  1  1  0
  3  8  2  0
  4  2  2  0
  5 54  1  0
  6  7  1  0
  7 12  1  0
  7  3  1  0
  9 10  2  0
  9 12  1  0
 10 13  1  0
 11 14  1  0
 12 11  2  0
 13 24  1  0
 13 14  2  0
 14 15  1  0
 16 24  1  0
 17 22  1  0
 18 19  1  0
 18 17  1  0
 20 19  1  0
 20 29  1  0
 20 21  1  0
 22 16  1  0
 22 21  1  0
 23 16  2  0
 24 25  1  0
 26 27  2  0
 27 46  1  0
 28 27  1  0
 28 31  1  0
 29 30  1  0
 29 26  1  0
 30 28  2  0
 31 32  1  0
 32 33  2  0
 34 37  1  0
 34 33  1  0
 35 34  2  0
 36 35  1  0
 36 31  2  0
 37 38  1  0
 38 39  1  0
 39 40  2  0
 41 40  1  0
 41 45  1  0
 42 41  2  0
 43 38  2  0
 43 42  1  0
 44 43  1  0
 46 47  1  0
 47 50  1  0
 47 49  1  0
 48 46  2  0
 51 26  1  0
 51 52  1  0
 53 51  1  0
 55 66  2  0
 56 54  1  0
 56 61  1  0
 57 65  1  0
 57 67  1  0
 58 64  1  0
 58 60  1  0
 59 65  1  0
 60 59  1  0
 61 60  2  0
 62 63  1  0
 62 56  2  0
 63 58  2  0
 64 57  1  0
 65 55  1  0
 67 69  2  0
 68 67  1  0
 70 68  1  0
 71 80  2  0
 71 76  1  0
 72 68  1  0
 72 76  1  0
 73 72  1  0
 74 75  1  0
 74 73  1  0
 75 71  1  0
 76 77  2  0
 77 78  1  0
 79 78  2  0
 80 79  1  0
 81 55  1  0
 81 82  1  0
 81 91  1  0
 82 85  1  0
 83 87  1  0
 83 82  1  0
 84 83  2  0
 87 86  1  0
 89 90  1  0
 89 87  1  0
 89 88  1  0
 91 94  1  1
 91 92  1  0
 93 91  1  0
M  ISO  4   5 101  16 100  24 100  54 101
M  END
>  <TORSDO>  (69) 
F 17

>  <SCORE>  (69) 
-13.487

>  <name>  (69) 
68

>  <ligand_id>  (69) 
68

>  <original_smiles>  (69) 
[H]C([H])=C1C(=C([H])Oc2c([H])c([H])c3c(c2[H])C([H])([H])N(C(=O)C([H])(N([H])C(=O)C([H])(N([H])C([H])([H])[H])C([H])([H])[H])C(C([H])([H])[H])(C([H])([H])[H])C([H])([H])[H])C([H])(C(=O)N([H])C2([H])c4c([H])c([H])c([H])c([H])c4C([H])([H])C([H])([H])C2([H])[H])C3([H])[H])C(=O)N(c2c([H])c([H])c(N([H])C(=O)N3C([H])([H])C([H])([H])C([H])([H])C([H])(n4nc(-c5c([H])c([H])c(Oc6c([H])c([H])c(F)c([H])c6F)c([H])c5[H])c(C(=O)N([H])[H])c4N([H])[H])C3([H])[H])c(F)c2[H])C1([H])[H]

>  <smiles>  (69) 
[H]C([H])=C1C(=C([H])Oc2c([H])c([H])c3c(c2[H])C([H])([H])N(C(=O)C([H])(N([H])C(=O)C([H])(N([H])C([H])([H])[H])C([H])([H])[H])C(C([H])([H])[H])(C([H])([H])[H])C([H])([H])[H])C([H])(C(=O)N([H])C2([H])c4c([H])c([H])c([H])c([H])c4C([H])([H])C([H])([H])C2([H])[H])C3([H])[H])C(=O)N(c2c([H])c([H])c(N([H])C(=O)N3C([H])([H])C([H])([H])C([H])([H])C([H])(n4nc(-c5c([H])c([H])c(Oc6c([H])c([H])c(F)c([H])c6F)c([H])c5[H])c(C(=O)N([H])[H])c4N([H])[H])C3([H])[H])c(F)c2[H])C1([H])[H]

$$$$
69:0:0
     RDKit          3D

 93102  0  0  1  0  0  0  0  0999 V2000
  -30.3390  -23.8560   20.4120 C   0  0  0  0  0  3  0  0  0  0  0  0
  -29.0520  -23.8650   20.0660 C   0  0  0  0  0  0  0  0  0  0  0  0
  -30.8060  -22.4780   20.5850 C   0  0  0  0  0  0  0  0  0  0  0  0
  -28.5790  -22.4120   20.0040 C   0  0  0  0  0  2  0  0  0  0  0  0
  -29.7930  -21.6080   20.3000 N   0  0  0  0  0  0  0  0  0  0  0  0
  -31.9410  -22.1590   20.9470 O   0  0  0  0  0  0  0  0  0  0  0  0
  -31.0570  -19.3810   20.1470 C   0  0  0  0  0  3  0  0  0  0  0  0
  -31.1110  -17.9510   20.1910 C   0  0  0  0  0  3  0  0  0  0  0  0
  -28.7530  -17.9080   20.6190 C   0  0  0  0  0  3  0  0  0  0  0  0
  -29.8500  -20.1270   20.3380 C   0  0  0  0  0  0  0  0  0  0  0  0
  -29.9520  -17.1700   20.4380 C   0  0  0  0  0  0  0  0  0  0  0  0
  -28.6930  -19.3300   20.5650 C   0  0  0  0  0  0  0  0  0  0  0  0
  -27.4880  -19.9180   20.7620 F   0  0  0  0  0  0  0  0  0  0  0  0
  -30.6670  -14.6820   20.0570 C   0  0  0  0  0  0  0  0  0  0  0  0
  -30.3910  -12.4770   18.9410 C   0  0  0  0  0  2  0  0  0  0  0  0
  -29.3730  -12.6440   17.7890 C   0  0  0  0  0  2  0  0  0  0  0  0
  -27.9280  -12.4750   18.3010 C   0  0  0  0  0  2  0  0  0  0  0  0
  -27.6480  -13.3000   19.5850 C   0  0  0  0  0  3  0  0  0  0  0  0
  -28.7710  -13.1030   20.6280 C   0  0  0  0  0  2  0  0  0  0  0  0
  -30.0480  -13.4600   19.9860 N   0  0  0  0  0  0  0  0  0  0  0  0
  -31.7970  -14.8590   19.5920 O   0  0  0  0  0  0  0  0  0  0  0  0
  -29.8850  -15.7060   20.5230 N   0  0  0  0  0  0  0  0  0  0  0  0
  -29.0140  -15.3570   20.8910 H   0  0  0  0  0  0  0  0  0  0  0  0
  -25.3050  -13.8900   20.4620 C   0  0  0  0  0  0  0  0  0  0  0  0
  -24.2550  -13.1110   20.8700 C   0  0  0  0  0  0  0  0  0  0  0  0
  -24.7040  -11.7590   20.7670 C   0  0  0  0  0  0  0  0  0  0  0  0
  -26.3260  -13.0110   20.1380 N   0  0  0  0  0  0  0  0  0  0  0  0
  -25.9730  -11.7230   20.3800 N   0  0  0  0  0  0  0  0  0  0  0  0
  -23.9800  -10.4960   20.9570 C   0  0  0  0  0  0  0  0  0  0  0  0
  -24.4220   -9.5230   21.8810 C   0  0  0  0  0  3  0  0  0  0  0  0
  -23.7000   -8.3240   22.0600 C   0  0  0  0  0  3  0  0  0  0  0  0
  -22.5200   -8.0880   21.3150 C   0  0  0  0  0  0  0  0  0  0  0  0
  -22.0970   -9.0490   20.3800 C   0  0  0  0  0  3  0  0  0  0  0  0
  -22.8200  -10.2400   20.1990 C   0  0  0  0  0  3  0  0  0  0  0  0
  -21.7690   -6.9410   21.4030 O   0  0  0  0  0  0  0  0  0  0  0  0
  -21.6790   -6.2280   22.5720 C   0  0  0  0  0  0  0  0  0  0  0  0
  -21.1950   -6.8100   23.7640 C   0  0  0  0  0  3  0  0  0  0  0  0
  -21.0530   -6.0230   24.9240 C   0  0  0  0  0  3  0  0  0  0  0  0
  -21.3830   -4.6550   24.8930 C   0  0  0  0  0  0  0  0  0  0  0  0
  -21.8590   -4.0720   23.7050 C   0  0  0  0  0  3  0  0  0  0  0  0
  -22.0030   -4.8570   22.5470 C   0  0  0  0  0  0  0  0  0  0  0  0
  -22.4420   -4.2860   21.3990 F   0  0  0  0  0  0  0  0  0  0  0  0
  -21.2400   -3.8970   26.0050 F   0  0  0  0  0  0  0  0  0  0  0  0
  -22.8800  -13.5870   21.2400 C   0  0  0  0  0  0  0  0  0  0  0  0
  -22.2000  -12.8700   22.1280 N   0  0  0  0  0  0  0  0  0  0  0  0
  -22.4180  -14.6300   20.7780 O   0  0  0  0  0  0  0  0  0  0  0  0
  -22.5860  -12.0260   22.5240 H   0  0  0  0  0  0  0  0  0  0  0  0
  -21.2780  -13.1700   22.4160 H   0  0  0  0  0  0  0  0  0  0  0  0
  -25.4670  -15.2650   20.3180 N   0  0  0  0  0  0  0  0  0  0  0  0
  -24.7040  -15.9140   20.4790 H   0  0  0  0  0  0  0  0  0  0  0  0
  -26.2750  -15.7040   19.8960 H   0  0  0  0  0  0  0  0  0  0  0  0
  -28.0920  -25.0420   19.6950 C   0  0  0  0  0  2  0  0  0  0  0  0
  -28.3790  -26.4630   20.0200 O   0  0  0  0  0  0  0  0  0  0  0  0
  -24.5830  -31.7790   23.1430 C   0  0  0  0  0  0  0  0  0  0  0  0
  -27.2650  -27.3300   19.9760 C   0  0  0  0  0  0  0  0  0  0  0  0
  -23.4050  -30.4070   21.4680 C   0  0  0  0  0  3  0  0  0  0  0  0
  -24.8800  -28.9220   20.0060 C   0  0  0  0  0  0  0  0  0  0  0  0
  -25.9420  -30.7610   21.3020 C   0  0  0  0  0  2  0  0  0  0  0  0
  -26.0420  -29.4020   20.6200 C   0  0  0  0  0  0  0  0  0  0  0  0
  -27.2380  -28.6170   20.6020 C   0  0  0  0  0  3  0  0  0  0  0  0
  -26.0730  -26.9210   19.3240 C   0  0  0  0  0  3  0  0  0  0  0  0
  -24.8970  -27.6870   19.3490 C   0  0  0  0  0  3  0  0  0  0  0  0
  -23.6310  -29.7750   20.0720 C   0  0  0  0  0  2  0  0  0  0  0  0
  -24.6620  -30.9970   22.0290 N   0  0  0  0  0  0  0  0  0  0  0  0
  -23.4940  -32.0290   23.6800 O   0  0  0  0  0  0  0  0  0  0  0  0
  -22.7530  -29.3540   22.3970 C   0  0  0  0  0  0  0  0  0  0  0  0
  -21.4270  -29.1740   22.2730 N   0  0  0  0  0  0  0  0  0  0  0  0
  -23.4400  -28.7060   23.1920 O   0  0  0  0  0  0  0  0  0  0  0  0
  -20.9320  -29.7500   21.6070 H   0  0  0  0  0  0  0  0  0  0  0  0
  -18.0540  -27.9680   22.7770 C   0  0  0  0  0  0  0  0  0  0  0  0
  -20.6170  -28.2100   23.0200 C   0  0  0  0  0  3  0  0  0  0  0  0
  -20.7060  -26.8000   22.3920 C   0  0  0  0  0  2  0  0  0  0  0  0
  -19.5890  -26.5170   21.3830 C   0  0  0  0  0  2  0  0  0  0  0  0
  -18.2170  -26.6430   22.0500 C   0  0  0  0  0  2  0  0  0  0  0  0
  -19.1810  -28.7100   23.2180 C   0  0  0  0  0  0  0  0  0  0  0  0
  -18.9740  -29.9520   23.8590 C   0  0  0  0  0  3  0  0  0  0  0  0
  -17.6720  -30.4490   24.0620 C   0  0  0  0  0  3  0  0  0  0  0  0
  -16.5600  -29.7020   23.6350 C   0  0  0  0  0  3  0  0  0  0  0  0
  -16.7520  -28.4630   22.9980 C   0  0  0  0  0  3  0  0  0  0  0  0
  -25.8550  -32.4130   23.7850 C   0  0  0  0  0  3  0  0  0  0  0  0
  -25.5300  -33.8040   24.1300 N   0  0  0  0  0  0  0  0  0  0  0  0
  -25.8400  -34.8680   23.3760 C   0  0  0  0  0  0  0  0  0  0  0  0
  -26.5000  -34.7810   22.3370 O   0  0  0  0  0  0  0  0  0  0  0  0
  -24.9410  -33.9440   24.9380 H   0  0  0  0  0  0  0  0  0  0  0  0
  -24.0760  -36.6340   23.0700 C   0  0  0  0  0  1  0  0  0  0  0  0
  -25.3410  -36.2460   23.8510 C   0  0  0  0  0  3  0  0  0  0  0  0
  -27.4760  -37.1640   24.6420 C   0  0  0  0  0  1  0  0  0  0  0  0
  -26.3530  -37.3160   23.7210 N   0  0  0  0  0  0  0  0  0  0  0  0
  -25.9350  -38.2290   23.8790 H   0  0  0  0  0  0  0  0  0  0  0  0
  -26.3640  -31.6290   25.0570 C   0  0  1  0  0  0  0  0  0  0  0  0
  -25.2620  -31.3710   26.1110 C   0  0  0  0  0  1  0  0  0  0  0  0
  -26.9620  -30.2610   24.6540 C   0  0  0  0  0  1  0  0  0  0  0  0
  -27.5030  -32.4230   25.7400 C   0  0  0  0  0  1  0  0  0  0  0  0
  1  3  1  0
  2  1  2  0
  3  6  2  0
  4  2  1  0
  4  5  1  0
  5 10  1  0
  5  3  1  0
  7  8  2  0
  7 10  1  0
  8 11  1  0
 10 12  2  0
 11 22  1  0
 11  9  2  0
 12  9  1  0
 12 13  1  0
 14 22  1  0
 15 20  1  0
 16 17  1  0
 16 15  1  0
 18 17  1  0
 18 27  1  0
 18 19  1  0
 20 14  1  0
 20 19  1  0
 21 14  2  0
 22 23  1  0
 24 25  2  0
 25 44  1  0
 26 25  1  0
 26 29  1  0
 27 28  1  0
 27 24  1  0
 28 26  2  0
 29 30  1  0
 30 31  2  0
 32 35  1  0
 32 31  1  0
 33 32  2  0
 34 33  1  0
 34 29  2  0
 35 36  1  0
 36 37  1  0
 37 38  2  0
 39 38  1  0
 39 43  1  0
 40 39  2  0
 41 36  2  0
 41 40  1  0
 42 41  1  0
 44 45  1  0
 45 48  1  0
 45 47  1  0
 46 44  2  0
 49 24  1  0
 49 50  1  0
 51 49  1  0
 52 53  1  0
 52  2  1  0
 54 65  2  0
 55 53  1  0
 55 60  1  0
 56 64  1  0
 56 66  1  0
 57 63  1  0
 57 59  1  0
 58 64  1  0
 59 58  1  0
 60 59  2  0
 61 62  1  0
 61 55  2  0
 62 57  2  0
 63 56  1  0
 64 54  1  0
 66 68  2  0
 67 66  1  0
 69 67  1  0
 70 79  2  0
 70 75  1  0
 71 67  1  0
 71 75  1  0
 72 71  1  0
 73 74  1  0
 73 72  1  0
 74 70  1  0
 75 76  2  0
 76 77  1  0
 78 77  2  0
 79 78  1  0
 80 54  1  0
 80 81  1  0
 80 90  1  0
 81 84  1  0
 82 86  1  0
 82 81  1  0
 83 82  2  0
 86 85  1  0
 88 86  1  0
 88 89  1  0
 88 87  1  0
 90 93  1  1
 90 91  1  0
 92 90  1  0
M  ISO  4  14 100  22 100  52 101  53 101
M  END
>  <TORSDO>  (70) 
F 18

>  <SCORE>  (70) 
-14.562

>  <name>  (70) 
69

>  <ligand_id>  (70) 
69

>  <original_smiles>  (70) 
[H]C1=C(C([H])([H])Oc2c([H])c([H])c3c(c2[H])C([H])([H])N(C(=O)C([H])(N([H])C(=O)C([H])(N([H])C([H])([H])[H])C([H])([H])[H])C(C([H])([H])[H])(C([H])([H])[H])C([H])([H])[H])C([H])(C(=O)N([H])C2([H])c4c([H])c([H])c([H])c([H])c4C([H])([H])C([H])([H])C2([H])[H])C3([H])[H])C([H])([H])N(c2c([H])c([H])c(N([H])C(=O)N3C([H])([H])C([H])([H])C([H])([H])C([H])(n4nc(-c5c([H])c([H])c(Oc6c([H])c([H])c(F)c([H])c6F)c([H])c5[H])c(C(=O)N([H])[H])c4N([H])[H])C3([H])[H])c([H])c2F)C1=O

>  <smiles>  (70) 
[H]C1=C(C([H])([H])Oc2c([H])c([H])c3c(c2[H])C([H])([H])N(C(=O)C([H])(N([H])C(=O)C([H])(N([H])C([H])([H])[H])C([H])([H])[H])C(C([H])([H])[H])(C([H])([H])[H])C([H])([H])[H])C([H])(C(=O)N([H])C2([H])c4c([H])c([H])c([H])c([H])c4C([H])([H])C([H])([H])C2([H])[H])C3([H])[H])C([H])([H])N(c2c([H])c([H])c(N([H])C(=O)N3C([H])([H])C([H])([H])C([H])([H])C([H])(n4nc(-c5c([H])c([H])c(Oc6c([H])c([H])c(F)c([H])c6F)c([H])c5[H])c(C(=O)N([H])[H])c4N([H])[H])C3([H])[H])c([H])c2F)C1=O

$$$$
70:0:0
     RDKit          3D

 94103  0  0  1  0  0  0  0  0999 V2000
  -28.9340  -23.1200   20.5550 C   0  0  0  0  0  0  0  0  0  0  0  0
  -29.1790  -21.8710   19.8450 C   0  0  0  0  0  0  0  0  0  0  0  0
  -28.8280  -24.3320   19.9560 C   0  0  0  0  0  3  0  0  0  0  0  0
  -28.8260  -22.8720   22.0310 C   0  0  0  0  0  3  0  0  0  0  0  0
  -28.9050  -21.3520   22.1190 C   0  0  0  0  0  3  0  0  0  0  0  0
  -29.2520  -20.8800   20.7730 N   0  0  0  0  0  0  0  0  0  0  0  0
  -29.2600  -21.7260   18.6210 O   0  0  0  0  0  0  0  0  0  0  0  0
  -28.8000  -18.4920   21.1880 C   0  0  0  0  0  3  0  0  0  0  0  0
  -29.1730  -17.1320   21.1540 C   0  0  0  0  0  3  0  0  0  0  0  0
  -31.1080  -17.6990   19.8160 C   0  0  0  0  0  3  0  0  0  0  0  0
  -29.5900  -19.4910   20.5690 C   0  0  0  0  0  0  0  0  0  0  0  0
  -30.3490  -16.7130   20.4940 C   0  0  0  0  0  0  0  0  0  0  0  0
  -30.7500  -19.0690   19.8660 C   0  0  0  0  0  0  0  0  0  0  0  0
  -31.5870  -19.9730   19.3040 F   0  0  0  0  0  0  0  0  0  0  0  0
  -31.0730  -14.5170   19.6020 C   0  0  0  0  0  0  0  0  0  0  0  0
  -30.5100  -12.4370   18.3760 C   0  0  0  0  0  2  0  0  0  0  0  0
  -29.4170  -12.6930   17.3230 C   0  0  0  0  0  2  0  0  0  0  0  0
  -28.0180  -12.5530   17.9520 C   0  0  0  0  0  2  0  0  0  0  0  0
  -27.8770  -13.3640   19.2670 C   0  0  0  0  0  3  0  0  0  0  0  0
  -29.0670  -13.0980   20.2120 C   0  0  0  0  0  2  0  0  0  0  0  0
  -30.3160  -13.3870   19.4840 N   0  0  0  0  0  0  0  0  0  0  0  0
  -32.0100  -14.7680   18.8360 O   0  0  0  0  0  0  0  0  0  0  0  0
  -31.1850  -14.9210   21.9820 C   0  0  0  0  0  1  0  0  0  0  0  0
  -30.7720  -15.3430   20.6360 N   0  0  0  0  0  0  0  0  0  0  0  0
  -25.6480  -14.0000   20.3830 C   0  0  0  0  0  0  0  0  0  0  0  0
  -24.6080  -13.2410   20.8480 C   0  0  0  0  0  0  0  0  0  0  0  0
  -24.9890  -11.8790   20.6370 C   0  0  0  0  0  0  0  0  0  0  0  0
  -26.5980  -13.1020   19.9220 N   0  0  0  0  0  0  0  0  0  0  0  0
  -26.2130  -11.8170   20.1300 N   0  0  0  0  0  0  0  0  0  0  0  0
  -24.2340  -10.6350   20.8340 C   0  0  0  0  0  0  0  0  0  0  0  0
  -24.6580   -9.6510   21.7550 C   0  0  0  0  0  3  0  0  0  0  0  0
  -23.9050   -8.4710   21.9400 C   0  0  0  0  0  3  0  0  0  0  0  0
  -22.7150   -8.2660   21.2040 C   0  0  0  0  0  0  0  0  0  0  0  0
  -22.3100   -9.2370   20.2720 C   0  0  0  0  0  3  0  0  0  0  0  0
  -23.0610  -10.4100   20.0850 C   0  0  0  0  0  3  0  0  0  0  0  0
  -21.9350   -7.1380   21.2990 O   0  0  0  0  0  0  0  0  0  0  0  0
  -21.7640   -6.4790   22.4880 C   0  0  0  0  0  0  0  0  0  0  0  0
  -21.2390   -7.1240   23.6290 C   0  0  0  0  0  3  0  0  0  0  0  0
  -21.0160   -6.3920   24.8120 C   0  0  0  0  0  3  0  0  0  0  0  0
  -21.3070   -5.0150   24.8550 C   0  0  0  0  0  0  0  0  0  0  0  0
  -21.8250   -4.3690   23.7170 C   0  0  0  0  0  3  0  0  0  0  0  0
  -22.0500   -5.0990   22.5370 C   0  0  0  0  0  0  0  0  0  0  0  0
  -22.5290   -4.4680   21.4380 F   0  0  0  0  0  0  0  0  0  0  0  0
  -21.0850   -4.3090   25.9880 F   0  0  0  0  0  0  0  0  0  0  0  0
  -23.2950  -13.7450   21.3720 C   0  0  0  0  0  0  0  0  0  0  0  0
  -22.6970  -13.0280   22.3170 N   0  0  0  0  0  0  0  0  0  0  0  0
  -22.8150  -14.8080   20.9790 O   0  0  0  0  0  0  0  0  0  0  0  0
  -23.1010  -12.1640   22.6490 H   0  0  0  0  0  0  0  0  0  0  0  0
  -21.8240  -13.3450   22.7120 H   0  0  0  0  0  0  0  0  0  0  0  0
  -25.8610  -15.3730   20.2950 N   0  0  0  0  0  0  0  0  0  0  0  0
  -25.1660  -16.0520   20.5820 H   0  0  0  0  0  0  0  0  0  0  0  0
  -26.6890  -15.7970   19.8960 H   0  0  0  0  0  0  0  0  0  0  0  0
  -28.6040  -25.6380   20.7160 C   0  0  0  0  0  2  0  0  0  0  0  0
  -28.5600  -26.8020   19.8790 O   0  0  0  0  0  0  0  0  0  0  0  0
  -24.5500  -31.7760   23.0670 C   0  0  0  0  0  0  0  0  0  0  0  0
  -27.3710  -27.4940   19.9210 C   0  0  0  0  0  0  0  0  0  0  0  0
  -23.4000  -30.3520   21.4020 C   0  0  0  0  0  3  0  0  0  0  0  0
  -24.9150  -28.8900   19.9580 C   0  0  0  0  0  0  0  0  0  0  0  0
  -25.9090  -30.8170   21.2090 C   0  0  0  0  0  2  0  0  0  0  0  0
  -26.0510  -29.4580   20.5510 C   0  0  0  0  0  0  0  0  0  0  0  0
  -27.2850  -28.7690   20.5270 C   0  0  0  0  0  3  0  0  0  0  0  0
  -26.2210  -26.9330   19.3310 C   0  0  0  0  0  3  0  0  0  0  0  0
  -24.9950  -27.6260   19.3450 C   0  0  0  0  0  3  0  0  0  0  0  0
  -23.6360  -29.6970   20.0140 C   0  0  0  0  0  2  0  0  0  0  0  0
  -24.6370  -30.9960   21.9520 N   0  0  0  0  0  0  0  0  0  0  0  0
  -23.4580  -31.9950   23.6120 O   0  0  0  0  0  0  0  0  0  0  0  0
  -22.7880  -29.2930   22.3480 C   0  0  0  0  0  0  0  0  0  0  0  0
  -21.4720  -29.0640   22.2180 N   0  0  0  0  0  0  0  0  0  0  0  0
  -23.4960  -28.6820   23.1530 O   0  0  0  0  0  0  0  0  0  0  0  0
  -20.9620  -29.6100   21.5380 H   0  0  0  0  0  0  0  0  0  0  0  0
  -18.1430  -27.7460   22.7080 C   0  0  0  0  0  0  0  0  0  0  0  0
  -20.6930  -28.0850   22.9740 C   0  0  0  0  0  3  0  0  0  0  0  0
  -20.8410  -26.6710   22.3670 C   0  0  0  0  0  2  0  0  0  0  0  0
  -19.7440  -26.3310   21.3510 C   0  0  0  0  0  2  0  0  0  0  0  0
  -18.3620  -26.4170   22.0040 C   0  0  0  0  0  2  0  0  0  0  0  0
  -19.2380  -28.5360   23.1500 C   0  0  0  0  0  0  0  0  0  0  0  0
  -18.9800  -29.7800   23.7670 C   0  0  0  0  0  3  0  0  0  0  0  0
  -17.6600  -30.2350   23.9460 C   0  0  0  0  0  3  0  0  0  0  0  0
  -16.5810  -29.4420   23.5200 C   0  0  0  0  0  3  0  0  0  0  0  0
  -16.8230  -28.1990   22.9080 C   0  0  0  0  0  3  0  0  0  0  0  0
  -25.8100  -32.4450   23.7000 C   0  0  0  0  0  3  0  0  0  0  0  0
  -25.4370  -33.8100   24.0920 N   0  0  0  0  0  0  0  0  0  0  0  0
  -25.7140  -34.9090   23.3760 C   0  0  0  0  0  0  0  0  0  0  0  0
  -26.3850  -34.8820   22.3410 O   0  0  0  0  0  0  0  0  0  0  0  0
  -24.8390  -33.9020   24.8990 H   0  0  0  0  0  0  0  0  0  0  0  0
  -23.9110  -36.6370   23.0820 C   0  0  0  0  0  1  0  0  0  0  0  0
  -25.1600  -36.2510   23.8910 C   0  0  0  0  0  3  0  0  0  0  0  0
  -27.2460  -37.1860   24.7880 C   0  0  0  0  0  1  0  0  0  0  0  0
  -26.1450  -37.3520   23.8420 N   0  0  0  0  0  0  0  0  0  0  0  0
  -25.6980  -38.2450   24.0300 H   0  0  0  0  0  0  0  0  0  0  0  0
  -26.3820  -31.6490   24.9350 C   0  0  1  0  0  0  0  0  0  0  0  0
  -25.3110  -31.2800   25.9890 C   0  0  0  0  0  1  0  0  0  0  0  0
  -27.0580  -30.3370   24.4720 C   0  0  0  0  0  1  0  0  0  0  0  0
  -27.4790  -32.4860   25.6380 C   0  0  0  0  0  1  0  0  0  0  0  0
  1  4  1  0
  2  1  1  0
  2  6  1  0
  3  1  2  0
  3 53  1  0
  4  5  2  0
  6  5  1  0
  7  2  2  0
  9  8  1  0
 10 13  2  0
 10 12  1  0
 11  6  1  0
 11  8  2  0
 12 24  1  0
 12  9  2  0
 13 11  1  0
 14 13  1  0
 15 24  1  0
 16 21  1  0
 17 18  1  0
 17 16  1  0
 19 18  1  0
 19 28  1  0
 19 20  1  0
 21 15  1  0
 21 20  1  0
 22 15  2  0
 24 23  1  0
 25 26  2  0
 26 45  1  0
 27 30  1  0
 27 26  1  0
 28 29  1  0
 28 25  1  0
 29 27  2  0
 30 31  1  0
 31 32  2  0
 33 36  1  0
 33 32  1  0
 34 33  2  0
 35 34  1  0
 35 30  2  0
 36 37  1  0
 37 42  2  0
 37 38  1  0
 38 39  2  0
 39 40  1  0
 40 44  1  0
 41 40  2  0
 42 41  1  0
 43 42  1  0
 45 46  1  0
 46 48  1  0
 46 49  1  0
 47 45  2  0
 50 25  1  0
 50 51  1  0
 52 50  1  0
 54 56  1  0
 54 53  1  0
 55 66  2  0
 56 61  1  0
 57 65  1  0
 57 67  1  0
 58 64  1  0
 58 60  1  0
 59 65  1  0
 60 59  1  0
 61 60  2  0
 62 63  1  0
 62 56  2  0
 63 58  2  0
 64 57  1  0
 65 55  1  0
 67 69  2  0
 68 67  1  0
 70 68  1  0
 71 80  2  0
 71 76  1  0
 72 68  1  0
 72 76  1  0
 73 72  1  0
 74 75  1  0
 74 73  1  0
 75 71  1  0
 76 77  2  0
 77 78  1  0
 79 78  2  0
 80 79  1  0
 81 55  1  0
 81 82  1  0
 81 91  1  0
 82 85  1  0
 83 87  1  0
 83 82  1  0
 84 83  2  0
 87 86  1  0
 89 87  1  0
 89 90  1  0
 89 88  1  0
 91 94  1  1
 91 92  1  0
 93 91  1  0
M  ISO  4  15 100  24 100  53 101  54 101
M  END
>  <TORSDO>  (71) 
F 18

>  <SCORE>  (71) 
-12.464

>  <name>  (71) 
70

>  <ligand_id>  (71) 
70

>  <original_smiles>  (71) 
[H]C(=C1C(=O)N(c2c([H])c([H])c(N(C(=O)N3C([H])([H])C([H])([H])C([H])([H])C([H])(n4nc(-c5c([H])c([H])c(Oc6c([H])c([H])c(F)c([H])c6F)c([H])c5[H])c(C(=O)N([H])[H])c4N([H])[H])C3([H])[H])C([H])([H])[H])c([H])c2F)C([H])([H])C1([H])[H])C([H])([H])Oc1c([H])c([H])c2c(c1[H])C([H])([H])N(C(=O)C([H])(N([H])C(=O)C([H])(N([H])C([H])([H])[H])C([H])([H])[H])C(C([H])([H])[H])(C([H])([H])[H])C([H])([H])[H])C([H])(C(=O)N([H])C1([H])c3c([H])c([H])c([H])c([H])c3C([H])([H])C([H])([H])C1([H])[H])C2([H])[H]

>  <smiles>  (71) 
[H]C(=C1C(=O)N(c2c([H])c([H])c(N(C(=O)N3C([H])([H])C([H])([H])C([H])([H])C([H])(n4nc(-c5c([H])c([H])c(Oc6c([H])c([H])c(F)c([H])c6F)c([H])c5[H])c(C(=O)N([H])[H])c4N([H])[H])C3([H])[H])C([H])([H])[H])c([H])c2F)C([H])([H])C1([H])[H])C([H])([H])Oc1c([H])c([H])c2c(c1[H])C([H])([H])N(C(=O)C([H])(N([H])C(=O)C([H])(N([H])C([H])([H])[H])C([H])([H])[H])C(C([H])([H])[H])(C([H])([H])[H])C([H])([H])[H])C([H])(C(=O)N([H])C1([H])c3c([H])c([H])c([H])c([H])c3C([H])([H])C([H])([H])C1([H])[H])C2([H])[H]

$$$$
71:0:0
     RDKit          3D

 89 97  0  0  1  0  0  0  0  0999 V2000
  -28.6200  -23.6720   20.0230 C   0  0  0  0  0  2  0  0  0  0  0  0
  -28.9840  -22.0920   19.9940 C   0  0  0  0  0  0  0  0  0  0  0  0
  -30.4710  -22.4040   16.4910 C   0  0  0  0  0  3  0  0  0  0  0  0
  -30.2400  -22.6330   17.8550 C   0  0  0  0  0  3  0  0  0  0  0  0
  -29.7810  -21.3610   15.8580 C   0  0  0  0  0  3  0  0  0  0  0  0
  -28.6800  -20.7980   17.8170 C   0  0  0  0  0  3  0  0  0  0  0  0
  -29.2980  -21.8380   18.5540 C   0  0  0  0  0  0  0  0  0  0  0  0
  -28.9070  -20.5640   16.5060 N   0  0  0  0  0  0  0  0  0  0  0  0
  -29.2570  -20.4320   20.7220 C   0  0  0  0  0  3  0  0  0  0  0  0
  -29.7770  -19.0720   20.3520 N   0  0  0  0  0  2  0  0  0  0  0  0
  -30.5140  -15.8760   20.6030 C   0  0  0  0  0  0  0  0  0  0  0  0
  -30.7050  -13.2600   19.8420 C   0  0  0  0  0  2  0  0  0  0  0  0
  -29.9140  -12.7680   18.5880 C   0  0  0  0  0  2  0  0  0  0  0  0
  -28.4780  -12.3750   18.9540 C   0  0  0  0  0  2  0  0  0  0  0  0
  -27.8820  -13.3860   19.9550 C   0  0  0  0  0  3  0  0  0  0  0  0
  -28.8270  -13.7720   21.1260 C   0  0  0  0  0  2  0  0  0  0  0  0
  -30.0170  -14.4620   20.5480 N   0  0  0  0  0  0  0  0  0  0  0  0
  -31.7470  -15.7690   20.4120 O   0  0  0  0  0  0  0  0  0  0  0  0
  -29.7790  -17.3100   20.7790 N   0  0  0  0  0  0  0  0  0  0  0  0
  -28.8960  -17.1100   21.2310 H   0  0  0  0  0  0  0  0  0  0  0  0
  -25.4680  -13.9010   20.5280 C   0  0  0  0  0  0  0  0  0  0  0  0
  -24.3920  -13.1210   20.8410 C   0  0  0  0  0  0  0  0  0  0  0  0
  -24.8740  -11.7760   20.8880 C   0  0  0  0  0  0  0  0  0  0  0  0
  -26.5360  -13.0360   20.3910 N   0  0  0  0  0  0  0  0  0  0  0  0
  -26.1890  -11.7500   20.6730 N   0  0  0  0  0  0  0  0  0  0  0  0
  -24.1430  -10.5130   21.0640 C   0  0  0  0  0  0  0  0  0  0  0  0
  -24.5190   -9.5670   22.0430 C   0  0  0  0  0  3  0  0  0  0  0  0
  -23.7800   -8.3750   22.2100 C   0  0  0  0  0  3  0  0  0  0  0  0
  -22.6520   -8.1180   21.3940 C   0  0  0  0  0  0  0  0  0  0  0  0
  -22.2950   -9.0520   20.4040 C   0  0  0  0  0  3  0  0  0  0  0  0
  -23.0340  -10.2360   20.2380 C   0  0  0  0  0  3  0  0  0  0  0  0
  -21.8910   -6.9770   21.4670 O   0  0  0  0  0  0  0  0  0  0  0  0
  -21.7810   -6.2550   22.6290 C   0  0  0  0  0  0  0  0  0  0  0  0
  -21.2650   -6.8270   23.8130 C   0  0  0  0  0  3  0  0  0  0  0  0
  -21.1050   -6.0310   24.9650 C   0  0  0  0  0  3  0  0  0  0  0  0
  -21.4510   -4.6670   24.9350 C   0  0  0  0  0  0  0  0  0  0  0  0
  -21.9580   -4.0950   23.7550 C   0  0  0  0  0  3  0  0  0  0  0  0
  -22.1200   -4.8870   22.6050 C   0  0  0  0  0  0  0  0  0  0  0  0
  -22.5890   -4.3260   21.4650 F   0  0  0  0  0  0  0  0  0  0  0  0
  -21.2900   -3.9020   26.0400 F   0  0  0  0  0  0  0  0  0  0  0  0
  -22.9750  -13.5940   20.9840 C   0  0  0  0  0  0  0  0  0  0  0  0
  -22.1890  -12.9260   21.8210 N   0  0  0  0  0  0  0  0  0  0  0  0
  -22.5720  -14.5930   20.3900 O   0  0  0  0  0  0  0  0  0  0  0  0
  -22.5250  -12.1200   22.3250 H   0  0  0  0  0  0  0  0  0  0  0  0
  -21.2340  -13.2290   21.9620 H   0  0  0  0  0  0  0  0  0  0  0  0
  -25.6280  -15.2680   20.3180 N   0  0  0  0  0  0  0  0  0  0  0  0
  -24.8470  -15.9150   20.3540 H   0  0  0  0  0  0  0  0  0  0  0  0
  -26.4880  -15.7010   20.0060 H   0  0  0  0  0  0  0  0  0  0  0  0
  -28.3280  -25.1820   20.6610 O   0  0  0  0  0  0  0  0  0  0  0  0
  -24.6420  -31.7600   22.9860 C   0  0  0  0  0  0  0  0  0  0  0  0
  -27.4100  -26.4660   20.3750 C   0  0  0  0  0  0  0  0  0  0  0  0
  -23.5540  -30.2320   21.3960 C   0  0  0  0  0  3  0  0  0  0  0  0
  -25.0990  -28.5280   20.1210 C   0  0  0  0  0  0  0  0  0  0  0  0
  -26.1360  -30.3990   21.3700 C   0  0  0  0  0  2  0  0  0  0  0  0
  -26.2610  -28.9200   20.7930 C   0  0  0  0  0  0  0  0  0  0  0  0
  -27.3850  -27.9160   20.8940 C   0  0  0  0  0  3  0  0  0  0  0  0
  -26.2160  -26.3300   19.6090 C   0  0  0  0  0  3  0  0  0  0  0  0
  -25.1260  -27.2620   19.5040 C   0  0  0  0  0  3  0  0  0  0  0  0
  -23.8650  -29.4580   20.0790 C   0  0  0  0  0  2  0  0  0  0  0  0
  -24.8000  -30.8390   21.9680 N   0  0  0  0  0  0  0  0  0  0  0  0
  -23.5210  -32.0610   23.4350 O   0  0  0  0  0  0  0  0  0  0  0  0
  -22.8210  -29.3020   22.4030 C   0  0  0  0  0  0  0  0  0  0  0  0
  -21.4860  -29.1630   22.2890 N   0  0  0  0  0  0  0  0  0  0  0  0
  -23.4680  -28.7030   23.2630 O   0  0  0  0  0  0  0  0  0  0  0  0
  -21.0100  -29.6930   21.5710 H   0  0  0  0  0  0  0  0  0  0  0  0
  -18.0820  -28.0350   22.9020 C   0  0  0  0  0  0  0  0  0  0  0  0
  -20.6530  -28.2570   23.0930 C   0  0  0  0  0  3  0  0  0  0  0  0
  -20.7080  -26.8130   22.5400 C   0  0  0  0  0  2  0  0  0  0  0  0
  -19.5770  -26.5020   21.5550 C   0  0  0  0  0  2  0  0  0  0  0  0
  -18.2140  -26.6780   22.2300 C   0  0  0  0  0  2  0  0  0  0  0  0
  -19.2250  -28.7840   23.2910 C   0  0  0  0  0  0  0  0  0  0  0  0
  -19.0400  -30.0490   23.8860 C   0  0  0  0  0  3  0  0  0  0  0  0
  -17.7460  -30.5700   24.0900 C   0  0  0  0  0  3  0  0  0  0  0  0
  -16.6190  -29.8200   23.7110 C   0  0  0  0  0  3  0  0  0  0  0  0
  -16.7890  -28.5530   23.1230 C   0  0  0  0  0  3  0  0  0  0  0  0
  -25.8590  -32.4900   23.6320 C   0  0  0  0  0  3  0  0  0  0  0  0
  -25.4480  -33.8690   23.9730 N   0  0  0  0  0  0  0  0  0  0  0  0
  -25.8230  -34.9760   23.3160 C   0  0  0  0  0  0  0  0  0  0  0  0
  -26.6030  -34.9460   22.3630 O   0  0  0  0  0  0  0  0  0  0  0  0
  -24.7610  -33.9620   24.7060 H   0  0  0  0  0  0  0  0  0  0  0  0
  -24.1020  -36.7600   22.8520 C   0  0  0  0  0  1  0  0  0  0  0  0
  -25.2430  -36.3290   23.7860 C   0  0  0  0  0  3  0  0  0  0  0  0
  -27.2320  -37.2160   24.9260 C   0  0  0  0  0  1  0  0  0  0  0  0
  -26.2520  -37.4100   23.8610 N   0  0  0  0  0  0  0  0  0  0  0  0
  -25.8040  -38.3120   24.0020 H   0  0  0  0  0  0  0  0  0  0  0  0
  -26.3950  -31.7660   24.9300 C   0  0  1  0  0  0  0  0  0  0  0  0
  -25.3020  -31.4850   25.9870 C   0  0  0  0  0  1  0  0  0  0  0  0
  -27.0570  -30.4160   24.5800 C   0  0  0  0  0  1  0  0  0  0  0  0
  -27.4950  -32.6290   25.5950 C   0  0  0  0  0  1  0  0  0  0  0  0
  1 49  1  0
  2  1  1  0
  2  9  2  0
  3  4  1  0
  4  7  2  0
  5  3  2  0
  5  8  1  0
  6  7  1  0
  7  2  1  0
  8  6  2  0
 10  9  1  0
 10 19  1  0
 11 19  1  0
 12 17  1  0
 13 14  1  0
 13 12  1  0
 15 14  1  0
 15 24  1  0
 15 16  1  0
 17 11  1  0
 17 16  1  0
 18 11  2  0
 19 20  1  0
 21 22  2  0
 22 23  1  0
 22 41  1  0
 23 26  1  0
 24 21  1  0
 24 25  1  0
 25 23  2  0
 26 27  1  0
 27 28  2  0
 29 32  1  0
 29 28  1  0
 30 29  2  0
 31 30  1  0
 31 26  2  0
 32 33  1  0
 33 34  1  0
 34 35  2  0
 36 35  1  0
 36 40  1  0
 37 36  2  0
 38 33  2  0
 38 37  1  0
 39 38  1  0
 41 42  1  0
 42 45  1  0
 42 44  1  0
 43 41  2  0
 46 47  1  0
 46 21  1  0
 48 46  1  0
 50 61  2  0
 51 49  1  0
 51 56  1  0
 52 60  1  0
 52 62  1  0
 53 55  1  0
 54 60  1  0
 55 56  2  0
 55 54  1  0
 57 51  2  0
 58 57  1  0
 58 53  2  0
 59 53  1  0
 59 52  1  0
 60 50  1  0
 62 64  2  0
 63 62  1  0
 65 63  1  0
 66 75  2  0
 66 71  1  0
 67 63  1  0
 67 71  1  0
 68 67  1  0
 69 70  1  0
 69 68  1  0
 70 66  1  0
 71 72  2  0
 72 73  1  0
 74 73  2  0
 75 74  1  0
 76 50  1  0
 76 77  1  0
 76 86  1  0
 77 80  1  0
 78 82  1  0
 78 77  1  0
 79 78  2  0
 82 81  1  0
 82 84  1  0
 84 85  1  0
 84 83  1  0
 86 89  1  1
 86 87  1  0
 88 86  1  0
M  ISO  4   1 101  11 100  19 100  49 101
M  END
>  <TORSDO>  (72) 
F 18

>  <SCORE>  (72) 
-15.756

>  <name>  (72) 
71

>  <ligand_id>  (72) 
71

>  <original_smiles>  (72) 
[H]C(=NN([H])C(=O)N1C([H])([H])C([H])([H])C([H])([H])C([H])(n2nc(-c3c([H])c([H])c(Oc4c([H])c([H])c(F)c([H])c4F)c([H])c3[H])c(C(=O)N([H])[H])c2N([H])[H])C1([H])[H])C(=C([H])Oc1c([H])c([H])c2c(c1[H])C([H])([H])N(C(=O)C([H])(N([H])C(=O)C([H])(N([H])C([H])([H])[H])C([H])([H])[H])C(C([H])([H])[H])(C([H])([H])[H])C([H])([H])[H])C([H])(C(=O)N([H])C1([H])c3c([H])c([H])c([H])c([H])c3C([H])([H])C([H])([H])C1([H])[H])C2([H])[H])c1c([H])nc([H])c([H])c1[H]

>  <smiles>  (72) 
[H]C(=NN([H])C(=O)N1C([H])([H])C([H])([H])C([H])([H])C([H])(n2nc(-c3c([H])c([H])c(Oc4c([H])c([H])c(F)c([H])c4F)c([H])c3[H])c(C(=O)N([H])[H])c2N([H])[H])C1([H])[H])C(=C([H])Oc1c([H])c([H])c2c(c1[H])C([H])([H])N(C(=O)C([H])(N([H])C(=O)C([H])(N([H])C([H])([H])[H])C([H])([H])[H])C(C([H])([H])[H])(C([H])([H])[H])C([H])([H])[H])C([H])(C(=O)N([H])C1([H])c3c([H])c([H])c([H])c([H])c3C([H])([H])C([H])([H])C1([H])[H])C2([H])[H])c1c([H])nc([H])c([H])c1[H]

$$$$
72:0:0
     RDKit          3D

 93102  0  0  1  0  0  0  0  0999 V2000
  -28.8400  -24.1350   21.2200 C   0  0  0  0  0  0  0  0  0  0  0  0
  -29.1210  -23.5990   22.5450 C   0  0  0  0  0  0  0  0  0  0  0  0
  -29.0010  -22.9630   20.2940 C   0  0  0  0  0  0  0  0  0  0  0  0
  -28.5310  -25.5000   21.1170 C   0  0  0  0  0  3  0  0  0  0  0  0
  -29.5740  -22.1600   22.4300 C   0  0  0  0  0  2  0  0  0  0  0  0
  -29.3740  -21.8230   21.0200 N   0  0  0  0  0  0  0  0  0  0  0  0
  -29.0500  -24.1920   23.6290 O   0  0  0  0  0  0  0  0  0  0  0  0
  -28.8320  -22.9740   19.0700 O   0  0  0  0  0  0  0  0  0  0  0  0
  -28.5330  -19.5660   20.1170 C   0  0  0  0  0  3  0  0  0  0  0  0
  -30.7160  -19.6410   21.0760 C   0  0  0  0  0  3  0  0  0  0  0  0
  -28.6330  -18.1330   20.0540 C   0  0  0  0  0  3  0  0  0  0  0  0
  -30.8300  -18.2070   20.9840 C   0  0  0  0  0  3  0  0  0  0  0  0
  -29.5610  -20.3820   20.6640 C   0  0  0  0  0  0  0  0  0  0  0  0
  -29.7710  -17.3890   20.4990 C   0  0  0  0  0  0  0  0  0  0  0  0
  -30.5720  -14.8370   20.3900 C   0  0  0  0  0  0  0  0  0  0  0  0
  -30.4250  -12.5400   19.3940 C   0  0  0  0  0  2  0  0  0  0  0  0
  -29.4840  -12.5970   18.1680 C   0  0  0  0  0  2  0  0  0  0  0  0
  -28.0090  -12.4300   18.5910 C   0  0  0  0  0  2  0  0  0  0  0  0
  -27.6300  -13.3230   19.8030 C   0  0  0  0  0  3  0  0  0  0  0  0
  -28.6870  -13.2280   20.9270 C   0  0  0  0  0  2  0  0  0  0  0  0
  -29.9870  -13.5890   20.3400 N   0  0  0  0  0  0  0  0  0  0  0  0
  -31.7610  -14.9810   20.0870 O   0  0  0  0  0  0  0  0  0  0  0  0
  -29.6990  -15.9030   20.5570 N   0  0  0  0  0  0  0  0  0  0  0  0
  -28.7570  -15.5610   20.6560 H   0  0  0  0  0  0  0  0  0  0  0  0
  -25.2440  -13.9310   20.5310 C   0  0  0  0  0  0  0  0  0  0  0  0
  -24.1730  -13.1640   20.9010 C   0  0  0  0  0  0  0  0  0  0  0  0
  -24.6270  -11.8100   20.8640 C   0  0  0  0  0  0  0  0  0  0  0  0
  -26.2820  -13.0450   20.2900 N   0  0  0  0  0  0  0  0  0  0  0  0
  -25.9170  -11.7640   20.5530 N   0  0  0  0  0  0  0  0  0  0  0  0
  -23.8910  -10.5530   21.0480 C   0  0  0  0  0  0  0  0  0  0  0  0
  -24.3090   -9.5820   21.9850 C   0  0  0  0  0  3  0  0  0  0  0  0
  -23.5740   -8.3900   22.1550 C   0  0  0  0  0  3  0  0  0  0  0  0
  -22.4060   -8.1600   21.3890 C   0  0  0  0  0  0  0  0  0  0  0  0
  -22.0070   -9.1200   20.4430 C   0  0  0  0  0  3  0  0  0  0  0  0
  -22.7430  -10.3040   20.2700 C   0  0  0  0  0  3  0  0  0  0  0  0
  -21.6430   -7.0200   21.4690 O   0  0  0  0  0  0  0  0  0  0  0  0
  -21.5710   -6.2810   22.6240 C   0  0  0  0  0  0  0  0  0  0  0  0
  -21.1190   -6.8400   23.8390 C   0  0  0  0  0  3  0  0  0  0  0  0
  -20.9950   -6.0260   24.9840 C   0  0  0  0  0  3  0  0  0  0  0  0
  -21.3140   -4.6580   24.9140 C   0  0  0  0  0  0  0  0  0  0  0  0
  -21.7600   -4.0990   23.7040 C   0  0  0  0  0  3  0  0  0  0  0  0
  -21.8850   -4.9080   22.5610 C   0  0  0  0  0  0  0  0  0  0  0  0
  -22.2950   -4.3600   21.3910 F   0  0  0  0  0  0  0  0  0  0  0  0
  -21.1890   -3.8750   26.0110 F   0  0  0  0  0  0  0  0  0  0  0  0
  -22.7800  -13.6510   21.1720 C   0  0  0  0  0  0  0  0  0  0  0  0
  -22.0420  -12.9580   22.0320 N   0  0  0  0  0  0  0  0  0  0  0  0
  -22.3520  -14.6840   20.6570 O   0  0  0  0  0  0  0  0  0  0  0  0
  -22.3990  -12.1240   22.4730 H   0  0  0  0  0  0  0  0  0  0  0  0
  -21.1080  -13.2700   22.2540 H   0  0  0  0  0  0  0  0  0  0  0  0
  -25.4150  -15.3020   20.3550 N   0  0  0  0  0  0  0  0  0  0  0  0
  -24.6410  -15.9500   20.4530 H   0  0  0  0  0  0  0  0  0  0  0  0
  -26.2400  -15.7320   19.9620 H   0  0  0  0  0  0  0  0  0  0  0  0
  -28.3410  -26.4290   20.0700 O   0  0  0  0  0  0  0  0  0  0  0  0
  -24.6600  -31.9010   23.2320 C   0  0  0  0  0  0  0  0  0  0  0  0
  -27.2620  -27.3370   20.1350 C   0  0  0  0  0  0  0  0  0  0  0  0
  -23.4480  -30.5030   21.5980 C   0  0  0  0  0  3  0  0  0  0  0  0
  -24.8960  -28.9610   20.1520 C   0  0  0  0  0  0  0  0  0  0  0  0
  -25.9880  -30.8250   21.3960 C   0  0  0  0  0  2  0  0  0  0  0  0
  -26.0710  -29.4450   20.7460 C   0  0  0  0  0  0  0  0  0  0  0  0
  -27.2600  -28.6440   20.7300 C   0  0  0  0  0  3  0  0  0  0  0  0
  -26.0670  -26.9160   19.5200 C   0  0  0  0  0  3  0  0  0  0  0  0
  -24.8970  -27.7020   19.5310 C   0  0  0  0  0  3  0  0  0  0  0  0
  -23.6540  -29.8330   20.2150 C   0  0  0  0  0  2  0  0  0  0  0  0
  -24.7180  -31.0950   22.1310 N   0  0  0  0  0  0  0  0  0  0  0  0
  -23.5800  -32.1710   23.7790 O   0  0  0  0  0  0  0  0  0  0  0  0
  -22.7970  -29.4810   22.5610 C   0  0  0  0  0  0  0  0  0  0  0  0
  -21.4710  -29.2950   22.4450 N   0  0  0  0  0  0  0  0  0  0  0  0
  -23.4870  -28.8580   23.3720 O   0  0  0  0  0  0  0  0  0  0  0  0
  -20.9730  -29.8500   21.7630 H   0  0  0  0  0  0  0  0  0  0  0  0
  -18.1100  -28.0540   22.9560 C   0  0  0  0  0  0  0  0  0  0  0  0
  -20.6650  -28.3480   23.2190 C   0  0  0  0  0  3  0  0  0  0  0  0
  -20.7840  -26.9170   22.6480 C   0  0  0  0  0  2  0  0  0  0  0  0
  -19.6860  -26.5770   21.6360 C   0  0  0  0  0  2  0  0  0  0  0  0
  -18.3030  -26.7070   22.2810 C   0  0  0  0  0  2  0  0  0  0  0  0
  -19.2190  -28.8330   23.3810 C   0  0  0  0  0  0  0  0  0  0  0  0
  -18.9840  -30.0940   23.9710 C   0  0  0  0  0  3  0  0  0  0  0  0
  -17.6730  -30.5770   24.1400 C   0  0  0  0  0  3  0  0  0  0  0  0
  -16.5780  -29.7960   23.7300 C   0  0  0  0  0  3  0  0  0  0  0  0
  -16.7970  -28.5360   23.1440 C   0  0  0  0  0  3  0  0  0  0  0  0
  -25.9450  -32.5380   23.8450 C   0  0  0  0  0  3  0  0  0  0  0  0
  -25.6320  -33.9330   24.1870 N   0  0  0  0  0  0  0  0  0  0  0  0
  -25.9410  -34.9920   23.4260 C   0  0  0  0  0  0  0  0  0  0  0  0
  -26.5900  -34.8980   22.3800 O   0  0  0  0  0  0  0  0  0  0  0  0
  -25.0530  -34.0800   25.0000 H   0  0  0  0  0  0  0  0  0  0  0  0
  -24.1950  -36.7760   23.1160 C   0  0  0  0  0  1  0  0  0  0  0  0
  -25.4540  -36.3750   23.9000 C   0  0  0  0  0  3  0  0  0  0  0  0
  -27.5970  -37.2720   24.6960 C   0  0  0  0  0  1  0  0  0  0  0  0
  -26.4770  -37.4360   23.7720 N   0  0  0  0  0  0  0  0  0  0  0  0
  -26.0680  -38.3530   23.9300 H   0  0  0  0  0  0  0  0  0  0  0  0
  -26.4770  -31.7640   25.1130 C   0  0  1  0  0  0  0  0  0  0  0  0
  -25.3950  -31.5180   26.1910 C   0  0  0  0  0  1  0  0  0  0  0  0
  -27.0620  -30.3900   24.7130 C   0  0  0  0  0  1  0  0  0  0  0  0
  -27.6310  -32.5610   25.7660 C   0  0  0  0  0  1  0  0  0  0  0  0
  1  2  1  0
  2  7  2  0
  3  6  1  0
  3  1  1  0
  4  1  2  0
  5  2  1  0
  6  5  1  0
  8  3  2  0
  9 13  1  0
 11  9  2  0
 11 14  1  0
 12 10  1  0
 13  6  1  0
 13 10  2  0
 14 23  1  0
 14 12  2  0
 15 23  1  0
 16 21  1  0
 17 18  1  0
 17 16  1  0
 19 18  1  0
 19 28  1  0
 19 20  1  0
 21 15  1  0
 21 20  1  0
 22 15  2  0
 23 24  1  0
 25 26  2  0
 26 45  1  0
 27 26  1  0
 27 30  1  0
 28 25  1  0
 28 29  1  0
 29 27  2  0
 30 31  1  0
 31 32  2  0
 33 36  1  0
 33 32  1  0
 34 33  2  0
 35 34  1  0
 35 30  2  0
 36 37  1  0
 37 38  1  0
 38 39  2  0
 40 39  1  0
 40 44  1  0
 41 40  2  0
 42 37  2  0
 42 41  1  0
 43 42  1  0
 45 46  1  0
 46 49  1  0
 46 48  1  0
 47 45  2  0
 50 51  1  0
 50 25  1  0
 52 50  1  0
 53 55  1  0
 53  4  1  0
 54 65  2  0
 55 60  1  0
 56 64  1  0
 56 66  1  0
 57 63  1  0
 57 59  1  0
 58 64  1  0
 59 58  1  0
 60 59  2  0
 61 62  1  0
 61 55  2  0
 62 57  2  0
 63 56  1  0
 64 54  1  0
 66 68  2  0
 67 66  1  0
 69 67  1  0
 70 79  2  0
 70 75  1  0
 71 67  1  0
 71 75  1  0
 72 71  1  0
 73 74  1  0
 73 72  1  0
 74 70  1  0
 75 76  2  0
 76 77  1  0
 78 77  2  0
 79 78  1  0
 80 54  1  0
 80 81  1  0
 80 90  1  0
 81 84  1  0
 82 86  1  0
 82 81  1  0
 83 82  2  0
 86 85  1  0
 88 86  1  0
 88 89  1  0
 88 87  1  0
 90 93  1  1
 90 91  1  0
 92 90  1  0
M  ISO  4   4 101  15 100  23 100  53 101
M  END
>  <TORSDO>  (73) 
F 17

>  <SCORE>  (73) 
-15.267

>  <name>  (73) 
72

>  <ligand_id>  (73) 
72

>  <original_smiles>  (73) 
[H]C(Oc1c([H])c([H])c2c(c1[H])C([H])([H])N(C(=O)C([H])(N([H])C(=O)C([H])(N([H])C([H])([H])[H])C([H])([H])[H])C(C([H])([H])[H])(C([H])([H])[H])C([H])([H])[H])C([H])(C(=O)N([H])C1([H])c3c([H])c([H])c([H])c([H])c3C([H])([H])C([H])([H])C1([H])[H])C2([H])[H])=C1C(=O)N(c2c([H])c([H])c(N([H])C(=O)N3C([H])([H])C([H])([H])C([H])([H])C([H])(n4nc(-c5c([H])c([H])c(Oc6c([H])c([H])c(F)c([H])c6F)c([H])c5[H])c(C(=O)N([H])[H])c4N([H])[H])C3([H])[H])c([H])c2[H])C([H])([H])C1=O

>  <smiles>  (73) 
[H]C(Oc1c([H])c([H])c2c(c1[H])C([H])([H])N(C(=O)C([H])(N([H])C(=O)C([H])(N([H])C([H])([H])[H])C([H])([H])[H])C(C([H])([H])[H])(C([H])([H])[H])C([H])([H])[H])C([H])(C(=O)N([H])C1([H])c3c([H])c([H])c([H])c([H])c3C([H])([H])C([H])([H])C1([H])[H])C2([H])[H])=C1C(=O)N(c2c([H])c([H])c(N([H])C(=O)N3C([H])([H])C([H])([H])C([H])([H])C([H])(n4nc(-c5c([H])c([H])c(Oc6c([H])c([H])c(F)c([H])c6F)c([H])c5[H])c(C(=O)N([H])[H])c4N([H])[H])C3([H])[H])c([H])c2[H])C([H])([H])C1=O

$$$$
73:0:0
     RDKit          3D

 95104  0  0  1  0  0  0  0  0999 V2000
  -29.1360  -23.5890   18.6160 C   0  0  0  0  0  3  0  0  0  0  0  0
  -28.9870  -22.5530   20.5700 C   0  0  0  0  0  3  0  0  0  0  0  0
  -28.7900  -23.8050   19.9840 C   0  0  0  0  0  0  0  0  0  0  0  0
  -29.4840  -22.2690   18.4440 C   0  0  0  0  0  0  0  0  0  0  0  0
  -29.4040  -21.5680   19.6460 N   0  0  0  0  0  0  0  0  0  0  0  0
  -30.9840  -18.0320   19.4840 C   0  0  0  0  0  3  0  0  0  0  0  0
  -30.7260  -19.4230   19.2480 C   0  0  0  0  0  3  0  0  0  0  0  0
  -29.1200  -17.9700   20.9820 C   0  0  0  0  0  3  0  0  0  0  0  0
  -30.1980  -17.2520   20.3780 C   0  0  0  0  0  0  0  0  0  0  0  0
  -29.6630  -20.1360   19.8820 C   0  0  0  0  0  0  0  0  0  0  0  0
  -28.8570  -19.3520   20.7530 C   0  0  0  0  0  0  0  0  0  0  0  0
  -27.8010  -19.9180   21.3930 F   0  0  0  0  0  0  0  0  0  0  0  0
  -30.4870  -15.7950   20.8230 C   0  0  0  0  0  0  0  0  0  0  0  0
  -30.3730  -15.5280   22.0600 N   0  0  0  0  0  0  0  0  0  0  0  0
  -30.1020  -16.3470   22.5880 H   0  0  0  0  0  0  0  0  0  0  0  0
  -30.9700  -14.6650   19.8350 C   0  0  0  0  0  0  0  0  0  0  0  0
  -30.5570  -12.4880   18.6860 C   0  0  0  0  0  2  0  0  0  0  0  0
  -29.5110  -12.6810   17.5660 C   0  0  0  0  0  2  0  0  0  0  0  0
  -28.0830  -12.5170   18.1230 C   0  0  0  0  0  2  0  0  0  0  0  0
  -27.8650  -13.3370   19.4200 C   0  0  0  0  0  3  0  0  0  0  0  0
  -29.0150  -13.1130   20.4250 C   0  0  0  0  0  2  0  0  0  0  0  0
  -30.2790  -13.4720   19.7580 N   0  0  0  0  0  0  0  0  0  0  0  0
  -31.9960  -14.8400   19.1670 O   0  0  0  0  0  0  0  0  0  0  0  0
  -25.5980  -13.9630   20.4490 C   0  0  0  0  0  0  0  0  0  0  0  0
  -24.5390  -13.2060   20.8640 C   0  0  0  0  0  0  0  0  0  0  0  0
  -24.9210  -11.8430   20.6560 C   0  0  0  0  0  0  0  0  0  0  0  0
  -26.5620  -13.0650   20.0180 N   0  0  0  0  0  0  0  0  0  0  0  0
  -26.1670  -11.7800   20.2010 N   0  0  0  0  0  0  0  0  0  0  0  0
  -24.1550  -10.6020   20.8120 C   0  0  0  0  0  0  0  0  0  0  0  0
  -24.6040   -9.5570   21.6490 C   0  0  0  0  0  3  0  0  0  0  0  0
  -23.8420   -8.3780   21.7960 C   0  0  0  0  0  3  0  0  0  0  0  0
  -22.6140   -8.2370   21.1050 C   0  0  0  0  0  0  0  0  0  0  0  0
  -22.1840   -9.2700   20.2540 C   0  0  0  0  0  3  0  0  0  0  0  0
  -22.9460  -10.4410   20.1050 C   0  0  0  0  0  3  0  0  0  0  0  0
  -21.8200   -7.1190   21.1670 O   0  0  0  0  0  0  0  0  0  0  0  0
  -21.7700   -6.3300   22.2890 C   0  0  0  0  0  0  0  0  0  0  0  0
  -21.3960   -6.8480   23.5490 C   0  0  0  0  0  3  0  0  0  0  0  0
  -21.2920   -5.9880   24.6610 C   0  0  0  0  0  3  0  0  0  0  0  0
  -21.5510   -4.6130   24.5150 C   0  0  0  0  0  0  0  0  0  0  0  0
  -21.9170   -4.0940   23.2600 C   0  0  0  0  0  3  0  0  0  0  0  0
  -22.0240   -4.9510   22.1510 C   0  0  0  0  0  0  0  0  0  0  0  0
  -22.3560   -4.4420   20.9400 F   0  0  0  0  0  0  0  0  0  0  0  0
  -21.4450   -3.7870   25.5820 F   0  0  0  0  0  0  0  0  0  0  0  0
  -23.2070  -13.7100   21.3380 C   0  0  0  0  0  0  0  0  0  0  0  0
  -22.5520  -12.9740   22.2280 N   0  0  0  0  0  0  0  0  0  0  0  0
  -22.7620  -14.7910   20.9540 O   0  0  0  0  0  0  0  0  0  0  0  0
  -22.9280  -12.0960   22.5550 H   0  0  0  0  0  0  0  0  0  0  0  0
  -21.6600  -13.2870   22.5830 H   0  0  0  0  0  0  0  0  0  0  0  0
  -25.8200  -15.3370   20.3810 N   0  0  0  0  0  0  0  0  0  0  0  0
  -25.1110  -16.0180   20.6250 H   0  0  0  0  0  0  0  0  0  0  0  0
  -26.6620  -15.7570   20.0070 H   0  0  0  0  0  0  0  0  0  0  0  0
  -29.8370  -21.6430   17.2890 O   0  0  0  0  0  0  0  0  0  0  0  0
  -29.8000  -22.2830   16.5840 H   0  0  0  0  0  0  0  0  0  0  0  0
  -28.2470  -25.1060   20.6840 C   0  0  0  0  0  2  0  0  0  0  0  0
  -28.4330  -26.4450   20.0860 O   0  0  0  0  0  0  0  0  0  0  0  0
  -24.5570  -31.7760   23.0820 C   0  0  0  0  0  0  0  0  0  0  0  0
  -27.3040  -27.2730   20.0760 C   0  0  0  0  0  0  0  0  0  0  0  0
  -23.4010  -30.3450   21.4380 C   0  0  0  0  0  3  0  0  0  0  0  0
  -24.9000  -28.8140   20.0400 C   0  0  0  0  0  0  0  0  0  0  0  0
  -25.9310  -30.7250   21.2670 C   0  0  0  0  0  2  0  0  0  0  0  0
  -26.0530  -29.3430   20.6370 C   0  0  0  0  0  0  0  0  0  0  0  0
  -27.2620  -28.5850   20.6410 C   0  0  0  0  0  3  0  0  0  0  0  0
  -26.1280  -26.7870   19.4650 C   0  0  0  0  0  3  0  0  0  0  0  0
  -24.9380  -27.5400   19.4480 C   0  0  0  0  0  3  0  0  0  0  0  0
  -23.6410  -29.6600   20.0670 C   0  0  0  0  0  2  0  0  0  0  0  0
  -24.6510  -30.9650   21.9880 N   0  0  0  0  0  0  0  0  0  0  0  0
  -23.4630  -32.0340   23.6040 O   0  0  0  0  0  0  0  0  0  0  0  0
  -22.7490  -29.3230   22.3980 C   0  0  0  0  0  0  0  0  0  0  0  0
  -21.4210  -29.1530   22.2870 N   0  0  0  0  0  0  0  0  0  0  0  0
  -23.4380  -28.6880   23.2010 O   0  0  0  0  0  0  0  0  0  0  0  0
  -20.9290  -29.7130   21.6050 H   0  0  0  0  0  0  0  0  0  0  0  0
  -18.0410  -27.9950   22.8550 C   0  0  0  0  0  0  0  0  0  0  0  0
  -20.6100  -28.2110   23.0590 C   0  0  0  0  0  3  0  0  0  0  0  0
  -20.6730  -26.7910   22.4480 C   0  0  0  0  0  2  0  0  0  0  0  0
  -19.5350  -26.5080   21.4600 C   0  0  0  0  0  2  0  0  0  0  0  0
  -18.1740  -26.6580   22.1450 C   0  0  0  0  0  2  0  0  0  0  0  0
  -19.1840  -28.7310   23.2680 C   0  0  0  0  0  0  0  0  0  0  0  0
  -19.0020  -29.9850   23.8930 C   0  0  0  0  0  3  0  0  0  0  0  0
  -17.7090  -30.5000   24.1130 C   0  0  0  0  0  3  0  0  0  0  0  0
  -16.5820  -29.7610   23.7130 C   0  0  0  0  0  3  0  0  0  0  0  0
  -16.7480  -28.5120   23.0900 C   0  0  0  0  0  3  0  0  0  0  0  0
  -25.8190  -32.4390   23.7150 C   0  0  0  0  0  3  0  0  0  0  0  0
  -26.3660  -31.6570   24.9720 C   0  0  1  0  0  0  0  0  0  0  0  0
  -25.2870  -31.3480   26.0380 C   0  0  0  0  0  1  0  0  0  0  0  0
  -27.0010  -30.3130   24.5450 C   0  0  0  0  0  1  0  0  0  0  0  0
  -27.4880  -32.4790   25.6480 C   0  0  0  0  0  1  0  0  0  0  0  0
  -25.4590  -33.8170   24.0790 N   0  0  0  0  0  0  0  0  0  0  0  0
  -25.7460  -34.9000   23.3430 C   0  0  0  0  0  0  0  0  0  0  0  0
  -26.4110  -34.8460   22.3050 O   0  0  0  0  0  0  0  0  0  0  0  0
  -24.8640  -33.9290   24.8870 H   0  0  0  0  0  0  0  0  0  0  0  0
  -23.9490  -36.6390   23.0490 C   0  0  0  0  0  1  0  0  0  0  0  0
  -25.2120  -36.2580   23.8370 C   0  0  0  0  0  3  0  0  0  0  0  0
  -27.3170  -37.2010   24.6750 C   0  0  0  0  0  1  0  0  0  0  0  0
  -26.2030  -37.3510   23.7430 N   0  0  0  0  0  0  0  0  0  0  0  0
  -25.7640  -38.2500   23.9170 H   0  0  0  0  0  0  0  0  0  0  0  0
  1  3  1  0
  3  2  2  0
  3 54  1  0
  4  1  2  0
  4  5  1  0
  5 10  1  0
  5  2  1  0
  6  9  1  0
  7  6  2  0
  7 10  1  0
  9 13  1  0
  9  8  2  0
 10 11  2  0
 11  8  1  0
 11 12  1  0
 13 14  2  0
 14 15  1  0
 16 13  1  0
 17 22  1  0
 18 19  1  0
 18 17  1  0
 20 19  1  0
 20 27  1  0
 20 21  1  0
 22 16  1  0
 22 21  1  0
 23 16  2  0
 24 25  2  0
 25 44  1  0
 26 29  1  0
 26 25  1  0
 27 28  1  0
 27 24  1  0
 28 26  2  0
 29 30  1  0
 30 31  2  0
 32 35  1  0
 32 31  1  0
 33 32  2  0
 34 33  1  0
 34 29  2  0
 35 36  1  0
 36 37  1  0
 37 38  2  0
 39 38  1  0
 39 43  1  0
 40 39  2  0
 41 36  2  0
 41 40  1  0
 42 41  1  0
 44 45  1  0
 45 47  1  0
 45 48  1  0
 46 44  2  0
 49 24  1  0
 49 50  1  0
 51 49  1  0
 52  4  1  0
 53 52  1  0
 55 54  1  0
 56 67  2  0
 57 55  1  0
 57 62  1  0
 58 66  1  0
 58 68  1  0
 59 65  1  0
 59 61  1  0
 60 66  1  0
 61 62  2  0
 61 60  1  0
 63 57  2  0
 64 63  1  0
 64 59  2  0
 65 58  1  0
 66 56  1  0
 68 70  2  0
 69 68  1  0
 71 69  1  0
 72 81  2  0
 72 77  1  0
 73 69  1  0
 73 77  1  0
 74 73  1  0
 75 76  1  0
 75 74  1  0
 76 72  1  0
 77 78  2  0
 78 79  1  0
 80 79  2  0
 81 80  1  0
 82 56  1  0
 82 87  1  0
 82 83  1  0
 83 86  1  1
 83 84  1  0
 85 83  1  0
 87 90  1  0
 88 92  1  0
 88 87  1  0
 89 88  2  0
 92 91  1  0
 94 92  1  0
 94 95  1  0
 94 93  1  0
M  ISO  4  13 100  16 100  54 101  55 101
M  END
>  <TORSDO>  (74) 
F 20

>  <SCORE>  (74) 
-12.858

>  <name>  (74) 
73

>  <ligand_id>  (74) 
73

>  <original_smiles>  (74) 
[H]N=C(C(=O)N1C([H])([H])C([H])([H])C([H])([H])C([H])(n2nc(-c3c([H])c([H])c(Oc4c([H])c([H])c(F)c([H])c4F)c([H])c3[H])c(C(=O)N([H])[H])c2N([H])[H])C1([H])[H])c1c([H])c([H])c(-n2c([H])c(C([H])([H])Oc3c([H])c([H])c4c(c3[H])C([H])([H])N(C(=O)C([H])(N([H])C(=O)C([H])(N([H])C([H])([H])[H])C([H])([H])[H])C(C([H])([H])[H])(C([H])([H])[H])C([H])([H])[H])C([H])(C(=O)N([H])C3([H])c5c([H])c([H])c([H])c([H])c5C([H])([H])C([H])([H])C3([H])[H])C4([H])[H])c([H])c2O[H])c(F)c1[H]

>  <smiles>  (74) 
[H]N=C(C(=O)N1C([H])([H])C([H])([H])C([H])([H])C([H])(n2nc(-c3c([H])c([H])c(Oc4c([H])c([H])c(F)c([H])c4F)c([H])c3[H])c(C(=O)N([H])[H])c2N([H])[H])C1([H])[H])c1c([H])c([H])c(-n2c([H])c(C([H])([H])Oc3c([H])c([H])c4c(c3[H])C([H])([H])N(C(=O)C([H])(N([H])C(=O)C([H])(N([H])C([H])([H])[H])C([H])([H])[H])C(C([H])([H])[H])(C([H])([H])[H])C([H])([H])[H])C([H])(C(=O)N([H])C3([H])c5c([H])c([H])c([H])c([H])c5C([H])([H])C([H])([H])C3([H])[H])C4([H])[H])c([H])c2O[H])c(F)c1[H]

$$$$
74:0:0
     RDKit          3D

 93102  0  0  1  0  0  0  0  0999 V2000
  -28.5840  -23.8010   20.3710 C   0  0  0  0  0  0  0  0  0  0  0  0
  -28.0430  -22.5610   20.9190 C   0  0  0  0  0  0  0  0  0  0  0  0
  -28.0600  -25.0850   20.5310 C   0  0  0  0  0  3  0  0  0  0  0  0
  -29.7240  -22.9680   19.7100 C   0  0  0  0  0  2  0  0  0  0  0  0
  -29.0630  -21.7820   20.3370 N   0  0  0  0  0  0  0  0  0  0  0  0
  -27.0620  -22.3560   21.6020 O   0  0  0  0  0  0  0  0  0  0  0  0
  -28.5250  -19.3430   20.7710 C   0  0  0  0  0  3  0  0  0  0  0  0
  -30.8540  -18.2820   19.7180 C   0  0  0  0  0  3  0  0  0  0  0  0
  -29.4220  -20.3300   20.2620 C   0  0  0  0  0  0  0  0  0  0  0  0
  -29.9210  -17.3350   20.2360 C   0  0  0  0  0  0  0  0  0  0  0  0
  -28.7490  -17.9310   20.7600 C   0  0  0  0  0  0  0  0  0  0  0  0
  -30.6080  -19.7100   19.7310 C   0  0  0  0  0  0  0  0  0  0  0  0
  -27.7920  -17.1160   21.2680 F   0  0  0  0  0  0  0  0  0  0  0  0
  -31.5620  -20.5180   19.2080 F   0  0  0  0  0  0  0  0  0  0  0  0
  -30.7610  -14.8440   19.7240 C   0  0  0  0  0  0  0  0  0  0  0  0
  -30.5020  -12.6160   18.6050 C   0  0  0  0  0  2  0  0  0  0  0  0
  -29.4200  -12.7470   17.5070 C   0  0  0  0  0  2  0  0  0  0  0  0
  -28.0080  -12.5400   18.0900 C   0  0  0  0  0  2  0  0  0  0  0  0
  -27.7780  -13.3510   19.3930 C   0  0  0  0  0  3  0  0  0  0  0  0
  -28.9590  -13.1790   20.3760 C   0  0  0  0  0  2  0  0  0  0  0  0
  -30.1840  -13.5920   19.6720 N   0  0  0  0  0  0  0  0  0  0  0  0
  -31.8600  -15.0470   19.2010 O   0  0  0  0  0  0  0  0  0  0  0  0
  -29.9820  -15.8480   20.2650 N   0  0  0  0  0  0  0  0  0  0  0  0
  -29.1830  -15.4610   20.7440 H   0  0  0  0  0  0  0  0  0  0  0  0
  -25.5050  -13.8970   20.4560 C   0  0  0  0  0  0  0  0  0  0  0  0
  -24.4750  -13.1030   20.8800 C   0  0  0  0  0  0  0  0  0  0  0  0
  -24.9010  -11.7570   20.6640 C   0  0  0  0  0  0  0  0  0  0  0  0
  -26.4950  -13.0350   20.0120 N   0  0  0  0  0  0  0  0  0  0  0  0
  -26.1430  -11.7350   20.1950 N   0  0  0  0  0  0  0  0  0  0  0  0
  -24.1750  -10.4890   20.8230 C   0  0  0  0  0  0  0  0  0  0  0  0
  -24.6420   -9.4740   21.6860 C   0  0  0  0  0  3  0  0  0  0  0  0
  -23.9160   -8.2710   21.8350 C   0  0  0  0  0  3  0  0  0  0  0  0
  -22.7100   -8.0770   21.1210 C   0  0  0  0  0  0  0  0  0  0  0  0
  -22.2620   -9.0830   20.2450 C   0  0  0  0  0  3  0  0  0  0  0  0
  -22.9880  -10.2750   20.0940 C   0  0  0  0  0  3  0  0  0  0  0  0
  -21.9530   -6.9330   21.1830 O   0  0  0  0  0  0  0  0  0  0  0  0
  -21.8820   -6.1780   22.3270 C   0  0  0  0  0  0  0  0  0  0  0  0
  -21.4270   -6.7190   23.5490 C   0  0  0  0  0  3  0  0  0  0  0  0
  -21.3030   -5.8910   24.6820 C   0  0  0  0  0  3  0  0  0  0  0  0
  -21.6250   -4.5230   24.5940 C   0  0  0  0  0  0  0  0  0  0  0  0
  -22.0730   -3.9810   23.3760 C   0  0  0  0  0  3  0  0  0  0  0  0
  -22.1980   -4.8070   22.2450 C   0  0  0  0  0  0  0  0  0  0  0  0
  -22.6100   -4.2760   21.0690 F   0  0  0  0  0  0  0  0  0  0  0  0
  -21.4990   -3.7260   25.6810 F   0  0  0  0  0  0  0  0  0  0  0  0
  -23.1330  -13.5660   21.3680 C   0  0  0  0  0  0  0  0  0  0  0  0
  -22.5090  -12.8050   22.2620 N   0  0  0  0  0  0  0  0  0  0  0  0
  -22.6500  -14.6340   20.9950 O   0  0  0  0  0  0  0  0  0  0  0  0
  -22.9140  -11.9390   22.5840 H   0  0  0  0  0  0  0  0  0  0  0  0
  -21.6140  -13.0950   22.6290 H   0  0  0  0  0  0  0  0  0  0  0  0
  -25.6750  -15.2770   20.3910 N   0  0  0  0  0  0  0  0  0  0  0  0
  -24.9520  -15.9250   20.6820 H   0  0  0  0  0  0  0  0  0  0  0  0
  -26.5070  -15.7430   20.0510 H   0  0  0  0  0  0  0  0  0  0  0  0
  -28.4030  -26.3970   20.0820 O   0  0  0  0  0  0  0  0  0  0  0  0
  -24.7480  -31.8800   23.1770 C   0  0  0  0  0  0  0  0  0  0  0  0
  -27.3450  -27.3360   20.0460 C   0  0  0  0  0  0  0  0  0  0  0  0
  -23.5380  -30.4980   21.5290 C   0  0  0  0  0  3  0  0  0  0  0  0
  -24.9860  -28.9720   20.0660 C   0  0  0  0  0  0  0  0  0  0  0  0
  -26.0780  -30.8180   21.3350 C   0  0  0  0  0  2  0  0  0  0  0  0
  -26.1600  -29.4450   20.6670 C   0  0  0  0  0  0  0  0  0  0  0  0
  -27.3460  -28.6390   20.6500 C   0  0  0  0  0  3  0  0  0  0  0  0
  -26.1520  -26.9360   19.4080 C   0  0  0  0  0  3  0  0  0  0  0  0
  -24.9860  -27.7240   19.4250 C   0  0  0  0  0  3  0  0  0  0  0  0
  -23.7460  -29.8440   20.1370 C   0  0  0  0  0  2  0  0  0  0  0  0
  -24.8080  -31.0820   22.0700 N   0  0  0  0  0  0  0  0  0  0  0  0
  -23.6670  -32.1470   23.7230 O   0  0  0  0  0  0  0  0  0  0  0  0
  -22.8830  -29.4680   22.4810 C   0  0  0  0  0  0  0  0  0  0  0  0
  -21.5530  -29.3000   22.3710 N   0  0  0  0  0  0  0  0  0  0  0  0
  -23.5690  -28.8260   23.2790 O   0  0  0  0  0  0  0  0  0  0  0  0
  -21.0570  -29.8690   21.7010 H   0  0  0  0  0  0  0  0  0  0  0  0
  -18.1770  -28.1120   22.9120 C   0  0  0  0  0  0  0  0  0  0  0  0
  -20.7420  -28.3510   23.1390 C   0  0  0  0  0  3  0  0  0  0  0  0
  -20.8240  -26.9300   22.5340 C   0  0  0  0  0  2  0  0  0  0  0  0
  -19.7010  -26.6350   21.5340 C   0  0  0  0  0  2  0  0  0  0  0  0
  -18.3330  -26.7760   22.2070 C   0  0  0  0  0  2  0  0  0  0  0  0
  -19.3090  -28.8590   23.3360 C   0  0  0  0  0  0  0  0  0  0  0  0
  -19.1090  -30.1100   23.9580 C   0  0  0  0  0  3  0  0  0  0  0  0
  -17.8090  -30.6150   24.1590 C   0  0  0  0  0  3  0  0  0  0  0  0
  -16.6940  -29.8660   23.7510 C   0  0  0  0  0  3  0  0  0  0  0  0
  -16.8780  -28.6150   23.1330 C   0  0  0  0  0  3  0  0  0  0  0  0
  -26.0320  -32.5090   23.7980 C   0  0  0  0  0  3  0  0  0  0  0  0
  -25.7130  -33.8960   24.1680 N   0  0  0  0  0  0  0  0  0  0  0  0
  -26.0300  -34.9730   23.4380 C   0  0  0  0  0  0  0  0  0  0  0  0
  -26.6910  -34.9050   22.3980 O   0  0  0  0  0  0  0  0  0  0  0  0
  -25.1240  -34.0220   24.9790 H   0  0  0  0  0  0  0  0  0  0  0  0
  -24.2960  -36.7720   23.1420 C   0  0  0  0  0  1  0  0  0  0  0  0
  -25.5380  -36.3450   23.9410 C   0  0  0  0  0  3  0  0  0  0  0  0
  -27.6660  -37.2130   24.8050 C   0  0  0  0  0  1  0  0  0  0  0  0
  -26.5660  -37.4050   23.8620 N   0  0  0  0  0  0  0  0  0  0  0  0
  -26.1560  -38.3180   24.0340 H   0  0  0  0  0  0  0  0  0  0  0  0
  -26.5730  -31.7120   25.0480 C   0  0  1  0  0  0  0  0  0  0  0  0
  -25.4960  -31.4350   26.1230 C   0  0  0  0  0  1  0  0  0  0  0  0
  -27.1670  -30.3520   24.6160 C   0  0  0  0  0  1  0  0  0  0  0  0
  -27.7230  -32.5030   25.7170 C   0  0  0  0  0  1  0  0  0  0  0  0
  1  3  2  0
  1  2  1  0
  2  6  2  0
  4  5  1  0
  4  1  1  0
  5  2  1  0
  8 12  2  0
  8 10  1  0
  9  5  1  0
  9  7  2  0
 10 23  1  0
 10 11  2  0
 11  7  1  0
 11 13  1  0
 12  9  1  0
 14 12  1  0
 15 23  1  0
 16 21  1  0
 17 18  1  0
 17 16  1  0
 19 18  1  0
 19 28  1  0
 19 20  1  0
 21 15  1  0
 21 20  1  0
 22 15  2  0
 23 24  1  0
 25 26  2  0
 26 45  1  0
 27 30  1  0
 27 26  1  0
 28 29  1  0
 28 25  1  0
 29 27  2  0
 30 31  1  0
 31 32  2  0
 33 36  1  0
 33 32  1  0
 34 33  2  0
 35 34  1  0
 35 30  2  0
 36 37  1  0
 37 38  1  0
 38 39  2  0
 40 39  1  0
 40 44  1  0
 41 40  2  0
 42 37  2  0
 42 41  1  0
 43 42  1  0
 45 46  1  0
 46 48  1  0
 46 49  1  0
 47 45  2  0
 50 25  1  0
 50 51  1  0
 52 50  1  0
 53  3  1  0
 54 65  2  0
 55 53  1  0
 55 60  1  0
 56 64  1  0
 56 66  1  0
 57 63  1  0
 57 59  1  0
 58 64  1  0
 59 58  1  0
 60 59  2  0
 61 62  1  0
 61 55  2  0
 62 57  2  0
 63 56  1  0
 64 54  1  0
 66 68  2  0
 67 66  1  0
 69 67  1  0
 70 79  2  0
 70 75  1  0
 71 67  1  0
 71 75  1  0
 72 71  1  0
 73 74  1  0
 73 72  1  0
 74 70  1  0
 75 76  2  0
 76 77  1  0
 78 77  2  0
 79 78  1  0
 80 54  1  0
 80 81  1  0
 80 90  1  0
 81 84  1  0
 82 86  1  0
 82 81  1  0
 83 82  2  0
 86 85  1  0
 88 86  1  0
 88 89  1  0
 88 87  1  0
 90 93  1  1
 90 91  1  0
 92 90  1  0
M  ISO  4   3 101  15 100  23 100  53 101
M  END
>  <TORSDO>  (75) 
F 17

>  <SCORE>  (75) 
-13.563

>  <name>  (75) 
74

>  <ligand_id>  (75) 
74

>  <original_smiles>  (75) 
[H]C(Oc1c([H])c([H])c2c(c1[H])C([H])([H])N(C(=O)C([H])(N([H])C(=O)C([H])(N([H])C([H])([H])[H])C([H])([H])[H])C(C([H])([H])[H])(C([H])([H])[H])C([H])([H])[H])C([H])(C(=O)N([H])C1([H])c3c([H])c([H])c([H])c([H])c3C([H])([H])C([H])([H])C1([H])[H])C2([H])[H])=C1C(=O)N(c2c([H])c(F)c(N([H])C(=O)N3C([H])([H])C([H])([H])C([H])([H])C([H])(n4nc(-c5c([H])c([H])c(Oc6c([H])c([H])c(F)c([H])c6F)c([H])c5[H])c(C(=O)N([H])[H])c4N([H])[H])C3([H])[H])c([H])c2F)C1([H])[H]

>  <smiles>  (75) 
[H]C(Oc1c([H])c([H])c2c(c1[H])C([H])([H])N(C(=O)C([H])(N([H])C(=O)C([H])(N([H])C([H])([H])[H])C([H])([H])[H])C(C([H])([H])[H])(C([H])([H])[H])C([H])([H])[H])C([H])(C(=O)N([H])C1([H])c3c([H])c([H])c([H])c([H])c3C([H])([H])C([H])([H])C1([H])[H])C2([H])[H])=C1C(=O)N(c2c([H])c(F)c(N([H])C(=O)N3C([H])([H])C([H])([H])C([H])([H])C([H])(n4nc(-c5c([H])c([H])c(Oc6c([H])c([H])c(F)c([H])c6F)c([H])c5[H])c(C(=O)N([H])[H])c4N([H])[H])C3([H])[H])c([H])c2F)C1([H])[H]

$$$$
75:0:0
     RDKit          3D

 93102  0  0  1  0  0  0  0  0999 V2000
  -28.5090  -24.0570   20.4120 C   0  0  0  0  0  0  0  0  0  0  0  0
  -29.2570  -23.3310   19.3870 C   0  0  0  0  0  0  0  0  0  0  0  0
  -28.2960  -25.3470   20.8400 C   0  0  0  0  0  3  0  0  0  0  0  0
  -27.8790  -22.7560   20.8830 C   0  0  0  0  0  2  0  0  0  0  0  0
  -28.6670  -22.1150   19.8170 N   0  0  0  0  0  0  0  0  0  0  0  0
  -30.0350  -23.6960   18.5290 O   0  0  0  0  0  0  0  0  0  0  0  0
  -26.9760  -18.7510   19.3240 C   0  0  0  0  0  3  0  0  0  0  0  0
  -28.0190  -17.8360   19.1350 C   0  0  0  0  0  3  0  0  0  0  0  0
  -27.2460  -20.1150   19.5270 C   0  0  0  0  0  3  0  0  0  0  0  0
  -29.5940  -19.6990   19.3210 C   0  0  0  0  0  3  0  0  0  0  0  0
  -29.3560  -18.2830   19.1260 C   0  0  0  0  0  0  0  0  0  0  0  0
  -28.5530  -20.6730   19.5500 C   0  0  0  0  0  0  0  0  0  0  0  0
  -31.1710  -14.9270   19.5220 C   0  0  0  0  0  0  0  0  0  0  0  0
  -31.1420  -12.4650   19.2330 C   0  0  0  0  0  2  0  0  0  0  0  0
  -30.1910  -12.1250   18.0640 C   0  0  0  0  0  2  0  0  0  0  0  0
  -28.7430  -11.9740   18.5710 C   0  0  0  0  0  2  0  0  0  0  0  0
  -28.3040  -13.1460   19.4890 C   0  0  0  0  0  3  0  0  0  0  0  0
  -29.3750  -13.4610   20.5580 C   0  0  0  0  0  2  0  0  0  0  0  0
  -30.6460  -13.7070   19.8600 N   0  0  0  0  0  0  0  0  0  0  0  0
  -32.3240  -15.0020   19.0870 O   0  0  0  0  0  0  0  0  0  0  0  0
  -30.4860  -17.2510   18.9880 C   0  0  0  0  0  0  0  0  0  0  0  0
  -30.3080  -15.9940   19.5170 N   0  0  0  0  0  0  0  0  0  0  0  0
  -31.5040  -17.6010   18.3810 O   0  0  0  0  0  0  0  0  0  0  0  0
  -29.4080  -15.8250   19.9270 H   0  0  0  0  0  0  0  0  0  0  0  0
  -26.0350  -13.8150   20.4900 C   0  0  0  0  0  0  0  0  0  0  0  0
  -24.9620  -13.0740   20.9040 C   0  0  0  0  0  0  0  0  0  0  0  0
  -25.3350  -11.7060   20.7260 C   0  0  0  0  0  0  0  0  0  0  0  0
  -26.9940  -12.9010   20.0850 N   0  0  0  0  0  0  0  0  0  0  0  0
  -26.5840  -11.6220   20.2870 N   0  0  0  0  0  0  0  0  0  0  0  0
  -24.5530  -10.4740   20.8950 C   0  0  0  0  0  0  0  0  0  0  0  0
  -24.8760   -9.5230   21.8870 C   0  0  0  0  0  3  0  0  0  0  0  0
  -24.0980   -8.3560   22.0410 C   0  0  0  0  0  3  0  0  0  0  0  0
  -22.9830   -8.1300   21.2000 C   0  0  0  0  0  0  0  0  0  0  0  0
  -22.6790   -9.0680   20.1980 C   0  0  0  0  0  3  0  0  0  0  0  0
  -23.4570  -10.2270   20.0420 C   0  0  0  0  0  3  0  0  0  0  0  0
  -22.1850   -7.0130   21.2600 O   0  0  0  0  0  0  0  0  0  0  0  0
  -21.8070   -6.4610   22.4580 C   0  0  0  0  0  0  0  0  0  0  0  0
  -21.0980   -7.2030   23.4280 C   0  0  0  0  0  3  0  0  0  0  0  0
  -20.6680   -6.5780   24.6170 C   0  0  0  0  0  3  0  0  0  0  0  0
  -20.9380   -5.2130   24.8320 C   0  0  0  0  0  0  0  0  0  0  0  0
  -21.6390   -4.4710   23.8640 C   0  0  0  0  0  3  0  0  0  0  0  0
  -22.0700   -5.0940   22.6790 C   0  0  0  0  0  0  0  0  0  0  0  0
  -22.7260   -4.3710   21.7400 F   0  0  0  0  0  0  0  0  0  0  0  0
  -20.5180   -4.6100   25.9680 F   0  0  0  0  0  0  0  0  0  0  0  0
  -23.6310  -13.6030   21.3520 C   0  0  0  0  0  0  0  0  0  0  0  0
  -22.9560  -12.8900   22.2470 N   0  0  0  0  0  0  0  0  0  0  0  0
  -23.2010  -14.6800   20.9410 O   0  0  0  0  0  0  0  0  0  0  0  0
  -23.3210  -12.0160   22.6000 H   0  0  0  0  0  0  0  0  0  0  0  0
  -22.0660  -13.2230   22.5880 H   0  0  0  0  0  0  0  0  0  0  0  0
  -26.2660  -15.1840   20.4000 N   0  0  0  0  0  0  0  0  0  0  0  0
  -25.5490  -15.8620   20.6340 H   0  0  0  0  0  0  0  0  0  0  0  0
  -27.0820  -15.6070   19.9780 H   0  0  0  0  0  0  0  0  0  0  0  0
  -28.7320  -26.6060   20.4010 O   0  0  0  0  0  0  0  0  0  0  0  0
  -24.8530  -31.8430   23.4340 C   0  0  0  0  0  0  0  0  0  0  0  0
  -27.6850  -27.5200   20.2790 C   0  0  0  0  0  0  0  0  0  0  0  0
  -23.7860  -30.5400   21.6510 C   0  0  0  0  0  3  0  0  0  0  0  0
  -25.3190  -29.0940   20.2120 C   0  0  0  0  0  0  0  0  0  0  0  0
  -26.3140  -30.8920   21.6340 C   0  0  0  0  0  2  0  0  0  0  0  0
  -26.4440  -29.5610   20.9080 C   0  0  0  0  0  0  0  0  0  0  0  0
  -27.6360  -28.7830   20.9360 C   0  0  0  0  0  3  0  0  0  0  0  0
  -26.5480  -27.1030   19.5560 C   0  0  0  0  0  3  0  0  0  0  0  0
  -25.3720  -27.8710   19.5240 C   0  0  0  0  0  3  0  0  0  0  0  0
  -24.0720  -29.9480   20.2460 C   0  0  0  0  0  2  0  0  0  0  0  0
  -25.0020  -31.1040   22.2990 N   0  0  0  0  0  0  0  0  0  0  0  0
  -23.7310  -32.0780   23.9080 O   0  0  0  0  0  0  0  0  0  0  0  0
  -23.0760  -29.4710   22.5110 C   0  0  0  0  0  0  0  0  0  0  0  0
  -21.7700  -29.4010   22.2780 N   0  0  0  0  0  0  0  0  0  0  0  0
  -23.6820  -28.7380   23.2940 O   0  0  0  0  0  0  0  0  0  0  0  0
  -21.4190  -30.1250   21.6660 H   0  0  0  0  0  0  0  0  0  0  0  0
  -18.3120  -28.0110   22.5750 C   0  0  0  0  0  0  0  0  0  0  0  0
  -20.7960  -28.3740   22.5480 C   0  0  0  0  0  3  0  0  0  0  0  0
  -21.0210  -26.9130   22.1480 C   0  0  0  0  0  2  0  0  0  0  0  0
  -19.8980  -26.4990   21.1730 C   0  0  0  0  0  2  0  0  0  0  0  0
  -18.4920  -26.7210   21.7720 C   0  0  0  0  0  2  0  0  0  0  0  0
  -19.4220  -28.7530   23.0460 C   0  0  0  0  0  0  0  0  0  0  0  0
  -19.2240  -29.9300   23.7960 C   0  0  0  0  0  3  0  0  0  0  0  0
  -17.9200  -30.3990   24.0370 C   0  0  0  0  0  3  0  0  0  0  0  0
  -16.8140  -29.6830   23.5420 C   0  0  0  0  0  3  0  0  0  0  0  0
  -17.0090  -28.4860   22.8290 C   0  0  0  0  0  3  0  0  0  0  0  0
  -26.0820  -32.4420   24.1760 C   0  0  0  0  0  3  0  0  0  0  0  0
  -25.7620  -33.8400   24.4980 N   0  0  0  0  0  0  0  0  0  0  0  0
  -26.1170  -34.8910   23.7480 C   0  0  0  0  0  0  0  0  0  0  0  0
  -26.8140  -34.7870   22.7350 O   0  0  0  0  0  0  0  0  0  0  0  0
  -25.1450  -33.9950   25.2810 H   0  0  0  0  0  0  0  0  0  0  0  0
  -24.3830  -36.6740   23.3680 C   0  0  0  0  0  1  0  0  0  0  0  0
  -25.6190  -36.2800   24.1920 C   0  0  0  0  0  3  0  0  0  0  0  0
  -27.7400  -37.1810   25.0400 C   0  0  0  0  0  1  0  0  0  0  0  0
  -26.6500  -37.3360   24.0810 N   0  0  0  0  0  0  0  0  0  0  0  0
  -26.2390  -38.2560   24.2140 H   0  0  0  0  0  0  0  0  0  0  0  0
  -26.4640  -31.6410   25.4790 C   0  0  1  0  0  0  0  0  0  0  0  0
  -25.2690  -31.3850   26.4270 C   0  0  0  0  0  1  0  0  0  0  0  0
  -27.0780  -30.2700   25.1160 C   0  0  0  0  0  1  0  0  0  0  0  0
  -27.5450  -32.4170   26.2660 C   0  0  0  0  0  1  0  0  0  0  0  0
  1  3  2  0
  1  4  1  0
  2  5  1  0
  2  1  1  0
  5  4  1  0
  6  2  2  0
  7  9  1  0
  8  7  2  0
  9 12  2  0
 10 12  1  0
 11  8  1  0
 11 10  2  0
 12  5  1  0
 13 19  1  0
 14 19  1  0
 15 16  1  0
 15 14  1  0
 17 16  1  0
 17 28  1  0
 17 18  1  0
 19 18  1  0
 20 13  2  0
 21 11  1  0
 21 22  1  0
 22 13  1  0
 22 24  1  0
 23 21  2  0
 25 26  2  0
 26 45  1  0
 27 30  1  0
 27 26  1  0
 28 29  1  0
 28 25  1  0
 29 27  2  0
 30 31  1  0
 31 32  2  0
 33 36  1  0
 33 32  1  0
 34 33  2  0
 35 34  1  0
 35 30  2  0
 36 37  1  0
 37 42  2  0
 37 38  1  0
 38 39  2  0
 39 40  1  0
 40 44  1  0
 41 40  2  0
 42 41  1  0
 43 42  1  0
 45 46  1  0
 46 49  1  0
 46 48  1  0
 47 45  2  0
 50 25  1  0
 50 51  1  0
 52 50  1  0
 53  3  1  0
 54 65  2  0
 55 53  1  0
 55 60  1  0
 56 64  1  0
 56 66  1  0
 57 63  1  0
 57 59  1  0
 58 64  1  0
 59 60  2  0
 59 58  1  0
 61 55  2  0
 62 61  1  0
 62 57  2  0
 63 56  1  0
 64 54  1  0
 66 68  2  0
 67 66  1  0
 69 67  1  0
 70 79  2  0
 70 75  1  0
 71 67  1  0
 71 75  1  0
 72 71  1  0
 73 74  1  0
 73 72  1  0
 74 70  1  0
 75 76  2  0
 76 77  1  0
 78 77  2  0
 79 78  1  0
 80 54  1  0
 80 81  1  0
 80 90  1  0
 81 84  1  0
 82 86  1  0
 82 81  1  0
 83 82  2  0
 86 85  1  0
 88 86  1  0
 88 89  1  0
 88 87  1  0
 90 93  1  1
 90 91  1  0
 92 90  1  0
M  ISO  4   3 101  13 100  22 100  53 101
M  END
>  <TORSDO>  (76) 
F 17

>  <SCORE>  (76) 
-13.326

>  <name>  (76) 
75

>  <ligand_id>  (76) 
75

>  <original_smiles>  (76) 
[H]C(Oc1c([H])c([H])c2c(c1[H])C([H])([H])N(C(=O)C([H])(N([H])C(=O)C([H])(N([H])C([H])([H])[H])C([H])([H])[H])C(C([H])([H])[H])(C([H])([H])[H])C([H])([H])[H])C([H])(C(=O)N([H])C1([H])c3c([H])c([H])c([H])c([H])c3C([H])([H])C([H])([H])C1([H])[H])C2([H])[H])=C1C(=O)N(c2c([H])c([H])c([H])c(C(=O)N([H])C(=O)N3C([H])([H])C([H])([H])C([H])([H])C([H])(n4nc(-c5c([H])c([H])c(Oc6c([H])c([H])c(F)c([H])c6F)c([H])c5[H])c(C(=O)N([H])[H])c4N([H])[H])C3([H])[H])c2[H])C1([H])[H]

>  <smiles>  (76) 
[H]C(Oc1c([H])c([H])c2c(c1[H])C([H])([H])N(C(=O)C([H])(N([H])C(=O)C([H])(N([H])C([H])([H])[H])C([H])([H])[H])C(C([H])([H])[H])(C([H])([H])[H])C([H])([H])[H])C([H])(C(=O)N([H])C1([H])c3c([H])c([H])c([H])c([H])c3C([H])([H])C([H])([H])C1([H])[H])C2([H])[H])=C1C(=O)N(c2c([H])c([H])c([H])c(C(=O)N([H])C(=O)N3C([H])([H])C([H])([H])C([H])([H])C([H])(n4nc(-c5c([H])c([H])c(Oc6c([H])c([H])c(F)c([H])c6F)c([H])c5[H])c(C(=O)N([H])[H])c4N([H])[H])C3([H])[H])c2[H])C1([H])[H]

$$$$
76:0:0
     RDKit          3D

 94103  0  0  1  0  0  0  0  0999 V2000
  -30.7170  -19.5220   18.8610 C   0  0  0  0  0  3  0  0  0  0  0  0
  -30.9490  -18.0950   18.8810 C   0  0  0  0  0  3  0  0  0  0  0  0
  -29.0320  -19.2760   20.4730 C   0  0  0  0  0  3  0  0  0  0  0  0
  -29.2250  -17.8520   20.5230 C   0  0  0  0  0  0  0  0  0  0  0  0
  -29.7320  -20.2060   19.6480 C   0  0  0  0  0  0  0  0  0  0  0  0
  -30.2030  -17.1930   19.7010 C   0  0  0  0  0  0  0  0  0  0  0  0
  -31.0300  -14.7100   19.0610 C   0  0  0  0  0  0  0  0  0  0  0  0
  -30.7090  -12.4520   18.0160 C   0  0  0  0  0  2  0  0  0  0  0  0
  -29.5180  -12.5350   17.0320 C   0  0  0  0  0  2  0  0  0  0  0  0
  -28.1770  -12.3160   17.7620 C   0  0  0  0  0  2  0  0  0  0  0  0
  -28.0650  -13.1570   19.0610 C   0  0  0  0  0  3  0  0  0  0  0  0
  -29.3400  -13.0220   19.9210 C   0  0  0  0  0  2  0  0  0  0  0  0
  -30.4800  -13.4450   19.0910 N   0  0  0  0  0  0  0  0  0  0  0  0
  -32.0620  -14.9280   18.4190 O   0  0  0  0  0  0  0  0  0  0  0  0
  -30.2890  -15.6990   19.6860 N   0  0  0  0  0  0  0  0  0  0  0  0
  -29.5730  -15.2620   20.2420 H   0  0  0  0  0  0  0  0  0  0  0  0
  -25.9420  -13.6990   20.4020 C   0  0  0  0  0  0  0  0  0  0  0  0
  -24.9550  -12.9040   20.9190 C   0  0  0  0  0  0  0  0  0  0  0  0
  -25.3280  -11.5600   20.6090 C   0  0  0  0  0  0  0  0  0  0  0  0
  -26.8560  -12.8370   19.8150 N   0  0  0  0  0  0  0  0  0  0  0  0
  -26.5060  -11.5380   19.9960 N   0  0  0  0  0  0  0  0  0  0  0  0
  -24.6030  -10.2980   20.8070 C   0  0  0  0  0  0  0  0  0  0  0  0
  -25.0500   -9.3270   21.7310 C   0  0  0  0  0  3  0  0  0  0  0  0
  -24.3250   -8.1300   21.9170 C   0  0  0  0  0  3  0  0  0  0  0  0
  -23.1390   -7.8960   21.1810 C   0  0  0  0  0  0  0  0  0  0  0  0
  -22.7120   -8.8550   20.2460 C   0  0  0  0  0  3  0  0  0  0  0  0
  -23.4370  -10.0430   20.0580 C   0  0  0  0  0  3  0  0  0  0  0  0
  -22.3860   -6.7520   21.2780 O   0  0  0  0  0  0  0  0  0  0  0  0
  -22.0810   -6.1910   22.4930 C   0  0  0  0  0  0  0  0  0  0  0  0
  -21.3670   -6.8990   23.4830 C   0  0  0  0  0  3  0  0  0  0  0  0
  -21.0160   -6.2610   24.6890 C   0  0  0  0  0  3  0  0  0  0  0  0
  -21.3680   -4.9160   24.9040 C   0  0  0  0  0  0  0  0  0  0  0  0
  -22.0750   -4.2070   23.9170 C   0  0  0  0  0  3  0  0  0  0  0  0
  -22.4280   -4.8420   22.7130 C   0  0  0  0  0  0  0  0  0  0  0  0
  -23.0900   -4.1480   21.7570 F   0  0  0  0  0  0  0  0  0  0  0  0
  -21.0240   -4.3000   26.0600 F   0  0  0  0  0  0  0  0  0  0  0  0
  -23.6860  -13.3680   21.5740 C   0  0  0  0  0  0  0  0  0  0  0  0
  -23.1610  -12.5880   22.5120 N   0  0  0  0  0  0  0  0  0  0  0  0
  -23.1800  -14.4520   21.2910 O   0  0  0  0  0  0  0  0  0  0  0  0
  -23.5880  -11.7080   22.7600 H   0  0  0  0  0  0  0  0  0  0  0  0
  -22.3200  -12.8760   22.9910 H   0  0  0  0  0  0  0  0  0  0  0  0
  -26.1290  -15.0770   20.3590 N   0  0  0  0  0  0  0  0  0  0  0  0
  -25.4280  -15.7200   20.7130 H   0  0  0  0  0  0  0  0  0  0  0  0
  -26.8530  -15.5400   19.8240 H   0  0  0  0  0  0  0  0  0  0  0  0
  -28.9010  -23.6830   19.6930 C   0  0  0  0  0  0  0  0  0  0  0  0
  -28.5470  -22.4980   20.4670 C   0  0  0  0  0  0  0  0  0  0  0  0
  -28.4300  -24.9850   19.8810 C   0  0  0  0  0  3  0  0  0  0  0  0
  -29.8290  -22.7850   18.8170 C   0  0  0  0  0  2  0  0  0  0  0  0
  -29.3840  -21.6610   19.6970 N   0  0  0  0  0  0  0  0  0  0  0  0
  -27.7920  -22.3610   21.4080 O   0  0  0  0  0  0  0  0  0  0  0  0
  -28.6540  -26.2490   19.2600 O   0  0  0  0  0  0  0  0  0  0  0  0
  -24.9290  -31.4240   22.7830 C   0  0  0  0  0  0  0  0  0  0  0  0
  -27.5870  -27.1730   19.3080 C   0  0  0  0  0  0  0  0  0  0  0  0
  -23.7470  -30.1900   21.0000 C   0  0  0  0  0  3  0  0  0  0  0  0
  -25.2210  -28.7960   19.4350 C   0  0  0  0  0  0  0  0  0  0  0  0
  -26.2900  -30.5290   20.8730 C   0  0  0  0  0  2  0  0  0  0  0  0
  -26.3850  -29.2200   20.0910 C   0  0  0  0  0  0  0  0  0  0  0  0
  -27.5740  -28.4210   20.0190 C   0  0  0  0  0  3  0  0  0  0  0  0
  -26.4010  -26.8200   18.6300 C   0  0  0  0  0  3  0  0  0  0  0  0
  -25.2340  -27.6050   18.6940 C   0  0  0  0  0  3  0  0  0  0  0  0
  -23.9780  -29.6570   19.5630 C   0  0  0  0  0  2  0  0  0  0  0  0
  -25.0080  -30.7270   21.6100 N   0  0  0  0  0  0  0  0  0  0  0  0
  -23.8400  -31.6410   23.3330 O   0  0  0  0  0  0  0  0  0  0  0  0
  -23.0800  -29.0810   21.8500 C   0  0  0  0  0  0  0  0  0  0  0  0
  -21.7410  -28.9850   21.7810 N   0  0  0  0  0  0  0  0  0  0  0  0
  -23.7650  -28.3150   22.5320 O   0  0  0  0  0  0  0  0  0  0  0  0
  -21.2480  -29.6560   21.2070 H   0  0  0  0  0  0  0  0  0  0  0  0
  -18.3290  -28.0050   22.4870 C   0  0  0  0  0  0  0  0  0  0  0  0
  -20.9150  -27.9870   22.4630 C   0  0  0  0  0  3  0  0  0  0  0  0
  -20.7940  -26.6950   21.6200 C   0  0  0  0  0  2  0  0  0  0  0  0
  -19.5570  -26.6780   20.7170 C   0  0  0  0  0  2  0  0  0  0  0  0
  -18.2800  -26.8080   21.5520 C   0  0  0  0  0  2  0  0  0  0  0  0
  -19.5660  -28.5680   22.9030 C   0  0  0  0  0  0  0  0  0  0  0  0
  -19.5530  -29.7000   23.7460 C   0  0  0  0  0  3  0  0  0  0  0  0
  -18.3380  -30.2670   24.1730 C   0  0  0  0  0  3  0  0  0  0  0  0
  -17.1170  -29.6970   23.7710 C   0  0  0  0  0  3  0  0  0  0  0  0
  -17.1150  -28.5660   22.9350 C   0  0  0  0  0  3  0  0  0  0  0  0
  -26.2020  -31.9980   23.4760 C   0  0  0  0  0  3  0  0  0  0  0  0
  -25.8620  -33.3300   24.0000 N   0  0  0  0  0  0  0  0  0  0  0  0
  -26.1100  -34.4840   23.3660 C   0  0  0  0  0  0  0  0  0  0  0  0
  -26.7200  -34.5410   22.2940 O   0  0  0  0  0  0  0  0  0  0  0  0
  -25.3110  -33.3550   24.8450 H   0  0  0  0  0  0  0  0  0  0  0  0
  -24.2800  -36.2100   23.3710 C   0  0  0  0  0  1  0  0  0  0  0  0
  -25.6030  -35.7820   24.0250 C   0  0  0  0  0  3  0  0  0  0  0  0
  -27.7500  -36.6880   24.7980 C   0  0  0  0  0  1  0  0  0  0  0  0
  -26.5730  -36.8950   23.9570 N   0  0  0  0  0  0  0  0  0  0  0  0
  -26.1370  -37.7710   24.2330 H   0  0  0  0  0  0  0  0  0  0  0  0
  -26.7510  -31.0730   24.6310 C   0  0  1  0  0  0  0  0  0  0  0  0
  -25.6760  -30.6690   25.6680 C   0  0  0  0  0  1  0  0  0  0  0  0
  -27.3560  -29.7740   24.0520 C   0  0  0  0  0  1  0  0  0  0  0  0
  -27.8930  -31.7950   25.3830 C   0  0  0  0  0  1  0  0  0  0  0  0
  -28.3720  -17.0710   21.4670 C   0  0  0  0  0  3  0  0  0  0  0  0
  -27.5410  -17.5510   22.2940 N   0  0  0  0  0  0  0  0  0  0  0  0
  -27.5050  -18.5630   22.2580 H   0  0  0  0  0  0  0  0  0  0  0  0
  1  2  2  0
  1  5  1  0
  2  6  1  0
  3  4  1  0
  4 92  1  0
  5 49  1  0
  5  3  2  0
  6  4  2  0
  7 13  1  0
  7 15  1  0
  8 13  1  0
  9 10  1  0
  9  8  1  0
 11 10  1  0
 11 20  1  0
 11 12  1  0
 13 12  1  0
 14  7  2  0
 15  6  1  0
 15 16  1  0
 17 18  2  0
 18 37  1  0
 19 22  1  0
 19 18  1  0
 20 21  1  0
 20 17  1  0
 21 19  2  0
 22 23  1  0
 23 24  2  0
 25 28  1  0
 25 24  1  0
 26 25  2  0
 27 26  1  0
 27 22  2  0
 28 29  1  0
 29 34  2  0
 29 30  1  0
 30 31  2  0
 31 32  1  0
 32 36  1  0
 33 32  2  0
 34 33  1  0
 35 34  1  0
 37 38  1  0
 38 40  1  0
 38 41  1  0
 39 37  2  0
 42 17  1  0
 42 43  1  0
 44 42  1  0
 45 47  2  0
 45 46  1  0
 46 50  2  0
 48 45  1  0
 48 49  1  0
 49 46  1  0
 51 53  1  0
 51 47  1  0
 52 63  2  0
 53 58  1  0
 54 62  1  0
 54 64  1  0
 55 61  1  0
 55 57  1  0
 56 62  1  0
 57 56  1  0
 58 57  2  0
 59 60  1  0
 59 53  2  0
 60 55  2  0
 61 54  1  0
 62 52  1  0
 64 66  2  0
 65 64  1  0
 67 65  1  0
 68 73  2  0
 68 77  1  0
 69 65  1  0
 69 73  1  0
 70 69  1  0
 71 72  1  0
 71 70  1  0
 72 68  1  0
 73 74  1  0
 74 75  2  0
 76 75  1  0
 77 76  2  0
 78 52  1  0
 78 79  1  0
 78 88  1  0
 79 82  1  0
 80 79  1  0
 80 84  1  0
 81 80  2  0
 84 83  1  0
 86 84  1  0
 86 87  1  0
 86 85  1  0
 88 91  1  1
 88 89  1  0
 90 88  1  0
 92 93  2  0
 94 93  1  0
M  ISO  4   7 100  15 100  47 101  51 101
M  END
>  <TORSDO>  (77) 
F 18

>  <SCORE>  (77) 
-4.663

>  <name>  (77) 
76

>  <ligand_id>  (77) 
76

>  <original_smiles>  (77) 
[H]N=C([H])c1c([H])c(N2C(=O)C(=C([H])Oc3c([H])c([H])c4c(c3[H])C([H])([H])N(C(=O)C([H])(N([H])C(=O)C([H])(N([H])C([H])([H])[H])C([H])([H])[H])C(C([H])([H])[H])(C([H])([H])[H])C([H])([H])[H])C([H])(C(=O)N([H])C3([H])c5c([H])c([H])c([H])c([H])c5C([H])([H])C([H])([H])C3([H])[H])C4([H])[H])C2([H])[H])c([H])c([H])c1N([H])C(=O)N1C([H])([H])C([H])([H])C([H])([H])C([H])(n2nc(-c3c([H])c([H])c(Oc4c([H])c([H])c(F)c([H])c4F)c([H])c3[H])c(C(=O)N([H])[H])c2N([H])[H])C1([H])[H]

>  <smiles>  (77) 
[H]N=C([H])c1c([H])c(N2C(=O)C(=C([H])Oc3c([H])c([H])c4c(c3[H])C([H])([H])N(C(=O)C([H])(N([H])C(=O)C([H])(N([H])C([H])([H])[H])C([H])([H])[H])C(C([H])([H])[H])(C([H])([H])[H])C([H])([H])[H])C([H])(C(=O)N([H])C3([H])c5c([H])c([H])c([H])c([H])c5C([H])([H])C([H])([H])C3([H])[H])C4([H])[H])C2([H])[H])c([H])c([H])c1N([H])C(=O)N1C([H])([H])C([H])([H])C([H])([H])C([H])(n2nc(-c3c([H])c([H])c(Oc4c([H])c([H])c(F)c([H])c4F)c([H])c3[H])c(C(=O)N([H])[H])c2N([H])[H])C1([H])[H]

$$$$
77:0:0
     RDKit          3D

 99108  0  0  1  0  0  0  0  0999 V2000
  -28.5780  -23.2050   18.1130 C   0  0  0  0  0  3  0  0  0  0  0  0
  -28.8410  -21.8900   18.2460 C   0  0  0  0  0  0  0  0  0  0  0  0
  -28.4460  -23.8800   19.3870 C   0  0  0  0  0  0  0  0  0  0  0  0
  -28.9210  -21.4880   19.6450 C   0  0  0  0  0  0  0  0  0  0  0  0
  -29.1880  -20.1740   20.1530 C   0  0  0  0  0  2  0  0  0  0  0  0
  -28.1970  -25.2830   19.3580 C   0  0  0  0  0  2  0  0  0  0  0  0
  -28.6480  -22.7730   20.3070 N   0  0  0  0  0  0  0  0  0  0  0  0
  -28.6040  -22.8900   21.3130 H   0  0  0  0  0  0  0  0  0  0  0  0
  -30.2720  -19.0740   18.4260 C   0  0  0  0  0  3  0  0  0  0  0  0
  -31.5920  -19.3060   18.2410 C   0  0  0  0  0  3  0  0  0  0  0  0
  -31.2610  -17.9380   20.9540 C   0  0  0  0  0  3  0  0  0  0  0  0
  -29.5960  -18.9240   19.5830 C   0  0  0  0  0  3  0  0  0  0  0  0
  -30.0920  -17.7960   20.2890 C   0  0  0  0  0  0  0  0  0  0  0  0
  -32.3880  -18.6250   20.6400 C   0  0  0  0  0  0  0  0  0  0  0  0
  -32.6240  -19.2630   19.3100 C   0  0  0  0  0  0  0  0  0  0  0  0
  -33.7590  -19.7740   19.0650 N   0  0  0  0  0  2  0  0  0  0  0  0
  -33.3970  -18.5850   21.5290 F   0  0  0  0  0  0  0  0  0  0  0  0
  -33.8260  -20.1730   18.1320 H   0  0  0  0  0  0  0  0  0  0  0  0
  -30.4760  -15.1660   20.0050 C   0  0  0  0  0  0  0  0  0  0  0  0
  -30.3550  -12.7900   19.1360 C   0  0  0  0  0  2  0  0  0  0  0  0
  -29.3730  -12.6460   17.9510 C   0  0  0  0  0  2  0  0  0  0  0  0
  -27.9350  -12.4060   18.4570 C   0  0  0  0  0  2  0  0  0  0  0  0
  -27.5390  -13.3780   19.6010 C   0  0  0  0  0  3  0  0  0  0  0  0
  -28.6420  -13.5030   20.6760 C   0  0  0  0  0  2  0  0  0  0  0  0
  -29.8670  -13.9140   19.9800 N   0  0  0  0  0  0  0  0  0  0  0  0
  -31.6870  -15.2070   19.7680 O   0  0  0  0  0  0  0  0  0  0  0  0
  -29.7080  -16.3640   20.0550 N   0  0  0  0  0  0  0  0  0  0  0  0
  -28.7190  -16.2110   19.9470 H   0  0  0  0  0  0  0  0  0  0  0  0
  -25.2030  -13.9150   20.4910 C   0  0  0  0  0  0  0  0  0  0  0  0
  -24.1640  -13.1190   20.8900 C   0  0  0  0  0  0  0  0  0  0  0  0
  -24.6350  -11.7750   20.7990 C   0  0  0  0  0  0  0  0  0  0  0  0
  -26.2390  -13.0550   20.1730 N   0  0  0  0  0  0  0  0  0  0  0  0
  -25.9110  -11.7600   20.4210 N   0  0  0  0  0  0  0  0  0  0  0  0
  -23.9240  -10.5020   20.9870 C   0  0  0  0  0  0  0  0  0  0  0  0
  -24.3770   -9.5350   21.9120 C   0  0  0  0  0  3  0  0  0  0  0  0
  -23.6670   -8.3270   22.0900 C   0  0  0  0  0  3  0  0  0  0  0  0
  -22.4860   -8.0800   21.3450 C   0  0  0  0  0  0  0  0  0  0  0  0
  -22.0530   -9.0380   20.4100 C   0  0  0  0  0  3  0  0  0  0  0  0
  -22.7660  -10.2360   20.2310 C   0  0  0  0  0  3  0  0  0  0  0  0
  -21.7450   -6.9280   21.4320 O   0  0  0  0  0  0  0  0  0  0  0  0
  -21.6790   -6.2020   22.5950 C   0  0  0  0  0  0  0  0  0  0  0  0
  -21.1690   -6.7550   23.7910 C   0  0  0  0  0  3  0  0  0  0  0  0
  -21.0540   -5.9510   24.9440 C   0  0  0  0  0  3  0  0  0  0  0  0
  -21.4400   -4.5980   24.9030 C   0  0  0  0  0  0  0  0  0  0  0  0
  -21.9440   -4.0460   23.7120 C   0  0  0  0  0  3  0  0  0  0  0  0
  -22.0620   -4.8460   22.5610 C   0  0  0  0  0  0  0  0  0  0  0  0
  -22.5260   -4.3050   21.4110 F   0  0  0  0  0  0  0  0  0  0  0  0
  -21.3250   -3.8250   26.0080 F   0  0  0  0  0  0  0  0  0  0  0  0
  -22.7810  -13.5780   21.2470 C   0  0  0  0  0  0  0  0  0  0  0  0
  -22.1010  -12.8550   22.1310 N   0  0  0  0  0  0  0  0  0  0  0  0
  -22.3080  -14.6130   20.7780 O   0  0  0  0  0  0  0  0  0  0  0  0
  -22.4910  -12.0180   22.5360 H   0  0  0  0  0  0  0  0  0  0  0  0
  -21.1740  -13.1480   22.4090 H   0  0  0  0  0  0  0  0  0  0  0  0
  -25.3390  -15.2930   20.3420 N   0  0  0  0  0  0  0  0  0  0  0  0
  -24.5630  -15.9260   20.5050 H   0  0  0  0  0  0  0  0  0  0  0  0
  -26.1500  -15.7590   19.9600 H   0  0  0  0  0  0  0  0  0  0  0  0
  -28.9500  -21.0860   17.1820 O   0  0  0  0  0  0  0  0  0  0  0  0
  -28.9400  -21.6300   16.4040 H   0  0  0  0  0  0  0  0  0  0  0  0
  -28.0980  -26.4100   20.2490 O   0  0  0  0  0  0  0  0  0  0  0  0
  -24.5990  -32.0110   23.3750 C   0  0  0  0  0  0  0  0  0  0  0  0
  -27.0670  -27.4060   20.1490 C   0  0  0  0  0  0  0  0  0  0  0  0
  -23.3430  -30.6740   21.7240 C   0  0  0  0  0  3  0  0  0  0  0  0
  -24.7400  -29.1400   20.2140 C   0  0  0  0  0  0  0  0  0  0  0  0
  -25.8880  -30.9370   21.5010 C   0  0  0  0  0  2  0  0  0  0  0  0
  -25.9310  -29.5670   20.8090 C   0  0  0  0  0  0  0  0  0  0  0  0
  -27.0890  -28.7110   20.7770 C   0  0  0  0  0  3  0  0  0  0  0  0
  -25.8490  -27.0730   19.5110 C   0  0  0  0  0  3  0  0  0  0  0  0
  -24.7050  -27.9010   19.5560 C   0  0  0  0  0  3  0  0  0  0  0  0
  -23.5230  -30.0410   20.3180 C   0  0  0  0  0  2  0  0  0  0  0  0
  -24.6300  -31.2250   22.2560 N   0  0  0  0  0  0  0  0  0  0  0  0
  -23.5320  -32.2900   23.9420 O   0  0  0  0  0  0  0  0  0  0  0  0
  -22.6820  -29.6430   22.6710 C   0  0  0  0  0  0  0  0  0  0  0  0
  -21.3600  -29.4470   22.5340 N   0  0  0  0  0  0  0  0  0  0  0  0
  -23.3610  -29.0270   23.4950 O   0  0  0  0  0  0  0  0  0  0  0  0
  -20.8670  -29.9950   21.8430 H   0  0  0  0  0  0  0  0  0  0  0  0
  -18.0130  -28.1350   22.9530 C   0  0  0  0  0  0  0  0  0  0  0  0
  -20.5520  -28.4870   23.2920 C   0  0  0  0  0  3  0  0  0  0  0  0
  -20.7210  -27.0570   22.7300 C   0  0  0  0  0  2  0  0  0  0  0  0
  -19.6610  -26.6880   21.6880 C   0  0  0  0  0  2  0  0  0  0  0  0
  -18.2570  -26.7890   22.2910 C   0  0  0  0  0  2  0  0  0  0  0  0
  -19.0910  -28.9410   23.4060 C   0  0  0  0  0  0  0  0  0  0  0  0
  -18.8100  -30.1980   23.9820 C   0  0  0  0  0  3  0  0  0  0  0  0
  -17.4840  -30.6520   24.1110 C   0  0  0  0  0  3  0  0  0  0  0  0
  -16.4190  -29.8430   23.6740 C   0  0  0  0  0  3  0  0  0  0  0  0
  -16.6850  -28.5880   23.0990 C   0  0  0  0  0  3  0  0  0  0  0  0
  -25.9040  -32.6140   23.9820 C   0  0  0  0  0  3  0  0  0  0  0  0
  -25.6350  -34.0200   24.3150 N   0  0  0  0  0  0  0  0  0  0  0  0
  -25.9580  -35.0650   23.5400 C   0  0  0  0  0  0  0  0  0  0  0  0
  -26.5810  -34.9430   22.4840 O   0  0  0  0  0  0  0  0  0  0  0  0
  -25.0820  -34.1900   25.1420 H   0  0  0  0  0  0  0  0  0  0  0  0
  -24.2460  -36.8870   23.2660 C   0  0  0  0  0  1  0  0  0  0  0  0
  -25.5220  -36.4640   24.0120 C   0  0  0  0  0  3  0  0  0  0  0  0
  -27.7030  -37.3280   24.7330 C   0  0  0  0  0  1  0  0  0  0  0  0
  -26.5630  -37.4990   23.8380 N   0  0  0  0  0  0  0  0  0  0  0  0
  -26.1770  -38.4280   23.9930 H   0  0  0  0  0  0  0  0  0  0  0  0
  -26.4110  -31.8320   25.2570 C   0  0  1  0  0  0  0  0  0  0  0  0
  -25.3180  -31.6190   26.3290 C   0  0  0  0  0  1  0  0  0  0  0  0
  -26.9660  -30.4430   24.8670 C   0  0  0  0  0  1  0  0  0  0  0  0
  -27.5780  -32.6020   25.9160 C   0  0  0  0  0  1  0  0  0  0  0  0
  1  2  1  0
  1  3  2  0
  2  4  2  0
  3  7  1  0
  4  5  1  0
  4  7  1  0
  6  3  1  0
  6 59  1  0
  7  8  1  0
  9 12  1  0
 10  9  2  0
 10 15  1  0
 12  5  1  0
 12 13  1  0
 13 11  2  0
 14 11  1  0
 14 17  1  0
 15 14  2  0
 16 15  1  0
 18 16  1  0
 19 27  1  0
 20 25  1  0
 21 22  1  0
 21 20  1  0
 23 22  1  0
 23 32  1  0
 23 24  1  0
 25 19  1  0
 25 24  1  0
 26 19  2  0
 27 13  1  0
 28 27  1  0
 29 30  2  0
 30 49  1  0
 31 30  1  0
 31 34  1  0
 32 33  1  0
 32 29  1  0
 33 31  2  0
 34 35  1  0
 35 36  2  0
 37 40  1  0
 37 36  1  0
 38 37  2  0
 39 38  1  0
 39 34  2  0
 40 41  1  0
 41 42  1  0
 42 43  2  0
 44 43  1  0
 44 48  1  0
 45 44  2  0
 46 41  2  0
 46 45  1  0
 47 46  1  0
 49 50  1  0
 50 53  1  0
 50 52  1  0
 51 49  2  0
 54 29  1  0
 54 55  1  0
 56 54  1  0
 57  2  1  0
 58 57  1  0
 60 71  2  0
 61 59  1  0
 61 66  1  0
 62 70  1  0
 62 72  1  0
 63 69  1  0
 63 65  1  0
 64 70  1  0
 65 64  1  0
 66 65  2  0
 67 68  1  0
 67 61  2  0
 68 63  2  0
 69 62  1  0
 70 60  1  0
 72 74  2  0
 73 72  1  0
 75 73  1  0
 76 85  2  0
 76 81  1  0
 77 73  1  0
 77 81  1  0
 78 77  1  0
 79 80  1  0
 79 78  1  0
 80 76  1  0
 81 82  2  0
 82 83  1  0
 84 83  2  0
 85 84  1  0
 86 60  1  0
 86 87  1  0
 86 96  1  0
 87 90  1  0
 88 92  1  0
 88 87  1  0
 89 88  2  0
 92 91  1  0
 94 95  1  0
 94 92  1  0
 94 93  1  0
 96 99  1  1
 96 97  1  0
 98 96  1  0
M  ISO  4   6 101  19 100  27 100  59 101
M  END
>  <TORSDO>  (78) 
F 18

>  <SCORE>  (78) 
-15.100

>  <name>  (78) 
77

>  <ligand_id>  (78) 
77

>  <original_smiles>  (78) 
[H]N=c1c([H])c([H])c(C([H])=c2c(O[H])c([H])c(=C([H])Oc3c([H])c([H])c4c(c3[H])C([H])([H])N(C(=O)C([H])(N([H])C(=O)C([H])(N([H])C([H])([H])[H])C([H])([H])[H])C(C([H])([H])[H])(C([H])([H])[H])C([H])([H])[H])C([H])(C(=O)N([H])C3([H])c5c([H])c([H])c([H])c([H])c5C([H])([H])C([H])([H])C3([H])[H])C4([H])[H])n2[H])c(N([H])C(=O)N2C([H])([H])C([H])([H])C([H])([H])C([H])(n3nc(-c4c([H])c([H])c(Oc5c([H])c([H])c(F)c([H])c5F)c([H])c4[H])c(C(=O)N([H])[H])c3N([H])[H])C2([H])[H])c([H])c1F

>  <smiles>  (78) 
[H]N=c1c([H])c([H])c(C([H])=c2c(O[H])c([H])c(=C([H])Oc3c([H])c([H])c4c(c3[H])C([H])([H])N(C(=O)C([H])(N([H])C(=O)C([H])(N([H])C([H])([H])[H])C([H])([H])[H])C(C([H])([H])[H])(C([H])([H])[H])C([H])([H])[H])C([H])(C(=O)N([H])C3([H])c5c([H])c([H])c([H])c([H])c5C([H])([H])C([H])([H])C3([H])[H])C4([H])[H])n2[H])c(N([H])C(=O)N2C([H])([H])C([H])([H])C([H])([H])C([H])(n3nc(-c4c([H])c([H])c(Oc5c([H])c([H])c(F)c([H])c5F)c([H])c4[H])c(C(=O)N([H])[H])c3N([H])[H])C2([H])[H])c([H])c1F

$$$$
78:0:0
     RDKit          3D

 91100  0  0  1  0  0  0  0  0999 V2000
  -28.4710  -23.6530   20.4080 C   0  0  0  0  0  0  0  0  0  0  0  0
  -28.1030  -22.3390   20.9930 C   0  0  0  0  0  0  0  0  0  0  0  0
  -27.9620  -24.9500   20.6530 C   0  0  0  0  0  3  0  0  0  0  0  0
  -29.5210  -22.9000   19.5520 C   0  0  0  0  0  2  0  0  0  0  0  0
  -29.0620  -21.6250   20.2130 N   0  0  0  0  0  0  0  0  0  0  0  0
  -27.2780  -22.0560   21.8370 O   0  0  0  0  0  0  0  0  0  0  0  0
  -31.4240  -19.0970   18.6050 C   0  0  0  0  0  3  0  0  0  0  0  0
  -30.7210  -20.2400   19.0180 C   0  0  0  0  0  3  0  0  0  0  0  0
  -31.1210  -17.8170   19.0920 C   0  0  0  0  0  3  0  0  0  0  0  0
  -29.3770  -18.8510   20.4310 C   0  0  0  0  0  3  0  0  0  0  0  0
  -29.6510  -20.2370   19.9500 C   0  0  0  0  0  0  0  0  0  0  0  0
  -30.1010  -17.6060   20.0440 C   0  0  0  0  0  0  0  0  0  0  0  0
  -30.6030  -14.9750   20.3220 C   0  0  0  0  0  0  0  0  0  0  0  0
  -30.4450  -12.6430   19.3890 C   0  0  0  0  0  2  0  0  0  0  0  0
  -29.5180  -12.6490   18.1520 C   0  0  0  0  0  2  0  0  0  0  0  0
  -28.0510  -12.4530   18.5750 C   0  0  0  0  0  2  0  0  0  0  0  0
  -27.6530  -13.3600   19.7710 C   0  0  0  0  0  3  0  0  0  0  0  0
  -28.7050  -13.3480   20.9000 C   0  0  0  0  0  2  0  0  0  0  0  0
  -29.9870  -13.7300   20.2980 N   0  0  0  0  0  0  0  0  0  0  0  0
  -31.8060  -15.0090   20.0490 O   0  0  0  0  0  0  0  0  0  0  0  0
  -29.8450  -16.1650   20.4780 N   0  0  0  0  0  0  0  0  0  0  0  0
  -28.9170  -16.0010   20.8420 H   0  0  0  0  0  0  0  0  0  0  0  0
  -25.2750  -13.9340   20.5170 C   0  0  0  0  0  0  0  0  0  0  0  0
  -24.2090  -13.1570   20.8770 C   0  0  0  0  0  0  0  0  0  0  0  0
  -24.6730  -11.8060   20.8380 C   0  0  0  0  0  0  0  0  0  0  0  0
  -26.3160  -13.0580   20.2670 N   0  0  0  0  0  0  0  0  0  0  0  0
  -25.9650  -11.7710   20.5270 N   0  0  0  0  0  0  0  0  0  0  0  0
  -23.9470  -10.5420   21.0150 C   0  0  0  0  0  0  0  0  0  0  0  0
  -24.3550   -9.5810   21.9660 C   0  0  0  0  0  3  0  0  0  0  0  0
  -23.6270   -8.3830   22.1300 C   0  0  0  0  0  3  0  0  0  0  0  0
  -22.4760   -8.1370   21.3430 C   0  0  0  0  0  0  0  0  0  0  0  0
  -22.0900   -9.0850   20.3800 C   0  0  0  0  0  3  0  0  0  0  0  0
  -22.8180  -10.2750   20.2140 C   0  0  0  0  0  3  0  0  0  0  0  0
  -21.7210   -6.9910   21.4170 O   0  0  0  0  0  0  0  0  0  0  0  0
  -21.6090   -6.2760   22.5840 C   0  0  0  0  0  0  0  0  0  0  0  0
  -21.0810   -6.8500   23.7620 C   0  0  0  0  0  3  0  0  0  0  0  0
  -20.9180   -6.0600   24.9170 C   0  0  0  0  0  3  0  0  0  0  0  0
  -21.2760   -4.6980   24.8960 C   0  0  0  0  0  0  0  0  0  0  0  0
  -21.7960   -4.1250   23.7220 C   0  0  0  0  0  3  0  0  0  0  0  0
  -21.9600   -4.9110   22.5690 C   0  0  0  0  0  0  0  0  0  0  0  0
  -22.4410   -4.3490   21.4340 F   0  0  0  0  0  0  0  0  0  0  0  0
  -21.1120   -3.9360   26.0020 F   0  0  0  0  0  0  0  0  0  0  0  0
  -22.8120  -13.6310   21.1500 C   0  0  0  0  0  0  0  0  0  0  0  0
  -22.0780  -12.9230   22.0010 N   0  0  0  0  0  0  0  0  0  0  0  0
  -22.3790  -14.6640   20.6420 O   0  0  0  0  0  0  0  0  0  0  0  0
  -22.4410  -12.0850   22.4330 H   0  0  0  0  0  0  0  0  0  0  0  0
  -21.1410  -13.2240   22.2280 H   0  0  0  0  0  0  0  0  0  0  0  0
  -25.4410  -15.3070   20.3550 N   0  0  0  0  0  0  0  0  0  0  0  0
  -24.6840  -15.9690   20.4860 H   0  0  0  0  0  0  0  0  0  0  0  0
  -26.2900  -15.7420   20.0190 H   0  0  0  0  0  0  0  0  0  0  0  0
  -28.2610  -26.2930   20.1840 O   0  0  0  0  0  0  0  0  0  0  0  0
  -24.6200  -31.9030   23.2330 C   0  0  0  0  0  0  0  0  0  0  0  0
  -27.2150  -27.2690   20.1660 C   0  0  0  0  0  0  0  0  0  0  0  0
  -23.4190  -30.5110   21.5900 C   0  0  0  0  0  3  0  0  0  0  0  0
  -24.8750  -28.9650   20.1470 C   0  0  0  0  0  0  0  0  0  0  0  0
  -25.9690  -30.8080   21.4130 C   0  0  0  0  0  2  0  0  0  0  0  0
  -26.0520  -29.4230   20.7580 C   0  0  0  0  0  0  0  0  0  0  0  0
  -27.2270  -28.5900   20.7560 C   0  0  0  0  0  3  0  0  0  0  0  0
  -26.0220  -26.9020   19.5120 C   0  0  0  0  0  3  0  0  0  0  0  0
  -24.8720  -27.7160   19.5060 C   0  0  0  0  0  3  0  0  0  0  0  0
  -23.6380  -29.8450   20.2050 C   0  0  0  0  0  2  0  0  0  0  0  0
  -24.6890  -31.0940   22.1350 N   0  0  0  0  0  0  0  0  0  0  0  0
  -23.5340  -32.1770   23.7670 O   0  0  0  0  0  0  0  0  0  0  0  0
  -22.7580  -29.4890   22.5480 C   0  0  0  0  0  0  0  0  0  0  0  0
  -21.4310  -29.3030   22.4220 N   0  0  0  0  0  0  0  0  0  0  0  0
  -23.4370  -28.8670   23.3670 O   0  0  0  0  0  0  0  0  0  0  0  0
  -20.9380  -29.8600   21.7380 H   0  0  0  0  0  0  0  0  0  0  0  0
  -18.0610  -28.0780   22.9330 C   0  0  0  0  0  0  0  0  0  0  0  0
  -20.6190  -28.3560   23.1920 C   0  0  0  0  0  3  0  0  0  0  0  0
  -20.7280  -26.9270   22.6100 C   0  0  0  0  0  2  0  0  0  0  0  0
  -19.6240  -26.6010   21.5990 C   0  0  0  0  0  2  0  0  0  0  0  0
  -18.2440  -26.7340   22.2490 C   0  0  0  0  0  2  0  0  0  0  0  0
  -19.1760  -28.8460   23.3620 C   0  0  0  0  0  0  0  0  0  0  0  0
  -18.9510  -30.1030   23.9650 C   0  0  0  0  0  3  0  0  0  0  0  0
  -17.6420  -30.5920   24.1410 C   0  0  0  0  0  3  0  0  0  0  0  0
  -16.5420  -29.8240   23.7250 C   0  0  0  0  0  3  0  0  0  0  0  0
  -16.7520  -28.5680   23.1280 C   0  0  0  0  0  3  0  0  0  0  0  0
  -25.8970  -32.5400   23.8570 C   0  0  0  0  0  3  0  0  0  0  0  0
  -25.5840  -33.9410   24.1830 N   0  0  0  0  0  0  0  0  0  0  0  0
  -25.9130  -34.9940   23.4230 C   0  0  0  0  0  0  0  0  0  0  0  0
  -26.5810  -34.8900   22.3910 O   0  0  0  0  0  0  0  0  0  0  0  0
  -24.9920  -34.0960   24.9850 H   0  0  0  0  0  0  0  0  0  0  0  0
  -24.1900  -36.7930   23.0650 C   0  0  0  0  0  1  0  0  0  0  0  0
  -25.4280  -36.3840   23.8800 C   0  0  0  0  0  3  0  0  0  0  0  0
  -27.5590  -37.2720   24.7180 C   0  0  0  0  0  1  0  0  0  0  0  0
  -26.4630  -37.4360   23.7660 N   0  0  0  0  0  0  0  0  0  0  0  0
  -26.0590  -38.3580   23.9040 H   0  0  0  0  0  0  0  0  0  0  0  0
  -26.4100  -31.7760   25.1400 C   0  0  1  0  0  0  0  0  0  0  0  0
  -25.3110  -31.5450   26.2040 C   0  0  0  0  0  1  0  0  0  0  0  0
  -26.9950  -30.3960   24.7620 C   0  0  0  0  0  1  0  0  0  0  0  0
  -27.5570  -32.5740   25.8030 C   0  0  0  0  0  1  0  0  0  0  0  0
  1  3  2  0
  1  2  1  0
  2  6  2  0
  4  5  1  0
  4  1  1  0
  5  2  1  0
  7  8  2  0
  7  9  1  0
  8 11  1  0
  9 12  2  0
 11  5  1  0
 11 10  2  0
 12 10  1  0
 12 21  1  0
 13 21  1  0
 14 19  1  0
 15 16  1  0
 15 14  1  0
 17 16  1  0
 17 26  1  0
 17 18  1  0
 19 13  1  0
 19 18  1  0
 20 13  2  0
 21 22  1  0
 23 24  2  0
 24 43  1  0
 25 24  1  0
 25 28  1  0
 26 23  1  0
 26 27  1  0
 27 25  2  0
 28 29  1  0
 29 30  2  0
 31 34  1  0
 31 30  1  0
 32 31  2  0
 33 32  1  0
 33 28  2  0
 34 35  1  0
 35 36  1  0
 36 37  2  0
 38 37  1  0
 38 42  1  0
 39 38  2  0
 40 35  2  0
 40 39  1  0
 41 40  1  0
 43 44  1  0
 44 47  1  0
 44 46  1  0
 45 43  2  0
 48 49  1  0
 48 23  1  0
 50 48  1  0
 51  3  1  0
 52 63  2  0
 53 51  1  0
 53 58  1  0
 54 62  1  0
 54 64  1  0
 55 61  1  0
 55 57  1  0
 56 62  1  0
 57 56  1  0
 58 57  2  0
 59 53  2  0
 60 59  1  0
 60 55  2  0
 61 54  1  0
 62 52  1  0
 64 66  2  0
 65 64  1  0
 67 65  1  0
 68 77  2  0
 68 73  1  0
 69 65  1  0
 69 73  1  0
 70 69  1  0
 71 72  1  0
 71 70  1  0
 72 68  1  0
 73 74  2  0
 74 75  1  0
 76 75  2  0
 77 76  1  0
 78 52  1  0
 78 79  1  0
 78 88  1  0
 79 82  1  0
 80 84  1  0
 80 79  1  0
 81 80  2  0
 84 83  1  0
 86 84  1  0
 86 87  1  0
 86 85  1  0
 88 91  1  1
 88 89  1  0
 90 88  1  0
M  ISO  4   3 101  13 100  21 100  51 101
M  END
>  <TORSDO>  (79) 
F 17

>  <SCORE>  (79) 
-14.926

>  <name>  (79) 
78

>  <ligand_id>  (79) 
78

>  <original_smiles>  (79) 
[H]C(Oc1c([H])c([H])c2c(c1[H])C([H])([H])N(C(=O)C([H])(N([H])C(=O)C([H])(N([H])C([H])([H])[H])C([H])([H])[H])C(C([H])([H])[H])(C([H])([H])[H])C([H])([H])[H])C([H])(C(=O)N([H])C1([H])c3c([H])c([H])c([H])c([H])c3C([H])([H])C([H])([H])C1([H])[H])C2([H])[H])=C1C(=O)N(c2c([H])c([H])c([H])c(N([H])C(=O)N3C([H])([H])C([H])([H])C([H])([H])C([H])(n4nc(-c5c([H])c([H])c(Oc6c([H])c([H])c(F)c([H])c6F)c([H])c5[H])c(C(=O)N([H])[H])c4N([H])[H])C3([H])[H])c2[H])C1([H])[H]

>  <smiles>  (79) 
[H]C(Oc1c([H])c([H])c2c(c1[H])C([H])([H])N(C(=O)C([H])(N([H])C(=O)C([H])(N([H])C([H])([H])[H])C([H])([H])[H])C(C([H])([H])[H])(C([H])([H])[H])C([H])([H])[H])C([H])(C(=O)N([H])C1([H])c3c([H])c([H])c([H])c([H])c3C([H])([H])C([H])([H])C1([H])[H])C2([H])[H])=C1C(=O)N(c2c([H])c([H])c([H])c(N([H])C(=O)N3C([H])([H])C([H])([H])C([H])([H])C([H])(n4nc(-c5c([H])c([H])c(Oc6c([H])c([H])c(F)c([H])c6F)c([H])c5[H])c(C(=O)N([H])[H])c4N([H])[H])C3([H])[H])c2[H])C1([H])[H]

$$$$
79:0:0
     RDKit          3D

 89 98  0  0  1  0  0  0  0  0999 V2000
  -30.4200  -15.5150   20.0450 C   0  0  0  0  0  0  0  0  0  0  0  0
  -30.7180  -12.9330   19.5320 C   0  0  0  0  0  2  0  0  0  0  0  0
  -29.8900  -12.4400   18.3060 C   0  0  0  0  0  2  0  0  0  0  0  0
  -28.4360  -12.1030   18.6900 C   0  0  0  0  0  2  0  0  0  0  0  0
  -27.8530  -13.1540   19.6620 C   0  0  0  0  0  3  0  0  0  0  0  0
  -28.8330  -13.4770   20.8130 C   0  0  0  0  0  2  0  0  0  0  0  0
  -30.0260  -14.1180   20.2010 N   0  0  0  0  0  0  0  0  0  0  0  0
  -31.6430  -15.5810   19.8040 O   0  0  0  0  0  0  0  0  0  0  0  0
  -29.8400  -19.8880   19.3080 C   0  0  0  0  0  3  0  0  0  0  0  0
  -28.1480  -16.8160   20.5070 C   0  0  0  0  0  3  0  0  0  0  0  0
  -29.3320  -18.5660   19.7560 C   0  0  0  0  0  0  0  0  0  0  0  0
  -28.1070  -19.0200   20.0400 C   0  0  0  0  0  0  0  0  0  0  0  0
  -27.3390  -17.9470   20.5300 C   0  0  0  0  0  0  0  0  0  0  0  0
  -28.8820  -21.0610   19.3570 C   0  0  0  0  0  0  0  0  0  0  0  0
  -29.4800  -16.9900   20.0400 N   0  0  0  0  0  0  0  0  0  0  0  0
  -27.7690  -20.3670   19.8470 O   0  0  0  0  0  0  0  0  0  0  0  0
  -25.4430  -13.6740   20.3070 C   0  0  0  0  0  0  0  0  0  0  0  0
  -24.3850  -12.8910   20.6670 C   0  0  0  0  0  0  0  0  0  0  0  0
  -24.8760  -11.5500   20.6810 C   0  0  0  0  0  0  0  0  0  0  0  0
  -26.5130  -12.8170   20.1260 N   0  0  0  0  0  0  0  0  0  0  0  0
  -26.1810  -11.5310   20.4140 N   0  0  0  0  0  0  0  0  0  0  0  0
  -24.1600  -10.2830   20.8710 C   0  0  0  0  0  0  0  0  0  0  0  0
  -24.5730   -9.3360   21.8320 C   0  0  0  0  0  3  0  0  0  0  0  0
  -23.8510   -8.1350   22.0110 C   0  0  0  0  0  3  0  0  0  0  0  0
  -22.7010   -7.8740   21.2280 C   0  0  0  0  0  0  0  0  0  0  0  0
  -22.3080   -8.8110   20.2570 C   0  0  0  0  0  3  0  0  0  0  0  0
  -23.0290  -10.0020   20.0750 C   0  0  0  0  0  3  0  0  0  0  0  0
  -21.9550   -6.7250   21.3150 O   0  0  0  0  0  0  0  0  0  0  0  0
  -21.8610   -6.0140   22.4850 C   0  0  0  0  0  0  0  0  0  0  0  0
  -21.3510   -6.5920   23.6680 C   0  0  0  0  0  3  0  0  0  0  0  0
  -21.2070   -5.8060   24.8300 C   0  0  0  0  0  3  0  0  0  0  0  0
  -21.5630   -4.4440   24.8080 C   0  0  0  0  0  0  0  0  0  0  0  0
  -22.0660   -3.8660   23.6280 C   0  0  0  0  0  3  0  0  0  0  0  0
  -22.2110   -4.6490   22.4700 C   0  0  0  0  0  0  0  0  0  0  0  0
  -22.6760   -4.0820   21.3300 F   0  0  0  0  0  0  0  0  0  0  0  0
  -21.4170   -3.6880   25.9200 F   0  0  0  0  0  0  0  0  0  0  0  0
  -22.9740  -13.3550   20.8800 C   0  0  0  0  0  0  0  0  0  0  0  0
  -22.2350  -12.6880   21.7570 N   0  0  0  0  0  0  0  0  0  0  0  0
  -22.5340  -14.3490   20.3030 O   0  0  0  0  0  0  0  0  0  0  0  0
  -22.6030  -11.8850   22.2470 H   0  0  0  0  0  0  0  0  0  0  0  0
  -21.2880  -12.9830   21.9440 H   0  0  0  0  0  0  0  0  0  0  0  0
  -25.5680  -15.0390   20.0850 N   0  0  0  0  0  0  0  0  0  0  0  0
  -24.7960  -15.6800   20.2360 H   0  0  0  0  0  0  0  0  0  0  0  0
  -26.4040  -15.5170   19.7800 H   0  0  0  0  0  0  0  0  0  0  0  0
  -28.7480  -22.7230   19.0620 C   0  0  0  0  0  3  0  0  0  0  0  0
  -27.8840  -23.9680   19.0950 C   0  0  0  0  0  3  0  0  0  0  0  0
  -28.0170  -25.5160   18.7960 O   0  0  0  0  0  0  0  0  0  0  0  0
  -24.8310  -31.3710   22.6510 C   0  0  0  0  0  0  0  0  0  0  0  0
  -27.0430  -26.6800   18.9790 C   0  0  0  0  0  0  0  0  0  0  0  0
  -23.5030  -30.1890   20.9510 C   0  0  0  0  0  3  0  0  0  0  0  0
  -24.8150  -28.6890   19.2810 C   0  0  0  0  0  0  0  0  0  0  0  0
  -26.0680  -30.3150   20.6770 C   0  0  0  0  0  2  0  0  0  0  0  0
  -26.0530  -28.9690   19.8730 C   0  0  0  0  0  0  0  0  0  0  0  0
  -27.1530  -27.9910   19.6990 C   0  0  0  0  0  3  0  0  0  0  0  0
  -25.7750  -26.5930   18.3540 C   0  0  0  0  0  3  0  0  0  0  0  0
  -24.7070  -27.5250   18.5000 C   0  0  0  0  0  3  0  0  0  0  0  0
  -23.6350  -29.6450   19.4990 C   0  0  0  0  0  2  0  0  0  0  0  0
  -24.8270  -30.6490   21.4800 N   0  0  0  0  0  0  0  0  0  0  0  0
  -23.7820  -31.6350   23.2610 O   0  0  0  0  0  0  0  0  0  0  0  0
  -22.8250  -29.1220   21.8510 C   0  0  0  0  0  0  0  0  0  0  0  0
  -21.4800  -29.0450   21.8310 N   0  0  0  0  0  0  0  0  0  0  0  0
  -23.5160  -28.3650   22.5360 O   0  0  0  0  0  0  0  0  0  0  0  0
  -20.9750  -29.7060   21.2580 H   0  0  0  0  0  0  0  0  0  0  0  0
  -18.0840  -27.9890   22.5650 C   0  0  0  0  0  0  0  0  0  0  0  0
  -20.6710  -28.0570   22.5540 C   0  0  0  0  0  3  0  0  0  0  0  0
  -20.5950  -26.7230   21.7740 C   0  0  0  0  0  2  0  0  0  0  0  0
  -19.3680  -26.6260   20.8620 C   0  0  0  0  0  2  0  0  0  0  0  0
  -18.0800  -26.7530   21.6810 C   0  0  0  0  0  2  0  0  0  0  0  0
  -19.2990  -28.6110   22.9610 C   0  0  0  0  0  0  0  0  0  0  0  0
  -19.2420  -29.7730   23.7600 C   0  0  0  0  0  3  0  0  0  0  0  0
  -18.0050  -30.3140   24.1580 C   0  0  0  0  0  3  0  0  0  0  0  0
  -16.8070  -29.6890   23.7720 C   0  0  0  0  0  3  0  0  0  0  0  0
  -16.8480  -28.5270   22.9810 C   0  0  0  0  0  3  0  0  0  0  0  0
  -26.1530  -31.9140   23.2730 C   0  0  0  0  0  3  0  0  0  0  0  0
  -25.8620  -33.2160   23.9020 N   0  0  0  0  0  0  0  0  0  0  0  0
  -26.1540  -34.4110   23.3690 C   0  0  0  0  0  0  0  0  0  0  0  0
  -26.7550  -34.5320   22.2990 O   0  0  0  0  0  0  0  0  0  0  0  0
  -25.3190  -33.1930   24.7520 H   0  0  0  0  0  0  0  0  0  0  0  0
  -24.4230  -36.2340   23.5260 C   0  0  0  0  0  1  0  0  0  0  0  0
  -25.7130  -35.6710   24.1430 C   0  0  0  0  0  3  0  0  0  0  0  0
  -27.9020  -36.3860   25.0020 C   0  0  0  0  0  1  0  0  0  0  0  0
  -26.7450  -36.7320   24.1810 N   0  0  0  0  0  0  0  0  0  0  0  0
  -26.3550  -37.6030   24.5320 H   0  0  0  0  0  0  0  0  0  0  0  0
  -26.7830  -30.9320   24.3370 C   0  0  1  0  0  0  0  0  0  0  0  0
  -25.7950  -30.4910   25.4420 C   0  0  0  0  0  1  0  0  0  0  0  0
  -27.3240  -29.6530   23.6610 C   0  0  0  0  0  1  0  0  0  0  0  0
  -27.9940  -31.6090   25.0220 C   0  0  0  0  0  1  0  0  0  0  0  0
  -26.0450  -18.0200   20.9500 O   0  0  0  0  0  0  0  0  0  0  0  0
  -25.7010  -18.9060   20.8810 H   0  0  0  0  0  0  0  0  0  0  0  0
  1  7  1  0
  2  7  1  0
  3  4  1  0
  3  2  1  0
  5  4  1  0
  5 20  1  0
  5  6  1  0
  7  6  1  0
  8  1  2  0
  9 14  2  0
  9 11  1  0
 10 13  2  0
 11 15  1  0
 11 12  2  0
 12 13  1  0
 13 88  1  0
 14 16  1  0
 15  1  1  0
 15 10  1  0
 16 12  1  0
 17 18  2  0
 18 19  1  0
 18 37  1  0
 19 22  1  0
 20 17  1  0
 20 21  1  0
 21 19  2  0
 22 23  1  0
 23 24  2  0
 25 28  1  0
 25 24  1  0
 26 25  2  0
 27 26  1  0
 27 22  2  0
 28 29  1  0
 29 30  1  0
 30 31  2  0
 32 31  1  0
 32 36  1  0
 33 32  2  0
 34 29  2  0
 34 33  1  0
 35 34  1  0
 37 38  1  0
 38 41  1  0
 38 40  1  0
 39 37  2  0
 42 43  1  0
 42 17  1  0
 44 42  1  0
 45 46  2  0
 45 14  1  0
 47 49  1  0
 47 46  1  0
 48 59  2  0
 49 54  1  0
 50 58  1  0
 50 60  1  0
 51 57  1  0
 51 53  1  0
 52 58  1  0
 53 52  1  0
 54 53  2  0
 55 56  1  0
 55 49  2  0
 56 51  2  0
 57 50  1  0
 58 48  1  0
 60 62  2  0
 61 60  1  0
 63 61  1  0
 64 69  2  0
 64 73  1  0
 65 61  1  0
 65 69  1  0
 66 65  1  0
 67 68  1  0
 67 66  1  0
 68 64  1  0
 69 70  1  0
 70 71  2  0
 72 71  1  0
 73 72  2  0
 74 48  1  0
 74 75  1  0
 74 84  1  0
 75 78  1  0
 76 75  1  0
 76 80  1  0
 77 76  2  0
 80 79  1  0
 80 82  1  0
 82 83  1  0
 82 81  1  0
 84 87  1  1
 84 85  1  0
 86 84  1  0
 89 88  1  0
M  ISO  4   1 100  15 100  46 101  47 101
M  END
>  <TORSDO>  (80) 
F 17

>  <SCORE>  (80) 
-12.586

>  <name>  (80) 
79

>  <ligand_id>  (80) 
79

>  <original_smiles>  (80) 
[H]Oc1c([H])n(C(=O)N2C([H])([H])C([H])([H])C([H])([H])C([H])(n3nc(-c4c([H])c([H])c(Oc5c([H])c([H])c(F)c([H])c5F)c([H])c4[H])c(C(=O)N([H])[H])c3N([H])[H])C2([H])[H])c2c([H])c(C([H])=C([H])Oc3c([H])c([H])c4c(c3[H])C([H])([H])N(C(=O)C([H])(N([H])C(=O)C([H])(N([H])C([H])([H])[H])C([H])([H])[H])C(C([H])([H])[H])(C([H])([H])[H])C([H])([H])[H])C([H])(C(=O)N([H])C3([H])c5c([H])c([H])c([H])c([H])c5C([H])([H])C([H])([H])C3([H])[H])C4([H])[H])oc12

>  <smiles>  (80) 
[H]Oc1c([H])n(C(=O)N2C([H])([H])C([H])([H])C([H])([H])C([H])(n3nc(-c4c([H])c([H])c(Oc5c([H])c([H])c(F)c([H])c5F)c([H])c4[H])c(C(=O)N([H])[H])c3N([H])[H])C2([H])[H])c2c([H])c(C([H])=C([H])Oc3c([H])c([H])c4c(c3[H])C([H])([H])N(C(=O)C([H])(N([H])C(=O)C([H])(N([H])C([H])([H])[H])C([H])([H])[H])C(C([H])([H])[H])(C([H])([H])[H])C([H])([H])[H])C([H])(C(=O)N([H])C3([H])c5c([H])c([H])c([H])c([H])c5C([H])([H])C([H])([H])C3([H])[H])C4([H])[H])oc12

$$$$
80:0:0
     RDKit          3D

 92101  0  0  1  0  0  0  0  0999 V2000
  -28.8260  -23.6970   20.1340 C   0  0  0  0  0  0  0  0  0  0  0  0
  -30.1580  -23.4920   19.6180 C   0  0  0  0  0  0  0  0  0  0  0  0
  -28.3720  -22.2810   20.4280 C   0  0  0  0  0  0  0  0  0  0  0  0
  -31.0080  -24.4760   19.2810 C   0  0  0  0  0  2  0  0  0  0  0  0
  -28.0800  -24.8840   20.3400 C   0  0  0  0  0  3  0  0  0  0  0  0
  -30.4960  -21.9960   19.5420 C   0  0  0  0  0  2  0  0  0  0  0  0
  -29.3250  -21.2970   20.1000 N   0  0  0  0  0  0  0  0  0  0  0  0
  -27.2660  -22.0100   20.9060 O   0  0  0  0  0  0  0  0  0  0  0  0
  -30.1290  -18.7890   19.9520 C   0  0  0  0  0  3  0  0  0  0  0  0
  -28.3180  -17.9400   20.9130 C   0  0  0  0  0  3  0  0  0  0  0  0
  -29.5050  -17.5090   20.3690 C   0  0  0  0  0  0  0  0  0  0  0  0
  -29.2540  -19.8710   20.2730 C   0  0  0  0  0  0  0  0  0  0  0  0
  -28.1580  -19.3070   20.8660 O   0  0  0  0  0  0  0  0  0  0  0  0
  -30.6390  -14.9880   19.9370 C   0  0  0  0  0  0  0  0  0  0  0  0
  -30.5530  -12.6650   18.9350 C   0  0  0  0  0  2  0  0  0  0  0  0
  -29.5320  -12.6640   17.7700 C   0  0  0  0  0  2  0  0  0  0  0  0
  -28.0980  -12.4220   18.2890 C   0  0  0  0  0  2  0  0  0  0  0  0
  -27.7630  -13.2980   19.5230 C   0  0  0  0  0  3  0  0  0  0  0  0
  -28.8910  -13.2450   20.5770 C   0  0  0  0  0  2  0  0  0  0  0  0
  -30.1280  -13.6960   19.9160 N   0  0  0  0  0  0  0  0  0  0  0  0
  -31.7830  -15.1860   19.5120 O   0  0  0  0  0  0  0  0  0  0  0  0
  -29.7410  -16.0020   20.3170 N   0  0  0  0  0  0  0  0  0  0  0  0
  -28.9330  -15.5190   20.6800 H   0  0  0  0  0  0  0  0  0  0  0  0
  -25.4310  -13.8330   20.4440 C   0  0  0  0  0  0  0  0  0  0  0  0
  -24.3990  -13.0340   20.8550 C   0  0  0  0  0  0  0  0  0  0  0  0
  -24.8670  -11.6890   20.7330 C   0  0  0  0  0  0  0  0  0  0  0  0
  -26.4600  -12.9740   20.0930 N   0  0  0  0  0  0  0  0  0  0  0  0
  -26.1330  -11.6770   20.3300 N   0  0  0  0  0  0  0  0  0  0  0  0
  -24.1640  -10.4150   20.9200 C   0  0  0  0  0  0  0  0  0  0  0  0
  -24.5900   -9.4680   21.8780 C   0  0  0  0  0  3  0  0  0  0  0  0
  -23.8860   -8.2570   22.0510 C   0  0  0  0  0  3  0  0  0  0  0  0
  -22.7420   -7.9830   21.2660 C   0  0  0  0  0  0  0  0  0  0  0  0
  -22.3340   -8.9180   20.2980 C   0  0  0  0  0  3  0  0  0  0  0  0
  -23.0400  -10.1210   20.1220 C   0  0  0  0  0  3  0  0  0  0  0  0
  -22.0100   -6.8230   21.3460 O   0  0  0  0  0  0  0  0  0  0  0  0
  -21.8410   -6.1590   22.5360 C   0  0  0  0  0  0  0  0  0  0  0  0
  -21.2400   -6.7780   23.6540 C   0  0  0  0  0  3  0  0  0  0  0  0
  -21.0240   -6.0390   24.8340 C   0  0  0  0  0  3  0  0  0  0  0  0
  -21.3960   -4.6830   24.8950 C   0  0  0  0  0  0  0  0  0  0  0  0
  -21.9890   -4.0640   23.7800 C   0  0  0  0  0  3  0  0  0  0  0  0
  -22.2080   -4.8000   22.6030 C   0  0  0  0  0  0  0  0  0  0  0  0
  -22.7600   -4.1930   21.5250 F   0  0  0  0  0  0  0  0  0  0  0  0
  -21.1810   -3.9710   26.0260 F   0  0  0  0  0  0  0  0  0  0  0  0
  -23.0210  -13.4870   21.2420 C   0  0  0  0  0  0  0  0  0  0  0  0
  -22.3620  -12.7540   22.1330 N   0  0  0  0  0  0  0  0  0  0  0  0
  -22.5390  -14.5260   20.7910 O   0  0  0  0  0  0  0  0  0  0  0  0
  -22.7660  -11.9130   22.5190 H   0  0  0  0  0  0  0  0  0  0  0  0
  -21.4420  -13.0400   22.4350 H   0  0  0  0  0  0  0  0  0  0  0  0
  -25.5720  -15.2120   20.3160 N   0  0  0  0  0  0  0  0  0  0  0  0
  -24.8030  -15.8460   20.5040 H   0  0  0  0  0  0  0  0  0  0  0  0
  -26.3600  -15.6710   19.8760 H   0  0  0  0  0  0  0  0  0  0  0  0
  -28.3520  -26.3010   20.1430 O   0  0  0  0  0  0  0  0  0  0  0  0
  -24.6590  -31.8780   23.2100 C   0  0  0  0  0  0  0  0  0  0  0  0
  -27.2850  -27.2590   20.1230 C   0  0  0  0  0  0  0  0  0  0  0  0
  -23.4720  -30.5030   21.5420 C   0  0  0  0  0  3  0  0  0  0  0  0
  -24.9380  -28.9600   20.1020 C   0  0  0  0  0  0  0  0  0  0  0  0
  -26.0230  -30.7910   21.3970 C   0  0  0  0  0  2  0  0  0  0  0  0
  -26.1080  -29.4120   20.7280 C   0  0  0  0  0  0  0  0  0  0  0  0
  -27.2830  -28.5750   20.7290 C   0  0  0  0  0  3  0  0  0  0  0  0
  -26.0930  -26.9030   19.4540 C   0  0  0  0  0  3  0  0  0  0  0  0
  -24.9410  -27.7160   19.4520 C   0  0  0  0  0  3  0  0  0  0  0  0
  -23.7040  -29.8460   20.1550 C   0  0  0  0  0  2  0  0  0  0  0  0
  -24.7370  -31.0770   22.1050 N   0  0  0  0  0  0  0  0  0  0  0  0
  -23.5690  -32.1500   23.7360 O   0  0  0  0  0  0  0  0  0  0  0  0
  -22.7940  -29.4800   22.4840 C   0  0  0  0  0  0  0  0  0  0  0  0
  -21.4660  -29.3100   22.3490 N   0  0  0  0  0  0  0  0  0  0  0  0
  -23.4630  -28.8400   23.2990 O   0  0  0  0  0  0  0  0  0  0  0  0
  -20.9820  -29.8780   21.6680 H   0  0  0  0  0  0  0  0  0  0  0  0
  -18.0760  -28.1410   22.8590 C   0  0  0  0  0  0  0  0  0  0  0  0
  -20.6420  -28.3620   23.1040 C   0  0  0  0  0  3  0  0  0  0  0  0
  -20.7170  -26.9450   22.4870 C   0  0  0  0  0  2  0  0  0  0  0  0
  -19.5990  -26.6660   21.4770 C   0  0  0  0  0  2  0  0  0  0  0  0
  -18.2280  -26.8110   22.1410 C   0  0  0  0  0  2  0  0  0  0  0  0
  -19.2100  -28.8760   23.2970 C   0  0  0  0  0  0  0  0  0  0  0  0
  -19.0130  -30.1230   23.9320 C   0  0  0  0  0  3  0  0  0  0  0  0
  -17.7170  -30.6340   24.1310 C   0  0  0  0  0  3  0  0  0  0  0  0
  -16.5980  -29.8960   23.7060 C   0  0  0  0  0  3  0  0  0  0  0  0
  -16.7790  -28.6510   23.0780 C   0  0  0  0  0  3  0  0  0  0  0  0
  -25.9330  -32.5060   23.8530 C   0  0  0  0  0  3  0  0  0  0  0  0
  -25.6200  -33.9040   24.1910 N   0  0  0  0  0  0  0  0  0  0  0  0
  -25.9390  -34.9630   23.4350 C   0  0  0  0  0  0  0  0  0  0  0  0
  -26.5940  -34.8650   22.3950 O   0  0  0  0  0  0  0  0  0  0  0  0
  -25.0330  -34.0510   25.0000 H   0  0  0  0  0  0  0  0  0  0  0  0
  -24.1920  -36.7480   23.1320 C   0  0  0  0  0  1  0  0  0  0  0  0
  -25.4570  -36.3490   23.9080 C   0  0  0  0  0  3  0  0  0  0  0  0
  -27.6030  -37.2540   24.6880 C   0  0  0  0  0  1  0  0  0  0  0  0
  -26.4810  -37.4070   23.7650 N   0  0  0  0  0  0  0  0  0  0  0  0
  -26.0720  -38.3250   23.9130 H   0  0  0  0  0  0  0  0  0  0  0  0
  -26.4290  -31.7270   25.1340 C   0  0  1  0  0  0  0  0  0  0  0  0
  -25.3190  -31.4890   26.1840 C   0  0  0  0  0  1  0  0  0  0  0  0
  -27.0150  -30.3490   24.7480 C   0  0  0  0  0  1  0  0  0  0  0  0
  -27.5700  -32.5160   25.8160 C   0  0  0  0  0  1  0  0  0  0  0  0
  1  5  2  0
  1  3  1  0
  2  1  1  0
  3  8  2  0
  4  2  2  0
  6  2  1  0
  6  7  1  0
  7 12  1  0
  7  3  1  0
  9 12  2  0
  9 11  1  0
 11 10  2  0
 12 13  1  0
 13 10  1  0
 14 22  1  0
 15 20  1  0
 16 17  1  0
 16 15  1  0
 18 17  1  0
 18 27  1  0
 18 19  1  0
 20 14  1  0
 20 19  1  0
 21 14  2  0
 22 11  1  0
 22 23  1  0
 24 25  2  0
 25 44  1  0
 26 25  1  0
 26 29  1  0
 27 28  1  0
 27 24  1  0
 28 26  2  0
 29 30  1  0
 30 31  2  0
 32 35  1  0
 32 31  1  0
 33 32  2  0
 34 33  1  0
 34 29  2  0
 35 36  1  0
 36 41  2  0
 36 37  1  0
 37 38  2  0
 38 39  1  0
 39 43  1  0
 40 39  2  0
 41 40  1  0
 42 41  1  0
 44 45  1  0
 45 48  1  0
 45 47  1  0
 46 44  2  0
 49 24  1  0
 49 50  1  0
 51 49  1  0
 52  5  1  0
 53 64  2  0
 54 52  1  0
 54 59  1  0
 55 63  1  0
 55 65  1  0
 56 62  1  0
 56 58  1  0
 57 63  1  0
 58 59  2  0
 58 57  1  0
 60 54  2  0
 61 60  1  0
 61 56  2  0
 62 55  1  0
 63 53  1  0
 65 67  2  0
 66 65  1  0
 68 66  1  0
 69 78  2  0
 69 74  1  0
 70 66  1  0
 70 74  1  0
 71 70  1  0
 72 73  1  0
 72 71  1  0
 73 69  1  0
 74 75  2  0
 75 76  1  0
 77 76  2  0
 78 77  1  0
 79 53  1  0
 79 80  1  0
 79 89  1  0
 80 83  1  0
 81 85  1  0
 81 80  1  0
 82 81  2  0
 85 84  1  0
 87 85  1  0
 87 88  1  0
 87 86  1  0
 89 92  1  1
 89 90  1  0
 91 89  1  0
M  ISO  4   5 101  14 100  22 100  52 101
M  END
>  <TORSDO>  (81) 
F 17

>  <SCORE>  (81) 
-14.228

>  <name>  (81) 
80

>  <ligand_id>  (81) 
80

>  <original_smiles>  (81) 
[H]C([H])=C1C(=C([H])Oc2c([H])c([H])c3c(c2[H])C([H])([H])N(C(=O)C([H])(N([H])C(=O)C([H])(N([H])C([H])([H])[H])C([H])([H])[H])C(C([H])([H])[H])(C([H])([H])[H])C([H])([H])[H])C([H])(C(=O)N([H])C2([H])c4c([H])c([H])c([H])c([H])c4C([H])([H])C([H])([H])C2([H])[H])C3([H])[H])C(=O)N(c2oc([H])c(N([H])C(=O)N3C([H])([H])C([H])([H])C([H])([H])C([H])(n4nc(-c5c([H])c([H])c(Oc6c([H])c([H])c(F)c([H])c6F)c([H])c5[H])c(C(=O)N([H])[H])c4N([H])[H])C3([H])[H])c2[H])C1([H])[H]

>  <smiles>  (81) 
[H]C([H])=C1C(=C([H])Oc2c([H])c([H])c3c(c2[H])C([H])([H])N(C(=O)C([H])(N([H])C(=O)C([H])(N([H])C([H])([H])[H])C([H])([H])[H])C(C([H])([H])[H])(C([H])([H])[H])C([H])([H])[H])C([H])(C(=O)N([H])C2([H])c4c([H])c([H])c([H])c([H])c4C([H])([H])C([H])([H])C2([H])[H])C3([H])[H])C(=O)N(c2oc([H])c(N([H])C(=O)N3C([H])([H])C([H])([H])C([H])([H])C([H])(n4nc(-c5c([H])c([H])c(Oc6c([H])c([H])c(F)c([H])c6F)c([H])c5[H])c(C(=O)N([H])[H])c4N([H])[H])C3([H])[H])c2[H])C1([H])[H]

$$$$
81:0:0
     RDKit          3D

 89 98  0  0  1  0  0  0  0  0999 V2000
  -28.5190  -23.2870   20.3290 C   0  0  0  0  0  0  0  0  0  0  0  0
  -29.6490  -22.4150   19.8620 C   0  0  0  0  0  0  0  0  0  0  0  0
  -27.9380  -21.9880   20.7690 C   0  0  0  0  0  0  0  0  0  0  0  0
  -28.0080  -24.6530   20.4420 C   0  0  0  0  0  3  0  0  0  0  0  0
  -29.0200  -21.1410   20.2850 N   0  0  0  0  0  0  0  0  0  0  0  0
  -30.6960  -22.7260   19.3270 O   0  0  0  0  0  0  0  0  0  0  0  0
  -26.8930  -21.7790   21.3500 O   0  0  0  0  0  0  0  0  0  0  0  0
  -28.7540  -17.1520   20.8210 C   0  0  0  0  0  3  0  0  0  0  0  0
  -28.4110  -18.5970   20.8850 C   0  0  0  0  0  3  0  0  0  0  0  0
  -29.9180  -16.7500   20.1710 C   0  0  0  0  0  0  0  0  0  0  0  0
  -29.2530  -19.5600   20.3130 C   0  0  0  0  0  0  0  0  0  0  0  0
  -30.5910  -18.4270   19.6790 S   0  0  0  0  0  0  0  0  0  0  0  0
  -30.6690  -15.2870   19.9140 C   0  0  0  0  0  0  0  0  0  0  0  0
  -30.5890  -12.8620   19.0600 C   0  0  0  0  0  2  0  0  0  0  0  0
  -29.5890  -12.7170   17.8840 C   0  0  0  0  0  2  0  0  0  0  0  0
  -28.1670  -12.4500   18.4080 C   0  0  0  0  0  2  0  0  0  0  0  0
  -27.7960  -13.3970   19.5790 C   0  0  0  0  0  3  0  0  0  0  0  0
  -28.9140  -13.5080   20.6350 C   0  0  0  0  0  2  0  0  0  0  0  0
  -30.1220  -13.9840   19.9500 N   0  0  0  0  0  0  0  0  0  0  0  0
  -31.8410  -15.3120   19.5150 O   0  0  0  0  0  0  0  0  0  0  0  0
  -25.4970  -13.9190   20.5580 C   0  0  0  0  0  0  0  0  0  0  0  0
  -24.4650  -13.1220   20.9660 C   0  0  0  0  0  0  0  0  0  0  0  0
  -24.9160  -11.7750   20.8100 C   0  0  0  0  0  0  0  0  0  0  0  0
  -26.5100  -13.0580   20.1720 N   0  0  0  0  0  0  0  0  0  0  0  0
  -26.1760  -11.7580   20.3880 N   0  0  0  0  0  0  0  0  0  0  0  0
  -24.1960  -10.5060   20.9790 C   0  0  0  0  0  0  0  0  0  0  0  0
  -24.6300   -9.5250   21.8990 C   0  0  0  0  0  3  0  0  0  0  0  0
  -23.9060   -8.3240   22.0600 C   0  0  0  0  0  3  0  0  0  0  0  0
  -22.7340   -8.0950   21.3010 C   0  0  0  0  0  0  0  0  0  0  0  0
  -22.3200   -9.0640   20.3680 C   0  0  0  0  0  3  0  0  0  0  0  0
  -23.0450  -10.2560   20.2060 C   0  0  0  0  0  3  0  0  0  0  0  0
  -21.9810   -6.9470   21.3720 O   0  0  0  0  0  0  0  0  0  0  0  0
  -21.8420   -6.2480   22.5450 C   0  0  0  0  0  0  0  0  0  0  0  0
  -21.3000   -6.8420   23.7050 C   0  0  0  0  0  3  0  0  0  0  0  0
  -21.1100   -6.0680   24.8670 C   0  0  0  0  0  3  0  0  0  0  0  0
  -21.4530   -4.7030   24.8700 C   0  0  0  0  0  0  0  0  0  0  0  0
  -21.9870   -4.1100   23.7130 C   0  0  0  0  0  3  0  0  0  0  0  0
  -22.1790   -4.8800   22.5520 C   0  0  0  0  0  0  0  0  0  0  0  0
  -22.6750   -4.2980   21.4340 F   0  0  0  0  0  0  0  0  0  0  0  0
  -21.2640   -3.9570   25.9830 F   0  0  0  0  0  0  0  0  0  0  0  0
  -23.0990  -13.5840   21.3820 C   0  0  0  0  0  0  0  0  0  0  0  0
  -22.4500  -12.8450   22.2750 N   0  0  0  0  0  0  0  0  0  0  0  0
  -22.6230  -14.6340   20.9530 O   0  0  0  0  0  0  0  0  0  0  0  0
  -22.8570  -11.9950   22.6380 H   0  0  0  0  0  0  0  0  0  0  0  0
  -21.5380  -13.1320   22.5970 H   0  0  0  0  0  0  0  0  0  0  0  0
  -25.6510  -15.2970   20.4600 N   0  0  0  0  0  0  0  0  0  0  0  0
  -24.8840  -15.9300   20.6620 H   0  0  0  0  0  0  0  0  0  0  0  0
  -26.4650  -15.7700   20.0910 H   0  0  0  0  0  0  0  0  0  0  0  0
  -28.3550  -26.0930   20.1640 O   0  0  0  0  0  0  0  0  0  0  0  0
  -24.7880  -31.9570   23.1830 C   0  0  0  0  0  0  0  0  0  0  0  0
  -27.3440  -27.1660   20.1400 C   0  0  0  0  0  0  0  0  0  0  0  0
  -23.5840  -30.5580   21.5510 C   0  0  0  0  0  3  0  0  0  0  0  0
  -25.0300  -28.9800   20.1100 C   0  0  0  0  0  0  0  0  0  0  0  0
  -26.1430  -30.8020   21.3810 C   0  0  0  0  0  2  0  0  0  0  0  0
  -26.2150  -29.4030   20.7250 C   0  0  0  0  0  0  0  0  0  0  0  0
  -27.3710  -28.5140   20.7240 C   0  0  0  0  0  3  0  0  0  0  0  0
  -26.1380  -26.8820   19.4650 C   0  0  0  0  0  3  0  0  0  0  0  0
  -25.0100  -27.7370   19.4590 C   0  0  0  0  0  3  0  0  0  0  0  0
  -23.8050  -29.8870   20.1690 C   0  0  0  0  0  2  0  0  0  0  0  0
  -24.8590  -31.1310   22.0900 N   0  0  0  0  0  0  0  0  0  0  0  0
  -23.7030  -32.2380   23.7180 O   0  0  0  0  0  0  0  0  0  0  0  0
  -22.9120  -29.5500   22.5190 C   0  0  0  0  0  0  0  0  0  0  0  0
  -21.5850  -29.3620   22.3960 N   0  0  0  0  0  0  0  0  0  0  0  0
  -23.5890  -28.9390   23.3500 O   0  0  0  0  0  0  0  0  0  0  0  0
  -21.0920  -29.9090   21.7020 H   0  0  0  0  0  0  0  0  0  0  0  0
  -18.2190  -28.1160   22.9180 C   0  0  0  0  0  0  0  0  0  0  0  0
  -20.7750  -28.4170   23.1720 C   0  0  0  0  0  3  0  0  0  0  0  0
  -20.8930  -26.9830   22.6000 C   0  0  0  0  0  2  0  0  0  0  0  0
  -19.7920  -26.6440   21.5920 C   0  0  0  0  0  2  0  0  0  0  0  0
  -18.4110  -26.7700   22.2420 C   0  0  0  0  0  2  0  0  0  0  0  0
  -19.3280  -28.8960   23.3410 C   0  0  0  0  0  0  0  0  0  0  0  0
  -19.0910  -30.1530   23.9370 C   0  0  0  0  0  3  0  0  0  0  0  0
  -17.7800  -30.6320   24.1130 C   0  0  0  0  0  3  0  0  0  0  0  0
  -16.6850  -29.8510   23.7040 C   0  0  0  0  0  3  0  0  0  0  0  0
  -16.9060  -28.5960   23.1110 C   0  0  0  0  0  3  0  0  0  0  0  0
  -26.0650  -32.6010   23.8010 C   0  0  0  0  0  3  0  0  0  0  0  0
  -25.7410  -33.9950   24.1530 N   0  0  0  0  0  0  0  0  0  0  0  0
  -26.0390  -35.0630   23.4020 C   0  0  0  0  0  0  0  0  0  0  0  0
  -26.6800  -34.9800   22.3500 O   0  0  0  0  0  0  0  0  0  0  0  0
  -25.1630  -34.1310   24.9680 H   0  0  0  0  0  0  0  0  0  0  0  0
  -24.2770  -36.8440   23.1370 C   0  0  0  0  0  1  0  0  0  0  0  0
  -25.5540  -36.4420   23.8940 C   0  0  0  0  0  3  0  0  0  0  0  0
  -27.7060  -37.3510   24.6570 C   0  0  0  0  0  1  0  0  0  0  0  0
  -26.5690  -37.5100   23.7530 N   0  0  0  0  0  0  0  0  0  0  0  0
  -26.1560  -38.4250   23.9230 H   0  0  0  0  0  0  0  0  0  0  0  0
  -26.5960  -31.8270   25.0690 C   0  0  1  0  0  0  0  0  0  0  0  0
  -25.5120  -31.5710   26.1430 C   0  0  0  0  0  1  0  0  0  0  0  0
  -27.1920  -30.4570   24.6740 C   0  0  0  0  0  1  0  0  0  0  0  0
  -27.7430  -32.6300   25.7290 C   0  0  0  0  0  1  0  0  0  0  0  0
  1  4  2  0
  1  3  1  0
  2  5  1  0
  2  1  1  0
  3  7  2  0
  5 11  1  0
  5  3  1  0
  6  2  2  0
  8  9  1  0
 10  8  2  0
 11  9  2  0
 12 10  1  0
 12 11  1  0
 13 19  1  0
 13 10  1  0
 14 19  1  0
 15 16  1  0
 15 14  1  0
 17 16  1  0
 17 24  1  0
 17 18  1  0
 19 18  1  0
 20 13  2  0
 21 22  2  0
 22 41  1  0
 23 22  1  0
 23 26  1  0
 24 25  1  0
 24 21  1  0
 25 23  2  0
 26 27  1  0
 27 28  2  0
 29 32  1  0
 29 28  1  0
 30 29  2  0
 31 30  1  0
 31 26  2  0
 32 33  1  0
 33 38  2  0
 33 34  1  0
 34 35  2  0
 35 36  1  0
 36 40  1  0
 37 36  2  0
 38 37  1  0
 39 38  1  0
 41 42  1  0
 42 45  1  0
 42 44  1  0
 43 41  2  0
 46 21  1  0
 46 47  1  0
 48 46  1  0
 49  4  1  0
 50 61  2  0
 51 49  1  0
 51 56  1  0
 52 60  1  0
 52 62  1  0
 53 59  1  0
 53 55  1  0
 54 60  1  0
 55 54  1  0
 56 55  2  0
 57 51  2  0
 58 57  1  0
 58 53  2  0
 59 52  1  0
 60 50  1  0
 62 64  2  0
 63 62  1  0
 65 63  1  0
 66 75  2  0
 66 71  1  0
 67 63  1  0
 67 71  1  0
 68 67  1  0
 69 70  1  0
 69 68  1  0
 70 66  1  0
 71 72  2  0
 72 73  1  0
 74 73  2  0
 75 74  1  0
 76 50  1  0
 76 77  1  0
 76 86  1  0
 77 80  1  0
 78 82  1  0
 78 77  1  0
 79 78  2  0
 82 81  1  0
 84 82  1  0
 84 85  1  0
 84 83  1  0
 86 89  1  1
 86 87  1  0
 88 86  1  0
M  ISO  4   4 101  10 100  13 100  49 101
M  END
>  <TORSDO>  (82) 
F 17

>  <SCORE>  (82) 
-13.771

>  <name>  (82) 
81

>  <ligand_id>  (82) 
81

>  <original_smiles>  (82) 
[H]C(Oc1c([H])c([H])c2c(c1[H])C([H])([H])N(C(=O)C([H])(N([H])C(=O)C([H])(N([H])C([H])([H])[H])C([H])([H])[H])C(C([H])([H])[H])(C([H])([H])[H])C([H])([H])[H])C([H])(C(=O)N([H])C1([H])c3c([H])c([H])c([H])c([H])c3C([H])([H])C([H])([H])C1([H])[H])C2([H])[H])=C1C(=O)N(c2sc(C(=O)N3C([H])([H])C([H])([H])C([H])([H])C([H])(n4nc(-c5c([H])c([H])c(Oc6c([H])c([H])c(F)c([H])c6F)c([H])c5[H])c(C(=O)N([H])[H])c4N([H])[H])C3([H])[H])c([H])c2[H])C1=O

>  <smiles>  (82) 
[H]C(Oc1c([H])c([H])c2c(c1[H])C([H])([H])N(C(=O)C([H])(N([H])C(=O)C([H])(N([H])C([H])([H])[H])C([H])([H])[H])C(C([H])([H])[H])(C([H])([H])[H])C([H])([H])[H])C([H])(C(=O)N([H])C1([H])c3c([H])c([H])c([H])c([H])c3C([H])([H])C([H])([H])C1([H])[H])C2([H])[H])=C1C(=O)N(c2sc(C(=O)N3C([H])([H])C([H])([H])C([H])([H])C([H])(n4nc(-c5c([H])c([H])c(Oc6c([H])c([H])c(F)c([H])c6F)c([H])c5[H])c(C(=O)N([H])[H])c4N([H])[H])C3([H])[H])c([H])c2[H])C1=O

$$$$
82:0:0
     RDKit          3D

 94103  0  0  1  0  0  0  0  0999 V2000
  -28.8290  -24.0070   19.0320 C   0  0  0  0  0  0  0  0  0  0  0  0
  -29.1370  -23.4360   17.7400 C   0  0  0  0  0  0  0  0  0  0  0  0
  -28.9510  -22.8290   19.9700 C   0  0  0  0  0  0  0  0  0  0  0  0
  -28.9500  -24.0110   16.5350 C   0  0  0  0  0  2  0  0  0  0  0  0
  -28.5320  -25.3740   19.1600 C   0  0  0  0  0  3  0  0  0  0  0  0
  -29.6460  -22.0350   17.8830 C   0  0  0  0  0  2  0  0  0  0  0  0
  -29.3860  -21.6860   19.2770 N   0  0  0  0  0  0  0  0  0  0  0  0
  -28.7060  -22.8430   21.1810 O   0  0  0  0  0  0  0  0  0  0  0  0
  -30.5510  -19.4330   18.9360 C   0  0  0  0  0  3  0  0  0  0  0  0
  -30.6970  -18.0140   19.1100 C   0  0  0  0  0  3  0  0  0  0  0  0
  -28.8330  -19.5030   20.5880 C   0  0  0  0  0  3  0  0  0  0  0  0
  -29.6050  -20.2460   19.6470 C   0  0  0  0  0  0  0  0  0  0  0  0
  -29.8810  -17.2720   20.0070 C   0  0  0  0  0  0  0  0  0  0  0  0
  -28.9570  -18.0760   20.7460 C   0  0  0  0  0  0  0  0  0  0  0  0
  -28.1300  -17.4520   21.6200 F   0  0  0  0  0  0  0  0  0  0  0  0
  -30.5870  -14.7340   19.6340 C   0  0  0  0  0  0  0  0  0  0  0  0
  -30.2660  -12.5090   18.5300 C   0  0  0  0  0  2  0  0  0  0  0  0
  -29.1900  -12.6670   17.4300 C   0  0  0  0  0  2  0  0  0  0  0  0
  -27.7760  -12.4890   18.0160 C   0  0  0  0  0  2  0  0  0  0  0  0
  -27.5640  -13.3010   19.3210 C   0  0  0  0  0  3  0  0  0  0  0  0
  -28.7430  -13.1140   20.3020 C   0  0  0  0  0  2  0  0  0  0  0  0
  -29.9740  -13.4990   19.5940 N   0  0  0  0  0  0  0  0  0  0  0  0
  -31.6930  -14.8880   19.1090 O   0  0  0  0  0  0  0  0  0  0  0  0
  -29.8610  -15.7890   20.1630 N   0  0  0  0  0  0  0  0  0  0  0  0
  -29.0690  -15.4720   20.7040 H   0  0  0  0  0  0  0  0  0  0  0  0
  -25.2800  -13.8820   20.3390 C   0  0  0  0  0  0  0  0  0  0  0  0
  -24.2520  -13.1020   20.7920 C   0  0  0  0  0  0  0  0  0  0  0  0
  -24.6890  -11.7490   20.6480 C   0  0  0  0  0  0  0  0  0  0  0  0
  -26.2780  -13.0040   19.9450 N   0  0  0  0  0  0  0  0  0  0  0  0
  -25.9350  -11.7130   20.1910 N   0  0  0  0  0  0  0  0  0  0  0  0
  -23.9690  -10.4870   20.8620 C   0  0  0  0  0  0  0  0  0  0  0  0
  -24.4610   -9.4970   21.7420 C   0  0  0  0  0  3  0  0  0  0  0  0
  -23.7410   -8.3000   21.9470 C   0  0  0  0  0  3  0  0  0  0  0  0
  -22.5160   -8.0830   21.2730 C   0  0  0  0  0  0  0  0  0  0  0  0
  -22.0430   -9.0620   20.3810 C   0  0  0  0  0  3  0  0  0  0  0  0
  -22.7630  -10.2510   20.1740 C   0  0  0  0  0  3  0  0  0  0  0  0
  -21.7620   -6.9410   21.3900 O   0  0  0  0  0  0  0  0  0  0  0  0
  -21.7480   -6.2030   22.5470 C   0  0  0  0  0  0  0  0  0  0  0  0
  -21.3660   -6.7660   23.7840 C   0  0  0  0  0  3  0  0  0  0  0  0
  -21.2980   -5.9550   24.9340 C   0  0  0  0  0  3  0  0  0  0  0  0
  -21.6010   -4.5830   24.8490 C   0  0  0  0  0  0  0  0  0  0  0  0
  -21.9770   -4.0200   23.6160 C   0  0  0  0  0  3  0  0  0  0  0  0
  -22.0470   -4.8280   22.4680 C   0  0  0  0  0  0  0  0  0  0  0  0
  -22.3880   -4.2760   21.2790 F   0  0  0  0  0  0  0  0  0  0  0  0
  -21.5290   -3.8020   25.9530 F   0  0  0  0  0  0  0  0  0  0  0  0
  -22.9020  -13.5800   21.2430 C   0  0  0  0  0  0  0  0  0  0  0  0
  -22.2760  -12.8620   22.1690 N   0  0  0  0  0  0  0  0  0  0  0  0
  -22.4160  -14.6230   20.8100 O   0  0  0  0  0  0  0  0  0  0  0  0
  -22.6840  -12.0180   22.5410 H   0  0  0  0  0  0  0  0  0  0  0  0
  -21.3750  -13.1640   22.5140 H   0  0  0  0  0  0  0  0  0  0  0  0
  -25.4440  -15.2570   20.2060 N   0  0  0  0  0  0  0  0  0  0  0  0
  -24.7110  -15.9150   20.4460 H   0  0  0  0  0  0  0  0  0  0  0  0
  -26.2610  -15.7070   19.8140 H   0  0  0  0  0  0  0  0  0  0  0  0
  -28.2760  -26.2880   20.2090 O   0  0  0  0  0  0  0  0  0  0  0  0
  -24.5950  -31.7720   23.2370 C   0  0  0  0  0  0  0  0  0  0  0  0
  -27.2150  -27.2240   20.1090 C   0  0  0  0  0  0  0  0  0  0  0  0
  -23.4040  -30.4100   21.5590 C   0  0  0  0  0  3  0  0  0  0  0  0
  -24.8640  -28.8810   20.1090 C   0  0  0  0  0  0  0  0  0  0  0  0
  -25.9500  -30.7080   21.4120 C   0  0  0  0  0  2  0  0  0  0  0  0
  -26.0320  -29.3400   20.7320 C   0  0  0  0  0  0  0  0  0  0  0  0
  -27.2080  -28.5210   20.7280 C   0  0  0  0  0  3  0  0  0  0  0  0
  -26.0200  -26.8290   19.4670 C   0  0  0  0  0  3  0  0  0  0  0  0
  -24.8630  -27.6340   19.4670 C   0  0  0  0  0  3  0  0  0  0  0  0
  -23.6310  -29.7620   20.1670 C   0  0  0  0  0  2  0  0  0  0  0  0
  -24.6690  -30.9800   22.1260 N   0  0  0  0  0  0  0  0  0  0  0  0
  -23.5080  -32.0450   23.7650 O   0  0  0  0  0  0  0  0  0  0  0  0
  -22.7250  -29.3790   22.4930 C   0  0  0  0  0  0  0  0  0  0  0  0
  -21.3990  -29.2120   22.3530 N   0  0  0  0  0  0  0  0  0  0  0  0
  -23.3920  -28.7340   23.3070 O   0  0  0  0  0  0  0  0  0  0  0  0
  -20.9190  -29.7840   21.6710 H   0  0  0  0  0  0  0  0  0  0  0  0
  -18.0110  -28.0150   22.7970 C   0  0  0  0  0  0  0  0  0  0  0  0
  -20.5680  -28.2640   23.0990 C   0  0  0  0  0  3  0  0  0  0  0  0
  -20.6720  -26.8420   22.5000 C   0  0  0  0  0  2  0  0  0  0  0  0
  -19.5800  -26.5390   21.4690 C   0  0  0  0  0  2  0  0  0  0  0  0
  -18.1920  -26.6770   22.1000 C   0  0  0  0  0  2  0  0  0  0  0  0
  -19.1280  -28.7670   23.2520 C   0  0  0  0  0  0  0  0  0  0  0  0
  -18.9040  -30.0200   23.8640 C   0  0  0  0  0  3  0  0  0  0  0  0
  -17.5980  -30.5210   24.0250 C   0  0  0  0  0  3  0  0  0  0  0  0
  -16.4980  -29.7660   23.5850 C   0  0  0  0  0  3  0  0  0  0  0  0
  -16.7050  -28.5150   22.9770 C   0  0  0  0  0  3  0  0  0  0  0  0
  -25.8730  -32.3890   23.8840 C   0  0  0  0  0  3  0  0  0  0  0  0
  -25.5720  -33.7890   24.2150 N   0  0  0  0  0  0  0  0  0  0  0  0
  -25.9170  -34.8420   23.4610 C   0  0  0  0  0  0  0  0  0  0  0  0
  -26.5900  -34.7350   22.4310 O   0  0  0  0  0  0  0  0  0  0  0  0
  -24.9740  -33.9460   25.0130 H   0  0  0  0  0  0  0  0  0  0  0  0
  -24.2020  -36.6500   23.1100 C   0  0  0  0  0  1  0  0  0  0  0  0
  -25.4400  -36.2330   23.9200 C   0  0  0  0  0  3  0  0  0  0  0  0
  -27.5820  -37.1020   24.7520 C   0  0  0  0  0  1  0  0  0  0  0  0
  -26.4810  -37.2800   23.8080 N   0  0  0  0  0  0  0  0  0  0  0  0
  -26.0820  -38.2030   23.9560 H   0  0  0  0  0  0  0  0  0  0  0  0
  -26.3570  -31.6090   25.1690 C   0  0  1  0  0  0  0  0  0  0  0  0
  -25.2420  -31.3840   26.2170 C   0  0  0  0  0  1  0  0  0  0  0  0
  -26.9290  -30.2240   24.7870 C   0  0  0  0  0  1  0  0  0  0  0  0
  -27.5050  -32.3880   25.8520 C   0  0  0  0  0  1  0  0  0  0  0  0
  1  5  2  0
  1  3  1  0
  2  6  1  0
  2  1  1  0
  3  8  2  0
  4  2  2  0
  5 54  1  0
  6  7  1  0
  7 12  1  0
  7  3  1  0
  9 10  2  0
  9 12  1  0
 10 13  1  0
 11 14  1  0
 12 11  2  0
 13 24  1  0
 13 14  2  0
 14 15  1  0
 16 24  1  0
 17 22  1  0
 18 19  1  0
 18 17  1  0
 20 19  1  0
 20 29  1  0
 20 21  1  0
 22 16  1  0
 22 21  1  0
 23 16  2  0
 24 25  1  0
 26 27  2  0
 27 46  1  0
 28 27  1  0
 28 31  1  0
 29 30  1  0
 29 26  1  0
 30 28  2  0
 31 32  1  0
 32 33  2  0
 34 37  1  0
 34 33  1  0
 35 34  2  0
 36 35  1  0
 36 31  2  0
 37 38  1  0
 38 39  1  0
 39 40  2  0
 41 40  1  0
 41 45  1  0
 42 41  2  0
 43 38  2  0
 43 42  1  0
 44 43  1  0
 46 47  1  0
 47 50  1  0
 47 49  1  0
 48 46  2  0
 51 26  1  0
 51 52  1  0
 53 51  1  0
 55 66  2  0
 56 54  1  0
 56 61  1  0
 57 65  1  0
 57 67  1  0
 58 64  1  0
 58 60  1  0
 59 65  1  0
 60 59  1  0
 61 60  2  0
 62 63  1  0
 62 56  2  0
 63 58  2  0
 64 57  1  0
 65 55  1  0
 67 69  2  0
 68 67  1  0
 70 68  1  0
 71 80  2  0
 71 76  1  0
 72 68  1  0
 72 76  1  0
 73 72  1  0
 74 75  1  0
 74 73  1  0
 75 71  1  0
 76 77  2  0
 77 78  1  0
 79 78  2  0
 80 79  1  0
 81 55  1  0
 81 82  1  0
 81 91  1  0
 82 85  1  0
 83 87  1  0
 83 82  1  0
 84 83  2  0
 87 86  1  0
 89 87  1  0
 89 90  1  0
 89 88  1  0
 91 94  1  1
 91 92  1  0
 93 91  1  0
M  ISO  4   5 101  16 100  24 100  54 101
M  END
>  <TORSDO>  (83) 
F 17

>  <SCORE>  (83) 
-13.540

>  <name>  (83) 
82

>  <ligand_id>  (83) 
82

>  <original_smiles>  (83) 
[H]C([H])=C1C(=C([H])Oc2c([H])c([H])c3c(c2[H])C([H])([H])N(C(=O)C([H])(N([H])C(=O)C([H])(N([H])C([H])([H])[H])C([H])([H])[H])C(C([H])([H])[H])(C([H])([H])[H])C([H])([H])[H])C([H])(C(=O)N([H])C2([H])c4c([H])c([H])c([H])c([H])c4C([H])([H])C([H])([H])C2([H])[H])C3([H])[H])C(=O)N(c2c([H])c([H])c(N([H])C(=O)N3C([H])([H])C([H])([H])C([H])([H])C([H])(n4nc(-c5c([H])c([H])c(Oc6c([H])c([H])c(F)c([H])c6F)c([H])c5[H])c(C(=O)N([H])[H])c4N([H])[H])C3([H])[H])c(F)c2[H])C1([H])[H]

>  <smiles>  (83) 
[H]C([H])=C1C(=C([H])Oc2c([H])c([H])c3c(c2[H])C([H])([H])N(C(=O)C([H])(N([H])C(=O)C([H])(N([H])C([H])([H])[H])C([H])([H])[H])C(C([H])([H])[H])(C([H])([H])[H])C([H])([H])[H])C([H])(C(=O)N([H])C2([H])c4c([H])c([H])c([H])c([H])c4C([H])([H])C([H])([H])C2([H])[H])C3([H])[H])C(=O)N(c2c([H])c([H])c(N([H])C(=O)N3C([H])([H])C([H])([H])C([H])([H])C([H])(n4nc(-c5c([H])c([H])c(Oc6c([H])c([H])c(F)c([H])c6F)c([H])c5[H])c(C(=O)N([H])[H])c4N([H])[H])C3([H])[H])c(F)c2[H])C1([H])[H]

$$$$
83:0:0
     RDKit          3D

 97105  0  0  1  0  0  0  0  0999 V2000
  -29.5270  -21.1310   19.5410 C   0  0  0  0  0  0  0  0  0  0  0  0
  -29.0310  -23.5710   20.1020 C   0  0  0  0  0  0  0  0  0  0  0  0
  -29.2180  -22.1510   20.3890 N   0  0  0  0  0  0  0  0  0  0  0  0
  -29.7420  -21.3730   18.2430 N   0  0  0  0  0  4  0  0  0  0  0  0
  -29.1480  -24.0060   18.9490 O   0  0  0  0  0  0  0  0  0  0  0  0
  -29.0910  -21.8450   21.3430 H   0  0  0  0  0  0  0  0  0  0  0  0
  -30.0390  -20.6330   17.6270 H   0  0  0  0  0  0  0  0  0  0  0  0
  -29.6630  -22.3220   17.8980 H   0  0  0  0  0  0  0  0  0  0  0  0
  -30.3790  -19.2810   21.0980 C   0  0  0  0  0  3  0  0  0  0  0  0
  -29.0220  -18.6900   19.1810 C   0  0  0  0  0  3  0  0  0  0  0  0
  -30.5080  -17.9010   21.4220 C   0  0  0  0  0  3  0  0  0  0  0  0
  -29.1490  -17.3170   19.5020 C   0  0  0  0  0  3  0  0  0  0  0  0
  -29.6350  -19.7000   19.9660 C   0  0  0  0  0  0  0  0  0  0  0  0
  -29.9060  -16.8980   20.6210 C   0  0  0  0  0  0  0  0  0  0  0  0
  -30.6400  -14.5260   20.3990 C   0  0  0  0  0  0  0  0  0  0  0  0
  -30.3660  -12.3570   19.2410 C   0  0  0  0  0  2  0  0  0  0  0  0
  -29.4120  -12.5660   18.0460 C   0  0  0  0  0  2  0  0  0  0  0  0
  -27.9410  -12.4210   18.4830 C   0  0  0  0  0  2  0  0  0  0  0  0
  -27.6120  -13.2420   19.7590 C   0  0  0  0  0  3  0  0  0  0  0  0
  -28.6750  -13.0050   20.8550 C   0  0  0  0  0  2  0  0  0  0  0  0
  -29.9960  -13.3280   20.2860 N   0  0  0  0  0  0  0  0  0  0  0  0
  -31.7570  -14.7280   19.9100 O   0  0  0  0  0  0  0  0  0  0  0  0
  -29.9320  -15.5110   20.9960 N   0  0  0  0  0  0  0  0  0  0  0  0
  -29.0870  -15.1800   21.4340 H   0  0  0  0  0  0  0  0  0  0  0  0
  -25.2180  -13.8530   20.4770 C   0  0  0  0  0  0  0  0  0  0  0  0
  -24.1500  -13.0810   20.8510 C   0  0  0  0  0  0  0  0  0  0  0  0
  -24.6090  -11.7290   20.8190 C   0  0  0  0  0  0  0  0  0  0  0  0
  -26.2610  -12.9690   20.2420 N   0  0  0  0  0  0  0  0  0  0  0  0
  -25.8980  -11.6880   20.5040 N   0  0  0  0  0  0  0  0  0  0  0  0
  -23.8830  -10.4680   21.0130 C   0  0  0  0  0  0  0  0  0  0  0  0
  -24.3140   -9.5050   21.9520 C   0  0  0  0  0  3  0  0  0  0  0  0
  -23.5870   -8.3090   22.1330 C   0  0  0  0  0  3  0  0  0  0  0  0
  -22.4170   -8.0660   21.3770 C   0  0  0  0  0  0  0  0  0  0  0  0
  -22.0050   -9.0180   20.4270 C   0  0  0  0  0  3  0  0  0  0  0  0
  -22.7320  -10.2060   20.2430 C   0  0  0  0  0  3  0  0  0  0  0  0
  -21.6640   -6.9210   21.4670 O   0  0  0  0  0  0  0  0  0  0  0  0
  -21.6050   -6.1860   22.6240 C   0  0  0  0  0  0  0  0  0  0  0  0
  -21.1540   -6.7460   23.8390 C   0  0  0  0  0  3  0  0  0  0  0  0
  -21.0440   -5.9370   24.9890 C   0  0  0  0  0  3  0  0  0  0  0  0
  -21.3760   -4.5700   24.9230 C   0  0  0  0  0  0  0  0  0  0  0  0
  -21.8220   -4.0110   23.7130 C   0  0  0  0  0  3  0  0  0  0  0  0
  -21.9330   -4.8170   22.5650 C   0  0  0  0  0  0  0  0  0  0  0  0
  -22.3420   -4.2680   21.3960 F   0  0  0  0  0  0  0  0  0  0  0  0
  -21.2640   -3.7920   26.0240 F   0  0  0  0  0  0  0  0  0  0  0  0
  -22.7550  -13.5610   21.1310 C   0  0  0  0  0  0  0  0  0  0  0  0
  -22.0280  -12.8630   21.9960 N   0  0  0  0  0  0  0  0  0  0  0  0
  -22.3180  -14.5900   20.6180 O   0  0  0  0  0  0  0  0  0  0  0  0
  -22.3940  -12.0290   22.4340 H   0  0  0  0  0  0  0  0  0  0  0  0
  -21.0920  -13.1670   22.2250 H   0  0  0  0  0  0  0  0  0  0  0  0
  -25.3830  -15.2230   20.3000 N   0  0  0  0  0  0  0  0  0  0  0  0
  -24.6150  -15.8760   20.4140 H   0  0  0  0  0  0  0  0  0  0  0  0
  -26.2310  -15.6650   19.9690 H   0  0  0  0  0  0  0  0  0  0  0  0
  -28.4190  -25.7020   21.2990 C   0  0  0  0  0  3  0  0  0  0  0  0
  -28.6950  -24.3660   21.2930 C   0  0  0  0  0  0  0  0  0  0  0  0
  -28.6550  -23.7070   22.4660 O   0  0  0  0  0  0  0  0  0  0  0  0
  -28.4290  -24.3360   23.1390 H   0  0  0  0  0  0  0  0  0  0  0  0
  -28.3890  -26.5950   20.2430 O   0  0  0  0  0  0  0  0  0  0  0  0
  -24.5830  -31.8770   23.2430 C   0  0  0  0  0  0  0  0  0  0  0  0
  -27.2750  -27.4130   20.2100 C   0  0  0  0  0  0  0  0  0  0  0  0
  -23.4050  -30.4720   21.5830 C   0  0  0  0  0  3  0  0  0  0  0  0
  -24.8860  -28.9370   20.1770 C   0  0  0  0  0  0  0  0  0  0  0  0
  -25.9360  -30.8300   21.4260 C   0  0  0  0  0  2  0  0  0  0  0  0
  -26.0360  -29.4560   20.7860 C   0  0  0  0  0  0  0  0  0  0  0  0
  -27.2370  -28.7020   20.8010 C   0  0  0  0  0  3  0  0  0  0  0  0
  -26.1110  -26.9170   19.5900 C   0  0  0  0  0  3  0  0  0  0  0  0
  -24.9190  -27.6660   19.5740 C   0  0  0  0  0  3  0  0  0  0  0  0
  -23.6380  -29.7940   20.2070 C   0  0  0  0  0  2  0  0  0  0  0  0
  -24.6580  -31.0750   22.1420 N   0  0  0  0  0  0  0  0  0  0  0  0
  -23.4920  -32.1480   23.7660 O   0  0  0  0  0  0  0  0  0  0  0  0
  -22.7380  -29.4520   22.5340 C   0  0  0  0  0  0  0  0  0  0  0  0
  -21.4140  -29.2720   22.3910 N   0  0  0  0  0  0  0  0  0  0  0  0
  -23.4100  -28.8230   23.3570 O   0  0  0  0  0  0  0  0  0  0  0  0
  -20.9330  -29.8320   21.7010 H   0  0  0  0  0  0  0  0  0  0  0  0
  -18.0300  -28.0890   22.8550 C   0  0  0  0  0  0  0  0  0  0  0  0
  -20.5870  -28.3340   23.1490 C   0  0  0  0  0  3  0  0  0  0  0  0
  -20.6870  -26.9060   22.5660 C   0  0  0  0  0  2  0  0  0  0  0  0
  -19.5930  -26.5940   21.5410 C   0  0  0  0  0  2  0  0  0  0  0  0
  -18.2060  -26.7430   22.1740 C   0  0  0  0  0  2  0  0  0  0  0  0
  -19.1480  -28.8440   23.2980 C   0  0  0  0  0  0  0  0  0  0  0  0
  -18.9310  -30.1050   23.8940 C   0  0  0  0  0  3  0  0  0  0  0  0
  -17.6270  -30.6120   24.0500 C   0  0  0  0  0  3  0  0  0  0  0  0
  -16.5240  -29.8560   23.6230 C   0  0  0  0  0  3  0  0  0  0  0  0
  -16.7250  -28.5960   23.0310 C   0  0  0  0  0  3  0  0  0  0  0  0
  -25.8580  -32.5110   23.8820 C   0  0  0  0  0  3  0  0  0  0  0  0
  -26.3520  -31.7480   25.1730 C   0  0  1  0  0  0  0  0  0  0  0  0
  -25.2400  -31.5190   26.2220 C   0  0  0  0  0  1  0  0  0  0  0  0
  -26.9400  -30.3670   24.7990 C   0  0  0  0  0  1  0  0  0  0  0  0
  -27.4910  -32.5460   25.8490 C   0  0  0  0  0  1  0  0  0  0  0  0
  -25.5460  -33.9120   24.1950 N   0  0  0  0  0  0  0  0  0  0  0  0
  -25.8940  -34.9570   23.4300 C   0  0  0  0  0  0  0  0  0  0  0  0
  -26.5820  -34.8420   22.4120 O   0  0  0  0  0  0  0  0  0  0  0  0
  -24.9370  -34.0760   24.9830 H   0  0  0  0  0  0  0  0  0  0  0  0
  -24.1810  -36.7520   23.0250 C   0  0  0  0  0  1  0  0  0  0  0  0
  -25.4030  -36.3510   23.8670 C   0  0  0  0  0  3  0  0  0  0  0  0
  -27.5200  -37.2360   24.7390 C   0  0  0  0  0  1  0  0  0  0  0  0
  -26.4420  -37.3990   23.7680 N   0  0  0  0  0  0  0  0  0  0  0  0
  -26.0350  -38.3220   23.8970 H   0  0  0  0  0  0  0  0  0  0  0  0
  1 13  1  0
  1  3  1  0
  2  3  1  0
  2 54  1  0
  3  6  1  0
  4  1  2  0
  5  2  2  0
  7  4  1  0
  8  4  1  0
  9 11  1  0
 10 12  2  0
 10 13  1  0
 12 14  1  0
 13  9  2  0
 14 23  1  0
 14 11  2  0
 15 23  1  0
 16 21  1  0
 17 18  1  0
 17 16  1  0
 19 18  1  0
 19 28  1  0
 19 20  1  0
 21 15  1  0
 21 20  1  0
 22 15  2  0
 23 24  1  0
 25 26  2  0
 26 45  1  0
 27 26  1  0
 27 30  1  0
 28 25  1  0
 28 29  1  0
 29 27  2  0
 30 31  1  0
 31 32  2  0
 33 36  1  0
 33 32  1  0
 34 33  2  0
 35 34  1  0
 35 30  2  0
 36 37  1  0
 37 38  1  0
 38 39  2  0
 40 39  1  0
 40 44  1  0
 41 40  2  0
 42 37  2  0
 42 41  1  0
 43 42  1  0
 45 46  1  0
 46 49  1  0
 46 48  1  0
 47 45  2  0
 50 51  1  0
 50 25  1  0
 52 50  1  0
 54 53  2  0
 54 55  1  0
 55 56  1  0
 57 53  1  0
 58 69  2  0
 59 57  1  0
 59 64  1  0
 60 68  1  0
 60 70  1  0
 61 67  1  0
 61 63  1  0
 62 68  1  0
 63 64  2  0
 63 62  1  0
 65 59  2  0
 66 65  1  0
 66 61  2  0
 67 60  1  0
 68 58  1  0
 70 72  2  0
 71 70  1  0
 73 71  1  0
 74 83  2  0
 74 79  1  0
 75 71  1  0
 75 79  1  0
 76 75  1  0
 77 78  1  0
 77 76  1  0
 78 74  1  0
 79 80  2  0
 80 81  1  0
 82 81  2  0
 83 82  1  0
 84 58  1  0
 84 89  1  0
 84 85  1  0
 85 88  1  1
 85 86  1  0
 87 85  1  0
 89 92  1  0
 90 94  1  0
 90 89  1  0
 91 90  2  0
 94 93  1  0
 96 94  1  0
 96 97  1  0
 96 95  1  0
M  ISO  4  15 100  23 100  53 101  57 101
M  END
>  <TORSDO>  (84) 
F 19

>  <SCORE>  (84) 
-14.847

>  <name>  (84) 
83

>  <ligand_id>  (84) 
83

>  <original_smiles>  (84) 
[H]OC(C(=O)N([H])C(c1c([H])c([H])c(N([H])C(=O)N2C([H])([H])C([H])([H])C([H])([H])C([H])(n3nc(-c4c([H])c([H])c(Oc5c([H])c([H])c(F)c([H])c5F)c([H])c4[H])c(C(=O)N([H])[H])c3N([H])[H])C2([H])[H])c([H])c1[H])=[N+]([H])[H])=C([H])Oc1c([H])c([H])c2c(c1[H])C([H])([H])N(C(=O)C([H])(N([H])C(=O)C([H])(N([H])C([H])([H])[H])C([H])([H])[H])C(C([H])([H])[H])(C([H])([H])[H])C([H])([H])[H])C([H])(C(=O)N([H])C1([H])c3c([H])c([H])c([H])c([H])c3C([H])([H])C([H])([H])C1([H])[H])C2([H])[H]

>  <smiles>  (84) 
[H]OC(C(=O)N([H])C(c1c([H])c([H])c(N([H])C(=O)N2C([H])([H])C([H])([H])C([H])([H])C([H])(n3nc(-c4c([H])c([H])c(Oc5c([H])c([H])c(F)c([H])c5F)c([H])c4[H])c(C(=O)N([H])[H])c3N([H])[H])C2([H])[H])c([H])c1[H])=[N+]([H])[H])=C([H])Oc1c([H])c([H])c2c(c1[H])C([H])([H])N(C(=O)C([H])(N([H])C(=O)C([H])(N([H])C([H])([H])[H])C([H])([H])[H])C(C([H])([H])[H])(C([H])([H])[H])C([H])([H])[H])C([H])(C(=O)N([H])C1([H])c3c([H])c([H])c([H])c([H])c3C([H])([H])C([H])([H])C1([H])[H])C2([H])[H]

$$$$
84:0:0
     RDKit          3D

 92101  0  0  1  0  0  0  0  0999 V2000
  -29.3790  -19.1020   18.4780 C   0  0  0  0  0  3  0  0  0  0  0  0
  -29.6430  -17.7560   18.8750 C   0  0  0  0  0  3  0  0  0  0  0  0
  -29.8340  -18.5170   21.1530 C   0  0  0  0  0  3  0  0  0  0  0  0
  -29.5490  -21.2340   21.4330 C   0  0  0  0  0  3  0  0  0  0  0  0
  -29.6000  -19.9120   20.7810 C   0  0  0  0  0  0  0  0  0  0  0  0
  -29.3410  -20.1720   19.4100 C   0  0  0  0  0  0  0  0  0  0  0  0
  -29.8660  -17.3960   20.2310 C   0  0  0  0  0  0  0  0  0  0  0  0
  -29.2160  -22.2500   20.5250 C   0  0  0  0  0  0  0  0  0  0  0  0
  -29.0870  -21.5630   19.3000 N   0  0  0  0  0  0  0  0  0  0  0  0
  -28.8680  -22.0400   18.4300 H   0  0  0  0  0  0  0  0  0  0  0  0
  -30.6620  -14.8560   20.1950 C   0  0  0  0  0  0  0  0  0  0  0  0
  -30.4660  -12.5610   19.1980 C   0  0  0  0  0  2  0  0  0  0  0  0
  -29.4960  -12.6330   17.9960 C   0  0  0  0  0  2  0  0  0  0  0  0
  -28.0360  -12.4580   18.4600 C   0  0  0  0  0  2  0  0  0  0  0  0
  -27.6980  -13.3250   19.7020 C   0  0  0  0  0  3  0  0  0  0  0  0
  -28.7860  -13.2290   20.7930 C   0  0  0  0  0  2  0  0  0  0  0  0
  -30.0650  -13.6070   20.1740 N   0  0  0  0  0  0  0  0  0  0  0  0
  -31.8040  -14.9860   19.7420 O   0  0  0  0  0  0  0  0  0  0  0  0
  -29.9280  -15.9550   20.6460 N   0  0  0  0  0  0  0  0  0  0  0  0
  -29.1560  -15.6680   21.2300 H   0  0  0  0  0  0  0  0  0  0  0  0
  -25.3340  -13.9010   20.5100 C   0  0  0  0  0  0  0  0  0  0  0  0
  -24.2780  -13.1230   20.8970 C   0  0  0  0  0  0  0  0  0  0  0  0
  -24.7370  -11.7710   20.8290 C   0  0  0  0  0  0  0  0  0  0  0  0
  -26.3690  -13.0250   20.2260 N   0  0  0  0  0  0  0  0  0  0  0  0
  -26.0180  -11.7370   20.4810 N   0  0  0  0  0  0  0  0  0  0  0  0
  -24.0130  -10.5070   21.0190 C   0  0  0  0  0  0  0  0  0  0  0  0
  -24.4560   -9.5330   21.9420 C   0  0  0  0  0  3  0  0  0  0  0  0
  -23.7310   -8.3350   22.1200 C   0  0  0  0  0  3  0  0  0  0  0  0
  -22.5510   -8.1010   21.3750 C   0  0  0  0  0  0  0  0  0  0  0  0
  -22.1270   -9.0640   20.4420 C   0  0  0  0  0  3  0  0  0  0  0  0
  -22.8500  -10.2540   20.2620 C   0  0  0  0  0  3  0  0  0  0  0  0
  -21.7990   -6.9540   21.4640 O   0  0  0  0  0  0  0  0  0  0  0  0
  -21.7340   -6.2230   22.6220 C   0  0  0  0  0  0  0  0  0  0  0  0
  -21.2430   -6.7740   23.8250 C   0  0  0  0  0  3  0  0  0  0  0  0
  -21.1260   -5.9660   24.9740 C   0  0  0  0  0  3  0  0  0  0  0  0
  -21.4950   -4.6080   24.9210 C   0  0  0  0  0  0  0  0  0  0  0  0
  -21.9790   -4.0560   23.7230 C   0  0  0  0  0  3  0  0  0  0  0  0
  -22.0960   -4.8600   22.5750 C   0  0  0  0  0  0  0  0  0  0  0  0
  -22.5430   -4.3170   21.4170 F   0  0  0  0  0  0  0  0  0  0  0  0
  -21.3760   -3.8300   26.0220 F   0  0  0  0  0  0  0  0  0  0  0  0
  -22.8910  -13.5970   21.2180 C   0  0  0  0  0  0  0  0  0  0  0  0
  -22.1840  -12.8830   22.0860 N   0  0  0  0  0  0  0  0  0  0  0  0
  -22.4430  -14.6350   20.7330 O   0  0  0  0  0  0  0  0  0  0  0  0
  -22.5590  -12.0430   22.5000 H   0  0  0  0  0  0  0  0  0  0  0  0
  -21.2550  -13.1850   22.3430 H   0  0  0  0  0  0  0  0  0  0  0  0
  -25.4970  -15.2740   20.3500 N   0  0  0  0  0  0  0  0  0  0  0  0
  -24.7370  -15.9360   20.4790 H   0  0  0  0  0  0  0  0  0  0  0  0
  -26.3370  -15.7100   19.9890 H   0  0  0  0  0  0  0  0  0  0  0  0
  -29.1150  -23.7920   20.7660 C   0  0  0  0  0  0  0  0  0  0  0  0
  -29.6940  -24.2180   21.7690 O   0  0  0  0  0  0  0  0  0  0  0  0
  -28.2960  -24.9060   19.9290 C   0  0  0  0  0  2  0  0  0  0  0  0
  -28.4120  -26.3710   20.3520 O   0  0  0  0  0  0  0  0  0  0  0  0
  -24.6440  -31.8750   23.2980 C   0  0  0  0  0  0  0  0  0  0  0  0
  -27.3140  -27.2760   20.2580 C   0  0  0  0  0  0  0  0  0  0  0  0
  -23.4760  -30.4880   21.6240 C   0  0  0  0  0  3  0  0  0  0  0  0
  -24.9560  -28.9450   20.2080 C   0  0  0  0  0  0  0  0  0  0  0  0
  -26.0230  -30.7910   21.4980 C   0  0  0  0  0  2  0  0  0  0  0  0
  -26.1170  -29.4120   20.8380 C   0  0  0  0  0  0  0  0  0  0  0  0
  -27.2940  -28.5890   20.8540 C   0  0  0  0  0  3  0  0  0  0  0  0
  -26.1320  -26.8940   19.5840 C   0  0  0  0  0  3  0  0  0  0  0  0
  -24.9720  -27.6960   19.5690 C   0  0  0  0  0  3  0  0  0  0  0  0
  -23.7200  -29.8280   20.2430 C   0  0  0  0  0  2  0  0  0  0  0  0
  -24.7320  -31.0700   22.1970 N   0  0  0  0  0  0  0  0  0  0  0  0
  -23.5490  -32.1470   23.8150 O   0  0  0  0  0  0  0  0  0  0  0  0
  -22.7940  -29.4640   22.5650 C   0  0  0  0  0  0  0  0  0  0  0  0
  -21.4670  -29.2930   22.4220 N   0  0  0  0  0  0  0  0  0  0  0  0
  -23.4570  -28.8280   23.3880 O   0  0  0  0  0  0  0  0  0  0  0  0
  -20.9860  -29.8600   21.7390 H   0  0  0  0  0  0  0  0  0  0  0  0
  -18.0800  -28.1060   22.8910 C   0  0  0  0  0  0  0  0  0  0  0  0
  -20.6380  -28.3470   23.1740 C   0  0  0  0  0  3  0  0  0  0  0  0
  -20.7340  -26.9240   22.5760 C   0  0  0  0  0  2  0  0  0  0  0  0
  -19.6350  -26.6230   21.5520 C   0  0  0  0  0  2  0  0  0  0  0  0
  -18.2510  -26.7670   22.1950 C   0  0  0  0  0  2  0  0  0  0  0  0
  -19.2000  -28.8550   23.3370 C   0  0  0  0  0  0  0  0  0  0  0  0
  -18.9850  -30.1070   23.9520 C   0  0  0  0  0  3  0  0  0  0  0  0
  -17.6820  -30.6120   24.1210 C   0  0  0  0  0  3  0  0  0  0  0  0
  -16.5760  -29.8610   23.6890 C   0  0  0  0  0  3  0  0  0  0  0  0
  -16.7750  -28.6090   23.0810 C   0  0  0  0  0  3  0  0  0  0  0  0
  -25.9120  -32.5090   23.9470 C   0  0  0  0  0  3  0  0  0  0  0  0
  -25.6020  -33.9160   24.2470 N   0  0  0  0  0  0  0  0  0  0  0  0
  -25.9370  -34.9540   23.4700 C   0  0  0  0  0  0  0  0  0  0  0  0
  -26.6060  -34.8290   22.4410 O   0  0  0  0  0  0  0  0  0  0  0  0
  -25.0040  -34.0850   25.0430 H   0  0  0  0  0  0  0  0  0  0  0  0
  -24.2150  -36.7490   23.0810 C   0  0  0  0  0  1  0  0  0  0  0  0
  -25.4540  -36.3530   23.9010 C   0  0  0  0  0  3  0  0  0  0  0  0
  -27.5840  -37.2540   24.7270 C   0  0  0  0  0  1  0  0  0  0  0  0
  -26.4900  -37.4010   23.7710 N   0  0  0  0  0  0  0  0  0  0  0  0
  -26.0840  -38.3250   23.8930 H   0  0  0  0  0  0  0  0  0  0  0  0
  -26.3820  -31.7570   25.2530 C   0  0  1  0  0  0  0  0  0  0  0  0
  -25.2560  -31.5470   26.2910 C   0  0  0  0  0  1  0  0  0  0  0  0
  -26.9670  -30.3690   24.9070 C   0  0  0  0  0  1  0  0  0  0  0  0
  -27.5170  -32.5550   25.9350 C   0  0  0  0  0  1  0  0  0  0  0  0
  1  2  2  0
  1  6  1  0
  2  7  1  0
  5  3  1  0
  5  4  1  0
  6  5  2  0
  7 19  1  0
  7  3  2  0
  8 49  1  0
  8  4  2  0
  9  6  1  0
  9  8  1  0
 10  9  1  0
 11 19  1  0
 12 17  1  0
 13 14  1  0
 13 12  1  0
 15 14  1  0
 15 24  1  0
 15 16  1  0
 17 11  1  0
 17 16  1  0
 18 11  2  0
 19 20  1  0
 21 22  2  0
 22 41  1  0
 23 22  1  0
 23 26  1  0
 24 25  1  0
 24 21  1  0
 25 23  2  0
 26 27  1  0
 27 28  2  0
 29 32  1  0
 29 28  1  0
 30 29  2  0
 31 30  1  0
 31 26  2  0
 32 33  1  0
 33 34  1  0
 34 35  2  0
 36 35  1  0
 36 40  1  0
 37 36  2  0
 38 33  2  0
 38 37  1  0
 39 38  1  0
 41 42  1  0
 42 45  1  0
 42 44  1  0
 43 41  2  0
 46 47  1  0
 46 21  1  0
 48 46  1  0
 49 50  2  0
 51 52  1  0
 51 49  1  0
 53 64  2  0
 54 52  1  0
 54 59  1  0
 55 63  1  0
 55 65  1  0
 56 62  1  0
 56 58  1  0
 57 63  1  0
 58 59  2  0
 58 57  1  0
 60 54  2  0
 61 60  1  0
 61 56  2  0
 62 55  1  0
 63 53  1  0
 65 67  2  0
 66 65  1  0
 68 66  1  0
 69 78  2  0
 69 74  1  0
 70 66  1  0
 70 74  1  0
 71 70  1  0
 72 73  1  0
 72 71  1  0
 73 69  1  0
 74 75  2  0
 75 76  1  0
 77 76  2  0
 78 77  1  0
 79 53  1  0
 79 80  1  0
 79 89  1  0
 80 83  1  0
 81 85  1  0
 81 80  1  0
 82 81  2  0
 85 84  1  0
 87 88  1  0
 87 85  1  0
 87 86  1  0
 89 92  1  1
 89 90  1  0
 91 89  1  0
M  ISO  4  11 100  19 100  51 101  52 101
M  END
>  <TORSDO>  (85) 
F 18

>  <SCORE>  (85) 
-14.733

>  <name>  (85) 
84

>  <ligand_id>  (85) 
84

>  <original_smiles>  (85) 
[H]c1c([H])c([H])c2c(c1[H])C([H])([H])C([H])([H])C([H])([H])C2([H])N([H])C(=O)C1([H])N(C(=O)C([H])(N([H])C(=O)C([H])(N([H])C([H])([H])[H])C([H])([H])[H])C(C([H])([H])[H])(C([H])([H])[H])C([H])([H])[H])C([H])([H])c2c([H])c(OC([H])([H])C(=O)c3c([H])c4c([H])c(N([H])C(=O)N5C([H])([H])C([H])([H])C([H])([H])C([H])(n6nc(-c7c([H])c([H])c(Oc8c([H])c([H])c(F)c([H])c8F)c([H])c7[H])c(C(=O)N([H])[H])c6N([H])[H])C5([H])[H])c([H])c([H])c4n3[H])c([H])c([H])c2C1([H])[H]

>  <smiles>  (85) 
[H]c1c([H])c([H])c2c(c1[H])C([H])([H])C([H])([H])C([H])([H])C2([H])N([H])C(=O)C1([H])N(C(=O)C([H])(N([H])C(=O)C([H])(N([H])C([H])([H])[H])C([H])([H])[H])C(C([H])([H])[H])(C([H])([H])[H])C([H])([H])[H])C([H])([H])c2c([H])c(OC([H])([H])C(=O)c3c([H])c4c([H])c(N([H])C(=O)N5C([H])([H])C([H])([H])C([H])([H])C([H])(n6nc(-c7c([H])c([H])c(Oc8c([H])c([H])c(F)c([H])c8F)c([H])c7[H])c(C(=O)N([H])[H])c6N([H])[H])C5([H])[H])c([H])c([H])c4n3[H])c([H])c([H])c2C1([H])[H]

$$$$
85:0:0
     RDKit          3D

 93102  0  0  1  0  0  0  0  0999 V2000
  -30.2590  -23.8130   20.5240 C   0  0  0  0  0  3  0  0  0  0  0  0
  -28.9950  -23.8230   20.1020 C   0  0  0  0  0  0  0  0  0  0  0  0
  -30.7100  -22.4360   20.6540 C   0  0  0  0  0  0  0  0  0  0  0  0
  -28.6140  -22.4060   19.9630 C   0  0  0  0  0  0  0  0  0  0  0  0
  -29.6850  -21.6220   20.2990 N   0  0  0  0  0  0  0  0  0  0  0  0
  -31.8300  -22.0700   21.0320 O   0  0  0  0  0  0  0  0  0  0  0  0
  -27.5150  -21.9780   19.5860 O   0  0  0  0  0  0  0  0  0  0  0  0
  -30.8790  -19.3910   19.8700 C   0  0  0  0  0  3  0  0  0  0  0  0
  -28.6750  -19.3370   20.8130 C   0  0  0  0  0  3  0  0  0  0  0  0
  -30.9500  -17.9600   19.9240 C   0  0  0  0  0  3  0  0  0  0  0  0
  -28.7470  -17.9130   20.8720 C   0  0  0  0  0  3  0  0  0  0  0  0
  -29.7430  -20.1360   20.3170 C   0  0  0  0  0  0  0  0  0  0  0  0
  -29.8820  -17.1760   20.4360 C   0  0  0  0  0  0  0  0  0  0  0  0
  -30.6140  -14.6920   20.0390 C   0  0  0  0  0  0  0  0  0  0  0  0
  -30.3510  -12.4820   18.9210 C   0  0  0  0  0  2  0  0  0  0  0  0
  -29.3360  -12.6440   17.7650 C   0  0  0  0  0  2  0  0  0  0  0  0
  -27.8880  -12.4780   18.2690 C   0  0  0  0  0  2  0  0  0  0  0  0
  -27.6040  -13.3030   19.5530 C   0  0  0  0  0  3  0  0  0  0  0  0
  -28.7220  -13.1020   20.6010 C   0  0  0  0  0  2  0  0  0  0  0  0
  -30.0010  -13.4660   19.9670 N   0  0  0  0  0  0  0  0  0  0  0  0
  -31.7400  -14.8720   19.5650 O   0  0  0  0  0  0  0  0  0  0  0  0
  -29.8390  -15.7110   20.5320 N   0  0  0  0  0  0  0  0  0  0  0  0
  -28.9930  -15.3570   20.9500 H   0  0  0  0  0  0  0  0  0  0  0  0
  -25.2550  -13.8930   20.4110 C   0  0  0  0  0  0  0  0  0  0  0  0
  -24.2050  -13.1150   20.8200 C   0  0  0  0  0  0  0  0  0  0  0  0
  -24.6600  -11.7630   20.7350 C   0  0  0  0  0  0  0  0  0  0  0  0
  -26.2820  -13.0150   20.1010 N   0  0  0  0  0  0  0  0  0  0  0  0
  -25.9310  -11.7280   20.3550 N   0  0  0  0  0  0  0  0  0  0  0  0
  -23.9410  -10.4990   20.9340 C   0  0  0  0  0  0  0  0  0  0  0  0
  -24.3850   -9.5360   21.8660 C   0  0  0  0  0  3  0  0  0  0  0  0
  -23.6650   -8.3370   22.0540 C   0  0  0  0  0  3  0  0  0  0  0  0
  -22.4870   -8.0910   21.3090 C   0  0  0  0  0  0  0  0  0  0  0  0
  -22.0620   -9.0430   20.3660 C   0  0  0  0  0  3  0  0  0  0  0  0
  -22.7830  -10.2340   20.1760 C   0  0  0  0  0  3  0  0  0  0  0  0
  -21.7380   -6.9440   21.4070 O   0  0  0  0  0  0  0  0  0  0  0  0
  -21.6530   -6.2370   22.5810 C   0  0  0  0  0  0  0  0  0  0  0  0
  -21.1710   -6.8230   23.7710 C   0  0  0  0  0  3  0  0  0  0  0  0
  -21.0360   -6.0420   24.9350 C   0  0  0  0  0  3  0  0  0  0  0  0
  -21.3710   -4.6750   24.9100 C   0  0  0  0  0  0  0  0  0  0  0  0
  -21.8460   -4.0880   23.7230 C   0  0  0  0  0  3  0  0  0  0  0  0
  -21.9830   -4.8670   22.5620 C   0  0  0  0  0  0  0  0  0  0  0  0
  -22.4210   -4.2920   21.4150 F   0  0  0  0  0  0  0  0  0  0  0  0
  -21.2340   -3.9220   26.0250 F   0  0  0  0  0  0  0  0  0  0  0  0
  -22.8260  -13.5900   21.1790 C   0  0  0  0  0  0  0  0  0  0  0  0
  -22.1450  -12.8800   22.0710 N   0  0  0  0  0  0  0  0  0  0  0  0
  -22.3630  -14.6260   20.7030 O   0  0  0  0  0  0  0  0  0  0  0  0
  -22.5330  -12.0420   22.4800 H   0  0  0  0  0  0  0  0  0  0  0  0
  -21.2220  -13.1800   22.3510 H   0  0  0  0  0  0  0  0  0  0  0  0
  -25.4150  -15.2680   20.2560 N   0  0  0  0  0  0  0  0  0  0  0  0
  -24.6530  -15.9190   20.4140 H   0  0  0  0  0  0  0  0  0  0  0  0
  -26.2410  -15.7130   19.8770 H   0  0  0  0  0  0  0  0  0  0  0  0
  -28.0460  -25.0200   19.7410 C   0  0  0  0  0  2  0  0  0  0  0  0
  -28.3510  -26.4440   20.0610 O   0  0  0  0  0  0  0  0  0  0  0  0
  -24.6160  -31.8090   23.1910 C   0  0  0  0  0  0  0  0  0  0  0  0
  -27.2510  -27.3320   20.0150 C   0  0  0  0  0  0  0  0  0  0  0  0
  -23.4220  -30.4480   21.5170 C   0  0  0  0  0  3  0  0  0  0  0  0
  -24.8820  -28.9520   20.0480 C   0  0  0  0  0  0  0  0  0  0  0  0
  -25.9640  -30.7790   21.3470 C   0  0  0  0  0  2  0  0  0  0  0  0
  -26.0510  -29.4200   20.6630 C   0  0  0  0  0  0  0  0  0  0  0  0
  -27.2380  -28.6210   20.6410 C   0  0  0  0  0  3  0  0  0  0  0  0
  -26.0540  -26.9420   19.3600 C   0  0  0  0  0  3  0  0  0  0  0  0
  -24.8870  -27.7200   19.3870 C   0  0  0  0  0  3  0  0  0  0  0  0
  -23.6420  -29.8180   20.1170 C   0  0  0  0  0  2  0  0  0  0  0  0
  -24.6870  -31.0270   22.0750 N   0  0  0  0  0  0  0  0  0  0  0  0
  -23.5300  -32.0650   23.7320 O   0  0  0  0  0  0  0  0  0  0  0  0
  -22.7660  -29.3980   22.4480 C   0  0  0  0  0  0  0  0  0  0  0  0
  -21.4410  -29.2140   22.3160 N   0  0  0  0  0  0  0  0  0  0  0  0
  -23.4500  -28.7570   23.2500 O   0  0  0  0  0  0  0  0  0  0  0  0
  -20.9480  -29.7850   21.6430 H   0  0  0  0  0  0  0  0  0  0  0  0
  -18.0700  -27.9960   22.8070 C   0  0  0  0  0  0  0  0  0  0  0  0
  -20.6290  -28.2530   23.0660 C   0  0  0  0  0  3  0  0  0  0  0  0
  -20.7300  -26.8380   22.4510 C   0  0  0  0  0  2  0  0  0  0  0  0
  -19.6230  -26.5400   21.4370 C   0  0  0  0  0  2  0  0  0  0  0  0
  -18.2450  -26.6670   22.0920 C   0  0  0  0  0  2  0  0  0  0  0  0
  -19.1900  -28.7470   23.2510 C   0  0  0  0  0  0  0  0  0  0  0  0
  -18.9720  -29.9930   23.8810 C   0  0  0  0  0  3  0  0  0  0  0  0
  -17.6670  -30.4860   24.0690 C   0  0  0  0  0  3  0  0  0  0  0  0
  -16.5620  -29.7310   23.6400 C   0  0  0  0  0  3  0  0  0  0  0  0
  -16.7640  -28.4880   23.0150 C   0  0  0  0  0  3  0  0  0  0  0  0
  -25.8960  -32.4350   23.8260 C   0  0  0  0  0  3  0  0  0  0  0  0
  -25.5810  -33.8270   24.1790 N   0  0  0  0  0  0  0  0  0  0  0  0
  -25.8870  -34.8910   23.4260 C   0  0  0  0  0  0  0  0  0  0  0  0
  -26.5380  -34.8060   22.3810 O   0  0  0  0  0  0  0  0  0  0  0  0
  -25.0050  -33.9670   24.9970 H   0  0  0  0  0  0  0  0  0  0  0  0
  -24.1270  -36.6630   23.1370 C   0  0  0  0  0  1  0  0  0  0  0  0
  -25.3960  -36.2700   23.9080 C   0  0  0  0  0  3  0  0  0  0  0  0
  -27.5420  -37.1770   24.6860 C   0  0  0  0  0  1  0  0  0  0  0  0
  -26.4120  -37.3370   23.7740 N   0  0  0  0  0  0  0  0  0  0  0  0
  -25.9970  -38.2500   23.9410 H   0  0  0  0  0  0  0  0  0  0  0  0
  -26.4090  -31.6440   25.0900 C   0  0  1  0  0  0  0  0  0  0  0  0
  -25.3120  -31.3840   26.1500 C   0  0  0  0  0  1  0  0  0  0  0  0
  -26.9990  -30.2750   24.6790 C   0  0  0  0  0  1  0  0  0  0  0  0
  -27.5560  -32.4290   25.7690 C   0  0  0  0  0  1  0  0  0  0  0  0
  1  3  1  0
  2  1  2  0
  3  6  2  0
  4  2  1  0
  4  5  1  0
  5 12  1  0
  5  3  1  0
  7  4  2  0
  8 10  2  0
  8 12  1  0
  9 11  1  0
 10 13  1  0
 12  9  2  0
 13 22  1  0
 13 11  2  0
 14 22  1  0
 15 20  1  0
 16 17  1  0
 16 15  1  0
 18 17  1  0
 18 27  1  0
 18 19  1  0
 20 14  1  0
 20 19  1  0
 21 14  2  0
 22 23  1  0
 24 25  2  0
 25 44  1  0
 26 25  1  0
 26 29  1  0
 27 28  1  0
 27 24  1  0
 28 26  2  0
 29 30  1  0
 30 31  2  0
 32 35  1  0
 32 31  1  0
 33 32  2  0
 34 33  1  0
 34 29  2  0
 35 36  1  0
 36 37  1  0
 37 38  2  0
 39 38  1  0
 39 43  1  0
 40 39  2  0
 41 36  2  0
 41 40  1  0
 42 41  1  0
 44 45  1  0
 45 48  1  0
 45 47  1  0
 46 44  2  0
 49 24  1  0
 49 50  1  0
 51 49  1  0
 52 53  1  0
 52  2  1  0
 54 65  2  0
 55 53  1  0
 55 60  1  0
 56 64  1  0
 56 66  1  0
 57 63  1  0
 57 59  1  0
 58 64  1  0
 59 58  1  0
 60 59  2  0
 61 62  1  0
 61 55  2  0
 62 57  2  0
 63 56  1  0
 64 54  1  0
 66 68  2  0
 67 66  1  0
 69 67  1  0
 70 79  2  0
 70 75  1  0
 71 67  1  0
 71 75  1  0
 72 71  1  0
 73 74  1  0
 73 72  1  0
 74 70  1  0
 75 76  2  0
 76 77  1  0
 78 77  2  0
 79 78  1  0
 80 54  1  0
 80 81  1  0
 80 90  1  0
 81 84  1  0
 82 86  1  0
 82 81  1  0
 83 82  2  0
 86 85  1  0
 88 86  1  0
 88 89  1  0
 88 87  1  0
 90 93  1  1
 90 91  1  0
 92 90  1  0
M  ISO  4  14 100  22 100  52 101  53 101
M  END
>  <TORSDO>  (86) 
F 18

>  <SCORE>  (86) 
-14.456

>  <name>  (86) 
85

>  <ligand_id>  (86) 
85

>  <original_smiles>  (86) 
[H]C1=C(C([H])([H])Oc2c([H])c([H])c3c(c2[H])C([H])([H])N(C(=O)C([H])(N([H])C(=O)C([H])(N([H])C([H])([H])[H])C([H])([H])[H])C(C([H])([H])[H])(C([H])([H])[H])C([H])([H])[H])C([H])(C(=O)N([H])C2([H])c4c([H])c([H])c([H])c([H])c4C([H])([H])C([H])([H])C2([H])[H])C3([H])[H])C(=O)N(c2c([H])c([H])c(N([H])C(=O)N3C([H])([H])C([H])([H])C([H])([H])C([H])(n4nc(-c5c([H])c([H])c(Oc6c([H])c([H])c(F)c([H])c6F)c([H])c5[H])c(C(=O)N([H])[H])c4N([H])[H])C3([H])[H])c([H])c2[H])C1=O

>  <smiles>  (86) 
[H]C1=C(C([H])([H])Oc2c([H])c([H])c3c(c2[H])C([H])([H])N(C(=O)C([H])(N([H])C(=O)C([H])(N([H])C([H])([H])[H])C([H])([H])[H])C(C([H])([H])[H])(C([H])([H])[H])C([H])([H])[H])C([H])(C(=O)N([H])C2([H])c4c([H])c([H])c([H])c([H])c4C([H])([H])C([H])([H])C2([H])[H])C3([H])[H])C(=O)N(c2c([H])c([H])c(N([H])C(=O)N3C([H])([H])C([H])([H])C([H])([H])C([H])(n4nc(-c5c([H])c([H])c(Oc6c([H])c([H])c(F)c([H])c6F)c([H])c5[H])c(C(=O)N([H])[H])c4N([H])[H])C3([H])[H])c([H])c2[H])C1=O

$$$$
86:0:0
     RDKit          3D

 92101  0  0  1  0  0  0  0  0999 V2000
  -28.4720  -23.5460   20.3510 C   0  0  0  0  0  0  0  0  0  0  0  0
  -28.0960  -22.2300   20.9270 C   0  0  0  0  0  0  0  0  0  0  0  0
  -27.9630  -24.8450   20.6040 C   0  0  0  0  0  3  0  0  0  0  0  0
  -29.5140  -22.7860   19.4840 C   0  0  0  0  0  2  0  0  0  0  0  0
  -29.0570  -21.5140   20.1530 N   0  0  0  0  0  0  0  0  0  0  0  0
  -27.2460  -21.9420   21.7450 O   0  0  0  0  0  0  0  0  0  0  0  0
  -30.3910  -20.0400   18.6740 C   0  0  0  0  0  3  0  0  0  0  0  0
  -30.9290  -18.8520   18.1480 C   0  0  0  0  0  3  0  0  0  0  0  0
  -29.3810  -18.7490   20.4170 C   0  0  0  0  0  3  0  0  0  0  0  0
  -29.5600  -20.1050   19.8210 C   0  0  0  0  0  0  0  0  0  0  0  0
  -29.9680  -17.4680   19.9350 C   0  0  0  0  0  0  0  0  0  0  0  0
  -30.7120  -17.5970   18.7370 C   0  0  0  0  0  0  0  0  0  0  0  0
  -31.1880  -16.5110   18.0840 F   0  0  0  0  0  0  0  0  0  0  0  0
  -30.5590  -14.8810   20.3800 C   0  0  0  0  0  0  0  0  0  0  0  0
  -30.4300  -12.5340   19.4850 C   0  0  0  0  0  2  0  0  0  0  0  0
  -29.5130  -12.5180   18.2420 C   0  0  0  0  0  2  0  0  0  0  0  0
  -28.0410  -12.3230   18.6550 C   0  0  0  0  0  2  0  0  0  0  0  0
  -27.6300  -13.2440   19.8340 C   0  0  0  0  0  3  0  0  0  0  0  0
  -28.6740  -13.2470   20.9710 C   0  0  0  0  0  2  0  0  0  0  0  0
  -29.9590  -13.6290   20.3750 N   0  0  0  0  0  0  0  0  0  0  0  0
  -31.7710  -14.9280   20.1490 O   0  0  0  0  0  0  0  0  0  0  0  0
  -29.7820  -16.0590   20.4950 N   0  0  0  0  0  0  0  0  0  0  0  0
  -28.8660  -15.8940   20.8830 H   0  0  0  0  0  0  0  0  0  0  0  0
  -25.2490  -13.8230   20.5710 C   0  0  0  0  0  0  0  0  0  0  0  0
  -24.1800  -13.0460   20.9230 C   0  0  0  0  0  0  0  0  0  0  0  0
  -24.6400  -11.6940   20.8770 C   0  0  0  0  0  0  0  0  0  0  0  0
  -26.2890  -12.9440   20.3230 N   0  0  0  0  0  0  0  0  0  0  0  0
  -25.9330  -11.6580   20.5750 N   0  0  0  0  0  0  0  0  0  0  0  0
  -23.9080  -10.4300   21.0410 C   0  0  0  0  0  0  0  0  0  0  0  0
  -24.3640   -9.4210   21.9190 C   0  0  0  0  0  3  0  0  0  0  0  0
  -23.6310   -8.2240   22.0750 C   0  0  0  0  0  3  0  0  0  0  0  0
  -22.4300   -8.0280   21.3540 C   0  0  0  0  0  0  0  0  0  0  0  0
  -21.9940   -9.0260   20.4640 C   0  0  0  0  0  3  0  0  0  0  0  0
  -22.7260  -10.2140   20.3060 C   0  0  0  0  0  3  0  0  0  0  0  0
  -21.6650   -6.8890   21.4240 O   0  0  0  0  0  0  0  0  0  0  0  0
  -21.6860   -6.0750   22.5280 C   0  0  0  0  0  0  0  0  0  0  0  0
  -21.4020   -6.5650   23.8220 C   0  0  0  0  0  3  0  0  0  0  0  0
  -21.3660   -5.6790   24.9180 C   0  0  0  0  0  3  0  0  0  0  0  0
  -21.6050   -4.3060   24.7220 C   0  0  0  0  0  0  0  0  0  0  0  0
  -21.8820   -3.8150   23.4340 C   0  0  0  0  0  3  0  0  0  0  0  0
  -21.9200   -4.6970   22.3400 C   0  0  0  0  0  0  0  0  0  0  0  0
  -22.1660   -4.2150   21.0980 F   0  0  0  0  0  0  0  0  0  0  0  0
  -21.5630   -3.4530   25.7730 F   0  0  0  0  0  0  0  0  0  0  0  0
  -22.7820  -13.5220   21.1890 C   0  0  0  0  0  0  0  0  0  0  0  0
  -22.0470  -12.8190   22.0440 N   0  0  0  0  0  0  0  0  0  0  0  0
  -22.3500  -14.5530   20.6740 O   0  0  0  0  0  0  0  0  0  0  0  0
  -22.4100  -11.9850   22.4810 H   0  0  0  0  0  0  0  0  0  0  0  0
  -21.1100  -13.1220   22.2660 H   0  0  0  0  0  0  0  0  0  0  0  0
  -25.4190  -15.1960   20.4130 N   0  0  0  0  0  0  0  0  0  0  0  0
  -24.6580  -15.8550   20.5300 H   0  0  0  0  0  0  0  0  0  0  0  0
  -26.2650  -15.6280   20.0640 H   0  0  0  0  0  0  0  0  0  0  0  0
  -28.2570  -26.1940   20.1540 O   0  0  0  0  0  0  0  0  0  0  0  0
  -24.6390  -31.8480   23.1910 C   0  0  0  0  0  0  0  0  0  0  0  0
  -27.2170  -27.1780   20.1430 C   0  0  0  0  0  0  0  0  0  0  0  0
  -23.4410  -30.4700   21.5350 C   0  0  0  0  0  3  0  0  0  0  0  0
  -24.8920  -28.9020   20.1100 C   0  0  0  0  0  0  0  0  0  0  0  0
  -25.9950  -30.7330   21.3870 C   0  0  0  0  0  2  0  0  0  0  0  0
  -26.0680  -29.3470   20.7300 C   0  0  0  0  0  0  0  0  0  0  0  0
  -27.2350  -28.4990   20.7350 C   0  0  0  0  0  3  0  0  0  0  0  0
  -26.0210  -26.8260   19.4850 C   0  0  0  0  0  3  0  0  0  0  0  0
  -24.8780  -27.6520   19.4740 C   0  0  0  0  0  3  0  0  0  0  0  0
  -23.6680  -29.8000   20.1540 C   0  0  0  0  0  2  0  0  0  0  0  0
  -24.7110  -31.0370   22.0930 N   0  0  0  0  0  0  0  0  0  0  0  0
  -23.5520  -32.1340   23.7140 O   0  0  0  0  0  0  0  0  0  0  0  0
  -22.7550  -29.4580   22.4850 C   0  0  0  0  0  0  0  0  0  0  0  0
  -21.4240  -29.3060   22.3610 N   0  0  0  0  0  0  0  0  0  0  0  0
  -23.4210  -28.8120   23.2980 O   0  0  0  0  0  0  0  0  0  0  0  0
  -20.9440  -29.8800   21.6810 H   0  0  0  0  0  0  0  0  0  0  0  0
  -18.0300  -28.1380   22.8480 C   0  0  0  0  0  0  0  0  0  0  0  0
  -20.5920  -28.3720   23.1230 C   0  0  0  0  0  3  0  0  0  0  0  0
  -20.6790  -26.9420   22.5400 C   0  0  0  0  0  2  0  0  0  0  0  0
  -19.5760  -26.6370   21.5210 C   0  0  0  0  0  2  0  0  0  0  0  0
  -18.1940  -26.7920   22.1620 C   0  0  0  0  0  2  0  0  0  0  0  0
  -19.1560  -28.8870   23.2850 C   0  0  0  0  0  0  0  0  0  0  0  0
  -18.9470  -30.1460   23.8890 C   0  0  0  0  0  3  0  0  0  0  0  0
  -17.6470  -30.6590   24.0560 C   0  0  0  0  0  3  0  0  0  0  0  0
  -16.5360  -29.9090   23.6320 C   0  0  0  0  0  3  0  0  0  0  0  0
  -16.7290  -28.6500   23.0360 C   0  0  0  0  0  3  0  0  0  0  0  0
  -25.9190  -32.4710   23.8290 C   0  0  0  0  0  3  0  0  0  0  0  0
  -25.5940  -33.8510   24.2210 N   0  0  0  0  0  0  0  0  0  0  0  0
  -25.9060  -34.9420   23.5080 C   0  0  0  0  0  0  0  0  0  0  0  0
  -26.5650  -34.8920   22.4660 O   0  0  0  0  0  0  0  0  0  0  0  0
  -25.0070  -33.9630   25.0350 H   0  0  0  0  0  0  0  0  0  0  0  0
  -24.1490  -36.7270   23.2640 C   0  0  0  0  0  1  0  0  0  0  0  0
  -25.4120  -36.3050   24.0320 C   0  0  0  0  0  3  0  0  0  0  0  0
  -27.5580  -37.1790   24.8460 C   0  0  0  0  0  1  0  0  0  0  0  0
  -26.4290  -37.3750   23.9400 N   0  0  0  0  0  0  0  0  0  0  0  0
  -26.0170  -38.2840   24.1370 H   0  0  0  0  0  0  0  0  0  0  0  0
  -26.4520  -31.6540   25.0700 C   0  0  1  0  0  0  0  0  0  0  0  0
  -25.3710  -31.3740   26.1400 C   0  0  0  0  0  1  0  0  0  0  0  0
  -27.0370  -30.2940   24.6250 C   0  0  0  0  0  1  0  0  0  0  0  0
  -27.6060  -32.4300   25.7490 C   0  0  0  0  0  1  0  0  0  0  0  0
  1  3  2  0
  1  2  1  0
  2  6  2  0
  4  5  1  0
  4  1  1  0
  5  2  1  0
  7 10  1  0
  8  7  2  0
  8 12  1  0
 10  5  1  0
 10  9  2  0
 11  9  1  0
 11 22  1  0
 12 11  2  0
 13 12  1  0
 14 22  1  0
 15 20  1  0
 16 17  1  0
 16 15  1  0
 18 17  1  0
 18 27  1  0
 18 19  1  0
 20 14  1  0
 20 19  1  0
 21 14  2  0
 22 23  1  0
 24 25  2  0
 25 44  1  0
 26 25  1  0
 26 29  1  0
 27 24  1  0
 27 28  1  0
 28 26  2  0
 29 30  1  0
 30 31  2  0
 32 35  1  0
 32 31  1  0
 33 32  2  0
 34 33  1  0
 34 29  2  0
 35 36  1  0
 36 37  1  0
 37 38  2  0
 39 38  1  0
 39 43  1  0
 40 39  2  0
 41 36  2  0
 41 40  1  0
 42 41  1  0
 44 45  1  0
 45 48  1  0
 45 47  1  0
 46 44  2  0
 49 50  1  0
 49 24  1  0
 51 49  1  0
 52  3  1  0
 53 64  2  0
 54 52  1  0
 54 59  1  0
 55 63  1  0
 55 65  1  0
 56 62  1  0
 56 58  1  0
 57 63  1  0
 58 59  2  0
 58 57  1  0
 60 54  2  0
 61 60  1  0
 61 56  2  0
 62 55  1  0
 63 53  1  0
 65 67  2  0
 66 65  1  0
 68 66  1  0
 69 78  2  0
 69 74  1  0
 70 66  1  0
 70 74  1  0
 71 70  1  0
 72 73  1  0
 72 71  1  0
 73 69  1  0
 74 75  2  0
 75 76  1  0
 77 76  2  0
 78 77  1  0
 79 53  1  0
 79 80  1  0
 79 89  1  0
 80 83  1  0
 81 85  1  0
 81 80  1  0
 82 81  2  0
 85 84  1  0
 87 85  1  0
 87 88  1  0
 87 86  1  0
 89 92  1  1
 89 90  1  0
 91 89  1  0
M  ISO  4   3 101  14 100  22 100  52 101
M  END
>  <TORSDO>  (87) 
F 17

>  <SCORE>  (87) 
-14.802

>  <name>  (87) 
86

>  <ligand_id>  (87) 
86

>  <original_smiles>  (87) 
[H]C(Oc1c([H])c([H])c2c(c1[H])C([H])([H])N(C(=O)C([H])(N([H])C(=O)C([H])(N([H])C([H])([H])[H])C([H])([H])[H])C(C([H])([H])[H])(C([H])([H])[H])C([H])([H])[H])C([H])(C(=O)N([H])C1([H])c3c([H])c([H])c([H])c([H])c3C([H])([H])C([H])([H])C1([H])[H])C2([H])[H])=C1C(=O)N(c2c([H])c([H])c(F)c(N([H])C(=O)N3C([H])([H])C([H])([H])C([H])([H])C([H])(n4nc(-c5c([H])c([H])c(Oc6c([H])c([H])c(F)c([H])c6F)c([H])c5[H])c(C(=O)N([H])[H])c4N([H])[H])C3([H])[H])c2[H])C1([H])[H]

>  <smiles>  (87) 
[H]C(Oc1c([H])c([H])c2c(c1[H])C([H])([H])N(C(=O)C([H])(N([H])C(=O)C([H])(N([H])C([H])([H])[H])C([H])([H])[H])C(C([H])([H])[H])(C([H])([H])[H])C([H])([H])[H])C([H])(C(=O)N([H])C1([H])c3c([H])c([H])c([H])c([H])c3C([H])([H])C([H])([H])C1([H])[H])C2([H])[H])=C1C(=O)N(c2c([H])c([H])c(F)c(N([H])C(=O)N3C([H])([H])C([H])([H])C([H])([H])C([H])(n4nc(-c5c([H])c([H])c(Oc6c([H])c([H])c(F)c([H])c6F)c([H])c5[H])c(C(=O)N([H])[H])c4N([H])[H])C3([H])[H])c2[H])C1([H])[H]

$$$$
87:0:0
     RDKit          3D

 91100  0  0  1  0  0  0  0  0999 V2000
  -27.6780  -22.5000   21.0430 C   0  0  0  0  0  3  0  0  0  0  0  0
  -28.6240  -23.3040   20.5250 C   0  0  0  0  0  0  0  0  0  0  0  0
  -27.9890  -21.0670   20.9510 C   0  0  0  0  0  0  0  0  0  0  0  0
  -29.6390  -22.2190   20.1060 C   0  0  0  0  0  0  0  0  0  0  0  0
  -29.2100  -20.8860   20.3900 N   0  0  0  0  0  0  0  0  0  0  0  0
  -27.2630  -20.1510   21.3500 O   0  0  0  0  0  0  0  0  0  0  0  0
  -30.7390  -22.4590   19.5930 O   0  0  0  0  0  0  0  0  0  0  0  0
  -29.4250  -18.0820   17.7770 C   0  0  0  0  0  3  0  0  0  0  0  0
  -29.8520  -16.8870   18.3990 C   0  0  0  0  0  3  0  0  0  0  0  0
  -29.3230  -19.3150   18.4570 C   0  0  0  0  0  3  0  0  0  0  0  0
  -30.1140  -18.1580   20.4490 C   0  0  0  0  0  3  0  0  0  0  0  0
  -30.2490  -16.8080   19.7550 C   0  0  0  0  0  0  0  0  0  0  0  0
  -29.6160  -19.4630   19.8330 C   0  0  0  0  0  0  0  0  0  0  0  0
  -30.9690  -15.3860   20.1710 C   0  0  0  0  0  0  0  0  0  0  0  0
  -30.8920  -12.9520   19.3760 C   0  0  0  0  0  2  0  0  0  0  0  0
  -29.9790  -12.7870   18.1350 C   0  0  0  0  0  2  0  0  0  0  0  0
  -28.5070  -12.5880   18.5460 C   0  0  0  0  0  2  0  0  0  0  0  0
  -28.0680  -13.5760   19.6560 C   0  0  0  0  0  3  0  0  0  0  0  0
  -29.1050  -13.7090   20.7840 C   0  0  0  0  0  2  0  0  0  0  0  0
  -30.3740  -14.1120   20.1680 N   0  0  0  0  0  0  0  0  0  0  0  0
  -32.2040  -15.3650   20.0980 O   0  0  0  0  0  0  0  0  0  0  0  0
  -25.7230  -14.1870   20.4490 C   0  0  0  0  0  0  0  0  0  0  0  0
  -24.6400  -13.4310   20.7980 C   0  0  0  0  0  0  0  0  0  0  0  0
  -25.0640  -12.0670   20.7200 C   0  0  0  0  0  0  0  0  0  0  0  0
  -26.7350  -13.2880   20.1660 N   0  0  0  0  0  0  0  0  0  0  0  0
  -26.3550  -12.0060   20.4040 N   0  0  0  0  0  0  0  0  0  0  0  0
  -24.3040  -10.8200   20.8720 C   0  0  0  0  0  0  0  0  0  0  0  0
  -24.6750   -9.8370   21.8150 C   0  0  0  0  0  3  0  0  0  0  0  0
  -23.9110   -8.6570   21.9540 C   0  0  0  0  0  3  0  0  0  0  0  0
  -22.7630   -8.4540   21.1500 C   0  0  0  0  0  0  0  0  0  0  0  0
  -22.4120   -9.4270   20.1970 C   0  0  0  0  0  3  0  0  0  0  0  0
  -23.1770  -10.5970   20.0570 C   0  0  0  0  0  3  0  0  0  0  0  0
  -21.9790   -7.3270   21.1950 O   0  0  0  0  0  0  0  0  0  0  0  0
  -21.8050   -6.6130   22.3540 C   0  0  0  0  0  0  0  0  0  0  0  0
  -21.2610   -7.2010   23.5180 C   0  0  0  0  0  3  0  0  0  0  0  0
  -21.0420   -6.4150   24.6670 C   0  0  0  0  0  3  0  0  0  0  0  0
  -21.3550   -5.0420   24.6500 C   0  0  0  0  0  0  0  0  0  0  0  0
  -21.8880   -4.4530   23.4900 C   0  0  0  0  0  3  0  0  0  0  0  0
  -22.1110   -5.2370   22.3440 C   0  0  0  0  0  0  0  0  0  0  0  0
  -22.6080   -4.6630   21.2220 F   0  0  0  0  0  0  0  0  0  0  0  0
  -21.1320   -4.2840   25.7490 F   0  0  0  0  0  0  0  0  0  0  0  0
  -23.2560  -13.9410   21.0820 C   0  0  0  0  0  0  0  0  0  0  0  0
  -22.5140  -13.2450   21.9380 N   0  0  0  0  0  0  0  0  0  0  0  0
  -22.8470  -14.9870   20.5820 O   0  0  0  0  0  0  0  0  0  0  0  0
  -22.8690  -12.4010   22.3620 H   0  0  0  0  0  0  0  0  0  0  0  0
  -21.5820  -13.5620   22.1690 H   0  0  0  0  0  0  0  0  0  0  0  0
  -25.9340  -15.5570   20.3170 N   0  0  0  0  0  0  0  0  0  0  0  0
  -25.2080  -16.2480   20.4740 H   0  0  0  0  0  0  0  0  0  0  0  0
  -26.8120  -15.9650   20.0180 H   0  0  0  0  0  0  0  0  0  0  0  0
  -28.6850  -24.9490   20.9250 C   0  0  0  0  0  2  0  0  0  0  0  0
  -28.4760  -26.2920   20.1170 O   0  0  0  0  0  0  0  0  0  0  0  0
  -24.6830  -31.9440   23.2270 C   0  0  0  0  0  0  0  0  0  0  0  0
  -27.3910  -27.2550   20.2230 C   0  0  0  0  0  0  0  0  0  0  0  0
  -23.5320  -30.5310   21.5690 C   0  0  0  0  0  3  0  0  0  0  0  0
  -25.0290  -28.9790   20.1570 C   0  0  0  0  0  0  0  0  0  0  0  0
  -26.0800  -30.8420   21.4280 C   0  0  0  0  0  2  0  0  0  0  0  0
  -26.1960  -29.4410   20.7820 C   0  0  0  0  0  0  0  0  0  0  0  0
  -27.3800  -28.6030   20.7890 C   0  0  0  0  0  3  0  0  0  0  0  0
  -26.1960  -26.9040   19.5600 C   0  0  0  0  0  3  0  0  0  0  0  0
  -25.0420  -27.7250   19.5260 C   0  0  0  0  0  3  0  0  0  0  0  0
  -23.7830  -29.8560   20.1930 C   0  0  0  0  0  2  0  0  0  0  0  0
  -24.7850  -31.1270   22.1330 N   0  0  0  0  0  0  0  0  0  0  0  0
  -23.5860  -32.2060   23.7420 O   0  0  0  0  0  0  0  0  0  0  0  0
  -22.8610  -29.5110   22.5240 C   0  0  0  0  0  0  0  0  0  0  0  0
  -21.5410  -29.3050   22.3780 N   0  0  0  0  0  0  0  0  0  0  0  0
  -23.5320  -28.9020   23.3600 O   0  0  0  0  0  0  0  0  0  0  0  0
  -21.0510  -29.8440   21.6770 H   0  0  0  0  0  0  0  0  0  0  0  0
  -18.1880  -27.9970   22.8210 C   0  0  0  0  0  0  0  0  0  0  0  0
  -20.7340  -28.3400   23.1320 C   0  0  0  0  0  3  0  0  0  0  0  0
  -20.8920  -26.9140   22.5550 C   0  0  0  0  0  2  0  0  0  0  0  0
  -19.8180  -26.5580   21.5240 C   0  0  0  0  0  2  0  0  0  0  0  0
  -18.4210  -26.6580   22.1440 C   0  0  0  0  0  2  0  0  0  0  0  0
  -19.2750  -28.7950   23.2700 C   0  0  0  0  0  0  0  0  0  0  0  0
  -19.0030  -30.0480   23.8650 C   0  0  0  0  0  3  0  0  0  0  0  0
  -17.6790  -30.5050   24.0130 C   0  0  0  0  0  3  0  0  0  0  0  0
  -16.6070  -29.7030   23.5800 C   0  0  0  0  0  3  0  0  0  0  0  0
  -16.8630  -28.4510   22.9920 C   0  0  0  0  0  3  0  0  0  0  0  0
  -25.9380  -32.6100   23.8680 C   0  0  0  0  0  3  0  0  0  0  0  0
  -25.5980  -34.0070   24.1810 N   0  0  0  0  0  0  0  0  0  0  0  0
  -25.9260  -35.0640   23.4250 C   0  0  0  0  0  0  0  0  0  0  0  0
  -26.6130  -34.9670   22.4040 O   0  0  0  0  0  0  0  0  0  0  0  0
  -24.9890  -34.1490   24.9730 H   0  0  0  0  0  0  0  0  0  0  0  0
  -24.1850  -36.8410   23.0350 C   0  0  0  0  0  1  0  0  0  0  0  0
  -25.4160  -36.4510   23.8670 C   0  0  0  0  0  3  0  0  0  0  0  0
  -27.5250  -37.3720   24.7320 C   0  0  0  0  0  1  0  0  0  0  0  0
  -26.4380  -37.5180   23.7670 N   0  0  0  0  0  0  0  0  0  0  0  0
  -26.0180  -38.4340   23.9010 H   0  0  0  0  0  0  0  0  0  0  0  0
  -26.4310  -31.8660   25.1710 C   0  0  1  0  0  0  0  0  0  0  0  0
  -25.3090  -31.6050   26.2060 C   0  0  0  0  0  1  0  0  0  0  0  0
  -27.0620  -30.5030   24.8120 C   0  0  0  0  0  1  0  0  0  0  0  0
  -27.5420  -32.6950   25.8570 C   0  0  0  0  0  1  0  0  0  0  0  0
  2 50  1  0
  2  1  2  0
  3  1  1  0
  3  6  2  0
  4  5  1  0
  4  2  1  0
  5  3  1  0
  7  4  2  0
  8  9  2  0
  8 10  1  0
  9 12  1  0
 10 13  2  0
 12 14  1  0
 12 11  2  0
 13  5  1  0
 13 11  1  0
 15 20  1  0
 16 17  1  0
 16 15  1  0
 18 17  1  0
 18 25  1  0
 18 19  1  0
 20 14  1  0
 20 19  1  0
 21 14  2  0
 22 23  2  0
 23 42  1  0
 24 23  1  0
 24 27  1  0
 25 26  1  0
 25 22  1  0
 26 24  2  0
 27 28  1  0
 28 29  2  0
 30 33  1  0
 30 29  1  0
 31 30  2  0
 32 31  1  0
 32 27  2  0
 33 34  1  0
 34 35  1  0
 35 36  2  0
 37 36  1  0
 37 41  1  0
 38 37  2  0
 39 34  2  0
 39 38  1  0
 40 39  1  0
 42 43  1  0
 43 46  1  0
 43 45  1  0
 44 42  2  0
 47 22  1  0
 47 48  1  0
 49 47  1  0
 51 53  1  0
 51 50  1  0
 52 63  2  0
 53 58  1  0
 54 62  1  0
 54 64  1  0
 55 61  1  0
 55 57  1  0
 56 62  1  0
 57 58  2  0
 57 56  1  0
 59 53  2  0
 60 59  1  0
 60 55  2  0
 61 54  1  0
 62 52  1  0
 64 66  2  0
 65 64  1  0
 67 65  1  0
 68 77  2  0
 68 73  1  0
 69 65  1  0
 69 73  1  0
 70 69  1  0
 71 72  1  0
 71 70  1  0
 72 68  1  0
 73 74  2  0
 74 75  1  0
 76 75  2  0
 77 76  1  0
 78 52  1  0
 78 79  1  0
 78 88  1  0
 79 82  1  0
 80 84  1  0
 80 79  1  0
 81 80  2  0
 84 83  1  0
 86 84  1  0
 86 87  1  0
 86 85  1  0
 88 91  1  1
 88 89  1  0
 90 88  1  0
M  ISO  4  12 100  14 100  50 101  51 101
M  END
>  <TORSDO>  (88) 
F 18

>  <SCORE>  (88) 
-12.694

>  <name>  (88) 
87

>  <ligand_id>  (88) 
87

>  <original_smiles>  (88) 
[H]C1=C(C([H])([H])Oc2c([H])c([H])c3c(c2[H])C([H])([H])N(C(=O)C([H])(N([H])C(=O)C([H])(N([H])C([H])([H])[H])C([H])([H])[H])C(C([H])([H])[H])(C([H])([H])[H])C([H])([H])[H])C([H])(C(=O)N([H])C2([H])c4c([H])c([H])c([H])c([H])c4C([H])([H])C([H])([H])C2([H])[H])C3([H])[H])C(=O)N(c2c([H])c([H])c([H])c(C(=O)N3C([H])([H])C([H])([H])C([H])([H])C([H])(n4nc(-c5c([H])c([H])c(Oc6c([H])c([H])c(F)c([H])c6F)c([H])c5[H])c(C(=O)N([H])[H])c4N([H])[H])C3([H])[H])c2[H])C1=O

>  <smiles>  (88) 
[H]C1=C(C([H])([H])Oc2c([H])c([H])c3c(c2[H])C([H])([H])N(C(=O)C([H])(N([H])C(=O)C([H])(N([H])C([H])([H])[H])C([H])([H])[H])C(C([H])([H])[H])(C([H])([H])[H])C([H])([H])[H])C([H])(C(=O)N([H])C2([H])c4c([H])c([H])c([H])c([H])c4C([H])([H])C([H])([H])C2([H])[H])C3([H])[H])C(=O)N(c2c([H])c([H])c([H])c(C(=O)N3C([H])([H])C([H])([H])C([H])([H])C([H])(n4nc(-c5c([H])c([H])c(Oc6c([H])c([H])c(F)c([H])c6F)c([H])c5[H])c(C(=O)N([H])[H])c4N([H])[H])C3([H])[H])c2[H])C1=O

$$$$
