0:0:0
     RDKit          3D

 93102  0  0  1  0  0  0  0  0999 V2000
  -28.4400  -24.2450   20.7050 C   0  0  0  0  0  0  0  0  0  0  0  0
  -28.1530  -23.0770   21.5060 C   0  0  0  0  0  0  0  0  0  0  0  0
  -28.1920  -25.5550   20.9630 C   0  0  0  0  0  3  0  0  0  0  0  0
  -29.0660  -23.3840   19.6260 C   0  0  0  0  0  2  0  0  0  0  0  0
  -28.5930  -22.2560   20.4640 N   0  0  0  0  0  0  0  0  0  0  0  0
  -27.8090  -22.9520   22.6630 O   0  0  0  0  0  0  0  0  0  0  0  0
  -31.0580  -19.3770   20.0640 C   0  0  0  0  0  3  0  0  0  0  0  0
  -28.9450  -18.4530   20.7730 C   0  0  0  0  0  3  0  0  0  0  0  0
  -30.4960  -20.6730   20.0340 C   0  0  0  0  0  3  0  0  0  0  0  0
  -28.4010  -19.7690   20.7690 C   0  0  0  0  0  3  0  0  0  0  0  0
  -30.3010  -18.2390   20.4310 C   0  0  0  0  0  0  0  0  0  0  0  0
  -29.1520  -20.9280   20.4100 C   0  0  0  0  0  0  0  0  0  0  0  0
  -30.9900  -14.6140   19.8070 C   0  0  0  0  0  0  0  0  0  0  0  0
  -30.5540  -12.4320   18.7180 C   0  0  0  0  0  2  0  0  0  0  0  0
  -29.5200  -12.5900   17.5880 C   0  0  0  0  0  2  0  0  0  0  0  0
  -28.0900  -12.4520   18.1450 C   0  0  0  0  0  2  0  0  0  0  0  0
  -27.8520  -13.3150   19.4140 C   0  0  0  0  0  3  0  0  0  0  0  0
  -29.0030  -13.1650   20.4330 C   0  0  0  0  0  2  0  0  0  0  0  0
  -30.2580  -13.4650   19.7310 N   0  0  0  0  0  0  0  0  0  0  0  0
  -32.1010  -14.6720   19.2720 O   0  0  0  0  0  0  0  0  0  0  0  0
  -31.0230  -16.9050   20.5610 C   0  0  0  0  0  0  0  0  0  0  0  0
  -30.3850  -15.7300   20.3060 N   0  0  0  0  0  0  0  0  0  0  0  0
  -32.2270  -16.9640   20.8480 O   0  0  0  0  0  0  0  0  0  0  0  0
  -29.3820  -15.7180   20.3890 H   0  0  0  0  0  0  0  0  0  0  0  0
  -25.5620  -13.9170   20.4100 C   0  0  0  0  0  0  0  0  0  0  0  0
  -24.5220  -13.1450   20.8490 C   0  0  0  0  0  0  0  0  0  0  0  0
  -24.9450  -11.7870   20.7020 C   0  0  0  0  0  0  0  0  0  0  0  0
  -26.5550  -13.0320   20.0220 N   0  0  0  0  0  0  0  0  0  0  0  0
  -26.1950  -11.7430   20.2550 N   0  0  0  0  0  0  0  0  0  0  0  0
  -24.2130  -10.5300   20.9000 C   0  0  0  0  0  0  0  0  0  0  0  0
  -24.6470   -9.5570   21.8270 C   0  0  0  0  0  3  0  0  0  0  0  0
  -23.9120   -8.3680   22.0150 C   0  0  0  0  0  3  0  0  0  0  0  0
  -22.7280   -8.1410   21.2740 C   0  0  0  0  0  0  0  0  0  0  0  0
  -22.3120   -9.1010   20.3350 C   0  0  0  0  0  3  0  0  0  0  0  0
  -23.0480  -10.2820   20.1460 C   0  0  0  0  0  3  0  0  0  0  0  0
  -21.9660   -7.0020   21.3710 O   0  0  0  0  0  0  0  0  0  0  0  0
  -21.8310   -6.3230   22.5540 C   0  0  0  0  0  0  0  0  0  0  0  0
  -21.3210   -6.9420   23.7160 C   0  0  0  0  0  3  0  0  0  0  0  0
  -21.1340   -6.1880   24.8920 C   0  0  0  0  0  3  0  0  0  0  0  0
  -21.4490   -4.8170   24.9060 C   0  0  0  0  0  0  0  0  0  0  0  0
  -21.9540   -4.1970   23.7500 C   0  0  0  0  0  3  0  0  0  0  0  0
  -22.1400   -4.9480   22.5750 C   0  0  0  0  0  0  0  0  0  0  0  0
  -22.6060   -4.3410   21.4570 F   0  0  0  0  0  0  0  0  0  0  0  0
  -21.2630   -4.0900   26.0330 F   0  0  0  0  0  0  0  0  0  0  0  0
  -23.1720  -13.6310   21.2930 C   0  0  0  0  0  0  0  0  0  0  0  0
  -22.5230  -12.9040   22.1950 N   0  0  0  0  0  0  0  0  0  0  0  0
  -22.7050  -14.6880   20.8700 O   0  0  0  0  0  0  0  0  0  0  0  0
  -22.9140  -12.0500   22.5620 H   0  0  0  0  0  0  0  0  0  0  0  0
  -21.6190  -13.2090   22.5250 H   0  0  0  0  0  0  0  0  0  0  0  0
  -25.7390  -15.2920   20.2880 N   0  0  0  0  0  0  0  0  0  0  0  0
  -24.9960  -15.9510   20.5000 H   0  0  0  0  0  0  0  0  0  0  0  0
  -26.5460  -15.7390   19.8740 H   0  0  0  0  0  0  0  0  0  0  0  0
  -28.4350  -26.6520   20.1450 O   0  0  0  0  0  0  0  0  0  0  0  0
  -24.6580  -31.8800   23.1850 C   0  0  0  0  0  0  0  0  0  0  0  0
  -27.3500  -27.5010   20.0560 C   0  0  0  0  0  0  0  0  0  0  0  0
  -23.4800  -30.5030   21.5060 C   0  0  0  0  0  3  0  0  0  0  0  0
  -24.9620  -29.0160   20.0500 C   0  0  0  0  0  0  0  0  0  0  0  0
  -26.0060  -30.8860   21.3390 C   0  0  0  0  0  2  0  0  0  0  0  0
  -26.1140  -29.5300   20.6630 C   0  0  0  0  0  0  0  0  0  0  0  0
  -27.3170  -28.7820   20.6620 C   0  0  0  0  0  3  0  0  0  0  0  0
  -26.1900  -27.0170   19.4180 C   0  0  0  0  0  3  0  0  0  0  0  0
  -24.9990  -27.7630   19.4170 C   0  0  0  0  0  3  0  0  0  0  0  0
  -23.7070  -29.8590   20.1120 C   0  0  0  0  0  2  0  0  0  0  0  0
  -24.7320  -31.1030   22.0680 N   0  0  0  0  0  0  0  0  0  0  0  0
  -23.5690  -32.1320   23.7190 O   0  0  0  0  0  0  0  0  0  0  0  0
  -22.8300  -29.4530   22.4360 C   0  0  0  0  0  0  0  0  0  0  0  0
  -21.5080  -29.2570   22.2930 N   0  0  0  0  0  0  0  0  0  0  0  0
  -23.5140  -28.8180   23.2450 O   0  0  0  0  0  0  0  0  0  0  0  0
  -21.0180  -29.8230   21.6150 H   0  0  0  0  0  0  0  0  0  0  0  0
  -18.1490  -28.0010   22.7110 C   0  0  0  0  0  0  0  0  0  0  0  0
  -20.6950  -28.2960   23.0370 C   0  0  0  0  0  3  0  0  0  0  0  0
  -20.8320  -26.8750   22.4440 C   0  0  0  0  0  2  0  0  0  0  0  0
  -19.7550  -26.5470   21.4050 C   0  0  0  0  0  2  0  0  0  0  0  0
  -18.3590  -26.6630   22.0240 C   0  0  0  0  0  2  0  0  0  0  0  0
  -19.2460  -28.7750   23.1740 C   0  0  0  0  0  0  0  0  0  0  0  0
  -18.9940  -30.0280   23.7750 C   0  0  0  0  0  3  0  0  0  0  0  0
  -17.6780  -30.5050   23.9200 C   0  0  0  0  0  3  0  0  0  0  0  0
  -16.5950  -29.7270   23.4750 C   0  0  0  0  0  3  0  0  0  0  0  0
  -16.8310  -28.4760   22.8760 C   0  0  0  0  0  3  0  0  0  0  0  0
  -25.9330  -32.5100   23.8280 C   0  0  0  0  0  3  0  0  0  0  0  0
  -25.6110  -33.9010   24.1700 N   0  0  0  0  0  0  0  0  0  0  0  0
  -25.9380  -34.9630   23.4200 C   0  0  0  0  0  0  0  0  0  0  0  0
  -26.6100  -34.8740   22.3900 O   0  0  0  0  0  0  0  0  0  0  0  0
  -25.0130  -34.0440   24.9690 H   0  0  0  0  0  0  0  0  0  0  0  0
  -24.1920  -36.7400   23.0810 C   0  0  0  0  0  1  0  0  0  0  0  0
  -25.4380  -36.3420   23.8880 C   0  0  0  0  0  3  0  0  0  0  0  0
  -27.5650  -37.2440   24.7220 C   0  0  0  0  0  1  0  0  0  0  0  0
  -26.4600  -37.4060   23.7810 N   0  0  0  0  0  0  0  0  0  0  0  0
  -26.0450  -38.3210   23.9340 H   0  0  0  0  0  0  0  0  0  0  0  0
  -26.4370  -31.7250   25.1000 C   0  0  1  0  0  0  0  0  0  0  0  0
  -25.3320  -31.4720   26.1500 C   0  0  0  0  0  1  0  0  0  0  0  0
  -27.0310  -30.3530   24.6970 C   0  0  0  0  0  1  0  0  0  0  0  0
  -27.5750  -32.5160   25.7860 C   0  0  0  0  0  1  0  0  0  0  0  0
  1  3  2  0
  1  2  1  0
  2  6  2  0
  4  5  1  0
  4  1  1  0
  5  2  1  0
  7 11  1  0
  9  7  2  0
  9 12  1  0
 10  8  1  0
 11 21  1  0
 11  8  2  0
 12  5  1  0
 12 10  2  0
 13 22  1  0
 14 19  1  0
 15 16  1  0
 15 14  1  0
 17 16  1  0
 17 28  1  0
 17 18  1  0
 19 13  1  0
 19 18  1  0
 20 13  2  0
 21 23  2  0
 22 24  1  0
 22 21  1  0
 25 26  2  0
 26 45  1  0
 27 26  1  0
 27 30  1  0
 28 29  1  0
 28 25  1  0
 29 27  2  0
 30 31  1  0
 31 32  2  0
 33 36  1  0
 33 32  1  0
 34 33  2  0
 35 34  1  0
 35 30  2  0
 36 37  1  0
 37 42  2  0
 37 38  1  0
 38 39  2  0
 39 40  1  0
 40 44  1  0
 41 40  2  0
 42 41  1  0
 43 42  1  0
 45 46  1  0
 46 49  1  0
 46 48  1  0
 47 45  2  0
 50 25  1  0
 50 51  1  0
 52 50  1  0
 53  3  1  0
 54 65  2  0
 55 53  1  0
 55 60  1  0
 56 64  1  0
 56 66  1  0
 57 63  1  0
 57 59  1  0
 58 64  1  0
 59 58  1  0
 60 59  2  0
 61 55  2  0
 62 61  1  0
 62 57  2  0
 63 56  1  0
 64 54  1  0
 66 68  2  0
 67 66  1  0
 69 67  1  0
 70 79  2  0
 70 75  1  0
 71 67  1  0
 71 75  1  0
 72 71  1  0
 73 74  1  0
 73 72  1  0
 74 70  1  0
 75 76  2  0
 76 77  1  0
 78 77  2  0
 79 78  1  0
 80 54  1  0
 80 81  1  0
 80 90  1  0
 81 84  1  0
 82 86  1  0
 82 81  1  0
 83 82  2  0
 86 85  1  0
 88 86  1  0
 88 89  1  0
 88 87  1  0
 90 93  1  1
 90 91  1  0
 92 90  1  0
M  ISO  4   3 101  13 100  22 100  53 101
M  END
>  <TORSDO>  (1) 
F 17

>  <SCORE>  (1) 
-14.036

>  <name>  (1) 
0

>  <ligand_id>  (1) 
0

>  <original_smiles>  (1) 
[H]C(Oc1c([H])c([H])c2c(c1[H])C([H])([H])N(C(=O)C([H])(N([H])C(=O)C([H])(N([H])C([H])([H])[H])C([H])([H])[H])C(C([H])([H])[H])(C([H])([H])[H])C([H])([H])[H])C([H])(C(=O)N([H])C1([H])c3c([H])c([H])c([H])c([H])c3C([H])([H])C([H])([H])C1([H])[H])C2([H])[H])=C1C(=O)N(c2c([H])c([H])c(C(=O)N([H])C(=O)N3C([H])([H])C([H])([H])C([H])([H])C([H])(n4nc(-c5c([H])c([H])c(Oc6c([H])c([H])c(F)c([H])c6F)c([H])c5[H])c(C(=O)N([H])[H])c4N([H])[H])C3([H])[H])c([H])c2[H])C1([H])[H]

>  <smiles>  (1) 
[H]C(Oc1c([H])c([H])c2c(c1[H])C([H])([H])N(C(=O)C([H])(N([H])C(=O)C([H])(N([H])C([H])([H])[H])C([H])([H])[H])C(C([H])([H])[H])(C([H])([H])[H])C([H])([H])[H])C([H])(C(=O)N([H])C1([H])c3c([H])c([H])c([H])c([H])c3C([H])([H])C([H])([H])C1([H])[H])C2([H])[H])=C1C(=O)N(c2c([H])c([H])c(C(=O)N([H])C(=O)N3C([H])([H])C([H])([H])C([H])([H])C([H])(n4nc(-c5c([H])c([H])c(Oc6c([H])c([H])c(F)c([H])c6F)c([H])c5[H])c(C(=O)N([H])[H])c4N([H])[H])C3([H])[H])c([H])c2[H])C1([H])[H]

$$$$
1:0:0
     RDKit          3D

 94102  0  0  1  0  0  0  0  0999 V2000
  -28.9370  -22.9590   21.0920 C   0  0  0  0  0  0  0  0  0  0  0  0
  -28.7000  -21.6840   20.9110 N   0  0  0  0  0  0  0  0  0  0  0  0
  -29.5480  -20.6250   21.3210 C   0  0  0  0  0  0  0  0  0  0  0  0
  -30.4310  -20.6750   22.1770 O   0  0  0  0  0  0  0  0  0  0  0  0
  -28.6580  -18.0420   18.6270 C   0  0  0  0  0  3  0  0  0  0  0  0
  -28.7720  -19.2450   19.3440 C   0  0  0  0  0  3  0  0  0  0  0  0
  -29.1240  -16.8380   19.1740 C   0  0  0  0  0  3  0  0  0  0  0  0
  -29.7840  -18.0290   21.2000 C   0  0  0  0  0  3  0  0  0  0  0  0
  -29.3460  -19.2760   20.6320 C   0  0  0  0  0  0  0  0  0  0  0  0
  -29.6850  -16.8010   20.4690 C   0  0  0  0  0  0  0  0  0  0  0  0
  -30.6850  -14.5400   20.3210 C   0  0  0  0  0  0  0  0  0  0  0  0
  -30.3860  -12.3800   19.1480 C   0  0  0  0  0  2  0  0  0  0  0  0
  -29.4300  -12.5920   17.9520 C   0  0  0  0  0  2  0  0  0  0  0  0
  -27.9550  -12.4610   18.3870 C   0  0  0  0  0  2  0  0  0  0  0  0
  -27.6360  -13.2630   19.6780 C   0  0  0  0  0  3  0  0  0  0  0  0
  -28.7070  -13.0290   20.7690 C   0  0  0  0  0  2  0  0  0  0  0  0
  -30.0270  -13.3490   20.2010 N   0  0  0  0  0  0  0  0  0  0  0  0
  -31.7660  -14.7560   19.7620 O   0  0  0  0  0  0  0  0  0  0  0  0
  -30.0470  -15.5180   21.0160 N   0  0  0  0  0  0  0  0  0  0  0  0
  -29.3810  -15.1550   21.6830 H   0  0  0  0  0  0  0  0  0  0  0  0
  -25.2510  -13.8740   20.4260 C   0  0  0  0  0  0  0  0  0  0  0  0
  -24.1860  -13.1030   20.8120 C   0  0  0  0  0  0  0  0  0  0  0  0
  -24.6420  -11.7500   20.7690 C   0  0  0  0  0  0  0  0  0  0  0  0
  -26.2890  -12.9900   20.1740 N   0  0  0  0  0  0  0  0  0  0  0  0
  -25.9270  -11.7080   20.4370 N   0  0  0  0  0  0  0  0  0  0  0  0
  -23.9170  -10.4900   20.9710 C   0  0  0  0  0  0  0  0  0  0  0  0
  -24.3510   -9.5260   21.9080 C   0  0  0  0  0  3  0  0  0  0  0  0
  -23.6240   -8.3310   22.0990 C   0  0  0  0  0  3  0  0  0  0  0  0
  -22.4460   -8.0920   21.3510 C   0  0  0  0  0  0  0  0  0  0  0  0
  -22.0300   -9.0440   20.4030 C   0  0  0  0  0  3  0  0  0  0  0  0
  -22.7590  -10.2300   20.2110 C   0  0  0  0  0  3  0  0  0  0  0  0
  -21.6920   -6.9470   21.4470 O   0  0  0  0  0  0  0  0  0  0  0  0
  -21.6350   -6.2170   22.6070 C   0  0  0  0  0  0  0  0  0  0  0  0
  -21.1970   -6.7870   23.8220 C   0  0  0  0  0  3  0  0  0  0  0  0
  -21.0870   -5.9830   24.9740 C   0  0  0  0  0  3  0  0  0  0  0  0
  -21.4030   -4.6130   24.9130 C   0  0  0  0  0  0  0  0  0  0  0  0
  -21.8310   -4.0440   23.7010 C   0  0  0  0  0  3  0  0  0  0  0  0
  -21.9430   -4.8430   22.5490 C   0  0  0  0  0  0  0  0  0  0  0  0
  -22.3360   -4.2840   21.3800 F   0  0  0  0  0  0  0  0  0  0  0  0
  -21.2890   -3.8400   26.0180 F   0  0  0  0  0  0  0  0  0  0  0  0
  -22.7950  -13.5860   21.1080 C   0  0  0  0  0  0  0  0  0  0  0  0
  -22.0760  -12.8930   21.9810 N   0  0  0  0  0  0  0  0  0  0  0  0
  -22.3540  -14.6150   20.5970 O   0  0  0  0  0  0  0  0  0  0  0  0
  -22.4460  -12.0670   22.4270 H   0  0  0  0  0  0  0  0  0  0  0  0
  -21.1420  -13.2010   22.2140 H   0  0  0  0  0  0  0  0  0  0  0  0
  -25.4190  -15.2430   20.2580 N   0  0  0  0  0  0  0  0  0  0  0  0
  -24.6610  -15.9040   20.3950 H   0  0  0  0  0  0  0  0  0  0  0  0
  -26.2780  -15.6880   19.9550 H   0  0  0  0  0  0  0  0  0  0  0  0
  -27.9430  -24.0700   20.6310 C   0  0  0  0  0  0  0  0  0  0  0  0
  -26.7370  -23.9670   20.8820 O   0  0  0  0  0  0  0  0  0  0  0  0
  -28.4240  -25.2540   19.7210 C   0  0  0  0  0  2  0  0  0  0  0  0
  -28.3250  -26.6040   20.2800 O   0  0  0  0  0  0  0  0  0  0  0  0
  -24.5770  -31.9010   23.2350 C   0  0  0  0  0  0  0  0  0  0  0  0
  -27.1700  -27.3750   20.1850 C   0  0  0  0  0  0  0  0  0  0  0  0
  -23.3600  -30.5120   21.5900 C   0  0  0  0  0  3  0  0  0  0  0  0
  -24.7980  -28.9550   20.1580 C   0  0  0  0  0  0  0  0  0  0  0  0
  -25.8910  -30.8330   21.3940 C   0  0  0  0  0  2  0  0  0  0  0  0
  -25.9610  -29.4540   20.7570 C   0  0  0  0  0  0  0  0  0  0  0  0
  -27.1420  -28.6690   20.7730 C   0  0  0  0  0  3  0  0  0  0  0  0
  -25.9910  -26.9140   19.5530 C   0  0  0  0  0  3  0  0  0  0  0  0
  -24.8150  -27.6890   19.5430 C   0  0  0  0  0  3  0  0  0  0  0  0
  -23.5610  -29.8290   20.2070 C   0  0  0  0  0  2  0  0  0  0  0  0
  -24.6290  -31.1000   22.1320 N   0  0  0  0  0  0  0  0  0  0  0  0
  -23.4960  -32.1810   23.7730 O   0  0  0  0  0  0  0  0  0  0  0  0
  -22.6990  -29.4970   22.5530 C   0  0  0  0  0  0  0  0  0  0  0  0
  -21.3710  -29.3270   22.4320 N   0  0  0  0  0  0  0  0  0  0  0  0
  -23.3800  -28.8640   23.3650 O   0  0  0  0  0  0  0  0  0  0  0  0
  -20.8790  -29.9000   21.7590 H   0  0  0  0  0  0  0  0  0  0  0  0
  -17.9900  -28.1570   22.9510 C   0  0  0  0  0  0  0  0  0  0  0  0
  -20.5520  -28.3890   23.2010 C   0  0  0  0  0  3  0  0  0  0  0  0
  -20.6330  -26.9590   22.6200 C   0  0  0  0  0  2  0  0  0  0  0  0
  -19.5230  -26.6530   21.6100 C   0  0  0  0  0  2  0  0  0  0  0  0
  -18.1460  -26.8090   22.2640 C   0  0  0  0  0  2  0  0  0  0  0  0
  -19.1190  -28.9050   23.3760 C   0  0  0  0  0  0  0  0  0  0  0  0
  -18.9170  -30.1680   23.9750 C   0  0  0  0  0  3  0  0  0  0  0  0
  -17.6190  -30.6820   24.1490 C   0  0  0  0  0  3  0  0  0  0  0  0
  -16.5050  -29.9310   23.7370 C   0  0  0  0  0  3  0  0  0  0  0  0
  -16.6910  -28.6680   23.1470 C   0  0  0  0  0  3  0  0  0  0  0  0
  -25.8670  -32.5250   23.8570 C   0  0  0  0  0  3  0  0  0  0  0  0
  -25.5660  -33.9250   24.1930 N   0  0  0  0  0  0  0  0  0  0  0  0
  -25.9040  -34.9760   23.4330 C   0  0  0  0  0  0  0  0  0  0  0  0
  -26.5690  -34.8710   22.4010 O   0  0  0  0  0  0  0  0  0  0  0  0
  -24.9820  -34.0850   24.9990 H   0  0  0  0  0  0  0  0  0  0  0  0
  -24.1830  -36.7770   23.0850 C   0  0  0  0  0  1  0  0  0  0  0  0
  -25.4240  -36.3670   23.8940 C   0  0  0  0  0  3  0  0  0  0  0  0
  -27.5640  -37.2380   24.7220 C   0  0  0  0  0  1  0  0  0  0  0  0
  -26.4630  -37.4140   23.7810 N   0  0  0  0  0  0  0  0  0  0  0  0
  -26.0610  -38.3360   23.9260 H   0  0  0  0  0  0  0  0  0  0  0  0
  -26.3840  -31.7490   25.1300 C   0  0  1  0  0  0  0  0  0  0  0  0
  -25.2950  -31.5100   26.2010 C   0  0  0  0  0  1  0  0  0  0  0  0
  -26.9620  -30.3720   24.7280 C   0  0  0  0  0  1  0  0  0  0  0  0
  -27.5420  -32.5330   25.7890 C   0  0  0  0  0  1  0  0  0  0  0  0
  -30.0610  -23.5800   23.3400 C   0  0  0  0  0  1  0  0  0  0  0  0
  -30.1760  -23.5390   21.8000 C   0  0  0  0  0  2  0  0  0  0  0  0
  1 94  1  0
  2  1  2  0
  2  3  1  0
  3  4  2  0
  5  7  2  0
  5  6  1  0
  6  9  2  0
  7 10  1  0
  9  8  1  0
  9  3  1  0
 10 19  1  0
 10  8  2  0
 11 19  1  0
 12 17  1  0
 13 14  1  0
 13 12  1  0
 15 14  1  0
 15 24  1  0
 15 16  1  0
 17 11  1  0
 17 16  1  0
 18 11  2  0
 19 20  1  0
 21 22  2  0
 22 41  1  0
 23 22  1  0
 23 26  1  0
 24 21  1  0
 24 25  1  0
 25 23  2  0
 26 27  1  0
 27 28  2  0
 29 32  1  0
 29 28  1  0
 30 29  2  0
 31 30  1  0
 31 26  2  0
 32 33  1  0
 33 34  1  0
 34 35  2  0
 36 35  1  0
 36 40  1  0
 37 36  2  0
 38 33  2  0
 38 37  1  0
 39 38  1  0
 41 42  1  0
 42 45  1  0
 42 44  1  0
 43 41  2  0
 46 47  1  0
 46 21  1  0
 48 46  1  0
 49 50  2  0
 49  1  1  0
 51 52  1  0
 51 49  1  0
 53 64  2  0
 54 52  1  0
 54 59  1  0
 55 63  1  0
 55 65  1  0
 56 62  1  0
 56 58  1  0
 57 63  1  0
 58 59  2  0
 58 57  1  0
 60 54  2  0
 61 60  1  0
 61 56  2  0
 62 55  1  0
 63 53  1  0
 65 67  2  0
 66 65  1  0
 68 66  1  0
 69 78  2  0
 69 74  1  0
 70 66  1  0
 70 74  1  0
 71 70  1  0
 72 73  1  0
 72 71  1  0
 73 69  1  0
 74 75  2  0
 75 76  1  0
 77 76  2  0
 78 77  1  0
 79 53  1  0
 79 80  1  0
 79 89  1  0
 80 83  1  0
 81 85  1  0
 81 80  1  0
 82 81  2  0
 85 84  1  0
 87 85  1  0
 87 88  1  0
 87 86  1  0
 89 92  1  1
 89 90  1  0
 91 89  1  0
 94 93  1  0
M  ISO  4  11 100  19 100  51 101  52 101
M  END
>  <TORSDO>  (2) 
F 21

>  <SCORE>  (2) 
-13.766

>  <name>  (2) 
1

>  <ligand_id>  (2) 
1

>  <original_smiles>  (2) 
[H]c1c([H])c(C(=O)N=C(C(=O)C([H])([H])Oc2c([H])c([H])c3c(c2[H])C([H])([H])N(C(=O)C([H])(N([H])C(=O)C([H])(N([H])C([H])([H])[H])C([H])([H])[H])C(C([H])([H])[H])(C([H])([H])[H])C([H])([H])[H])C([H])(C(=O)N([H])C2([H])c4c([H])c([H])c([H])c([H])c4C([H])([H])C([H])([H])C2([H])[H])C3([H])[H])C([H])([H])C([H])([H])[H])c([H])c(N([H])C(=O)N2C([H])([H])C([H])([H])C([H])([H])C([H])(n3nc(-c4c([H])c([H])c(Oc5c([H])c([H])c(F)c([H])c5F)c([H])c4[H])c(C(=O)N([H])[H])c3N([H])[H])C2([H])[H])c1[H]

>  <smiles>  (2) 
[H]c1c([H])c(C(=O)N=C(C(=O)C([H])([H])Oc2c([H])c([H])c3c(c2[H])C([H])([H])N(C(=O)C([H])(N([H])C(=O)C([H])(N([H])C([H])([H])[H])C([H])([H])[H])C(C([H])([H])[H])(C([H])([H])[H])C([H])([H])[H])C([H])(C(=O)N([H])C2([H])c4c([H])c([H])c([H])c([H])c4C([H])([H])C([H])([H])C2([H])[H])C3([H])[H])C([H])([H])C([H])([H])[H])c([H])c(N([H])C(=O)N2C([H])([H])C([H])([H])C([H])([H])C([H])(n3nc(-c4c([H])c([H])c(Oc5c([H])c([H])c(F)c([H])c5F)c([H])c4[H])c(C(=O)N([H])[H])c3N([H])[H])C2([H])[H])c1[H]

$$$$
2:0:0
     RDKit          3D

103112  0  0  1  0  0  0  0  0999 V2000
  -31.3750  -18.3200   20.9670 C   0  0  0  0  0  3  0  0  0  0  0  0
  -31.1750  -18.8590   18.6000 C   0  0  0  0  0  3  0  0  0  0  0  0
  -31.5560  -17.9310   19.6260 C   0  0  0  0  0  0  0  0  0  0  0  0
  -30.4790  -20.4990   20.2750 C   0  0  0  0  0  0  0  0  0  0  0  0
  -30.8450  -19.5820   21.3010 C   0  0  0  0  0  0  0  0  0  0  0  0
  -30.6350  -20.1480   18.9030 C   0  0  0  0  0  0  0  0  0  0  0  0
  -29.9550  -21.8850   20.6440 C   0  0  0  0  0  1  0  0  0  0  0  0
  -32.3440  -14.2090   19.7660 C   0  0  0  0  0  0  0  0  0  0  0  0
  -31.7910  -11.8260   19.3940 C   0  0  0  0  0  2  0  0  0  0  0  0
  -30.8870  -11.7250   18.1470 C   0  0  0  0  0  2  0  0  0  0  0  0
  -29.4060  -11.8770   18.5430 C   0  0  0  0  0  2  0  0  0  0  0  0
  -29.1530  -13.0960   19.4720 C   0  0  0  0  0  3  0  0  0  0  0  0
  -30.1890  -13.1700   20.6200 C   0  0  0  0  0  2  0  0  0  0  0  0
  -31.5320  -13.1370   20.0250 N   0  0  0  0  0  0  0  0  0  0  0  0
  -33.5000  -14.0310   19.3760 O   0  0  0  0  0  0  0  0  0  0  0  0
  -32.2760  -16.6240   19.3130 C   0  0  0  0  0  0  0  0  0  0  0  0
  -31.7710  -15.4500   19.8070 N   0  0  0  0  0  0  0  0  0  0  0  0
  -33.2820  -16.6930   18.5970 O   0  0  0  0  0  0  0  0  0  0  0  0
  -30.8650  -15.5060   20.2360 H   0  0  0  0  0  0  0  0  0  0  0  0
  -26.9640  -14.1960   20.2420 C   0  0  0  0  0  0  0  0  0  0  0  0
  -25.7550  -13.6750   20.6160 C   0  0  0  0  0  0  0  0  0  0  0  0
  -25.9020  -12.2550   20.5520 C   0  0  0  0  0  0  0  0  0  0  0  0
  -27.7820  -13.1090   19.9750 N   0  0  0  0  0  0  0  0  0  0  0  0
  -27.1470  -11.9340   20.2210 N   0  0  0  0  0  0  0  0  0  0  0  0
  -24.9110  -11.1840   20.7310 C   0  0  0  0  0  0  0  0  0  0  0  0
  -25.1590  -10.0830   21.5810 C   0  0  0  0  0  3  0  0  0  0  0  0
  -24.1840   -9.0770   21.7510 C   0  0  0  0  0  3  0  0  0  0  0  0
  -22.9450   -9.1650   21.0730 C   0  0  0  0  0  0  0  0  0  0  0  0
  -22.7130  -10.2490   20.2090 C   0  0  0  0  0  3  0  0  0  0  0  0
  -23.6870  -11.2480   20.0360 C   0  0  0  0  0  3  0  0  0  0  0  0
  -21.9510   -8.2200   21.1560 O   0  0  0  0  0  0  0  0  0  0  0  0
  -21.8740   -7.3460   22.2110 C   0  0  0  0  0  0  0  0  0  0  0  0
  -21.6860   -7.7920   23.5380 C   0  0  0  0  0  3  0  0  0  0  0  0
  -21.5450   -6.8580   24.5820 C   0  0  0  0  0  3  0  0  0  0  0  0
  -21.5820   -5.4780   24.3050 C   0  0  0  0  0  0  0  0  0  0  0  0
  -21.7650   -5.0310   22.9840 C   0  0  0  0  0  3  0  0  0  0  0  0
  -21.9090   -5.9630   21.9410 C   0  0  0  0  0  0  0  0  0  0  0  0
  -22.0620   -5.5270   20.6670 F   0  0  0  0  0  0  0  0  0  0  0  0
  -21.4390   -4.5780   25.3060 F   0  0  0  0  0  0  0  0  0  0  0  0
  -24.5050  -14.4460   20.9210 C   0  0  0  0  0  0  0  0  0  0  0  0
  -23.6580  -13.9210   21.7990 N   0  0  0  0  0  0  0  0  0  0  0  0
  -24.2950  -15.5480   20.4140 O   0  0  0  0  0  0  0  0  0  0  0  0
  -23.8390  -13.0260   22.2290 H   0  0  0  0  0  0  0  0  0  0  0  0
  -22.8170  -14.4230   22.0480 H   0  0  0  0  0  0  0  0  0  0  0  0
  -27.4320  -15.4970   20.0870 N   0  0  0  0  0  0  0  0  0  0  0  0
  -26.8300  -16.3050   20.1950 H   0  0  0  0  0  0  0  0  0  0  0  0
  -28.3410  -15.7300   19.7070 H   0  0  0  0  0  0  0  0  0  0  0  0
  -30.4140  -19.3560   25.0310 C   0  0  0  0  0  0  0  0  0  0  0  0
  -29.4520  -18.8600   25.8250 C   0  0  0  0  0  2  0  0  0  0  0  0
  -31.3380  -20.4800   25.4680 C   0  0  0  0  0  2  0  0  0  0  0  0
  -30.6580  -18.8450   23.6180 C   0  0  0  0  0  2  0  0  0  0  0  0
  -31.3810  -21.5830   24.3990 C   0  0  0  0  0  2  0  0  0  0  0  0
  -31.7070  -21.0080   23.0120 C   0  0  0  0  0  2  0  0  0  0  0  0
  -30.7650  -19.9490   22.6580 N   0  0  0  0  0  0  0  0  0  0  0  0
  -29.3500  -21.3820   17.0730 C   0  0  0  0  0  0  0  0  0  0  0  0
  -30.4140  -21.1700   17.8930 N   0  0  0  0  0  0  0  0  0  0  0  0
  -28.4910  -20.5150   16.8950 O   0  0  0  0  0  0  0  0  0  0  0  0
  -30.9970  -21.9960   17.9650 H   0  0  0  0  0  0  0  0  0  0  0  0
  -28.2180  -23.2460   15.8430 C   0  0  0  0  0  3  0  0  0  0  0  0
  -29.3410  -22.7260   16.4250 C   0  0  0  0  0  0  0  0  0  0  0  0
  -30.4680  -23.4530   16.4210 O   0  0  0  0  0  0  0  0  0  0  0  0
  -30.2720  -24.2550   15.9530 H   0  0  0  0  0  0  0  0  0  0  0  0
  -28.1150  -24.5000   15.2190 O   0  0  0  0  0  0  0  0  0  0  0  0
  -24.6310  -28.1220   20.3500 C   0  0  0  0  0  0  0  0  0  0  0  0
  -27.0650  -25.3720   15.5300 C   0  0  0  0  0  0  0  0  0  0  0  0
  -23.4400  -27.8520   18.2020 C   0  0  0  0  0  3  0  0  0  0  0  0
  -24.8560  -27.0390   16.2370 C   0  0  0  0  0  0  0  0  0  0  0  0
  -26.0020  -27.9260   18.2680 C   0  0  0  0  0  2  0  0  0  0  0  0
  -26.0090  -27.0370   17.0330 C   0  0  0  0  0  0  0  0  0  0  0  0
  -27.1140  -26.2130   16.6810 C   0  0  0  0  0  3  0  0  0  0  0  0
  -25.8950  -25.4280   14.7360 C   0  0  0  0  0  3  0  0  0  0  0  0
  -24.7990  -26.2390   15.0860 C   0  0  0  0  0  3  0  0  0  0  0  0
  -23.7030  -27.9170   16.6740 C   0  0  0  0  0  2  0  0  0  0  0  0
  -24.7060  -27.9510   18.9980 N   0  0  0  0  0  0  0  0  0  0  0  0
  -23.5390  -28.2270   20.9260 O   0  0  0  0  0  0  0  0  0  0  0  0
  -22.6180  -26.5810   18.5180 C   0  0  0  0  0  0  0  0  0  0  0  0
  -21.3860  -26.5130   17.9870 N   0  0  0  0  0  0  0  0  0  0  0  0
  -23.0980  -25.6740   19.2030 O   0  0  0  0  0  0  0  0  0  0  0  0
  -21.0590  -27.3030   17.4490 H   0  0  0  0  0  0  0  0  0  0  0  0
  -18.2120  -25.2120   16.8460 C   0  0  0  0  0  0  0  0  0  0  0  0
  -20.4530  -25.3940   18.1220 C   0  0  0  0  0  3  0  0  0  0  0  0
  -20.9120  -24.1820   17.2800 C   0  0  0  0  0  2  0  0  0  0  0  0
  -20.2950  -24.1520   15.8780 C   0  0  0  0  0  2  0  0  0  0  0  0
  -18.7670  -24.1060   15.9640 C   0  0  0  0  0  2  0  0  0  0  0  0
  -19.0080  -25.8280   17.8490 C   0  0  0  0  0  0  0  0  0  0  0  0
  -18.4520  -26.8730   18.6180 C   0  0  0  0  0  3  0  0  0  0  0  0
  -17.1290  -27.3010   18.4030 C   0  0  0  0  0  3  0  0  0  0  0  0
  -16.3410  -26.6790   17.4190 C   0  0  0  0  0  3  0  0  0  0  0  0
  -16.8800  -25.6340   16.6470 C   0  0  0  0  0  3  0  0  0  0  0  0
  -25.9140  -28.2120   21.2350 C   0  0  0  0  0  3  0  0  0  0  0  0
  -26.4730  -26.8010   21.6670 C   0  0  1  0  0  0  0  0  0  0  0  0
  -25.4080  -25.8780   22.3030 C   0  0  0  0  0  1  0  0  0  0  0  0
  -27.0800  -26.0560   20.4560 C   0  0  0  0  0  1  0  0  0  0  0  0
  -27.6180  -26.9830   22.6920 C   0  0  0  0  0  1  0  0  0  0  0  0
  -25.5810  -29.0230   22.4140 N   0  0  0  0  0  0  0  0  0  0  0  0
  -26.0000  -30.2790   22.6190 C   0  0  0  0  0  0  0  0  0  0  0  0
  -26.7750  -30.8580   21.8530 O   0  0  0  0  0  0  0  0  0  0  0  0
  -24.9070  -28.6320   23.0550 H   0  0  0  0  0  0  0  0  0  0  0  0
  -24.3640  -31.9890   23.4700 C   0  0  0  0  0  1  0  0  0  0  0  0
  -25.4760  -31.0070   23.8700 C   0  0  0  0  0  3  0  0  0  0  0  0
  -27.4820  -30.8440   25.2780 C   0  0  0  0  0  1  0  0  0  0  0  0
  -26.5310  -31.7310   24.6140 N   0  0  0  0  0  0  0  0  0  0  0  0
  -26.1210  -32.3380   25.3190 H   0  0  0  0  0  0  0  0  0  0  0  0
  1  5  1  0
  2  6  2  0
  2  3  1  0
  3  1  2  0
  4  7  1  0
  4  5  2  0
  5 54  1  0
  6  4  1  0
  8 17  1  0
  8 14  1  0
  9 14  1  0
 10 11  1  0
 10  9  1  0
 12 11  1  0
 12 23  1  0
 12 13  1  0
 14 13  1  0
 15  8  2  0
 16  3  1  0
 16 17  1  0
 17 19  1  0
 18 16  2  0
 20 21  2  0
 21 40  1  0
 22 21  1  0
 22 25  1  0
 23 24  1  0
 23 20  1  0
 24 22  2  0
 25 26  1  0
 26 27  2  0
 28 31  1  0
 28 27  1  0
 29 28  2  0
 30 29  1  0
 30 25  2  0
 31 32  1  0
 32 33  1  0
 33 34  2  0
 35 34  1  0
 35 39  1  0
 36 35  2  0
 37 32  2  0
 37 36  1  0
 38 37  1  0
 40 41  1  0
 41 44  1  0
 41 43  1  0
 42 40  2  0
 45 46  1  0
 45 20  1  0
 47 45  1  0
 48 50  1  0
 48 49  2  0
 51 48  1  0
 52 50  1  0
 53 52  1  0
 54 53  1  0
 54 51  1  0
 55 56  1  0
 56 58  1  0
 56  6  1  0
 57 55  2  0
 59 60  2  0
 60 55  1  0
 61 60  1  0
 62 61  1  0
 63 65  1  0
 63 59  1  0
 64 75  2  0
 65 70  1  0
 66 76  1  0
 66 74  1  0
 67 73  1  0
 67 69  1  0
 68 74  1  0
 69 68  1  0
 70 69  2  0
 71 72  1  0
 71 65  2  0
 72 67  2  0
 73 66  1  0
 74 64  1  0
 76 78  2  0
 77 76  1  0
 79 77  1  0
 80 85  1  0
 81 77  1  0
 82 81  1  0
 83 84  1  0
 83 82  1  0
 84 80  1  0
 85 81  1  0
 85 86  2  0
 87 86  1  0
 88 87  2  0
 89 80  2  0
 89 88  1  0
 90 64  1  0
 90 91  1  0
 90 95  1  0
 91 92  1  1
 91 94  1  0
 93 91  1  0
 95 96  1  0
 95 98  1  0
 96100  1  0
 97 96  2  0
100 99  1  0
100102  1  0
102101  1  0
102103  1  0
M  ISO  4   8 100  17 100  59 101  63 101
M  END
>  <TORSDO>  (3) 
F 20

>  <SCORE>  (3) 
-2.832

>  <name>  (3) 
2

>  <ligand_id>  (3) 
2

>  <original_smiles>  (3) 
[H]OC(C(=O)N([H])c1c([H])c(C(=O)N([H])C(=O)N2C([H])([H])C([H])([H])C([H])([H])C([H])(n3nc(-c4c([H])c([H])c(Oc5c([H])c([H])c(F)c([H])c5F)c([H])c4[H])c(C(=O)N([H])[H])c3N([H])[H])C2([H])[H])c([H])c(N2C([H])([H])C(=C([H])[H])C([H])([H])C([H])([H])C2([H])[H])c1C([H])([H])[H])=C([H])Oc1c([H])c([H])c2c(c1[H])C([H])([H])N(C(=O)C([H])(N([H])C(=O)C([H])(N([H])C([H])([H])[H])C([H])([H])[H])C(C([H])([H])[H])(C([H])([H])[H])C([H])([H])[H])C([H])(C(=O)N([H])C1([H])c3c([H])c([H])c([H])c([H])c3C([H])([H])C([H])([H])C1([H])[H])C2([H])[H]

>  <smiles>  (3) 
[H]OC(C(=O)N([H])c1c([H])c(C(=O)N([H])C(=O)N2C([H])([H])C([H])([H])C([H])([H])C([H])(n3nc(-c4c([H])c([H])c(Oc5c([H])c([H])c(F)c([H])c5F)c([H])c4[H])c(C(=O)N([H])[H])c3N([H])[H])C2([H])[H])c([H])c(N2C([H])([H])C(=C([H])[H])C([H])([H])C([H])([H])C2([H])[H])c1C([H])([H])[H])=C([H])Oc1c([H])c([H])c2c(c1[H])C([H])([H])N(C(=O)C([H])(N([H])C(=O)C([H])(N([H])C([H])([H])[H])C([H])([H])[H])C(C([H])([H])[H])(C([H])([H])[H])C([H])([H])[H])C([H])(C(=O)N([H])C1([H])c3c([H])c([H])c([H])c([H])c3C([H])([H])C([H])([H])C1([H])[H])C2([H])[H]

$$$$
3:0:0
     RDKit          3D

 94103  0  0  1  0  0  0  0  0999 V2000
  -28.6470  -19.4270   19.8110 C   0  0  0  0  0  2  0  0  0  0  0  0
  -29.5440  -18.0060   19.6380 C   0  0  0  0  0  3  0  0  0  0  0  0
  -29.8750  -16.1110   19.5000 C   0  0  0  0  0  0  0  0  0  0  0  0
  -29.9340  -13.4270   18.6390 C   0  0  0  0  0  2  0  0  0  0  0  0
  -28.9860  -12.7360   17.5940 C   0  0  0  0  0  2  0  0  0  0  0  0
  -27.7190  -12.2080   18.2600 C   0  0  0  0  0  2  0  0  0  0  0  0
  -27.2380  -13.2220   19.3080 C   0  0  0  0  0  3  0  0  0  0  0  0
  -28.3400  -13.8340   20.2380 C   0  0  0  0  0  2  0  0  0  0  0  0
  -29.3090  -14.6690   19.4220 N   0  0  0  0  0  0  0  0  0  0  0  0
  -31.0660  -15.7370   19.2820 O   0  0  0  0  0  0  0  0  0  0  0  0
  -25.0130  -13.6260   20.4200 C   0  0  0  0  0  0  0  0  0  0  0  0
  -24.0280  -12.8120   20.8960 C   0  0  0  0  0  0  0  0  0  0  0  0
  -24.5140  -11.4740   20.7520 C   0  0  0  0  0  0  0  0  0  0  0  0
  -26.0340  -12.7960   20.0120 N   0  0  0  0  0  0  0  0  0  0  0  0
  -25.7560  -11.4860   20.2660 N   0  0  0  0  0  0  0  0  0  0  0  0
  -23.8300  -10.1920   20.9950 C   0  0  0  0  0  0  0  0  0  0  0  0
  -24.3300   -9.2450   21.9150 C   0  0  0  0  0  3  0  0  0  0  0  0
  -23.6370   -8.0380   22.1550 C   0  0  0  0  0  3  0  0  0  0  0  0
  -22.4270   -7.7660   21.4740 C   0  0  0  0  0  0  0  0  0  0  0  0
  -21.9430   -8.7000   20.5420 C   0  0  0  0  0  3  0  0  0  0  0  0
  -22.6370   -9.8990   20.3000 C   0  0  0  0  0  3  0  0  0  0  0  0
  -21.7010   -6.6080   21.6230 O   0  0  0  0  0  0  0  0  0  0  0  0
  -21.6750   -5.9190   22.8090 C   0  0  0  0  0  0  0  0  0  0  0  0
  -21.1980   -6.5070   24.0020 C   0  0  0  0  0  3  0  0  0  0  0  0
  -21.1230   -5.7420   25.1830 C   0  0  0  0  0  3  0  0  0  0  0  0
  -21.5150   -4.3900   25.1730 C   0  0  0  0  0  0  0  0  0  0  0  0
  -21.9830   -3.8000   23.9860 C   0  0  0  0  0  3  0  0  0  0  0  0
  -22.0610   -4.5620   22.8070 C   0  0  0  0  0  0  0  0  0  0  0  0
  -22.4920   -3.9830   21.6600 F   0  0  0  0  0  0  0  0  0  0  0  0
  -21.4350   -3.6540   26.3060 F   0  0  0  0  0  0  0  0  0  0  0  0
  -22.6700  -13.2540   21.3550 C   0  0  0  0  0  0  0  0  0  0  0  0
  -22.0770  -12.5350   22.2990 N   0  0  0  0  0  0  0  0  0  0  0  0
  -22.1530  -14.2790   20.9110 O   0  0  0  0  0  0  0  0  0  0  0  0
  -22.5130  -11.7080   22.6780 H   0  0  0  0  0  0  0  0  0  0  0  0
  -21.1690  -12.8140   22.6460 H   0  0  0  0  0  0  0  0  0  0  0  0
  -25.1220  -15.0050   20.2600 N   0  0  0  0  0  0  0  0  0  0  0  0
  -24.3680  -15.6410   20.4910 H   0  0  0  0  0  0  0  0  0  0  0  0
  -25.9180  -15.4670   19.8390 H   0  0  0  0  0  0  0  0  0  0  0  0
  -32.8060  -19.2060   18.0550 C   0  0  0  0  0  3  0  0  0  0  0  0
  -31.5340  -18.6250   18.2040 C   0  0  0  0  0  3  0  0  0  0  0  0
  -33.4910  -19.7120   19.1770 C   0  0  0  0  0  3  0  0  0  0  0  0
  -31.6660  -18.9780   20.6100 C   0  0  0  0  0  3  0  0  0  0  0  0
  -30.9480  -18.5000   19.4840 C   0  0  0  0  0  0  0  0  0  0  0  0
  -32.9240  -19.6170   20.4750 C   0  0  0  0  0  0  0  0  0  0  0  0
  -35.0060  -21.1570   23.0890 C   0  0  0  0  0  3  0  0  0  0  0  0
  -33.8210  -21.1820   23.6940 C   0  0  0  0  0  0  0  0  0  0  0  0
  -34.8590  -20.5490   21.7830 C   0  0  0  0  0  0  0  0  0  0  0  0
  -32.7680  -20.5800   22.8160 C   0  0  0  0  0  2  0  0  0  0  0  0
  -33.4940  -21.7150   25.0740 C   0  0  0  0  0  1  0  0  0  0  0  0
  -33.5470  -20.2190   21.6260 N   0  0  0  0  0  0  0  0  0  0  0  0
  -35.7750  -20.3440   20.9780 O   0  0  0  0  0  0  0  0  0  0  0  0
  -28.0050  -21.2530   19.9670 C   0  0  0  0  0  0  0  0  0  0  0  0
  -27.6750  -22.9050   20.0900 C   0  0  0  0  0  0  0  0  0  0  0  0
  -27.9030  -24.6540   20.1880 O   0  0  0  0  0  0  0  0  0  0  0  0
  -24.5570  -31.5720   23.0450 C   0  0  0  0  0  0  0  0  0  0  0  0
  -27.0100  -26.0780   20.1590 C   0  0  0  0  0  0  0  0  0  0  0  0
  -23.3800  -30.1670   21.4140 C   0  0  0  0  0  3  0  0  0  0  0  0
  -24.8200  -28.4090   20.0530 C   0  0  0  0  0  0  0  0  0  0  0  0
  -25.9750  -30.1520   21.3680 C   0  0  0  0  0  2  0  0  0  0  0  0
  -26.0200  -28.6690   20.7240 C   0  0  0  0  0  0  0  0  0  0  0  0
  -27.0760  -27.5480   20.7350 C   0  0  0  0  0  3  0  0  0  0  0  0
  -25.7810  -26.1450   19.4160 C   0  0  0  0  0  3  0  0  0  0  0  0
  -24.7660  -27.1780   19.3720 C   0  0  0  0  0  3  0  0  0  0  0  0
  -23.6420  -29.4230   20.0670 C   0  0  0  0  0  2  0  0  0  0  0  0
  -24.6670  -30.6740   21.9930 N   0  0  0  0  0  0  0  0  0  0  0  0
  -23.4550  -31.9080   23.5210 O   0  0  0  0  0  0  0  0  0  0  0  0
  -22.6030  -29.2450   22.3980 C   0  0  0  0  0  0  0  0  0  0  0  0
  -21.2660  -29.1310   22.2640 N   0  0  0  0  0  0  0  0  0  0  0  0
  -23.2260  -28.6230   23.2610 O   0  0  0  0  0  0  0  0  0  0  0  0
  -20.8070  -29.6810   21.5510 H   0  0  0  0  0  0  0  0  0  0  0  0
  -17.8460  -27.9900   22.7880 C   0  0  0  0  0  0  0  0  0  0  0  0
  -20.4140  -28.2180   23.0420 C   0  0  0  0  0  3  0  0  0  0  0  0
  -20.4860  -26.7810   22.4760 C   0  0  0  0  0  2  0  0  0  0  0  0
  -19.3790  -26.4750   21.4620 C   0  0  0  0  0  2  0  0  0  0  0  0
  -18.0000  -26.6410   22.1050 C   0  0  0  0  0  2  0  0  0  0  0  0
  -18.9780  -28.7380   23.2120 C   0  0  0  0  0  0  0  0  0  0  0  0
  -18.7750  -29.9970   23.8180 C   0  0  0  0  0  3  0  0  0  0  0  0
  -17.4770  -30.5100   23.9980 C   0  0  0  0  0  3  0  0  0  0  0  0
  -16.3610  -29.7620   23.5860 C   0  0  0  0  0  3  0  0  0  0  0  0
  -16.5470  -28.5030   22.9870 C   0  0  0  0  0  3  0  0  0  0  0  0
  -25.8040  -32.2340   23.7060 C   0  0  0  0  0  3  0  0  0  0  0  0
  -26.2700  -31.4890   25.0200 C   0  0  1  0  0  0  0  0  0  0  0  0
  -25.1390  -31.2810   26.0550 C   0  0  0  0  0  1  0  0  0  0  0  0
  -26.8600  -30.0990   24.6980 C   0  0  0  0  0  1  0  0  0  0  0  0
  -27.4010  -32.2920   25.7040 C   0  0  0  0  0  1  0  0  0  0  0  0
  -25.4780  -33.6420   24.0370 N   0  0  0  0  0  0  0  0  0  0  0  0
  -25.8070  -34.7140   23.3010 C   0  0  0  0  0  0  0  0  0  0  0  0
  -26.4630  -34.6230   22.2620 O   0  0  0  0  0  0  0  0  0  0  0  0
  -24.8910  -33.7830   24.8450 H   0  0  0  0  0  0  0  0  0  0  0  0
  -24.0790  -36.5320   23.0300 C   0  0  0  0  0  1  0  0  0  0  0  0
  -25.3430  -36.1040   23.7930 C   0  0  0  0  0  3  0  0  0  0  0  0
  -27.4970  -36.9910   24.5770 C   0  0  0  0  0  1  0  0  0  0  0  0
  -26.3750  -37.1580   23.6580 N   0  0  0  0  0  0  0  0  0  0  0  0
  -25.9720  -38.0790   23.8130 H   0  0  0  0  0  0  0  0  0  0  0  0
  1 52  1  0
  2  1  1  0
  3  2  1  0
  4  9  1  0
  5  6  1  0
  5  4  1  0
  7  6  1  0
  7 14  1  0
  7  8  1  0
  9  3  1  0
  9  8  1  0
 10  3  2  0
 11 12  2  0
 12 31  1  0
 13 12  1  0
 13 16  1  0
 14 15  1  0
 14 11  1  0
 15 13  2  0
 16 17  1  0
 17 18  2  0
 19 22  1  0
 19 18  1  0
 20 19  2  0
 21 20  1  0
 21 16  2  0
 22 23  1  0
 23 24  1  0
 24 25  2  0
 26 25  1  0
 26 30  1  0
 27 26  2  0
 28 23  2  0
 28 27  1  0
 29 28  1  0
 31 32  1  0
 32 35  1  0
 32 34  1  0
 33 31  2  0
 36 11  1  0
 36 37  1  0
 38 36  1  0
 39 40  2  0
 39 41  1  0
 40 43  1  0
 41 44  2  0
 43  2  1  0
 43 42  2  0
 44 42  1  0
 44 50  1  0
 45 46  2  0
 46 49  1  0
 47 45  1  0
 48 46  1  0
 50 47  1  0
 50 48  1  0
 51 47  2  0
 52 53  3  0
 53 54  1  0
 55 66  2  0
 56 54  1  0
 56 61  1  0
 57 65  1  0
 57 67  1  0
 58 64  1  0
 58 60  1  0
 59 65  1  0
 60 61  2  0
 60 59  1  0
 62 56  2  0
 63 62  1  0
 63 58  2  0
 64 57  1  0
 65 55  1  0
 67 69  2  0
 68 67  1  0
 70 68  1  0
 71 80  2  0
 71 76  1  0
 72 68  1  0
 72 76  1  0
 73 72  1  0
 74 75  1  0
 74 73  1  0
 75 71  1  0
 76 77  2  0
 77 78  1  0
 79 78  2  0
 80 79  1  0
 81 55  1  0
 81 86  1  0
 81 82  1  0
 82 85  1  1
 82 83  1  0
 84 82  1  0
 86 89  1  0
 87 91  1  0
 87 86  1  0
 88 87  2  0
 91 90  1  0
 93 91  1  0
 93 94  1  0
 93 92  1  0
M  ISO  4   2 100   3 100  53 101  54 101
M  END
>  <TORSDO>  (4) 
F 19

>  <SCORE>  (4) 
-11.838

>  <name>  (4) 
3

>  <ligand_id>  (4) 
3

>  <original_smiles>  (4) 
[H]C(Oc1c([H])c([H])c2c(c1[H])C([H])([H])N(C(=O)C([H])(N([H])C(=O)C([H])(N([H])C([H])([H])[H])C([H])([H])[H])C(C([H])([H])[H])(C([H])([H])[H])C([H])([H])[H])C([H])(C(=O)N([H])C1([H])c3c([H])c([H])c([H])c([H])c3C([H])([H])C([H])([H])C1([H])[H])C2([H])[H])=C([H])C([H])=C(C(=O)N1C([H])([H])C([H])([H])C([H])([H])C([H])(n2nc(-c3c([H])c([H])c(Oc4c([H])c([H])c(F)c([H])c4F)c([H])c3[H])c(C(=O)N([H])[H])c2N([H])[H])C1([H])[H])c1c([H])c([H])c([H])c(N2C(=O)C([H])=C(C([H])([H])[H])C2([H])[H])c1[H]

>  <smiles>  (4) 
[H]C(Oc1c([H])c([H])c2c(c1[H])C([H])([H])N(C(=O)C([H])(N([H])C(=O)C([H])(N([H])C([H])([H])[H])C([H])([H])[H])C(C([H])([H])[H])(C([H])([H])[H])C([H])([H])[H])C([H])(C(=O)N([H])C1([H])c3c([H])c([H])c([H])c([H])c3C([H])([H])C([H])([H])C1([H])[H])C2([H])[H])=C([H])C([H])=C(C(=O)N1C([H])([H])C([H])([H])C([H])([H])C([H])(n2nc(-c3c([H])c([H])c(Oc4c([H])c([H])c(F)c([H])c4F)c([H])c3[H])c(C(=O)N([H])[H])c2N([H])[H])C1([H])[H])c1c([H])c([H])c([H])c(N2C(=O)C([H])=C(C([H])([H])[H])C2([H])[H])c1[H]

$$$$
4:0:0
     RDKit          3D

 97106  0  0  1  0  0  0  0  0999 V2000
  -28.4810  -24.4800   18.8250 C   0  0  0  0  0  3  0  0  0  0  0  0
  -28.1090  -23.8030   17.6140 C   0  0  0  0  0  0  0  0  0  0  0  0
  -28.8400  -23.4360   19.7930 C   0  0  0  0  0  0  0  0  0  0  0  0
  -27.3360  -24.3180   16.6360 C   0  0  0  0  0  2  0  0  0  0  0  0
  -28.3960  -25.8350   18.9730 C   0  0  0  0  0  2  0  0  0  0  0  0
  -28.4350  -22.3520   17.7360 C   0  0  0  0  0  2  0  0  0  0  0  0
  -28.8830  -22.2260   19.1330 N   0  0  0  0  0  0  0  0  0  0  0  0
  -29.0660  -23.6100   20.9940 O   0  0  0  0  0  0  0  0  0  0  0  0
  -29.3420  -18.4410   19.3040 C   0  0  0  0  0  3  0  0  0  0  0  0
  -30.3780  -19.4190   21.2610 C   0  0  0  0  0  3  0  0  0  0  0  0
  -28.9480  -19.7370   18.8860 C   0  0  0  0  0  3  0  0  0  0  0  0
  -29.9950  -20.7150   20.8320 C   0  0  0  0  0  3  0  0  0  0  0  0
  -30.0730  -18.2600   20.5000 C   0  0  0  0  0  0  0  0  0  0  0  0
  -29.2650  -20.9130   19.6320 C   0  0  0  0  0  0  0  0  0  0  0  0
  -30.7140  -14.4980   20.3210 C   0  0  0  0  0  0  0  0  0  0  0  0
  -30.3450  -12.3480   19.1900 C   0  0  0  0  0  2  0  0  0  0  0  0
  -29.4060  -12.5640   17.9870 C   0  0  0  0  0  2  0  0  0  0  0  0
  -27.9340  -12.4330   18.4230 C   0  0  0  0  0  2  0  0  0  0  0  0
  -27.6050  -13.2640   19.6950 C   0  0  0  0  0  3  0  0  0  0  0  0
  -28.6720  -13.0720   20.7960 C   0  0  0  0  0  2  0  0  0  0  0  0
  -29.9820  -13.3570   20.1980 N   0  0  0  0  0  0  0  0  0  0  0  0
  -31.8900  -14.5650   19.9430 O   0  0  0  0  0  0  0  0  0  0  0  0
  -30.6590  -16.9360   20.8590 C   0  0  0  0  0  0  0  0  0  0  0  0
  -30.0350  -15.7420   20.6340 N   0  0  0  0  0  0  0  0  0  0  0  0
  -31.8940  -16.9830   21.3820 N   0  0  0  0  0  4  0  0  0  0  0  0
  -29.0380  -15.7930   20.7410 H   0  0  0  0  0  0  0  0  0  0  0  0
  -32.3290  -17.8810   21.5250 H   0  0  0  0  0  0  0  0  0  0  0  0
  -32.4530  -16.1470   21.4740 H   0  0  0  0  0  0  0  0  0  0  0  0
  -25.2160  -13.8700   20.4210 C   0  0  0  0  0  0  0  0  0  0  0  0
  -24.1520  -13.1010   20.8090 C   0  0  0  0  0  0  0  0  0  0  0  0
  -24.6150  -11.7490   20.7840 C   0  0  0  0  0  0  0  0  0  0  0  0
  -26.2590  -12.9880   20.1900 N   0  0  0  0  0  0  0  0  0  0  0  0
  -25.9020  -11.7100   20.4650 N   0  0  0  0  0  0  0  0  0  0  0  0
  -23.8920  -10.4890   20.9870 C   0  0  0  0  0  0  0  0  0  0  0  0
  -24.3290   -9.5310   21.9260 C   0  0  0  0  0  3  0  0  0  0  0  0
  -23.6090   -8.3310   22.1150 C   0  0  0  0  0  3  0  0  0  0  0  0
  -22.4360   -8.0820   21.3630 C   0  0  0  0  0  0  0  0  0  0  0  0
  -22.0190   -9.0280   20.4110 C   0  0  0  0  0  3  0  0  0  0  0  0
  -22.7410  -10.2180   20.2200 C   0  0  0  0  0  3  0  0  0  0  0  0
  -21.6810   -6.9370   21.4650 O   0  0  0  0  0  0  0  0  0  0  0  0
  -21.6370   -6.2020   22.6220 C   0  0  0  0  0  0  0  0  0  0  0  0
  -21.2080   -6.7600   23.8480 C   0  0  0  0  0  3  0  0  0  0  0  0
  -21.1190   -5.9500   24.9970 C   0  0  0  0  0  3  0  0  0  0  0  0
  -21.4430   -4.5810   24.9230 C   0  0  0  0  0  0  0  0  0  0  0  0
  -21.8590   -4.0220   23.7010 C   0  0  0  0  0  3  0  0  0  0  0  0
  -21.9550   -4.8310   22.5540 C   0  0  0  0  0  0  0  0  0  0  0  0
  -22.3390   -4.2820   21.3760 F   0  0  0  0  0  0  0  0  0  0  0  0
  -21.3480   -3.7980   26.0230 F   0  0  0  0  0  0  0  0  0  0  0  0
  -22.7560  -13.5770   21.0840 C   0  0  0  0  0  0  0  0  0  0  0  0
  -22.0230  -12.8830   21.9470 N   0  0  0  0  0  0  0  0  0  0  0  0
  -22.3190  -14.6050   20.5650 O   0  0  0  0  0  0  0  0  0  0  0  0
  -22.3850  -12.0510   22.3920 H   0  0  0  0  0  0  0  0  0  0  0  0
  -21.0810  -13.1840   22.1610 H   0  0  0  0  0  0  0  0  0  0  0  0
  -25.3820  -15.2390   20.2270 N   0  0  0  0  0  0  0  0  0  0  0  0
  -24.6180  -15.8990   20.3170 H   0  0  0  0  0  0  0  0  0  0  0  0
  -26.2130  -15.6480   19.8230 H   0  0  0  0  0  0  0  0  0  0  0  0
  -28.3250  -26.6090   20.1180 O   0  0  0  0  0  0  0  0  0  0  0  0
  -24.5850  -31.9030   23.2760 C   0  0  0  0  0  0  0  0  0  0  0  0
  -27.1840  -27.4100   20.1850 C   0  0  0  0  0  0  0  0  0  0  0  0
  -23.3670  -30.5120   21.6370 C   0  0  0  0  0  3  0  0  0  0  0  0
  -24.8050  -28.9690   20.2150 C   0  0  0  0  0  0  0  0  0  0  0  0
  -25.9010  -30.8480   21.4330 C   0  0  0  0  0  2  0  0  0  0  0  0
  -25.9780  -29.4730   20.7930 C   0  0  0  0  0  0  0  0  0  0  0  0
  -27.1750  -28.7040   20.7730 C   0  0  0  0  0  3  0  0  0  0  0  0
  -25.9650  -26.9270   19.6430 C   0  0  0  0  0  3  0  0  0  0  0  0
  -24.7940  -27.6950   19.6370 C   0  0  0  0  0  3  0  0  0  0  0  0
  -23.5700  -29.8360   20.2590 C   0  0  0  0  0  2  0  0  0  0  0  0
  -24.6370  -31.1050   22.1710 N   0  0  0  0  0  0  0  0  0  0  0  0
  -23.5070  -32.1790   23.8200 O   0  0  0  0  0  0  0  0  0  0  0  0
  -22.7130  -29.4910   22.5990 C   0  0  0  0  0  0  0  0  0  0  0  0
  -21.3910  -29.2980   22.4620 N   0  0  0  0  0  0  0  0  0  0  0  0
  -23.3950  -28.8750   23.4210 O   0  0  0  0  0  0  0  0  0  0  0  0
  -20.9020  -29.8480   21.7700 H   0  0  0  0  0  0  0  0  0  0  0  0
  -18.0230  -28.0660   22.9310 C   0  0  0  0  0  0  0  0  0  0  0  0
  -20.5740  -28.3600   23.2330 C   0  0  0  0  0  3  0  0  0  0  0  0
  -20.7020  -26.9250   22.6750 C   0  0  0  0  0  2  0  0  0  0  0  0
  -19.6170  -26.5740   21.6520 C   0  0  0  0  0  2  0  0  0  0  0  0
  -18.2230  -26.7130   22.2740 C   0  0  0  0  0  2  0  0  0  0  0  0
  -19.1270  -28.8480   23.3660 C   0  0  0  0  0  0  0  0  0  0  0  0
  -18.8850  -30.1170   23.9370 C   0  0  0  0  0  3  0  0  0  0  0  0
  -17.5710  -30.6050   24.0770 C   0  0  0  0  0  3  0  0  0  0  0  0
  -16.4830  -29.8200   23.6610 C   0  0  0  0  0  3  0  0  0  0  0  0
  -16.7070  -28.5540   23.0930 C   0  0  0  0  0  3  0  0  0  0  0  0
  -25.8760  -32.5290   23.8910 C   0  0  0  0  0  3  0  0  0  0  0  0
  -25.5760  -33.9290   24.2200 N   0  0  0  0  0  0  0  0  0  0  0  0
  -25.8980  -34.9770   23.4490 C   0  0  0  0  0  0  0  0  0  0  0  0
  -26.5510  -34.8660   22.4070 O   0  0  0  0  0  0  0  0  0  0  0  0
  -24.9950  -34.0880   25.0290 H   0  0  0  0  0  0  0  0  0  0  0  0
  -24.1620  -36.7680   23.1140 C   0  0  0  0  0  1  0  0  0  0  0  0
  -25.4170  -36.3680   23.9070 C   0  0  0  0  0  3  0  0  0  0  0  0
  -27.5640  -37.2570   24.6970 C   0  0  0  0  0  1  0  0  0  0  0  0
  -26.4470  -37.4210   23.7720 N   0  0  0  0  0  0  0  0  0  0  0  0
  -26.0430  -38.3420   23.9200 H   0  0  0  0  0  0  0  0  0  0  0  0
  -26.3940  -31.7550   25.1670 C   0  0  1  0  0  0  0  0  0  0  0  0
  -25.3020  -31.5250   26.2360 C   0  0  0  0  0  1  0  0  0  0  0  0
  -26.9670  -30.3740   24.7740 C   0  0  0  0  0  1  0  0  0  0  0  0
  -27.5500  -32.5440   25.8260 C   0  0  0  0  0  1  0  0  0  0  0  0
  1  5  1  0
  1  3  1  0
  2  6  1  0
  2  1  1  0
  3  8  2  0
  4  2  2  0
  5 57  1  0
  6  7  1  0
  7 14  1  0
  7  3  1  0
  9 13  1  0
 11  9  2  0
 11 14  1  0
 12 10  1  0
 13 23  1  0
 13 10  2  0
 14 12  2  0
 15 24  1  0
 16 21  1  0
 17 18  1  0
 17 16  1  0
 19 18  1  0
 19 32  1  0
 19 20  1  0
 21 15  1  0
 21 20  1  0
 22 15  2  0
 23 25  2  0
 24 26  1  0
 24 23  1  0
 25 28  1  0
 25 27  1  0
 29 30  2  0
 30 49  1  0
 31 30  1  0
 31 34  1  0
 32 29  1  0
 32 33  1  0
 33 31  2  0
 34 35  1  0
 35 36  2  0
 37 40  1  0
 37 36  1  0
 38 37  2  0
 39 38  1  0
 39 34  2  0
 40 41  1  0
 41 42  1  0
 42 43  2  0
 44 43  1  0
 44 48  1  0
 45 44  2  0
 46 41  2  0
 46 45  1  0
 47 46  1  0
 49 50  1  0
 50 53  1  0
 50 52  1  0
 51 49  2  0
 54 55  1  0
 54 29  1  0
 56 54  1  0
 57 59  1  0
 58 69  2  0
 59 64  1  0
 60 68  1  0
 60 70  1  0
 61 67  1  0
 61 63  1  0
 62 68  1  0
 63 62  1  0
 64 63  2  0
 65 59  2  0
 66 65  1  0
 66 61  2  0
 67 60  1  0
 68 58  1  0
 70 72  2  0
 71 70  1  0
 73 71  1  0
 74 83  2  0
 74 79  1  0
 75 71  1  0
 75 79  1  0
 76 75  1  0
 77 78  1  0
 77 76  1  0
 78 74  1  0
 79 80  2  0
 80 81  1  0
 82 81  2  0
 83 82  1  0
 84 58  1  0
 84 85  1  0
 84 94  1  0
 85 88  1  0
 86 90  1  0
 86 85  1  0
 87 86  2  0
 90 89  1  0
 92 90  1  0
 92 93  1  0
 92 91  1  0
 94 97  1  1
 94 95  1  0
 96 94  1  0
M  ISO  4   5 101  15 100  24 100  57 101
M  END
>  <TORSDO>  (5) 
F 17

>  <SCORE>  (5) 
-14.721

>  <name>  (5) 
4

>  <ligand_id>  (5) 
4

>  <original_smiles>  (5) 
[H]C([H])=C1C(=C([H])Oc2c([H])c([H])c3c(c2[H])C([H])([H])N(C(=O)C([H])(N([H])C(=O)C([H])(N([H])C([H])([H])[H])C([H])([H])[H])C(C([H])([H])[H])(C([H])([H])[H])C([H])([H])[H])C([H])(C(=O)N([H])C2([H])c4c([H])c([H])c([H])c([H])c4C([H])([H])C([H])([H])C2([H])[H])C3([H])[H])C(=O)N(c2c([H])c([H])c(C(N([H])C(=O)N3C([H])([H])C([H])([H])C([H])([H])C([H])(n4nc(-c5c([H])c([H])c(Oc6c([H])c([H])c(F)c([H])c6F)c([H])c5[H])c(C(=O)N([H])[H])c4N([H])[H])C3([H])[H])=[N+]([H])[H])c([H])c2[H])C1([H])[H]

>  <smiles>  (5) 
[H]C([H])=C1C(=C([H])Oc2c([H])c([H])c3c(c2[H])C([H])([H])N(C(=O)C([H])(N([H])C(=O)C([H])(N([H])C([H])([H])[H])C([H])([H])[H])C(C([H])([H])[H])(C([H])([H])[H])C([H])([H])[H])C([H])(C(=O)N([H])C2([H])c4c([H])c([H])c([H])c([H])c4C([H])([H])C([H])([H])C2([H])[H])C3([H])[H])C(=O)N(c2c([H])c([H])c(C(N([H])C(=O)N3C([H])([H])C([H])([H])C([H])([H])C([H])(n4nc(-c5c([H])c([H])c(Oc6c([H])c([H])c(F)c([H])c6F)c([H])c5[H])c(C(=O)N([H])[H])c4N([H])[H])C3([H])[H])=[N+]([H])[H])c([H])c2[H])C1([H])[H]

$$$$
5:0:0
     RDKit          3D

 97105  0  0  1  0  0  0  0  0999 V2000
  -29.8110  -20.9470   18.8600 C   0  0  0  0  0  0  0  0  0  0  0  0
  -29.2460  -23.4120   18.8700 C   0  0  0  0  0  0  0  0  0  0  0  0
  -29.3290  -22.0740   19.4530 N   0  0  0  0  0  0  0  0  0  0  0  0
  -30.3590  -20.9980   17.6390 N   0  0  0  0  0  4  0  0  0  0  0  0
  -29.5560  -23.6190   17.6860 O   0  0  0  0  0  0  0  0  0  0  0  0
  -29.0050  -21.9020   20.3910 H   0  0  0  0  0  0  0  0  0  0  0  0
  -30.7450  -20.1730   17.2100 H   0  0  0  0  0  0  0  0  0  0  0  0
  -30.3900  -21.8880   17.1550 H   0  0  0  0  0  0  0  0  0  0  0  0
  -30.2070  -19.3620   20.8250 C   0  0  0  0  0  3  0  0  0  0  0  0
  -30.2500  -18.0390   21.3430 C   0  0  0  0  0  3  0  0  0  0  0  0
  -29.3600  -18.4900   18.7240 C   0  0  0  0  0  3  0  0  0  0  0  0
  -29.7770  -19.6040   19.4960 C   0  0  0  0  0  0  0  0  0  0  0  0
  -29.9000  -16.9250   20.5430 C   0  0  0  0  0  0  0  0  0  0  0  0
  -29.4260  -17.1740   19.2320 C   0  0  0  0  0  0  0  0  0  0  0  0
  -29.0020  -16.1470   18.4570 F   0  0  0  0  0  0  0  0  0  0  0  0
  -30.6830  -14.5870   20.5740 C   0  0  0  0  0  0  0  0  0  0  0  0
  -30.4940  -12.3940   19.4650 C   0  0  0  0  0  2  0  0  0  0  0  0
  -29.5810  -12.5740   18.2330 C   0  0  0  0  0  2  0  0  0  0  0  0
  -28.1020  -12.3990   18.6260 C   0  0  0  0  0  2  0  0  0  0  0  0
  -27.7100  -13.2440   19.8660 C   0  0  0  0  0  3  0  0  0  0  0  0
  -28.7340  -13.0440   21.0070 C   0  0  0  0  0  2  0  0  0  0  0  0
  -30.0680  -13.3730   20.4800 N   0  0  0  0  0  0  0  0  0  0  0  0
  -31.8200  -14.7910   20.1410 O   0  0  0  0  0  0  0  0  0  0  0  0
  -29.9280  -15.5920   21.0690 N   0  0  0  0  0  0  0  0  0  0  0  0
  -29.0890  -15.3050   21.5460 H   0  0  0  0  0  0  0  0  0  0  0  0
  -25.2820  -13.8290   20.4990 C   0  0  0  0  0  0  0  0  0  0  0  0
  -24.2130  -13.0480   20.8460 C   0  0  0  0  0  0  0  0  0  0  0  0
  -24.6940  -11.7030   20.8440 C   0  0  0  0  0  0  0  0  0  0  0  0
  -26.3450  -12.9600   20.3060 N   0  0  0  0  0  0  0  0  0  0  0  0
  -25.9930  -11.6760   20.5710 N   0  0  0  0  0  0  0  0  0  0  0  0
  -23.9780  -10.4340   21.0300 C   0  0  0  0  0  0  0  0  0  0  0  0
  -24.3800   -9.4970   22.0090 C   0  0  0  0  0  3  0  0  0  0  0  0
  -23.6690   -8.2900   22.1790 C   0  0  0  0  0  3  0  0  0  0  0  0
  -22.5410   -8.0120   21.3720 C   0  0  0  0  0  0  0  0  0  0  0  0
  -22.1580   -8.9360   20.3840 C   0  0  0  0  0  3  0  0  0  0  0  0
  -22.8710  -10.1350   20.2120 C   0  0  0  0  0  3  0  0  0  0  0  0
  -21.8040   -6.8550   21.4490 O   0  0  0  0  0  0  0  0  0  0  0  0
  -21.6850   -6.1530   22.6220 C   0  0  0  0  0  0  0  0  0  0  0  0
  -21.0970   -6.7220   23.7730 C   0  0  0  0  0  3  0  0  0  0  0  0
  -20.9330   -5.9430   24.9360 C   0  0  0  0  0  3  0  0  0  0  0  0
  -21.3450   -4.5970   24.9480 C   0  0  0  0  0  0  0  0  0  0  0  0
  -21.9270   -4.0300   23.8010 C   0  0  0  0  0  3  0  0  0  0  0  0
  -22.0940   -4.8050   22.6410 C   0  0  0  0  0  0  0  0  0  0  0  0
  -22.6370   -4.2470   21.5330 F   0  0  0  0  0  0  0  0  0  0  0  0
  -21.1790   -3.8480   26.0630 F   0  0  0  0  0  0  0  0  0  0  0  0
  -22.8040  -13.5110   21.0740 C   0  0  0  0  0  0  0  0  0  0  0  0
  -22.0540  -12.8080   21.9140 N   0  0  0  0  0  0  0  0  0  0  0  0
  -22.3740  -14.5340   20.5410 O   0  0  0  0  0  0  0  0  0  0  0  0
  -22.4120  -11.9850   22.3720 H   0  0  0  0  0  0  0  0  0  0  0  0
  -21.1070  -13.1060   22.1070 H   0  0  0  0  0  0  0  0  0  0  0  0
  -25.4300  -15.2000   20.3180 N   0  0  0  0  0  0  0  0  0  0  0  0
  -24.6400  -15.8310   20.4040 H   0  0  0  0  0  0  0  0  0  0  0  0
  -26.2680  -15.6570   19.9840 H   0  0  0  0  0  0  0  0  0  0  0  0
  -28.7900  -24.5590   19.7800 C   0  0  0  0  0  0  0  0  0  0  0  0
  -28.6900  -24.2410   21.2730 C   0  0  0  0  0  1  0  0  0  0  0  0
  -28.5160  -25.7230   19.2920 N   0  0  0  0  0  0  0  0  0  0  0  0
  -28.3380  -26.7420   20.2630 O   0  0  0  0  0  0  0  0  0  0  0  0
  -24.5230  -31.9070   23.3000 C   0  0  0  0  0  0  0  0  0  0  0  0
  -27.1760  -27.4860   20.1700 C   0  0  0  0  0  0  0  0  0  0  0  0
  -23.3200  -30.5230   21.6410 C   0  0  0  0  0  3  0  0  0  0  0  0
  -24.7760  -28.9990   20.2000 C   0  0  0  0  0  0  0  0  0  0  0  0
  -25.8470  -30.8810   21.4520 C   0  0  0  0  0  2  0  0  0  0  0  0
  -25.9350  -29.5170   20.7920 C   0  0  0  0  0  0  0  0  0  0  0  0
  -27.1340  -28.7650   20.7760 C   0  0  0  0  0  3  0  0  0  0  0  0
  -25.9940  -26.9780   19.5850 C   0  0  0  0  0  3  0  0  0  0  0  0
  -24.8020  -27.7290   19.5960 C   0  0  0  0  0  3  0  0  0  0  0  0
  -23.5310  -29.8560   20.2550 C   0  0  0  0  0  2  0  0  0  0  0  0
  -24.5830  -31.1160   22.1910 N   0  0  0  0  0  0  0  0  0  0  0  0
  -23.4410  -32.1780   23.8380 O   0  0  0  0  0  0  0  0  0  0  0  0
  -22.6630  -29.4950   22.5880 C   0  0  0  0  0  0  0  0  0  0  0  0
  -21.3390  -29.3150   22.4500 N   0  0  0  0  0  0  0  0  0  0  0  0
  -23.3420  -28.8610   23.4010 O   0  0  0  0  0  0  0  0  0  0  0  0
  -20.8550  -29.8750   21.7630 H   0  0  0  0  0  0  0  0  0  0  0  0
  -17.9550  -28.1410   22.9160 C   0  0  0  0  0  0  0  0  0  0  0  0
  -20.5140  -28.3730   23.2040 C   0  0  0  0  0  3  0  0  0  0  0  0
  -20.6080  -26.9490   22.6060 C   0  0  0  0  0  2  0  0  0  0  0  0
  -19.5080  -26.6510   21.5830 C   0  0  0  0  0  2  0  0  0  0  0  0
  -18.1240  -26.7990   22.2240 C   0  0  0  0  0  2  0  0  0  0  0  0
  -19.0780  -28.8870   23.3610 C   0  0  0  0  0  0  0  0  0  0  0  0
  -18.8680  -30.1460   23.9650 C   0  0  0  0  0  3  0  0  0  0  0  0
  -17.5660  -30.6560   24.1320 C   0  0  0  0  0  3  0  0  0  0  0  0
  -16.4570  -29.9040   23.7060 C   0  0  0  0  0  3  0  0  0  0  0  0
  -16.6530  -28.6490   23.1030 C   0  0  0  0  0  3  0  0  0  0  0  0
  -25.8090  -32.5270   23.9300 C   0  0  0  0  0  3  0  0  0  0  0  0
  -25.5220  -33.9370   24.2260 N   0  0  0  0  0  0  0  0  0  0  0  0
  -25.8840  -34.9650   23.4480 C   0  0  0  0  0  0  0  0  0  0  0  0
  -26.5670  -34.8250   22.4280 O   0  0  0  0  0  0  0  0  0  0  0  0
  -24.9150  -34.1210   25.0120 H   0  0  0  0  0  0  0  0  0  0  0  0
  -24.2050  -36.7840   23.0110 C   0  0  0  0  0  1  0  0  0  0  0  0
  -25.4150  -36.3720   23.8630 C   0  0  0  0  0  3  0  0  0  0  0  0
  -27.5370  -37.2360   24.7460 C   0  0  0  0  0  1  0  0  0  0  0  0
  -26.4730  -37.3990   23.7580 N   0  0  0  0  0  0  0  0  0  0  0  0
  -26.0830  -38.3320   23.8650 H   0  0  0  0  0  0  0  0  0  0  0  0
  -26.2900  -31.7720   25.2290 C   0  0  1  0  0  0  0  0  0  0  0  0
  -25.1740  -31.5700   26.2810 C   0  0  0  0  0  1  0  0  0  0  0  0
  -26.8590  -30.3800   24.8710 C   0  0  0  0  0  1  0  0  0  0  0  0
  -27.4420  -32.5600   25.8980 C   0  0  0  0  0  1  0  0  0  0  0  0
  1  3  1  0
  1 12  1  0
  2  3  1  0
  2 54  1  0
  3  6  1  0
  4  1  2  0
  5  2  2  0
  7  4  1  0
  8  4  1  0
  9 10  1  0
 11 14  2  0
 11 12  1  0
 12  9  2  0
 13 24  1  0
 13 10  2  0
 14 13  1  0
 15 14  1  0
 16 24  1  0
 17 22  1  0
 18 19  1  0
 18 17  1  0
 20 19  1  0
 20 29  1  0
 20 21  1  0
 22 16  1  0
 22 21  1  0
 23 16  2  0
 24 25  1  0
 26 27  2  0
 27 46  1  0
 28 27  1  0
 28 31  1  0
 29 26  1  0
 29 30  1  0
 30 28  2  0
 31 32  1  0
 32 33  2  0
 34 37  1  0
 34 33  1  0
 35 34  2  0
 36 35  1  0
 36 31  2  0
 37 38  1  0
 38 43  2  0
 38 39  1  0
 39 40  2  0
 40 41  1  0
 41 45  1  0
 42 41  2  0
 43 42  1  0
 44 43  1  0
 46 47  1  0
 47 50  1  0
 47 49  1  0
 48 46  2  0
 51 52  1  0
 51 26  1  0
 53 51  1  0
 54 55  1  0
 56 54  2  0
 56 57  1  0
 58 69  2  0
 59 57  1  0
 59 64  1  0
 60 68  1  0
 60 70  1  0
 61 67  1  0
 61 63  1  0
 62 68  1  0
 63 62  1  0
 64 63  2  0
 65 66  1  0
 65 59  2  0
 66 61  2  0
 67 60  1  0
 68 58  1  0
 70 72  2  0
 71 70  1  0
 73 71  1  0
 74 83  2  0
 74 79  1  0
 75 71  1  0
 75 79  1  0
 76 75  1  0
 77 78  1  0
 77 76  1  0
 78 74  1  0
 79 80  2  0
 80 81  1  0
 82 81  2  0
 83 82  1  0
 84 58  1  0
 84 85  1  0
 84 94  1  0
 85 88  1  0
 86 90  1  0
 86 85  1  0
 87 86  2  0
 90 89  1  0
 92 90  1  0
 92 93  1  0
 92 91  1  0
 94 97  1  1
 94 95  1  0
 96 94  1  0
M  ISO  4  16 100  24 100  56 101  57 101
M  END
>  <TORSDO>  (6) 
F 18

>  <SCORE>  (6) 
-14.546

>  <name>  (6) 
5

>  <ligand_id>  (6) 
5

>  <original_smiles>  (6) 
[H]c1c([H])c([H])c2c(c1[H])C([H])([H])C([H])([H])C([H])([H])C2([H])N([H])C(=O)C1([H])N(C(=O)C([H])(N([H])C(=O)C([H])(N([H])C([H])([H])[H])C([H])([H])[H])C(C([H])([H])[H])(C([H])([H])[H])C([H])([H])[H])C([H])([H])c2c([H])c(ON=C(C(=O)N([H])C(c3c([H])c([H])c(N([H])C(=O)N4C([H])([H])C([H])([H])C([H])([H])C([H])(n5nc(-c6c([H])c([H])c(Oc7c([H])c([H])c(F)c([H])c7F)c([H])c6[H])c(C(=O)N([H])[H])c5N([H])[H])C4([H])[H])c(F)c3[H])=[N+]([H])[H])C([H])([H])[H])c([H])c([H])c2C1([H])[H]

>  <smiles>  (6) 
[H]c1c([H])c([H])c2c(c1[H])C([H])([H])C([H])([H])C([H])([H])C2([H])N([H])C(=O)C1([H])N(C(=O)C([H])(N([H])C(=O)C([H])(N([H])C([H])([H])[H])C([H])([H])[H])C(C([H])([H])[H])(C([H])([H])[H])C([H])([H])[H])C([H])([H])c2c([H])c(ON=C(C(=O)N([H])C(c3c([H])c([H])c(N([H])C(=O)N4C([H])([H])C([H])([H])C([H])([H])C([H])(n5nc(-c6c([H])c([H])c(Oc7c([H])c([H])c(F)c([H])c7F)c([H])c6[H])c(C(=O)N([H])[H])c5N([H])[H])C4([H])[H])c(F)c3[H])=[N+]([H])[H])C([H])([H])[H])c([H])c([H])c2C1([H])[H]

$$$$
6:0:0
     RDKit          3D

 93102  0  0  1  0  0  0  0  0999 V2000
  -28.7150  -23.9950   19.0370 C   0  0  0  0  0  0  0  0  0  0  0  0
  -28.9010  -23.4120   17.7260 C   0  0  0  0  0  0  0  0  0  0  0  0
  -28.9010  -22.8200   19.9710 C   0  0  0  0  0  0  0  0  0  0  0  0
  -28.7690  -24.0250   16.5320 C   0  0  0  0  0  2  0  0  0  0  0  0
  -28.4320  -25.3660   19.1750 C   0  0  0  0  0  3  0  0  0  0  0  0
  -29.2520  -21.9620   17.8270 C   0  0  0  0  0  2  0  0  0  0  0  0
  -29.1990  -21.6450   19.2520 N   0  0  0  0  0  0  0  0  0  0  0  0
  -28.8010  -22.8620   21.2010 O   0  0  0  0  0  0  0  0  0  0  0  0
  -29.5120  -19.6780   20.9500 C   0  0  0  0  0  3  0  0  0  0  0  0
  -29.6720  -19.1870   18.6330 C   0  0  0  0  0  3  0  0  0  0  0  0
  -29.7480  -18.2840   21.2270 C   0  0  0  0  0  3  0  0  0  0  0  0
  -29.9130  -17.7950   18.9110 C   0  0  0  0  0  3  0  0  0  0  0  0
  -29.4590  -20.2040   19.6290 C   0  0  0  0  0  0  0  0  0  0  0  0
  -29.9690  -17.2670   20.2310 C   0  0  0  0  0  0  0  0  0  0  0  0
  -30.7020  -14.7700   19.8100 C   0  0  0  0  0  0  0  0  0  0  0  0
  -30.3440  -12.5510   18.6780 C   0  0  0  0  0  2  0  0  0  0  0  0
  -29.2880  -12.6830   17.5580 C   0  0  0  0  0  2  0  0  0  0  0  0
  -27.8690  -12.4930   18.1250 C   0  0  0  0  0  2  0  0  0  0  0  0
  -27.6340  -13.3320   19.4070 C   0  0  0  0  0  3  0  0  0  0  0  0
  -28.7910  -13.1640   20.4100 C   0  0  0  0  0  2  0  0  0  0  0  0
  -30.0370  -13.5570   19.7280 N   0  0  0  0  0  0  0  0  0  0  0  0
  -31.7550  -14.9190   19.1800 O   0  0  0  0  0  0  0  0  0  0  0  0
  -30.2590  -15.5400   22.0340 C   0  0  0  0  0  1  0  0  0  0  0  0
  -30.1830  -15.8140   20.5870 N   0  0  0  0  0  0  0  0  0  0  0  0
  -25.3540  -13.9290   20.4170 C   0  0  0  0  0  0  0  0  0  0  0  0
  -24.3170  -13.1570   20.8640 C   0  0  0  0  0  0  0  0  0  0  0  0
  -24.7430  -11.8000   20.7170 C   0  0  0  0  0  0  0  0  0  0  0  0
  -26.3440  -13.0440   20.0230 N   0  0  0  0  0  0  0  0  0  0  0  0
  -25.9900  -11.7550   20.2660 N   0  0  0  0  0  0  0  0  0  0  0  0
  -24.0120  -10.5450   20.9250 C   0  0  0  0  0  0  0  0  0  0  0  0
  -24.4860   -9.5510   21.8100 C   0  0  0  0  0  3  0  0  0  0  0  0
  -23.7550   -8.3600   22.0060 C   0  0  0  0  0  3  0  0  0  0  0  0
  -22.5350   -8.1540   21.3170 C   0  0  0  0  0  0  0  0  0  0  0  0
  -22.0810   -9.1350   20.4190 C   0  0  0  0  0  3  0  0  0  0  0  0
  -22.8120  -10.3180   20.2210 C   0  0  0  0  0  3  0  0  0  0  0  0
  -21.7720   -7.0160   21.4260 O   0  0  0  0  0  0  0  0  0  0  0  0
  -21.7290   -6.2860   22.5870 C   0  0  0  0  0  0  0  0  0  0  0  0
  -21.3270   -6.8580   23.8130 C   0  0  0  0  0  3  0  0  0  0  0  0
  -21.2300   -6.0550   24.9670 C   0  0  0  0  0  3  0  0  0  0  0  0
  -21.5240   -4.6790   24.8950 C   0  0  0  0  0  0  0  0  0  0  0  0
  -21.9160   -4.1070   23.6730 C   0  0  0  0  0  3  0  0  0  0  0  0
  -22.0160   -4.9080   22.5210 C   0  0  0  0  0  0  0  0  0  0  0  0
  -22.3760   -4.3460   21.3420 F   0  0  0  0  0  0  0  0  0  0  0  0
  -21.4230   -3.9060   26.0010 F   0  0  0  0  0  0  0  0  0  0  0  0
  -22.9700  -13.6460   21.3100 C   0  0  0  0  0  0  0  0  0  0  0  0
  -22.3330  -12.9320   22.2320 N   0  0  0  0  0  0  0  0  0  0  0  0
  -22.4940  -14.6930   20.8740 O   0  0  0  0  0  0  0  0  0  0  0  0
  -22.7360  -12.0850   22.6050 H   0  0  0  0  0  0  0  0  0  0  0  0
  -21.4330  -13.2380   22.5720 H   0  0  0  0  0  0  0  0  0  0  0  0
  -25.5310  -15.3040   20.2910 N   0  0  0  0  0  0  0  0  0  0  0  0
  -24.7970  -15.9650   20.5200 H   0  0  0  0  0  0  0  0  0  0  0  0
  -26.3590  -15.7450   19.9090 H   0  0  0  0  0  0  0  0  0  0  0  0
  -28.2210  -26.3000   20.2200 O   0  0  0  0  0  0  0  0  0  0  0  0
  -24.5410  -31.8220   23.2230 C   0  0  0  0  0  0  0  0  0  0  0  0
  -27.1660  -27.2460   20.1250 C   0  0  0  0  0  0  0  0  0  0  0  0
  -23.3570  -30.4540   21.5450 C   0  0  0  0  0  3  0  0  0  0  0  0
  -24.8220  -28.9180   20.1100 C   0  0  0  0  0  0  0  0  0  0  0  0
  -25.9060  -30.7440   21.4130 C   0  0  0  0  0  2  0  0  0  0  0  0
  -25.9880  -29.3730   20.7390 C   0  0  0  0  0  0  0  0  0  0  0  0
  -27.1620  -28.5480   20.7410 C   0  0  0  0  0  3  0  0  0  0  0  0
  -25.9700  -26.8610   19.4790 C   0  0  0  0  0  3  0  0  0  0  0  0
  -24.8180  -27.6700   19.4700 C   0  0  0  0  0  3  0  0  0  0  0  0
  -23.5900  -29.8010   20.1570 C   0  0  0  0  0  2  0  0  0  0  0  0
  -24.6190  -31.0240   22.1170 N   0  0  0  0  0  0  0  0  0  0  0  0
  -23.4500  -32.0980   23.7430 O   0  0  0  0  0  0  0  0  0  0  0  0
  -22.6700  -29.4300   22.4800 C   0  0  0  0  0  0  0  0  0  0  0  0
  -21.3480  -29.2500   22.3220 N   0  0  0  0  0  0  0  0  0  0  0  0
  -23.3290  -28.7990   23.3110 O   0  0  0  0  0  0  0  0  0  0  0  0
  -20.8740  -29.8090   21.6250 H   0  0  0  0  0  0  0  0  0  0  0  0
  -17.9680  -28.0160   22.7170 C   0  0  0  0  0  0  0  0  0  0  0  0
  -20.5130  -28.3060   23.0680 C   0  0  0  0  0  3  0  0  0  0  0  0
  -20.6480  -26.8750   22.4990 C   0  0  0  0  0  2  0  0  0  0  0  0
  -19.5850  -26.5390   21.4480 C   0  0  0  0  0  2  0  0  0  0  0  0
  -18.1800  -26.6700   22.0440 C   0  0  0  0  0  2  0  0  0  0  0  0
  -19.0640  -28.7910   23.1830 C   0  0  0  0  0  0  0  0  0  0  0  0
  -18.8110  -30.0500   23.7720 C   0  0  0  0  0  3  0  0  0  0  0  0
  -17.4970  -30.5360   23.8960 C   0  0  0  0  0  3  0  0  0  0  0  0
  -16.4150  -29.7600   23.4440 C   0  0  0  0  0  3  0  0  0  0  0  0
  -16.6510  -28.5020   22.8630 C   0  0  0  0  0  3  0  0  0  0  0  0
  -25.8160  -32.4400   23.8740 C   0  0  0  0  0  3  0  0  0  0  0  0
  -25.5180  -33.8460   24.1870 N   0  0  0  0  0  0  0  0  0  0  0  0
  -25.8740  -34.8890   23.4250 C   0  0  0  0  0  0  0  0  0  0  0  0
  -26.5570  -34.7680   22.4040 O   0  0  0  0  0  0  0  0  0  0  0  0
  -24.9150  -34.0140   24.9780 H   0  0  0  0  0  0  0  0  0  0  0  0
  -24.1700  -36.6990   23.0400 C   0  0  0  0  0  1  0  0  0  0  0  0
  -25.4000  -36.2870   23.8660 C   0  0  0  0  0  3  0  0  0  0  0  0
  -27.5380  -37.1540   24.7070 C   0  0  0  0  0  1  0  0  0  0  0  0
  -26.4460  -37.3270   23.7520 N   0  0  0  0  0  0  0  0  0  0  0  0
  -26.0490  -38.2530   23.8880 H   0  0  0  0  0  0  0  0  0  0  0  0
  -26.2850  -31.6720   25.1700 C   0  0  1  0  0  0  0  0  0  0  0  0
  -25.1580  -31.4660   26.2100 C   0  0  0  0  0  1  0  0  0  0  0  0
  -26.8510  -30.2790   24.8120 C   0  0  0  0  0  1  0  0  0  0  0  0
  -27.4330  -32.4520   25.8530 C   0  0  0  0  0  1  0  0  0  0  0  0
  1  5  2  0
  1  3  1  0
  2  6  1  0
  2  1  1  0
  3  8  2  0
  4  2  2  0
  5 53  1  0
  6  7  1  0
  7 13  1  0
  7  3  1  0
  9 11  1  0
 10 12  2  0
 10 13  1  0
 12 14  1  0
 13  9  2  0
 14 24  1  0
 14 11  2  0
 15 24  1  0
 16 21  1  0
 17 18  1  0
 17 16  1  0
 19 18  1  0
 19 28  1  0
 19 20  1  0
 21 15  1  0
 21 20  1  0
 22 15  2  0
 24 23  1  0
 25 26  2  0
 26 45  1  0
 27 26  1  0
 27 30  1  0
 28 29  1  0
 28 25  1  0
 29 27  2  0
 30 31  1  0
 31 32  2  0
 33 36  1  0
 33 32  1  0
 34 33  2  0
 35 34  1  0
 35 30  2  0
 36 37  1  0
 37 38  1  0
 38 39  2  0
 40 39  1  0
 40 44  1  0
 41 40  2  0
 42 37  2  0
 42 41  1  0
 43 42  1  0
 45 46  1  0
 46 49  1  0
 46 48  1  0
 47 45  2  0
 50 25  1  0
 50 51  1  0
 52 50  1  0
 54 65  2  0
 55 53  1  0
 55 60  1  0
 56 64  1  0
 56 66  1  0
 57 63  1  0
 57 59  1  0
 58 64  1  0
 59 60  2  0
 59 58  1  0
 61 55  2  0
 62 61  1  0
 62 57  2  0
 63 56  1  0
 64 54  1  0
 66 68  2  0
 67 66  1  0
 69 67  1  0
 70 79  2  0
 70 75  1  0
 71 67  1  0
 71 75  1  0
 72 71  1  0
 73 74  1  0
 73 72  1  0
 74 70  1  0
 75 76  2  0
 76 77  1  0
 78 77  2  0
 79 78  1  0
 80 54  1  0
 80 81  1  0
 80 90  1  0
 81 84  1  0
 82 86  1  0
 82 81  1  0
 83 82  2  0
 86 85  1  0
 88 86  1  0
 88 89  1  0
 88 87  1  0
 90 93  1  1
 90 91  1  0
 92 90  1  0
M  ISO  4   5 101  15 100  24 100  53 101
M  END
>  <TORSDO>  (7) 
F 17

>  <SCORE>  (7) 
-13.968

>  <name>  (7) 
6

>  <ligand_id>  (7) 
6

>  <original_smiles>  (7) 
[H]C([H])=C1C(=C([H])Oc2c([H])c([H])c3c(c2[H])C([H])([H])N(C(=O)C([H])(N([H])C(=O)C([H])(N([H])C([H])([H])[H])C([H])([H])[H])C(C([H])([H])[H])(C([H])([H])[H])C([H])([H])[H])C([H])(C(=O)N([H])C2([H])c4c([H])c([H])c([H])c([H])c4C([H])([H])C([H])([H])C2([H])[H])C3([H])[H])C(=O)N(c2c([H])c([H])c(N(C(=O)N3C([H])([H])C([H])([H])C([H])([H])C([H])(n4nc(-c5c([H])c([H])c(Oc6c([H])c([H])c(F)c([H])c6F)c([H])c5[H])c(C(=O)N([H])[H])c4N([H])[H])C3([H])[H])C([H])([H])[H])c([H])c2[H])C1([H])[H]

>  <smiles>  (7) 
[H]C([H])=C1C(=C([H])Oc2c([H])c([H])c3c(c2[H])C([H])([H])N(C(=O)C([H])(N([H])C(=O)C([H])(N([H])C([H])([H])[H])C([H])([H])[H])C(C([H])([H])[H])(C([H])([H])[H])C([H])([H])[H])C([H])(C(=O)N([H])C2([H])c4c([H])c([H])c([H])c([H])c4C([H])([H])C([H])([H])C2([H])[H])C3([H])[H])C(=O)N(c2c([H])c([H])c(N(C(=O)N3C([H])([H])C([H])([H])C([H])([H])C([H])(n4nc(-c5c([H])c([H])c(Oc6c([H])c([H])c(F)c([H])c6F)c([H])c5[H])c(C(=O)N([H])[H])c4N([H])[H])C3([H])[H])C([H])([H])[H])c([H])c2[H])C1([H])[H]

$$$$
7:0:0
     RDKit          3D

 92101  0  0  1  0  0  0  0  0999 V2000
  -26.9940  -23.2770   20.4600 C   0  0  0  0  0  0  0  0  0  0  0  0
  -28.2950  -23.5500   20.2760 C   0  0  0  0  0  0  0  0  0  0  0  0
  -27.1780  -21.8900   20.1440 C   0  0  0  0  0  0  0  0  0  0  0  0
  -25.8530  -23.9130   20.7880 C   0  0  0  0  0  1  0  0  0  0  0  0
  -28.8940  -24.8540   20.2710 C   0  0  0  0  0  2  0  0  0  0  0  0
  -28.5660  -22.0300   20.1570 N   0  0  0  0  0  0  0  0  0  0  0  0
  -26.3670  -20.9880   20.0080 O   0  0  0  0  0  0  0  0  0  0  0  0
  -31.4990  -19.8270   21.5190 C   0  0  0  0  0  3  0  0  0  0  0  0
  -30.6690  -20.9070   21.1080 C   0  0  0  0  0  3  0  0  0  0  0  0
  -31.2690  -18.4770   21.1790 C   0  0  0  0  0  3  0  0  0  0  0  0
  -29.2980  -19.2950   20.0290 C   0  0  0  0  0  3  0  0  0  0  0  0
  -29.4770  -20.7640   20.3560 C   0  0  0  0  0  0  0  0  0  0  0  0
  -30.1700  -18.1040   20.3870 C   0  0  0  0  0  0  0  0  0  0  0  0
  -30.8220  -15.3810   20.2360 C   0  0  0  0  0  0  0  0  0  0  0  0
  -30.8130  -12.9310   19.4640 C   0  0  0  0  0  2  0  0  0  0  0  0
  -29.8940  -12.7120   18.2380 C   0  0  0  0  0  2  0  0  0  0  0  0
  -28.4360  -12.4720   18.6810 C   0  0  0  0  0  2  0  0  0  0  0  0
  -27.9910  -13.4410   19.8040 C   0  0  0  0  0  3  0  0  0  0  0  0
  -29.0440  -13.6270   20.9160 C   0  0  0  0  0  2  0  0  0  0  0  0
  -30.2660  -14.0850   20.2420 N   0  0  0  0  0  0  0  0  0  0  0  0
  -32.0570  -15.4050   20.1410 O   0  0  0  0  0  0  0  0  0  0  0  0
  -29.0540  -16.4830   18.9110 C   0  0  0  0  0  1  0  0  0  0  0  0
  -30.0180  -16.5930   20.0030 N   0  0  0  0  0  0  0  0  0  0  0  0
  -25.6420  -14.0740   20.5880 C   0  0  0  0  0  0  0  0  0  0  0  0
  -24.5630  -13.3210   20.9360 C   0  0  0  0  0  0  0  0  0  0  0  0
  -25.0000  -11.9630   20.8700 C   0  0  0  0  0  0  0  0  0  0  0  0
  -26.6620  -13.1750   20.3170 N   0  0  0  0  0  0  0  0  0  0  0  0
  -26.2860  -11.9000   20.5570 N   0  0  0  0  0  0  0  0  0  0  0  0
  -24.2520  -10.7150   21.0270 C   0  0  0  0  0  0  0  0  0  0  0  0
  -24.6590   -9.7290   21.9500 C   0  0  0  0  0  3  0  0  0  0  0  0
  -23.9120   -8.5400   22.0940 C   0  0  0  0  0  3  0  0  0  0  0  0
  -22.7490   -8.3330   21.3170 C   0  0  0  0  0  0  0  0  0  0  0  0
  -22.3670   -9.3070   20.3780 C   0  0  0  0  0  3  0  0  0  0  0  0
  -23.1140  -10.4870   20.2310 C   0  0  0  0  0  3  0  0  0  0  0  0
  -21.9770   -7.2000   21.3770 O   0  0  0  0  0  0  0  0  0  0  0  0
  -21.8490   -6.4800   22.5370 C   0  0  0  0  0  0  0  0  0  0  0  0
  -21.3050   -7.0470   23.7120 C   0  0  0  0  0  3  0  0  0  0  0  0
  -21.1290   -6.2510   24.8620 C   0  0  0  0  0  3  0  0  0  0  0  0
  -21.4870   -4.8890   24.8360 C   0  0  0  0  0  0  0  0  0  0  0  0
  -22.0250   -4.3230   23.6680 C   0  0  0  0  0  3  0  0  0  0  0  0
  -22.2050   -5.1160   22.5220 C   0  0  0  0  0  0  0  0  0  0  0  0
  -22.7060   -4.5620   21.3920 F   0  0  0  0  0  0  0  0  0  0  0  0
  -21.3100   -4.1200   25.9380 F   0  0  0  0  0  0  0  0  0  0  0  0
  -23.1750  -13.8230   21.2130 C   0  0  0  0  0  0  0  0  0  0  0  0
  -22.4370  -13.1460   22.0850 N   0  0  0  0  0  0  0  0  0  0  0  0
  -22.7530  -14.8580   20.6950 O   0  0  0  0  0  0  0  0  0  0  0  0
  -22.7830  -12.3130   22.5420 H   0  0  0  0  0  0  0  0  0  0  0  0
  -21.5030  -13.4660   22.3060 H   0  0  0  0  0  0  0  0  0  0  0  0
  -25.8250  -15.4460   20.4470 N   0  0  0  0  0  0  0  0  0  0  0  0
  -25.0590  -16.0970   20.5880 H   0  0  0  0  0  0  0  0  0  0  0  0
  -26.6890  -15.8880   20.1610 H   0  0  0  0  0  0  0  0  0  0  0  0
  -28.5900  -26.3250   20.4640 O   0  0  0  0  0  0  0  0  0  0  0  0
  -24.7410  -31.9770   23.3550 C   0  0  0  0  0  0  0  0  0  0  0  0
  -27.4510  -27.2370   20.3860 C   0  0  0  0  0  0  0  0  0  0  0  0
  -23.5960  -30.5560   21.6990 C   0  0  0  0  0  3  0  0  0  0  0  0
  -25.1010  -28.9930   20.2930 C   0  0  0  0  0  0  0  0  0  0  0  0
  -26.1500  -30.8410   21.5880 C   0  0  0  0  0  2  0  0  0  0  0  0
  -26.2620  -29.4470   20.9280 C   0  0  0  0  0  0  0  0  0  0  0  0
  -27.4370  -28.5940   20.9340 C   0  0  0  0  0  3  0  0  0  0  0  0
  -26.2640  -26.8930   19.7030 C   0  0  0  0  0  3  0  0  0  0  0  0
  -25.1220  -27.7350   19.6610 C   0  0  0  0  0  3  0  0  0  0  0  0
  -23.8540  -29.8750   20.3250 C   0  0  0  0  0  2  0  0  0  0  0  0
  -24.8480  -31.1530   22.2660 N   0  0  0  0  0  0  0  0  0  0  0  0
  -23.6430  -32.2330   23.8730 O   0  0  0  0  0  0  0  0  0  0  0  0
  -22.9160  -29.5450   22.6500 C   0  0  0  0  0  0  0  0  0  0  0  0
  -21.6000  -29.3400   22.4820 N   0  0  0  0  0  0  0  0  0  0  0  0
  -23.5720  -28.9470   23.5060 O   0  0  0  0  0  0  0  0  0  0  0  0
  -21.1300  -29.8770   21.7690 H   0  0  0  0  0  0  0  0  0  0  0  0
  -18.2240  -28.0860   22.8950 C   0  0  0  0  0  0  0  0  0  0  0  0
  -20.7710  -28.3790   23.2200 C   0  0  0  0  0  3  0  0  0  0  0  0
  -20.9050  -26.9570   22.6250 C   0  0  0  0  0  2  0  0  0  0  0  0
  -19.8310  -26.6360   21.5810 C   0  0  0  0  0  2  0  0  0  0  0  0
  -18.4390  -26.7480   22.2090 C   0  0  0  0  0  2  0  0  0  0  0  0
  -19.3230  -28.8640   23.3540 C   0  0  0  0  0  0  0  0  0  0  0  0
  -19.0750  -30.1150   23.9570 C   0  0  0  0  0  3  0  0  0  0  0  0
  -17.7580  -30.5900   24.1160 C   0  0  0  0  0  3  0  0  0  0  0  0
  -16.6740  -29.8100   23.6770 C   0  0  0  0  0  3  0  0  0  0  0  0
  -16.9050  -28.5630   23.0670 C   0  0  0  0  0  3  0  0  0  0  0  0
  -25.9910  -32.6400   24.0080 C   0  0  0  0  0  3  0  0  0  0  0  0
  -25.6500  -34.0400   24.3100 N   0  0  0  0  0  0  0  0  0  0  0  0
  -25.9640  -35.0950   23.5440 C   0  0  0  0  0  0  0  0  0  0  0  0
  -26.6300  -34.9930   22.5110 O   0  0  0  0  0  0  0  0  0  0  0  0
  -25.0470  -34.1820   25.1040 H   0  0  0  0  0  0  0  0  0  0  0  0
  -24.1730  -36.8350   23.2220 C   0  0  0  0  0  1  0  0  0  0  0  0
  -25.4560  -36.4810   23.9900 C   0  0  0  0  0  3  0  0  0  0  0  0
  -27.5820  -37.4520   24.7400 C   0  0  0  0  0  1  0  0  0  0  0  0
  -26.4520  -37.5610   23.8200 N   0  0  0  0  0  0  0  0  0  0  0  0
  -26.0240  -38.4700   23.9650 H   0  0  0  0  0  0  0  0  0  0  0  0
  -26.4640  -31.9090   25.3250 C   0  0  1  0  0  0  0  0  0  0  0  0
  -25.3290  -31.6230   26.3370 C   0  0  0  0  0  1  0  0  0  0  0  0
  -27.1290  -30.5570   24.9920 C   0  0  0  0  0  1  0  0  0  0  0  0
  -27.5390  -32.7630   26.0410 C   0  0  0  0  0  1  0  0  0  0  0  0
  1  4  1  0
  2  1  2  0
  3  6  1  0
  3  1  1  0
  5  2  1  0
  5 52  1  0
  6  2  1  0
  6 12  1  0
  7  3  2  0
  9  8  2  0
 10  8  1  0
 11 12  2  0
 11 13  1  0
 12  9  1  0
 13 10  2  0
 14 20  1  0
 15 20  1  0
 16 17  1  0
 16 15  1  0
 18 17  1  0
 18 27  1  0
 18 19  1  0
 20 19  1  0
 21 14  2  0
 22 23  1  0
 23 14  1  0
 23 13  1  0
 24 25  2  0
 25 44  1  0
 26 25  1  0
 26 29  1  0
 27 28  1  0
 27 24  1  0
 28 26  2  0
 29 30  1  0
 30 31  2  0
 32 35  1  0
 32 31  1  0
 33 32  2  0
 34 33  1  0
 34 29  2  0
 35 36  1  0
 36 37  1  0
 37 38  2  0
 39 38  1  0
 39 43  1  0
 40 39  2  0
 41 36  2  0
 41 40  1  0
 42 41  1  0
 44 45  1  0
 45 48  1  0
 45 47  1  0
 46 44  2  0
 49 24  1  0
 49 50  1  0
 51 49  1  0
 53 64  2  0
 54 52  1  0
 54 59  1  0
 55 63  1  0
 55 65  1  0
 56 62  1  0
 56 58  1  0
 57 63  1  0
 58 59  2  0
 58 57  1  0
 60 54  2  0
 61 60  1  0
 61 56  2  0
 62 55  1  0
 63 53  1  0
 65 67  2  0
 66 65  1  0
 68 66  1  0
 69 78  2  0
 69 74  1  0
 70 66  1  0
 70 74  1  0
 71 70  1  0
 72 73  1  0
 72 71  1  0
 73 69  1  0
 74 75  2  0
 75 76  1  0
 77 76  2  0
 78 77  1  0
 79 53  1  0
 79 80  1  0
 79 89  1  0
 80 83  1  0
 81 85  1  0
 81 80  1  0
 82 81  2  0
 85 84  1  0
 87 88  1  0
 87 85  1  0
 87 86  1  0
 89 92  1  1
 89 90  1  0
 91 89  1  0
M  ISO  4   5 101  14 100  23 100  52 101
M  END
>  <TORSDO>  (8) 
F 17

>  <SCORE>  (8) 
-13.923

>  <name>  (8) 
7

>  <ligand_id>  (8) 
7

>  <original_smiles>  (8) 
[H]C([H])=C1C(=O)N(c2c([H])c([H])c([H])c(N(C(=O)N3C([H])([H])C([H])([H])C([H])([H])C([H])(n4nc(-c5c([H])c([H])c(Oc6c([H])c([H])c(F)c([H])c6F)c([H])c5[H])c(C(=O)N([H])[H])c4N([H])[H])C3([H])[H])C([H])([H])[H])c2[H])C1=C([H])Oc1c([H])c([H])c2c(c1[H])C([H])([H])N(C(=O)C([H])(N([H])C(=O)C([H])(N([H])C([H])([H])[H])C([H])([H])[H])C(C([H])([H])[H])(C([H])([H])[H])C([H])([H])[H])C([H])(C(=O)N([H])C1([H])c3c([H])c([H])c([H])c([H])c3C([H])([H])C([H])([H])C1([H])[H])C2([H])[H]

>  <smiles>  (8) 
[H]C([H])=C1C(=O)N(c2c([H])c([H])c([H])c(N(C(=O)N3C([H])([H])C([H])([H])C([H])([H])C([H])(n4nc(-c5c([H])c([H])c(Oc6c([H])c([H])c(F)c([H])c6F)c([H])c5[H])c(C(=O)N([H])[H])c4N([H])[H])C3([H])[H])C([H])([H])[H])c2[H])C1=C([H])Oc1c([H])c([H])c2c(c1[H])C([H])([H])N(C(=O)C([H])(N([H])C(=O)C([H])(N([H])C([H])([H])[H])C([H])([H])[H])C(C([H])([H])[H])(C([H])([H])[H])C([H])([H])[H])C([H])(C(=O)N([H])C1([H])c3c([H])c([H])c([H])c([H])c3C([H])([H])C([H])([H])C1([H])[H])C2([H])[H]

$$$$
8:0:0
     RDKit          3D

 93102  0  0  1  0  0  0  0  0999 V2000
  -28.6380  -23.9540   21.0970 C   0  0  0  0  0  0  0  0  0  0  0  0
  -29.1130  -22.8980   20.1200 C   0  0  0  0  0  0  0  0  0  0  0  0
  -28.3480  -25.3430   21.0790 C   0  0  0  0  0  0  0  0  0  0  0  0
  -28.4620  -23.2040   22.4000 C   0  0  0  0  0  3  0  0  0  0  0  0
  -28.6450  -21.7310   22.0900 C   0  0  0  0  0  3  0  0  0  0  0  0
  -27.9580  -26.0140   22.4060 C   0  0  0  0  0  1  0  0  0  0  0  0
  -29.1710  -21.6300   20.7330 N   0  0  0  0  0  0  0  0  0  0  0  0
  -29.4270  -23.0950   18.9430 O   0  0  0  0  0  0  0  0  0  0  0  0
  -30.5600  -18.3820   19.2180 C   0  0  0  0  0  3  0  0  0  0  0  0
  -30.2420  -19.8200   19.2160 C   0  0  0  0  0  3  0  0  0  0  0  0
  -30.1730  -17.6620   20.3380 C   0  0  0  0  0  0  0  0  0  0  0  0
  -29.5980  -20.3270   20.3370 C   0  0  0  0  0  0  0  0  0  0  0  0
  -29.3860  -18.8830   21.3910 S   0  0  0  0  0  0  0  0  0  0  0  0
  -30.2210  -16.1770   20.7910 C   0  0  0  0  0  0  0  0  0  0  0  0
  -29.7030  -15.9390   21.9220 N   0  0  0  0  0  0  0  0  0  0  0  0
  -29.3220  -16.7820   22.3330 H   0  0  0  0  0  0  0  0  0  0  0  0
  -30.9190  -14.9400   19.9990 C   0  0  0  0  0  0  0  0  0  0  0  0
  -30.6820  -12.6880   18.8950 C   0  0  0  0  0  2  0  0  0  0  0  0
  -29.6570  -12.7930   17.7380 C   0  0  0  0  0  2  0  0  0  0  0  0
  -28.2120  -12.6050   18.2470 C   0  0  0  0  0  2  0  0  0  0  0  0
  -27.9300  -13.4280   19.5310 C   0  0  0  0  0  3  0  0  0  0  0  0
  -29.0580  -13.2250   20.5610 C   0  0  0  0  0  2  0  0  0  0  0  0
  -30.3150  -13.6840   19.9380 N   0  0  0  0  0  0  0  0  0  0  0  0
  -32.0060  -15.1030   19.4300 O   0  0  0  0  0  0  0  0  0  0  0  0
  -25.6180  -14.0200   20.4740 C   0  0  0  0  0  0  0  0  0  0  0  0
  -24.5590  -13.2470   20.8650 C   0  0  0  0  0  0  0  0  0  0  0  0
  -24.9790  -11.8910   20.6960 C   0  0  0  0  0  0  0  0  0  0  0  0
  -26.6150  -13.1370   20.0930 N   0  0  0  0  0  0  0  0  0  0  0  0
  -26.2410  -11.8460   20.2840 N   0  0  0  0  0  0  0  0  0  0  0  0
  -24.2320  -10.6360   20.8480 C   0  0  0  0  0  0  0  0  0  0  0  0
  -24.6580   -9.6240   21.7360 C   0  0  0  0  0  3  0  0  0  0  0  0
  -23.9120   -8.4340   21.8760 C   0  0  0  0  0  3  0  0  0  0  0  0
  -22.7250   -8.2480   21.1290 C   0  0  0  0  0  0  0  0  0  0  0  0
  -22.3170   -9.2480   20.2300 C   0  0  0  0  0  3  0  0  0  0  0  0
  -23.0640  -10.4300   20.0860 C   0  0  0  0  0  3  0  0  0  0  0  0
  -21.9500   -7.1140   21.1810 O   0  0  0  0  0  0  0  0  0  0  0  0
  -21.8360   -6.3720   22.3300 C   0  0  0  0  0  0  0  0  0  0  0  0
  -21.3680   -6.9360   23.5370 C   0  0  0  0  0  3  0  0  0  0  0  0
  -21.2010   -6.1210   24.6740 C   0  0  0  0  0  3  0  0  0  0  0  0
  -21.4910   -4.7460   24.6070 C   0  0  0  0  0  0  0  0  0  0  0  0
  -21.9530   -4.1830   23.4040 C   0  0  0  0  0  3  0  0  0  0  0  0
  -22.1220   -4.9930   22.2680 C   0  0  0  0  0  0  0  0  0  0  0  0
  -22.5470   -4.4420   21.1060 F   0  0  0  0  0  0  0  0  0  0  0  0
  -21.3240   -3.9620   25.6970 F   0  0  0  0  0  0  0  0  0  0  0  0
  -23.2030  -13.7350   21.2820 C   0  0  0  0  0  0  0  0  0  0  0  0
  -22.5280  -12.9970   22.1560 N   0  0  0  0  0  0  0  0  0  0  0  0
  -22.7530  -14.8030   20.8690 O   0  0  0  0  0  0  0  0  0  0  0  0
  -22.9050  -12.1300   22.5100 H   0  0  0  0  0  0  0  0  0  0  0  0
  -21.6200  -13.3030   22.4780 H   0  0  0  0  0  0  0  0  0  0  0  0
  -25.8080  -15.3970   20.3910 N   0  0  0  0  0  0  0  0  0  0  0  0
  -25.0800  -16.0620   20.6270 H   0  0  0  0  0  0  0  0  0  0  0  0
  -26.6650  -15.8390   20.0810 H   0  0  0  0  0  0  0  0  0  0  0  0
  -28.3760  -26.3640   20.0730 O   0  0  0  0  0  0  0  0  0  0  0  0
  -24.6510  -31.8630   23.1060 C   0  0  0  0  0  0  0  0  0  0  0  0
  -27.3160  -27.3150   20.0210 C   0  0  0  0  0  0  0  0  0  0  0  0
  -23.4640  -30.4570   21.4620 C   0  0  0  0  0  3  0  0  0  0  0  0
  -24.9350  -28.9330   20.0150 C   0  0  0  0  0  0  0  0  0  0  0  0
  -26.0010  -30.8040   21.2720 C   0  0  0  0  0  2  0  0  0  0  0  0
  -26.1030  -29.4290   20.6090 C   0  0  0  0  0  0  0  0  0  0  0  0
  -27.3000  -28.6370   20.5920 C   0  0  0  0  0  3  0  0  0  0  0  0
  -26.1260  -26.8910   19.3950 C   0  0  0  0  0  3  0  0  0  0  0  0
  -24.9520  -27.6730   19.3930 C   0  0  0  0  0  3  0  0  0  0  0  0
  -23.6850  -29.7930   20.0760 C   0  0  0  0  0  2  0  0  0  0  0  0
  -24.7250  -31.0590   22.0040 N   0  0  0  0  0  0  0  0  0  0  0  0
  -23.5660  -32.1210   23.6470 O   0  0  0  0  0  0  0  0  0  0  0  0
  -22.8150  -29.4280   22.4200 C   0  0  0  0  0  0  0  0  0  0  0  0
  -21.4930  -29.2260   22.2930 N   0  0  0  0  0  0  0  0  0  0  0  0
  -23.5030  -28.8130   23.2380 O   0  0  0  0  0  0  0  0  0  0  0  0
  -20.9940  -29.7740   21.6060 H   0  0  0  0  0  0  0  0  0  0  0  0
  -18.1460  -27.9280   22.7580 C   0  0  0  0  0  0  0  0  0  0  0  0
  -20.6910  -28.2700   23.0610 C   0  0  0  0  0  3  0  0  0  0  0  0
  -20.8450  -26.8380   22.5000 C   0  0  0  0  0  2  0  0  0  0  0  0
  -19.7690  -26.4740   21.4720 C   0  0  0  0  0  2  0  0  0  0  0  0
  -18.3740  -26.5800   22.0950 C   0  0  0  0  0  2  0  0  0  0  0  0
  -19.2340  -28.7290   23.1960 C   0  0  0  0  0  0  0  0  0  0  0  0
  -18.9660  -29.9880   23.7760 C   0  0  0  0  0  3  0  0  0  0  0  0
  -17.6440  -30.4480   23.9210 C   0  0  0  0  0  3  0  0  0  0  0  0
  -16.5700  -29.6440   23.4990 C   0  0  0  0  0  3  0  0  0  0  0  0
  -16.8220  -28.3860   22.9220 C   0  0  0  0  0  3  0  0  0  0  0  0
  -25.9250  -32.5120   23.7300 C   0  0  0  0  0  3  0  0  0  0  0  0
  -25.5890  -33.8960   24.0930 N   0  0  0  0  0  0  0  0  0  0  0  0
  -25.9070  -34.9750   23.3650 C   0  0  0  0  0  0  0  0  0  0  0  0
  -26.5850  -34.9100   22.3360 O   0  0  0  0  0  0  0  0  0  0  0  0
  -24.9890  -34.0200   24.8950 H   0  0  0  0  0  0  0  0  0  0  0  0
  -24.1710  -36.7640   23.0270 C   0  0  0  0  0  1  0  0  0  0  0  0
  -25.3940  -36.3440   23.8560 C   0  0  0  0  0  3  0  0  0  0  0  0
  -27.4980  -37.2220   24.7710 C   0  0  0  0  0  1  0  0  0  0  0  0
  -26.4190  -37.4100   23.8050 N   0  0  0  0  0  0  0  0  0  0  0  0
  -25.9990  -38.3200   23.9750 H   0  0  0  0  0  0  0  0  0  0  0  0
  -26.4700  -31.7280   24.9860 C   0  0  1  0  0  0  0  0  0  0  0  0
  -25.3920  -31.4490   26.0600 C   0  0  0  0  0  1  0  0  0  0  0  0
  -27.0770  -30.3690   24.5660 C   0  0  0  0  0  1  0  0  0  0  0  0
  -27.6110  -32.5330   25.6530 C   0  0  0  0  0  1  0  0  0  0  0  0
  1  4  1  0
  2  7  1  0
  2  1  1  0
  3  1  2  0
  3  6  1  0
  5  4  2  0
  7  5  1  0
  8  2  2  0
  9 11  2  0
 10  9  1  0
 10 12  2  0
 11 14  1  0
 11 13  1  0
 12  7  1  0
 12 13  1  0
 14 15  2  0
 15 16  1  0
 17 14  1  0
 18 23  1  0
 19 20  1  0
 19 18  1  0
 21 20  1  0
 21 28  1  0
 21 22  1  0
 23 17  1  0
 23 22  1  0
 24 17  2  0
 25 26  2  0
 26 45  1  0
 27 30  1  0
 27 26  1  0
 28 29  1  0
 28 25  1  0
 29 27  2  0
 30 31  1  0
 31 32  2  0
 33 36  1  0
 33 32  1  0
 34 33  2  0
 35 34  1  0
 35 30  2  0
 36 37  1  0
 37 38  1  0
 38 39  2  0
 40 39  1  0
 40 44  1  0
 41 40  2  0
 42 37  2  0
 42 41  1  0
 43 42  1  0
 45 46  1  0
 46 49  1  0
 46 48  1  0
 47 45  2  0
 50 25  1  0
 50 51  1  0
 52 50  1  0
 53  3  1  0
 54 65  2  0
 55 53  1  0
 55 60  1  0
 56 64  1  0
 56 66  1  0
 57 63  1  0
 57 59  1  0
 58 64  1  0
 59 58  1  0
 60 59  2  0
 61 55  2  0
 62 61  1  0
 62 57  2  0
 63 56  1  0
 64 54  1  0
 66 68  2  0
 67 66  1  0
 69 67  1  0
 70 79  2  0
 70 75  1  0
 71 67  1  0
 71 75  1  0
 72 71  1  0
 73 74  1  0
 73 72  1  0
 74 70  1  0
 75 76  2  0
 76 77  1  0
 78 77  2  0
 79 78  1  0
 80 54  1  0
 80 81  1  0
 80 90  1  0
 81 84  1  0
 82 86  1  0
 82 81  1  0
 83 82  2  0
 86 85  1  0
 88 86  1  0
 88 89  1  0
 88 87  1  0
 90 93  1  1
 90 91  1  0
 92 90  1  0
M  ISO  4   3 101  14 100  17 100  53 101
M  END
>  <TORSDO>  (9) 
F 18

>  <SCORE>  (9) 
-13.381

>  <name>  (9) 
8

>  <ligand_id>  (9) 
8

>  <original_smiles>  (9) 
[H]N=C(C(=O)N1C([H])([H])C([H])([H])C([H])([H])C([H])(n2nc(-c3c([H])c([H])c(Oc4c([H])c([H])c(F)c([H])c4F)c([H])c3[H])c(C(=O)N([H])[H])c2N([H])[H])C1([H])[H])c1sc(N2C(=O)C(=C(Oc3c([H])c([H])c4c(c3[H])C([H])([H])N(C(=O)C([H])(N([H])C(=O)C([H])(N([H])C([H])([H])[H])C([H])([H])[H])C(C([H])([H])[H])(C([H])([H])[H])C([H])([H])[H])C([H])(C(=O)N([H])C3([H])c5c([H])c([H])c([H])c([H])c5C([H])([H])C([H])([H])C3([H])[H])C4([H])[H])C([H])([H])[H])C([H])([H])C2([H])[H])c([H])c1[H]

>  <smiles>  (9) 
[H]N=C(C(=O)N1C([H])([H])C([H])([H])C([H])([H])C([H])(n2nc(-c3c([H])c([H])c(Oc4c([H])c([H])c(F)c([H])c4F)c([H])c3[H])c(C(=O)N([H])[H])c2N([H])[H])C1([H])[H])c1sc(N2C(=O)C(=C(Oc3c([H])c([H])c4c(c3[H])C([H])([H])N(C(=O)C([H])(N([H])C(=O)C([H])(N([H])C([H])([H])[H])C([H])([H])[H])C(C([H])([H])[H])(C([H])([H])[H])C([H])([H])[H])C([H])(C(=O)N([H])C3([H])c5c([H])c([H])c([H])c([H])c5C([H])([H])C([H])([H])C3([H])[H])C4([H])[H])C([H])([H])[H])C([H])([H])C2([H])[H])c([H])c1[H]

$$$$
9:0:0
     RDKit          3D

 90 98  0  0  1  0  0  0  0  0999 V2000
  -28.8300  -21.3240   20.7950 C   0  0  0  0  0  0  0  0  0  0  0  0
  -27.9250  -21.1510   21.6130 O   0  0  0  0  0  0  0  0  0  0  0  0
  -32.0410  -19.2830   20.1510 C   0  0  0  0  0  3  0  0  0  0  0  0
  -31.1220  -20.3370   20.2990 C   0  0  0  0  0  3  0  0  0  0  0  0
  -31.6440  -17.9320   20.2230 C   0  0  0  0  0  3  0  0  0  0  0  0
  -29.3660  -18.6710   20.5940 C   0  0  0  0  0  3  0  0  0  0  0  0
  -29.7530  -20.0860   20.5230 C   0  0  0  0  0  0  0  0  0  0  0  0
  -30.2990  -17.5440   20.4410 C   0  0  0  0  0  0  0  0  0  0  0  0
  -30.6680  -14.9120   20.2390 C   0  0  0  0  0  0  0  0  0  0  0  0
  -30.4220  -12.6370   19.2090 C   0  0  0  0  0  2  0  0  0  0  0  0
  -29.4520  -12.7090   18.0100 C   0  0  0  0  0  2  0  0  0  0  0  0
  -28.0000  -12.5130   18.4830 C   0  0  0  0  0  2  0  0  0  0  0  0
  -27.6550  -13.3950   19.7120 C   0  0  0  0  0  3  0  0  0  0  0  0
  -28.7450  -13.3250   20.8040 C   0  0  0  0  0  2  0  0  0  0  0  0
  -30.0190  -13.6930   20.1740 N   0  0  0  0  0  0  0  0  0  0  0  0
  -31.8470  -14.9510   19.8770 O   0  0  0  0  0  0  0  0  0  0  0  0
  -29.9390  -16.0810   20.5140 N   0  0  0  0  0  0  0  0  0  0  0  0
  -28.9800  -15.8940   20.7570 H   0  0  0  0  0  0  0  0  0  0  0  0
  -25.2900  -13.9640   20.5140 C   0  0  0  0  0  0  0  0  0  0  0  0
  -24.2370  -13.1800   20.9020 C   0  0  0  0  0  0  0  0  0  0  0  0
  -24.7050  -11.8310   20.8420 C   0  0  0  0  0  0  0  0  0  0  0  0
  -26.3290  -13.0910   20.2370 N   0  0  0  0  0  0  0  0  0  0  0  0
  -25.9870  -11.8020   20.4990 N   0  0  0  0  0  0  0  0  0  0  0  0
  -23.9870  -10.5630   21.0310 C   0  0  0  0  0  0  0  0  0  0  0  0
  -24.4330   -9.5950   21.9580 C   0  0  0  0  0  3  0  0  0  0  0  0
  -23.7130   -8.3930   22.1390 C   0  0  0  0  0  3  0  0  0  0  0  0
  -22.5340   -8.1520   21.3940 C   0  0  0  0  0  0  0  0  0  0  0  0
  -22.1080   -9.1090   20.4550 C   0  0  0  0  0  3  0  0  0  0  0  0
  -22.8280  -10.3010   20.2740 C   0  0  0  0  0  3  0  0  0  0  0  0
  -21.7860   -7.0010   21.4840 O   0  0  0  0  0  0  0  0  0  0  0  0
  -21.7370   -6.2650   22.6400 C   0  0  0  0  0  0  0  0  0  0  0  0
  -21.2780   -6.8160   23.8560 C   0  0  0  0  0  3  0  0  0  0  0  0
  -21.1780   -6.0040   25.0040 C   0  0  0  0  0  3  0  0  0  0  0  0
  -21.5280   -4.6410   24.9360 C   0  0  0  0  0  0  0  0  0  0  0  0
  -21.9790   -4.0900   23.7240 C   0  0  0  0  0  3  0  0  0  0  0  0
  -22.0810   -4.8990   22.5790 C   0  0  0  0  0  0  0  0  0  0  0  0
  -22.4970   -4.3580   21.4080 F   0  0  0  0  0  0  0  0  0  0  0  0
  -21.4240   -3.8580   26.0350 F   0  0  0  0  0  0  0  0  0  0  0  0
  -22.8460  -13.6470   21.2150 C   0  0  0  0  0  0  0  0  0  0  0  0
  -22.1440  -12.9340   22.0870 N   0  0  0  0  0  0  0  0  0  0  0  0
  -22.3920  -14.6780   20.7200 O   0  0  0  0  0  0  0  0  0  0  0  0
  -22.5250  -12.0970   22.5060 H   0  0  0  0  0  0  0  0  0  0  0  0
  -21.2110  -13.2270   22.3400 H   0  0  0  0  0  0  0  0  0  0  0  0
  -25.4430  -15.3370   20.3440 N   0  0  0  0  0  0  0  0  0  0  0  0
  -24.6730  -15.9860   20.4630 H   0  0  0  0  0  0  0  0  0  0  0  0
  -26.2700  -15.7740   19.9570 H   0  0  0  0  0  0  0  0  0  0  0  0
  -28.5090  -23.7240   20.4950 C   0  0  0  0  0  3  0  0  0  0  0  0
  -29.0530  -22.5740   20.1090 N   0  0  0  0  0  0  0  0  0  0  0  0
  -28.5240  -25.1150   19.6680 C   0  0  0  0  0  2  0  0  0  0  0  0
  -28.3910  -26.4790   20.3050 O   0  0  0  0  0  0  0  0  0  0  0  0
  -24.6150  -31.9220   23.2290 C   0  0  0  0  0  0  0  0  0  0  0  0
  -27.2700  -27.3390   20.1870 C   0  0  0  0  0  0  0  0  0  0  0  0
  -23.4300  -30.5160   21.5780 C   0  0  0  0  0  3  0  0  0  0  0  0
  -24.8990  -28.9750   20.1490 C   0  0  0  0  0  0  0  0  0  0  0  0
  -25.9680  -30.8460   21.4060 C   0  0  0  0  0  2  0  0  0  0  0  0
  -26.0620  -29.4640   20.7570 C   0  0  0  0  0  0  0  0  0  0  0  0
  -27.2440  -28.6560   20.7660 C   0  0  0  0  0  3  0  0  0  0  0  0
  -26.0790  -26.9180   19.5540 C   0  0  0  0  0  3  0  0  0  0  0  0
  -24.9150  -27.7130   19.5370 C   0  0  0  0  0  3  0  0  0  0  0  0
  -23.6540  -29.8430   20.1980 C   0  0  0  0  0  2  0  0  0  0  0  0
  -24.6900  -31.1160   22.1270 N   0  0  0  0  0  0  0  0  0  0  0  0
  -23.5270  -32.1870   23.7630 O   0  0  0  0  0  0  0  0  0  0  0  0
  -22.7700  -29.4950   22.5390 C   0  0  0  0  0  0  0  0  0  0  0  0
  -21.4420  -29.3150   22.4170 N   0  0  0  0  0  0  0  0  0  0  0  0
  -23.4520  -28.8680   23.3540 O   0  0  0  0  0  0  0  0  0  0  0  0
  -20.9500  -29.8740   21.7330 H   0  0  0  0  0  0  0  0  0  0  0  0
  -18.0720  -28.1020   22.9280 C   0  0  0  0  0  0  0  0  0  0  0  0
  -20.6320  -28.3670   23.1840 C   0  0  0  0  0  3  0  0  0  0  0  0
  -20.7300  -26.9420   22.5920 C   0  0  0  0  0  2  0  0  0  0  0  0
  -19.6240  -26.6280   21.5790 C   0  0  0  0  0  2  0  0  0  0  0  0
  -18.2460  -26.7620   22.2340 C   0  0  0  0  0  2  0  0  0  0  0  0
  -19.1920  -28.8630   23.3580 C   0  0  0  0  0  0  0  0  0  0  0  0
  -18.9730  -30.1180   23.9660 C   0  0  0  0  0  3  0  0  0  0  0  0
  -17.6660  -30.6130   24.1470 C   0  0  0  0  0  3  0  0  0  0  0  0
  -16.5620  -29.8480   23.7330 C   0  0  0  0  0  3  0  0  0  0  0  0
  -16.7660  -28.5950   23.1290 C   0  0  0  0  0  3  0  0  0  0  0  0
  -25.8870  -32.5670   23.8590 C   0  0  0  0  0  3  0  0  0  0  0  0
  -26.3960  -31.8080   25.1460 C   0  0  1  0  0  0  0  0  0  0  0  0
  -25.2960  -31.5690   26.2070 C   0  0  0  0  0  1  0  0  0  0  0  0
  -26.9920  -30.4310   24.7700 C   0  0  0  0  0  1  0  0  0  0  0  0
  -27.5350  -32.6140   25.8160 C   0  0  0  0  0  1  0  0  0  0  0  0
  -25.5670  -33.9650   24.1800 N   0  0  0  0  0  0  0  0  0  0  0  0
  -25.9020  -35.0180   23.4220 C   0  0  0  0  0  0  0  0  0  0  0  0
  -26.5800  -34.9120   22.3950 O   0  0  0  0  0  0  0  0  0  0  0  0
  -24.9650  -34.1180   24.9750 H   0  0  0  0  0  0  0  0  0  0  0  0
  -24.1760  -36.8130   23.0440 C   0  0  0  0  0  1  0  0  0  0  0  0
  -25.4080  -36.4080   23.8710 C   0  0  0  0  0  3  0  0  0  0  0  0
  -27.5250  -37.3030   24.7370 C   0  0  0  0  0  1  0  0  0  0  0  0
  -26.4430  -37.4600   23.7680 N   0  0  0  0  0  0  0  0  0  0  0  0
  -26.0340  -38.3820   23.8950 H   0  0  0  0  0  0  0  0  0  0  0  0
  1  2  2  0
  3  5  2  0
  3  4  1  0
  4  7  2  0
  5  8  1  0
  7  6  1  0
  7  1  1  0
  8 17  1  0
  8  6  2  0
  9 17  1  0
 10 15  1  0
 11 12  1  0
 11 10  1  0
 13 12  1  0
 13 22  1  0
 13 14  1  0
 15  9  1  0
 15 14  1  0
 16  9  2  0
 17 18  1  0
 19 20  2  0
 20 39  1  0
 21 20  1  0
 21 24  1  0
 22 23  1  0
 22 19  1  0
 23 21  2  0
 24 25  1  0
 25 26  2  0
 27 30  1  0
 27 26  1  0
 28 27  2  0
 29 28  1  0
 29 24  2  0
 30 31  1  0
 31 32  1  0
 32 33  2  0
 34 33  1  0
 34 38  1  0
 35 34  2  0
 36 31  2  0
 36 35  1  0
 37 36  1  0
 39 40  1  0
 40 43  1  0
 40 42  1  0
 41 39  2  0
 44 45  1  0
 44 19  1  0
 46 44  1  0
 48 47  2  0
 48  1  1  0
 49 50  1  0
 49 47  1  0
 51 62  2  0
 52 50  1  0
 52 57  1  0
 53 61  1  0
 53 63  1  0
 54 60  1  0
 54 56  1  0
 55 61  1  0
 56 57  2  0
 56 55  1  0
 58 52  2  0
 59 58  1  0
 59 54  2  0
 60 53  1  0
 61 51  1  0
 63 65  2  0
 64 63  1  0
 66 64  1  0
 67 76  2  0
 67 72  1  0
 68 64  1  0
 68 72  1  0
 69 68  1  0
 70 71  1  0
 70 69  1  0
 71 67  1  0
 72 73  2  0
 73 74  1  0
 75 74  2  0
 76 75  1  0
 77 51  1  0
 77 82  1  0
 77 78  1  0
 78 81  1  1
 78 79  1  0
 80 78  1  0
 82 85  1  0
 83 87  1  0
 83 82  1  0
 84 83  2  0
 87 86  1  0
 89 87  1  0
 89 90  1  0
 89 88  1  0
M  ISO  4   9 100  17 100  49 101  50 101
M  END
>  <TORSDO>  (10) 
F 19

>  <SCORE>  (10) 
-14.130

>  <name>  (10) 
9

>  <ligand_id>  (10) 
9

>  <original_smiles>  (10) 
[H]C(=NC(=O)c1c([H])c([H])c([H])c(N([H])C(=O)N2C([H])([H])C([H])([H])C([H])([H])C([H])(n3nc(-c4c([H])c([H])c(Oc5c([H])c([H])c(F)c([H])c5F)c([H])c4[H])c(C(=O)N([H])[H])c3N([H])[H])C2([H])[H])c1[H])C([H])([H])Oc1c([H])c([H])c2c(c1[H])C([H])([H])N(C(=O)C([H])(N([H])C(=O)C([H])(N([H])C([H])([H])[H])C([H])([H])[H])C(C([H])([H])[H])(C([H])([H])[H])C([H])([H])[H])C([H])(C(=O)N([H])C1([H])c3c([H])c([H])c([H])c([H])c3C([H])([H])C([H])([H])C1([H])[H])C2([H])[H]

>  <smiles>  (10) 
[H]C(=NC(=O)c1c([H])c([H])c([H])c(N([H])C(=O)N2C([H])([H])C([H])([H])C([H])([H])C([H])(n3nc(-c4c([H])c([H])c(Oc5c([H])c([H])c(F)c([H])c5F)c([H])c4[H])c(C(=O)N([H])[H])c3N([H])[H])C2([H])[H])c1[H])C([H])([H])Oc1c([H])c([H])c2c(c1[H])C([H])([H])N(C(=O)C([H])(N([H])C(=O)C([H])(N([H])C([H])([H])[H])C([H])([H])[H])C(C([H])([H])[H])(C([H])([H])[H])C([H])([H])[H])C([H])(C(=O)N([H])C1([H])c3c([H])c([H])c([H])c([H])c3C([H])([H])C([H])([H])C1([H])[H])C2([H])[H]

$$$$
10:0:0
     RDKit          3D

 93102  0  0  1  0  0  0  0  0999 V2000
  -28.5090  -24.0570   20.4120 C   0  0  0  0  0  0  0  0  0  0  0  0
  -29.2570  -23.3310   19.3870 C   0  0  0  0  0  0  0  0  0  0  0  0
  -28.2960  -25.3470   20.8400 C   0  0  0  0  0  3  0  0  0  0  0  0
  -27.8790  -22.7560   20.8830 C   0  0  0  0  0  2  0  0  0  0  0  0
  -28.6670  -22.1150   19.8170 N   0  0  0  0  0  0  0  0  0  0  0  0
  -30.0350  -23.6960   18.5290 O   0  0  0  0  0  0  0  0  0  0  0  0
  -26.9760  -18.7510   19.3240 C   0  0  0  0  0  3  0  0  0  0  0  0
  -28.0190  -17.8360   19.1350 C   0  0  0  0  0  3  0  0  0  0  0  0
  -27.2460  -20.1150   19.5270 C   0  0  0  0  0  3  0  0  0  0  0  0
  -29.5940  -19.6990   19.3210 C   0  0  0  0  0  3  0  0  0  0  0  0
  -29.3560  -18.2830   19.1260 C   0  0  0  0  0  0  0  0  0  0  0  0
  -28.5530  -20.6730   19.5500 C   0  0  0  0  0  0  0  0  0  0  0  0
  -31.1710  -14.9270   19.5220 C   0  0  0  0  0  0  0  0  0  0  0  0
  -31.1420  -12.4650   19.2330 C   0  0  0  0  0  2  0  0  0  0  0  0
  -30.1910  -12.1250   18.0640 C   0  0  0  0  0  2  0  0  0  0  0  0
  -28.7430  -11.9740   18.5710 C   0  0  0  0  0  2  0  0  0  0  0  0
  -28.3040  -13.1460   19.4890 C   0  0  0  0  0  3  0  0  0  0  0  0
  -29.3750  -13.4610   20.5580 C   0  0  0  0  0  2  0  0  0  0  0  0
  -30.6460  -13.7070   19.8600 N   0  0  0  0  0  0  0  0  0  0  0  0
  -32.3240  -15.0020   19.0870 O   0  0  0  0  0  0  0  0  0  0  0  0
  -30.4860  -17.2510   18.9880 C   0  0  0  0  0  0  0  0  0  0  0  0
  -30.3080  -15.9940   19.5170 N   0  0  0  0  0  0  0  0  0  0  0  0
  -31.5040  -17.6010   18.3810 O   0  0  0  0  0  0  0  0  0  0  0  0
  -29.4080  -15.8250   19.9270 H   0  0  0  0  0  0  0  0  0  0  0  0
  -26.0350  -13.8150   20.4900 C   0  0  0  0  0  0  0  0  0  0  0  0
  -24.9620  -13.0740   20.9040 C   0  0  0  0  0  0  0  0  0  0  0  0
  -25.3350  -11.7060   20.7260 C   0  0  0  0  0  0  0  0  0  0  0  0
  -26.9940  -12.9010   20.0850 N   0  0  0  0  0  0  0  0  0  0  0  0
  -26.5840  -11.6220   20.2870 N   0  0  0  0  0  0  0  0  0  0  0  0
  -24.5530  -10.4740   20.8950 C   0  0  0  0  0  0  0  0  0  0  0  0
  -24.8760   -9.5230   21.8870 C   0  0  0  0  0  3  0  0  0  0  0  0
  -24.0980   -8.3560   22.0410 C   0  0  0  0  0  3  0  0  0  0  0  0
  -22.9830   -8.1300   21.2000 C   0  0  0  0  0  0  0  0  0  0  0  0
  -22.6790   -9.0680   20.1980 C   0  0  0  0  0  3  0  0  0  0  0  0
  -23.4570  -10.2270   20.0420 C   0  0  0  0  0  3  0  0  0  0  0  0
  -22.1850   -7.0130   21.2600 O   0  0  0  0  0  0  0  0  0  0  0  0
  -21.8070   -6.4610   22.4580 C   0  0  0  0  0  0  0  0  0  0  0  0
  -21.0980   -7.2030   23.4280 C   0  0  0  0  0  3  0  0  0  0  0  0
  -20.6680   -6.5780   24.6170 C   0  0  0  0  0  3  0  0  0  0  0  0
  -20.9380   -5.2130   24.8320 C   0  0  0  0  0  0  0  0  0  0  0  0
  -21.6390   -4.4710   23.8640 C   0  0  0  0  0  3  0  0  0  0  0  0
  -22.0700   -5.0940   22.6790 C   0  0  0  0  0  0  0  0  0  0  0  0
  -22.7260   -4.3710   21.7400 F   0  0  0  0  0  0  0  0  0  0  0  0
  -20.5180   -4.6100   25.9680 F   0  0  0  0  0  0  0  0  0  0  0  0
  -23.6310  -13.6030   21.3520 C   0  0  0  0  0  0  0  0  0  0  0  0
  -22.9560  -12.8900   22.2470 N   0  0  0  0  0  0  0  0  0  0  0  0
  -23.2010  -14.6800   20.9410 O   0  0  0  0  0  0  0  0  0  0  0  0
  -23.3210  -12.0160   22.6000 H   0  0  0  0  0  0  0  0  0  0  0  0
  -22.0660  -13.2230   22.5880 H   0  0  0  0  0  0  0  0  0  0  0  0
  -26.2660  -15.1840   20.4000 N   0  0  0  0  0  0  0  0  0  0  0  0
  -25.5490  -15.8620   20.6340 H   0  0  0  0  0  0  0  0  0  0  0  0
  -27.0820  -15.6070   19.9780 H   0  0  0  0  0  0  0  0  0  0  0  0
  -28.7320  -26.6060   20.4010 O   0  0  0  0  0  0  0  0  0  0  0  0
  -24.8530  -31.8430   23.4340 C   0  0  0  0  0  0  0  0  0  0  0  0
  -27.6850  -27.5200   20.2790 C   0  0  0  0  0  0  0  0  0  0  0  0
  -23.7860  -30.5400   21.6510 C   0  0  0  0  0  3  0  0  0  0  0  0
  -25.3190  -29.0940   20.2120 C   0  0  0  0  0  0  0  0  0  0  0  0
  -26.3140  -30.8920   21.6340 C   0  0  0  0  0  2  0  0  0  0  0  0
  -26.4440  -29.5610   20.9080 C   0  0  0  0  0  0  0  0  0  0  0  0
  -27.6360  -28.7830   20.9360 C   0  0  0  0  0  3  0  0  0  0  0  0
  -26.5480  -27.1030   19.5560 C   0  0  0  0  0  3  0  0  0  0  0  0
  -25.3720  -27.8710   19.5240 C   0  0  0  0  0  3  0  0  0  0  0  0
  -24.0720  -29.9480   20.2460 C   0  0  0  0  0  2  0  0  0  0  0  0
  -25.0020  -31.1040   22.2990 N   0  0  0  0  0  0  0  0  0  0  0  0
  -23.7310  -32.0780   23.9080 O   0  0  0  0  0  0  0  0  0  0  0  0
  -23.0760  -29.4710   22.5110 C   0  0  0  0  0  0  0  0  0  0  0  0
  -21.7700  -29.4010   22.2780 N   0  0  0  0  0  0  0  0  0  0  0  0
  -23.6820  -28.7380   23.2940 O   0  0  0  0  0  0  0  0  0  0  0  0
  -21.4190  -30.1250   21.6660 H   0  0  0  0  0  0  0  0  0  0  0  0
  -18.3120  -28.0110   22.5750 C   0  0  0  0  0  0  0  0  0  0  0  0
  -20.7960  -28.3740   22.5480 C   0  0  0  0  0  3  0  0  0  0  0  0
  -21.0210  -26.9130   22.1480 C   0  0  0  0  0  2  0  0  0  0  0  0
  -19.8980  -26.4990   21.1730 C   0  0  0  0  0  2  0  0  0  0  0  0
  -18.4920  -26.7210   21.7720 C   0  0  0  0  0  2  0  0  0  0  0  0
  -19.4220  -28.7530   23.0460 C   0  0  0  0  0  0  0  0  0  0  0  0
  -19.2240  -29.9300   23.7960 C   0  0  0  0  0  3  0  0  0  0  0  0
  -17.9200  -30.3990   24.0370 C   0  0  0  0  0  3  0  0  0  0  0  0
  -16.8140  -29.6830   23.5420 C   0  0  0  0  0  3  0  0  0  0  0  0
  -17.0090  -28.4860   22.8290 C   0  0  0  0  0  3  0  0  0  0  0  0
  -26.0820  -32.4420   24.1760 C   0  0  0  0  0  3  0  0  0  0  0  0
  -25.7620  -33.8400   24.4980 N   0  0  0  0  0  0  0  0  0  0  0  0
  -26.1170  -34.8910   23.7480 C   0  0  0  0  0  0  0  0  0  0  0  0
  -26.8140  -34.7870   22.7350 O   0  0  0  0  0  0  0  0  0  0  0  0
  -25.1450  -33.9950   25.2810 H   0  0  0  0  0  0  0  0  0  0  0  0
  -24.3830  -36.6740   23.3680 C   0  0  0  0  0  1  0  0  0  0  0  0
  -25.6190  -36.2800   24.1920 C   0  0  0  0  0  3  0  0  0  0  0  0
  -27.7400  -37.1810   25.0400 C   0  0  0  0  0  1  0  0  0  0  0  0
  -26.6500  -37.3360   24.0810 N   0  0  0  0  0  0  0  0  0  0  0  0
  -26.2390  -38.2560   24.2140 H   0  0  0  0  0  0  0  0  0  0  0  0
  -26.4640  -31.6410   25.4790 C   0  0  1  0  0  0  0  0  0  0  0  0
  -25.2690  -31.3850   26.4270 C   0  0  0  0  0  1  0  0  0  0  0  0
  -27.0780  -30.2700   25.1160 C   0  0  0  0  0  1  0  0  0  0  0  0
  -27.5450  -32.4170   26.2660 C   0  0  0  0  0  1  0  0  0  0  0  0
  1  3  2  0
  1  4  1  0
  2  5  1  0
  2  1  1  0
  5  4  1  0
  6  2  2  0
  7  9  1  0
  8  7  2  0
  9 12  2  0
 10 12  1  0
 11  8  1  0
 11 10  2  0
 12  5  1  0
 13 19  1  0
 14 19  1  0
 15 16  1  0
 15 14  1  0
 17 16  1  0
 17 28  1  0
 17 18  1  0
 19 18  1  0
 20 13  2  0
 21 11  1  0
 21 22  1  0
 22 13  1  0
 22 24  1  0
 23 21  2  0
 25 26  2  0
 26 45  1  0
 27 30  1  0
 27 26  1  0
 28 29  1  0
 28 25  1  0
 29 27  2  0
 30 31  1  0
 31 32  2  0
 33 36  1  0
 33 32  1  0
 34 33  2  0
 35 34  1  0
 35 30  2  0
 36 37  1  0
 37 42  2  0
 37 38  1  0
 38 39  2  0
 39 40  1  0
 40 44  1  0
 41 40  2  0
 42 41  1  0
 43 42  1  0
 45 46  1  0
 46 49  1  0
 46 48  1  0
 47 45  2  0
 50 25  1  0
 50 51  1  0
 52 50  1  0
 53  3  1  0
 54 65  2  0
 55 53  1  0
 55 60  1  0
 56 64  1  0
 56 66  1  0
 57 63  1  0
 57 59  1  0
 58 64  1  0
 59 60  2  0
 59 58  1  0
 61 55  2  0
 62 61  1  0
 62 57  2  0
 63 56  1  0
 64 54  1  0
 66 68  2  0
 67 66  1  0
 69 67  1  0
 70 79  2  0
 70 75  1  0
 71 67  1  0
 71 75  1  0
 72 71  1  0
 73 74  1  0
 73 72  1  0
 74 70  1  0
 75 76  2  0
 76 77  1  0
 78 77  2  0
 79 78  1  0
 80 54  1  0
 80 81  1  0
 80 90  1  0
 81 84  1  0
 82 86  1  0
 82 81  1  0
 83 82  2  0
 86 85  1  0
 88 86  1  0
 88 89  1  0
 88 87  1  0
 90 93  1  1
 90 91  1  0
 92 90  1  0
M  ISO  4   3 101  13 100  22 100  53 101
M  END
>  <TORSDO>  (11) 
F 17

>  <SCORE>  (11) 
-13.326

>  <name>  (11) 
10

>  <ligand_id>  (11) 
10

>  <original_smiles>  (11) 
[H]C(Oc1c([H])c([H])c2c(c1[H])C([H])([H])N(C(=O)C([H])(N([H])C(=O)C([H])(N([H])C([H])([H])[H])C([H])([H])[H])C(C([H])([H])[H])(C([H])([H])[H])C([H])([H])[H])C([H])(C(=O)N([H])C1([H])c3c([H])c([H])c([H])c([H])c3C([H])([H])C([H])([H])C1([H])[H])C2([H])[H])=C1C(=O)N(c2c([H])c([H])c([H])c(C(=O)N([H])C(=O)N3C([H])([H])C([H])([H])C([H])([H])C([H])(n4nc(-c5c([H])c([H])c(Oc6c([H])c([H])c(F)c([H])c6F)c([H])c5[H])c(C(=O)N([H])[H])c4N([H])[H])C3([H])[H])c2[H])C1([H])[H]

>  <smiles>  (11) 
[H]C(Oc1c([H])c([H])c2c(c1[H])C([H])([H])N(C(=O)C([H])(N([H])C(=O)C([H])(N([H])C([H])([H])[H])C([H])([H])[H])C(C([H])([H])[H])(C([H])([H])[H])C([H])([H])[H])C([H])(C(=O)N([H])C1([H])c3c([H])c([H])c([H])c([H])c3C([H])([H])C([H])([H])C1([H])[H])C2([H])[H])=C1C(=O)N(c2c([H])c([H])c([H])c(C(=O)N([H])C(=O)N3C([H])([H])C([H])([H])C([H])([H])C([H])(n4nc(-c5c([H])c([H])c(Oc6c([H])c([H])c(F)c([H])c6F)c([H])c5[H])c(C(=O)N([H])[H])c4N([H])[H])C3([H])[H])c2[H])C1([H])[H]

$$$$
11:0:0
     RDKit          3D

 91100  0  0  1  0  0  0  0  0999 V2000
  -27.1830  -22.9670   21.4740 C   0  0  0  0  0  0  0  0  0  0  0  0
  -28.0120  -23.6570   20.6810 C   0  0  0  0  0  0  0  0  0  0  0  0
  -25.9120  -23.0490   21.9040 C   0  0  0  0  0  2  0  0  0  0  0  0
  -27.6500  -25.0180   20.4150 C   0  0  0  0  0  3  0  0  0  0  0  0
  -28.3650  -22.2340   22.0160 C   0  0  0  0  0  2  0  0  0  0  0  0
  -28.9630  -22.4670   20.6780 N   0  0  0  0  0  0  0  0  0  0  0  0
  -28.1920  -19.9360   20.1480 C   0  0  0  0  0  3  0  0  0  0  0  0
  -30.4690  -20.2610   20.4090 C   0  0  0  0  0  3  0  0  0  0  0  0
  -28.4130  -18.4990   20.1000 C   0  0  0  0  0  3  0  0  0  0  0  0
  -30.7110  -18.8170   20.3450 C   0  0  0  0  0  3  0  0  0  0  0  0
  -29.1930  -20.9530   20.3750 C   0  0  0  0  0  0  0  0  0  0  0  0
  -29.6750  -17.8330   20.2450 C   0  0  0  0  0  0  0  0  0  0  0  0
  -30.6880  -15.2380   20.2270 C   0  0  0  0  0  0  0  0  0  0  0  0
  -30.6770  -12.8630   19.3240 C   0  0  0  0  0  2  0  0  0  0  0  0
  -29.7240  -12.8190   18.1030 C   0  0  0  0  0  2  0  0  0  0  0  0
  -28.2530  -12.6240   18.5360 C   0  0  0  0  0  2  0  0  0  0  0  0
  -27.8610  -13.5220   19.7410 C   0  0  0  0  0  3  0  0  0  0  0  0
  -28.9340  -13.4960   20.8480 C   0  0  0  0  0  2  0  0  0  0  0  0
  -30.1900  -13.9380   20.2320 N   0  0  0  0  0  0  0  0  0  0  0  0
  -31.8830  -15.4040   19.9520 O   0  0  0  0  0  0  0  0  0  0  0  0
  -29.7500  -16.3010   20.3060 N   0  0  0  0  0  0  0  0  0  0  0  0
  -28.8330  -15.8940   20.4070 H   0  0  0  0  0  0  0  0  0  0  0  0
  -25.4930  -14.0980   20.5360 C   0  0  0  0  0  0  0  0  0  0  0  0
  -24.4370  -13.3150   20.9170 C   0  0  0  0  0  0  0  0  0  0  0  0
  -24.8970  -11.9630   20.8410 C   0  0  0  0  0  0  0  0  0  0  0  0
  -26.5300  -13.2200   20.2540 N   0  0  0  0  0  0  0  0  0  0  0  0
  -26.1810  -11.9320   20.5040 N   0  0  0  0  0  0  0  0  0  0  0  0
  -24.1700  -10.6970   21.0130 C   0  0  0  0  0  0  0  0  0  0  0  0
  -24.5680   -9.7380   21.9730 C   0  0  0  0  0  3  0  0  0  0  0  0
  -23.8400   -8.5380   22.1240 C   0  0  0  0  0  3  0  0  0  0  0  0
  -22.7030   -8.2890   21.3190 C   0  0  0  0  0  0  0  0  0  0  0  0
  -22.3250   -9.2380   20.3520 C   0  0  0  0  0  3  0  0  0  0  0  0
  -23.0520  -10.4280   20.1980 C   0  0  0  0  0  3  0  0  0  0  0  0
  -21.9470   -7.1420   21.3860 O   0  0  0  0  0  0  0  0  0  0  0  0
  -21.7940   -6.4470   22.5610 C   0  0  0  0  0  0  0  0  0  0  0  0
  -21.1970   -7.0300   23.7030 C   0  0  0  0  0  3  0  0  0  0  0  0
  -21.0000   -6.2570   24.8650 C   0  0  0  0  0  3  0  0  0  0  0  0
  -21.3880   -4.9040   24.8850 C   0  0  0  0  0  0  0  0  0  0  0  0
  -21.9740   -4.3190   23.7490 C   0  0  0  0  0  3  0  0  0  0  0  0
  -22.1720   -5.0890   22.5880 C   0  0  0  0  0  0  0  0  0  0  0  0
  -22.7200   -4.5160   21.4910 F   0  0  0  0  0  0  0  0  0  0  0  0
  -21.1870   -4.1590   25.9990 F   0  0  0  0  0  0  0  0  0  0  0  0
  -23.0450  -13.7880   21.2210 C   0  0  0  0  0  0  0  0  0  0  0  0
  -22.3220  -13.0750   22.0800 N   0  0  0  0  0  0  0  0  0  0  0  0
  -22.6030  -14.8220   20.7230 O   0  0  0  0  0  0  0  0  0  0  0  0
  -22.6880  -12.2410   22.5150 H   0  0  0  0  0  0  0  0  0  0  0  0
  -21.3900  -13.3750   22.3190 H   0  0  0  0  0  0  0  0  0  0  0  0
  -25.6520  -15.4690   20.3720 N   0  0  0  0  0  0  0  0  0  0  0  0
  -24.8530  -16.0900   20.4640 H   0  0  0  0  0  0  0  0  0  0  0  0
  -26.3990  -15.8700   19.8210 H   0  0  0  0  0  0  0  0  0  0  0  0
  -28.1490  -26.3180   19.9520 O   0  0  0  0  0  0  0  0  0  0  0  0
  -24.6340  -31.9580   23.1810 C   0  0  0  0  0  0  0  0  0  0  0  0
  -27.1850  -27.3940   19.9190 C   0  0  0  0  0  0  0  0  0  0  0  0
  -23.4190  -30.6130   21.5110 C   0  0  0  0  0  3  0  0  0  0  0  0
  -24.8610  -29.1260   19.9920 C   0  0  0  0  0  0  0  0  0  0  0  0
  -25.9720  -30.9120   21.3210 C   0  0  0  0  0  2  0  0  0  0  0  0
  -26.0510  -29.5530   20.6050 C   0  0  0  0  0  0  0  0  0  0  0  0
  -27.2190  -28.6970   20.5640 C   0  0  0  0  0  3  0  0  0  0  0  0
  -25.9860  -27.0980   19.2420 C   0  0  0  0  0  3  0  0  0  0  0  0
  -24.8410  -27.9080   19.3030 C   0  0  0  0  0  3  0  0  0  0  0  0
  -23.6240  -30.0000   20.1020 C   0  0  0  0  0  2  0  0  0  0  0  0
  -24.6950  -31.1820   22.0580 N   0  0  0  0  0  0  0  0  0  0  0  0
  -23.5560  -32.2130   23.7380 O   0  0  0  0  0  0  0  0  0  0  0  0
  -22.7680  -29.5600   22.4450 C   0  0  0  0  0  0  0  0  0  0  0  0
  -21.4450  -29.3550   22.3080 N   0  0  0  0  0  0  0  0  0  0  0  0
  -23.4560  -28.9360   23.2540 O   0  0  0  0  0  0  0  0  0  0  0  0
  -20.9480  -29.9050   21.6240 H   0  0  0  0  0  0  0  0  0  0  0  0
  -18.0960  -28.0540   22.7800 C   0  0  0  0  0  0  0  0  0  0  0  0
  -20.6490  -28.3780   23.0540 C   0  0  0  0  0  3  0  0  0  0  0  0
  -20.7880  -26.9640   22.4420 C   0  0  0  0  0  2  0  0  0  0  0  0
  -19.6940  -26.6400   21.4190 C   0  0  0  0  0  2  0  0  0  0  0  0
  -18.3070  -26.7320   22.0650 C   0  0  0  0  0  2  0  0  0  0  0  0
  -19.1940  -28.8350   23.2290 C   0  0  0  0  0  0  0  0  0  0  0  0
  -18.9410  -30.0740   23.8560 C   0  0  0  0  0  3  0  0  0  0  0  0
  -17.6210  -30.5310   24.0400 C   0  0  0  0  0  3  0  0  0  0  0  0
  -16.5370  -29.7480   23.6050 C   0  0  0  0  0  3  0  0  0  0  0  0
  -16.7750  -28.5130   22.9780 C   0  0  0  0  0  3  0  0  0  0  0  0
  -25.9190  -32.5790   23.8120 C   0  0  0  0  0  3  0  0  0  0  0  0
  -25.6130  -33.9750   24.1600 N   0  0  0  0  0  0  0  0  0  0  0  0
  -25.9330  -35.0370   23.4090 C   0  0  0  0  0  0  0  0  0  0  0  0
  -26.5810  -34.9460   22.3640 O   0  0  0  0  0  0  0  0  0  0  0  0
  -25.0260  -34.1210   24.9670 H   0  0  0  0  0  0  0  0  0  0  0  0
  -24.1970  -36.8390   23.1260 C   0  0  0  0  0  1  0  0  0  0  0  0
  -25.4590  -36.4200   23.8990 C   0  0  0  0  0  3  0  0  0  0  0  0
  -27.6070  -37.3030   24.6970 C   0  0  0  0  0  1  0  0  0  0  0  0
  -26.4890  -37.4740   23.7720 N   0  0  0  0  0  0  0  0  0  0  0  0
  -26.0850  -38.3950   23.9280 H   0  0  0  0  0  0  0  0  0  0  0  0
  -26.4300  -31.7910   25.0810 C   0  0  1  0  0  0  0  0  0  0  0  0
  -25.3270  -31.5490   26.1390 C   0  0  0  0  0  1  0  0  0  0  0  0
  -27.0130  -30.4150   24.6860 C   0  0  0  0  0  1  0  0  0  0  0  0
  -27.5780  -32.5770   25.7570 C   0  0  0  0  0  1  0  0  0  0  0  0
  1  3  2  0
  1  5  1  0
  2  1  1  0
  4  2  2  0
  6  2  1  0
  6  5  1  0
  7 11  1  0
  9  7  2  0
  9 12  1  0
 10  8  1  0
 11  8  2  0
 11  6  1  0
 12 21  1  0
 12 10  2  0
 13 19  1  0
 13 21  1  0
 14 19  1  0
 15 16  1  0
 15 14  1  0
 17 16  1  0
 17 26  1  0
 17 18  1  0
 19 18  1  0
 20 13  2  0
 21 22  1  0
 23 24  2  0
 24 43  1  0
 25 24  1  0
 25 28  1  0
 26 27  1  0
 26 23  1  0
 27 25  2  0
 28 29  1  0
 29 30  2  0
 31 34  1  0
 31 30  1  0
 32 31  2  0
 33 32  1  0
 33 28  2  0
 34 35  1  0
 35 40  2  0
 35 36  1  0
 36 37  2  0
 37 38  1  0
 38 42  1  0
 39 38  2  0
 40 39  1  0
 41 40  1  0
 43 44  1  0
 44 47  1  0
 44 46  1  0
 45 43  2  0
 48 49  1  0
 48 23  1  0
 50 48  1  0
 51  4  1  0
 52 63  2  0
 53 51  1  0
 53 58  1  0
 54 62  1  0
 54 64  1  0
 55 61  1  0
 55 57  1  0
 56 62  1  0
 57 56  1  0
 58 57  2  0
 59 60  1  0
 59 53  2  0
 60 55  2  0
 61 54  1  0
 62 52  1  0
 64 66  2  0
 65 64  1  0
 67 65  1  0
 68 77  2  0
 68 73  1  0
 69 65  1  0
 69 73  1  0
 70 69  1  0
 71 72  1  0
 71 70  1  0
 72 68  1  0
 73 74  2  0
 74 75  1  0
 76 75  2  0
 77 76  1  0
 78 52  1  0
 78 79  1  0
 78 88  1  0
 79 82  1  0
 80 84  1  0
 80 79  1  0
 81 80  2  0
 84 83  1  0
 86 84  1  0
 86 87  1  0
 86 85  1  0
 88 91  1  1
 88 89  1  0
 90 88  1  0
M  ISO  4   4 101  13 100  21 100  51 101
M  END
>  <TORSDO>  (12) 
F 17

>  <SCORE>  (12) 
-14.736

>  <name>  (12) 
11

>  <ligand_id>  (12) 
11

>  <original_smiles>  (12) 
[H]C([H])=C1C(=C([H])Oc2c([H])c([H])c3c(c2[H])C([H])([H])N(C(=O)C([H])(N([H])C(=O)C([H])(N([H])C([H])([H])[H])C([H])([H])[H])C(C([H])([H])[H])(C([H])([H])[H])C([H])([H])[H])C([H])(C(=O)N([H])C2([H])c4c([H])c([H])c([H])c([H])c4C([H])([H])C([H])([H])C2([H])[H])C3([H])[H])N(c2c([H])c([H])c(N([H])C(=O)N3C([H])([H])C([H])([H])C([H])([H])C([H])(n4nc(-c5c([H])c([H])c(Oc6c([H])c([H])c(F)c([H])c6F)c([H])c5[H])c(C(=O)N([H])[H])c4N([H])[H])C3([H])[H])c([H])c2[H])C1([H])[H]

>  <smiles>  (12) 
[H]C([H])=C1C(=C([H])Oc2c([H])c([H])c3c(c2[H])C([H])([H])N(C(=O)C([H])(N([H])C(=O)C([H])(N([H])C([H])([H])[H])C([H])([H])[H])C(C([H])([H])[H])(C([H])([H])[H])C([H])([H])[H])C([H])(C(=O)N([H])C2([H])c4c([H])c([H])c([H])c([H])c4C([H])([H])C([H])([H])C2([H])[H])C3([H])[H])N(c2c([H])c([H])c(N([H])C(=O)N3C([H])([H])C([H])([H])C([H])([H])C([H])(n4nc(-c5c([H])c([H])c(Oc6c([H])c([H])c(F)c([H])c6F)c([H])c5[H])c(C(=O)N([H])[H])c4N([H])[H])C3([H])[H])c([H])c2[H])C1([H])[H]

$$$$
12:0:0
     RDKit          3D

 91100  0  0  1  0  0  0  0  0999 V2000
  -28.6100  -23.8040   20.3100 C   0  0  0  0  0  0  0  0  0  0  0  0
  -28.0830  -22.5610   20.8670 C   0  0  0  0  0  0  0  0  0  0  0  0
  -28.1100  -25.0950   20.5140 C   0  0  0  0  0  3  0  0  0  0  0  0
  -29.7120  -22.9630   19.5890 C   0  0  0  0  0  2  0  0  0  0  0  0
  -29.0530  -21.7720   20.2110 N   0  0  0  0  0  0  0  0  0  0  0  0
  -27.1520  -22.3640   21.6210 O   0  0  0  0  0  0  0  0  0  0  0  0
  -28.7520  -19.3780   20.9860 C   0  0  0  0  0  3  0  0  0  0  0  0
  -30.4190  -19.6450   19.3600 C   0  0  0  0  0  3  0  0  0  0  0  0
  -29.0330  -17.9780   21.0580 C   0  0  0  0  0  3  0  0  0  0  0  0
  -30.7120  -18.2230   19.4130 C   0  0  0  0  0  3  0  0  0  0  0  0
  -29.4290  -20.3210   20.1570 C   0  0  0  0  0  0  0  0  0  0  0  0
  -30.0430  -17.3190   20.2980 C   0  0  0  0  0  0  0  0  0  0  0  0
  -30.8620  -14.8600   19.7410 C   0  0  0  0  0  0  0  0  0  0  0  0
  -30.5270  -12.6310   18.6150 C   0  0  0  0  0  2  0  0  0  0  0  0
  -29.4570  -12.7310   17.5040 C   0  0  0  0  0  2  0  0  0  0  0  0
  -28.0410  -12.5390   18.0820 C   0  0  0  0  0  2  0  0  0  0  0  0
  -27.8080  -13.3870   19.3580 C   0  0  0  0  0  3  0  0  0  0  0  0
  -28.9750  -13.2320   20.3510 C   0  0  0  0  0  2  0  0  0  0  0  0
  -30.2130  -13.6360   19.6630 N   0  0  0  0  0  0  0  0  0  0  0  0
  -31.8990  -15.0330   19.0900 O   0  0  0  0  0  0  0  0  0  0  0  0
  -30.4710  -15.5590   22.0010 C   0  0  0  0  0  1  0  0  0  0  0  0
  -30.3490  -15.8690   20.5640 N   0  0  0  0  0  0  0  0  0  0  0  0
  -25.5430  -13.9770   20.4090 C   0  0  0  0  0  0  0  0  0  0  0  0
  -24.5050  -13.2010   20.8480 C   0  0  0  0  0  0  0  0  0  0  0  0
  -24.9190  -11.8450   20.6650 C   0  0  0  0  0  0  0  0  0  0  0  0
  -26.5210  -13.0940   19.9820 N   0  0  0  0  0  0  0  0  0  0  0  0
  -26.1610  -11.8020   20.1980 N   0  0  0  0  0  0  0  0  0  0  0  0
  -24.1820  -10.5880   20.8520 C   0  0  0  0  0  0  0  0  0  0  0  0
  -24.6350   -9.5910   21.7430 C   0  0  0  0  0  3  0  0  0  0  0  0
  -23.9000   -8.4000   21.9180 C   0  0  0  0  0  3  0  0  0  0  0  0
  -22.6940   -8.1970   21.2020 C   0  0  0  0  0  0  0  0  0  0  0  0
  -22.2600   -9.1830   20.3000 C   0  0  0  0  0  3  0  0  0  0  0  0
  -22.9970  -10.3660   20.1220 C   0  0  0  0  0  3  0  0  0  0  0  0
  -21.9280   -7.0610   21.2900 O   0  0  0  0  0  0  0  0  0  0  0  0
  -21.8530   -6.3300   22.4480 C   0  0  0  0  0  0  0  0  0  0  0  0
  -21.4000   -6.8970   23.6590 C   0  0  0  0  0  3  0  0  0  0  0  0
  -21.2730   -6.0920   24.8090 C   0  0  0  0  0  3  0  0  0  0  0  0
  -21.5880   -4.7220   24.7480 C   0  0  0  0  0  0  0  0  0  0  0  0
  -22.0340   -4.1540   23.5430 C   0  0  0  0  0  3  0  0  0  0  0  0
  -22.1630   -4.9550   22.3940 C   0  0  0  0  0  0  0  0  0  0  0  0
  -22.5720   -4.3990   21.2290 F   0  0  0  0  0  0  0  0  0  0  0  0
  -21.4590   -3.9460   25.8510 F   0  0  0  0  0  0  0  0  0  0  0  0
  -23.1650  -13.6870   21.3220 C   0  0  0  0  0  0  0  0  0  0  0  0
  -22.5390  -12.9600   22.2410 N   0  0  0  0  0  0  0  0  0  0  0  0
  -22.6870  -14.7430   20.9110 O   0  0  0  0  0  0  0  0  0  0  0  0
  -22.9410  -12.1030   22.5930 H   0  0  0  0  0  0  0  0  0  0  0  0
  -21.6460  -13.2650   22.6000 H   0  0  0  0  0  0  0  0  0  0  0  0
  -25.7280  -15.3520   20.3150 N   0  0  0  0  0  0  0  0  0  0  0  0
  -25.0070  -16.0170   20.5770 H   0  0  0  0  0  0  0  0  0  0  0  0
  -26.5570  -15.7950   19.9400 H   0  0  0  0  0  0  0  0  0  0  0  0
  -28.4530  -26.4150   20.0860 O   0  0  0  0  0  0  0  0  0  0  0  0
  -24.7090  -31.9050   23.0950 C   0  0  0  0  0  0  0  0  0  0  0  0
  -27.3930  -27.3550   20.0360 C   0  0  0  0  0  0  0  0  0  0  0  0
  -23.5420  -30.5130   21.4250 C   0  0  0  0  0  3  0  0  0  0  0  0
  -25.0280  -28.9870   20.0010 C   0  0  0  0  0  0  0  0  0  0  0  0
  -26.0860  -30.8400   21.2860 C   0  0  0  0  0  2  0  0  0  0  0  0
  -26.1890  -29.4650   20.6250 C   0  0  0  0  0  0  0  0  0  0  0  0
  -27.3760  -28.6610   20.6350 C   0  0  0  0  0  3  0  0  0  0  0  0
  -26.2130  -26.9490   19.3760 C   0  0  0  0  0  3  0  0  0  0  0  0
  -25.0450  -27.7360   19.3650 C   0  0  0  0  0  3  0  0  0  0  0  0
  -23.7840  -29.8550   20.0410 C   0  0  0  0  0  2  0  0  0  0  0  0
  -24.7970  -31.1040   21.9910 N   0  0  0  0  0  0  0  0  0  0  0  0
  -23.6150  -32.1700   23.6150 O   0  0  0  0  0  0  0  0  0  0  0  0
  -22.8710  -29.4830   22.3660 C   0  0  0  0  0  0  0  0  0  0  0  0
  -21.5370  -29.3440   22.2650 N   0  0  0  0  0  0  0  0  0  0  0  0
  -23.5490  -28.8130   23.1500 O   0  0  0  0  0  0  0  0  0  0  0  0
  -21.0490  -29.9350   21.6060 H   0  0  0  0  0  0  0  0  0  0  0  0
  -18.1370  -28.2390   22.8300 C   0  0  0  0  0  0  0  0  0  0  0  0
  -20.7100  -28.4030   23.0230 C   0  0  0  0  0  3  0  0  0  0  0  0
  -20.7430  -26.9940   22.3850 C   0  0  0  0  0  2  0  0  0  0  0  0
  -19.5990  -26.7520   21.3970 C   0  0  0  0  0  2  0  0  0  0  0  0
  -18.2450  -26.9150   22.0930 C   0  0  0  0  0  2  0  0  0  0  0  0
  -19.2950  -28.9450   23.2530 C   0  0  0  0  0  0  0  0  0  0  0  0
  -19.1390  -30.1880   23.9050 C   0  0  0  0  0  3  0  0  0  0  0  0
  -17.8580  -30.7230   24.1370 C   0  0  0  0  0  3  0  0  0  0  0  0
  -16.7150  -30.0140   23.7290 C   0  0  0  0  0  3  0  0  0  0  0  0
  -16.8560  -28.7740   23.0820 C   0  0  0  0  0  3  0  0  0  0  0  0
  -25.9760  -32.5440   23.7410 C   0  0  0  0  0  3  0  0  0  0  0  0
  -25.6330  -33.9200   24.1270 N   0  0  0  0  0  0  0  0  0  0  0  0
  -25.9650  -35.0140   23.4270 C   0  0  0  0  0  0  0  0  0  0  0  0
  -26.6610  -34.9710   22.4090 O   0  0  0  0  0  0  0  0  0  0  0  0
  -25.0160  -34.0280   24.9200 H   0  0  0  0  0  0  0  0  0  0  0  0
  -24.2330  -36.8100   23.0980 C   0  0  0  0  0  1  0  0  0  0  0  0
  -25.4440  -36.3720   23.9390 C   0  0  0  0  0  3  0  0  0  0  0  0
  -27.5310  -37.2290   24.9060 C   0  0  0  0  0  1  0  0  0  0  0  0
  -26.4690  -37.4390   23.9260 N   0  0  0  0  0  0  0  0  0  0  0  0
  -26.0470  -38.3460   24.1050 H   0  0  0  0  0  0  0  0  0  0  0  0
  -26.5100  -31.7370   24.9870 C   0  0  1  0  0  0  0  0  0  0  0  0
  -25.4200  -31.4260   26.0410 C   0  0  0  0  0  1  0  0  0  0  0  0
  -27.1330  -30.3920   24.5450 C   0  0  0  0  0  1  0  0  0  0  0  0
  -27.6360  -32.5350   25.6860 C   0  0  0  0  0  1  0  0  0  0  0  0
  1  3  2  0
  1  2  1  0
  2  6  2  0
  4  5  1  0
  4  1  1  0
  5  2  1  0
  7  9  1  0
  8 10  2  0
  8 11  1  0
 10 12  1  0
 11  5  1  0
 11  7  2  0
 12 22  1  0
 12  9  2  0
 13 22  1  0
 14 19  1  0
 15 16  1  0
 15 14  1  0
 17 16  1  0
 17 26  1  0
 17 18  1  0
 19 13  1  0
 19 18  1  0
 20 13  2  0
 22 21  1  0
 23 24  2  0
 24 43  1  0
 25 24  1  0
 25 28  1  0
 26 27  1  0
 26 23  1  0
 27 25  2  0
 28 29  1  0
 29 30  2  0
 31 34  1  0
 31 30  1  0
 32 31  2  0
 33 32  1  0
 33 28  2  0
 34 35  1  0
 35 36  1  0
 36 37  2  0
 38 37  1  0
 38 42  1  0
 39 38  2  0
 40 35  2  0
 40 39  1  0
 41 40  1  0
 43 44  1  0
 44 46  1  0
 44 47  1  0
 45 43  2  0
 48 23  1  0
 48 49  1  0
 50 48  1  0
 51  3  1  0
 52 63  2  0
 53 51  1  0
 53 58  1  0
 54 62  1  0
 54 64  1  0
 55 61  1  0
 55 57  1  0
 56 62  1  0
 57 58  2  0
 57 56  1  0
 59 53  2  0
 60 59  1  0
 60 55  2  0
 61 54  1  0
 62 52  1  0
 64 66  2  0
 65 64  1  0
 67 65  1  0
 68 77  2  0
 68 73  1  0
 69 65  1  0
 69 73  1  0
 70 69  1  0
 71 72  1  0
 71 70  1  0
 72 68  1  0
 73 74  2  0
 74 75  1  0
 76 75  2  0
 77 76  1  0
 78 52  1  0
 78 79  1  0
 78 88  1  0
 79 82  1  0
 80 84  1  0
 80 79  1  0
 81 80  2  0
 84 83  1  0
 86 84  1  0
 86 87  1  0
 86 85  1  0
 88 91  1  1
 88 89  1  0
 90 88  1  0
M  ISO  4   3 101  13 100  22 100  51 101
M  END
>  <TORSDO>  (13) 
F 17

>  <SCORE>  (13) 
-13.503

>  <name>  (13) 
12

>  <ligand_id>  (13) 
12

>  <original_smiles>  (13) 
[H]C(Oc1c([H])c([H])c2c(c1[H])C([H])([H])N(C(=O)C([H])(N([H])C(=O)C([H])(N([H])C([H])([H])[H])C([H])([H])[H])C(C([H])([H])[H])(C([H])([H])[H])C([H])([H])[H])C([H])(C(=O)N([H])C1([H])c3c([H])c([H])c([H])c([H])c3C([H])([H])C([H])([H])C1([H])[H])C2([H])[H])=C1C(=O)N(c2c([H])c([H])c(N(C(=O)N3C([H])([H])C([H])([H])C([H])([H])C([H])(n4nc(-c5c([H])c([H])c(Oc6c([H])c([H])c(F)c([H])c6F)c([H])c5[H])c(C(=O)N([H])[H])c4N([H])[H])C3([H])[H])C([H])([H])[H])c([H])c2[H])C1([H])[H]

>  <smiles>  (13) 
[H]C(Oc1c([H])c([H])c2c(c1[H])C([H])([H])N(C(=O)C([H])(N([H])C(=O)C([H])(N([H])C([H])([H])[H])C([H])([H])[H])C(C([H])([H])[H])(C([H])([H])[H])C([H])([H])[H])C([H])(C(=O)N([H])C1([H])c3c([H])c([H])c([H])c([H])c3C([H])([H])C([H])([H])C1([H])[H])C2([H])[H])=C1C(=O)N(c2c([H])c([H])c(N(C(=O)N3C([H])([H])C([H])([H])C([H])([H])C([H])(n4nc(-c5c([H])c([H])c(Oc6c([H])c([H])c(F)c([H])c6F)c([H])c5[H])c(C(=O)N([H])[H])c4N([H])[H])C3([H])[H])C([H])([H])[H])c([H])c2[H])C1([H])[H]

$$$$
13:0:0
     RDKit          3D

 91100  0  0  1  0  0  0  0  0999 V2000
  -27.6600  -22.8940   18.4160 C   0  0  0  0  0  0  0  0  0  0  0  0
  -28.2650  -23.6070   19.3710 C   0  0  0  0  0  0  0  0  0  0  0  0
  -27.1720  -23.0660   17.1740 C   0  0  0  0  0  2  0  0  0  0  0  0
  -28.1690  -25.0370   19.2620 C   0  0  0  0  0  3  0  0  0  0  0  0
  -27.3570  -21.8480   19.4260 C   0  0  0  0  0  2  0  0  0  0  0  0
  -28.5780  -22.3110   20.1190 N   0  0  0  0  0  0  0  0  0  0  0  0
  -29.6620  -19.9690   19.1420 C   0  0  0  0  0  3  0  0  0  0  0  0
  -29.2110  -20.1160   21.3970 C   0  0  0  0  0  3  0  0  0  0  0  0
  -30.0080  -18.5450   19.2790 C   0  0  0  0  0  3  0  0  0  0  0  0
  -29.5560  -18.7140   21.5520 C   0  0  0  0  0  3  0  0  0  0  0  0
  -29.1840  -20.8750   20.1810 C   0  0  0  0  0  0  0  0  0  0  0  0
  -29.9520  -17.7950   20.5100 C   0  0  0  0  0  0  0  0  0  0  0  0
  -30.7730  -15.1740   20.0830 C   0  0  0  0  0  0  0  0  0  0  0  0
  -30.5980  -12.8360   19.0790 C   0  0  0  0  0  2  0  0  0  0  0  0
  -29.6020  -12.7960   17.8960 C   0  0  0  0  0  2  0  0  0  0  0  0
  -28.1630  -12.5650   18.3910 C   0  0  0  0  0  2  0  0  0  0  0  0
  -27.8140  -13.4600   19.6070 C   0  0  0  0  0  3  0  0  0  0  0  0
  -28.9230  -13.4530   20.6780 C   0  0  0  0  0  2  0  0  0  0  0  0
  -30.1710  -13.9050   20.0340 N   0  0  0  0  0  0  0  0  0  0  0  0
  -31.8670  -15.2870   19.5170 O   0  0  0  0  0  0  0  0  0  0  0  0
  -30.2590  -15.9880   22.2430 C   0  0  0  0  0  1  0  0  0  0  0  0
  -30.2030  -16.2780   20.7990 N   0  0  0  0  0  0  0  0  0  0  0  0
  -25.4850  -14.0070   20.5180 C   0  0  0  0  0  0  0  0  0  0  0  0
  -24.4380  -13.2160   20.9080 C   0  0  0  0  0  0  0  0  0  0  0  0
  -24.8890  -11.8670   20.7750 C   0  0  0  0  0  0  0  0  0  0  0  0
  -26.5050  -13.1380   20.1690 N   0  0  0  0  0  0  0  0  0  0  0  0
  -26.1600  -11.8430   20.3860 N   0  0  0  0  0  0  0  0  0  0  0  0
  -24.1650  -10.5980   20.9430 C   0  0  0  0  0  0  0  0  0  0  0  0
  -24.6000   -9.6100   21.8540 C   0  0  0  0  0  3  0  0  0  0  0  0
  -23.8710   -8.4100   22.0120 C   0  0  0  0  0  3  0  0  0  0  0  0
  -22.6960   -8.1880   21.2560 C   0  0  0  0  0  0  0  0  0  0  0  0
  -22.2820   -9.1640   20.3330 C   0  0  0  0  0  3  0  0  0  0  0  0
  -23.0110  -10.3550   20.1730 C   0  0  0  0  0  3  0  0  0  0  0  0
  -21.9400   -7.0420   21.3240 O   0  0  0  0  0  0  0  0  0  0  0  0
  -21.8330   -6.3180   22.4840 C   0  0  0  0  0  0  0  0  0  0  0  0
  -21.3350   -6.8900   23.6750 C   0  0  0  0  0  3  0  0  0  0  0  0
  -21.1760   -6.0910   24.8270 C   0  0  0  0  0  3  0  0  0  0  0  0
  -21.5030   -4.7230   24.7860 C   0  0  0  0  0  0  0  0  0  0  0  0
  -21.9930   -4.1520   23.5990 C   0  0  0  0  0  3  0  0  0  0  0  0
  -22.1550   -4.9470   22.4510 C   0  0  0  0  0  0  0  0  0  0  0  0
  -22.6080   -4.3860   21.3040 F   0  0  0  0  0  0  0  0  0  0  0  0
  -21.3420   -3.9550   25.8890 F   0  0  0  0  0  0  0  0  0  0  0  0
  -23.0650  -13.6840   21.2900 C   0  0  0  0  0  0  0  0  0  0  0  0
  -22.3970  -12.9610   22.1810 N   0  0  0  0  0  0  0  0  0  0  0  0
  -22.5960  -14.7280   20.8360 O   0  0  0  0  0  0  0  0  0  0  0  0
  -22.7910  -12.1160   22.5660 H   0  0  0  0  0  0  0  0  0  0  0  0
  -21.4790  -13.2560   22.4810 H   0  0  0  0  0  0  0  0  0  0  0  0
  -25.6490  -15.3840   20.4070 N   0  0  0  0  0  0  0  0  0  0  0  0
  -24.9000  -16.0410   20.6060 H   0  0  0  0  0  0  0  0  0  0  0  0
  -26.4980  -15.8370   20.0900 H   0  0  0  0  0  0  0  0  0  0  0  0
  -28.2990  -26.2810   20.0180 O   0  0  0  0  0  0  0  0  0  0  0  0
  -24.7230  -31.9210   23.1980 C   0  0  0  0  0  0  0  0  0  0  0  0
  -27.2680  -27.3030   19.9720 C   0  0  0  0  0  0  0  0  0  0  0  0
  -23.5000  -30.5660   21.5450 C   0  0  0  0  0  3  0  0  0  0  0  0
  -24.9300  -29.0500   20.0430 C   0  0  0  0  0  0  0  0  0  0  0  0
  -26.0500  -30.8480   21.3400 C   0  0  0  0  0  2  0  0  0  0  0  0
  -26.1200  -29.4750   20.6460 C   0  0  0  0  0  0  0  0  0  0  0  0
  -27.2870  -28.6160   20.6030 C   0  0  0  0  0  3  0  0  0  0  0  0
  -26.0390  -26.9860   19.3430 C   0  0  0  0  0  3  0  0  0  0  0  0
  -24.9040  -27.8190   19.3740 C   0  0  0  0  0  3  0  0  0  0  0  0
  -23.6980  -29.9340   20.1430 C   0  0  0  0  0  2  0  0  0  0  0  0
  -24.7790  -31.1310   22.0820 N   0  0  0  0  0  0  0  0  0  0  0  0
  -23.6460  -32.1840   23.7540 O   0  0  0  0  0  0  0  0  0  0  0  0
  -22.8460  -29.5260   22.4920 C   0  0  0  0  0  0  0  0  0  0  0  0
  -21.5220  -29.3270   22.3650 N   0  0  0  0  0  0  0  0  0  0  0  0
  -23.5340  -28.9020   23.3030 O   0  0  0  0  0  0  0  0  0  0  0  0
  -21.0210  -29.8860   21.6870 H   0  0  0  0  0  0  0  0  0  0  0  0
  -18.1790  -27.9970   22.8060 C   0  0  0  0  0  0  0  0  0  0  0  0
  -20.7210  -28.3610   23.1220 C   0  0  0  0  0  3  0  0  0  0  0  0
  -20.8890  -26.9320   22.5560 C   0  0  0  0  0  2  0  0  0  0  0  0
  -19.8210  -26.5630   21.5210 C   0  0  0  0  0  2  0  0  0  0  0  0
  -18.4220  -26.6530   22.1380 C   0  0  0  0  0  2  0  0  0  0  0  0
  -19.2580  -28.8060   23.2540 C   0  0  0  0  0  0  0  0  0  0  0  0
  -18.9760  -30.0590   23.8390 C   0  0  0  0  0  3  0  0  0  0  0  0
  -17.6480  -30.5050   23.9810 C   0  0  0  0  0  3  0  0  0  0  0  0
  -16.5840  -29.6960   23.5470 C   0  0  0  0  0  3  0  0  0  0  0  0
  -16.8510  -28.4440   22.9650 C   0  0  0  0  0  3  0  0  0  0  0  0
  -26.0090  -32.5460   23.8170 C   0  0  0  0  0  3  0  0  0  0  0  0
  -25.7000  -33.9400   24.1770 N   0  0  0  0  0  0  0  0  0  0  0  0
  -25.9830  -35.0070   23.4160 C   0  0  0  0  0  0  0  0  0  0  0  0
  -26.5980  -34.9210   22.3510 O   0  0  0  0  0  0  0  0  0  0  0  0
  -25.1390  -34.0770   25.0040 H   0  0  0  0  0  0  0  0  0  0  0  0
  -24.2150  -36.7860   23.1980 C   0  0  0  0  0  1  0  0  0  0  0  0
  -25.5110  -36.3870   23.9200 C   0  0  0  0  0  3  0  0  0  0  0  0
  -27.6810  -37.3000   24.6190 C   0  0  0  0  0  1  0  0  0  0  0  0
  -26.5210  -37.4520   23.7460 N   0  0  0  0  0  0  0  0  0  0  0  0
  -26.1110  -38.3670   23.9180 H   0  0  0  0  0  0  0  0  0  0  0  0
  -26.5390  -31.7560   25.0770 C   0  0  1  0  0  0  0  0  0  0  0  0
  -25.4580  -31.5060   26.1560 C   0  0  0  0  0  1  0  0  0  0  0  0
  -27.1140  -30.3820   24.6610 C   0  0  0  0  0  1  0  0  0  0  0  0
  -27.7000  -32.5390   25.7340 C   0  0  0  0  0  1  0  0  0  0  0  0
  1  2  1  0
  1  5  1  0
  2  6  1  0
  3  1  2  0
  4  2  2  0
  4 51  1  0
  5  6  1  0
  6 11  1  0
  7  9  2  0
  7 11  1  0
  8 10  1  0
  9 12  1  0
 11  8  2  0
 12 22  1  0
 12 10  2  0
 13 22  1  0
 14 19  1  0
 15 16  1  0
 15 14  1  0
 17 16  1  0
 17 26  1  0
 17 18  1  0
 19 13  1  0
 19 18  1  0
 20 13  2  0
 22 21  1  0
 23 24  2  0
 24 43  1  0
 25 24  1  0
 25 28  1  0
 26 27  1  0
 26 23  1  0
 27 25  2  0
 28 29  1  0
 29 30  2  0
 31 34  1  0
 31 30  1  0
 32 31  2  0
 33 32  1  0
 33 28  2  0
 34 35  1  0
 35 36  1  0
 36 37  2  0
 38 37  1  0
 38 42  1  0
 39 38  2  0
 40 35  2  0
 40 39  1  0
 41 40  1  0
 43 44  1  0
 44 47  1  0
 44 46  1  0
 45 43  2  0
 48 23  1  0
 48 49  1  0
 50 48  1  0
 52 63  2  0
 53 51  1  0
 53 58  1  0
 54 62  1  0
 54 64  1  0
 55 61  1  0
 55 57  1  0
 56 62  1  0
 57 56  1  0
 58 57  2  0
 59 60  1  0
 59 53  2  0
 60 55  2  0
 61 54  1  0
 62 52  1  0
 64 66  2  0
 65 64  1  0
 67 65  1  0
 68 77  2  0
 68 73  1  0
 69 65  1  0
 69 73  1  0
 70 69  1  0
 71 72  1  0
 71 70  1  0
 72 68  1  0
 73 74  2  0
 74 75  1  0
 76 75  2  0
 77 76  1  0
 78 52  1  0
 78 79  1  0
 78 88  1  0
 79 82  1  0
 80 84  1  0
 80 79  1  0
 81 80  2  0
 84 83  1  0
 86 87  1  0
 86 84  1  0
 86 85  1  0
 88 91  1  1
 88 89  1  0
 90 88  1  0
M  ISO  4   4 101  13 100  22 100  51 101
M  END
>  <TORSDO>  (14) 
F 17

>  <SCORE>  (14) 
-13.217

>  <name>  (14) 
13

>  <ligand_id>  (14) 
13

>  <original_smiles>  (14) 
[H]C([H])=C1C(=C([H])Oc2c([H])c([H])c3c(c2[H])C([H])([H])N(C(=O)C([H])(N([H])C(=O)C([H])(N([H])C([H])([H])[H])C([H])([H])[H])C(C([H])([H])[H])(C([H])([H])[H])C([H])([H])[H])C([H])(C(=O)N([H])C2([H])c4c([H])c([H])c([H])c([H])c4C([H])([H])C([H])([H])C2([H])[H])C3([H])[H])N(c2c([H])c([H])c(N(C(=O)N3C([H])([H])C([H])([H])C([H])([H])C([H])(n4nc(-c5c([H])c([H])c(Oc6c([H])c([H])c(F)c([H])c6F)c([H])c5[H])c(C(=O)N([H])[H])c4N([H])[H])C3([H])[H])C([H])([H])[H])c([H])c2[H])C1([H])[H]

>  <smiles>  (14) 
[H]C([H])=C1C(=C([H])Oc2c([H])c([H])c3c(c2[H])C([H])([H])N(C(=O)C([H])(N([H])C(=O)C([H])(N([H])C([H])([H])[H])C([H])([H])[H])C(C([H])([H])[H])(C([H])([H])[H])C([H])([H])[H])C([H])(C(=O)N([H])C2([H])c4c([H])c([H])c([H])c([H])c4C([H])([H])C([H])([H])C2([H])[H])C3([H])[H])N(c2c([H])c([H])c(N(C(=O)N3C([H])([H])C([H])([H])C([H])([H])C([H])(n4nc(-c5c([H])c([H])c(Oc6c([H])c([H])c(F)c([H])c6F)c([H])c5[H])c(C(=O)N([H])[H])c4N([H])[H])C3([H])[H])C([H])([H])[H])c([H])c2[H])C1([H])[H]

$$$$
14:0:0
     RDKit          3D

 92101  0  0  1  0  0  0  0  0999 V2000
  -28.5230  -23.8100   20.4520 C   0  0  0  0  0  0  0  0  0  0  0  0
  -28.0310  -22.5950   21.0920 C   0  0  0  0  0  0  0  0  0  0  0  0
  -28.0320  -25.1060   20.6200 C   0  0  0  0  0  3  0  0  0  0  0  0
  -29.5810  -22.9420   19.7040 C   0  0  0  0  0  2  0  0  0  0  0  0
  -28.9830  -21.7870   20.4400 N   0  0  0  0  0  0  0  0  0  0  0  0
  -27.1220  -22.4250   21.8780 O   0  0  0  0  0  0  0  0  0  0  0  0
  -28.5270  -19.3820   21.0880 C   0  0  0  0  0  3  0  0  0  0  0  0
  -28.7370  -17.9690   21.1070 C   0  0  0  0  0  3  0  0  0  0  0  0
  -30.6250  -18.2380   19.6960 C   0  0  0  0  0  3  0  0  0  0  0  0
  -29.3220  -20.3310   20.3770 C   0  0  0  0  0  0  0  0  0  0  0  0
  -29.7940  -17.3250   20.4130 C   0  0  0  0  0  0  0  0  0  0  0  0
  -30.3930  -19.6680   19.6800 C   0  0  0  0  0  0  0  0  0  0  0  0
  -31.2420  -20.4350   18.9530 F   0  0  0  0  0  0  0  0  0  0  0  0
  -30.6670  -14.8230   19.9960 C   0  0  0  0  0  0  0  0  0  0  0  0
  -30.4710  -12.5660   18.9260 C   0  0  0  0  0  2  0  0  0  0  0  0
  -29.4460  -12.6620   17.7710 C   0  0  0  0  0  2  0  0  0  0  0  0
  -28.0060  -12.4670   18.2880 C   0  0  0  0  0  2  0  0  0  0  0  0
  -27.7090  -13.3150   19.5530 C   0  0  0  0  0  3  0  0  0  0  0  0
  -28.8370  -13.1690   20.5990 C   0  0  0  0  0  2  0  0  0  0  0  0
  -30.0970  -13.5680   19.9500 N   0  0  0  0  0  0  0  0  0  0  0  0
  -31.7910  -15.0170   19.5220 O   0  0  0  0  0  0  0  0  0  0  0  0
  -29.8570  -15.8370   20.4770 N   0  0  0  0  0  0  0  0  0  0  0  0
  -29.0460  -15.4360   20.9230 H   0  0  0  0  0  0  0  0  0  0  0  0
  -25.3720  -13.8870   20.4490 C   0  0  0  0  0  0  0  0  0  0  0  0
  -24.3300  -13.1030   20.8620 C   0  0  0  0  0  0  0  0  0  0  0  0
  -24.7840  -11.7530   20.7510 C   0  0  0  0  0  0  0  0  0  0  0  0
  -26.3950  -13.0150   20.1150 N   0  0  0  0  0  0  0  0  0  0  0  0
  -26.0510  -11.7240   20.3570 N   0  0  0  0  0  0  0  0  0  0  0  0
  -24.0670  -10.4850   20.9430 C   0  0  0  0  0  0  0  0  0  0  0  0
  -24.5060   -9.5230   21.8790 C   0  0  0  0  0  3  0  0  0  0  0  0
  -23.7890   -8.3200   22.0580 C   0  0  0  0  0  3  0  0  0  0  0  0
  -22.6190   -8.0710   21.3010 C   0  0  0  0  0  0  0  0  0  0  0  0
  -22.1990   -9.0220   20.3550 C   0  0  0  0  0  3  0  0  0  0  0  0
  -22.9170  -10.2180   20.1740 C   0  0  0  0  0  3  0  0  0  0  0  0
  -21.8740   -6.9210   21.3900 O   0  0  0  0  0  0  0  0  0  0  0  0
  -21.7590   -6.2260   22.5680 C   0  0  0  0  0  0  0  0  0  0  0  0
  -21.2490   -6.8260   23.7390 C   0  0  0  0  0  3  0  0  0  0  0  0
  -21.0830   -6.0570   24.9080 C   0  0  0  0  0  3  0  0  0  0  0  0
  -21.4170   -4.6900   24.9070 C   0  0  0  0  0  0  0  0  0  0  0  0
  -21.9200   -4.0890   23.7390 C   0  0  0  0  0  3  0  0  0  0  0  0
  -22.0870   -4.8550   22.5720 C   0  0  0  0  0  0  0  0  0  0  0  0
  -22.5520   -4.2670   21.4430 F   0  0  0  0  0  0  0  0  0  0  0  0
  -21.2500   -3.9490   26.0270 F   0  0  0  0  0  0  0  0  0  0  0  0
  -22.9550  -13.5710   21.2420 C   0  0  0  0  0  0  0  0  0  0  0  0
  -22.2850  -12.8480   22.1320 N   0  0  0  0  0  0  0  0  0  0  0  0
  -22.4850  -14.6120   20.7840 O   0  0  0  0  0  0  0  0  0  0  0  0
  -22.6790  -12.0060   22.5220 H   0  0  0  0  0  0  0  0  0  0  0  0
  -21.3650  -13.1430   22.4290 H   0  0  0  0  0  0  0  0  0  0  0  0
  -25.5290  -15.2640   20.3100 N   0  0  0  0  0  0  0  0  0  0  0  0
  -24.7680  -15.9110   20.4830 H   0  0  0  0  0  0  0  0  0  0  0  0
  -26.3420  -15.7110   19.9040 H   0  0  0  0  0  0  0  0  0  0  0  0
  -28.3480  -26.3960   20.1000 O   0  0  0  0  0  0  0  0  0  0  0  0
  -24.6840  -31.8830   23.1820 C   0  0  0  0  0  0  0  0  0  0  0  0
  -27.2880  -27.3320   20.0660 C   0  0  0  0  0  0  0  0  0  0  0  0
  -23.4770  -30.4970   21.5360 C   0  0  0  0  0  3  0  0  0  0  0  0
  -24.9260  -28.9650   20.0810 C   0  0  0  0  0  0  0  0  0  0  0  0
  -26.0170  -30.8160   21.3440 C   0  0  0  0  0  2  0  0  0  0  0  0
  -26.1010  -29.4420   20.6800 C   0  0  0  0  0  0  0  0  0  0  0  0
  -27.2860  -28.6360   20.6660 C   0  0  0  0  0  3  0  0  0  0  0  0
  -26.0950  -26.9270   19.4310 C   0  0  0  0  0  3  0  0  0  0  0  0
  -24.9270  -27.7150   19.4440 C   0  0  0  0  0  3  0  0  0  0  0  0
  -23.6860  -29.8370   20.1490 C   0  0  0  0  0  2  0  0  0  0  0  0
  -24.7460  -31.0830   22.0770 N   0  0  0  0  0  0  0  0  0  0  0  0
  -23.6030  -32.1510   23.7260 O   0  0  0  0  0  0  0  0  0  0  0  0
  -22.8210  -29.4700   22.4910 C   0  0  0  0  0  0  0  0  0  0  0  0
  -21.4930  -29.2910   22.3730 N   0  0  0  0  0  0  0  0  0  0  0  0
  -23.5060  -28.8370   23.3000 O   0  0  0  0  0  0  0  0  0  0  0  0
  -20.9990  -29.8530   21.6950 H   0  0  0  0  0  0  0  0  0  0  0  0
  -18.1220  -28.0820   22.8930 C   0  0  0  0  0  0  0  0  0  0  0  0
  -20.6830  -28.3420   23.1400 C   0  0  0  0  0  3  0  0  0  0  0  0
  -20.7810  -26.9180   22.5480 C   0  0  0  0  0  2  0  0  0  0  0  0
  -19.6700  -26.6060   21.5400 C   0  0  0  0  0  2  0  0  0  0  0  0
  -18.2940  -26.7410   22.2000 C   0  0  0  0  0  2  0  0  0  0  0  0
  -19.2440  -28.8410   23.3210 C   0  0  0  0  0  0  0  0  0  0  0  0
  -19.0290  -30.0950   23.9320 C   0  0  0  0  0  3  0  0  0  0  0  0
  -17.7250  -30.5920   24.1170 C   0  0  0  0  0  3  0  0  0  0  0  0
  -16.6180  -29.8310   23.7050 C   0  0  0  0  0  3  0  0  0  0  0  0
  -16.8170  -28.5770   23.0980 C   0  0  0  0  0  3  0  0  0  0  0  0
  -25.9670  -32.5160   23.8030 C   0  0  0  0  0  3  0  0  0  0  0  0
  -25.6530  -33.9070   24.1560 N   0  0  0  0  0  0  0  0  0  0  0  0
  -25.9720  -34.9740   23.4110 C   0  0  0  0  0  0  0  0  0  0  0  0
  -26.6330  -34.8880   22.3720 O   0  0  0  0  0  0  0  0  0  0  0  0
  -25.0640  -34.0460   24.9640 H   0  0  0  0  0  0  0  0  0  0  0  0
  -24.2350  -36.7670   23.0980 C   0  0  0  0  0  1  0  0  0  0  0  0
  -25.4840  -36.3530   23.8940 C   0  0  0  0  0  3  0  0  0  0  0  0
  -27.6190  -37.2350   24.7260 C   0  0  0  0  0  1  0  0  0  0  0  0
  -26.5110  -37.4120   23.7890 N   0  0  0  0  0  0  0  0  0  0  0  0
  -26.1030  -38.3290   23.9500 H   0  0  0  0  0  0  0  0  0  0  0  0
  -26.4980  -31.7300   25.0650 C   0  0  1  0  0  0  0  0  0  0  0  0
  -25.4140  -31.4740   26.1390 C   0  0  0  0  0  1  0  0  0  0  0  0
  -27.0850  -30.3600   24.6540 C   0  0  0  0  0  1  0  0  0  0  0  0
  -27.6490  -32.5220   25.7290 C   0  0  0  0  0  1  0  0  0  0  0  0
  1  3  2  0
  1  2  1  0
  2  6  2  0
  4  5  1  0
  4  1  1  0
  5  2  1  0
  7  8  1  0
  9 11  1  0
 10  5  1  0
 10  7  2  0
 11 22  1  0
 11  8  2  0
 12  9  2  0
 12 10  1  0
 13 12  1  0
 14 22  1  0
 15 20  1  0
 16 17  1  0
 16 15  1  0
 18 17  1  0
 18 27  1  0
 18 19  1  0
 20 14  1  0
 20 19  1  0
 21 14  2  0
 22 23  1  0
 24 25  2  0
 25 44  1  0
 26 25  1  0
 26 29  1  0
 27 28  1  0
 27 24  1  0
 28 26  2  0
 29 30  1  0
 30 31  2  0
 32 35  1  0
 32 31  1  0
 33 32  2  0
 34 33  1  0
 34 29  2  0
 35 36  1  0
 36 41  2  0
 36 37  1  0
 37 38  2  0
 39 38  1  0
 39 43  1  0
 40 39  2  0
 41 40  1  0
 42 41  1  0
 44 45  1  0
 45 48  1  0
 45 47  1  0
 46 44  2  0
 49 24  1  0
 49 50  1  0
 51 49  1  0
 52  3  1  0
 53 64  2  0
 54 52  1  0
 54 59  1  0
 55 63  1  0
 55 65  1  0
 56 62  1  0
 56 58  1  0
 57 63  1  0
 58 57  1  0
 59 58  2  0
 60 61  1  0
 60 54  2  0
 61 56  2  0
 62 55  1  0
 63 53  1  0
 65 67  2  0
 66 65  1  0
 68 66  1  0
 69 78  2  0
 69 74  1  0
 70 66  1  0
 70 74  1  0
 71 70  1  0
 72 73  1  0
 72 71  1  0
 73 69  1  0
 74 75  2  0
 75 76  1  0
 77 76  2  0
 78 77  1  0
 79 53  1  0
 79 80  1  0
 79 89  1  0
 80 83  1  0
 81 85  1  0
 81 80  1  0
 82 81  2  0
 85 84  1  0
 87 85  1  0
 87 88  1  0
 87 86  1  0
 89 92  1  1
 89 90  1  0
 91 89  1  0
M  ISO  4   3 101  14 100  22 100  52 101
M  END
>  <TORSDO>  (15) 
F 17

>  <SCORE>  (15) 
-14.033

>  <name>  (15) 
14

>  <ligand_id>  (15) 
14

>  <original_smiles>  (15) 
[H]C(Oc1c([H])c([H])c2c(c1[H])C([H])([H])N(C(=O)C([H])(N([H])C(=O)C([H])(N([H])C([H])([H])[H])C([H])([H])[H])C(C([H])([H])[H])(C([H])([H])[H])C([H])([H])[H])C([H])(C(=O)N([H])C1([H])c3c([H])c([H])c([H])c([H])c3C([H])([H])C([H])([H])C1([H])[H])C2([H])[H])=C1C(=O)N(c2c([H])c([H])c(N([H])C(=O)N3C([H])([H])C([H])([H])C([H])([H])C([H])(n4nc(-c5c([H])c([H])c(Oc6c([H])c([H])c(F)c([H])c6F)c([H])c5[H])c(C(=O)N([H])[H])c4N([H])[H])C3([H])[H])c([H])c2F)C1([H])[H]

>  <smiles>  (15) 
[H]C(Oc1c([H])c([H])c2c(c1[H])C([H])([H])N(C(=O)C([H])(N([H])C(=O)C([H])(N([H])C([H])([H])[H])C([H])([H])[H])C(C([H])([H])[H])(C([H])([H])[H])C([H])([H])[H])C([H])(C(=O)N([H])C1([H])c3c([H])c([H])c([H])c([H])c3C([H])([H])C([H])([H])C1([H])[H])C2([H])[H])=C1C(=O)N(c2c([H])c([H])c(N([H])C(=O)N3C([H])([H])C([H])([H])C([H])([H])C([H])(n4nc(-c5c([H])c([H])c(Oc6c([H])c([H])c(F)c([H])c6F)c([H])c5[H])c(C(=O)N([H])[H])c4N([H])[H])C3([H])[H])c([H])c2F)C1([H])[H]

$$$$
15:0:0
     RDKit          3D

 93102  0  0  1  0  0  0  0  0999 V2000
  -28.8930  -23.8030   17.4940 C   0  0  0  0  0  3  0  0  0  0  0  0
  -29.5140  -22.7220   17.0300 C   0  0  0  0  0  3  0  0  0  0  0  0
  -28.8010  -24.1040   18.9190 C   0  0  0  0  0  0  0  0  0  0  0  0
  -29.0020  -22.9080   19.8600 C   0  0  0  0  0  0  0  0  0  0  0  0
  -28.4700  -25.4550   19.1100 C   0  0  0  0  0  3  0  0  0  0  0  0
  -30.1640  -21.7560   17.9710 C   0  0  0  0  0  2  0  0  0  0  0  0
  -29.5320  -21.7100   19.3070 N   0  0  0  0  0  0  0  0  0  0  0  0
  -28.6980  -22.9560   21.0550 O   0  0  0  0  0  0  0  0  0  0  0  0
  -28.5470  -19.5600   20.3820 C   0  0  0  0  0  3  0  0  0  0  0  0
  -30.8280  -19.5330   19.6860 C   0  0  0  0  0  3  0  0  0  0  0  0
  -28.6300  -18.1390   20.6080 C   0  0  0  0  0  3  0  0  0  0  0  0
  -30.9090  -18.1160   19.9100 C   0  0  0  0  0  3  0  0  0  0  0  0
  -29.6390  -20.3190   19.8690 C   0  0  0  0  0  0  0  0  0  0  0  0
  -29.7960  -17.3480   20.3500 C   0  0  0  0  0  0  0  0  0  0  0  0
  -30.5730  -14.8030   20.1670 C   0  0  0  0  0  0  0  0  0  0  0  0
  -30.3840  -12.5320   19.1270 C   0  0  0  0  0  2  0  0  0  0  0  0
  -29.3960  -12.6210   17.9400 C   0  0  0  0  0  2  0  0  0  0  0  0
  -27.9420  -12.4350   18.4180 C   0  0  0  0  0  2  0  0  0  0  0  0
  -27.6110  -13.2970   19.6650 C   0  0  0  0  0  3  0  0  0  0  0  0
  -28.7090  -13.1740   20.7440 C   0  0  0  0  0  2  0  0  0  0  0  0
  -29.9860  -13.5560   20.1210 N   0  0  0  0  0  0  0  0  0  0  0  0
  -31.7300  -14.9530   19.7610 O   0  0  0  0  0  0  0  0  0  0  0  0
  -29.7570  -15.8670   20.5280 N   0  0  0  0  0  0  0  0  0  0  0  0
  -28.8750  -15.5330   20.8850 H   0  0  0  0  0  0  0  0  0  0  0  0
  -25.2510  -13.8770   20.4880 C   0  0  0  0  0  0  0  0  0  0  0  0
  -24.1980  -13.0970   20.8820 C   0  0  0  0  0  0  0  0  0  0  0  0
  -24.6570  -11.7460   20.8050 C   0  0  0  0  0  0  0  0  0  0  0  0
  -26.2830  -13.0020   20.1950 N   0  0  0  0  0  0  0  0  0  0  0  0
  -25.9350  -11.7130   20.4480 N   0  0  0  0  0  0  0  0  0  0  0  0
  -23.9350  -10.4820   20.9960 C   0  0  0  0  0  0  0  0  0  0  0  0
  -24.3730   -9.5140   21.9270 C   0  0  0  0  0  3  0  0  0  0  0  0
  -23.6520   -8.3150   22.1050 C   0  0  0  0  0  3  0  0  0  0  0  0
  -22.4780   -8.0720   21.3510 C   0  0  0  0  0  0  0  0  0  0  0  0
  -22.0590   -9.0290   20.4100 C   0  0  0  0  0  3  0  0  0  0  0  0
  -22.7810  -10.2200   20.2300 C   0  0  0  0  0  3  0  0  0  0  0  0
  -21.7280   -6.9250   21.4400 O   0  0  0  0  0  0  0  0  0  0  0  0
  -21.6510   -6.2020   22.6030 C   0  0  0  0  0  0  0  0  0  0  0  0
  -21.1300   -6.7560   23.7920 C   0  0  0  0  0  3  0  0  0  0  0  0
  -21.0060   -5.9570   24.9470 C   0  0  0  0  0  3  0  0  0  0  0  0
  -21.3930   -4.6040   24.9120 C   0  0  0  0  0  0  0  0  0  0  0  0
  -21.9060   -4.0480   23.7270 C   0  0  0  0  0  3  0  0  0  0  0  0
  -22.0320   -4.8440   22.5750 C   0  0  0  0  0  0  0  0  0  0  0  0
  -22.5080   -4.2990   21.4300 F   0  0  0  0  0  0  0  0  0  0  0  0
  -21.2660   -3.8340   26.0180 F   0  0  0  0  0  0  0  0  0  0  0  0
  -22.8120  -13.5710   21.2140 C   0  0  0  0  0  0  0  0  0  0  0  0
  -22.1140  -12.8570   22.0910 N   0  0  0  0  0  0  0  0  0  0  0  0
  -22.3580  -14.6060   20.7310 O   0  0  0  0  0  0  0  0  0  0  0  0
  -22.4950  -12.0190   22.5040 H   0  0  0  0  0  0  0  0  0  0  0  0
  -21.1860  -13.1550   22.3550 H   0  0  0  0  0  0  0  0  0  0  0  0
  -25.4100  -15.2520   20.3310 N   0  0  0  0  0  0  0  0  0  0  0  0
  -24.6390  -15.8970   20.4700 H   0  0  0  0  0  0  0  0  0  0  0  0
  -26.2260  -15.6920   19.9260 H   0  0  0  0  0  0  0  0  0  0  0  0
  -28.2640  -26.3640   20.1720 O   0  0  0  0  0  0  0  0  0  0  0  0
  -24.5850  -31.8680   23.1920 C   0  0  0  0  0  0  0  0  0  0  0  0
  -27.1990  -27.2980   20.0910 C   0  0  0  0  0  0  0  0  0  0  0  0
  -23.3860  -30.4860   21.5370 C   0  0  0  0  0  3  0  0  0  0  0  0
  -24.8410  -28.9480   20.0940 C   0  0  0  0  0  0  0  0  0  0  0  0
  -25.9310  -30.7920   21.3660 C   0  0  0  0  0  2  0  0  0  0  0  0
  -26.0120  -29.4170   20.7020 C   0  0  0  0  0  0  0  0  0  0  0  0
  -27.1920  -28.6020   20.6960 C   0  0  0  0  0  3  0  0  0  0  0  0
  -25.9960  -26.8940   19.4670 C   0  0  0  0  0  3  0  0  0  0  0  0
  -24.8370  -27.6940   19.4670 C   0  0  0  0  0  3  0  0  0  0  0  0
  -23.6050  -29.8270   20.1500 C   0  0  0  0  0  2  0  0  0  0  0  0
  -24.6530  -31.0670   22.0880 N   0  0  0  0  0  0  0  0  0  0  0  0
  -23.4990  -32.1420   23.7250 O   0  0  0  0  0  0  0  0  0  0  0  0
  -22.7180  -29.4620   22.4860 C   0  0  0  0  0  0  0  0  0  0  0  0
  -21.3900  -29.2950   22.3630 N   0  0  0  0  0  0  0  0  0  0  0  0
  -23.3950  -28.8220   23.2950 O   0  0  0  0  0  0  0  0  0  0  0  0
  -20.9020  -29.8630   21.6850 H   0  0  0  0  0  0  0  0  0  0  0  0
  -18.0020  -28.1320   22.8900 C   0  0  0  0  0  0  0  0  0  0  0  0
  -20.5680  -28.3530   23.1270 C   0  0  0  0  0  3  0  0  0  0  0  0
  -20.6410  -26.9320   22.5200 C   0  0  0  0  0  2  0  0  0  0  0  0
  -19.5210  -26.6470   21.5150 C   0  0  0  0  0  2  0  0  0  0  0  0
  -18.1500  -26.7970   22.1830 C   0  0  0  0  0  2  0  0  0  0  0  0
  -19.1380  -28.8710   23.3200 C   0  0  0  0  0  0  0  0  0  0  0  0
  -18.9440  -30.1230   23.9430 C   0  0  0  0  0  3  0  0  0  0  0  0
  -17.6490  -30.6360   24.1400 C   0  0  0  0  0  3  0  0  0  0  0  0
  -16.5280  -29.8960   23.7260 C   0  0  0  0  0  3  0  0  0  0  0  0
  -16.7060  -28.6460   23.1070 C   0  0  0  0  0  3  0  0  0  0  0  0
  -25.8650  -32.4970   23.8230 C   0  0  0  0  0  3  0  0  0  0  0  0
  -25.5520  -33.8920   24.1670 N   0  0  0  0  0  0  0  0  0  0  0  0
  -25.8710  -34.9540   23.4140 C   0  0  0  0  0  0  0  0  0  0  0  0
  -26.5270  -34.8620   22.3730 O   0  0  0  0  0  0  0  0  0  0  0  0
  -24.9670  -34.0360   24.9760 H   0  0  0  0  0  0  0  0  0  0  0  0
  -24.1350  -36.7470   23.0960 C   0  0  0  0  0  1  0  0  0  0  0  0
  -25.3850  -36.3370   23.8900 C   0  0  0  0  0  3  0  0  0  0  0  0
  -27.5180  -37.2260   24.7200 C   0  0  0  0  0  1  0  0  0  0  0  0
  -26.4140  -37.3930   23.7790 N   0  0  0  0  0  0  0  0  0  0  0  0
  -26.0050  -38.3120   23.9290 H   0  0  0  0  0  0  0  0  0  0  0  0
  -26.3790  -31.7150   25.0940 C   0  0  1  0  0  0  0  0  0  0  0  0
  -25.2820  -31.4660   26.1560 C   0  0  0  0  0  1  0  0  0  0  0  0
  -26.9660  -30.3420   24.6940 C   0  0  0  0  0  1  0  0  0  0  0  0
  -27.5240  -32.5060   25.7670 C   0  0  0  0  0  1  0  0  0  0  0  0
  1  3  1  0
  2  1  2  0
  2  6  1  0
  3  5  2  0
  3  4  1  0
  4  8  2  0
  5 53  1  0
  6  7  1  0
  7  4  1  0
  7 13  1  0
  9 11  1  0
 10 13  1  0
 10 12  2  0
 12 14  1  0
 13  9  2  0
 14 23  1  0
 14 11  2  0
 15 23  1  0
 16 21  1  0
 17 18  1  0
 17 16  1  0
 19 18  1  0
 19 28  1  0
 19 20  1  0
 21 15  1  0
 21 20  1  0
 22 15  2  0
 23 24  1  0
 25 26  2  0
 26 45  1  0
 27 26  1  0
 27 30  1  0
 28 29  1  0
 28 25  1  0
 29 27  2  0
 30 31  1  0
 31 32  2  0
 33 36  1  0
 33 32  1  0
 34 33  2  0
 35 34  1  0
 35 30  2  0
 36 37  1  0
 37 38  1  0
 38 39  2  0
 40 39  1  0
 40 44  1  0
 41 40  2  0
 42 37  2  0
 42 41  1  0
 43 42  1  0
 45 46  1  0
 46 49  1  0
 46 48  1  0
 47 45  2  0
 50 51  1  0
 50 25  1  0
 52 50  1  0
 54 65  2  0
 55 53  1  0
 55 60  1  0
 56 64  1  0
 56 66  1  0
 57 63  1  0
 57 59  1  0
 58 64  1  0
 59 58  1  0
 60 59  2  0
 61 55  2  0
 62 61  1  0
 62 57  2  0
 63 56  1  0
 64 54  1  0
 66 68  2  0
 67 66  1  0
 69 67  1  0
 70 79  2  0
 70 75  1  0
 71 67  1  0
 71 75  1  0
 72 71  1  0
 73 74  1  0
 73 72  1  0
 74 70  1  0
 75 76  2  0
 76 77  1  0
 78 77  2  0
 79 78  1  0
 80 54  1  0
 80 81  1  0
 80 90  1  0
 81 84  1  0
 82 86  1  0
 82 81  1  0
 83 82  2  0
 86 85  1  0
 88 86  1  0
 88 89  1  0
 88 87  1  0
 90 93  1  1
 90 91  1  0
 92 90  1  0
M  ISO  4   5 101  15 100  23 100  53 101
M  END
>  <TORSDO>  (16) 
F 17

>  <SCORE>  (16) 
-15.260

>  <name>  (16) 
15

>  <ligand_id>  (16) 
15

>  <original_smiles>  (16) 
[H]C(Oc1c([H])c([H])c2c(c1[H])C([H])([H])N(C(=O)C([H])(N([H])C(=O)C([H])(N([H])C([H])([H])[H])C([H])([H])[H])C(C([H])([H])[H])(C([H])([H])[H])C([H])([H])[H])C([H])(C(=O)N([H])C1([H])c3c([H])c([H])c([H])c([H])c3C([H])([H])C([H])([H])C1([H])[H])C2([H])[H])=C1C(=O)N(c2c([H])c([H])c(N([H])C(=O)N3C([H])([H])C([H])([H])C([H])([H])C([H])(n4nc(-c5c([H])c([H])c(Oc6c([H])c([H])c(F)c([H])c6F)c([H])c5[H])c(C(=O)N([H])[H])c4N([H])[H])C3([H])[H])c([H])c2[H])C([H])([H])C([H])=C1[H]

>  <smiles>  (16) 
[H]C(Oc1c([H])c([H])c2c(c1[H])C([H])([H])N(C(=O)C([H])(N([H])C(=O)C([H])(N([H])C([H])([H])[H])C([H])([H])[H])C(C([H])([H])[H])(C([H])([H])[H])C([H])([H])[H])C([H])(C(=O)N([H])C1([H])c3c([H])c([H])c([H])c([H])c3C([H])([H])C([H])([H])C1([H])[H])C2([H])[H])=C1C(=O)N(c2c([H])c([H])c(N([H])C(=O)N3C([H])([H])C([H])([H])C([H])([H])C([H])(n4nc(-c5c([H])c([H])c(Oc6c([H])c([H])c(F)c([H])c6F)c([H])c5[H])c(C(=O)N([H])[H])c4N([H])[H])C3([H])[H])c([H])c2[H])C([H])([H])C([H])=C1[H]

$$$$
16:0:0
     RDKit          3D

 97106  0  0  1  0  0  0  0  0999 V2000
  -27.1330  -24.2230   21.0420 C   0  0  0  0  0  3  0  0  0  0  0  0
  -27.6070  -21.9950   21.7560 C   0  0  0  0  0  3  0  0  0  0  0  0
  -28.2210  -24.2590   20.2410 C   0  0  0  0  0  0  0  0  0  0  0  0
  -26.7940  -23.0570   21.8180 C   0  0  0  0  0  0  0  0  0  0  0  0
  -29.1370  -23.0610   20.2050 C   0  0  0  0  0  0  0  0  0  0  0  0
  -28.7920  -21.9710   20.9910 N   0  0  0  0  0  0  0  0  0  0  0  0
  -30.1550  -23.0330   19.5030 O   0  0  0  0  0  0  0  0  0  0  0  0
  -30.9330  -19.7510   23.1370 C   0  0  0  0  0  3  0  0  0  0  0  0
  -31.1540  -18.6190   22.3340 C   0  0  0  0  0  3  0  0  0  0  0  0
  -30.2010  -20.8430   22.6400 C   0  0  0  0  0  3  0  0  0  0  0  0
  -29.9270  -19.6960   20.5090 C   0  0  0  0  0  3  0  0  0  0  0  0
  -30.6680  -18.5660   21.0100 C   0  0  0  0  0  0  0  0  0  0  0  0
  -29.6630  -20.8460   21.3300 C   0  0  0  0  0  0  0  0  0  0  0  0
  -31.5050  -14.9840   20.1910 C   0  0  0  0  0  0  0  0  0  0  0  0
  -31.1520  -12.7360   19.2330 C   0  0  0  0  0  2  0  0  0  0  0  0
  -30.2350  -12.8980   18.0020 C   0  0  0  0  0  2  0  0  0  0  0  0
  -28.7540  -12.8270   18.4220 C   0  0  0  0  0  2  0  0  0  0  0  0
  -28.4320  -13.7340   19.6390 C   0  0  0  0  0  3  0  0  0  0  0  0
  -29.4770  -13.5730   20.7690 C   0  0  0  0  0  2  0  0  0  0  0  0
  -30.8080  -13.8050   20.1940 N   0  0  0  0  0  0  0  0  0  0  0  0
  -32.6530  -15.0280   19.7410 O   0  0  0  0  0  0  0  0  0  0  0  0
  -31.0870  -17.3870   20.1380 C   0  0  0  0  0  0  0  0  0  0  0  0
  -30.8400  -16.1140   20.5720 N   0  0  0  0  0  0  0  0  0  0  0  0
  -31.6320  -17.6430   19.0570 O   0  0  0  0  0  0  0  0  0  0  0  0
  -30.0900  -16.0030   21.2330 H   0  0  0  0  0  0  0  0  0  0  0  0
  -26.0810  -14.4490   20.3900 C   0  0  0  0  0  0  0  0  0  0  0  0
  -24.9720  -13.7280   20.7420 C   0  0  0  0  0  0  0  0  0  0  0  0
  -25.3530  -12.3530   20.6640 C   0  0  0  0  0  0  0  0  0  0  0  0
  -27.0710  -13.5170   20.1220 N   0  0  0  0  0  0  0  0  0  0  0  0
  -26.6380  -12.2490   20.3450 N   0  0  0  0  0  0  0  0  0  0  0  0
  -24.5540  -11.1310   20.8180 C   0  0  0  0  0  0  0  0  0  0  0  0
  -24.8990  -10.1360   21.7610 C   0  0  0  0  0  3  0  0  0  0  0  0
  -24.1040   -8.9790   21.9050 C   0  0  0  0  0  3  0  0  0  0  0  0
  -22.9510   -8.8070   21.1040 C   0  0  0  0  0  0  0  0  0  0  0  0
  -22.6240   -9.7880   20.1510 C   0  0  0  0  0  3  0  0  0  0  0  0
  -23.4190  -10.9380   20.0060 C   0  0  0  0  0  3  0  0  0  0  0  0
  -22.1330   -7.7030   21.1560 O   0  0  0  0  0  0  0  0  0  0  0  0
  -21.9360   -7.0080   22.3220 C   0  0  0  0  0  0  0  0  0  0  0  0
  -21.4450   -7.6350   23.4880 C   0  0  0  0  0  3  0  0  0  0  0  0
  -21.1900   -6.8700   24.6440 C   0  0  0  0  0  3  0  0  0  0  0  0
  -21.4160   -5.4810   24.6330 C   0  0  0  0  0  0  0  0  0  0  0  0
  -21.8990   -4.8530   23.4710 C   0  0  0  0  0  3  0  0  0  0  0  0
  -22.1550   -5.6160   22.3180 C   0  0  0  0  0  0  0  0  0  0  0  0
  -22.6000   -5.0050   21.1940 F   0  0  0  0  0  0  0  0  0  0  0  0
  -21.1630   -4.7440   25.7410 F   0  0  0  0  0  0  0  0  0  0  0  0
  -23.6070  -14.2780   21.0410 C   0  0  0  0  0  0  0  0  0  0  0  0
  -22.8540  -13.6080   21.9060 N   0  0  0  0  0  0  0  0  0  0  0  0
  -23.2220  -15.3350   20.5450 O   0  0  0  0  0  0  0  0  0  0  0  0
  -23.1800  -12.7510   22.3280 H   0  0  0  0  0  0  0  0  0  0  0  0
  -21.9380  -13.9580   22.1510 H   0  0  0  0  0  0  0  0  0  0  0  0
  -26.3270  -15.8120   20.2550 N   0  0  0  0  0  0  0  0  0  0  0  0
  -25.6010  -16.5080   20.3880 H   0  0  0  0  0  0  0  0  0  0  0  0
  -27.1970  -16.2080   19.9220 H   0  0  0  0  0  0  0  0  0  0  0  0
  -25.6920  -23.0260   22.5740 O   0  0  0  0  0  0  0  0  0  0  0  0
  -25.2530  -23.8630   22.4860 H   0  0  0  0  0  0  0  0  0  0  0  0
  -28.4730  -25.4980   19.3290 C   0  0  0  0  0  2  0  0  0  0  0  0
  -28.3550  -26.8360   19.9210 O   0  0  0  0  0  0  0  0  0  0  0  0
  -24.5630  -31.9510   23.1660 C   0  0  0  0  0  0  0  0  0  0  0  0
  -27.1850  -27.5940   19.8810 C   0  0  0  0  0  0  0  0  0  0  0  0
  -23.3440  -30.5960   21.4950 C   0  0  0  0  0  3  0  0  0  0  0  0
  -24.7860  -29.1270   19.9790 C   0  0  0  0  0  0  0  0  0  0  0  0
  -25.8670  -30.9720   21.2710 C   0  0  0  0  0  2  0  0  0  0  0  0
  -25.9520  -29.6240   20.5730 C   0  0  0  0  0  0  0  0  0  0  0  0
  -27.1490  -28.8640   20.5220 C   0  0  0  0  0  3  0  0  0  0  0  0
  -26.0010  -27.1380   19.2600 C   0  0  0  0  0  3  0  0  0  0  0  0
  -24.8090  -27.8870   19.3190 C   0  0  0  0  0  3  0  0  0  0  0  0
  -23.5360  -29.9730   20.0860 C   0  0  0  0  0  2  0  0  0  0  0  0
  -24.6110  -31.1880   22.0350 N   0  0  0  0  0  0  0  0  0  0  0  0
  -23.4890  -32.1920   23.7340 O   0  0  0  0  0  0  0  0  0  0  0  0
  -22.7190  -29.5350   22.4290 C   0  0  0  0  0  0  0  0  0  0  0  0
  -21.3980  -29.3230   22.3020 N   0  0  0  0  0  0  0  0  0  0  0  0
  -23.4190  -28.9050   23.2260 O   0  0  0  0  0  0  0  0  0  0  0  0
  -20.8910  -29.8860   21.6330 H   0  0  0  0  0  0  0  0  0  0  0  0
  -18.0680  -27.9810   22.7240 C   0  0  0  0  0  0  0  0  0  0  0  0
  -20.6080  -28.3440   23.0480 C   0  0  0  0  0  3  0  0  0  0  0  0
  -20.7810  -26.9240   22.4600 C   0  0  0  0  0  2  0  0  0  0  0  0
  -19.7130  -26.5660   21.4210 C   0  0  0  0  0  2  0  0  0  0  0  0
  -18.3150  -26.6460   22.0400 C   0  0  0  0  0  2  0  0  0  0  0  0
  -19.1450  -28.7840   23.1840 C   0  0  0  0  0  0  0  0  0  0  0  0
  -18.8620  -30.0320   23.7820 C   0  0  0  0  0  3  0  0  0  0  0  0
  -17.5350  -30.4750   23.9290 C   0  0  0  0  0  3  0  0  0  0  0  0
  -16.4730  -29.6680   23.4870 C   0  0  0  0  0  3  0  0  0  0  0  0
  -16.7390  -28.4230   22.8910 C   0  0  0  0  0  3  0  0  0  0  0  0
  -25.8510  -32.5750   23.7850 C   0  0  0  0  0  3  0  0  0  0  0  0
  -26.3740  -31.7940   25.0530 C   0  0  1  0  0  0  0  0  0  0  0  0
  -25.2840  -31.5450   26.1210 C   0  0  0  0  0  1  0  0  0  0  0  0
  -26.9590  -30.4220   24.6470 C   0  0  0  0  0  1  0  0  0  0  0  0
  -27.5230  -32.5870   25.7200 C   0  0  0  0  0  1  0  0  0  0  0  0
  -25.5480  -33.9720   24.1260 N   0  0  0  0  0  0  0  0  0  0  0  0
  -25.8950  -35.0290   23.3810 C   0  0  0  0  0  0  0  0  0  0  0  0
  -26.5760  -34.9330   22.3560 O   0  0  0  0  0  0  0  0  0  0  0  0
  -24.9470  -34.1220   24.9220 H   0  0  0  0  0  0  0  0  0  0  0  0
  -24.1810  -36.8350   23.0290 C   0  0  0  0  0  1  0  0  0  0  0  0
  -25.4120  -36.4170   23.8470 C   0  0  0  0  0  3  0  0  0  0  0  0
  -27.5470  -37.2790   24.7030 C   0  0  0  0  0  1  0  0  0  0  0  0
  -26.4530  -37.4650   23.7540 N   0  0  0  0  0  0  0  0  0  0  0  0
  -26.0510  -38.3860   23.9100 H   0  0  0  0  0  0  0  0  0  0  0  0
  1  4  1  0
  2  4  2  0
  3  1  2  0
  4 54  1  0
  5  3  1  0
  5  6  1  0
  6 13  1  0
  6  2  1  0
  7  5  2  0
  9  8  2  0
 10  8  1  0
 11 12  2  0
 11 13  1  0
 12  9  1  0
 13 10  2  0
 14 20  1  0
 14 23  1  0
 15 20  1  0
 16 17  1  0
 16 15  1  0
 18 17  1  0
 18 29  1  0
 18 19  1  0
 20 19  1  0
 21 14  2  0
 22 23  1  0
 22 12  1  0
 23 25  1  0
 24 22  2  0
 26 27  2  0
 27 46  1  0
 28 27  1  0
 28 31  1  0
 29 30  1  0
 29 26  1  0
 30 28  2  0
 31 32  1  0
 32 33  2  0
 34 37  1  0
 34 33  1  0
 35 34  2  0
 36 35  1  0
 36 31  2  0
 37 38  1  0
 38 39  1  0
 39 40  2  0
 41 40  1  0
 41 45  1  0
 42 41  2  0
 43 38  2  0
 43 42  1  0
 44 43  1  0
 46 47  1  0
 47 50  1  0
 47 49  1  0
 48 46  2  0
 51 52  1  0
 51 26  1  0
 53 51  1  0
 55 54  1  0
 56 57  1  0
 56  3  1  0
 58 69  2  0
 59 57  1  0
 59 64  1  0
 60 68  1  0
 60 70  1  0
 61 67  1  0
 61 63  1  0
 62 68  1  0
 63 62  1  0
 64 63  2  0
 65 66  1  0
 65 59  2  0
 66 61  2  0
 67 60  1  0
 68 58  1  0
 70 72  2  0
 71 70  1  0
 73 71  1  0
 74 83  2  0
 74 79  1  0
 75 71  1  0
 75 79  1  0
 76 75  1  0
 77 78  1  0
 77 76  1  0
 78 74  1  0
 79 80  2  0
 80 81  1  0
 82 81  2  0
 83 82  1  0
 84 58  1  0
 84 89  1  0
 84 85  1  0
 85 88  1  1
 85 86  1  0
 87 85  1  0
 89 92  1  0
 90 94  1  0
 90 89  1  0
 91 90  2  0
 94 93  1  0
 96 94  1  0
 96 97  1  0
 96 95  1  0
M  ISO  4  14 100  23 100  56 101  57 101
M  END
>  <TORSDO>  (17) 
F 19

>  <SCORE>  (17) 
-13.024

>  <name>  (17) 
16

>  <ligand_id>  (17) 
16

>  <original_smiles>  (17) 
[H]Oc1c([H])c(C([H])([H])Oc2c([H])c([H])c3c(c2[H])C([H])([H])N(C(=O)C([H])(N([H])C(=O)C([H])(N([H])C([H])([H])[H])C([H])([H])[H])C(C([H])([H])[H])(C([H])([H])[H])C([H])([H])[H])C([H])(C(=O)N([H])C2([H])c4c([H])c([H])c([H])c([H])c4C([H])([H])C([H])([H])C2([H])[H])C3([H])[H])c(=O)n(-c2c([H])c([H])c([H])c(C(=O)N([H])C(=O)N3C([H])([H])C([H])([H])C([H])([H])C([H])(n4nc(-c5c([H])c([H])c(Oc6c([H])c([H])c(F)c([H])c6F)c([H])c5[H])c(C(=O)N([H])[H])c4N([H])[H])C3([H])[H])c2[H])c1[H]

>  <smiles>  (17) 
[H]Oc1c([H])c(C([H])([H])Oc2c([H])c([H])c3c(c2[H])C([H])([H])N(C(=O)C([H])(N([H])C(=O)C([H])(N([H])C([H])([H])[H])C([H])([H])[H])C(C([H])([H])[H])(C([H])([H])[H])C([H])([H])[H])C([H])(C(=O)N([H])C2([H])c4c([H])c([H])c([H])c([H])c4C([H])([H])C([H])([H])C2([H])[H])C3([H])[H])c(=O)n(-c2c([H])c([H])c([H])c(C(=O)N([H])C(=O)N3C([H])([H])C([H])([H])C([H])([H])C([H])(n4nc(-c5c([H])c([H])c(Oc6c([H])c([H])c(F)c([H])c6F)c([H])c5[H])c(C(=O)N([H])[H])c4N([H])[H])C3([H])[H])c2[H])c1[H]

$$$$
17:0:0
     RDKit          3D

 92100  0  0  1  0  0  0  0  0999 V2000
  -30.1940  -21.7380   20.5810 C   0  0  0  0  0  0  0  0  0  0  0  0
  -29.3180  -24.0650   20.4040 C   0  0  0  0  0  0  0  0  0  0  0  0
  -29.2260  -22.6810   20.2980 N   0  0  0  0  0  0  0  0  0  0  0  0
  -31.3260  -22.0690   20.9530 O   0  0  0  0  0  0  0  0  0  0  0  0
  -30.3260  -24.6380   20.8380 O   0  0  0  0  0  0  0  0  0  0  0  0
  -28.3520  -22.3160   19.9550 H   0  0  0  0  0  0  0  0  0  0  0  0
  -31.1170  -19.3710   20.1190 C   0  0  0  0  0  3  0  0  0  0  0  0
  -28.8060  -19.4960   20.7410 C   0  0  0  0  0  3  0  0  0  0  0  0
  -31.0750  -17.9420   20.1460 C   0  0  0  0  0  3  0  0  0  0  0  0
  -28.7630  -18.0620   20.7690 C   0  0  0  0  0  3  0  0  0  0  0  0
  -29.9970  -20.2030   20.4260 C   0  0  0  0  0  0  0  0  0  0  0  0
  -29.8940  -17.2350   20.4920 C   0  0  0  0  0  0  0  0  0  0  0  0
  -30.5680  -14.7130   20.2000 C   0  0  0  0  0  0  0  0  0  0  0  0
  -30.3280  -12.4810   19.1160 C   0  0  0  0  0  2  0  0  0  0  0  0
  -29.3470  -12.6240   17.9320 C   0  0  0  0  0  2  0  0  0  0  0  0
  -27.8870  -12.4620   18.4040 C   0  0  0  0  0  2  0  0  0  0  0  0
  -27.5700  -13.3070   19.6650 C   0  0  0  0  0  3  0  0  0  0  0  0
  -28.6620  -13.1350   20.7450 C   0  0  0  0  0  2  0  0  0  0  0  0
  -29.9510  -13.4880   20.1310 N   0  0  0  0  0  0  0  0  0  0  0  0
  -31.7230  -14.8610   19.7890 O   0  0  0  0  0  0  0  0  0  0  0  0
  -29.7710  -15.7690   20.5810 N   0  0  0  0  0  0  0  0  0  0  0  0
  -28.8730  -15.4540   20.9150 H   0  0  0  0  0  0  0  0  0  0  0  0
  -25.2040  -13.9080   20.4660 C   0  0  0  0  0  0  0  0  0  0  0  0
  -24.1450  -13.1370   20.8580 C   0  0  0  0  0  0  0  0  0  0  0  0
  -24.5970  -11.7830   20.7910 C   0  0  0  0  0  0  0  0  0  0  0  0
  -26.2350  -13.0250   20.1870 N   0  0  0  0  0  0  0  0  0  0  0  0
  -25.8760  -11.7410   20.4430 N   0  0  0  0  0  0  0  0  0  0  0  0
  -23.8670  -10.5220   20.9830 C   0  0  0  0  0  0  0  0  0  0  0  0
  -24.3070   -9.5490   21.9060 C   0  0  0  0  0  3  0  0  0  0  0  0
  -23.5790   -8.3520   22.0860 C   0  0  0  0  0  3  0  0  0  0  0  0
  -22.3970   -8.1220   21.3420 C   0  0  0  0  0  0  0  0  0  0  0  0
  -21.9780   -9.0850   20.4070 C   0  0  0  0  0  3  0  0  0  0  0  0
  -22.7070  -10.2710   20.2260 C   0  0  0  0  0  3  0  0  0  0  0  0
  -21.6400   -6.9790   21.4320 O   0  0  0  0  0  0  0  0  0  0  0  0
  -21.5780   -6.2470   22.5900 C   0  0  0  0  0  0  0  0  0  0  0  0
  -21.1290   -6.8080   23.8050 C   0  0  0  0  0  3  0  0  0  0  0  0
  -21.0140   -6.0010   24.9540 C   0  0  0  0  0  3  0  0  0  0  0  0
  -21.3390   -4.6330   24.8900 C   0  0  0  0  0  0  0  0  0  0  0  0
  -21.7820   -4.0710   23.6800 C   0  0  0  0  0  3  0  0  0  0  0  0
  -21.8980   -4.8740   22.5330 C   0  0  0  0  0  0  0  0  0  0  0  0
  -22.3050   -4.3230   21.3640 F   0  0  0  0  0  0  0  0  0  0  0  0
  -21.2220   -3.8560   25.9920 F   0  0  0  0  0  0  0  0  0  0  0  0
  -22.7590  -13.6180   21.1790 C   0  0  0  0  0  0  0  0  0  0  0  0
  -22.0540  -12.9140   22.0570 N   0  0  0  0  0  0  0  0  0  0  0  0
  -22.3110  -14.6520   20.6850 O   0  0  0  0  0  0  0  0  0  0  0  0
  -22.4290  -12.0770   22.4770 H   0  0  0  0  0  0  0  0  0  0  0  0
  -21.1260  -13.2190   22.3150 H   0  0  0  0  0  0  0  0  0  0  0  0
  -25.3720  -15.2810   20.3040 N   0  0  0  0  0  0  0  0  0  0  0  0
  -24.6050  -15.9330   20.4350 H   0  0  0  0  0  0  0  0  0  0  0  0
  -26.1960  -15.7160   19.9080 H   0  0  0  0  0  0  0  0  0  0  0  0
  -28.1290  -25.0170   19.9720 C   0  0  0  0  0  2  0  0  0  0  0  0
  -28.3410  -26.4810   20.1960 O   0  0  0  0  0  0  0  0  0  0  0  0
  -24.6120  -31.8710   23.2470 C   0  0  0  0  0  0  0  0  0  0  0  0
  -27.2230  -27.3360   20.1470 C   0  0  0  0  0  0  0  0  0  0  0  0
  -23.4070  -30.4890   21.5940 C   0  0  0  0  0  3  0  0  0  0  0  0
  -24.8580  -28.9540   20.1510 C   0  0  0  0  0  0  0  0  0  0  0  0
  -25.9470  -30.8080   21.4130 C   0  0  0  0  0  2  0  0  0  0  0  0
  -26.0280  -29.4360   20.7520 C   0  0  0  0  0  0  0  0  0  0  0  0
  -27.2140  -28.6390   20.7390 C   0  0  0  0  0  3  0  0  0  0  0  0
  -26.0280  -26.9120   19.5200 C   0  0  0  0  0  3  0  0  0  0  0  0
  -24.8610  -27.6980   19.5270 C   0  0  0  0  0  3  0  0  0  0  0  0
  -23.6210  -29.8280   20.2080 C   0  0  0  0  0  2  0  0  0  0  0  0
  -24.6750  -31.0730   22.1410 N   0  0  0  0  0  0  0  0  0  0  0  0
  -23.5280  -32.1440   23.7840 O   0  0  0  0  0  0  0  0  0  0  0  0
  -22.7450  -29.4630   22.5450 C   0  0  0  0  0  0  0  0  0  0  0  0
  -21.4180  -29.2870   22.4170 N   0  0  0  0  0  0  0  0  0  0  0  0
  -23.4240  -28.8290   23.3560 O   0  0  0  0  0  0  0  0  0  0  0  0
  -20.9300  -29.8510   21.7350 H   0  0  0  0  0  0  0  0  0  0  0  0
  -18.0380  -28.1030   22.9200 C   0  0  0  0  0  0  0  0  0  0  0  0
  -20.5990  -28.3440   23.1790 C   0  0  0  0  0  3  0  0  0  0  0  0
  -20.6900  -26.9200   22.5830 C   0  0  0  0  0  2  0  0  0  0  0  0
  -19.5800  -26.6170   21.5700 C   0  0  0  0  0  2  0  0  0  0  0  0
  -18.2030  -26.7620   22.2250 C   0  0  0  0  0  2  0  0  0  0  0  0
  -19.1630  -28.8530   23.3540 C   0  0  0  0  0  0  0  0  0  0  0  0
  -18.9540  -30.1080   23.9650 C   0  0  0  0  0  3  0  0  0  0  0  0
  -17.6530  -30.6140   24.1440 C   0  0  0  0  0  3  0  0  0  0  0  0
  -16.5420  -29.8610   23.7260 C   0  0  0  0  0  3  0  0  0  0  0  0
  -16.7350  -28.6070   23.1190 C   0  0  0  0  0  3  0  0  0  0  0  0
  -25.8940  -32.4980   23.8750 C   0  0  0  0  0  3  0  0  0  0  0  0
  -25.5870  -33.8960   24.2100 N   0  0  0  0  0  0  0  0  0  0  0  0
  -25.9040  -34.9500   23.4460 C   0  0  0  0  0  0  0  0  0  0  0  0
  -26.5550  -34.8480   22.4030 O   0  0  0  0  0  0  0  0  0  0  0  0
  -25.0060  -34.0490   25.0210 H   0  0  0  0  0  0  0  0  0  0  0  0
  -24.1570  -36.7340   23.1360 C   0  0  0  0  0  1  0  0  0  0  0  0
  -25.4220  -36.3380   23.9130 C   0  0  0  0  0  3  0  0  0  0  0  0
  -27.5730  -37.2390   24.6830 C   0  0  0  0  0  1  0  0  0  0  0  0
  -26.4460  -37.3950   23.7670 N   0  0  0  0  0  0  0  0  0  0  0  0
  -26.0390  -38.3150   23.9190 H   0  0  0  0  0  0  0  0  0  0  0  0
  -26.4050  -31.7220   25.1500 C   0  0  1  0  0  0  0  0  0  0  0  0
  -25.3060  -31.4800   26.2130 C   0  0  0  0  0  1  0  0  0  0  0  0
  -26.9880  -30.3450   24.7560 C   0  0  0  0  0  1  0  0  0  0  0  0
  -27.5520  -32.5120   25.8210 C   0  0  0  0  0  1  0  0  0  0  0  0
  1  4  2  0
  2  5  2  0
  3  2  1  0
  3  1  1  0
  6  3  1  0
  7  9  2  0
  7 11  1  0
  8 10  1  0
  9 12  1  0
 11  1  1  0
 11  8  2  0
 12 21  1  0
 12 10  2  0
 13 21  1  0
 14 19  1  0
 15 16  1  0
 15 14  1  0
 17 16  1  0
 17 26  1  0
 17 18  1  0
 19 13  1  0
 19 18  1  0
 20 13  2  0
 21 22  1  0
 23 24  2  0
 24 43  1  0
 25 24  1  0
 25 28  1  0
 26 27  1  0
 26 23  1  0
 27 25  2  0
 28 29  1  0
 29 30  2  0
 31 34  1  0
 31 30  1  0
 32 31  2  0
 33 32  1  0
 33 28  2  0
 34 35  1  0
 35 36  1  0
 36 37  2  0
 38 37  1  0
 38 42  1  0
 39 38  2  0
 40 35  2  0
 40 39  1  0
 41 40  1  0
 43 44  1  0
 44 47  1  0
 44 46  1  0
 45 43  2  0
 48 49  1  0
 48 23  1  0
 50 48  1  0
 51 52  1  0
 51  2  1  0
 53 64  2  0
 54 52  1  0
 54 59  1  0
 55 63  1  0
 55 65  1  0
 56 62  1  0
 56 58  1  0
 57 63  1  0
 58 57  1  0
 59 58  2  0
 60 61  1  0
 60 54  2  0
 61 56  2  0
 62 55  1  0
 63 53  1  0
 65 67  2  0
 66 65  1  0
 68 66  1  0
 69 78  2  0
 69 74  1  0
 70 66  1  0
 70 74  1  0
 71 70  1  0
 72 73  1  0
 72 71  1  0
 73 69  1  0
 74 75  2  0
 75 76  1  0
 77 76  2  0
 78 77  1  0
 79 53  1  0
 79 80  1  0
 79 89  1  0
 80 83  1  0
 81 85  1  0
 81 80  1  0
 82 81  2  0
 85 84  1  0
 87 85  1  0
 87 88  1  0
 87 86  1  0
 89 92  1  1
 89 90  1  0
 91 89  1  0
M  ISO  4  13 100  21 100  51 101  52 101
M  END
>  <TORSDO>  (18) 
F 18

>  <SCORE>  (18) 
-14.623

>  <name>  (18) 
17

>  <ligand_id>  (18) 
17

>  <original_smiles>  (18) 
[H]c1c([H])c([H])c2c(c1[H])C([H])([H])C([H])([H])C([H])([H])C2([H])N([H])C(=O)C1([H])N(C(=O)C([H])(N([H])C(=O)C([H])(N([H])C([H])([H])[H])C([H])([H])[H])C(C([H])([H])[H])(C([H])([H])[H])C([H])([H])[H])C([H])([H])c2c([H])c(OC([H])([H])C(=O)N([H])C(=O)c3c([H])c([H])c(N([H])C(=O)N4C([H])([H])C([H])([H])C([H])([H])C([H])(n5nc(-c6c([H])c([H])c(Oc7c([H])c([H])c(F)c([H])c7F)c([H])c6[H])c(C(=O)N([H])[H])c5N([H])[H])C4([H])[H])c([H])c3[H])c([H])c([H])c2C1([H])[H]

>  <smiles>  (18) 
[H]c1c([H])c([H])c2c(c1[H])C([H])([H])C([H])([H])C([H])([H])C2([H])N([H])C(=O)C1([H])N(C(=O)C([H])(N([H])C(=O)C([H])(N([H])C([H])([H])[H])C([H])([H])[H])C(C([H])([H])[H])(C([H])([H])[H])C([H])([H])[H])C([H])([H])c2c([H])c(OC([H])([H])C(=O)N([H])C(=O)c3c([H])c([H])c(N([H])C(=O)N4C([H])([H])C([H])([H])C([H])([H])C([H])(n5nc(-c6c([H])c([H])c(Oc7c([H])c([H])c(F)c([H])c7F)c([H])c6[H])c(C(=O)N([H])[H])c5N([H])[H])C4([H])[H])c([H])c3[H])c([H])c([H])c2C1([H])[H]

$$$$
18:0:0
     RDKit          3D

 94103  0  0  1  0  0  0  0  0999 V2000
  -28.7210  -23.9850   20.2630 C   0  0  0  0  0  0  0  0  0  0  0  0
  -29.0690  -23.7900   21.6490 C   0  0  0  0  0  0  0  0  0  0  0  0
  -28.8360  -22.6120   19.6630 C   0  0  0  0  0  0  0  0  0  0  0  0
  -28.9480  -24.6940   22.6370 C   0  0  0  0  0  1  0  0  0  0  0  0
  -28.3940  -25.1740   19.6080 C   0  0  0  0  0  3  0  0  0  0  0  0
  -29.5460  -22.3700   21.8700 C   0  0  0  0  0  2  0  0  0  0  0  0
  -28.2170  -25.2480   18.0940 C   0  0  0  0  0  1  0  0  0  0  0  0
  -29.2780  -21.6910   20.5980 N   0  0  0  0  0  0  0  0  0  0  0  0
  -28.5820  -22.3040   18.4940 O   0  0  0  0  0  0  0  0  0  0  0  0
  -28.6270  -19.3680   19.7170 C   0  0  0  0  0  3  0  0  0  0  0  0
  -30.5030  -19.5280   21.1960 C   0  0  0  0  0  3  0  0  0  0  0  0
  -28.7540  -17.9420   19.7340 C   0  0  0  0  0  3  0  0  0  0  0  0
  -30.6510  -18.1010   21.1860 C   0  0  0  0  0  3  0  0  0  0  0  0
  -29.4790  -20.2200   20.4760 C   0  0  0  0  0  0  0  0  0  0  0  0
  -29.7610  -17.2550   20.4710 C   0  0  0  0  0  0  0  0  0  0  0  0
  -30.5680  -14.7490   20.3690 C   0  0  0  0  0  0  0  0  0  0  0  0
  -30.4120  -12.4840   19.3340 C   0  0  0  0  0  2  0  0  0  0  0  0
  -29.4580  -12.5780   18.1210 C   0  0  0  0  0  2  0  0  0  0  0  0
  -27.9880  -12.4020   18.5570 C   0  0  0  0  0  2  0  0  0  0  0  0
  -27.6220  -13.2700   19.7890 C   0  0  0  0  0  3  0  0  0  0  0  0
  -28.6870  -13.1420   20.9010 C   0  0  0  0  0  2  0  0  0  0  0  0
  -29.9860  -13.5050   20.3130 N   0  0  0  0  0  0  0  0  0  0  0  0
  -31.7460  -14.9180   20.0330 O   0  0  0  0  0  0  0  0  0  0  0  0
  -29.6970  -15.7900   20.6050 N   0  0  0  0  0  0  0  0  0  0  0  0
  -28.7620  -15.4420   20.7480 H   0  0  0  0  0  0  0  0  0  0  0  0
  -25.2330  -13.8640   20.5260 C   0  0  0  0  0  0  0  0  0  0  0  0
  -24.1700  -13.0880   20.8970 C   0  0  0  0  0  0  0  0  0  0  0  0
  -24.6330  -11.7380   20.8590 C   0  0  0  0  0  0  0  0  0  0  0  0
  -26.2770  -12.9860   20.2810 N   0  0  0  0  0  0  0  0  0  0  0  0
  -25.9220  -11.7010   20.5430 N   0  0  0  0  0  0  0  0  0  0  0  0
  -23.9100  -10.4740   21.0470 C   0  0  0  0  0  0  0  0  0  0  0  0
  -24.3510   -9.5010   21.9700 C   0  0  0  0  0  3  0  0  0  0  0  0
  -23.6290   -8.3020   22.1470 C   0  0  0  0  0  3  0  0  0  0  0  0
  -22.4490   -8.0670   21.4010 C   0  0  0  0  0  0  0  0  0  0  0  0
  -22.0260   -9.0290   20.4670 C   0  0  0  0  0  3  0  0  0  0  0  0
  -22.7500  -10.2200   20.2880 C   0  0  0  0  0  3  0  0  0  0  0  0
  -21.6980   -6.9210   21.4870 O   0  0  0  0  0  0  0  0  0  0  0  0
  -21.6600   -6.1690   22.6340 C   0  0  0  0  0  0  0  0  0  0  0  0
  -21.2320   -6.7100   23.8650 C   0  0  0  0  0  3  0  0  0  0  0  0
  -21.1410   -5.8850   25.0040 C   0  0  0  0  0  3  0  0  0  0  0  0
  -21.4680   -4.5190   24.9120 C   0  0  0  0  0  0  0  0  0  0  0  0
  -21.8900   -3.9770   23.6850 C   0  0  0  0  0  3  0  0  0  0  0  0
  -21.9830   -4.8000   22.5490 C   0  0  0  0  0  0  0  0  0  0  0  0
  -22.3680   -4.2680   21.3630 F   0  0  0  0  0  0  0  0  0  0  0  0
  -21.3740   -3.7240   26.0030 F   0  0  0  0  0  0  0  0  0  0  0  0
  -22.7720  -13.5630   21.1760 C   0  0  0  0  0  0  0  0  0  0  0  0
  -22.0490  -12.8640   22.0440 N   0  0  0  0  0  0  0  0  0  0  0  0
  -22.3310  -14.5910   20.6630 O   0  0  0  0  0  0  0  0  0  0  0  0
  -22.4170  -12.0320   22.4820 H   0  0  0  0  0  0  0  0  0  0  0  0
  -21.1130  -13.1660   22.2740 H   0  0  0  0  0  0  0  0  0  0  0  0
  -25.3940  -15.2370   20.3520 N   0  0  0  0  0  0  0  0  0  0  0  0
  -24.6230  -15.8850   20.4680 H   0  0  0  0  0  0  0  0  0  0  0  0
  -26.2300  -15.6810   19.9980 H   0  0  0  0  0  0  0  0  0  0  0  0
  -28.3500  -26.4730   20.1950 O   0  0  0  0  0  0  0  0  0  0  0  0
  -24.6340  -31.8940   23.2520 C   0  0  0  0  0  0  0  0  0  0  0  0
  -27.2200  -27.3240   20.1510 C   0  0  0  0  0  0  0  0  0  0  0  0
  -23.4160  -30.5000   21.6210 C   0  0  0  0  0  3  0  0  0  0  0  0
  -24.8510  -28.9520   20.1790 C   0  0  0  0  0  0  0  0  0  0  0  0
  -25.9550  -30.8180   21.4080 C   0  0  0  0  0  2  0  0  0  0  0  0
  -26.0300  -29.4370   20.7590 C   0  0  0  0  0  0  0  0  0  0  0  0
  -27.2140  -28.6350   20.7330 C   0  0  0  0  0  3  0  0  0  0  0  0
  -26.0000  -26.8850   19.5850 C   0  0  0  0  0  3  0  0  0  0  0  0
  -24.8390  -27.6810   19.5860 C   0  0  0  0  0  3  0  0  0  0  0  0
  -23.6170  -29.8310   20.2370 C   0  0  0  0  0  2  0  0  0  0  0  0
  -24.6900  -31.0880   22.1510 N   0  0  0  0  0  0  0  0  0  0  0  0
  -23.5560  -32.1690   23.7980 O   0  0  0  0  0  0  0  0  0  0  0  0
  -22.7620  -29.4810   22.5840 C   0  0  0  0  0  0  0  0  0  0  0  0
  -21.4370  -29.2940   22.4640 N   0  0  0  0  0  0  0  0  0  0  0  0
  -23.4480  -28.8600   23.4010 O   0  0  0  0  0  0  0  0  0  0  0  0
  -20.9430  -29.8470   21.7770 H   0  0  0  0  0  0  0  0  0  0  0  0
  -18.0700  -28.0670   22.9650 C   0  0  0  0  0  0  0  0  0  0  0  0
  -20.6270  -28.3530   23.2380 C   0  0  0  0  0  3  0  0  0  0  0  0
  -20.7420  -26.9190   22.6690 C   0  0  0  0  0  2  0  0  0  0  0  0
  -19.6450  -26.5820   21.6550 C   0  0  0  0  0  2  0  0  0  0  0  0
  -18.2610  -26.7160   22.2960 C   0  0  0  0  0  2  0  0  0  0  0  0
  -19.1810  -28.8420   23.3930 C   0  0  0  0  0  0  0  0  0  0  0  0
  -18.9480  -30.1050   23.9790 C   0  0  0  0  0  3  0  0  0  0  0  0
  -17.6380  -30.5940   24.1420 C   0  0  0  0  0  3  0  0  0  0  0  0
  -16.5420  -29.8150   23.7310 C   0  0  0  0  0  3  0  0  0  0  0  0
  -16.7600  -28.5550   23.1470 C   0  0  0  0  0  3  0  0  0  0  0  0
  -25.9220  -32.5240   23.8660 C   0  0  0  0  0  3  0  0  0  0  0  0
  -25.6140  -33.9220   24.2040 N   0  0  0  0  0  0  0  0  0  0  0  0
  -25.9230  -34.9770   23.4390 C   0  0  0  0  0  0  0  0  0  0  0  0
  -26.5650  -34.8760   22.3900 O   0  0  0  0  0  0  0  0  0  0  0  0
  -25.0390  -34.0740   25.0200 H   0  0  0  0  0  0  0  0  0  0  0  0
  -24.1750  -36.7620   23.1370 C   0  0  0  0  0  1  0  0  0  0  0  0
  -25.4430  -36.3630   23.9090 C   0  0  0  0  0  3  0  0  0  0  0  0
  -27.5980  -37.2650   24.6690 C   0  0  0  0  0  1  0  0  0  0  0  0
  -26.4650  -37.4220   23.7610 N   0  0  0  0  0  0  0  0  0  0  0  0
  -26.0590  -38.3410   23.9150 H   0  0  0  0  0  0  0  0  0  0  0  0
  -26.4470  -31.7470   25.1360 C   0  0  1  0  0  0  0  0  0  0  0  0
  -25.3630  -31.5110   26.2120 C   0  0  0  0  0  1  0  0  0  0  0  0
  -27.0190  -30.3670   24.7340 C   0  0  0  0  0  1  0  0  0  0  0  0
  -27.6080  -32.5340   25.7890 C   0  0  0  0  0  1  0  0  0  0  0  0
  1  2  2  0
  2  6  1  0
  2  4  1  0
  3  1  1  0
  3  8  1  0
  5  7  1  0
  5 54  1  0
  5  1  1  0
  8  6  1  0
  9  3  2  0
 10 12  2  0
 10 14  1  0
 12 15  1  0
 13 11  1  0
 14  8  1  0
 14 11  2  0
 15 24  1  0
 15 13  2  0
 16 24  1  0
 17 22  1  0
 18 19  1  0
 18 17  1  0
 20 19  1  0
 20 29  1  0
 20 21  1  0
 22 16  1  0
 22 21  1  0
 23 16  2  0
 24 25  1  0
 26 27  2  0
 27 46  1  0
 28 27  1  0
 28 31  1  0
 29 26  1  0
 29 30  1  0
 30 28  2  0
 31 32  1  0
 32 33  2  0
 34 37  1  0
 34 33  1  0
 35 34  2  0
 36 35  1  0
 36 31  2  0
 37 38  1  0
 38 39  1  0
 39 40  2  0
 41 40  1  0
 41 45  1  0
 42 41  2  0
 43 38  2  0
 43 42  1  0
 44 43  1  0
 46 47  1  0
 47 50  1  0
 47 49  1  0
 48 46  2  0
 51 52  1  0
 51 26  1  0
 53 51  1  0
 55 66  2  0
 56 54  1  0
 56 61  1  0
 57 65  1  0
 57 67  1  0
 58 64  1  0
 58 60  1  0
 59 65  1  0
 60 59  1  0
 61 60  2  0
 62 63  1  0
 62 56  2  0
 63 58  2  0
 64 57  1  0
 65 55  1  0
 67 69  2  0
 68 67  1  0
 70 68  1  0
 71 80  2  0
 71 76  1  0
 72 68  1  0
 72 76  1  0
 73 72  1  0
 74 75  1  0
 74 73  1  0
 75 71  1  0
 76 77  2  0
 77 78  1  0
 79 78  2  0
 80 79  1  0
 81 55  1  0
 81 82  1  0
 81 91  1  0
 82 85  1  0
 83 87  1  0
 83 82  1  0
 84 83  2  0
 87 86  1  0
 89 87  1  0
 89 90  1  0
 89 88  1  0
 91 94  1  1
 91 92  1  0
 93 91  1  0
M  ISO  4   5 101  16 100  24 100  54 101
M  END
>  <TORSDO>  (19) 
F 17

>  <SCORE>  (19) 
-15.512

>  <name>  (19) 
18

>  <ligand_id>  (19) 
18

>  <original_smiles>  (19) 
[H]C([H])=C1C(=C(Oc2c([H])c([H])c3c(c2[H])C([H])([H])N(C(=O)C([H])(N([H])C(=O)C([H])(N([H])C([H])([H])[H])C([H])([H])[H])C(C([H])([H])[H])(C([H])([H])[H])C([H])([H])[H])C([H])(C(=O)N([H])C2([H])c4c([H])c([H])c([H])c([H])c4C([H])([H])C([H])([H])C2([H])[H])C3([H])[H])C([H])([H])[H])C(=O)N(c2c([H])c([H])c(N([H])C(=O)N3C([H])([H])C([H])([H])C([H])([H])C([H])(n4nc(-c5c([H])c([H])c(Oc6c([H])c([H])c(F)c([H])c6F)c([H])c5[H])c(C(=O)N([H])[H])c4N([H])[H])C3([H])[H])c([H])c2[H])C1([H])[H]

>  <smiles>  (19) 
[H]C([H])=C1C(=C(Oc2c([H])c([H])c3c(c2[H])C([H])([H])N(C(=O)C([H])(N([H])C(=O)C([H])(N([H])C([H])([H])[H])C([H])([H])[H])C(C([H])([H])[H])(C([H])([H])[H])C([H])([H])[H])C([H])(C(=O)N([H])C2([H])c4c([H])c([H])c([H])c([H])c4C([H])([H])C([H])([H])C2([H])[H])C3([H])[H])C([H])([H])[H])C(=O)N(c2c([H])c([H])c(N([H])C(=O)N3C([H])([H])C([H])([H])C([H])([H])C([H])(n4nc(-c5c([H])c([H])c(Oc6c([H])c([H])c(F)c([H])c6F)c([H])c5[H])c(C(=O)N([H])[H])c4N([H])[H])C3([H])[H])c([H])c2[H])C1([H])[H]

$$$$
19:0:0
     RDKit          3D

 95104  0  0  1  0  0  0  0  0999 V2000
  -28.6150  -24.7330   21.3900 C   0  0  0  0  0  0  0  0  0  0  0  0
  -28.2290  -24.0740   22.6130 C   0  0  0  0  0  0  0  0  0  0  0  0
  -29.1610  -23.6870   20.5160 C   0  0  0  0  0  0  0  0  0  0  0  0
  -27.9290  -24.6600   23.7890 C   0  0  0  0  0  2  0  0  0  0  0  0
  -28.3800  -26.0570   21.1410 C   0  0  0  0  0  3  0  0  0  0  0  0
  -28.2670  -22.5970   22.4030 C   0  0  0  0  0  2  0  0  0  0  0  0
  -28.9960  -22.4680   21.1390 N   0  0  0  0  0  0  0  0  0  0  0  0
  -29.6810  -23.8570   19.4080 O   0  0  0  0  0  0  0  0  0  0  0  0
  -31.3020  -19.6660   20.0050 C   0  0  0  0  0  3  0  0  0  0  0  0
  -29.2540  -18.6720   20.8210 C   0  0  0  0  0  3  0  0  0  0  0  0
  -30.7780  -20.9680   20.1980 C   0  0  0  0  0  3  0  0  0  0  0  0
  -28.7350  -19.9790   21.0330 C   0  0  0  0  0  3  0  0  0  0  0  0
  -30.5700  -18.4950   20.3370 C   0  0  0  0  0  0  0  0  0  0  0  0
  -29.4910  -21.1560   20.7550 C   0  0  0  0  0  0  0  0  0  0  0  0
  -31.1600  -14.8120   19.7370 C   0  0  0  0  0  0  0  0  0  0  0  0
  -30.6720  -12.6120   18.7080 C   0  0  0  0  0  2  0  0  0  0  0  0
  -29.6440  -12.7360   17.5690 C   0  0  0  0  0  2  0  0  0  0  0  0
  -28.2140  -12.6180   18.1280 C   0  0  0  0  0  2  0  0  0  0  0  0
  -27.9780  -13.5260   19.3630 C   0  0  0  0  0  3  0  0  0  0  0  0
  -29.1260  -13.4270   20.3920 C   0  0  0  0  0  2  0  0  0  0  0  0
  -30.3910  -13.6810   19.6890 N   0  0  0  0  0  0  0  0  0  0  0  0
  -32.2750  -14.8070   19.2100 O   0  0  0  0  0  0  0  0  0  0  0  0
  -31.2860  -17.1500   20.3360 C   0  0  0  0  0  0  0  0  0  0  0  0
  -30.6040  -15.9740   20.1860 N   0  0  0  0  0  0  0  0  0  0  0  0
  -32.5180  -17.2090   20.4520 O   0  0  0  0  0  0  0  0  0  0  0  0
  -29.6090  -15.9910   20.3330 H   0  0  0  0  0  0  0  0  0  0  0  0
  -25.7150  -14.1650   20.3910 C   0  0  0  0  0  0  0  0  0  0  0  0
  -24.6530  -13.4100   20.8100 C   0  0  0  0  0  0  0  0  0  0  0  0
  -25.0370  -12.0480   20.6230 C   0  0  0  0  0  0  0  0  0  0  0  0
  -26.6780  -13.2660   19.9720 N   0  0  0  0  0  0  0  0  0  0  0  0
  -26.2850  -11.9810   20.1750 N   0  0  0  0  0  0  0  0  0  0  0  0
  -24.2730  -10.8040   20.7920 C   0  0  0  0  0  0  0  0  0  0  0  0
  -24.6690   -9.8100   21.7140 C   0  0  0  0  0  3  0  0  0  0  0  0
  -23.9070   -8.6320   21.8660 C   0  0  0  0  0  3  0  0  0  0  0  0
  -22.7330   -8.4430   21.0970 C   0  0  0  0  0  0  0  0  0  0  0  0
  -22.3580   -9.4230   20.1610 C   0  0  0  0  0  3  0  0  0  0  0  0
  -23.1200  -10.5940   20.0070 C   0  0  0  0  0  3  0  0  0  0  0  0
  -21.9440   -7.3200   21.1610 O   0  0  0  0  0  0  0  0  0  0  0  0
  -21.7370   -6.6510   22.3410 C   0  0  0  0  0  0  0  0  0  0  0  0
  -21.1770   -7.2860   23.4720 C   0  0  0  0  0  3  0  0  0  0  0  0
  -20.9240   -6.5430   24.6430 C   0  0  0  0  0  3  0  0  0  0  0  0
  -21.2160   -5.1660   24.6800 C   0  0  0  0  0  0  0  0  0  0  0  0
  -21.7620   -4.5300   23.5510 C   0  0  0  0  0  3  0  0  0  0  0  0
  -22.0210   -5.2700   22.3850 C   0  0  0  0  0  0  0  0  0  0  0  0
  -22.5320   -4.6480   21.2950 F   0  0  0  0  0  0  0  0  0  0  0  0
  -20.9610   -4.4490   25.7990 F   0  0  0  0  0  0  0  0  0  0  0  0
  -23.3170  -13.9230   21.2650 C   0  0  0  0  0  0  0  0  0  0  0  0
  -22.6540  -13.1980   22.1580 N   0  0  0  0  0  0  0  0  0  0  0  0
  -22.8750  -15.0000   20.8650 O   0  0  0  0  0  0  0  0  0  0  0  0
  -23.0250  -12.3230   22.5020 H   0  0  0  0  0  0  0  0  0  0  0  0
  -21.7610  -13.5180   22.5040 H   0  0  0  0  0  0  0  0  0  0  0  0
  -25.9370  -15.5350   20.3050 N   0  0  0  0  0  0  0  0  0  0  0  0
  -25.2230  -16.2150   20.5420 H   0  0  0  0  0  0  0  0  0  0  0  0
  -26.7700  -15.9540   19.9130 H   0  0  0  0  0  0  0  0  0  0  0  0
  -28.5010  -26.8160   19.9800 O   0  0  0  0  0  0  0  0  0  0  0  0
  -24.5390  -31.8220   23.0480 C   0  0  0  0  0  0  0  0  0  0  0  0
  -27.4000  -27.6390   19.8180 C   0  0  0  0  0  0  0  0  0  0  0  0
  -23.4030  -30.4290   21.3460 C   0  0  0  0  0  3  0  0  0  0  0  0
  -24.9390  -29.0410   19.8450 C   0  0  0  0  0  0  0  0  0  0  0  0
  -25.9080  -30.9390   21.1570 C   0  0  0  0  0  2  0  0  0  0  0  0
  -26.0700  -29.6080   20.4490 C   0  0  0  0  0  0  0  0  0  0  0  0
  -27.3090  -28.9170   20.4260 C   0  0  0  0  0  3  0  0  0  0  0  0
  -26.2560  -27.0960   19.2020 C   0  0  0  0  0  3  0  0  0  0  0  0
  -25.0310  -27.7890   19.2090 C   0  0  0  0  0  3  0  0  0  0  0  0
  -23.6410  -29.8170   19.9390 C   0  0  0  0  0  2  0  0  0  0  0  0
  -24.6340  -31.0780   21.9070 N   0  0  0  0  0  0  0  0  0  0  0  0
  -23.4460  -32.0110   23.6000 O   0  0  0  0  0  0  0  0  0  0  0  0
  -22.8090  -29.3380   22.2680 C   0  0  0  0  0  0  0  0  0  0  0  0
  -21.4960  -29.0890   22.1310 N   0  0  0  0  0  0  0  0  0  0  0  0
  -23.5250  -28.7200   23.0590 O   0  0  0  0  0  0  0  0  0  0  0  0
  -20.9810  -29.6500   21.4690 H   0  0  0  0  0  0  0  0  0  0  0  0
  -18.1950  -27.6770   22.5520 C   0  0  0  0  0  0  0  0  0  0  0  0
  -20.7290  -28.0790   22.8590 C   0  0  0  0  0  3  0  0  0  0  0  0
  -20.9210  -26.6770   22.2340 C   0  0  0  0  0  2  0  0  0  0  0  0
  -19.8510  -26.3250   21.1970 C   0  0  0  0  0  2  0  0  0  0  0  0
  -18.4590  -26.3650   21.8320 C   0  0  0  0  0  2  0  0  0  0  0  0
  -19.2610  -28.4910   23.0170 C   0  0  0  0  0  0  0  0  0  0  0  0
  -18.9630  -29.7170   23.6500 C   0  0  0  0  0  3  0  0  0  0  0  0
  -17.6280  -30.1320   23.8250 C   0  0  0  0  0  3  0  0  0  0  0  0
  -16.5760  -29.3150   23.3790 C   0  0  0  0  0  3  0  0  0  0  0  0
  -16.8600  -28.0880   22.7520 C   0  0  0  0  0  3  0  0  0  0  0  0
  -25.7880  -32.4980   23.6960 C   0  0  0  0  0  3  0  0  0  0  0  0
  -25.4110  -33.8670   24.0750 N   0  0  0  0  0  0  0  0  0  0  0  0
  -25.6860  -34.9610   23.3540 C   0  0  0  0  0  0  0  0  0  0  0  0
  -26.3540  -34.9300   22.3170 O   0  0  0  0  0  0  0  0  0  0  0  0
  -24.8290  -33.9650   24.8930 H   0  0  0  0  0  0  0  0  0  0  0  0
  -23.8650  -36.6730   23.0610 C   0  0  0  0  0  1  0  0  0  0  0  0
  -25.1260  -36.3070   23.8610 C   0  0  0  0  0  3  0  0  0  0  0  0
  -27.2100  -37.2700   24.7220 C   0  0  0  0  0  1  0  0  0  0  0  0
  -26.1010  -37.4160   23.7870 N   0  0  0  0  0  0  0  0  0  0  0  0
  -25.6470  -38.3080   23.9690 H   0  0  0  0  0  0  0  0  0  0  0  0
  -26.3450  -31.7110   24.9460 C   0  0  1  0  0  0  0  0  0  0  0  0
  -25.2680  -31.3650   25.9980 C   0  0  0  0  0  1  0  0  0  0  0  0
  -27.0130  -30.3870   24.5050 C   0  0  0  0  0  1  0  0  0  0  0  0
  -27.4500  -32.5410   25.6450 C   0  0  0  0  0  1  0  0  0  0  0  0
  1  2  1  0
  2  4  2  0
  3  7  1  0
  3  1  1  0
  5  1  2  0
  6  2  1  0
  7  6  1  0
  8  3  2  0
  9 11  2  0
  9 13  1  0
 10 12  1  0
 11 14  1  0
 13 10  2  0
 14 12  2  0
 14  7  1  0
 15 24  1  0
 16 21  1  0
 17 18  1  0
 17 16  1  0
 19 18  1  0
 19 30  1  0
 19 20  1  0
 21 15  1  0
 21 20  1  0
 22 15  2  0
 23 13  1  0
 23 25  2  0
 24 26  1  0
 24 23  1  0
 27 28  2  0
 28 47  1  0
 29 32  1  0
 29 28  1  0
 30 31  1  0
 30 27  1  0
 31 29  2  0
 32 33  1  0
 33 34  2  0
 35 38  1  0
 35 34  1  0
 36 35  2  0
 37 36  1  0
 37 32  2  0
 38 39  1  0
 39 44  2  0
 39 40  1  0
 40 41  2  0
 41 42  1  0
 42 46  1  0
 43 42  2  0
 44 43  1  0
 45 44  1  0
 47 48  1  0
 48 50  1  0
 48 51  1  0
 49 47  2  0
 52 27  1  0
 52 53  1  0
 54 52  1  0
 55  5  1  0
 56 67  2  0
 57 55  1  0
 57 62  1  0
 58 66  1  0
 58 68  1  0
 59 65  1  0
 59 61  1  0
 60 66  1  0
 61 60  1  0
 62 61  2  0
 63 64  1  0
 63 57  2  0
 64 59  2  0
 65 58  1  0
 66 56  1  0
 68 70  2  0
 69 68  1  0
 71 69  1  0
 72 81  2  0
 72 77  1  0
 73 69  1  0
 73 77  1  0
 74 73  1  0
 75 76  1  0
 75 74  1  0
 76 72  1  0
 77 78  2  0
 78 79  1  0
 80 79  2  0
 81 80  1  0
 82 56  1  0
 82 83  1  0
 82 92  1  0
 83 86  1  0
 84 88  1  0
 84 83  1  0
 85 84  2  0
 88 87  1  0
 90 88  1  0
 90 91  1  0
 90 89  1  0
 92 95  1  1
 92 93  1  0
 94 92  1  0
M  ISO  4   5 101  15 100  24 100  55 101
M  END
>  <TORSDO>  (20) 
F 17

>  <SCORE>  (20) 
-12.216

>  <name>  (20) 
19

>  <ligand_id>  (20) 
19

>  <original_smiles>  (20) 
[H]C([H])=C1C(=C([H])Oc2c([H])c([H])c3c(c2[H])C([H])([H])N(C(=O)C([H])(N([H])C(=O)C([H])(N([H])C([H])([H])[H])C([H])([H])[H])C(C([H])([H])[H])(C([H])([H])[H])C([H])([H])[H])C([H])(C(=O)N([H])C2([H])c4c([H])c([H])c([H])c([H])c4C([H])([H])C([H])([H])C2([H])[H])C3([H])[H])C(=O)N(c2c([H])c([H])c(C(=O)N([H])C(=O)N3C([H])([H])C([H])([H])C([H])([H])C([H])(n4nc(-c5c([H])c([H])c(Oc6c([H])c([H])c(F)c([H])c6F)c([H])c5[H])c(C(=O)N([H])[H])c4N([H])[H])C3([H])[H])c([H])c2[H])C1([H])[H]

>  <smiles>  (20) 
[H]C([H])=C1C(=C([H])Oc2c([H])c([H])c3c(c2[H])C([H])([H])N(C(=O)C([H])(N([H])C(=O)C([H])(N([H])C([H])([H])[H])C([H])([H])[H])C(C([H])([H])[H])(C([H])([H])[H])C([H])([H])[H])C([H])(C(=O)N([H])C2([H])c4c([H])c([H])c([H])c([H])c4C([H])([H])C([H])([H])C2([H])[H])C3([H])[H])C(=O)N(c2c([H])c([H])c(C(=O)N([H])C(=O)N3C([H])([H])C([H])([H])C([H])([H])C([H])(n4nc(-c5c([H])c([H])c(Oc6c([H])c([H])c(F)c([H])c6F)c([H])c5[H])c(C(=O)N([H])[H])c4N([H])[H])C3([H])[H])c([H])c2[H])C1([H])[H]

$$$$
20:0:0
     RDKit          3D

 93102  0  0  1  0  0  0  0  0999 V2000
  -27.2640  -24.7250   21.5430 C   0  0  0  0  0  3  0  0  0  0  0  0
  -28.1000  -24.9080   20.5000 C   0  0  0  0  0  0  0  0  0  0  0  0
  -28.7910  -23.6250   19.9430 C   0  0  0  0  0  0  0  0  0  0  0  0
  -26.9860  -23.3970   22.1920 C   0  0  0  0  0  2  0  0  0  0  0  0
  -28.1760  -22.4490   22.0200 C   0  0  0  0  0  2  0  0  0  0  0  0
  -28.7130  -22.3820   20.6490 N   0  0  0  0  0  0  0  0  0  0  0  0
  -29.4040  -23.6600   18.8720 O   0  0  0  0  0  0  0  0  0  0  0  0
  -29.0460  -18.6880   19.1730 C   0  0  0  0  0  3  0  0  0  0  0  0
  -30.2350  -18.7730   21.2000 C   0  0  0  0  0  3  0  0  0  0  0  0
  -28.8050  -20.1270   19.2370 C   0  0  0  0  0  3  0  0  0  0  0  0
  -29.9910  -20.2000   21.2720 C   0  0  0  0  0  3  0  0  0  0  0  0
  -29.7410  -17.9090   20.1690 C   0  0  0  0  0  0  0  0  0  0  0  0
  -29.2200  -20.9650   20.3270 C   0  0  0  0  0  0  0  0  0  0  0  0
  -29.5400  -16.3260   20.3720 C   0  0  0  0  0  0  0  0  0  0  0  0
  -28.4400  -16.1260   20.9630 N   0  0  0  0  0  0  0  0  0  0  0  0
  -27.9950  -17.0120   21.1710 H   0  0  0  0  0  0  0  0  0  0  0  0
  -30.4920  -15.0190   19.9380 C   0  0  0  0  0  0  0  0  0  0  0  0
  -30.4000  -12.6880   18.9380 C   0  0  0  0  0  2  0  0  0  0  0  0
  -29.3750  -12.6750   17.7730 C   0  0  0  0  0  2  0  0  0  0  0  0
  -27.9360  -12.4430   18.2840 C   0  0  0  0  0  2  0  0  0  0  0  0
  -27.6130  -13.3070   19.5290 C   0  0  0  0  0  3  0  0  0  0  0  0
  -28.7440  -13.2040   20.5730 C   0  0  0  0  0  2  0  0  0  0  0  0
  -29.9670  -13.7180   19.9260 N   0  0  0  0  0  0  0  0  0  0  0  0
  -31.6430  -15.1680   19.5060 O   0  0  0  0  0  0  0  0  0  0  0  0
  -25.2770  -13.8760   20.4220 C   0  0  0  0  0  0  0  0  0  0  0  0
  -24.2340  -13.0920   20.8330 C   0  0  0  0  0  0  0  0  0  0  0  0
  -24.6970  -11.7440   20.7390 C   0  0  0  0  0  0  0  0  0  0  0  0
  -26.3040  -13.0040   20.0970 N   0  0  0  0  0  0  0  0  0  0  0  0
  -25.9660  -11.7140   20.3480 N   0  0  0  0  0  0  0  0  0  0  0  0
  -23.9860  -10.4760   20.9440 C   0  0  0  0  0  0  0  0  0  0  0  0
  -24.4460   -9.5130   21.8680 C   0  0  0  0  0  3  0  0  0  0  0  0
  -23.7340   -8.3080   22.0590 C   0  0  0  0  0  3  0  0  0  0  0  0
  -22.5490   -8.0610   21.3280 C   0  0  0  0  0  0  0  0  0  0  0  0
  -22.1080   -9.0140   20.3930 C   0  0  0  0  0  3  0  0  0  0  0  0
  -22.8200  -10.2090   20.1990 C   0  0  0  0  0  3  0  0  0  0  0  0
  -21.8060   -6.9100   21.4300 O   0  0  0  0  0  0  0  0  0  0  0  0
  -21.7400   -6.1970   22.6000 C   0  0  0  0  0  0  0  0  0  0  0  0
  -21.2860   -6.7820   23.8030 C   0  0  0  0  0  3  0  0  0  0  0  0
  -21.1680   -5.9950   24.9670 C   0  0  0  0  0  3  0  0  0  0  0  0
  -21.4930   -4.6260   24.9280 C   0  0  0  0  0  0  0  0  0  0  0  0
  -21.9400   -4.0410   23.7300 C   0  0  0  0  0  3  0  0  0  0  0  0
  -22.0600   -4.8250   22.5690 C   0  0  0  0  0  0  0  0  0  0  0  0
  -22.4710   -4.2520   21.4110 F   0  0  0  0  0  0  0  0  0  0  0  0
  -21.3720   -3.8680   26.0430 F   0  0  0  0  0  0  0  0  0  0  0  0
  -22.8590  -13.5600   21.2100 C   0  0  0  0  0  0  0  0  0  0  0  0
  -22.1910  -12.8420   22.1050 N   0  0  0  0  0  0  0  0  0  0  0  0
  -22.3870  -14.5970   20.7470 O   0  0  0  0  0  0  0  0  0  0  0  0
  -22.5860  -12.0010   22.5020 H   0  0  0  0  0  0  0  0  0  0  0  0
  -21.2700  -13.1360   22.3990 H   0  0  0  0  0  0  0  0  0  0  0  0
  -25.4370  -15.2500   20.2790 N   0  0  0  0  0  0  0  0  0  0  0  0
  -24.7270  -15.9150   20.5650 H   0  0  0  0  0  0  0  0  0  0  0  0
  -26.3640  -15.6580   20.1990 H   0  0  0  0  0  0  0  0  0  0  0  0
  -28.2710  -26.2900   20.0470 O   0  0  0  0  0  0  0  0  0  0  0  0
  -24.6610  -31.8840   23.2080 C   0  0  0  0  0  0  0  0  0  0  0  0
  -27.2070  -27.2570   20.0620 C   0  0  0  0  0  0  0  0  0  0  0  0
  -23.4330  -30.5040   21.5740 C   0  0  0  0  0  3  0  0  0  0  0  0
  -24.8610  -28.9580   20.1000 C   0  0  0  0  0  0  0  0  0  0  0  0
  -25.9780  -30.7940   21.3580 C   0  0  0  0  0  2  0  0  0  0  0  0
  -26.0470  -29.4140   20.6910 C   0  0  0  0  0  0  0  0  0  0  0  0
  -27.2230  -28.5780   20.6580 C   0  0  0  0  0  3  0  0  0  0  0  0
  -25.9960  -26.8940   19.4360 C   0  0  0  0  0  3  0  0  0  0  0  0
  -24.8440  -27.7090   19.4600 C   0  0  0  0  0  3  0  0  0  0  0  0
  -23.6280  -29.8450   20.1830 C   0  0  0  0  0  2  0  0  0  0  0  0
  -24.7110  -31.0800   22.1030 N   0  0  0  0  0  0  0  0  0  0  0  0
  -23.5850  -32.1560   23.7640 O   0  0  0  0  0  0  0  0  0  0  0  0
  -22.7800  -29.4800   22.5370 C   0  0  0  0  0  0  0  0  0  0  0  0
  -21.4510  -29.2980   22.4270 N   0  0  0  0  0  0  0  0  0  0  0  0
  -23.4690  -28.8530   23.3430 O   0  0  0  0  0  0  0  0  0  0  0  0
  -20.9510  -29.8550   21.7490 H   0  0  0  0  0  0  0  0  0  0  0  0
  -18.0920  -28.0460   22.9470 C   0  0  0  0  0  0  0  0  0  0  0  0
  -20.6490  -28.3480   23.2010 C   0  0  0  0  0  3  0  0  0  0  0  0
  -20.7690  -26.9180   22.6230 C   0  0  0  0  0  2  0  0  0  0  0  0
  -19.6660  -26.5800   21.6140 C   0  0  0  0  0  2  0  0  0  0  0  0
  -18.2870  -26.7020   22.2660 C   0  0  0  0  0  2  0  0  0  0  0  0
  -19.2020  -28.8260   23.3710 C   0  0  0  0  0  0  0  0  0  0  0  0
  -18.9660  -30.0820   23.9690 C   0  0  0  0  0  3  0  0  0  0  0  0
  -17.6530  -30.5610   24.1470 C   0  0  0  0  0  3  0  0  0  0  0  0
  -16.5590  -29.7790   23.7370 C   0  0  0  0  0  3  0  0  0  0  0  0
  -16.7800  -28.5240   23.1430 C   0  0  0  0  0  3  0  0  0  0  0  0
  -25.9510  -32.5140   23.8170 C   0  0  0  0  0  3  0  0  0  0  0  0
  -25.6450  -33.9110   24.1660 N   0  0  0  0  0  0  0  0  0  0  0  0
  -25.9610  -34.9720   23.4130 C   0  0  0  0  0  0  0  0  0  0  0  0
  -26.6090  -34.8800   22.3670 O   0  0  0  0  0  0  0  0  0  0  0  0
  -25.0700  -34.0550   24.9820 H   0  0  0  0  0  0  0  0  0  0  0  0
  -24.2220  -36.7680   23.1210 C   0  0  0  0  0  1  0  0  0  0  0  0
  -25.4840  -36.3570   23.8960 C   0  0  0  0  0  3  0  0  0  0  0  0
  -27.6390  -37.2390   24.6790 C   0  0  0  0  0  1  0  0  0  0  0  0
  -26.5130  -37.4130   23.7650 N   0  0  0  0  0  0  0  0  0  0  0  0
  -26.1100  -38.3310   23.9300 H   0  0  0  0  0  0  0  0  0  0  0  0
  -26.4840  -31.7350   25.0820 C   0  0  1  0  0  0  0  0  0  0  0  0
  -25.4050  -31.4980   26.1660 C   0  0  0  0  0  1  0  0  0  0  0  0
  -27.0570  -30.3580   24.6800 C   0  0  0  0  0  1  0  0  0  0  0  0
  -27.6460  -32.5230   25.7310 C   0  0  0  0  0  1  0  0  0  0  0  0
  1  4  1  0
  2  1  2  0
  3  2  1  0
  3  6  1  0
  5  4  1  0
  6  5  1  0
  7  3  2  0
  8 10  2  0
  8 12  1  0
  9 11  1  0
 10 13  1  0
 12 14  1  0
 12  9  2  0
 13  6  1  0
 13 11  2  0
 14 15  2  0
 15 16  1  0
 17 14  1  0
 18 23  1  0
 19 20  1  0
 19 18  1  0
 21 20  1  0
 21 28  1  0
 21 22  1  0
 23 17  1  0
 23 22  1  0
 24 17  2  0
 25 26  2  0
 26 45  1  0
 27 26  1  0
 27 30  1  0
 28 29  1  0
 28 25  1  0
 29 27  2  0
 30 31  1  0
 31 32  2  0
 33 36  1  0
 33 32  1  0
 34 33  2  0
 35 34  1  0
 35 30  2  0
 36 37  1  0
 37 38  1  0
 38 39  2  0
 40 39  1  0
 40 44  1  0
 41 40  2  0
 42 37  2  0
 42 41  1  0
 43 42  1  0
 45 46  1  0
 46 49  1  0
 46 48  1  0
 47 45  2  0
 50 25  1  0
 50 51  1  0
 52 50  1  0
 53 55  1  0
 53  2  1  0
 54 65  2  0
 55 60  1  0
 56 64  1  0
 56 66  1  0
 57 63  1  0
 57 59  1  0
 58 64  1  0
 59 58  1  0
 60 59  2  0
 61 62  1  0
 61 55  2  0
 62 57  2  0
 63 56  1  0
 64 54  1  0
 66 68  2  0
 67 66  1  0
 69 67  1  0
 70 79  2  0
 70 75  1  0
 71 67  1  0
 71 75  1  0
 72 71  1  0
 73 74  1  0
 73 72  1  0
 74 70  1  0
 75 76  2  0
 76 77  1  0
 78 77  2  0
 79 78  1  0
 80 54  1  0
 80 81  1  0
 80 90  1  0
 81 84  1  0
 82 86  1  0
 82 81  1  0
 83 82  2  0
 86 85  1  0
 88 86  1  0
 88 89  1  0
 88 87  1  0
 90 93  1  1
 90 91  1  0
 92 90  1  0
M  ISO  4   2 101  14 100  17 100  53 101
M  END
>  <TORSDO>  (21) 
F 18

>  <SCORE>  (21) 
-14.185

>  <name>  (21) 
20

>  <ligand_id>  (21) 
20

>  <original_smiles>  (21) 
[H]N=C(C(=O)N1C([H])([H])C([H])([H])C([H])([H])C([H])(n2nc(-c3c([H])c([H])c(Oc4c([H])c([H])c(F)c([H])c4F)c([H])c3[H])c(C(=O)N([H])[H])c2N([H])[H])C1([H])[H])c1c([H])c([H])c(N2C(=O)C(Oc3c([H])c([H])c4c(c3[H])C([H])([H])N(C(=O)C([H])(N([H])C(=O)C([H])(N([H])C([H])([H])[H])C([H])([H])[H])C(C([H])([H])[H])(C([H])([H])[H])C([H])([H])[H])C([H])(C(=O)N([H])C3([H])c5c([H])c([H])c([H])c([H])c5C([H])([H])C([H])([H])C3([H])[H])C4([H])[H])=C([H])C([H])([H])C2([H])[H])c([H])c1[H]

>  <smiles>  (21) 
[H]N=C(C(=O)N1C([H])([H])C([H])([H])C([H])([H])C([H])(n2nc(-c3c([H])c([H])c(Oc4c([H])c([H])c(F)c([H])c4F)c([H])c3[H])c(C(=O)N([H])[H])c2N([H])[H])C1([H])[H])c1c([H])c([H])c(N2C(=O)C(Oc3c([H])c([H])c4c(c3[H])C([H])([H])N(C(=O)C([H])(N([H])C(=O)C([H])(N([H])C([H])([H])[H])C([H])([H])[H])C(C([H])([H])[H])(C([H])([H])[H])C([H])([H])[H])C([H])(C(=O)N([H])C3([H])c5c([H])c([H])c([H])c([H])c5C([H])([H])C([H])([H])C3([H])[H])C4([H])[H])=C([H])C([H])([H])C2([H])[H])c([H])c1[H]

$$$$
21:0:0
     RDKit          3D

 93102  0  0  1  0  0  0  0  0999 V2000
  -28.9100  -23.9800   20.1980 C   0  0  0  0  0  0  0  0  0  0  0  0
  -30.2120  -23.8990   19.6010 C   0  0  0  0  0  0  0  0  0  0  0  0
  -28.5400  -22.5700   20.5170 C   0  0  0  0  0  0  0  0  0  0  0  0
  -30.9600  -24.9410   19.1960 C   0  0  0  0  0  2  0  0  0  0  0  0
  -28.1150  -25.0870   20.4450 C   0  0  0  0  0  3  0  0  0  0  0  0
  -30.6410  -22.4510   19.5150 C   0  0  0  0  0  2  0  0  0  0  0  0
  -29.5390  -21.6880   20.1290 N   0  0  0  0  0  0  0  0  0  0  0  0
  -27.4800  -22.2310   21.0530 O   0  0  0  0  0  0  0  0  0  0  0  0
  -28.6300  -19.3790   20.8520 C   0  0  0  0  0  3  0  0  0  0  0  0
  -30.7300  -19.4610   19.7180 C   0  0  0  0  0  3  0  0  0  0  0  0
  -28.7430  -17.9550   20.9310 C   0  0  0  0  0  3  0  0  0  0  0  0
  -30.8460  -18.0320   19.7950 C   0  0  0  0  0  3  0  0  0  0  0  0
  -29.6180  -20.2000   20.2360 C   0  0  0  0  0  0  0  0  0  0  0  0
  -29.8470  -17.2260   20.4060 C   0  0  0  0  0  0  0  0  0  0  0  0
  -30.6310  -14.7350   20.0310 C   0  0  0  0  0  0  0  0  0  0  0  0
  -30.3970  -12.5070   18.9320 C   0  0  0  0  0  2  0  0  0  0  0  0
  -29.3770  -12.6460   17.7780 C   0  0  0  0  0  2  0  0  0  0  0  0
  -27.9340  -12.4630   18.2900 C   0  0  0  0  0  2  0  0  0  0  0  0
  -27.6450  -13.2930   19.5690 C   0  0  0  0  0  3  0  0  0  0  0  0
  -28.7710  -13.1160   20.6130 C   0  0  0  0  0  2  0  0  0  0  0  0
  -30.0380  -13.4960   19.9700 N   0  0  0  0  0  0  0  0  0  0  0  0
  -31.7570  -14.9220   19.5570 O   0  0  0  0  0  0  0  0  0  0  0  0
  -29.8400  -15.7550   20.5130 N   0  0  0  0  0  0  0  0  0  0  0  0
  -29.0020  -15.3880   20.9370 H   0  0  0  0  0  0  0  0  0  0  0  0
  -25.3040  -13.8690   20.4580 C   0  0  0  0  0  0  0  0  0  0  0  0
  -24.2610  -13.0850   20.8680 C   0  0  0  0  0  0  0  0  0  0  0  0
  -24.7150  -11.7350   20.7610 C   0  0  0  0  0  0  0  0  0  0  0  0
  -26.3290  -12.9960   20.1270 N   0  0  0  0  0  0  0  0  0  0  0  0
  -25.9830  -11.7050   20.3680 N   0  0  0  0  0  0  0  0  0  0  0  0
  -23.9990  -10.4680   20.9530 C   0  0  0  0  0  0  0  0  0  0  0  0
  -24.4480   -9.4970   21.8760 C   0  0  0  0  0  3  0  0  0  0  0  0
  -23.7320   -8.2950   22.0580 C   0  0  0  0  0  3  0  0  0  0  0  0
  -22.5510   -8.0530   21.3150 C   0  0  0  0  0  0  0  0  0  0  0  0
  -22.1200   -9.0130   20.3810 C   0  0  0  0  0  3  0  0  0  0  0  0
  -22.8380  -10.2060   20.1980 C   0  0  0  0  0  3  0  0  0  0  0  0
  -21.8050   -6.9030   21.4050 O   0  0  0  0  0  0  0  0  0  0  0  0
  -21.7210   -6.1900   22.5740 C   0  0  0  0  0  0  0  0  0  0  0  0
  -21.2400   -6.7720   23.7680 C   0  0  0  0  0  3  0  0  0  0  0  0
  -21.1020   -5.9850   24.9290 C   0  0  0  0  0  3  0  0  0  0  0  0
  -21.4350   -4.6170   24.8970 C   0  0  0  0  0  0  0  0  0  0  0  0
  -21.9090   -4.0350   23.7070 C   0  0  0  0  0  3  0  0  0  0  0  0
  -22.0470   -4.8200   22.5490 C   0  0  0  0  0  0  0  0  0  0  0  0
  -22.4840   -4.2500   21.4000 F   0  0  0  0  0  0  0  0  0  0  0  0
  -21.2970   -3.8590   26.0090 F   0  0  0  0  0  0  0  0  0  0  0  0
  -22.8840  -13.5540   21.2440 C   0  0  0  0  0  0  0  0  0  0  0  0
  -22.2110  -12.8320   22.1330 N   0  0  0  0  0  0  0  0  0  0  0  0
  -22.4160  -14.5960   20.7850 O   0  0  0  0  0  0  0  0  0  0  0  0
  -22.6040  -11.9890   22.5260 H   0  0  0  0  0  0  0  0  0  0  0  0
  -21.2920  -13.1280   22.4270 H   0  0  0  0  0  0  0  0  0  0  0  0
  -25.4610  -15.2440   20.3170 N   0  0  0  0  0  0  0  0  0  0  0  0
  -24.7010  -15.8930   20.4890 H   0  0  0  0  0  0  0  0  0  0  0  0
  -26.2770  -15.6920   19.9150 H   0  0  0  0  0  0  0  0  0  0  0  0
  -28.3530  -26.4630   20.1800 O   0  0  0  0  0  0  0  0  0  0  0  0
  -24.6360  -31.8860   23.2280 C   0  0  0  0  0  0  0  0  0  0  0  0
  -27.2520  -27.3390   20.1520 C   0  0  0  0  0  0  0  0  0  0  0  0
  -23.4320  -30.4890   21.5870 C   0  0  0  0  0  3  0  0  0  0  0  0
  -24.8840  -28.9490   20.1490 C   0  0  0  0  0  0  0  0  0  0  0  0
  -25.9700  -30.8130   21.3980 C   0  0  0  0  0  2  0  0  0  0  0  0
  -26.0530  -29.4360   20.7490 C   0  0  0  0  0  0  0  0  0  0  0  0
  -27.2400  -28.6420   20.7450 C   0  0  0  0  0  3  0  0  0  0  0  0
  -26.0650  -26.9130   19.5180 C   0  0  0  0  0  3  0  0  0  0  0  0
  -24.8920  -27.6920   19.5250 C   0  0  0  0  0  3  0  0  0  0  0  0
  -23.6440  -29.8190   20.2040 C   0  0  0  0  0  2  0  0  0  0  0  0
  -24.6980  -31.0810   22.1270 N   0  0  0  0  0  0  0  0  0  0  0  0
  -23.5540  -32.1590   23.7680 O   0  0  0  0  0  0  0  0  0  0  0  0
  -22.7750  -29.4680   22.5460 C   0  0  0  0  0  0  0  0  0  0  0  0
  -21.4510  -29.2780   22.4130 N   0  0  0  0  0  0  0  0  0  0  0  0
  -23.4550  -28.8490   23.3680 O   0  0  0  0  0  0  0  0  0  0  0  0
  -20.9600  -29.8300   21.7220 H   0  0  0  0  0  0  0  0  0  0  0  0
  -18.0820  -28.0490   22.8970 C   0  0  0  0  0  0  0  0  0  0  0  0
  -20.6360  -28.3340   23.1810 C   0  0  0  0  0  3  0  0  0  0  0  0
  -20.7560  -26.9020   22.6100 C   0  0  0  0  0  2  0  0  0  0  0  0
  -19.6630  -26.5660   21.5900 C   0  0  0  0  0  2  0  0  0  0  0  0
  -18.2760  -26.6990   22.2260 C   0  0  0  0  0  2  0  0  0  0  0  0
  -19.1910  -28.8230   23.3320 C   0  0  0  0  0  0  0  0  0  0  0  0
  -18.9550  -30.0860   23.9180 C   0  0  0  0  0  3  0  0  0  0  0  0
  -17.6450  -30.5740   24.0760 C   0  0  0  0  0  3  0  0  0  0  0  0
  -16.5510  -29.7960   23.6580 C   0  0  0  0  0  3  0  0  0  0  0  0
  -16.7710  -28.5360   23.0740 C   0  0  0  0  0  3  0  0  0  0  0  0
  -25.9190  -32.5200   23.8490 C   0  0  0  0  0  3  0  0  0  0  0  0
  -25.6050  -33.9150   24.1890 N   0  0  0  0  0  0  0  0  0  0  0  0
  -25.9180  -34.9730   23.4280 C   0  0  0  0  0  0  0  0  0  0  0  0
  -26.5700  -34.8770   22.3850 O   0  0  0  0  0  0  0  0  0  0  0  0
  -25.0230  -34.0630   25.0000 H   0  0  0  0  0  0  0  0  0  0  0  0
  -24.1680  -36.7540   23.1180 C   0  0  0  0  0  1  0  0  0  0  0  0
  -25.4300  -36.3570   23.9000 C   0  0  0  0  0  3  0  0  0  0  0  0
  -27.5760  -37.2580   24.6830 C   0  0  0  0  0  1  0  0  0  0  0  0
  -26.4510  -37.4190   23.7640 N   0  0  0  0  0  0  0  0  0  0  0  0
  -26.0410  -38.3350   23.9220 H   0  0  0  0  0  0  0  0  0  0  0  0
  -26.4420  -31.7440   25.1200 C   0  0  1  0  0  0  0  0  0  0  0  0
  -25.3530  -31.4980   26.1910 C   0  0  0  0  0  1  0  0  0  0  0  0
  -27.0300  -30.3710   24.7220 C   0  0  0  0  0  1  0  0  0  0  0  0
  -27.5920  -32.5390   25.7830 C   0  0  0  0  0  1  0  0  0  0  0  0
  1  5  2  0
  1  3  1  0
  2  1  1  0
  3  8  2  0
  4  2  2  0
  6  2  1  0
  6  7  1  0
  7 13  1  0
  7  3  1  0
  9 11  1  0
 10 12  2  0
 10 13  1  0
 12 14  1  0
 13  9  2  0
 14 23  1  0
 14 11  2  0
 15 23  1  0
 16 21  1  0
 17 18  1  0
 17 16  1  0
 19 18  1  0
 19 28  1  0
 19 20  1  0
 21 15  1  0
 21 20  1  0
 22 15  2  0
 23 24  1  0
 25 26  2  0
 26 45  1  0
 27 26  1  0
 27 30  1  0
 28 29  1  0
 28 25  1  0
 29 27  2  0
 30 31  1  0
 31 32  2  0
 33 36  1  0
 33 32  1  0
 34 33  2  0
 35 34  1  0
 35 30  2  0
 36 37  1  0
 37 38  1  0
 38 39  2  0
 40 39  1  0
 40 44  1  0
 41 40  2  0
 42 37  2  0
 42 41  1  0
 43 42  1  0
 45 46  1  0
 46 49  1  0
 46 48  1  0
 47 45  2  0
 50 25  1  0
 50 51  1  0
 52 50  1  0
 53  5  1  0
 54 65  2  0
 55 53  1  0
 55 60  1  0
 56 64  1  0
 56 66  1  0
 57 63  1  0
 57 59  1  0
 58 64  1  0
 59 58  1  0
 60 59  2  0
 61 62  1  0
 61 55  2  0
 62 57  2  0
 63 56  1  0
 64 54  1  0
 66 68  2  0
 67 66  1  0
 69 67  1  0
 70 79  2  0
 70 75  1  0
 71 67  1  0
 71 75  1  0
 72 71  1  0
 73 74  1  0
 73 72  1  0
 74 70  1  0
 75 76  2  0
 76 77  1  0
 78 77  2  0
 79 78  1  0
 80 54  1  0
 80 81  1  0
 80 90  1  0
 81 84  1  0
 82 86  1  0
 82 81  1  0
 83 82  2  0
 86 85  1  0
 88 86  1  0
 88 89  1  0
 88 87  1  0
 90 93  1  1
 90 91  1  0
 92 90  1  0
M  ISO  4   5 101  15 100  23 100  53 101
M  END
>  <TORSDO>  (22) 
F 17

>  <SCORE>  (22) 
-14.716

>  <name>  (22) 
21

>  <ligand_id>  (22) 
21

>  <original_smiles>  (22) 
[H]C([H])=C1C(=C([H])Oc2c([H])c([H])c3c(c2[H])C([H])([H])N(C(=O)C([H])(N([H])C(=O)C([H])(N([H])C([H])([H])[H])C([H])([H])[H])C(C([H])([H])[H])(C([H])([H])[H])C([H])([H])[H])C([H])(C(=O)N([H])C2([H])c4c([H])c([H])c([H])c([H])c4C([H])([H])C([H])([H])C2([H])[H])C3([H])[H])C(=O)N(c2c([H])c([H])c(N([H])C(=O)N3C([H])([H])C([H])([H])C([H])([H])C([H])(n4nc(-c5c([H])c([H])c(Oc6c([H])c([H])c(F)c([H])c6F)c([H])c5[H])c(C(=O)N([H])[H])c4N([H])[H])C3([H])[H])c([H])c2[H])C1([H])[H]

>  <smiles>  (22) 
[H]C([H])=C1C(=C([H])Oc2c([H])c([H])c3c(c2[H])C([H])([H])N(C(=O)C([H])(N([H])C(=O)C([H])(N([H])C([H])([H])[H])C([H])([H])[H])C(C([H])([H])[H])(C([H])([H])[H])C([H])([H])[H])C([H])(C(=O)N([H])C2([H])c4c([H])c([H])c([H])c([H])c4C([H])([H])C([H])([H])C2([H])[H])C3([H])[H])C(=O)N(c2c([H])c([H])c(N([H])C(=O)N3C([H])([H])C([H])([H])C([H])([H])C([H])(n4nc(-c5c([H])c([H])c(Oc6c([H])c([H])c(F)c([H])c6F)c([H])c5[H])c(C(=O)N([H])[H])c4N([H])[H])C3([H])[H])c([H])c2[H])C1([H])[H]

$$$$
22:0:0
     RDKit          3D

 99108  0  0  1  0  0  0  0  0999 V2000
  -29.4470  -18.7060   20.5830 C   0  0  0  0  0  3  0  0  0  0  0  0
  -31.5030  -17.8080   19.6820 C   0  0  0  0  0  3  0  0  0  0  0  0
  -31.1750  -20.2550   19.7720 C   0  0  0  0  0  0  0  0  0  0  0  0
  -30.2510  -17.5080   20.2690 C   0  0  0  0  0  0  0  0  0  0  0  0
  -29.8740  -20.0950   20.3310 C   0  0  0  0  0  0  0  0  0  0  0  0
  -31.9520  -19.1180   19.4410 C   0  0  0  0  0  0  0  0  0  0  0  0
  -33.1800  -19.2750   18.8860 F   0  0  0  0  0  0  0  0  0  0  0  0
  -30.5640  -14.8460   20.2890 C   0  0  0  0  0  0  0  0  0  0  0  0
  -30.3160  -12.5400   19.3210 C   0  0  0  0  0  2  0  0  0  0  0  0
  -29.3630  -12.5720   18.1070 C   0  0  0  0  0  2  0  0  0  0  0  0
  -27.9070  -12.3920   18.5700 C   0  0  0  0  0  2  0  0  0  0  0  0
  -27.5450  -13.2930   19.7810 C   0  0  0  0  0  3  0  0  0  0  0  0
  -28.6300  -13.2620   20.8830 C   0  0  0  0  0  2  0  0  0  0  0  0
  -29.9020  -13.6270   20.2480 N   0  0  0  0  0  0  0  0  0  0  0  0
  -31.7540  -14.8470   19.9710 O   0  0  0  0  0  0  0  0  0  0  0  0
  -29.8590  -16.0560   20.4880 N   0  0  0  0  0  0  0  0  0  0  0  0
  -28.8980  -15.9140   20.7570 H   0  0  0  0  0  0  0  0  0  0  0  0
  -25.1830  -13.8710   20.5800 C   0  0  0  0  0  0  0  0  0  0  0  0
  -24.1220  -13.0930   20.9570 C   0  0  0  0  0  0  0  0  0  0  0  0
  -24.5820  -11.7410   20.8940 C   0  0  0  0  0  0  0  0  0  0  0  0
  -26.2160  -12.9930   20.3040 N   0  0  0  0  0  0  0  0  0  0  0  0
  -25.8660  -11.7050   20.5580 N   0  0  0  0  0  0  0  0  0  0  0  0
  -23.8550  -10.4780   21.0760 C   0  0  0  0  0  0  0  0  0  0  0  0
  -24.2940   -9.4980   21.9920 C   0  0  0  0  0  3  0  0  0  0  0  0
  -23.5680   -8.3000   22.1630 C   0  0  0  0  0  3  0  0  0  0  0  0
  -22.3850   -8.0740   21.4190 C   0  0  0  0  0  0  0  0  0  0  0  0
  -21.9640   -9.0420   20.4910 C   0  0  0  0  0  3  0  0  0  0  0  0
  -22.6920  -10.2320   20.3180 C   0  0  0  0  0  3  0  0  0  0  0  0
  -21.6280   -6.9290   21.5010 O   0  0  0  0  0  0  0  0  0  0  0  0
  -21.5760   -6.1820   22.6490 C   0  0  0  0  0  0  0  0  0  0  0  0
  -21.1080   -6.7200   23.8690 C   0  0  0  0  0  3  0  0  0  0  0  0
  -21.0060   -5.8980   25.0090 C   0  0  0  0  0  3  0  0  0  0  0  0
  -21.3630   -4.5380   24.9300 C   0  0  0  0  0  0  0  0  0  0  0  0
  -21.8230   -3.9990   23.7170 C   0  0  0  0  0  3  0  0  0  0  0  0
  -21.9280   -4.8180   22.5790 C   0  0  0  0  0  0  0  0  0  0  0  0
  -22.3530   -4.2900   21.4060 F   0  0  0  0  0  0  0  0  0  0  0  0
  -21.2570   -3.7440   26.0220 F   0  0  0  0  0  0  0  0  0  0  0  0
  -22.7340  -13.5720   21.2640 C   0  0  0  0  0  0  0  0  0  0  0  0
  -22.0140  -12.8580   22.1220 N   0  0  0  0  0  0  0  0  0  0  0  0
  -22.2970  -14.6140   20.7780 O   0  0  0  0  0  0  0  0  0  0  0  0
  -22.3780  -12.0120   22.5340 H   0  0  0  0  0  0  0  0  0  0  0  0
  -21.0860  -13.1670   22.3770 H   0  0  0  0  0  0  0  0  0  0  0  0
  -25.3490  -15.2450   20.4220 N   0  0  0  0  0  0  0  0  0  0  0  0
  -24.5850  -15.8970   20.5620 H   0  0  0  0  0  0  0  0  0  0  0  0
  -26.1860  -15.6840   20.0610 H   0  0  0  0  0  0  0  0  0  0  0  0
  -34.1150  -22.8310   18.6740 C   0  0  0  0  0  0  0  0  0  0  0  0
  -34.9630  -23.8310   18.3770 C   0  0  0  0  0  2  0  0  0  0  0  0
  -34.0680  -22.1700   20.0440 C   0  0  0  0  0  2  0  0  0  0  0  0
  -33.1390  -22.2620   17.6570 C   0  0  0  0  0  2  0  0  0  0  0  0
  -32.6300  -22.0840   20.5860 C   0  0  0  0  0  2  0  0  0  0  0  0
  -31.7190  -22.0970   18.2270 C   0  0  0  0  0  2  0  0  0  0  0  0
  -31.7150  -21.5440   19.5790 N   0  0  0  0  0  0  0  0  0  0  0  0
  -28.6850  -22.4140   19.9720 C   0  0  0  0  0  0  0  0  0  0  0  0
  -29.1760  -21.3630   20.7490 N   0  0  0  0  0  0  0  0  0  0  0  0
  -28.2520  -22.1650   18.8450 O   0  0  0  0  0  0  0  0  0  0  0  0
  -29.3770  -21.6250   21.7050 H   0  0  0  0  0  0  0  0  0  0  0  0
  -28.6700  -23.8260   20.5400 C   0  0  0  0  0  3  0  0  0  0  0  0
  -28.1650  -24.9530   19.8800 C   0  0  0  0  0  3  0  0  0  0  0  0
  -28.2190  -26.3410   20.2600 O   0  0  0  0  0  0  0  0  0  0  0  0
  -24.6030  -31.8900   23.2370 C   0  0  0  0  0  0  0  0  0  0  0  0
  -27.1300  -27.2510   20.1550 C   0  0  0  0  0  0  0  0  0  0  0  0
  -23.3730  -30.5150   21.5950 C   0  0  0  0  0  3  0  0  0  0  0  0
  -24.7950  -28.9400   20.1540 C   0  0  0  0  0  0  0  0  0  0  0  0
  -25.9210  -30.7790   21.4090 C   0  0  0  0  0  2  0  0  0  0  0  0
  -25.9750  -29.3980   20.7530 C   0  0  0  0  0  0  0  0  0  0  0  0
  -27.1400  -28.5620   20.7480 C   0  0  0  0  0  3  0  0  0  0  0  0
  -25.9330  -26.8740   19.5100 C   0  0  0  0  0  3  0  0  0  0  0  0
  -24.7810  -27.6880   19.5200 C   0  0  0  0  0  3  0  0  0  0  0  0
  -23.5750  -29.8410   20.2120 C   0  0  0  0  0  2  0  0  0  0  0  0
  -24.6520  -31.0800   22.1370 N   0  0  0  0  0  0  0  0  0  0  0  0
  -23.5240  -32.1800   23.7760 O   0  0  0  0  0  0  0  0  0  0  0  0
  -22.6980  -29.5070   22.5580 C   0  0  0  0  0  0  0  0  0  0  0  0
  -21.3690  -29.3400   22.4290 N   0  0  0  0  0  0  0  0  0  0  0  0
  -23.3690  -28.8800   23.3810 O   0  0  0  0  0  0  0  0  0  0  0  0
  -20.8880  -29.8950   21.7360 H   0  0  0  0  0  0  0  0  0  0  0  0
  -17.9840  -28.1650   22.9380 C   0  0  0  0  0  0  0  0  0  0  0  0
  -20.5440  -28.4120   23.2000 C   0  0  0  0  0  3  0  0  0  0  0  0
  -20.6370  -26.9790   22.6270 C   0  0  0  0  0  2  0  0  0  0  0  0
  -19.5300  -26.6630   21.6160 C   0  0  0  0  0  2  0  0  0  0  0  0
  -18.1500  -26.8150   22.2610 C   0  0  0  0  0  2  0  0  0  0  0  0
  -19.1070  -28.9220   23.3630 C   0  0  0  0  0  0  0  0  0  0  0  0
  -18.8980  -30.1840   23.9610 C   0  0  0  0  0  3  0  0  0  0  0  0
  -17.5960  -30.6920   24.1330 C   0  0  0  0  0  3  0  0  0  0  0  0
  -16.4850  -29.9350   23.7190 C   0  0  0  0  0  3  0  0  0  0  0  0
  -16.6810  -28.6730   23.1290 C   0  0  0  0  0  3  0  0  0  0  0  0
  -25.8970  -32.5060   23.8550 C   0  0  0  0  0  3  0  0  0  0  0  0
  -26.4190  -31.7180   25.1170 C   0  0  1  0  0  0  0  0  0  0  0  0
  -25.3380  -31.4770   26.1960 C   0  0  0  0  0  1  0  0  0  0  0  0
  -26.9910  -30.3410   24.7100 C   0  0  0  0  0  1  0  0  0  0  0  0
  -27.5800  -32.4970   25.7770 C   0  0  0  0  0  1  0  0  0  0  0  0
  -25.6010  -33.9050   24.2040 N   0  0  0  0  0  0  0  0  0  0  0  0
  -25.9110  -34.9650   23.4460 C   0  0  0  0  0  0  0  0  0  0  0  0
  -26.5450  -34.8670   22.3900 O   0  0  0  0  0  0  0  0  0  0  0  0
  -25.0440  -34.0550   25.0320 H   0  0  0  0  0  0  0  0  0  0  0  0
  -24.1820  -36.7710   23.1640 C   0  0  0  0  0  1  0  0  0  0  0  0
  -25.4460  -36.3510   23.9330 C   0  0  0  0  0  3  0  0  0  0  0  0
  -27.6020  -37.2240   24.7120 C   0  0  0  0  0  1  0  0  0  0  0  0
  -26.4790  -37.4000   23.7960 N   0  0  0  0  0  0  0  0  0  0  0  0
  -26.0810  -38.3210   23.9580 H   0  0  0  0  0  0  0  0  0  0  0  0
  2  4  1  0
  3  5  2  0
  4 16  1  0
  4  1  2  0
  5  1  1  0
  5 54  1  0
  6  2  2  0
  6  3  1  0
  7  6  1  0
  8 16  1  0
  9 14  1  0
 10 11  1  0
 10  9  1  0
 12 11  1  0
 12 21  1  0
 12 13  1  0
 14  8  1  0
 14 13  1  0
 15  8  2  0
 16 17  1  0
 18 19  2  0
 19 38  1  0
 20 19  1  0
 20 23  1  0
 21 22  1  0
 21 18  1  0
 22 20  2  0
 23 24  1  0
 24 25  2  0
 26 29  1  0
 26 25  1  0
 27 26  2  0
 28 27  1  0
 28 23  2  0
 29 30  1  0
 30 31  1  0
 31 32  2  0
 33 32  1  0
 33 37  1  0
 34 33  2  0
 35 30  2  0
 35 34  1  0
 36 35  1  0
 38 39  1  0
 39 42  1  0
 39 41  1  0
 40 38  2  0
 43 44  1  0
 43 18  1  0
 45 43  1  0
 46 48  1  0
 47 46  2  0
 48 50  1  0
 49 51  1  0
 49 46  1  0
 51 52  1  0
 52  3  1  0
 52 50  1  0
 53 57  1  0
 53 54  1  0
 54 56  1  0
 55 53  2  0
 58 59  1  0
 58 57  2  0
 60 71  2  0
 61 59  1  0
 61 66  1  0
 62 70  1  0
 62 72  1  0
 63 69  1  0
 63 65  1  0
 64 70  1  0
 65 64  1  0
 66 65  2  0
 67 68  1  0
 67 61  2  0
 68 63  2  0
 69 62  1  0
 70 60  1  0
 72 74  2  0
 73 72  1  0
 75 73  1  0
 76 85  2  0
 76 81  1  0
 77 73  1  0
 77 81  1  0
 78 77  1  0
 79 80  1  0
 79 78  1  0
 80 76  1  0
 81 82  2  0
 82 83  1  0
 84 83  2  0
 85 84  1  0
 86 60  1  0
 86 91  1  0
 86 87  1  0
 87 90  1  1
 87 88  1  0
 89 87  1  0
 91 94  1  0
 92 96  1  0
 92 91  1  0
 93 92  2  0
 96 95  1  0
 98 96  1  0
 98 99  1  0
 98 97  1  0
M  ISO  4   8 100  16 100  58 101  59 101
M  END
>  <TORSDO>  (23) 
F 19

>  <SCORE>  (23) 
-14.356

>  <name>  (23) 
22

>  <ligand_id>  (23) 
22

>  <original_smiles>  (23) 
[H]C([H])=C1C([H])([H])C([H])([H])N(c2c(F)c([H])c(N([H])C(=O)N3C([H])([H])C([H])([H])C([H])([H])C([H])(n4nc(-c5c([H])c([H])c(Oc6c([H])c([H])c(F)c([H])c6F)c([H])c5[H])c(C(=O)N([H])[H])c4N([H])[H])C3([H])[H])c([H])c2N([H])C(=O)C([H])=C([H])Oc2c([H])c([H])c3c(c2[H])C([H])([H])N(C(=O)C([H])(N([H])C(=O)C([H])(N([H])C([H])([H])[H])C([H])([H])[H])C(C([H])([H])[H])(C([H])([H])[H])C([H])([H])[H])C([H])(C(=O)N([H])C2([H])c4c([H])c([H])c([H])c([H])c4C([H])([H])C([H])([H])C2([H])[H])C3([H])[H])C([H])([H])C1([H])[H]

>  <smiles>  (23) 
[H]C([H])=C1C([H])([H])C([H])([H])N(c2c(F)c([H])c(N([H])C(=O)N3C([H])([H])C([H])([H])C([H])([H])C([H])(n4nc(-c5c([H])c([H])c(Oc6c([H])c([H])c(F)c([H])c6F)c([H])c5[H])c(C(=O)N([H])[H])c4N([H])[H])C3([H])[H])c([H])c2N([H])C(=O)C([H])=C([H])Oc2c([H])c([H])c3c(c2[H])C([H])([H])N(C(=O)C([H])(N([H])C(=O)C([H])(N([H])C([H])([H])[H])C([H])([H])[H])C(C([H])([H])[H])(C([H])([H])[H])C([H])([H])[H])C([H])(C(=O)N([H])C2([H])c4c([H])c([H])c([H])c([H])c4C([H])([H])C([H])([H])C2([H])[H])C3([H])[H])C([H])([H])C1([H])[H]

$$$$
23:0:0
     RDKit          3D

 92101  0  0  1  0  0  0  0  0999 V2000
  -28.6590  -23.7020   20.0630 C   0  0  0  0  0  0  0  0  0  0  0  0
  -28.4620  -22.4000   19.4000 C   0  0  0  0  0  0  0  0  0  0  0  0
  -28.1670  -24.9700   19.7030 C   0  0  0  0  0  3  0  0  0  0  0  0
  -29.5550  -22.9720   21.0960 C   0  0  0  0  0  2  0  0  0  0  0  0
  -29.1840  -21.6910   20.3970 N   0  0  0  0  0  0  0  0  0  0  0  0
  -27.9530  -22.1280   18.3320 O   0  0  0  0  0  0  0  0  0  0  0  0
  -32.1300  -19.2930   20.9510 C   0  0  0  0  0  3  0  0  0  0  0  0
  -31.6150  -17.9870   20.8580 C   0  0  0  0  0  3  0  0  0  0  0  0
  -31.3130  -20.4340   20.8010 C   0  0  0  0  0  3  0  0  0  0  0  0
  -29.4510  -18.9880   20.4310 C   0  0  0  0  0  3  0  0  0  0  0  0
  -30.2500  -17.7540   20.5960 C   0  0  0  0  0  0  0  0  0  0  0  0
  -29.9240  -20.3800   20.5300 C   0  0  0  0  0  0  0  0  0  0  0  0
  -29.6820  -16.2720   20.6140 C   0  0  0  0  0  0  0  0  0  0  0  0
  -28.4440  -16.1950   20.8640 N   0  0  0  0  0  0  0  0  0  0  0  0
  -28.1590  -15.2250   20.8760 H   0  0  0  0  0  0  0  0  0  0  0  0
  -30.5580  -14.9000   20.3170 C   0  0  0  0  0  0  0  0  0  0  0  0
  -30.3980  -12.6000   19.3000 C   0  0  0  0  0  2  0  0  0  0  0  0
  -29.4390  -12.6280   18.0850 C   0  0  0  0  0  2  0  0  0  0  0  0
  -27.9770  -12.4120   18.5280 C   0  0  0  0  0  2  0  0  0  0  0  0
  -27.6000  -13.2870   19.7490 C   0  0  0  0  0  3  0  0  0  0  0  0
  -28.6790  -13.2020   20.8540 C   0  0  0  0  0  2  0  0  0  0  0  0
  -29.9510  -13.6450   20.2620 N   0  0  0  0  0  0  0  0  0  0  0  0
  -31.7410  -14.9780   19.9680 O   0  0  0  0  0  0  0  0  0  0  0  0
  -25.2240  -13.8640   20.5180 C   0  0  0  0  0  0  0  0  0  0  0  0
  -24.1670  -13.0810   20.8940 C   0  0  0  0  0  0  0  0  0  0  0  0
  -24.6400  -11.7340   20.8510 C   0  0  0  0  0  0  0  0  0  0  0  0
  -26.2680  -12.9900   20.2610 N   0  0  0  0  0  0  0  0  0  0  0  0
  -25.9270  -11.7050   20.5260 N   0  0  0  0  0  0  0  0  0  0  0  0
  -23.9260  -10.4660   21.0440 C   0  0  0  0  0  0  0  0  0  0  0  0
  -24.3760   -9.4990   21.9680 C   0  0  0  0  0  3  0  0  0  0  0  0
  -23.6610   -8.2940   22.1480 C   0  0  0  0  0  3  0  0  0  0  0  0
  -22.4820   -8.0500   21.4030 C   0  0  0  0  0  0  0  0  0  0  0  0
  -22.0520   -9.0080   20.4680 C   0  0  0  0  0  3  0  0  0  0  0  0
  -22.7670  -10.2030   20.2860 C   0  0  0  0  0  3  0  0  0  0  0  0
  -21.7370   -6.9010   21.4930 O   0  0  0  0  0  0  0  0  0  0  0  0
  -21.7020   -6.1540   22.6440 C   0  0  0  0  0  0  0  0  0  0  0  0
  -21.2640   -6.6970   23.8710 C   0  0  0  0  0  3  0  0  0  0  0  0
  -21.1760   -5.8750   25.0120 C   0  0  0  0  0  3  0  0  0  0  0  0
  -21.5190   -4.5120   24.9270 C   0  0  0  0  0  0  0  0  0  0  0  0
  -21.9510   -3.9700   23.7040 C   0  0  0  0  0  3  0  0  0  0  0  0
  -22.0390   -4.7880   22.5650 C   0  0  0  0  0  0  0  0  0  0  0  0
  -22.4370   -4.2550   21.3850 F   0  0  0  0  0  0  0  0  0  0  0  0
  -21.4270   -3.7200   26.0210 F   0  0  0  0  0  0  0  0  0  0  0  0
  -22.7700  -13.5480   21.1870 C   0  0  0  0  0  0  0  0  0  0  0  0
  -22.0620  -12.8460   22.0640 N   0  0  0  0  0  0  0  0  0  0  0  0
  -22.3170  -14.5700   20.6730 O   0  0  0  0  0  0  0  0  0  0  0  0
  -22.4430  -12.0200   22.5010 H   0  0  0  0  0  0  0  0  0  0  0  0
  -21.1250  -13.1400   22.3040 H   0  0  0  0  0  0  0  0  0  0  0  0
  -25.3760  -15.2390   20.3580 N   0  0  0  0  0  0  0  0  0  0  0  0
  -24.6150  -15.8850   20.5370 H   0  0  0  0  0  0  0  0  0  0  0  0
  -26.2550  -15.7130   20.1720 H   0  0  0  0  0  0  0  0  0  0  0  0
  -28.2870  -26.3140   20.2190 O   0  0  0  0  0  0  0  0  0  0  0  0
  -24.6310  -31.8940   23.2400 C   0  0  0  0  0  0  0  0  0  0  0  0
  -27.2060  -27.2540   20.1510 C   0  0  0  0  0  0  0  0  0  0  0  0
  -23.4210  -30.5100   21.5980 C   0  0  0  0  0  3  0  0  0  0  0  0
  -24.8620  -28.9580   20.1580 C   0  0  0  0  0  0  0  0  0  0  0  0
  -25.9720  -30.7920   21.4200 C   0  0  0  0  0  2  0  0  0  0  0  0
  -26.0430  -29.4100   20.7590 C   0  0  0  0  0  0  0  0  0  0  0  0
  -27.2140  -28.5710   20.7470 C   0  0  0  0  0  3  0  0  0  0  0  0
  -25.9860  -26.8870   19.5310 C   0  0  0  0  0  3  0  0  0  0  0  0
  -24.8430  -27.7060   19.5330 C   0  0  0  0  0  3  0  0  0  0  0  0
  -23.6330  -29.8460   20.2140 C   0  0  0  0  0  2  0  0  0  0  0  0
  -24.6950  -31.0850   22.1410 N   0  0  0  0  0  0  0  0  0  0  0  0
  -23.5480  -32.1750   23.7750 O   0  0  0  0  0  0  0  0  0  0  0  0
  -22.7510  -29.4930   22.5540 C   0  0  0  0  0  0  0  0  0  0  0  0
  -21.4240  -29.3170   22.4260 N   0  0  0  0  0  0  0  0  0  0  0  0
  -23.4260  -28.8650   23.3740 O   0  0  0  0  0  0  0  0  0  0  0  0
  -20.9370  -29.8750   21.7390 H   0  0  0  0  0  0  0  0  0  0  0  0
  -18.0450  -28.1150   22.9240 C   0  0  0  0  0  0  0  0  0  0  0  0
  -20.6040  -28.3770   23.1940 C   0  0  0  0  0  3  0  0  0  0  0  0
  -20.7060  -26.9460   22.6160 C   0  0  0  0  0  2  0  0  0  0  0  0
  -19.6050  -26.6250   21.6010 C   0  0  0  0  0  2  0  0  0  0  0  0
  -18.2240  -26.7670   22.2450 C   0  0  0  0  0  2  0  0  0  0  0  0
  -19.1630  -28.8780   23.3560 C   0  0  0  0  0  0  0  0  0  0  0  0
  -18.9420  -30.1370   23.9520 C   0  0  0  0  0  3  0  0  0  0  0  0
  -17.6360  -30.6360   24.1200 C   0  0  0  0  0  3  0  0  0  0  0  0
  -16.5330  -29.8710   23.7040 C   0  0  0  0  0  3  0  0  0  0  0  0
  -16.7380  -28.6120   23.1110 C   0  0  0  0  0  3  0  0  0  0  0  0
  -25.9140  -32.5230   23.8630 C   0  0  0  0  0  3  0  0  0  0  0  0
  -25.6070  -33.9210   24.2000 N   0  0  0  0  0  0  0  0  0  0  0  0
  -25.9230  -34.9760   23.4370 C   0  0  0  0  0  0  0  0  0  0  0  0
  -26.5710  -34.8750   22.3920 O   0  0  0  0  0  0  0  0  0  0  0  0
  -25.0280  -34.0720   25.0120 H   0  0  0  0  0  0  0  0  0  0  0  0
  -24.1820  -36.7670   23.1310 C   0  0  0  0  0  1  0  0  0  0  0  0
  -25.4460  -36.3650   23.9070 C   0  0  0  0  0  3  0  0  0  0  0  0
  -27.5980  -37.2590   24.6810 C   0  0  0  0  0  1  0  0  0  0  0  0
  -26.4730  -37.4200   23.7640 N   0  0  0  0  0  0  0  0  0  0  0  0
  -26.0670  -38.3400   23.9160 H   0  0  0  0  0  0  0  0  0  0  0  0
  -26.4260  -31.7470   25.1390 C   0  0  1  0  0  0  0  0  0  0  0  0
  -25.3320  -31.5130   26.2070 C   0  0  0  0  0  1  0  0  0  0  0  0
  -27.0040  -30.3670   24.7490 C   0  0  0  0  0  1  0  0  0  0  0  0
  -27.5800  -32.5360   25.8020 C   0  0  0  0  0  1  0  0  0  0  0  0
  1  4  1  0
  2  1  1  0
  2  5  1  0
  3  1  2  0
  3 52  1  0
  5 12  1  0
  5  4  1  0
  6  2  2  0
  8  7  1  0
  9  7  2  0
 10 12  2  0
 10 11  1  0
 11 13  1  0
 11  8  2  0
 12  9  1  0
 13 14  2  0
 14 15  1  0
 16 13  1  0
 17 22  1  0
 18 19  1  0
 18 17  1  0
 20 19  1  0
 20 27  1  0
 20 21  1  0
 22 16  1  0
 22 21  1  0
 23 16  2  0
 24 25  2  0
 25 44  1  0
 26 25  1  0
 26 29  1  0
 27 24  1  0
 27 28  1  0
 28 26  2  0
 29 30  1  0
 30 31  2  0
 32 35  1  0
 32 31  1  0
 33 32  2  0
 34 33  1  0
 34 29  2  0
 35 36  1  0
 36 37  1  0
 37 38  2  0
 39 38  1  0
 39 43  1  0
 40 39  2  0
 41 36  2  0
 41 40  1  0
 42 41  1  0
 44 45  1  0
 45 48  1  0
 45 47  1  0
 46 44  2  0
 49 24  1  0
 49 50  1  0
 51 49  1  0
 53 64  2  0
 54 52  1  0
 54 59  1  0
 55 63  1  0
 55 65  1  0
 56 62  1  0
 56 58  1  0
 57 63  1  0
 58 57  1  0
 59 58  2  0
 60 61  1  0
 60 54  2  0
 61 56  2  0
 62 55  1  0
 63 53  1  0
 65 67  2  0
 66 65  1  0
 68 66  1  0
 69 78  2  0
 69 74  1  0
 70 66  1  0
 70 74  1  0
 71 70  1  0
 72 73  1  0
 72 71  1  0
 73 69  1  0
 74 75  2  0
 75 76  1  0
 77 76  2  0
 78 77  1  0
 79 53  1  0
 79 80  1  0
 79 89  1  0
 80 83  1  0
 81 85  1  0
 81 80  1  0
 82 81  2  0
 85 84  1  0
 87 85  1  0
 87 88  1  0
 87 86  1  0
 89 92  1  1
 89 90  1  0
 91 89  1  0
M  ISO  4   3 101  13 100  16 100  52 101
M  END
>  <TORSDO>  (24) 
F 18

>  <SCORE>  (24) 
-14.920

>  <name>  (24) 
23

>  <ligand_id>  (24) 
23

>  <original_smiles>  (24) 
[H]N=C(C(=O)N1C([H])([H])C([H])([H])C([H])([H])C([H])(n2nc(-c3c([H])c([H])c(Oc4c([H])c([H])c(F)c([H])c4F)c([H])c3[H])c(C(=O)N([H])[H])c2N([H])[H])C1([H])[H])c1c([H])c([H])c([H])c(N2C(=O)C(=C([H])Oc3c([H])c([H])c4c(c3[H])C([H])([H])N(C(=O)C([H])(N([H])C(=O)C([H])(N([H])C([H])([H])[H])C([H])([H])[H])C(C([H])([H])[H])(C([H])([H])[H])C([H])([H])[H])C([H])(C(=O)N([H])C3([H])c5c([H])c([H])c([H])c([H])c5C([H])([H])C([H])([H])C3([H])[H])C4([H])[H])C2([H])[H])c1[H]

>  <smiles>  (24) 
[H]N=C(C(=O)N1C([H])([H])C([H])([H])C([H])([H])C([H])(n2nc(-c3c([H])c([H])c(Oc4c([H])c([H])c(F)c([H])c4F)c([H])c3[H])c(C(=O)N([H])[H])c2N([H])[H])C1([H])[H])c1c([H])c([H])c([H])c(N2C(=O)C(=C([H])Oc3c([H])c([H])c4c(c3[H])C([H])([H])N(C(=O)C([H])(N([H])C(=O)C([H])(N([H])C([H])([H])[H])C([H])([H])[H])C(C([H])([H])[H])(C([H])([H])[H])C([H])([H])[H])C([H])(C(=O)N([H])C3([H])c5c([H])c([H])c([H])c([H])c5C([H])([H])C([H])([H])C3([H])[H])C4([H])[H])C2([H])[H])c1[H]

$$$$
24:0:0
     RDKit          3D

 93102  0  0  1  0  0  0  0  0999 V2000
  -28.8770  -24.1930   19.1100 C   0  0  0  0  0  0  0  0  0  0  0  0
  -29.1490  -23.5970   17.8260 C   0  0  0  0  0  0  0  0  0  0  0  0
  -29.0560  -23.0620   20.0850 C   0  0  0  0  0  0  0  0  0  0  0  0
  -28.8930  -24.1330   16.6160 C   0  0  0  0  0  2  0  0  0  0  0  0
  -28.5540  -25.5440   19.2120 C   0  0  0  0  0  3  0  0  0  0  0  0
  -29.6970  -22.2200   17.9950 C   0  0  0  0  0  2  0  0  0  0  0  0
  -29.4940  -21.9170   19.4130 N   0  0  0  0  0  0  0  0  0  0  0  0
  -28.8550  -23.1120   21.3020 O   0  0  0  0  0  0  0  0  0  0  0  0
  -30.9360  -18.3500   19.2830 C   0  0  0  0  0  3  0  0  0  0  0  0
  -29.0730  -18.2860   20.7780 C   0  0  0  0  0  3  0  0  0  0  0  0
  -30.7950  -19.7660   19.1780 C   0  0  0  0  0  3  0  0  0  0  0  0
  -28.9410  -19.7180   20.6850 C   0  0  0  0  0  3  0  0  0  0  0  0
  -30.0420  -17.5430   20.0330 C   0  0  0  0  0  0  0  0  0  0  0  0
  -29.7590  -20.5060   19.8230 C   0  0  0  0  0  0  0  0  0  0  0  0
  -29.0710  -15.9580   18.5610 C   0  0  0  0  0  2  0  0  0  0  0  0
  -29.8710  -16.0670   19.6380 C   0  0  0  0  0  0  0  0  0  0  0  0
  -30.6300  -14.8480   20.1570 C   0  0  0  0  0  0  0  0  0  0  0  0
  -30.4220  -12.4960   19.3420 C   0  0  0  0  0  2  0  0  0  0  0  0
  -29.4830  -12.4280   18.1180 C   0  0  0  0  0  2  0  0  0  0  0  0
  -27.9980  -12.3430   18.5430 C   0  0  0  0  0  2  0  0  0  0  0  0
  -27.6100  -13.2680   19.7310 C   0  0  0  0  0  3  0  0  0  0  0  0
  -28.6940  -13.3080   20.8250 C   0  0  0  0  0  2  0  0  0  0  0  0
  -29.9820  -13.6240   20.1870 N   0  0  0  0  0  0  0  0  0  0  0  0
  -31.8600  -14.8600   20.1540 O   0  0  0  0  0  0  0  0  0  0  0  0
  -25.2420  -13.8910   20.4750 C   0  0  0  0  0  0  0  0  0  0  0  0
  -24.1720  -13.1250   20.8450 C   0  0  0  0  0  0  0  0  0  0  0  0
  -24.6320  -11.7730   20.8270 C   0  0  0  0  0  0  0  0  0  0  0  0
  -26.2790  -12.9970   20.2490 N   0  0  0  0  0  0  0  0  0  0  0  0
  -25.9220  -11.7230   20.5280 N   0  0  0  0  0  0  0  0  0  0  0  0
  -23.9060  -10.5150   21.0170 C   0  0  0  0  0  0  0  0  0  0  0  0
  -24.3340   -9.5540   21.9570 C   0  0  0  0  0  3  0  0  0  0  0  0
  -23.6060   -8.3590   22.1380 C   0  0  0  0  0  3  0  0  0  0  0  0
  -22.4370   -8.1190   21.3750 C   0  0  0  0  0  0  0  0  0  0  0  0
  -22.0310   -9.0690   20.4220 C   0  0  0  0  0  3  0  0  0  0  0  0
  -22.7600  -10.2560   20.2400 C   0  0  0  0  0  3  0  0  0  0  0  0
  -21.6800   -6.9770   21.4680 O   0  0  0  0  0  0  0  0  0  0  0  0
  -21.6220   -6.2430   22.6270 C   0  0  0  0  0  0  0  0  0  0  0  0
  -21.1760   -6.8070   23.8430 C   0  0  0  0  0  3  0  0  0  0  0  0
  -21.0660   -5.9990   24.9920 C   0  0  0  0  0  3  0  0  0  0  0  0
  -21.3930   -4.6320   24.9270 C   0  0  0  0  0  0  0  0  0  0  0  0
  -21.8320   -4.0680   23.7160 C   0  0  0  0  0  3  0  0  0  0  0  0
  -21.9440   -4.8730   22.5690 C   0  0  0  0  0  0  0  0  0  0  0  0
  -22.3470   -4.3210   21.3990 F   0  0  0  0  0  0  0  0  0  0  0  0
  -21.2800   -3.8540   26.0290 F   0  0  0  0  0  0  0  0  0  0  0  0
  -22.7760  -13.6110   21.1000 C   0  0  0  0  0  0  0  0  0  0  0  0
  -22.0360  -12.9250   21.9640 N   0  0  0  0  0  0  0  0  0  0  0  0
  -22.3490  -14.6360   20.5700 O   0  0  0  0  0  0  0  0  0  0  0  0
  -22.3930  -12.0970   22.4170 H   0  0  0  0  0  0  0  0  0  0  0  0
  -21.0990  -13.2360   22.1760 H   0  0  0  0  0  0  0  0  0  0  0  0
  -25.4140  -15.2600   20.2880 N   0  0  0  0  0  0  0  0  0  0  0  0
  -24.6560  -15.9240   20.3930 H   0  0  0  0  0  0  0  0  0  0  0  0
  -26.2780  -15.6890   19.9800 H   0  0  0  0  0  0  0  0  0  0  0  0
  -28.3040  -26.4440   20.2590 O   0  0  0  0  0  0  0  0  0  0  0  0
  -24.5980  -31.8930   23.2320 C   0  0  0  0  0  0  0  0  0  0  0  0
  -27.2210  -27.3410   20.1590 C   0  0  0  0  0  0  0  0  0  0  0  0
  -23.3970  -30.5000   21.5840 C   0  0  0  0  0  3  0  0  0  0  0  0
  -24.8540  -28.9590   20.1470 C   0  0  0  0  0  0  0  0  0  0  0  0
  -25.9370  -30.8200   21.4060 C   0  0  0  0  0  2  0  0  0  0  0  0
  -26.0210  -29.4430   20.7530 C   0  0  0  0  0  0  0  0  0  0  0  0
  -27.2060  -28.6430   20.7550 C   0  0  0  0  0  3  0  0  0  0  0  0
  -26.0280  -26.9110   19.5360 C   0  0  0  0  0  3  0  0  0  0  0  0
  -24.8600  -27.6970   19.5310 C   0  0  0  0  0  3  0  0  0  0  0  0
  -23.6150  -29.8310   20.2000 C   0  0  0  0  0  2  0  0  0  0  0  0
  -24.6630  -31.0880   22.1300 N   0  0  0  0  0  0  0  0  0  0  0  0
  -23.5130  -32.1680   23.7660 O   0  0  0  0  0  0  0  0  0  0  0  0
  -22.7340  -29.4790   22.5390 C   0  0  0  0  0  0  0  0  0  0  0  0
  -21.4070  -29.3050   22.4120 N   0  0  0  0  0  0  0  0  0  0  0  0
  -23.4120  -28.8470   23.3530 O   0  0  0  0  0  0  0  0  0  0  0  0
  -20.9210  -29.8660   21.7250 H   0  0  0  0  0  0  0  0  0  0  0  0
  -18.0260  -28.1210   22.9140 C   0  0  0  0  0  0  0  0  0  0  0  0
  -20.5860  -28.3670   23.1780 C   0  0  0  0  0  3  0  0  0  0  0  0
  -20.6800  -26.9400   22.5910 C   0  0  0  0  0  2  0  0  0  0  0  0
  -19.5740  -26.6280   21.5790 C   0  0  0  0  0  2  0  0  0  0  0  0
  -18.1940  -26.7760   22.2270 C   0  0  0  0  0  2  0  0  0  0  0  0
  -19.1490  -28.8750   23.3450 C   0  0  0  0  0  0  0  0  0  0  0  0
  -18.9370  -30.1340   23.9470 C   0  0  0  0  0  3  0  0  0  0  0  0
  -17.6360  -30.6400   24.1210 C   0  0  0  0  0  3  0  0  0  0  0  0
  -16.5270  -29.8830   23.7050 C   0  0  0  0  0  3  0  0  0  0  0  0
  -16.7220  -28.6250   23.1080 C   0  0  0  0  0  3  0  0  0  0  0  0
  -25.8800  -32.5230   23.8570 C   0  0  0  0  0  3  0  0  0  0  0  0
  -25.5720  -33.9230   24.1840 N   0  0  0  0  0  0  0  0  0  0  0  0
  -25.9090  -34.9740   23.4240 C   0  0  0  0  0  0  0  0  0  0  0  0
  -26.5800  -34.8670   22.3950 O   0  0  0  0  0  0  0  0  0  0  0  0
  -24.9770  -34.0810   24.9830 H   0  0  0  0  0  0  0  0  0  0  0  0
  -24.1870  -36.7710   23.0610 C   0  0  0  0  0  1  0  0  0  0  0  0
  -25.4240  -36.3650   23.8780 C   0  0  0  0  0  3  0  0  0  0  0  0
  -27.5550  -37.2440   24.7190 C   0  0  0  0  0  1  0  0  0  0  0  0
  -26.4600  -37.4160   23.7690 N   0  0  0  0  0  0  0  0  0  0  0  0
  -26.0550  -38.3360   23.9130 H   0  0  0  0  0  0  0  0  0  0  0  0
  -26.3870  -31.7520   25.1380 C   0  0  1  0  0  0  0  0  0  0  0  0
  -25.2870  -31.5210   26.2010 C   0  0  0  0  0  1  0  0  0  0  0  0
  -26.9660  -30.3710   24.7530 C   0  0  0  0  0  1  0  0  0  0  0  0
  -27.5370  -32.5440   25.8050 C   0  0  0  0  0  1  0  0  0  0  0  0
  1  5  2  0
  1  3  1  0
  2  6  1  0
  2  1  1  0
  3  8  2  0
  4  2  2  0
  5 53  1  0
  6  7  1  0
  7 14  1  0
  7  3  1  0
  9 13  1  0
 11  9  2  0
 11 14  1  0
 12 10  1  0
 13 10  2  0
 14 12  2  0
 15 16  2  0
 16 13  1  0
 16 17  1  0
 17 23  1  0
 18 23  1  0
 19 20  1  0
 19 18  1  0
 21 20  1  0
 21 28  1  0
 21 22  1  0
 23 22  1  0
 24 17  2  0
 25 26  2  0
 26 45  1  0
 27 26  1  0
 27 30  1  0
 28 25  1  0
 28 29  1  0
 29 27  2  0
 30 31  1  0
 31 32  2  0
 33 36  1  0
 33 32  1  0
 34 33  2  0
 35 34  1  0
 35 30  2  0
 36 37  1  0
 37 38  1  0
 38 39  2  0
 40 39  1  0
 40 44  1  0
 41 40  2  0
 42 37  2  0
 42 41  1  0
 43 42  1  0
 45 46  1  0
 46 49  1  0
 46 48  1  0
 47 45  2  0
 50 51  1  0
 50 25  1  0
 52 50  1  0
 54 65  2  0
 55 53  1  0
 55 60  1  0
 56 64  1  0
 56 66  1  0
 57 63  1  0
 57 59  1  0
 58 64  1  0
 59 60  2  0
 59 58  1  0
 61 55  2  0
 62 61  1  0
 62 57  2  0
 63 56  1  0
 64 54  1  0
 66 68  2  0
 67 66  1  0
 69 67  1  0
 70 79  2  0
 70 75  1  0
 71 67  1  0
 71 75  1  0
 72 71  1  0
 73 74  1  0
 73 72  1  0
 74 70  1  0
 75 76  2  0
 76 77  1  0
 78 77  2  0
 79 78  1  0
 80 54  1  0
 80 81  1  0
 80 90  1  0
 81 84  1  0
 82 86  1  0
 82 81  1  0
 83 82  2  0
 86 85  1  0
 88 86  1  0
 88 89  1  0
 88 87  1  0
 90 93  1  1
 90 91  1  0
 92 90  1  0
M  ISO  4   5 101  16 100  17 100  53 101
M  END
>  <TORSDO>  (25) 
F 18

>  <SCORE>  (25) 
-14.213

>  <name>  (25) 
24

>  <ligand_id>  (25) 
24

>  <original_smiles>  (25) 
[H]C([H])=C(C(=O)N1C([H])([H])C([H])([H])C([H])([H])C([H])(n2nc(-c3c([H])c([H])c(Oc4c([H])c([H])c(F)c([H])c4F)c([H])c3[H])c(C(=O)N([H])[H])c2N([H])[H])C1([H])[H])c1c([H])c([H])c(N2C(=O)C(=C([H])Oc3c([H])c([H])c4c(c3[H])C([H])([H])N(C(=O)C([H])(N([H])C(=O)C([H])(N([H])C([H])([H])[H])C([H])([H])[H])C(C([H])([H])[H])(C([H])([H])[H])C([H])([H])[H])C([H])(C(=O)N([H])C3([H])c5c([H])c([H])c([H])c([H])c5C([H])([H])C([H])([H])C3([H])[H])C4([H])[H])C(=C([H])[H])C2([H])[H])c([H])c1[H]

>  <smiles>  (25) 
[H]C([H])=C(C(=O)N1C([H])([H])C([H])([H])C([H])([H])C([H])(n2nc(-c3c([H])c([H])c(Oc4c([H])c([H])c(F)c([H])c4F)c([H])c3[H])c(C(=O)N([H])[H])c2N([H])[H])C1([H])[H])c1c([H])c([H])c(N2C(=O)C(=C([H])Oc3c([H])c([H])c4c(c3[H])C([H])([H])N(C(=O)C([H])(N([H])C(=O)C([H])(N([H])C([H])([H])[H])C([H])([H])[H])C(C([H])([H])[H])(C([H])([H])[H])C([H])([H])[H])C([H])(C(=O)N([H])C3([H])c5c([H])c([H])c([H])c([H])c5C([H])([H])C([H])([H])C3([H])[H])C4([H])[H])C(=C([H])[H])C2([H])[H])c([H])c1[H]

$$$$
25:0:0
     RDKit          3D

 83 90  0  0  1  0  0  0  0  0999 V2000
  -28.3590  -21.3860   20.2460 C   0  0  0  0  0  0  0  0  0  0  0  0
  -28.0550  -23.0680   20.2770 C   0  0  0  0  0  0  0  0  0  0  0  0
  -29.9840  -16.4860   20.1550 C   0  0  0  0  0  0  0  0  0  0  0  0
  -30.3030  -13.7700   19.3690 C   0  0  0  0  0  2  0  0  0  0  0  0
  -29.5000  -13.0160   18.2420 C   0  0  0  0  0  2  0  0  0  0  0  0
  -28.1570  -12.4820   18.7490 C   0  0  0  0  0  2  0  0  0  0  0  0
  -27.5410  -13.5080   19.7140 C   0  0  0  0  0  3  0  0  0  0  0  0
  -28.5230  -14.1290   20.7630 C   0  0  0  0  0  2  0  0  0  0  0  0
  -29.5460  -14.9920   20.0490 N   0  0  0  0  0  0  0  0  0  0  0  0
  -31.2300  -16.2960   20.0540 O   0  0  0  0  0  0  0  0  0  0  0  0
  -29.3680  -19.7630   20.2270 C   0  0  0  0  0  0  0  0  0  0  0  0
  -29.2280  -18.0430   20.1990 N   0  0  0  0  0  0  0  0  0  0  0  0
  -30.5730  -20.0270   20.2340 O   0  0  0  0  0  0  0  0  0  0  0  0
  -28.2360  -17.8560   20.2050 H   0  0  0  0  0  0  0  0  0  0  0  0
  -25.1950  -13.9330   20.5390 C   0  0  0  0  0  0  0  0  0  0  0  0
  -24.1580  -13.1260   20.9030 C   0  0  0  0  0  0  0  0  0  0  0  0
  -24.6530  -11.7860   20.8380 C   0  0  0  0  0  0  0  0  0  0  0  0
  -26.2560  -13.0950   20.2670 N   0  0  0  0  0  0  0  0  0  0  0  0
  -25.9450  -11.7890   20.5030 N   0  0  0  0  0  0  0  0  0  0  0  0
  -23.9410  -10.5090   21.0150 C   0  0  0  0  0  0  0  0  0  0  0  0
  -24.3620   -9.5490   21.9610 C   0  0  0  0  0  3  0  0  0  0  0  0
  -23.6410   -8.3460   22.1340 C   0  0  0  0  0  3  0  0  0  0  0  0
  -22.4840   -8.0940   21.3600 C   0  0  0  0  0  0  0  0  0  0  0  0
  -22.0790   -9.0430   20.4050 C   0  0  0  0  0  3  0  0  0  0  0  0
  -22.8010  -10.2370   20.2310 C   0  0  0  0  0  3  0  0  0  0  0  0
  -21.7370   -6.9430   21.4400 O   0  0  0  0  0  0  0  0  0  0  0  0
  -21.6350   -6.2280   22.6070 C   0  0  0  0  0  0  0  0  0  0  0  0
  -21.0900   -6.7930   23.7800 C   0  0  0  0  0  3  0  0  0  0  0  0
  -20.9390   -6.0040   24.9380 C   0  0  0  0  0  3  0  0  0  0  0  0
  -21.3230   -4.6500   24.9230 C   0  0  0  0  0  0  0  0  0  0  0  0
  -21.8610   -4.0840   23.7540 C   0  0  0  0  0  3  0  0  0  0  0  0
  -22.0130   -4.8700   22.5990 C   0  0  0  0  0  0  0  0  0  0  0  0
  -22.5110   -4.3130   21.4690 F   0  0  0  0  0  0  0  0  0  0  0  0
  -21.1720   -3.8890   26.0330 F   0  0  0  0  0  0  0  0  0  0  0  0
  -22.7580  -13.5770   21.1920 C   0  0  0  0  0  0  0  0  0  0  0  0
  -22.0510  -12.8660   22.0610 N   0  0  0  0  0  0  0  0  0  0  0  0
  -22.3020  -14.6020   20.6840 O   0  0  0  0  0  0  0  0  0  0  0  0
  -22.4350  -12.0380   22.4930 H   0  0  0  0  0  0  0  0  0  0  0  0
  -21.1110  -13.1510   22.2970 H   0  0  0  0  0  0  0  0  0  0  0  0
  -25.3230  -15.3090   20.3760 N   0  0  0  0  0  0  0  0  0  0  0  0
  -24.5400  -15.9430   20.5010 H   0  0  0  0  0  0  0  0  0  0  0  0
  -26.1550  -15.7670   20.0300 H   0  0  0  0  0  0  0  0  0  0  0  0
  -28.1070  -24.8750   20.3180 O   0  0  0  0  0  0  0  0  0  0  0  0
  -24.6600  -31.8350   23.1780 C   0  0  0  0  0  0  0  0  0  0  0  0
  -27.1750  -26.3010   20.3030 C   0  0  0  0  0  0  0  0  0  0  0  0
  -23.5000  -30.4100   21.5530 C   0  0  0  0  0  3  0  0  0  0  0  0
  -24.9570  -28.6480   20.1980 C   0  0  0  0  0  0  0  0  0  0  0  0
  -26.0960  -30.4050   21.5080 C   0  0  0  0  0  2  0  0  0  0  0  0
  -26.1550  -28.9110   20.8690 C   0  0  0  0  0  0  0  0  0  0  0  0
  -27.2200  -27.7840   20.8780 C   0  0  0  0  0  3  0  0  0  0  0  0
  -25.9410  -26.3810   19.5610 C   0  0  0  0  0  3  0  0  0  0  0  0
  -24.9180  -27.4110   19.5180 C   0  0  0  0  0  3  0  0  0  0  0  0
  -23.7720  -29.6600   20.2080 C   0  0  0  0  0  2  0  0  0  0  0  0
  -24.7820  -30.9300   22.1310 N   0  0  0  0  0  0  0  0  0  0  0  0
  -23.5540  -32.1620   23.6510 O   0  0  0  0  0  0  0  0  0  0  0  0
  -22.7290  -29.4880   22.5410 C   0  0  0  0  0  0  0  0  0  0  0  0
  -21.3910  -29.3640   22.4120 N   0  0  0  0  0  0  0  0  0  0  0  0
  -23.3570  -28.8740   23.4060 O   0  0  0  0  0  0  0  0  0  0  0  0
  -20.9280  -29.9080   21.6980 H   0  0  0  0  0  0  0  0  0  0  0  0
  -17.9830  -28.1850   22.9460 C   0  0  0  0  0  0  0  0  0  0  0  0
  -20.5480  -28.4440   23.1910 C   0  0  0  0  0  3  0  0  0  0  0  0
  -20.6350  -27.0050   22.6270 C   0  0  0  0  0  2  0  0  0  0  0  0
  -19.5290  -26.6870   21.6150 C   0  0  0  0  0  2  0  0  0  0  0  0
  -18.1500  -26.8370   22.2630 C   0  0  0  0  0  2  0  0  0  0  0  0
  -19.1080  -28.9460   23.3660 C   0  0  0  0  0  0  0  0  0  0  0  0
  -18.8910  -30.2020   23.9730 C   0  0  0  0  0  3  0  0  0  0  0  0
  -17.5870  -30.6990   24.1580 C   0  0  0  0  0  3  0  0  0  0  0  0
  -16.4780  -29.9370   23.7480 C   0  0  0  0  0  3  0  0  0  0  0  0
  -16.6780  -28.6810   23.1490 C   0  0  0  0  0  3  0  0  0  0  0  0
  -25.8980  -32.5160   23.8400 C   0  0  0  0  0  3  0  0  0  0  0  0
  -25.5570  -33.9240   24.1580 N   0  0  0  0  0  0  0  0  0  0  0  0
  -25.8860  -34.9950   23.4210 C   0  0  0  0  0  0  0  0  0  0  0  0
  -26.5510  -34.9030   22.3880 O   0  0  0  0  0  0  0  0  0  0  0  0
  -24.9600  -34.0670   24.9600 H   0  0  0  0  0  0  0  0  0  0  0  0
  -24.1490  -36.8030   23.1220 C   0  0  0  0  0  1  0  0  0  0  0  0
  -25.4090  -36.3870   23.9000 C   0  0  0  0  0  3  0  0  0  0  0  0
  -27.5510  -37.2930   24.6960 C   0  0  0  0  0  1  0  0  0  0  0  0
  -26.4350  -37.4460   23.7670 N   0  0  0  0  0  0  0  0  0  0  0  0
  -26.0250  -38.3650   23.9120 H   0  0  0  0  0  0  0  0  0  0  0  0
  -26.3650  -31.7880   25.1630 C   0  0  1  0  0  0  0  0  0  0  0  0
  -25.2340  -31.5840   26.2010 C   0  0  0  0  0  1  0  0  0  0  0  0
  -26.9610  -30.3980   24.8560 C   0  0  0  0  0  1  0  0  0  0  0  0
  -27.4920  -32.6020   25.8400 C   0  0  0  0  0  1  0  0  0  0  0  0
  1  2  3  0
  2 43  1  0
  3 12  1  0
  4  9  1  0
  5  6  1  0
  5  4  1  0
  7  6  1  0
  7 18  1  0
  7  8  1  0
  9  3  1  0
  9  8  1  0
 10  3  2  0
 11 13  2  0
 11  1  1  0
 12 14  1  0
 12 11  1  0
 15 16  2  0
 16 35  1  0
 17 16  1  0
 17 20  1  0
 18 19  1  0
 18 15  1  0
 19 17  2  0
 20 21  1  0
 21 22  2  0
 23 26  1  0
 23 22  1  0
 24 23  2  0
 25 24  1  0
 25 20  2  0
 26 27  1  0
 27 28  1  0
 28 29  2  0
 30 29  1  0
 30 34  1  0
 31 30  2  0
 32 27  2  0
 32 31  1  0
 33 32  1  0
 35 36  1  0
 36 39  1  0
 36 38  1  0
 37 35  2  0
 40 41  1  0
 40 15  1  0
 42 40  1  0
 44 55  2  0
 45 43  1  0
 45 50  1  0
 46 54  1  0
 46 56  1  0
 47 53  1  0
 47 49  1  0
 48 54  1  0
 49 50  2  0
 49 48  1  0
 51 45  2  0
 52 51  1  0
 52 47  2  0
 53 46  1  0
 54 44  1  0
 56 58  2  0
 57 56  1  0
 59 57  1  0
 60 69  2  0
 60 65  1  0
 61 57  1  0
 61 65  1  0
 62 61  1  0
 63 64  1  0
 63 62  1  0
 64 60  1  0
 65 66  2  0
 66 67  1  0
 68 67  2  0
 69 68  1  0
 70 44  1  0
 70 71  1  0
 70 80  1  0
 71 74  1  0
 72 76  1  0
 72 71  1  0
 73 72  2  0
 76 75  1  0
 78 76  1  0
 78 79  1  0
 78 77  1  0
 80 83  1  1
 80 81  1  0
 82 80  1  0
M  ISO  4   2 101   3 100  12 100  43 101
M  END
>  <TORSDO>  (26) 
F 16

>  <SCORE>  (26) 
-16.416

>  <name>  (26) 
25

>  <ligand_id>  (26) 
25

>  <original_smiles>  (26) 
[H]C(Oc1c([H])c([H])c2c(c1[H])C([H])([H])N(C(=O)C([H])(N([H])C(=O)C([H])(N([H])C([H])([H])[H])C([H])([H])[H])C(C([H])([H])[H])(C([H])([H])[H])C([H])([H])[H])C([H])(C(=O)N([H])C1([H])c3c([H])c([H])c([H])c([H])c3C([H])([H])C([H])([H])C1([H])[H])C2([H])[H])=C([H])C(=O)N([H])C(=O)N1C([H])([H])C([H])([H])C([H])([H])C([H])(n2nc(-c3c([H])c([H])c(Oc4c([H])c([H])c(F)c([H])c4F)c([H])c3[H])c(C(=O)N([H])[H])c2N([H])[H])C1([H])[H]

>  <smiles>  (26) 
[H]C(Oc1c([H])c([H])c2c(c1[H])C([H])([H])N(C(=O)C([H])(N([H])C(=O)C([H])(N([H])C([H])([H])[H])C([H])([H])[H])C(C([H])([H])[H])(C([H])([H])[H])C([H])([H])[H])C([H])(C(=O)N([H])C1([H])c3c([H])c([H])c([H])c([H])c3C([H])([H])C([H])([H])C1([H])[H])C2([H])[H])=C([H])C(=O)N([H])C(=O)N1C([H])([H])C([H])([H])C([H])([H])C([H])(n2nc(-c3c([H])c([H])c(Oc4c([H])c([H])c(F)c([H])c4F)c([H])c3[H])c(C(=O)N([H])[H])c2N([H])[H])C1([H])[H]

$$$$
26:0:0
     RDKit          3D

 92101  0  0  1  0  0  0  0  0999 V2000
  -28.6420  -23.8100   19.8650 C   0  0  0  0  0  0  0  0  0  0  0  0
  -28.4660  -22.5710   19.1260 C   0  0  0  0  0  0  0  0  0  0  0  0
  -29.3120  -23.0150   20.8910 C   0  0  0  0  0  0  0  0  0  0  0  0
  -28.2380  -25.1120   19.5570 C   0  0  0  0  0  3  0  0  0  0  0  0
  -29.1170  -21.8040   20.1300 N   0  0  0  0  0  0  0  0  0  0  0  0
  -27.9260  -22.3540   18.0590 O   0  0  0  0  0  0  0  0  0  0  0  0
  -29.8000  -23.3270   21.9600 O   0  0  0  0  0  0  0  0  0  0  0  0
  -28.3370  -19.3750   19.9660 C   0  0  0  0  0  3  0  0  0  0  0  0
  -30.5440  -19.6690   20.7220 C   0  0  0  0  0  3  0  0  0  0  0  0
  -28.4800  -17.9550   20.0820 C   0  0  0  0  0  3  0  0  0  0  0  0
  -30.7200  -18.2350   20.8080 C   0  0  0  0  0  3  0  0  0  0  0  0
  -29.3460  -20.3340   20.2870 C   0  0  0  0  0  0  0  0  0  0  0  0
  -29.6780  -17.3140   20.4960 C   0  0  0  0  0  0  0  0  0  0  0  0
  -30.5400  -14.7870   20.4170 C   0  0  0  0  0  0  0  0  0  0  0  0
  -30.4080  -12.5030   19.3950 C   0  0  0  0  0  2  0  0  0  0  0  0
  -29.4720  -12.5710   18.1650 C   0  0  0  0  0  2  0  0  0  0  0  0
  -27.9970  -12.3900   18.5800 C   0  0  0  0  0  2  0  0  0  0  0  0
  -27.6080  -13.2710   19.7960 C   0  0  0  0  0  3  0  0  0  0  0  0
  -28.6570  -13.1620   20.9260 C   0  0  0  0  0  2  0  0  0  0  0  0
  -29.9620  -13.5360   20.3570 N   0  0  0  0  0  0  0  0  0  0  0  0
  -31.7190  -14.9480   20.0840 O   0  0  0  0  0  0  0  0  0  0  0  0
  -29.6750  -15.8380   20.6780 N   0  0  0  0  0  0  0  0  0  0  0  0
  -28.7570  -15.4730   20.8790 H   0  0  0  0  0  0  0  0  0  0  0  0
  -25.2060  -13.8640   20.4820 C   0  0  0  0  0  0  0  0  0  0  0  0
  -24.1380  -13.0900   20.8480 C   0  0  0  0  0  0  0  0  0  0  0  0
  -24.6070  -11.7410   20.8350 C   0  0  0  0  0  0  0  0  0  0  0  0
  -26.2570  -12.9860   20.2690 N   0  0  0  0  0  0  0  0  0  0  0  0
  -25.9010  -11.7040   20.5420 N   0  0  0  0  0  0  0  0  0  0  0  0
  -23.8820  -10.4770   21.0260 C   0  0  0  0  0  0  0  0  0  0  0  0
  -24.3100   -9.5170   21.9690 C   0  0  0  0  0  3  0  0  0  0  0  0
  -23.5850   -8.3190   22.1490 C   0  0  0  0  0  3  0  0  0  0  0  0
  -22.4190   -8.0730   21.3850 C   0  0  0  0  0  0  0  0  0  0  0  0
  -22.0120   -9.0220   20.4310 C   0  0  0  0  0  3  0  0  0  0  0  0
  -22.7370  -10.2120   20.2500 C   0  0  0  0  0  3  0  0  0  0  0  0
  -21.6680   -6.9270   21.4720 O   0  0  0  0  0  0  0  0  0  0  0  0
  -21.6120   -6.1890   22.6280 C   0  0  0  0  0  0  0  0  0  0  0  0
  -21.1680   -6.7470   23.8460 C   0  0  0  0  0  3  0  0  0  0  0  0
  -21.0610   -5.9360   24.9940 C   0  0  0  0  0  3  0  0  0  0  0  0
  -21.3860   -4.5680   24.9240 C   0  0  0  0  0  0  0  0  0  0  0  0
  -21.8230   -4.0100   23.7090 C   0  0  0  0  0  3  0  0  0  0  0  0
  -21.9320   -4.8180   22.5640 C   0  0  0  0  0  0  0  0  0  0  0  0
  -22.3330   -4.2710   21.3910 F   0  0  0  0  0  0  0  0  0  0  0  0
  -21.2760   -3.7870   26.0230 F   0  0  0  0  0  0  0  0  0  0  0  0
  -22.7350  -13.5650   21.0950 C   0  0  0  0  0  0  0  0  0  0  0  0
  -21.9970  -12.8730   21.9560 N   0  0  0  0  0  0  0  0  0  0  0  0
  -22.3020  -14.5850   20.5610 O   0  0  0  0  0  0  0  0  0  0  0  0
  -22.3610  -12.0490   22.4110 H   0  0  0  0  0  0  0  0  0  0  0  0
  -21.0560  -13.1730   22.1640 H   0  0  0  0  0  0  0  0  0  0  0  0
  -25.3640  -15.2330   20.2890 N   0  0  0  0  0  0  0  0  0  0  0  0
  -24.5820  -15.8740   20.3620 H   0  0  0  0  0  0  0  0  0  0  0  0
  -26.1880  -15.6590   19.8900 H   0  0  0  0  0  0  0  0  0  0  0  0
  -28.3040  -26.3830   20.2080 O   0  0  0  0  0  0  0  0  0  0  0  0
  -24.6150  -31.8850   23.2430 C   0  0  0  0  0  0  0  0  0  0  0  0
  -27.2070  -27.2880   20.1490 C   0  0  0  0  0  0  0  0  0  0  0  0
  -23.4050  -30.4940   21.6060 C   0  0  0  0  0  3  0  0  0  0  0  0
  -24.8470  -28.9480   20.1650 C   0  0  0  0  0  0  0  0  0  0  0  0
  -25.9500  -30.7960   21.4160 C   0  0  0  0  0  2  0  0  0  0  0  0
  -26.0260  -29.4180   20.7580 C   0  0  0  0  0  0  0  0  0  0  0  0
  -27.2060  -28.6010   20.7390 C   0  0  0  0  0  3  0  0  0  0  0  0
  -25.9870  -26.8860   19.5510 C   0  0  0  0  0  3  0  0  0  0  0  0
  -24.8330  -27.6890   19.5530 C   0  0  0  0  0  3  0  0  0  0  0  0
  -23.6130  -29.8270   20.2220 C   0  0  0  0  0  2  0  0  0  0  0  0
  -24.6760  -31.0770   22.1440 N   0  0  0  0  0  0  0  0  0  0  0  0
  -23.5330  -32.1630   23.7810 O   0  0  0  0  0  0  0  0  0  0  0  0
  -22.7430  -29.4740   22.5650 C   0  0  0  0  0  0  0  0  0  0  0  0
  -21.4150  -29.2960   22.4420 N   0  0  0  0  0  0  0  0  0  0  0  0
  -23.4230  -28.8470   23.3820 O   0  0  0  0  0  0  0  0  0  0  0  0
  -20.9250  -29.8540   21.7570 H   0  0  0  0  0  0  0  0  0  0  0  0
  -18.0400  -28.0910   22.9500 C   0  0  0  0  0  0  0  0  0  0  0  0
  -20.5990  -28.3570   23.2140 C   0  0  0  0  0  3  0  0  0  0  0  0
  -20.7020  -26.9250   22.6370 C   0  0  0  0  0  2  0  0  0  0  0  0
  -19.5990  -26.6010   21.6260 C   0  0  0  0  0  2  0  0  0  0  0  0
  -18.2180  -26.7420   22.2740 C   0  0  0  0  0  2  0  0  0  0  0  0
  -19.1580  -28.8550   23.3780 C   0  0  0  0  0  0  0  0  0  0  0  0
  -18.9370  -30.1170   23.9720 C   0  0  0  0  0  3  0  0  0  0  0  0
  -17.6320  -30.6150   24.1420 C   0  0  0  0  0  3  0  0  0  0  0  0
  -16.5280  -29.8470   23.7300 C   0  0  0  0  0  3  0  0  0  0  0  0
  -16.7330  -28.5870   23.1400 C   0  0  0  0  0  3  0  0  0  0  0  0
  -25.8990  -32.5170   23.8600 C   0  0  0  0  0  3  0  0  0  0  0  0
  -25.5890  -33.9150   24.1940 N   0  0  0  0  0  0  0  0  0  0  0  0
  -25.9100  -34.9700   23.4330 C   0  0  0  0  0  0  0  0  0  0  0  0
  -26.5660  -34.8690   22.3930 O   0  0  0  0  0  0  0  0  0  0  0  0
  -25.0060  -34.0680   25.0040 H   0  0  0  0  0  0  0  0  0  0  0  0
  -24.1740  -36.7610   23.1080 C   0  0  0  0  0  1  0  0  0  0  0  0
  -25.4280  -36.3580   23.8990 C   0  0  0  0  0  3  0  0  0  0  0  0
  -27.5730  -37.2470   24.6990 C   0  0  0  0  0  1  0  0  0  0  0  0
  -26.4570  -37.4130   23.7710 N   0  0  0  0  0  0  0  0  0  0  0  0
  -26.0520  -38.3320   23.9230 H   0  0  0  0  0  0  0  0  0  0  0  0
  -26.4170  -31.7450   25.1360 C   0  0  1  0  0  0  0  0  0  0  0  0
  -25.3270  -31.5090   26.2070 C   0  0  0  0  0  1  0  0  0  0  0  0
  -26.9970  -30.3660   24.7440 C   0  0  0  0  0  1  0  0  0  0  0  0
  -27.5710  -32.5380   25.7950 C   0  0  0  0  0  1  0  0  0  0  0  0
  1  3  1  0
  2  1  1  0
  2  5  1  0
  3  7  2  0
  4  1  2  0
  4 52  1  0
  5 12  1  0
  5  3  1  0
  6  2  2  0
  8 10  2  0
  8 12  1  0
  9 11  1  0
 10 13  1  0
 12  9  2  0
 13 22  1  0
 13 11  2  0
 14 22  1  0
 15 20  1  0
 16 17  1  0
 16 15  1  0
 18 17  1  0
 18 27  1  0
 18 19  1  0
 20 14  1  0
 20 19  1  0
 21 14  2  0
 22 23  1  0
 24 25  2  0
 25 44  1  0
 26 25  1  0
 26 29  1  0
 27 24  1  0
 27 28  1  0
 28 26  2  0
 29 30  1  0
 30 31  2  0
 32 35  1  0
 32 31  1  0
 33 32  2  0
 34 33  1  0
 34 29  2  0
 35 36  1  0
 36 37  1  0
 37 38  2  0
 39 38  1  0
 39 43  1  0
 40 39  2  0
 41 36  2  0
 41 40  1  0
 42 41  1  0
 44 45  1  0
 45 48  1  0
 45 47  1  0
 46 44  2  0
 49 50  1  0
 49 24  1  0
 51 49  1  0
 53 64  2  0
 54 52  1  0
 54 59  1  0
 55 63  1  0
 55 65  1  0
 56 62  1  0
 56 58  1  0
 57 63  1  0
 58 57  1  0
 59 58  2  0
 60 61  1  0
 60 54  2  0
 61 56  2  0
 62 55  1  0
 63 53  1  0
 65 67  2  0
 66 65  1  0
 68 66  1  0
 69 78  2  0
 69 74  1  0
 70 66  1  0
 70 74  1  0
 71 70  1  0
 72 73  1  0
 72 71  1  0
 73 69  1  0
 74 75  2  0
 75 76  1  0
 77 76  2  0
 78 77  1  0
 79 53  1  0
 79 80  1  0
 79 89  1  0
 80 83  1  0
 81 85  1  0
 81 80  1  0
 82 81  2  0
 85 84  1  0
 87 85  1  0
 87 88  1  0
 87 86  1  0
 89 92  1  1
 89 90  1  0
 91 89  1  0
M  ISO  4   4 101  14 100  22 100  52 101
M  END
>  <TORSDO>  (27) 
F 17

>  <SCORE>  (27) 
-15.405

>  <name>  (27) 
26

>  <ligand_id>  (27) 
26

>  <original_smiles>  (27) 
[H]C(Oc1c([H])c([H])c2c(c1[H])C([H])([H])N(C(=O)C([H])(N([H])C(=O)C([H])(N([H])C([H])([H])[H])C([H])([H])[H])C(C([H])([H])[H])(C([H])([H])[H])C([H])([H])[H])C([H])(C(=O)N([H])C1([H])c3c([H])c([H])c([H])c([H])c3C([H])([H])C([H])([H])C1([H])[H])C2([H])[H])=C1C(=O)N(c2c([H])c([H])c(N([H])C(=O)N3C([H])([H])C([H])([H])C([H])([H])C([H])(n4nc(-c5c([H])c([H])c(Oc6c([H])c([H])c(F)c([H])c6F)c([H])c5[H])c(C(=O)N([H])[H])c4N([H])[H])C3([H])[H])c([H])c2[H])C1=O

>  <smiles>  (27) 
[H]C(Oc1c([H])c([H])c2c(c1[H])C([H])([H])N(C(=O)C([H])(N([H])C(=O)C([H])(N([H])C([H])([H])[H])C([H])([H])[H])C(C([H])([H])[H])(C([H])([H])[H])C([H])([H])[H])C([H])(C(=O)N([H])C1([H])c3c([H])c([H])c([H])c([H])c3C([H])([H])C([H])([H])C1([H])[H])C2([H])[H])=C1C(=O)N(c2c([H])c([H])c(N([H])C(=O)N3C([H])([H])C([H])([H])C([H])([H])C([H])(n4nc(-c5c([H])c([H])c(Oc6c([H])c([H])c(F)c([H])c6F)c([H])c5[H])c(C(=O)N([H])[H])c4N([H])[H])C3([H])[H])c([H])c2[H])C1=O

$$$$
27:0:0
     RDKit          3D

 96105  0  0  1  0  0  0  0  0999 V2000
  -28.7770  -24.1530   18.9380 C   0  0  0  0  0  0  0  0  0  0  0  0
  -28.8020  -23.8270   17.5170 C   0  0  0  0  0  0  0  0  0  0  0  0
  -29.0490  -22.9400   19.8420 C   0  0  0  0  0  0  0  0  0  0  0  0
  -27.8480  -24.2340   16.6550 C   0  0  0  0  0  2  0  0  0  0  0  0
  -28.4930  -25.5080   19.1730 C   0  0  0  0  0  3  0  0  0  0  0  0
  -29.9160  -22.9520   17.0480 C   0  0  0  0  0  2  0  0  0  0  0  0
  -29.7480  -21.6320   17.7790 C   0  0  0  0  0  2  0  0  0  0  0  0
  -29.4780  -21.7280   19.2360 N   0  0  0  0  0  0  0  0  0  0  0  0
  -28.9200  -23.0010   21.0680 O   0  0  0  0  0  0  0  0  0  0  0  0
  -30.9740  -18.2140   19.9500 C   0  0  0  0  0  3  0  0  0  0  0  0
  -28.6480  -18.1500   20.4570 C   0  0  0  0  0  3  0  0  0  0  0  0
  -29.6420  -20.3660   19.8340 C   0  0  0  0  0  0  0  0  0  0  0  0
  -29.8530  -17.4000   20.2850 C   0  0  0  0  0  0  0  0  0  0  0  0
  -30.8730  -19.6360   19.7400 C   0  0  0  0  0  0  0  0  0  0  0  0
  -28.5340  -19.5660   20.2330 C   0  0  0  0  0  0  0  0  0  0  0  0
  -31.9960  -20.3030   19.3740 F   0  0  0  0  0  0  0  0  0  0  0  0
  -27.3100  -20.1410   20.3240 F   0  0  0  0  0  0  0  0  0  0  0  0
  -30.6480  -14.8520   20.0770 C   0  0  0  0  0  0  0  0  0  0  0  0
  -30.4310  -12.5990   19.0060 C   0  0  0  0  0  2  0  0  0  0  0  0
  -29.4250  -12.7130   17.8380 C   0  0  0  0  0  2  0  0  0  0  0  0
  -27.9790  -12.5260   18.3350 C   0  0  0  0  0  2  0  0  0  0  0  0
  -27.6720  -13.3650   19.6030 C   0  0  0  0  0  3  0  0  0  0  0  0
  -28.7880  -13.2210   20.6630 C   0  0  0  0  0  2  0  0  0  0  0  0
  -30.0560  -13.6070   20.0240 N   0  0  0  0  0  0  0  0  0  0  0  0
  -31.8000  -15.0070   19.6600 O   0  0  0  0  0  0  0  0  0  0  0  0
  -29.8320  -15.9130   20.4530 N   0  0  0  0  0  0  0  0  0  0  0  0
  -28.9540  -15.5670   20.8080 H   0  0  0  0  0  0  0  0  0  0  0  0
  -25.3210  -13.9420   20.4550 C   0  0  0  0  0  0  0  0  0  0  0  0
  -24.2730  -13.1610   20.8610 C   0  0  0  0  0  0  0  0  0  0  0  0
  -24.7320  -11.8110   20.7760 C   0  0  0  0  0  0  0  0  0  0  0  0
  -26.3520  -13.0680   20.1490 N   0  0  0  0  0  0  0  0  0  0  0  0
  -26.0060  -11.7800   20.4040 N   0  0  0  0  0  0  0  0  0  0  0  0
  -24.0130  -10.5450   20.9730 C   0  0  0  0  0  0  0  0  0  0  0  0
  -24.4600   -9.5780   21.9010 C   0  0  0  0  0  3  0  0  0  0  0  0
  -23.7410   -8.3770   22.0840 C   0  0  0  0  0  3  0  0  0  0  0  0
  -22.5620   -8.1350   21.3410 C   0  0  0  0  0  0  0  0  0  0  0  0
  -22.1340   -9.0900   20.4030 C   0  0  0  0  0  3  0  0  0  0  0  0
  -22.8530  -10.2820   20.2170 C   0  0  0  0  0  3  0  0  0  0  0  0
  -21.8130   -6.9850   21.4350 O   0  0  0  0  0  0  0  0  0  0  0  0
  -21.7440   -6.2650   22.6010 C   0  0  0  0  0  0  0  0  0  0  0  0
  -21.2320   -6.8230   23.7920 C   0  0  0  0  0  3  0  0  0  0  0  0
  -21.1150   -6.0270   24.9500 C   0  0  0  0  0  3  0  0  0  0  0  0
  -21.4990   -4.6730   24.9150 C   0  0  0  0  0  0  0  0  0  0  0  0
  -22.0030   -4.1140   23.7270 C   0  0  0  0  0  3  0  0  0  0  0  0
  -22.1230   -4.9080   22.5730 C   0  0  0  0  0  0  0  0  0  0  0  0
  -22.5900   -4.3590   21.4250 F   0  0  0  0  0  0  0  0  0  0  0  0
  -21.3800   -3.9050   26.0230 F   0  0  0  0  0  0  0  0  0  0  0  0
  -22.8910  -13.6330   21.2090 C   0  0  0  0  0  0  0  0  0  0  0  0
  -22.2050  -12.9180   22.0940 N   0  0  0  0  0  0  0  0  0  0  0  0
  -22.4320  -14.6700   20.7340 O   0  0  0  0  0  0  0  0  0  0  0  0
  -22.5900  -12.0780   22.5010 H   0  0  0  0  0  0  0  0  0  0  0  0
  -21.2800  -13.2170   22.3700 H   0  0  0  0  0  0  0  0  0  0  0  0
  -25.4770  -15.3150   20.2940 N   0  0  0  0  0  0  0  0  0  0  0  0
  -24.7030  -15.9570   20.4340 H   0  0  0  0  0  0  0  0  0  0  0  0
  -26.2730  -15.7490   19.8460 H   0  0  0  0  0  0  0  0  0  0  0  0
  -28.2970  -26.3970   20.2560 O   0  0  0  0  0  0  0  0  0  0  0  0
  -24.5460  -31.8950   23.2380 C   0  0  0  0  0  0  0  0  0  0  0  0
  -27.2200  -27.3220   20.1850 C   0  0  0  0  0  0  0  0  0  0  0  0
  -23.3720  -30.4950   21.5810 C   0  0  0  0  0  3  0  0  0  0  0  0
  -24.8490  -28.9580   20.1630 C   0  0  0  0  0  0  0  0  0  0  0  0
  -25.9170  -30.8160   21.4310 C   0  0  0  0  0  2  0  0  0  0  0  0
  -26.0140  -29.4370   20.7770 C   0  0  0  0  0  0  0  0  0  0  0  0
  -27.2010  -28.6310   20.7830 C   0  0  0  0  0  3  0  0  0  0  0  0
  -26.0200  -26.9060   19.5630 C   0  0  0  0  0  3  0  0  0  0  0  0
  -24.8570  -27.6990   19.5470 C   0  0  0  0  0  3  0  0  0  0  0  0
  -23.6080  -29.8290   20.2010 C   0  0  0  0  0  2  0  0  0  0  0  0
  -24.6310  -31.0870   22.1400 N   0  0  0  0  0  0  0  0  0  0  0  0
  -23.4530  -32.1650   23.7580 O   0  0  0  0  0  0  0  0  0  0  0  0
  -22.7020  -29.4710   22.5290 C   0  0  0  0  0  0  0  0  0  0  0  0
  -21.3770  -29.2900   22.3900 N   0  0  0  0  0  0  0  0  0  0  0  0
  -23.3740  -28.8450   23.3520 O   0  0  0  0  0  0  0  0  0  0  0  0
  -20.8940  -29.8470   21.6980 H   0  0  0  0  0  0  0  0  0  0  0  0
  -17.9940  -28.0970   22.8800 C   0  0  0  0  0  0  0  0  0  0  0  0
  -20.5540  -28.3460   23.1490 C   0  0  0  0  0  3  0  0  0  0  0  0
  -20.6510  -26.9210   22.5570 C   0  0  0  0  0  2  0  0  0  0  0  0
  -19.5470  -26.6140   21.5400 C   0  0  0  0  0  2  0  0  0  0  0  0
  -18.1670  -26.7550   22.1870 C   0  0  0  0  0  2  0  0  0  0  0  0
  -19.1160  -28.8500   23.3170 C   0  0  0  0  0  0  0  0  0  0  0  0
  -18.9010  -30.1060   23.9270 C   0  0  0  0  0  3  0  0  0  0  0  0
  -17.5970  -30.6080   24.1000 C   0  0  0  0  0  3  0  0  0  0  0  0
  -16.4910  -29.8510   23.6770 C   0  0  0  0  0  3  0  0  0  0  0  0
  -16.6900  -28.5970   23.0740 C   0  0  0  0  0  3  0  0  0  0  0  0
  -25.8150  -32.5370   23.8770 C   0  0  0  0  0  3  0  0  0  0  0  0
  -25.4960  -33.9380   24.1910 N   0  0  0  0  0  0  0  0  0  0  0  0
  -25.8310  -34.9870   23.4290 C   0  0  0  0  0  0  0  0  0  0  0  0
  -26.5110  -34.8770   22.4050 O   0  0  0  0  0  0  0  0  0  0  0  0
  -24.8930  -34.0970   24.9850 H   0  0  0  0  0  0  0  0  0  0  0  0
  -24.1060  -36.7760   23.0360 C   0  0  0  0  0  1  0  0  0  0  0  0
  -25.3340  -36.3770   23.8700 C   0  0  0  0  0  3  0  0  0  0  0  0
  -27.4470  -37.2740   24.7420 C   0  0  0  0  0  1  0  0  0  0  0  0
  -26.3680  -37.4310   23.7710 N   0  0  0  0  0  0  0  0  0  0  0  0
  -25.9560  -38.3510   23.9010 H   0  0  0  0  0  0  0  0  0  0  0  0
  -26.3090  -31.7780   25.1690 C   0  0  1  0  0  0  0  0  0  0  0  0
  -25.1950  -31.5410   26.2160 C   0  0  0  0  0  1  0  0  0  0  0  0
  -26.9080  -30.4010   24.8020 C   0  0  0  0  0  1  0  0  0  0  0  0
  -27.4430  -32.5840   25.8490 C   0  0  0  0  0  1  0  0  0  0  0  0
  1  5  2  0
  1  3  1  0
  2  1  1  0
  3  9  2  0
  4  2  2  0
  5 56  1  0
  6  2  1  0
  6  7  1  0
  7  8  1  0
  8 12  1  0
  8  3  1  0
 10 13  1  0
 12 15  2  0
 13 26  1  0
 13 11  2  0
 14 12  1  0
 14 10  2  0
 15 17  1  0
 15 11  1  0
 16 14  1  0
 18 26  1  0
 19 24  1  0
 20 21  1  0
 20 19  1  0
 22 21  1  0
 22 31  1  0
 22 23  1  0
 24 18  1  0
 24 23  1  0
 25 18  2  0
 26 27  1  0
 28 29  2  0
 29 48  1  0
 30 29  1  0
 30 33  1  0
 31 32  1  0
 31 28  1  0
 32 30  2  0
 33 34  1  0
 34 35  2  0
 36 39  1  0
 36 35  1  0
 37 36  2  0
 38 37  1  0
 38 33  2  0
 39 40  1  0
 40 41  1  0
 41 42  2  0
 43 42  1  0
 43 47  1  0
 44 43  2  0
 45 40  2  0
 45 44  1  0
 46 45  1  0
 48 49  1  0
 49 52  1  0
 49 51  1  0
 50 48  2  0
 53 54  1  0
 53 28  1  0
 55 53  1  0
 57 68  2  0
 58 56  1  0
 58 63  1  0
 59 67  1  0
 59 69  1  0
 60 66  1  0
 60 62  1  0
 61 67  1  0
 62 63  2  0
 62 61  1  0
 64 58  2  0
 65 64  1  0
 65 60  2  0
 66 59  1  0
 67 57  1  0
 69 71  2  0
 70 69  1  0
 72 70  1  0
 73 82  2  0
 73 78  1  0
 74 70  1  0
 74 78  1  0
 75 74  1  0
 76 77  1  0
 76 75  1  0
 77 73  1  0
 78 79  2  0
 79 80  1  0
 81 80  2  0
 82 81  1  0
 83 57  1  0
 83 84  1  0
 83 93  1  0
 84 87  1  0
 85 89  1  0
 85 84  1  0
 86 85  2  0
 89 88  1  0
 91 89  1  0
 91 92  1  0
 91 90  1  0
 93 96  1  1
 93 94  1  0
 95 93  1  0
M  ISO  4   5 101  18 100  26 100  56 101
M  END
>  <TORSDO>  (28) 
F 17

>  <SCORE>  (28) 
-14.947

>  <name>  (28) 
27

>  <ligand_id>  (28) 
27

>  <original_smiles>  (28) 
[H]C([H])=C1C(=C([H])Oc2c([H])c([H])c3c(c2[H])C([H])([H])N(C(=O)C([H])(N([H])C(=O)C([H])(N([H])C([H])([H])[H])C([H])([H])[H])C(C([H])([H])[H])(C([H])([H])[H])C([H])([H])[H])C([H])(C(=O)N([H])C2([H])c4c([H])c([H])c([H])c([H])c4C([H])([H])C([H])([H])C2([H])[H])C3([H])[H])C(=O)N(c2c(F)c([H])c(N([H])C(=O)N3C([H])([H])C([H])([H])C([H])([H])C([H])(n4nc(-c5c([H])c([H])c(Oc6c([H])c([H])c(F)c([H])c6F)c([H])c5[H])c(C(=O)N([H])[H])c4N([H])[H])C3([H])[H])c([H])c2F)C([H])([H])C1([H])[H]

>  <smiles>  (28) 
[H]C([H])=C1C(=C([H])Oc2c([H])c([H])c3c(c2[H])C([H])([H])N(C(=O)C([H])(N([H])C(=O)C([H])(N([H])C([H])([H])[H])C([H])([H])[H])C(C([H])([H])[H])(C([H])([H])[H])C([H])([H])[H])C([H])(C(=O)N([H])C2([H])c4c([H])c([H])c([H])c([H])c4C([H])([H])C([H])([H])C2([H])[H])C3([H])[H])C(=O)N(c2c(F)c([H])c(N([H])C(=O)N3C([H])([H])C([H])([H])C([H])([H])C([H])(n4nc(-c5c([H])c([H])c(Oc6c([H])c([H])c(F)c([H])c6F)c([H])c5[H])c(C(=O)N([H])[H])c4N([H])[H])C3([H])[H])c([H])c2F)C([H])([H])C1([H])[H]

$$$$
28:0:0
     RDKit          3D

 92101  0  0  1  0  0  0  0  0999 V2000
  -28.7350  -23.8810   19.6120 C   0  0  0  0  0  0  0  0  0  0  0  0
  -28.8470  -22.9990   20.7830 C   0  0  0  0  0  0  0  0  0  0  0  0
  -28.4860  -25.2350   19.3310 C   0  0  0  0  0  0  0  0  0  0  0  0
  -29.0320  -22.6410   18.7130 C   0  0  0  0  0  2  0  0  0  0  0  0
  -28.5500  -25.6910   17.8810 C   0  0  0  0  0  1  0  0  0  0  0  0
  -29.1390  -21.8570   19.9620 N   0  0  0  0  0  0  0  0  0  0  0  0
  -28.7180  -23.2230   21.9690 O   0  0  0  0  0  0  0  0  0  0  0  0
  -29.5550  -19.6840   21.2780 C   0  0  0  0  0  3  0  0  0  0  0  0
  -29.6010  -19.4500   18.9560 C   0  0  0  0  0  3  0  0  0  0  0  0
  -29.8180  -18.2790   21.4230 C   0  0  0  0  0  3  0  0  0  0  0  0
  -29.8740  -18.0290   19.0820 C   0  0  0  0  0  3  0  0  0  0  0  0
  -29.4220  -20.3810   20.0420 C   0  0  0  0  0  0  0  0  0  0  0  0
  -30.0010  -17.3570   20.3390 C   0  0  0  0  0  0  0  0  0  0  0  0
  -30.7180  -14.8600   19.7390 C   0  0  0  0  0  0  0  0  0  0  0  0
  -30.3830  -12.6240   18.6170 C   0  0  0  0  0  2  0  0  0  0  0  0
  -29.3020  -12.7130   17.5150 C   0  0  0  0  0  2  0  0  0  0  0  0
  -27.8970  -12.5020   18.1070 C   0  0  0  0  0  2  0  0  0  0  0  0
  -27.6660  -13.3470   19.3870 C   0  0  0  0  0  3  0  0  0  0  0  0
  -28.8430  -13.2180   20.3710 C   0  0  0  0  0  2  0  0  0  0  0  0
  -30.0700  -13.6320   19.6660 N   0  0  0  0  0  0  0  0  0  0  0  0
  -31.7450  -15.0270   19.0740 O   0  0  0  0  0  0  0  0  0  0  0  0
  -30.4210  -15.5150   22.0040 C   0  0  0  0  0  1  0  0  0  0  0  0
  -30.2410  -15.8740   20.5850 N   0  0  0  0  0  0  0  0  0  0  0  0
  -25.4140  -13.9070   20.4790 C   0  0  0  0  0  0  0  0  0  0  0  0
  -24.3840  -13.1210   20.9210 C   0  0  0  0  0  0  0  0  0  0  0  0
  -24.8030  -11.7700   20.7120 C   0  0  0  0  0  0  0  0  0  0  0  0
  -26.3910  -13.0360   20.0250 N   0  0  0  0  0  0  0  0  0  0  0  0
  -26.0380  -11.7400   20.2280 N   0  0  0  0  0  0  0  0  0  0  0  0
  -24.0730  -10.5080   20.8900 C   0  0  0  0  0  0  0  0  0  0  0  0
  -24.5520   -9.4910   21.7440 C   0  0  0  0  0  3  0  0  0  0  0  0
  -23.8230   -8.2950   21.9140 C   0  0  0  0  0  3  0  0  0  0  0  0
  -22.5990   -8.1080   21.2280 C   0  0  0  0  0  0  0  0  0  0  0  0
  -22.1370   -9.1140   20.3610 C   0  0  0  0  0  3  0  0  0  0  0  0
  -22.8670  -10.3010   20.1910 C   0  0  0  0  0  3  0  0  0  0  0  0
  -21.8350   -6.9670   21.3110 O   0  0  0  0  0  0  0  0  0  0  0  0
  -21.7860   -6.2160   22.4580 C   0  0  0  0  0  0  0  0  0  0  0  0
  -21.3680   -6.7630   23.6910 C   0  0  0  0  0  3  0  0  0  0  0  0
  -21.2640   -5.9380   24.8290 C   0  0  0  0  0  3  0  0  0  0  0  0
  -21.5690   -4.5680   24.7350 C   0  0  0  0  0  0  0  0  0  0  0  0
  -21.9800   -4.0190   23.5070 C   0  0  0  0  0  3  0  0  0  0  0  0
  -22.0840   -4.8420   22.3710 C   0  0  0  0  0  0  0  0  0  0  0  0
  -22.4610   -4.3040   21.1860 F   0  0  0  0  0  0  0  0  0  0  0  0
  -21.4620   -3.7730   25.8260 F   0  0  0  0  0  0  0  0  0  0  0  0
  -23.0500  -13.5940   21.4180 C   0  0  0  0  0  0  0  0  0  0  0  0
  -22.4360  -12.8490   22.3300 N   0  0  0  0  0  0  0  0  0  0  0  0
  -22.5660  -14.6570   21.0340 O   0  0  0  0  0  0  0  0  0  0  0  0
  -22.8430  -11.9890   22.6630 H   0  0  0  0  0  0  0  0  0  0  0  0
  -21.5450  -13.1470   22.7030 H   0  0  0  0  0  0  0  0  0  0  0  0
  -25.5920  -15.2850   20.4030 N   0  0  0  0  0  0  0  0  0  0  0  0
  -24.8740  -15.9430   20.6850 H   0  0  0  0  0  0  0  0  0  0  0  0
  -26.4190  -15.7360   20.0300 H   0  0  0  0  0  0  0  0  0  0  0  0
  -28.3000  -26.3650   20.1980 O   0  0  0  0  0  0  0  0  0  0  0  0
  -24.6050  -31.8530   23.2360 C   0  0  0  0  0  0  0  0  0  0  0  0
  -27.2130  -27.2820   20.1050 C   0  0  0  0  0  0  0  0  0  0  0  0
  -23.4000  -30.4690   21.5870 C   0  0  0  0  0  3  0  0  0  0  0  0
  -24.8490  -28.9370   20.1290 C   0  0  0  0  0  0  0  0  0  0  0  0
  -25.9430  -30.7820   21.3970 C   0  0  0  0  0  2  0  0  0  0  0  0
  -26.0240  -29.4080   20.7270 C   0  0  0  0  0  0  0  0  0  0  0  0
  -27.2050  -28.5930   20.7060 C   0  0  0  0  0  3  0  0  0  0  0  0
  -26.0040  -26.8780   19.4960 C   0  0  0  0  0  3  0  0  0  0  0  0
  -24.8440  -27.6810   19.5020 C   0  0  0  0  0  3  0  0  0  0  0  0
  -23.6110  -29.8120   20.1970 C   0  0  0  0  0  2  0  0  0  0  0  0
  -24.6690  -31.0540   22.1290 N   0  0  0  0  0  0  0  0  0  0  0  0
  -23.5220  -32.1210   23.7780 O   0  0  0  0  0  0  0  0  0  0  0  0
  -22.7410  -29.4430   22.5410 C   0  0  0  0  0  0  0  0  0  0  0  0
  -21.4200  -29.2410   22.4000 N   0  0  0  0  0  0  0  0  0  0  0  0
  -23.4220  -28.8310   23.3680 O   0  0  0  0  0  0  0  0  0  0  0  0
  -20.9280  -29.7880   21.7070 H   0  0  0  0  0  0  0  0  0  0  0  0
  -18.0680  -27.9460   22.8380 C   0  0  0  0  0  0  0  0  0  0  0  0
  -20.6100  -28.2870   23.1610 C   0  0  0  0  0  3  0  0  0  0  0  0
  -20.7680  -26.8530   22.6050 C   0  0  0  0  0  2  0  0  0  0  0  0
  -19.7010  -26.4870   21.5690 C   0  0  0  0  0  2  0  0  0  0  0  0
  -18.3010  -26.5960   22.1800 C   0  0  0  0  0  2  0  0  0  0  0  0
  -19.1530  -28.7470   23.2850 C   0  0  0  0  0  0  0  0  0  0  0  0
  -18.8810  -30.0070   23.8600 C   0  0  0  0  0  3  0  0  0  0  0  0
  -17.5580  -30.4680   23.9930 C   0  0  0  0  0  3  0  0  0  0  0  0
  -16.4880  -29.6660   23.5620 C   0  0  0  0  0  3  0  0  0  0  0  0
  -16.7430  -28.4070   22.9900 C   0  0  0  0  0  3  0  0  0  0  0  0
  -25.8870  -32.4870   23.8600 C   0  0  0  0  0  3  0  0  0  0  0  0
  -25.5800  -33.8890   24.1790 N   0  0  0  0  0  0  0  0  0  0  0  0
  -25.9030  -34.9370   23.4080 C   0  0  0  0  0  0  0  0  0  0  0  0
  -26.5590  -34.8230   22.3700 O   0  0  0  0  0  0  0  0  0  0  0  0
  -24.9960  -34.0510   24.9860 H   0  0  0  0  0  0  0  0  0  0  0  0
  -24.1730  -36.7310   23.0640 C   0  0  0  0  0  1  0  0  0  0  0  0
  -25.4250  -36.3310   23.8610 C   0  0  0  0  0  3  0  0  0  0  0  0
  -27.5720  -37.2210   24.6550 C   0  0  0  0  0  1  0  0  0  0  0  0
  -26.4580  -37.3810   23.7240 N   0  0  0  0  0  0  0  0  0  0  0  0
  -26.0540  -38.3030   23.8660 H   0  0  0  0  0  0  0  0  0  0  0  0
  -26.3920  -31.7250   25.1470 C   0  0  1  0  0  0  0  0  0  0  0  0
  -25.2910  -31.5010   26.2100 C   0  0  0  0  0  1  0  0  0  0  0  0
  -26.9730  -30.3410   24.7730 C   0  0  0  0  0  1  0  0  0  0  0  0
  -27.5410  -32.5210   25.8090 C   0  0  0  0  0  1  0  0  0  0  0  0
  1  2  1  0
  2  7  2  0
  3  1  2  0
  3 52  1  0
  4  1  1  0
  4  6  1  0
  5  3  1  0
  6 12  1  0
  6  2  1  0
  8 10  1  0
  9 11  2  0
  9 12  1  0
 11 13  1  0
 12  8  2  0
 13 23  1  0
 13 10  2  0
 14 23  1  0
 15 20  1  0
 16 17  1  0
 16 15  1  0
 18 17  1  0
 18 27  1  0
 18 19  1  0
 20 14  1  0
 20 19  1  0
 21 14  2  0
 23 22  1  0
 24 25  2  0
 25 44  1  0
 26 29  1  0
 26 25  1  0
 27 28  1  0
 27 24  1  0
 28 26  2  0
 29 30  1  0
 30 31  2  0
 32 35  1  0
 32 31  1  0
 33 32  2  0
 34 33  1  0
 34 29  2  0
 35 36  1  0
 36 37  1  0
 37 38  2  0
 39 38  1  0
 39 43  1  0
 40 39  2  0
 41 36  2  0
 41 40  1  0
 42 41  1  0
 44 45  1  0
 45 47  1  0
 45 48  1  0
 46 44  2  0
 49 24  1  0
 49 50  1  0
 51 49  1  0
 53 64  2  0
 54 52  1  0
 54 59  1  0
 55 63  1  0
 55 65  1  0
 56 62  1  0
 56 58  1  0
 57 63  1  0
 58 57  1  0
 59 58  2  0
 60 61  1  0
 60 54  2  0
 61 56  2  0
 62 55  1  0
 63 53  1  0
 65 67  2  0
 66 65  1  0
 68 66  1  0
 69 78  2  0
 69 74  1  0
 70 66  1  0
 70 74  1  0
 71 70  1  0
 72 73  1  0
 72 71  1  0
 73 69  1  0
 74 75  2  0
 75 76  1  0
 77 76  2  0
 78 77  1  0
 79 53  1  0
 79 80  1  0
 79 89  1  0
 80 83  1  0
 81 85  1  0
 81 80  1  0
 82 81  2  0
 85 84  1  0
 87 85  1  0
 87 88  1  0
 87 86  1  0
 89 92  1  1
 89 90  1  0
 91 89  1  0
M  ISO  4   3 101  14 100  23 100  52 101
M  END
>  <TORSDO>  (29) 
F 17

>  <SCORE>  (29) 
-13.685

>  <name>  (29) 
28

>  <ligand_id>  (29) 
28

>  <original_smiles>  (29) 
[H]c1c([H])c([H])c2c(c1[H])C([H])([H])C([H])([H])C([H])([H])C2([H])N([H])C(=O)C1([H])N(C(=O)C([H])(N([H])C(=O)C([H])(N([H])C([H])([H])[H])C([H])([H])[H])C(C([H])([H])[H])(C([H])([H])[H])C([H])([H])[H])C([H])([H])c2c([H])c(OC(=C3C(=O)N(c4c([H])c([H])c(N(C(=O)N5C([H])([H])C([H])([H])C([H])([H])C([H])(n6nc(-c7c([H])c([H])c(Oc8c([H])c([H])c(F)c([H])c8F)c([H])c7[H])c(C(=O)N([H])[H])c6N([H])[H])C5([H])[H])C([H])([H])[H])c([H])c4[H])C3([H])[H])C([H])([H])[H])c([H])c([H])c2C1([H])[H]

>  <smiles>  (29) 
[H]c1c([H])c([H])c2c(c1[H])C([H])([H])C([H])([H])C([H])([H])C2([H])N([H])C(=O)C1([H])N(C(=O)C([H])(N([H])C(=O)C([H])(N([H])C([H])([H])[H])C([H])([H])[H])C(C([H])([H])[H])(C([H])([H])[H])C([H])([H])[H])C([H])([H])c2c([H])c(OC(=C3C(=O)N(c4c([H])c([H])c(N(C(=O)N5C([H])([H])C([H])([H])C([H])([H])C([H])(n6nc(-c7c([H])c([H])c(Oc8c([H])c([H])c(F)c([H])c8F)c([H])c7[H])c(C(=O)N([H])[H])c6N([H])[H])C5([H])[H])C([H])([H])[H])c([H])c4[H])C3([H])[H])C([H])([H])[H])c([H])c([H])c2C1([H])[H]

$$$$
29:0:0
     RDKit          3D

 96104  0  0  1  0  0  0  0  0999 V2000
  -29.9400  -23.3240   19.5050 C   0  0  0  0  0  3  0  0  0  0  0  0
  -29.3910  -20.9060   19.2120 C   0  0  0  0  0  0  0  0  0  0  0  0
  -29.7260  -21.9430   19.9890 N   0  0  0  0  0  0  0  0  0  0  0  0
  -28.9640  -21.0570   18.0660 O   0  0  0  0  0  0  0  0  0  0  0  0
  -30.0370  -21.7540   20.9320 H   0  0  0  0  0  0  0  0  0  0  0  0
  -28.5370  -18.5510   19.5050 C   0  0  0  0  0  3  0  0  0  0  0  0
  -30.6760  -19.1100   20.5120 C   0  0  0  0  0  3  0  0  0  0  0  0
  -28.6750  -17.2190   19.9420 C   0  0  0  0  0  3  0  0  0  0  0  0
  -30.8270  -17.7650   20.9340 C   0  0  0  0  0  3  0  0  0  0  0  0
  -29.5290  -19.5150   19.7850 C   0  0  0  0  0  0  0  0  0  0  0  0
  -29.8290  -16.8050   20.6400 C   0  0  0  0  0  0  0  0  0  0  0  0
  -30.6400  -14.4850   20.5050 C   0  0  0  0  0  0  0  0  0  0  0  0
  -30.3780  -12.3210   19.3500 C   0  0  0  0  0  2  0  0  0  0  0  0
  -29.4310  -12.5280   18.1470 C   0  0  0  0  0  2  0  0  0  0  0  0
  -27.9560  -12.3830   18.5730 C   0  0  0  0  0  2  0  0  0  0  0  0
  -27.6150  -13.2150   19.8380 C   0  0  0  0  0  3  0  0  0  0  0  0
  -28.6680  -12.9750   20.9460 C   0  0  0  0  0  2  0  0  0  0  0  0
  -29.9970  -13.2900   20.3880 N   0  0  0  0  0  0  0  0  0  0  0  0
  -31.7590  -14.7000   20.0280 O   0  0  0  0  0  0  0  0  0  0  0  0
  -29.9090  -15.4550   21.0870 N   0  0  0  0  0  0  0  0  0  0  0  0
  -29.0490  -15.0880   21.4660 H   0  0  0  0  0  0  0  0  0  0  0  0
  -25.2120  -13.8320   20.5330 C   0  0  0  0  0  0  0  0  0  0  0  0
  -24.1430  -13.0620   20.9020 C   0  0  0  0  0  0  0  0  0  0  0  0
  -24.6030  -11.7110   20.8790 C   0  0  0  0  0  0  0  0  0  0  0  0
  -26.2590  -12.9480   20.3110 N   0  0  0  0  0  0  0  0  0  0  0  0
  -25.8930  -11.6680   20.5750 N   0  0  0  0  0  0  0  0  0  0  0  0
  -23.8770  -10.4500   21.0730 C   0  0  0  0  0  0  0  0  0  0  0  0
  -24.3180   -9.4780   21.9970 C   0  0  0  0  0  3  0  0  0  0  0  0
  -23.5920   -8.2800   22.1760 C   0  0  0  0  0  3  0  0  0  0  0  0
  -22.4110   -8.0480   21.4340 C   0  0  0  0  0  0  0  0  0  0  0  0
  -21.9880   -9.0100   20.4990 C   0  0  0  0  0  3  0  0  0  0  0  0
  -22.7140  -10.1990   20.3160 C   0  0  0  0  0  3  0  0  0  0  0  0
  -21.6560   -6.9040   21.5240 O   0  0  0  0  0  0  0  0  0  0  0  0
  -21.6330   -6.1460   22.6670 C   0  0  0  0  0  0  0  0  0  0  0  0
  -21.2490   -6.6890   23.9130 C   0  0  0  0  0  3  0  0  0  0  0  0
  -21.1720   -5.8580   25.0490 C   0  0  0  0  0  3  0  0  0  0  0  0
  -21.4680   -4.4850   24.9400 C   0  0  0  0  0  0  0  0  0  0  0  0
  -21.8450   -3.9440   23.6990 C   0  0  0  0  0  3  0  0  0  0  0  0
  -21.9240   -4.7710   22.5650 C   0  0  0  0  0  0  0  0  0  0  0  0
  -22.2670   -4.2390   21.3670 F   0  0  0  0  0  0  0  0  0  0  0  0
  -21.3870   -3.6860   26.0280 F   0  0  0  0  0  0  0  0  0  0  0  0
  -22.7440  -13.5420   21.1680 C   0  0  0  0  0  0  0  0  0  0  0  0
  -22.0130  -12.8500   22.0350 N   0  0  0  0  0  0  0  0  0  0  0  0
  -22.3090  -14.5660   20.6420 O   0  0  0  0  0  0  0  0  0  0  0  0
  -22.3780  -12.0230   22.4820 H   0  0  0  0  0  0  0  0  0  0  0  0
  -21.0750  -13.1540   22.2550 H   0  0  0  0  0  0  0  0  0  0  0  0
  -25.3750  -15.2000   20.3490 N   0  0  0  0  0  0  0  0  0  0  0  0
  -24.6040  -15.8520   20.4500 H   0  0  0  0  0  0  0  0  0  0  0  0
  -26.2190  -15.6400   20.0130 H   0  0  0  0  0  0  0  0  0  0  0  0
  -31.3820  -23.7350   19.8570 C   0  0  0  0  0  0  0  0  0  0  0  0
  -32.0320  -24.8520   19.0480 C   0  0  0  0  0  1  0  0  0  0  0  0
  -32.0390  -23.1860   20.7490 O   0  0  0  0  0  0  0  0  0  0  0  0
  -28.9040  -24.3280   20.0770 C   0  0  0  0  0  0  0  0  0  0  0  0
  -28.2730  -24.1210   21.1220 O   0  0  0  0  0  0  0  0  0  0  0  0
  -28.6570  -25.6220   19.2670 C   0  0  0  0  0  2  0  0  0  0  0  0
  -28.4290  -26.7540   20.1240 O   0  0  0  0  0  0  0  0  0  0  0  0
  -24.6040  -31.8810   23.2290 C   0  0  0  0  0  0  0  0  0  0  0  0
  -27.2250  -27.4360   20.1110 C   0  0  0  0  0  0  0  0  0  0  0  0
  -23.3800  -30.4790   21.5990 C   0  0  0  0  0  3  0  0  0  0  0  0
  -24.8190  -28.9380   20.1610 C   0  0  0  0  0  0  0  0  0  0  0  0
  -25.9040  -30.8350   21.3770 C   0  0  0  0  0  2  0  0  0  0  0  0
  -25.9820  -29.4630   20.7360 C   0  0  0  0  0  0  0  0  0  0  0  0
  -27.1810  -28.7150   20.7140 C   0  0  0  0  0  3  0  0  0  0  0  0
  -26.0330  -26.9170   19.5510 C   0  0  0  0  0  3  0  0  0  0  0  0
  -24.8390  -27.6640   19.5700 C   0  0  0  0  0  3  0  0  0  0  0  0
  -23.5750  -29.7980   20.2180 C   0  0  0  0  0  2  0  0  0  0  0  0
  -24.6490  -31.0800   22.1260 N   0  0  0  0  0  0  0  0  0  0  0  0
  -23.5280  -32.1550   23.7790 O   0  0  0  0  0  0  0  0  0  0  0  0
  -22.7380  -29.4590   22.5660 C   0  0  0  0  0  0  0  0  0  0  0  0
  -21.4130  -29.2770   22.4500 N   0  0  0  0  0  0  0  0  0  0  0  0
  -23.4290  -28.8340   23.3750 O   0  0  0  0  0  0  0  0  0  0  0  0
  -20.9160  -29.8360   21.7690 H   0  0  0  0  0  0  0  0  0  0  0  0
  -18.0440  -28.0780   22.9670 C   0  0  0  0  0  0  0  0  0  0  0  0
  -20.6020  -28.3400   23.2270 C   0  0  0  0  0  3  0  0  0  0  0  0
  -20.7050  -26.9080   22.6550 C   0  0  0  0  0  2  0  0  0  0  0  0
  -19.5990  -26.5800   21.6460 C   0  0  0  0  0  2  0  0  0  0  0  0
  -18.2200  -26.7270   22.2950 C   0  0  0  0  0  2  0  0  0  0  0  0
  -19.1630  -28.8430   23.3900 C   0  0  0  0  0  0  0  0  0  0  0  0
  -18.9450  -30.1090   23.9760 C   0  0  0  0  0  3  0  0  0  0  0  0
  -17.6410  -30.6090   24.1460 C   0  0  0  0  0  3  0  0  0  0  0  0
  -16.5360  -29.8410   23.7390 C   0  0  0  0  0  3  0  0  0  0  0  0
  -16.7380  -28.5780   23.1550 C   0  0  0  0  0  3  0  0  0  0  0  0
  -25.8960  -32.5110   23.8360 C   0  0  0  0  0  3  0  0  0  0  0  0
  -25.5900  -33.9060   24.1780 N   0  0  0  0  0  0  0  0  0  0  0  0
  -25.9130  -34.9630   23.4200 C   0  0  0  0  0  0  0  0  0  0  0  0
  -26.5720  -34.8650   22.3810 O   0  0  0  0  0  0  0  0  0  0  0  0
  -25.0050  -34.0560   24.9870 H   0  0  0  0  0  0  0  0  0  0  0  0
  -24.1800  -36.7550   23.0920 C   0  0  0  0  0  1  0  0  0  0  0  0
  -25.4280  -36.3480   23.8900 C   0  0  0  0  0  3  0  0  0  0  0  0
  -27.5720  -37.2290   24.7010 C   0  0  0  0  0  1  0  0  0  0  0  0
  -26.4580  -37.4030   23.7720 N   0  0  0  0  0  0  0  0  0  0  0  0
  -26.0530  -38.3210   23.9320 H   0  0  0  0  0  0  0  0  0  0  0  0
  -26.4340  -31.7320   25.1000 C   0  0  1  0  0  0  0  0  0  0  0  0
  -25.3580  -31.4880   26.1830 C   0  0  0  0  0  1  0  0  0  0  0  0
  -27.0110  -30.3580   24.6880 C   0  0  0  0  0  1  0  0  0  0  0  0
  -27.5950  -32.5230   25.7480 C   0  0  0  0  0  1  0  0  0  0  0  0
  1 50  1  0
  1  3  1  0
  1 53  1  0
  2 10  1  0
  2  3  1  0
  3  5  1  0
  4  2  2  0
  6 10  2  0
  6  8  1  0
  7  9  2  0
  8 11  2  0
 10  7  1  0
 11  9  1  0
 11 20  1  0
 12 20  1  0
 13 18  1  0
 14 15  1  0
 14 13  1  0
 16 15  1  0
 16 25  1  0
 16 17  1  0
 18 12  1  0
 18 17  1  0
 19 12  2  0
 20 21  1  0
 22 23  2  0
 23 42  1  0
 24 23  1  0
 24 27  1  0
 25 22  1  0
 25 26  1  0
 26 24  2  0
 27 28  1  0
 28 29  2  0
 30 33  1  0
 30 29  1  0
 31 30  2  0
 32 31  1  0
 32 27  2  0
 33 34  1  0
 34 35  1  0
 35 36  2  0
 37 36  1  0
 37 41  1  0
 38 37  2  0
 39 34  2  0
 39 38  1  0
 40 39  1  0
 42 43  1  0
 43 46  1  0
 43 45  1  0
 44 42  2  0
 47 48  1  0
 47 22  1  0
 49 47  1  0
 50 52  2  0
 51 50  1  0
 53 54  2  0
 55 53  1  0
 55 56  1  0
 57 68  2  0
 58 56  1  0
 58 63  1  0
 59 67  1  0
 59 69  1  0
 60 66  1  0
 60 62  1  0
 61 67  1  0
 62 61  1  0
 63 62  2  0
 64 65  1  0
 64 58  2  0
 65 60  2  0
 66 59  1  0
 67 57  1  0
 69 71  2  0
 70 69  1  0
 72 70  1  0
 73 82  2  0
 73 78  1  0
 74 70  1  0
 74 78  1  0
 75 74  1  0
 76 77  1  0
 76 75  1  0
 77 73  1  0
 78 79  2  0
 79 80  1  0
 81 80  2  0
 82 81  1  0
 83 57  1  0
 83 84  1  0
 83 93  1  0
 84 87  1  0
 85 89  1  0
 85 84  1  0
 86 85  2  0
 89 88  1  0
 91 89  1  0
 91 92  1  0
 91 90  1  0
 93 96  1  1
 93 94  1  0
 95 93  1  0
M  ISO  4  12 100  20 100  55 101  56 101
M  END
>  <TORSDO>  (30) 
F 21

>  <SCORE>  (30) 
-13.650

>  <name>  (30) 
29

>  <ligand_id>  (30) 
29

>  <original_smiles>  (30) 
[H]c1c([H])c([H])c2c(c1[H])C([H])([H])C([H])([H])C([H])([H])C2([H])N([H])C(=O)C1([H])N(C(=O)C([H])(N([H])C(=O)C([H])(N([H])C([H])([H])[H])C([H])([H])[H])C(C([H])([H])[H])(C([H])([H])[H])C([H])([H])[H])C([H])([H])c2c([H])c(OC([H])([H])C(=O)C([H])(C(=O)C([H])([H])[H])N([H])C(=O)c3c([H])c([H])c(N([H])C(=O)N4C([H])([H])C([H])([H])C([H])([H])C([H])(n5nc(-c6c([H])c([H])c(Oc7c([H])c([H])c(F)c([H])c7F)c([H])c6[H])c(C(=O)N([H])[H])c5N([H])[H])C4([H])[H])c([H])c3[H])c([H])c([H])c2C1([H])[H]

>  <smiles>  (30) 
[H]c1c([H])c([H])c2c(c1[H])C([H])([H])C([H])([H])C([H])([H])C2([H])N([H])C(=O)C1([H])N(C(=O)C([H])(N([H])C(=O)C([H])(N([H])C([H])([H])[H])C([H])([H])[H])C(C([H])([H])[H])(C([H])([H])[H])C([H])([H])[H])C([H])([H])c2c([H])c(OC([H])([H])C(=O)C([H])(C(=O)C([H])([H])[H])N([H])C(=O)c3c([H])c([H])c(N([H])C(=O)N4C([H])([H])C([H])([H])C([H])([H])C([H])(n5nc(-c6c([H])c([H])c(Oc7c([H])c([H])c(F)c([H])c7F)c([H])c6[H])c(C(=O)N([H])[H])c5N([H])[H])C4([H])[H])c([H])c3[H])c([H])c([H])c2C1([H])[H]

$$$$
30:0:0
     RDKit          3D

 97105  0  0  1  0  0  0  0  0999 V2000
  -30.2510  -18.9070   21.1050 C   0  0  0  0  0  3  0  0  0  0  0  0
  -30.2630  -20.3210   21.2650 C   0  0  0  0  0  3  0  0  0  0  0  0
  -29.7100  -19.1990   18.7670 C   0  0  0  0  0  3  0  0  0  0  0  0
  -30.0190  -18.3180   19.8380 C   0  0  0  0  0  0  0  0  0  0  0  0
  -30.0320  -21.1990   20.1720 C   0  0  0  0  0  0  0  0  0  0  0  0
  -29.7390  -20.6080   18.9180 C   0  0  0  0  0  0  0  0  0  0  0  0
  -30.7020  -14.6200   20.3160 C   0  0  0  0  0  0  0  0  0  0  0  0
  -30.3550  -12.3840   19.3690 C   0  0  0  0  0  2  0  0  0  0  0  0
  -29.4400  -12.5300   18.1390 C   0  0  0  0  0  2  0  0  0  0  0  0
  -27.9610  -12.4210   18.5590 C   0  0  0  0  0  2  0  0  0  0  0  0
  -27.6090  -13.2960   19.7920 C   0  0  0  0  0  3  0  0  0  0  0  0
  -28.6730  -13.2000   20.9110 C   0  0  0  0  0  2  0  0  0  0  0  0
  -29.9840  -13.4560   20.3120 N   0  0  0  0  0  0  0  0  0  0  0  0
  -31.9100  -14.5960   20.0760 O   0  0  0  0  0  0  0  0  0  0  0  0
  -30.3970  -16.8710   19.5270 C   0  0  0  0  0  0  0  0  0  0  0  0
  -30.0260  -15.8100   20.3080 N   0  0  0  0  0  0  0  0  0  0  0  0
  -31.0510  -16.7180   18.4850 O   0  0  0  0  0  0  0  0  0  0  0  0
  -29.1760  -15.9010   20.8390 H   0  0  0  0  0  0  0  0  0  0  0  0
  -25.2170  -13.8780   20.5210 C   0  0  0  0  0  0  0  0  0  0  0  0
  -24.1540  -13.1000   20.8900 C   0  0  0  0  0  0  0  0  0  0  0  0
  -24.6220  -11.7500   20.8670 C   0  0  0  0  0  0  0  0  0  0  0  0
  -26.2650  -13.0030   20.2870 N   0  0  0  0  0  0  0  0  0  0  0  0
  -25.9130  -11.7190   20.5590 N   0  0  0  0  0  0  0  0  0  0  0  0
  -23.8960  -10.4860   21.0590 C   0  0  0  0  0  0  0  0  0  0  0  0
  -24.3350   -9.5150   21.9880 C   0  0  0  0  0  3  0  0  0  0  0  0
  -23.6090   -8.3170   22.1720 C   0  0  0  0  0  3  0  0  0  0  0  0
  -22.4310   -8.0820   21.4220 C   0  0  0  0  0  0  0  0  0  0  0  0
  -22.0090   -9.0400   20.4820 C   0  0  0  0  0  3  0  0  0  0  0  0
  -22.7380  -10.2280   20.2990 C   0  0  0  0  0  3  0  0  0  0  0  0
  -21.6780   -6.9360   21.5110 O   0  0  0  0  0  0  0  0  0  0  0  0
  -21.6420   -6.1850   22.6580 C   0  0  0  0  0  0  0  0  0  0  0  0
  -21.2380   -6.7330   23.8940 C   0  0  0  0  0  3  0  0  0  0  0  0
  -21.1510   -5.9110   25.0340 C   0  0  0  0  0  3  0  0  0  0  0  0
  -21.4580   -4.5400   24.9400 C   0  0  0  0  0  0  0  0  0  0  0  0
  -21.8560   -3.9900   23.7080 C   0  0  0  0  0  3  0  0  0  0  0  0
  -21.9460   -4.8100   22.5710 C   0  0  0  0  0  0  0  0  0  0  0  0
  -22.3090   -4.2730   21.3810 F   0  0  0  0  0  0  0  0  0  0  0  0
  -21.3680   -3.7460   26.0320 F   0  0  0  0  0  0  0  0  0  0  0  0
  -22.7550  -13.5730   21.1560 C   0  0  0  0  0  0  0  0  0  0  0  0
  -22.0260  -12.8790   22.0250 N   0  0  0  0  0  0  0  0  0  0  0  0
  -22.3150  -14.5950   20.6300 O   0  0  0  0  0  0  0  0  0  0  0  0
  -22.3940  -12.0530   22.4700 H   0  0  0  0  0  0  0  0  0  0  0  0
  -21.0890  -13.1840   22.2500 H   0  0  0  0  0  0  0  0  0  0  0  0
  -25.3760  -15.2470   20.3400 N   0  0  0  0  0  0  0  0  0  0  0  0
  -24.6050  -15.8970   20.4460 H   0  0  0  0  0  0  0  0  0  0  0  0
  -26.2150  -15.6830   19.9800 H   0  0  0  0  0  0  0  0  0  0  0  0
  -29.7850  -23.7740   20.0640 C   0  0  0  0  0  0  0  0  0  0  0  0
  -30.4320  -22.5870   20.2510 N   0  0  0  0  0  0  0  0  0  0  0  0
  -30.2860  -24.5820   19.2810 O   0  0  0  0  0  0  0  0  0  0  0  0
  -31.3800  -22.6880   19.9230 H   0  0  0  0  0  0  0  0  0  0  0  0
  -27.9960  -25.3030   20.9160 C   0  0  0  0  0  3  0  0  0  0  0  0
  -28.5640  -24.0590   20.8420 C   0  0  0  0  0  0  0  0  0  0  0  0
  -27.9030  -22.9190   21.6110 C   0  0  0  0  0  1  0  0  0  0  0  0
  -28.3270  -26.5200   20.3070 O   0  0  0  0  0  0  0  0  0  0  0  0
  -24.6080  -31.9010   23.2390 C   0  0  0  0  0  0  0  0  0  0  0  0
  -27.2540  -27.3990   20.1980 C   0  0  0  0  0  0  0  0  0  0  0  0
  -23.4180  -30.4940   21.5920 C   0  0  0  0  0  3  0  0  0  0  0  0
  -24.8840  -28.9630   20.1680 C   0  0  0  0  0  0  0  0  0  0  0  0
  -25.9510  -30.8400   21.4180 C   0  0  0  0  0  2  0  0  0  0  0  0
  -26.0430  -29.4670   20.7740 C   0  0  0  0  0  0  0  0  0  0  0  0
  -27.2350  -28.6930   20.7880 C   0  0  0  0  0  3  0  0  0  0  0  0
  -26.0840  -26.9400   19.5560 C   0  0  0  0  0  3  0  0  0  0  0  0
  -24.9040  -27.7040   19.5450 C   0  0  0  0  0  3  0  0  0  0  0  0
  -23.6430  -29.8250   20.2110 C   0  0  0  0  0  2  0  0  0  0  0  0
  -24.6780  -31.0950   22.1410 N   0  0  0  0  0  0  0  0  0  0  0  0
  -23.5210  -32.1750   23.7660 O   0  0  0  0  0  0  0  0  0  0  0  0
  -22.7540  -29.4750   22.5490 C   0  0  0  0  0  0  0  0  0  0  0  0
  -21.4270  -29.3020   22.4210 N   0  0  0  0  0  0  0  0  0  0  0  0
  -23.4310  -28.8490   23.3680 O   0  0  0  0  0  0  0  0  0  0  0  0
  -20.9410  -29.8590   21.7330 H   0  0  0  0  0  0  0  0  0  0  0  0
  -18.0450  -28.1220   22.9280 C   0  0  0  0  0  0  0  0  0  0  0  0
  -20.6060  -28.3670   23.1930 C   0  0  0  0  0  3  0  0  0  0  0  0
  -20.6990  -26.9380   22.6110 C   0  0  0  0  0  2  0  0  0  0  0  0
  -19.5920  -26.6240   21.5990 C   0  0  0  0  0  2  0  0  0  0  0  0
  -18.2130  -26.7750   22.2470 C   0  0  0  0  0  2  0  0  0  0  0  0
  -19.1690  -28.8770   23.3590 C   0  0  0  0  0  0  0  0  0  0  0  0
  -18.9590  -30.1390   23.9550 C   0  0  0  0  0  3  0  0  0  0  0  0
  -17.6570  -30.6470   24.1250 C   0  0  0  0  0  3  0  0  0  0  0  0
  -16.5470  -29.8900   23.7130 C   0  0  0  0  0  3  0  0  0  0  0  0
  -16.7420  -28.6300   23.1190 C   0  0  0  0  0  3  0  0  0  0  0  0
  -25.8880  -32.5370   23.8660 C   0  0  0  0  0  3  0  0  0  0  0  0
  -26.4070  -31.7690   25.1440 C   0  0  1  0  0  0  0  0  0  0  0  0
  -25.3120  -31.5300   26.2100 C   0  0  0  0  0  1  0  0  0  0  0  0
  -26.9930  -30.3920   24.7560 C   0  0  0  0  0  1  0  0  0  0  0  0
  -27.5550  -32.5660   25.8080 C   0  0  0  0  0  1  0  0  0  0  0  0
  -25.5780  -33.9360   24.1910 N   0  0  0  0  0  0  0  0  0  0  0  0
  -25.9100  -34.9850   23.4280 C   0  0  0  0  0  0  0  0  0  0  0  0
  -26.5820  -34.8810   22.3980 O   0  0  0  0  0  0  0  0  0  0  0  0
  -24.9930  -34.0960   24.9990 H   0  0  0  0  0  0  0  0  0  0  0  0
  -24.1820  -36.7750   23.0540 C   0  0  0  0  0  1  0  0  0  0  0  0
  -25.4170  -36.3750   23.8780 C   0  0  0  0  0  3  0  0  0  0  0  0
  -27.5440  -37.2590   24.7290 C   0  0  0  0  0  1  0  0  0  0  0  0
  -26.4500  -37.4280   23.7750 N   0  0  0  0  0  0  0  0  0  0  0  0
  -26.0420  -38.3470   23.9180 H   0  0  0  0  0  0  0  0  0  0  0  0
  -29.5960  -21.4170   17.7930 N   0  0  0  0  0  0  0  0  0  0  0  0
  -29.9620  -22.3590   17.8760 H   0  0  0  0  0  0  0  0  0  0  0  0
  -29.8030  -21.0130   16.8840 H   0  0  0  0  0  0  0  0  0  0  0  0
  1  2  1  0
  3  6  2  0
  3  4  1  0
  4  1  2  0
  5 48  1  0
  5  2  2  0
  6  5  1  0
  8 13  1  0
  9 10  1  0
  9  8  1  0
 11 10  1  0
 11 22  1  0
 11 12  1  0
 13  7  1  0
 13 12  1  0
 14  7  2  0
 15  4  1  0
 15 16  1  0
 16  7  1  0
 16 18  1  0
 17 15  2  0
 19 20  2  0
 20 39  1  0
 21 20  1  0
 21 24  1  0
 22 19  1  0
 22 23  1  0
 23 21  2  0
 24 25  1  0
 25 26  2  0
 27 30  1  0
 27 26  1  0
 28 27  2  0
 29 28  1  0
 29 24  2  0
 30 31  1  0
 31 32  1  0
 32 33  2  0
 34 33  1  0
 34 38  1  0
 35 34  2  0
 36 31  2  0
 36 35  1  0
 37 36  1  0
 39 40  1  0
 40 43  1  0
 40 42  1  0
 41 39  2  0
 44 45  1  0
 44 19  1  0
 46 44  1  0
 47 48  1  0
 47 52  1  0
 49 47  2  0
 50 48  1  0
 52 51  2  0
 52 53  1  0
 54 51  1  0
 55 66  2  0
 56 54  1  0
 56 61  1  0
 57 65  1  0
 57 67  1  0
 58 64  1  0
 58 60  1  0
 59 65  1  0
 60 61  2  0
 60 59  1  0
 62 56  2  0
 63 62  1  0
 63 58  2  0
 64 57  1  0
 65 55  1  0
 67 69  2  0
 68 67  1  0
 70 68  1  0
 71 80  2  0
 71 76  1  0
 72 68  1  0
 72 76  1  0
 73 72  1  0
 74 75  1  0
 74 73  1  0
 75 71  1  0
 76 77  2  0
 77 78  1  0
 79 78  2  0
 80 79  1  0
 81 55  1  0
 81 86  1  0
 81 82  1  0
 82 85  1  1
 82 83  1  0
 84 82  1  0
 86 89  1  0
 87 91  1  0
 87 86  1  0
 88 87  2  0
 91 90  1  0
 93 91  1  0
 93 94  1  0
 93 92  1  0
 95 96  1  0
 95  6  1  0
 97 95  1  0
M  ISO  4   7 100  16 100  51 101  54 101
M  END
>  <TORSDO>  (31) 
F 19

>  <SCORE>  (31) 
-14.718

>  <name>  (31) 
30

>  <ligand_id>  (31) 
30

>  <original_smiles>  (31) 
[H]C(Oc1c([H])c([H])c2c(c1[H])C([H])([H])N(C(=O)C([H])(N([H])C(=O)C([H])(N([H])C([H])([H])[H])C([H])([H])[H])C(C([H])([H])[H])(C([H])([H])[H])C([H])([H])[H])C([H])(C(=O)N([H])C1([H])c3c([H])c([H])c([H])c([H])c3C([H])([H])C([H])([H])C1([H])[H])C2([H])[H])=C(C(=O)N([H])c1c([H])c([H])c(C(=O)N([H])C(=O)N2C([H])([H])C([H])([H])C([H])([H])C([H])(n3nc(-c4c([H])c([H])c(Oc5c([H])c([H])c(F)c([H])c5F)c([H])c4[H])c(C(=O)N([H])[H])c3N([H])[H])C2([H])[H])c([H])c1N([H])[H])C([H])([H])[H]

>  <smiles>  (31) 
[H]C(Oc1c([H])c([H])c2c(c1[H])C([H])([H])N(C(=O)C([H])(N([H])C(=O)C([H])(N([H])C([H])([H])[H])C([H])([H])[H])C(C([H])([H])[H])(C([H])([H])[H])C([H])([H])[H])C([H])(C(=O)N([H])C1([H])c3c([H])c([H])c([H])c([H])c3C([H])([H])C([H])([H])C1([H])[H])C2([H])[H])=C(C(=O)N([H])c1c([H])c([H])c(C(=O)N([H])C(=O)N2C([H])([H])C([H])([H])C([H])([H])C([H])(n3nc(-c4c([H])c([H])c(Oc5c([H])c([H])c(F)c([H])c5F)c([H])c4[H])c(C(=O)N([H])[H])c3N([H])[H])C2([H])[H])c([H])c1N([H])[H])C([H])([H])[H]

$$$$
31:0:0
     RDKit          3D

 96105  0  0  1  0  0  0  0  0999 V2000
  -31.8630  -22.6890   21.2070 C   0  0  0  0  0  0  0  0  0  0  0  0
  -29.8900  -21.6030   21.4690 C   0  0  0  0  0  0  0  0  0  0  0  0
  -32.7620  -23.6840   21.1140 C   0  0  0  0  0  2  0  0  0  0  0  0
  -32.1100  -21.2290   20.9780 C   0  0  0  0  0  2  0  0  0  0  0  0
  -30.7960  -20.6290   21.1990 N   0  0  0  0  0  0  0  0  0  0  0  0
  -30.5140  -22.7950   21.5120 N   0  0  0  0  0  0  0  0  0  0  0  0
  -28.6780  -21.4580   21.6600 O   0  0  0  0  0  0  0  0  0  0  0  0
  -29.3430  -18.5750   21.3120 C   0  0  0  0  0  3  0  0  0  0  0  0
  -31.6950  -18.3740   20.7610 C   0  0  0  0  0  3  0  0  0  0  0  0
  -29.1980  -17.1780   21.1840 C   0  0  0  0  0  3  0  0  0  0  0  0
  -31.5520  -16.9790   20.6360 C   0  0  0  0  0  3  0  0  0  0  0  0
  -30.5950  -19.2060   21.0890 C   0  0  0  0  0  0  0  0  0  0  0  0
  -30.2940  -16.3670   20.8240 C   0  0  0  0  0  0  0  0  0  0  0  0
  -30.5730  -14.1080   19.7930 C   0  0  0  0  0  0  0  0  0  0  0  0
  -30.1550  -11.9860   18.6020 C   0  0  0  0  0  2  0  0  0  0  0  0
  -29.0470  -12.1850   17.5490 C   0  0  0  0  0  2  0  0  0  0  0  0
  -27.6530  -11.9920   18.1770 C   0  0  0  0  0  2  0  0  0  0  0  0
  -27.4730  -12.8000   19.4890 C   0  0  0  0  0  3  0  0  0  0  0  0
  -28.6740  -12.5730   20.4360 C   0  0  0  0  0  2  0  0  0  0  0  0
  -29.9070  -12.9250   19.7080 N   0  0  0  0  0  0  0  0  0  0  0  0
  -31.5360  -14.3810   19.0710 O   0  0  0  0  0  0  0  0  0  0  0  0
  -30.0710  -14.9660   20.6990 N   0  0  0  0  0  0  0  0  0  0  0  0
  -29.2830  -14.5980   21.2100 H   0  0  0  0  0  0  0  0  0  0  0  0
  -25.2030  -13.3360   20.5830 C   0  0  0  0  0  0  0  0  0  0  0  0
  -24.2040  -12.5290   21.0570 C   0  0  0  0  0  0  0  0  0  0  0  0
  -24.6570  -11.1870   20.8670 C   0  0  0  0  0  0  0  0  0  0  0  0
  -26.2040  -12.4830   20.1430 N   0  0  0  0  0  0  0  0  0  0  0  0
  -25.8850  -11.1820   20.3660 N   0  0  0  0  0  0  0  0  0  0  0  0
  -23.9710   -9.9060   21.0810 C   0  0  0  0  0  0  0  0  0  0  0  0
  -24.4570   -8.9530   22.0020 C   0  0  0  0  0  3  0  0  0  0  0  0
  -23.7710   -7.7350   22.2020 C   0  0  0  0  0  3  0  0  0  0  0  0
  -22.5830   -7.4640   21.4810 C   0  0  0  0  0  0  0  0  0  0  0  0
  -22.1160   -8.4070   20.5490 C   0  0  0  0  0  3  0  0  0  0  0  0
  -22.8030   -9.6150   20.3470 C   0  0  0  0  0  3  0  0  0  0  0  0
  -21.8640   -6.2990   21.5920 O   0  0  0  0  0  0  0  0  0  0  0  0
  -21.7440   -5.6380   22.7880 C   0  0  0  0  0  0  0  0  0  0  0  0
  -21.1390   -6.2370   23.9140 C   0  0  0  0  0  3  0  0  0  0  0  0
  -20.9750   -5.4970   25.1020 C   0  0  0  0  0  3  0  0  0  0  0  0
  -21.4050   -4.1580   25.1640 C   0  0  0  0  0  0  0  0  0  0  0  0
  -22.0030   -3.5570   24.0420 C   0  0  0  0  0  3  0  0  0  0  0  0
  -22.1690   -4.2950   22.8560 C   0  0  0  0  0  0  0  0  0  0  0  0
  -22.7270   -3.7060   21.7710 F   0  0  0  0  0  0  0  0  0  0  0  0
  -21.2400   -3.4440   26.3020 F   0  0  0  0  0  0  0  0  0  0  0  0
  -22.8630  -12.9700   21.5700 C   0  0  0  0  0  0  0  0  0  0  0  0
  -22.2910  -12.2260   22.5100 N   0  0  0  0  0  0  0  0  0  0  0  0
  -22.3370  -14.0080   21.1710 O   0  0  0  0  0  0  0  0  0  0  0  0
  -22.7330  -11.3860   22.8520 H   0  0  0  0  0  0  0  0  0  0  0  0
  -21.3980  -12.5020   22.8930 H   0  0  0  0  0  0  0  0  0  0  0  0
  -25.3380  -14.7170   20.4750 N   0  0  0  0  0  0  0  0  0  0  0  0
  -24.5950  -15.3550   20.7360 H   0  0  0  0  0  0  0  0  0  0  0  0
  -26.1300  -15.1840   20.0500 H   0  0  0  0  0  0  0  0  0  0  0  0
  -29.8430  -24.0790   21.7840 C   0  0  0  0  0  2  0  0  0  0  0  0
  -29.3310  -24.7460   20.4990 C   0  0  0  0  0  0  0  0  0  0  0  0
  -29.3850  -24.1640   19.4080 O   0  0  0  0  0  0  0  0  0  0  0  0
  -28.7520  -26.1610   20.6280 C   0  0  0  0  0  2  0  0  0  0  0  0
  -28.0320  -26.4850   19.4420 O   0  0  0  0  0  0  0  0  0  0  0  0
  -24.6810  -31.5780   23.1620 C   0  0  0  0  0  0  0  0  0  0  0  0
  -26.9340  -27.2840   19.6240 C   0  0  0  0  0  0  0  0  0  0  0  0
  -23.3230  -30.3760   21.4780 C   0  0  0  0  0  3  0  0  0  0  0  0
  -24.6240  -28.8810   19.8740 C   0  0  0  0  0  0  0  0  0  0  0  0
  -25.8500  -30.6210   21.1840 C   0  0  0  0  0  2  0  0  0  0  0  0
  -25.8300  -29.3000   20.4490 C   0  0  0  0  0  0  0  0  0  0  0  0
  -26.9900  -28.5030   20.3350 C   0  0  0  0  0  3  0  0  0  0  0  0
  -25.7190  -26.8770   19.0410 C   0  0  0  0  0  3  0  0  0  0  0  0
  -24.5590  -27.6640   19.1720 C   0  0  0  0  0  3  0  0  0  0  0  0
  -23.4310  -29.7950   20.0420 C   0  0  0  0  0  2  0  0  0  0  0  0
  -24.6400  -30.8670   22.0000 N   0  0  0  0  0  0  0  0  0  0  0  0
  -23.6440  -31.8640   23.7750 O   0  0  0  0  0  0  0  0  0  0  0  0
  -22.6600  -29.3190   22.3880 C   0  0  0  0  0  0  0  0  0  0  0  0
  -21.3250  -29.2040   22.2970 N   0  0  0  0  0  0  0  0  0  0  0  0
  -23.3420  -28.6070   23.1310 O   0  0  0  0  0  0  0  0  0  0  0  0
  -20.8380  -29.8280   21.6700 H   0  0  0  0  0  0  0  0  0  0  0  0
  -17.9190  -28.1230   22.8220 C   0  0  0  0  0  0  0  0  0  0  0  0
  -20.4920  -28.2500   23.0290 C   0  0  0  0  0  3  0  0  0  0  0  0
  -20.5140  -26.8590   22.3540 C   0  0  0  0  0  2  0  0  0  0  0  0
  -19.3690  -26.6550   21.3560 C   0  0  0  0  0  2  0  0  0  0  0  0
  -18.0150  -26.8160   22.0530 C   0  0  0  0  0  2  0  0  0  0  0  0
  -19.0830  -28.8040   23.2660 C   0  0  0  0  0  0  0  0  0  0  0  0
  -18.9390  -30.0340   23.9450 C   0  0  0  0  0  3  0  0  0  0  0  0
  -17.6640  -30.5800   24.1840 C   0  0  0  0  0  3  0  0  0  0  0  0
  -16.5140  -29.8930   23.7570 C   0  0  0  0  0  3  0  0  0  0  0  0
  -16.6430  -28.6660   23.0810 C   0  0  0  0  0  3  0  0  0  0  0  0
  -26.0300  -32.0850   23.7630 C   0  0  0  0  0  3  0  0  0  0  0  0
  -26.5670  -31.1810   24.9390 C   0  0  1  0  0  0  0  0  0  0  0  0
  -25.5170  -30.9100   26.0420 C   0  0  0  0  0  1  0  0  0  0  0  0
  -27.0490  -29.8130   24.3990 C   0  0  0  0  0  1  0  0  0  0  0  0
  -27.7920  -31.8520   25.6010 C   0  0  0  0  0  1  0  0  0  0  0  0
  -25.8190  -33.4650   24.2210 N   0  0  0  0  0  0  0  0  0  0  0  0
  -26.2060  -34.5560   23.5460 C   0  0  0  0  0  0  0  0  0  0  0  0
  -26.8530  -34.5000   22.4960 O   0  0  0  0  0  0  0  0  0  0  0  0
  -25.2470  -33.5860   25.0440 H   0  0  0  0  0  0  0  0  0  0  0  0
  -24.6000  -36.4820   23.3720 C   0  0  0  0  0  1  0  0  0  0  0  0
  -25.8160  -35.9270   24.1310 C   0  0  0  0  0  3  0  0  0  0  0  0
  -28.0020  -36.6000   25.0240 C   0  0  0  0  0  1  0  0  0  0  0  0
  -26.9170  -36.9140   24.0980 N   0  0  0  0  0  0  0  0  0  0  0  0
  -26.5710  -37.8440   24.3190 H   0  0  0  0  0  0  0  0  0  0  0  0
  1  6  1  0
  2  6  1  0
  2  7  2  0
  3  1  2  0
  4  5  1  0
  4  1  1  0
  5  2  1  0
  6 52  1  0
  9 12  1  0
 10  8  1  0
 11  9  2  0
 11 13  1  0
 12  5  1  0
 12  8  2  0
 13 10  2  0
 14 22  1  0
 15 20  1  0
 16 17  1  0
 16 15  1  0
 18 17  1  0
 18 27  1  0
 18 19  1  0
 20 14  1  0
 20 19  1  0
 21 14  2  0
 22 13  1  0
 22 23  1  0
 24 25  2  0
 25 44  1  0
 26 25  1  0
 26 29  1  0
 27 28  1  0
 27 24  1  0
 28 26  2  0
 29 30  1  0
 30 31  2  0
 32 35  1  0
 32 31  1  0
 33 32  2  0
 34 33  1  0
 34 29  2  0
 35 36  1  0
 36 41  2  0
 36 37  1  0
 37 38  2  0
 38 39  1  0
 39 43  1  0
 40 39  2  0
 41 40  1  0
 42 41  1  0
 44 45  1  0
 45 47  1  0
 45 48  1  0
 46 44  2  0
 49 24  1  0
 49 50  1  0
 51 49  1  0
 53 55  1  0
 53 52  1  0
 54 53  2  0
 56 58  1  0
 56 55  1  0
 57 68  2  0
 58 63  1  0
 59 67  1  0
 59 69  1  0
 60 66  1  0
 60 62  1  0
 61 67  1  0
 62 61  1  0
 63 62  2  0
 64 65  1  0
 64 58  2  0
 65 60  2  0
 66 59  1  0
 67 57  1  0
 69 71  2  0
 70 69  1  0
 72 70  1  0
 73 82  2  0
 73 78  1  0
 74 70  1  0
 74 78  1  0
 75 74  1  0
 76 77  1  0
 76 75  1  0
 77 73  1  0
 78 79  2  0
 79 80  1  0
 81 80  2  0
 82 81  1  0
 83 57  1  0
 83 88  1  0
 83 84  1  0
 84 87  1  1
 84 85  1  0
 86 84  1  0
 88 91  1  0
 89 93  1  0
 89 88  1  0
 90 89  2  0
 93 92  1  0
 95 93  1  0
 95 96  1  0
 95 94  1  0
M  ISO  4  14 100  22 100  55 101  56 101
M  END
>  <TORSDO>  (32) 
F 20

>  <SCORE>  (32) 
-10.715

>  <name>  (32) 
31

>  <ligand_id>  (32) 
31

>  <original_smiles>  (32) 
[H]C([H])=C1N(C([H])([H])C(=O)C([H])([H])Oc2c([H])c([H])c3c(c2[H])C([H])([H])N(C(=O)C([H])(N([H])C(=O)C([H])(N([H])C([H])([H])[H])C([H])([H])[H])C(C([H])([H])[H])(C([H])([H])[H])C([H])([H])[H])C([H])(C(=O)N([H])C2([H])c4c([H])c([H])c([H])c([H])c4C([H])([H])C([H])([H])C2([H])[H])C3([H])[H])C(=O)N(c2c([H])c([H])c(N([H])C(=O)N3C([H])([H])C([H])([H])C([H])([H])C([H])(n4nc(-c5c([H])c([H])c(Oc6c([H])c([H])c(F)c([H])c6F)c([H])c5[H])c(C(=O)N([H])[H])c4N([H])[H])C3([H])[H])c([H])c2[H])C1([H])[H]

>  <smiles>  (32) 
[H]C([H])=C1N(C([H])([H])C(=O)C([H])([H])Oc2c([H])c([H])c3c(c2[H])C([H])([H])N(C(=O)C([H])(N([H])C(=O)C([H])(N([H])C([H])([H])[H])C([H])([H])[H])C(C([H])([H])[H])(C([H])([H])[H])C([H])([H])[H])C([H])(C(=O)N([H])C2([H])c4c([H])c([H])c([H])c([H])c4C([H])([H])C([H])([H])C2([H])[H])C3([H])[H])C(=O)N(c2c([H])c([H])c(N([H])C(=O)N3C([H])([H])C([H])([H])C([H])([H])C([H])(n4nc(-c5c([H])c([H])c(Oc6c([H])c([H])c(F)c([H])c6F)c([H])c5[H])c(C(=O)N([H])[H])c4N([H])[H])C3([H])[H])c([H])c2[H])C1([H])[H]

$$$$
32:0:0
     RDKit          3D

 94103  0  0  1  0  0  0  0  0999 V2000
  -28.8770  -23.9820   20.0070 C   0  0  0  0  0  0  0  0  0  0  0  0
  -29.5770  -23.7780   18.7660 C   0  0  0  0  0  0  0  0  0  0  0  0
  -28.7910  -22.6310   20.6290 C   0  0  0  0  0  0  0  0  0  0  0  0
  -29.9600  -24.7410   17.9080 C   0  0  0  0  0  2  0  0  0  0  0  0
  -28.3550  -25.1420   20.5500 C   0  0  0  0  0  3  0  0  0  0  0  0
  -29.8390  -22.3000   18.5700 C   0  0  0  0  0  2  0  0  0  0  0  0
  -29.3950  -21.6770   19.8260 N   0  0  0  0  0  0  0  0  0  0  0  0
  -28.2490  -22.3860   21.7120 O   0  0  0  0  0  0  0  0  0  0  0  0
  -29.9090  -17.8590   19.2510 C   0  0  0  0  0  3  0  0  0  0  0  0
  -30.0110  -18.2900   21.5950 C   0  0  0  0  0  3  0  0  0  0  0  0
  -29.7040  -19.2630   19.0230 C   0  0  0  0  0  3  0  0  0  0  0  0
  -29.7890  -19.6810   21.3730 C   0  0  0  0  0  3  0  0  0  0  0  0
  -30.0600  -17.3070   20.5560 C   0  0  0  0  0  0  0  0  0  0  0  0
  -29.6110  -20.2280   20.0770 C   0  0  0  0  0  0  0  0  0  0  0  0
  -30.1600  -15.7970   20.9320 C   0  0  0  0  0  0  0  0  0  0  0  0
  -29.8210  -15.4810   22.1150 N   0  0  0  0  0  0  0  0  0  0  0  0
  -29.4860  -16.2860   22.6290 H   0  0  0  0  0  0  0  0  0  0  0  0
  -30.7350  -14.6730   19.9680 C   0  0  0  0  0  0  0  0  0  0  0  0
  -30.4190  -12.4900   18.7850 C   0  0  0  0  0  2  0  0  0  0  0  0
  -29.3840  -12.6590   17.6470 C   0  0  0  0  0  2  0  0  0  0  0  0
  -27.9430  -12.4910   18.1680 C   0  0  0  0  0  2  0  0  0  0  0  0
  -27.6900  -13.2970   19.4680 C   0  0  0  0  0  3  0  0  0  0  0  0
  -28.8160  -13.0360   20.4860 C   0  0  0  0  0  2  0  0  0  0  0  0
  -30.0900  -13.4530   19.8660 N   0  0  0  0  0  0  0  0  0  0  0  0
  -31.7770  -14.8810   19.3340 O   0  0  0  0  0  0  0  0  0  0  0  0
  -25.3610  -13.9050   20.3670 C   0  0  0  0  0  0  0  0  0  0  0  0
  -24.3140  -13.1340   20.7950 C   0  0  0  0  0  0  0  0  0  0  0  0
  -24.7580  -11.7810   20.7010 C   0  0  0  0  0  0  0  0  0  0  0  0
  -26.3740  -13.0190   20.0370 N   0  0  0  0  0  0  0  0  0  0  0  0
  -26.0200  -11.7350   20.2950 N   0  0  0  0  0  0  0  0  0  0  0  0
  -24.0340  -10.5210   20.9140 C   0  0  0  0  0  0  0  0  0  0  0  0
  -24.4930   -9.5510   21.8320 C   0  0  0  0  0  3  0  0  0  0  0  0
  -23.7700   -8.3570   22.0340 C   0  0  0  0  0  3  0  0  0  0  0  0
  -22.5710   -8.1230   21.3160 C   0  0  0  0  0  0  0  0  0  0  0  0
  -22.1300   -9.0820   20.3880 C   0  0  0  0  0  3  0  0  0  0  0  0
  -22.8550  -10.2690   20.1850 C   0  0  0  0  0  3  0  0  0  0  0  0
  -21.8150   -6.9810   21.4280 O   0  0  0  0  0  0  0  0  0  0  0  0
  -21.7620   -6.2660   22.5970 C   0  0  0  0  0  0  0  0  0  0  0  0
  -21.3480   -6.8530   23.8130 C   0  0  0  0  0  3  0  0  0  0  0  0
  -21.2410   -6.0630   24.9750 C   0  0  0  0  0  3  0  0  0  0  0  0
  -21.5380   -4.6880   24.9230 C   0  0  0  0  0  0  0  0  0  0  0  0
  -21.9450   -4.1010   23.7120 C   0  0  0  0  0  3  0  0  0  0  0  0
  -22.0540   -4.8880   22.5510 C   0  0  0  0  0  0  0  0  0  0  0  0
  -22.4270   -4.3130   21.3820 F   0  0  0  0  0  0  0  0  0  0  0  0
  -21.4270   -3.9270   26.0360 F   0  0  0  0  0  0  0  0  0  0  0  0
  -22.9460  -13.6180   21.1810 C   0  0  0  0  0  0  0  0  0  0  0  0
  -22.2830  -12.9170   22.0940 N   0  0  0  0  0  0  0  0  0  0  0  0
  -22.4780  -14.6530   20.7080 O   0  0  0  0  0  0  0  0  0  0  0  0
  -22.6760  -12.0780   22.4950 H   0  0  0  0  0  0  0  0  0  0  0  0
  -21.3710  -13.2240   22.3970 H   0  0  0  0  0  0  0  0  0  0  0  0
  -25.5290  -15.2780   20.2110 N   0  0  0  0  0  0  0  0  0  0  0  0
  -24.7860  -15.9420   20.4010 H   0  0  0  0  0  0  0  0  0  0  0  0
  -26.3720  -15.7190   19.8680 H   0  0  0  0  0  0  0  0  0  0  0  0
  -28.4530  -26.4750   20.0840 O   0  0  0  0  0  0  0  0  0  0  0  0
  -24.6690  -31.8180   23.2080 C   0  0  0  0  0  0  0  0  0  0  0  0
  -27.3230  -27.3040   20.1260 C   0  0  0  0  0  0  0  0  0  0  0  0
  -23.4670  -30.4000   21.5810 C   0  0  0  0  0  3  0  0  0  0  0  0
  -24.9280  -28.8680   20.1440 C   0  0  0  0  0  0  0  0  0  0  0  0
  -25.9960  -30.7630   21.3630 C   0  0  0  0  0  2  0  0  0  0  0  0
  -26.0950  -29.3810   20.7250 C   0  0  0  0  0  0  0  0  0  0  0  0
  -27.2980  -28.6100   20.7060 C   0  0  0  0  0  3  0  0  0  0  0  0
  -26.1320  -26.8370   19.5310 C   0  0  0  0  0  3  0  0  0  0  0  0
  -24.9480  -27.6000   19.5380 C   0  0  0  0  0  3  0  0  0  0  0  0
  -23.6780  -29.7230   20.2000 C   0  0  0  0  0  2  0  0  0  0  0  0
  -24.7310  -31.0110   22.1080 N   0  0  0  0  0  0  0  0  0  0  0  0
  -23.5890  -32.0790   23.7590 O   0  0  0  0  0  0  0  0  0  0  0  0
  -22.8330  -29.3750   22.5510 C   0  0  0  0  0  0  0  0  0  0  0  0
  -21.5090  -29.1720   22.4390 N   0  0  0  0  0  0  0  0  0  0  0  0
  -23.5310  -28.7620   23.3640 O   0  0  0  0  0  0  0  0  0  0  0  0
  -21.0030  -29.7190   21.7580 H   0  0  0  0  0  0  0  0  0  0  0  0
  -18.1680  -27.8810   22.9360 C   0  0  0  0  0  0  0  0  0  0  0  0
  -20.7150  -28.2220   23.2190 C   0  0  0  0  0  3  0  0  0  0  0  0
  -20.8630  -26.7850   22.6650 C   0  0  0  0  0  2  0  0  0  0  0  0
  -19.7780  -26.4160   21.6490 C   0  0  0  0  0  2  0  0  0  0  0  0
  -18.3890  -26.5280   22.2830 C   0  0  0  0  0  2  0  0  0  0  0  0
  -19.2600  -28.6840   23.3610 C   0  0  0  0  0  0  0  0  0  0  0  0
  -18.9990  -29.9490   23.9300 C   0  0  0  0  0  3  0  0  0  0  0  0
  -17.6780  -30.4110   24.0840 C   0  0  0  0  0  3  0  0  0  0  0  0
  -16.6000  -29.6060   23.6750 C   0  0  0  0  0  3  0  0  0  0  0  0
  -16.8460  -28.3440   23.1070 C   0  0  0  0  0  3  0  0  0  0  0  0
  -25.9510  -32.4710   23.8120 C   0  0  0  0  0  3  0  0  0  0  0  0
  -25.6210  -33.8610   24.1590 N   0  0  0  0  0  0  0  0  0  0  0  0
  -25.9290  -34.9270   23.4090 C   0  0  0  0  0  0  0  0  0  0  0  0
  -26.5910  -34.8450   22.3710 O   0  0  0  0  0  0  0  0  0  0  0  0
  -25.0370  -33.9970   24.9710 H   0  0  0  0  0  0  0  0  0  0  0  0
  -24.1730  -36.6980   23.0820 C   0  0  0  0  0  1  0  0  0  0  0  0
  -25.4230  -36.3020   23.8850 C   0  0  0  0  0  3  0  0  0  0  0  0
  -27.5480  -37.2090   24.7160 C   0  0  0  0  0  1  0  0  0  0  0  0
  -26.4370  -37.3730   23.7810 N   0  0  0  0  0  0  0  0  0  0  0  0
  -26.0160  -38.2840   23.9470 H   0  0  0  0  0  0  0  0  0  0  0  0
  -26.5050  -31.7010   25.0740 C   0  0  1  0  0  0  0  0  0  0  0  0
  -25.4360  -31.4350   26.1600 C   0  0  0  0  0  1  0  0  0  0  0  0
  -27.1060  -30.3370   24.6590 C   0  0  0  0  0  1  0  0  0  0  0  0
  -27.6490  -32.5130   25.7250 C   0  0  0  0  0  1  0  0  0  0  0  0
  1  5  2  0
  1  3  1  0
  2  1  1  0
  3  8  2  0
  4  2  2  0
  6  2  1  0
  6  7  1  0
  7 14  1  0
  7  3  1  0
  9 13  1  0
 11  9  2  0
 11 14  1  0
 12 10  1  0
 13 15  1  0
 13 10  2  0
 14 12  2  0
 15 16  2  0
 16 17  1  0
 18 15  1  0
 19 24  1  0
 20 21  1  0
 20 19  1  0
 22 21  1  0
 22 29  1  0
 22 23  1  0
 24 18  1  0
 24 23  1  0
 25 18  2  0
 26 27  2  0
 27 46  1  0
 28 27  1  0
 28 31  1  0
 29 30  1  0
 29 26  1  0
 30 28  2  0
 31 32  1  0
 32 33  2  0
 34 37  1  0
 34 33  1  0
 35 34  2  0
 36 35  1  0
 36 31  2  0
 37 38  1  0
 38 39  1  0
 39 40  2  0
 41 40  1  0
 41 45  1  0
 42 41  2  0
 43 38  2  0
 43 42  1  0
 44 43  1  0
 46 47  1  0
 47 50  1  0
 47 49  1  0
 48 46  2  0
 51 26  1  0
 51 52  1  0
 53 51  1  0
 54 56  1  0
 54  5  1  0
 55 66  2  0
 56 61  1  0
 57 65  1  0
 57 67  1  0
 58 64  1  0
 58 60  1  0
 59 65  1  0
 60 59  1  0
 61 60  2  0
 62 63  1  0
 62 56  2  0
 63 58  2  0
 64 57  1  0
 65 55  1  0
 67 69  2  0
 68 67  1  0
 70 68  1  0
 71 80  2  0
 71 76  1  0
 72 68  1  0
 72 76  1  0
 73 72  1  0
 74 75  1  0
 74 73  1  0
 75 71  1  0
 76 77  2  0
 77 78  1  0
 79 78  2  0
 80 79  1  0
 81 55  1  0
 81 82  1  0
 81 91  1  0
 82 85  1  0
 83 87  1  0
 83 82  1  0
 84 83  2  0
 87 86  1  0
 89 87  1  0
 89 90  1  0
 89 88  1  0
 91 94  1  1
 91 92  1  0
 93 91  1  0
M  ISO  4   5 101  15 100  18 100  54 101
M  END
>  <TORSDO>  (33) 
F 18

>  <SCORE>  (33) 
-13.812

>  <name>  (33) 
32

>  <ligand_id>  (33) 
32

>  <original_smiles>  (33) 
[H]N=C(C(=O)N1C([H])([H])C([H])([H])C([H])([H])C([H])(n2nc(-c3c([H])c([H])c(Oc4c([H])c([H])c(F)c([H])c4F)c([H])c3[H])c(C(=O)N([H])[H])c2N([H])[H])C1([H])[H])c1c([H])c([H])c(N2C(=O)C(=C([H])Oc3c([H])c([H])c4c(c3[H])C([H])([H])N(C(=O)C([H])(N([H])C(=O)C([H])(N([H])C([H])([H])[H])C([H])([H])[H])C(C([H])([H])[H])(C([H])([H])[H])C([H])([H])[H])C([H])(C(=O)N([H])C3([H])c5c([H])c([H])c([H])c([H])c5C([H])([H])C([H])([H])C3([H])[H])C4([H])[H])C(=C([H])[H])C2([H])[H])c([H])c1[H]

>  <smiles>  (33) 
[H]N=C(C(=O)N1C([H])([H])C([H])([H])C([H])([H])C([H])(n2nc(-c3c([H])c([H])c(Oc4c([H])c([H])c(F)c([H])c4F)c([H])c3[H])c(C(=O)N([H])[H])c2N([H])[H])C1([H])[H])c1c([H])c([H])c(N2C(=O)C(=C([H])Oc3c([H])c([H])c4c(c3[H])C([H])([H])N(C(=O)C([H])(N([H])C(=O)C([H])(N([H])C([H])([H])[H])C([H])([H])[H])C(C([H])([H])[H])(C([H])([H])[H])C([H])([H])[H])C([H])(C(=O)N([H])C3([H])c5c([H])c([H])c([H])c([H])c5C([H])([H])C([H])([H])C3([H])[H])C4([H])[H])C(=C([H])[H])C2([H])[H])c([H])c1[H]

$$$$
33:0:0
     RDKit          3D

 94102  0  0  1  0  0  0  0  0999 V2000
  -30.8140  -21.3380   20.7810 C   0  0  0  0  0  0  0  0  0  0  0  0
  -31.9040  -21.6370   21.3630 N   0  0  0  0  0  0  0  0  0  0  0  0
  -32.3850  -20.8000   21.6670 H   0  0  0  0  0  0  0  0  0  0  0  0
  -29.2700  -19.2790   21.0300 C   0  0  0  0  0  3  0  0  0  0  0  0
  -31.5110  -19.0080   20.1730 C   0  0  0  0  0  3  0  0  0  0  0  0
  -29.1080  -17.8690   21.0190 C   0  0  0  0  0  3  0  0  0  0  0  0
  -31.3540  -17.6060   20.1610 C   0  0  0  0  0  3  0  0  0  0  0  0
  -30.4880  -19.8760   20.6260 C   0  0  0  0  0  0  0  0  0  0  0  0
  -30.1530  -17.0030   20.6100 C   0  0  0  0  0  0  0  0  0  0  0  0
  -30.6840  -14.5440   20.2160 C   0  0  0  0  0  0  0  0  0  0  0  0
  -30.3680  -12.3920   19.0590 C   0  0  0  0  0  2  0  0  0  0  0  0
  -29.3950  -12.6250   17.8830 C   0  0  0  0  0  2  0  0  0  0  0  0
  -27.9320  -12.4820   18.3490 C   0  0  0  0  0  2  0  0  0  0  0  0
  -27.6300  -13.2880   19.6410 C   0  0  0  0  0  3  0  0  0  0  0  0
  -28.7160  -13.0450   20.7130 C   0  0  0  0  0  2  0  0  0  0  0  0
  -30.0220  -13.3590   20.1120 N   0  0  0  0  0  0  0  0  0  0  0  0
  -31.8280  -14.6890   19.7800 O   0  0  0  0  0  0  0  0  0  0  0  0
  -29.9350  -15.5790   20.6710 N   0  0  0  0  0  0  0  0  0  0  0  0
  -29.0300  -15.2960   21.0160 H   0  0  0  0  0  0  0  0  0  0  0  0
  -25.2480  -13.8830   20.4060 C   0  0  0  0  0  0  0  0  0  0  0  0
  -24.1930  -13.1060   20.7990 C   0  0  0  0  0  0  0  0  0  0  0  0
  -24.6590  -11.7570   20.7560 C   0  0  0  0  0  0  0  0  0  0  0  0
  -26.2910  -13.0070   20.1500 N   0  0  0  0  0  0  0  0  0  0  0  0
  -25.9420  -11.7230   20.4190 N   0  0  0  0  0  0  0  0  0  0  0  0
  -23.9440  -10.4910   20.9610 C   0  0  0  0  0  0  0  0  0  0  0  0
  -24.3890   -9.5340   21.8990 C   0  0  0  0  0  3  0  0  0  0  0  0
  -23.6740   -8.3310   22.0910 C   0  0  0  0  0  3  0  0  0  0  0  0
  -22.5000   -8.0780   21.3430 C   0  0  0  0  0  0  0  0  0  0  0  0
  -22.0750   -9.0230   20.3930 C   0  0  0  0  0  3  0  0  0  0  0  0
  -22.7910  -10.2160   20.1990 C   0  0  0  0  0  3  0  0  0  0  0  0
  -21.7560   -6.9280   21.4420 O   0  0  0  0  0  0  0  0  0  0  0  0
  -21.7010   -6.2040   22.6070 C   0  0  0  0  0  0  0  0  0  0  0  0
  -21.2500   -6.7740   23.8170 C   0  0  0  0  0  3  0  0  0  0  0  0
  -21.1450   -5.9750   24.9750 C   0  0  0  0  0  3  0  0  0  0  0  0
  -21.4800   -4.6100   24.9210 C   0  0  0  0  0  0  0  0  0  0  0  0
  -21.9250   -4.0400   23.7150 C   0  0  0  0  0  3  0  0  0  0  0  0
  -22.0320   -4.8350   22.5600 C   0  0  0  0  0  0  0  0  0  0  0  0
  -22.4400   -4.2760   21.3950 F   0  0  0  0  0  0  0  0  0  0  0  0
  -21.3720   -3.8410   26.0300 F   0  0  0  0  0  0  0  0  0  0  0  0
  -22.7990  -13.5750   21.1030 C   0  0  0  0  0  0  0  0  0  0  0  0
  -22.0930  -12.8720   21.9820 N   0  0  0  0  0  0  0  0  0  0  0  0
  -22.3460  -14.6010   20.5970 O   0  0  0  0  0  0  0  0  0  0  0  0
  -22.4740  -12.0430   22.4120 H   0  0  0  0  0  0  0  0  0  0  0  0
  -21.1600  -13.1680   22.2290 H   0  0  0  0  0  0  0  0  0  0  0  0
  -25.4030  -15.2560   20.2260 N   0  0  0  0  0  0  0  0  0  0  0  0
  -24.6310  -15.9040   20.3430 H   0  0  0  0  0  0  0  0  0  0  0  0
  -26.2330  -15.6950   19.8480 H   0  0  0  0  0  0  0  0  0  0  0  0
  -29.8750  -22.4080   20.1760 C   0  0  0  0  0  0  0  0  0  0  0  0
  -28.6760  -22.1970   19.9630 O   0  0  0  0  0  0  0  0  0  0  0  0
  -30.5370  -23.7010   19.8310 C   0  0  0  0  0  3  0  0  0  0  0  0
  -30.0130  -24.9380   19.6150 C   0  0  0  0  0  0  0  0  0  0  0  0
  -30.9520  -26.0660   19.2090 C   0  0  0  0  0  1  0  0  0  0  0  0
  -28.5500  -25.3850   19.7270 C   0  0  0  0  0  2  0  0  0  0  0  0
  -28.4740  -26.7560   20.1710 O   0  0  0  0  0  0  0  0  0  0  0  0
  -24.6010  -31.8910   23.2360 C   0  0  0  0  0  0  0  0  0  0  0  0
  -27.2740  -27.4460   20.1540 C   0  0  0  0  0  0  0  0  0  0  0  0
  -23.4050  -30.4880   21.5880 C   0  0  0  0  0  3  0  0  0  0  0  0
  -24.8680  -28.9530   20.1670 C   0  0  0  0  0  0  0  0  0  0  0  0
  -25.9320  -30.8510   21.4000 C   0  0  0  0  0  2  0  0  0  0  0  0
  -26.0240  -29.4800   20.7570 C   0  0  0  0  0  0  0  0  0  0  0  0
  -27.2260  -28.7340   20.7430 C   0  0  0  0  0  3  0  0  0  0  0  0
  -26.0930  -26.9310   19.5720 C   0  0  0  0  0  3  0  0  0  0  0  0
  -24.8990  -27.6780   19.5750 C   0  0  0  0  0  3  0  0  0  0  0  0
  -23.6220  -29.8080   20.2090 C   0  0  0  0  0  2  0  0  0  0  0  0
  -24.6640  -31.0920   22.1330 N   0  0  0  0  0  0  0  0  0  0  0  0
  -23.5170  -32.1600   23.7730 O   0  0  0  0  0  0  0  0  0  0  0  0
  -22.7540  -29.4640   22.5450 C   0  0  0  0  0  0  0  0  0  0  0  0
  -21.4300  -29.2810   22.4150 N   0  0  0  0  0  0  0  0  0  0  0  0
  -23.4360  -28.8360   23.3590 O   0  0  0  0  0  0  0  0  0  0  0  0
  -20.9410  -29.8400   21.7300 H   0  0  0  0  0  0  0  0  0  0  0  0
  -18.0530  -28.0920   22.9120 C   0  0  0  0  0  0  0  0  0  0  0  0
  -20.6120  -28.3400   23.1810 C   0  0  0  0  0  3  0  0  0  0  0  0
  -20.7090  -26.9130   22.5940 C   0  0  0  0  0  2  0  0  0  0  0  0
  -19.6040  -26.6010   21.5790 C   0  0  0  0  0  2  0  0  0  0  0  0
  -18.2240  -26.7460   22.2270 C   0  0  0  0  0  2  0  0  0  0  0  0
  -19.1750  -28.8470   23.3450 C   0  0  0  0  0  0  0  0  0  0  0  0
  -18.9620  -30.1070   23.9450 C   0  0  0  0  0  3  0  0  0  0  0  0
  -17.6600  -30.6130   24.1160 C   0  0  0  0  0  3  0  0  0  0  0  0
  -16.5520  -29.8530   23.7000 C   0  0  0  0  0  3  0  0  0  0  0  0
  -16.7490  -28.5940   23.1040 C   0  0  0  0  0  3  0  0  0  0  0  0
  -25.8830  -32.5250   23.8610 C   0  0  0  0  0  3  0  0  0  0  0  0
  -26.3980  -31.7570   25.1410 C   0  0  1  0  0  0  0  0  0  0  0  0
  -25.2990  -31.5160   26.2030 C   0  0  0  0  0  1  0  0  0  0  0  0
  -26.9860  -30.3810   24.7500 C   0  0  0  0  0  1  0  0  0  0  0  0
  -27.5440  -32.5530   25.8070 C   0  0  0  0  0  1  0  0  0  0  0  0
  -25.5730  -33.9240   24.1870 N   0  0  0  0  0  0  0  0  0  0  0  0
  -25.9080  -34.9740   23.4260 C   0  0  0  0  0  0  0  0  0  0  0  0
  -26.5830  -34.8680   22.3980 O   0  0  0  0  0  0  0  0  0  0  0  0
  -24.9730  -34.0800   24.9840 H   0  0  0  0  0  0  0  0  0  0  0  0
  -24.1820  -36.7630   23.0520 C   0  0  0  0  0  1  0  0  0  0  0  0
  -25.4160  -36.3630   23.8760 C   0  0  0  0  0  3  0  0  0  0  0  0
  -27.5430  -37.2510   24.7240 C   0  0  0  0  0  1  0  0  0  0  0  0
  -26.4490  -37.4170   23.7700 N   0  0  0  0  0  0  0  0  0  0  0  0
  -26.0420  -38.3360   23.9130 H   0  0  0  0  0  0  0  0  0  0  0  0
  1  2  2  0
  2  3  1  0
  5  8  1  0
  6  4  1  0
  7  5  2  0
  7  9  1  0
  8  1  1  0
  8  4  2  0
  9 18  1  0
  9  6  2  0
 10 18  1  0
 11 16  1  0
 12 13  1  0
 12 11  1  0
 14 13  1  0
 14 23  1  0
 14 15  1  0
 16 10  1  0
 16 15  1  0
 17 10  2  0
 18 19  1  0
 20 21  2  0
 21 40  1  0
 22 21  1  0
 22 25  1  0
 23 20  1  0
 23 24  1  0
 24 22  2  0
 25 26  1  0
 26 27  2  0
 28 31  1  0
 28 27  1  0
 29 28  2  0
 30 29  1  0
 30 25  2  0
 31 32  1  0
 32 33  1  0
 33 34  2  0
 35 34  1  0
 35 39  1  0
 36 35  2  0
 37 32  2  0
 37 36  1  0
 38 37  1  0
 40 41  1  0
 41 44  1  0
 41 43  1  0
 42 40  2  0
 45 46  1  0
 45 20  1  0
 47 45  1  0
 48  1  1  0
 49 48  2  0
 50 48  1  0
 51 53  1  0
 51 50  2  0
 52 51  1  0
 53 54  1  0
 55 66  2  0
 56 54  1  0
 56 61  1  0
 57 65  1  0
 57 67  1  0
 58 64  1  0
 58 60  1  0
 59 65  1  0
 60 59  1  0
 61 60  2  0
 62 63  1  0
 62 56  2  0
 63 58  2  0
 64 57  1  0
 65 55  1  0
 67 69  2  0
 68 67  1  0
 70 68  1  0
 71 80  2  0
 71 76  1  0
 72 68  1  0
 72 76  1  0
 73 72  1  0
 74 75  1  0
 74 73  1  0
 75 71  1  0
 76 77  2  0
 77 78  1  0
 79 78  2  0
 80 79  1  0
 81 55  1  0
 81 86  1  0
 81 82  1  0
 82 85  1  1
 82 83  1  0
 84 82  1  0
 86 89  1  0
 87 91  1  0
 87 86  1  0
 88 87  2  0
 91 90  1  0
 93 91  1  0
 93 94  1  0
 93 92  1  0
M  ISO  4  10 100  18 100  53 101  54 101
M  END
>  <TORSDO>  (34) 
F 20

>  <SCORE>  (34) 
-13.774

>  <name>  (34) 
33

>  <ligand_id>  (34) 
33

>  <original_smiles>  (34) 
[H]N=C(C(=O)C([H])=C(C([H])([H])[H])C([H])([H])Oc1c([H])c([H])c2c(c1[H])C([H])([H])N(C(=O)C([H])(N([H])C(=O)C([H])(N([H])C([H])([H])[H])C([H])([H])[H])C(C([H])([H])[H])(C([H])([H])[H])C([H])([H])[H])C([H])(C(=O)N([H])C1([H])c3c([H])c([H])c([H])c([H])c3C([H])([H])C([H])([H])C1([H])[H])C2([H])[H])c1c([H])c([H])c(N([H])C(=O)N2C([H])([H])C([H])([H])C([H])([H])C([H])(n3nc(-c4c([H])c([H])c(Oc5c([H])c([H])c(F)c([H])c5F)c([H])c4[H])c(C(=O)N([H])[H])c3N([H])[H])C2([H])[H])c([H])c1[H]

>  <smiles>  (34) 
[H]N=C(C(=O)C([H])=C(C([H])([H])[H])C([H])([H])Oc1c([H])c([H])c2c(c1[H])C([H])([H])N(C(=O)C([H])(N([H])C(=O)C([H])(N([H])C([H])([H])[H])C([H])([H])[H])C(C([H])([H])[H])(C([H])([H])[H])C([H])([H])[H])C([H])(C(=O)N([H])C1([H])c3c([H])c([H])c([H])c([H])c3C([H])([H])C([H])([H])C1([H])[H])C2([H])[H])c1c([H])c([H])c(N([H])C(=O)N2C([H])([H])C([H])([H])C([H])([H])C([H])(n3nc(-c4c([H])c([H])c(Oc5c([H])c([H])c(F)c([H])c5F)c([H])c4[H])c(C(=O)N([H])[H])c3N([H])[H])C2([H])[H])c([H])c1[H]

$$$$
34:0:0
     RDKit          3D

 95104  0  0  1  0  0  0  0  0999 V2000
  -27.3230  -23.4910   20.5060 C   0  0  0  0  0  3  0  0  0  0  0  0
  -28.5080  -24.0890   20.6770 C   0  0  0  0  0  0  0  0  0  0  0  0
  -27.4650  -22.0960   20.3440 C   0  0  0  0  0  0  0  0  0  0  0  0
  -29.5850  -22.9550   20.6510 C   0  0  0  0  0  3  0  0  0  0  0  0
  -28.7720  -21.7140   20.3510 N   0  0  0  0  0  0  0  0  0  0  0  0
  -26.3920  -21.2930   20.2400 N   0  0  0  0  0  0  0  0  0  0  0  0
  -25.4600  -21.6810   20.3120 H   0  0  0  0  0  0  0  0  0  0  0  0
  -26.4660  -20.2920   20.1620 H   0  0  0  0  0  0  0  0  0  0  0  0
  -28.5670  -19.3080   19.5490 C   0  0  0  0  0  3  0  0  0  0  0  0
  -30.3710  -19.7770   21.0740 C   0  0  0  0  0  3  0  0  0  0  0  0
  -28.8850  -17.9150   19.5950 C   0  0  0  0  0  3  0  0  0  0  0  0
  -30.6980  -18.3740   21.1080 C   0  0  0  0  0  3  0  0  0  0  0  0
  -29.2660  -20.2790   20.3250 C   0  0  0  0  0  0  0  0  0  0  0  0
  -29.9440  -17.3930   20.3870 C   0  0  0  0  0  0  0  0  0  0  0  0
  -30.8410  -14.9280   20.1190 C   0  0  0  0  0  0  0  0  0  0  0  0
  -30.6350  -12.6960   19.0160 C   0  0  0  0  0  2  0  0  0  0  0  0
  -29.6440  -12.8410   17.8380 C   0  0  0  0  0  2  0  0  0  0  0  0
  -28.1880  -12.6610   18.3160 C   0  0  0  0  0  2  0  0  0  0  0  0
  -27.8710  -13.4920   19.5900 C   0  0  0  0  0  3  0  0  0  0  0  0
  -28.9720  -13.3150   20.6610 C   0  0  0  0  0  2  0  0  0  0  0  0
  -30.2570  -13.6880   20.0450 N   0  0  0  0  0  0  0  0  0  0  0  0
  -31.9810  -15.1220   19.6760 O   0  0  0  0  0  0  0  0  0  0  0  0
  -30.0340  -15.9380   20.5970 N   0  0  0  0  0  0  0  0  0  0  0  0
  -29.1670  -15.5350   20.9260 H   0  0  0  0  0  0  0  0  0  0  0  0
  -25.5150  -14.0800   20.4340 C   0  0  0  0  0  0  0  0  0  0  0  0
  -24.4580  -13.3020   20.8240 C   0  0  0  0  0  0  0  0  0  0  0  0
  -24.9070  -11.9480   20.7250 C   0  0  0  0  0  0  0  0  0  0  0  0
  -26.5420  -13.2000   20.1220 N   0  0  0  0  0  0  0  0  0  0  0  0
  -26.1820  -11.9110   20.3590 N   0  0  0  0  0  0  0  0  0  0  0  0
  -24.1800  -10.6870   20.9070 C   0  0  0  0  0  0  0  0  0  0  0  0
  -24.5820   -9.7350   21.8700 C   0  0  0  0  0  3  0  0  0  0  0  0
  -23.8560   -8.5380   22.0420 C   0  0  0  0  0  3  0  0  0  0  0  0
  -22.7110   -8.2820   21.2510 C   0  0  0  0  0  0  0  0  0  0  0  0
  -22.3260   -9.2250   20.2810 C   0  0  0  0  0  3  0  0  0  0  0  0
  -23.0550  -10.4110   20.1080 C   0  0  0  0  0  3  0  0  0  0  0  0
  -21.9610   -7.1340   21.3250 O   0  0  0  0  0  0  0  0  0  0  0  0
  -21.7950   -6.4590   22.5080 C   0  0  0  0  0  0  0  0  0  0  0  0
  -21.1910   -7.0630   23.6330 C   0  0  0  0  0  3  0  0  0  0  0  0
  -20.9740   -6.3120   24.8040 C   0  0  0  0  0  3  0  0  0  0  0  0
  -21.3530   -4.9570   24.8550 C   0  0  0  0  0  0  0  0  0  0  0  0
  -21.9530   -4.3530   23.7360 C   0  0  0  0  0  3  0  0  0  0  0  0
  -22.1710   -5.1000   22.5630 C   0  0  0  0  0  0  0  0  0  0  0  0
  -22.7290   -4.5060   21.4800 F   0  0  0  0  0  0  0  0  0  0  0  0
  -21.1360   -4.2340   25.9790 F   0  0  0  0  0  0  0  0  0  0  0  0
  -23.0790  -13.7840   21.1720 C   0  0  0  0  0  0  0  0  0  0  0  0
  -22.3800  -13.0680   22.0440 N   0  0  0  0  0  0  0  0  0  0  0  0
  -22.6300  -14.8280   20.7040 O   0  0  0  0  0  0  0  0  0  0  0  0
  -22.7550  -12.2250   22.4470 H   0  0  0  0  0  0  0  0  0  0  0  0
  -21.4580  -13.3750   22.3190 H   0  0  0  0  0  0  0  0  0  0  0  0
  -25.6780  -15.4540   20.2990 N   0  0  0  0  0  0  0  0  0  0  0  0
  -24.9120  -16.1020   20.4560 H   0  0  0  0  0  0  0  0  0  0  0  0
  -26.5180  -15.9110   19.9640 H   0  0  0  0  0  0  0  0  0  0  0  0
  -30.0040  -25.7820   21.9550 C   0  0  0  0  0  1  0  0  0  0  0  0
  -28.6780  -25.5750   21.2110 C   0  0  0  0  0  3  0  0  0  0  0  0
  -28.5600  -26.7180   20.2880 O   0  0  0  0  0  0  0  0  0  0  0  0
  -24.5660  -31.9800   23.2890 C   0  0  0  0  0  0  0  0  0  0  0  0
  -27.4150  -27.5190   20.3230 C   0  0  0  0  0  0  0  0  0  0  0  0
  -23.4590  -30.5520   21.6020 C   0  0  0  0  0  3  0  0  0  0  0  0
  -25.0060  -29.0480   20.2290 C   0  0  0  0  0  0  0  0  0  0  0  0
  -25.9910  -30.9480   21.5110 C   0  0  0  0  0  2  0  0  0  0  0  0
  -26.1360  -29.5730   20.8700 C   0  0  0  0  0  0  0  0  0  0  0  0
  -27.3470  -28.8240   20.9060 C   0  0  0  0  0  3  0  0  0  0  0  0
  -26.2650  -27.0340   19.6690 C   0  0  0  0  0  3  0  0  0  0  0  0
  -25.0720  -27.7830   19.6210 C   0  0  0  0  0  3  0  0  0  0  0  0
  -23.7420  -29.8860   20.2290 C   0  0  0  0  0  2  0  0  0  0  0  0
  -24.6880  -31.1790   22.1900 N   0  0  0  0  0  0  0  0  0  0  0  0
  -23.4580  -32.2220   23.7870 O   0  0  0  0  0  0  0  0  0  0  0  0
  -22.7910  -29.5140   22.5350 C   0  0  0  0  0  0  0  0  0  0  0  0
  -21.4700  -29.3220   22.3800 N   0  0  0  0  0  0  0  0  0  0  0  0
  -23.4640  -28.8830   23.3540 O   0  0  0  0  0  0  0  0  0  0  0  0
  -20.9850  -29.8820   21.6920 H   0  0  0  0  0  0  0  0  0  0  0  0
  -18.0920  -28.1280   22.8550 C   0  0  0  0  0  0  0  0  0  0  0  0
  -20.6510  -28.3630   23.1230 C   0  0  0  0  0  3  0  0  0  0  0  0
  -20.7430  -26.9510   22.4990 C   0  0  0  0  0  2  0  0  0  0  0  0
  -19.6370  -26.6710   21.4770 C   0  0  0  0  0  2  0  0  0  0  0  0
  -18.2580  -26.8020   22.1300 C   0  0  0  0  0  2  0  0  0  0  0  0
  -19.2160  -28.8680   23.3080 C   0  0  0  0  0  0  0  0  0  0  0  0
  -19.0050  -30.1110   23.9450 C   0  0  0  0  0  3  0  0  0  0  0  0
  -17.7040  -30.6130   24.1310 C   0  0  0  0  0  3  0  0  0  0  0  0
  -16.5940  -29.8690   23.6940 C   0  0  0  0  0  3  0  0  0  0  0  0
  -16.7880  -28.6270   23.0630 C   0  0  0  0  0  3  0  0  0  0  0  0
  -25.8060  -32.6440   23.9600 C   0  0  0  0  0  3  0  0  0  0  0  0
  -25.4590  -34.0450   24.2410 N   0  0  0  0  0  0  0  0  0  0  0  0
  -25.8070  -35.0870   23.4760 C   0  0  0  0  0  0  0  0  0  0  0  0
  -26.5230  -34.9720   22.4760 O   0  0  0  0  0  0  0  0  0  0  0  0
  -24.8220  -34.2080   25.0070 H   0  0  0  0  0  0  0  0  0  0  0  0
  -24.0700  -36.8450   23.0090 C   0  0  0  0  0  1  0  0  0  0  0  0
  -25.2790  -36.4760   23.8810 C   0  0  0  0  0  3  0  0  0  0  0  0
  -27.3580  -37.4190   24.7860 C   0  0  0  0  0  1  0  0  0  0  0  0
  -26.2970  -37.5450   23.7910 N   0  0  0  0  0  0  0  0  0  0  0  0
  -25.8680  -38.4600   23.8990 H   0  0  0  0  0  0  0  0  0  0  0  0
  -26.2710  -31.9100   25.2780 C   0  0  1  0  0  0  0  0  0  0  0  0
  -25.1270  -31.6690   26.2900 C   0  0  0  0  0  1  0  0  0  0  0  0
  -26.9070  -30.5390   24.9500 C   0  0  0  0  0  1  0  0  0  0  0  0
  -27.3640  -32.7480   25.9850 C   0  0  0  0  0  1  0  0  0  0  0  0
  1  2  1  0
  2 54  1  0
  3  5  1  0
  3  1  2  0
  4  2  2  0
  5  4  1  0
  6  7  1  0
  6  3  1  0
  8  6  1  0
  9 11  2  0
  9 13  1  0
 10 12  1  0
 11 14  1  0
 13  5  1  0
 13 10  2  0
 14 23  1  0
 14 12  2  0
 15 23  1  0
 16 21  1  0
 17 18  1  0
 17 16  1  0
 19 18  1  0
 19 28  1  0
 19 20  1  0
 21 15  1  0
 21 20  1  0
 22 15  2  0
 23 24  1  0
 25 26  2  0
 26 45  1  0
 27 26  1  0
 27 30  1  0
 28 29  1  0
 28 25  1  0
 29 27  2  0
 30 31  1  0
 31 32  2  0
 33 36  1  0
 33 32  1  0
 34 33  2  0
 35 34  1  0
 35 30  2  0
 36 37  1  0
 37 42  2  0
 37 38  1  0
 38 39  2  0
 39 40  1  0
 40 44  1  0
 41 40  2  0
 42 41  1  0
 43 42  1  0
 45 46  1  0
 46 49  1  0
 46 48  1  0
 47 45  2  0
 50 25  1  0
 50 51  1  0
 52 50  1  0
 54 53  1  0
 55 57  1  0
 55 54  1  0
 56 67  2  0
 57 62  1  0
 58 66  1  0
 58 68  1  0
 59 61  1  0
 60 66  1  0
 61 62  2  0
 61 60  1  0
 63 57  2  0
 64 63  1  0
 64 59  2  0
 65 59  1  0
 65 58  1  0
 66 56  1  0
 68 70  2  0
 69 68  1  0
 71 69  1  0
 72 81  2  0
 72 77  1  0
 73 69  1  0
 73 77  1  0
 74 73  1  0
 75 76  1  0
 75 74  1  0
 76 72  1  0
 77 78  2  0
 78 79  1  0
 80 79  2  0
 81 80  1  0
 82 56  1  0
 82 83  1  0
 82 92  1  0
 83 86  1  0
 84 88  1  0
 84 83  1  0
 85 84  2  0
 88 87  1  0
 90 88  1  0
 90 91  1  0
 90 89  1  0
 92 95  1  1
 92 93  1  0
 94 92  1  0
M  ISO  4  15 100  23 100  54 101  55 101
M  END
>  <TORSDO>  (35) 
F 18

>  <SCORE>  (35) 
-13.881

>  <name>  (35) 
34

>  <ligand_id>  (35) 
34

>  <original_smiles>  (35) 
[H]C1=C(C([H])(Oc2c([H])c([H])c3c(c2[H])C([H])([H])N(C(=O)C([H])(N([H])C(=O)C([H])(N([H])C([H])([H])[H])C([H])([H])[H])C(C([H])([H])[H])(C([H])([H])[H])C([H])([H])[H])C([H])(C(=O)N([H])C2([H])c4c([H])c([H])c([H])c([H])c4C([H])([H])C([H])([H])C2([H])[H])C3([H])[H])C([H])([H])[H])C([H])([H])N(c2c([H])c([H])c(N([H])C(=O)N3C([H])([H])C([H])([H])C([H])([H])C([H])(n4nc(-c5c([H])c([H])c(Oc6c([H])c([H])c(F)c([H])c6F)c([H])c5[H])c(C(=O)N([H])[H])c4N([H])[H])C3([H])[H])c([H])c2[H])C1=[N+]([H])[H]

>  <smiles>  (35) 
[H]C1=C(C([H])(Oc2c([H])c([H])c3c(c2[H])C([H])([H])N(C(=O)C([H])(N([H])C(=O)C([H])(N([H])C([H])([H])[H])C([H])([H])[H])C(C([H])([H])[H])(C([H])([H])[H])C([H])([H])[H])C([H])(C(=O)N([H])C2([H])c4c([H])c([H])c([H])c([H])c4C([H])([H])C([H])([H])C2([H])[H])C3([H])[H])C([H])([H])[H])C([H])([H])N(c2c([H])c([H])c(N([H])C(=O)N3C([H])([H])C([H])([H])C([H])([H])C([H])(n4nc(-c5c([H])c([H])c(Oc6c([H])c([H])c(F)c([H])c6F)c([H])c5[H])c(C(=O)N([H])[H])c4N([H])[H])C3([H])[H])c([H])c2[H])C1=[N+]([H])[H]

$$$$
35:0:0
     RDKit          3D

 95104  0  0  1  0  0  0  0  0999 V2000
  -29.0910  -24.7480   21.8030 C   0  0  0  0  0  3  0  0  0  0  0  0
  -29.7210  -22.3980   21.7200 C   0  0  0  0  0  3  0  0  0  0  0  0
  -28.6970  -24.8160   20.5150 C   0  0  0  0  0  0  0  0  0  0  0  0
  -29.5900  -23.5360   22.4310 C   0  0  0  0  0  0  0  0  0  0  0  0
  -28.8010  -23.4320   19.7400 C   0  0  0  0  0  0  0  0  0  0  0  0
  -29.3300  -22.2310   20.3790 N   0  0  0  0  0  0  0  0  0  0  0  0
  -28.4470  -23.3610   18.5590 O   0  0  0  0  0  0  0  0  0  0  0  0
  -27.6090  -18.8160   20.5010 C   0  0  0  0  0  3  0  0  0  0  0  0
  -28.5600  -17.7980   20.2780 C   0  0  0  0  0  3  0  0  0  0  0  0
  -27.9090  -20.1940   20.3990 C   0  0  0  0  0  3  0  0  0  0  0  0
  -30.1750  -19.5600   19.8380 C   0  0  0  0  0  3  0  0  0  0  0  0
  -29.8920  -18.0690   19.9020 C   0  0  0  0  0  0  0  0  0  0  0  0
  -29.1960  -20.6890   20.0900 C   0  0  0  0  0  0  0  0  0  0  0  0
  -30.6910  -16.7500   19.3200 C   0  0  0  0  0  0  0  0  0  0  0  0
  -30.8850  -16.8400   18.0680 N   0  0  0  0  0  0  0  0  0  0  0  0
  -30.5000  -17.7060   17.7090 H   0  0  0  0  0  0  0  0  0  0  0  0
  -31.3260  -15.3260   20.0140 C   0  0  0  0  0  0  0  0  0  0  0  0
  -31.1180  -12.8880   19.2720 C   0  0  0  0  0  2  0  0  0  0  0  0
  -30.2130  -12.7200   18.0330 C   0  0  0  0  0  2  0  0  0  0  0  0
  -28.7290  -12.5990   18.4400 C   0  0  0  0  0  2  0  0  0  0  0  0
  -28.3250  -13.6450   19.5070 C   0  0  0  0  0  3  0  0  0  0  0  0
  -29.3570  -13.7790   20.6400 C   0  0  0  0  0  2  0  0  0  0  0  0
  -30.6440  -14.0980   20.0080 N   0  0  0  0  0  0  0  0  0  0  0  0
  -32.5610  -15.2250   19.9960 O   0  0  0  0  0  0  0  0  0  0  0  0
  -26.0050  -14.3940   20.2550 C   0  0  0  0  0  0  0  0  0  0  0  0
  -24.8820  -13.7030   20.6110 C   0  0  0  0  0  0  0  0  0  0  0  0
  -25.2420  -12.3200   20.5810 C   0  0  0  0  0  0  0  0  0  0  0  0
  -26.9740  -13.4420   20.0090 N   0  0  0  0  0  0  0  0  0  0  0  0
  -26.5290  -12.1870   20.2820 N   0  0  0  0  0  0  0  0  0  0  0  0
  -24.4170  -11.1160   20.7570 C   0  0  0  0  0  0  0  0  0  0  0  0
  -24.7570  -10.1170   21.6970 C   0  0  0  0  0  3  0  0  0  0  0  0
  -23.9350   -8.9820   21.8620 C   0  0  0  0  0  3  0  0  0  0  0  0
  -22.7600   -8.8360   21.0860 C   0  0  0  0  0  0  0  0  0  0  0  0
  -22.4380   -9.8230   20.1390 C   0  0  0  0  0  3  0  0  0  0  0  0
  -23.2590  -10.9500   19.9710 C   0  0  0  0  0  3  0  0  0  0  0  0
  -21.9200   -7.7500   21.1590 O   0  0  0  0  0  0  0  0  0  0  0  0
  -21.7780   -7.0250   22.3150 C   0  0  0  0  0  0  0  0  0  0  0  0
  -21.3910   -7.6310   23.5300 C   0  0  0  0  0  3  0  0  0  0  0  0
  -21.1870   -6.8390   24.6770 C   0  0  0  0  0  3  0  0  0  0  0  0
  -21.3600   -5.4430   24.6100 C   0  0  0  0  0  0  0  0  0  0  0  0
  -21.7460   -4.8390   23.4020 C   0  0  0  0  0  3  0  0  0  0  0  0
  -21.9490   -5.6280   22.2550 C   0  0  0  0  0  0  0  0  0  0  0  0
  -22.2980   -5.0390   21.0860 F   0  0  0  0  0  0  0  0  0  0  0  0
  -21.1590   -4.6800   25.7100 F   0  0  0  0  0  0  0  0  0  0  0  0
  -23.5220  -14.2870   20.8590 C   0  0  0  0  0  0  0  0  0  0  0  0
  -22.7360  -13.6560   21.7230 N   0  0  0  0  0  0  0  0  0  0  0  0
  -23.1680  -15.3370   20.3230 O   0  0  0  0  0  0  0  0  0  0  0  0
  -23.0380  -12.8040   22.1750 H   0  0  0  0  0  0  0  0  0  0  0  0
  -21.8240  -14.0330   21.9390 H   0  0  0  0  0  0  0  0  0  0  0  0
  -26.2760  -15.7500   20.0850 N   0  0  0  0  0  0  0  0  0  0  0  0
  -25.5650  -16.4600   20.2150 H   0  0  0  0  0  0  0  0  0  0  0  0
  -27.1110  -16.1070   19.6370 H   0  0  0  0  0  0  0  0  0  0  0  0
  -29.9460  -23.5580   23.7210 O   0  0  0  0  0  0  0  0  0  0  0  0
  -30.2360  -22.6870   23.9630 H   0  0  0  0  0  0  0  0  0  0  0  0
  -28.5460  -26.2190   20.0300 O   0  0  0  0  0  0  0  0  0  0  0  0
  -24.6990  -31.8340   23.1550 C   0  0  0  0  0  0  0  0  0  0  0  0
  -27.4400  -27.1580   20.1510 C   0  0  0  0  0  0  0  0  0  0  0  0
  -23.5620  -30.4170   21.4900 C   0  0  0  0  0  3  0  0  0  0  0  0
  -25.0730  -28.8760   20.0890 C   0  0  0  0  0  0  0  0  0  0  0  0
  -26.1110  -30.7430   21.3610 C   0  0  0  0  0  2  0  0  0  0  0  0
  -26.2350  -29.3440   20.7140 C   0  0  0  0  0  0  0  0  0  0  0  0
  -27.4210  -28.5040   20.7220 C   0  0  0  0  0  3  0  0  0  0  0  0
  -26.2440  -26.7990   19.4970 C   0  0  0  0  0  3  0  0  0  0  0  0
  -25.0910  -27.6170   19.4660 C   0  0  0  0  0  3  0  0  0  0  0  0
  -23.8240  -29.7490   20.1130 C   0  0  0  0  0  2  0  0  0  0  0  0
  -24.8090  -31.0220   22.0590 N   0  0  0  0  0  0  0  0  0  0  0  0
  -23.5980  -32.0840   23.6700 O   0  0  0  0  0  0  0  0  0  0  0  0
  -22.8950  -29.3880   22.4380 C   0  0  0  0  0  0  0  0  0  0  0  0
  -21.5680  -29.2120   22.3200 N   0  0  0  0  0  0  0  0  0  0  0  0
  -23.5760  -28.7500   23.2450 O   0  0  0  0  0  0  0  0  0  0  0  0
  -21.0760  -29.7740   21.6400 H   0  0  0  0  0  0  0  0  0  0  0  0
  -18.1940  -27.9980   22.8510 C   0  0  0  0  0  0  0  0  0  0  0  0
  -20.7590  -28.2530   23.0760 C   0  0  0  0  0  3  0  0  0  0  0  0
  -20.8480  -26.8400   22.4540 C   0  0  0  0  0  2  0  0  0  0  0  0
  -19.7260  -26.5500   21.4510 C   0  0  0  0  0  2  0  0  0  0  0  0
  -18.3570  -26.6720   22.1270 C   0  0  0  0  0  2  0  0  0  0  0  0
  -19.3210  -28.7470   23.2830 C   0  0  0  0  0  0  0  0  0  0  0  0
  -19.1130  -29.9880   23.9230 C   0  0  0  0  0  3  0  0  0  0  0  0
  -17.8110  -30.4800   24.1330 C   0  0  0  0  0  3  0  0  0  0  0  0
  -16.6990  -29.7270   23.7180 C   0  0  0  0  0  3  0  0  0  0  0  0
  -16.8920  -28.4870   23.0820 C   0  0  0  0  0  3  0  0  0  0  0  0
  -25.9480  -32.5030   23.8070 C   0  0  0  0  0  3  0  0  0  0  0  0
  -26.4600  -31.7420   25.0920 C   0  0  1  0  0  0  0  0  0  0  0  0
  -25.3520  -31.4830   26.1400 C   0  0  0  0  0  1  0  0  0  0  0  0
  -27.0790  -30.3770   24.7140 C   0  0  0  0  0  1  0  0  0  0  0  0
  -27.5790  -32.5620   25.7780 C   0  0  0  0  0  1  0  0  0  0  0  0
  -25.5910  -33.8910   24.1430 N   0  0  0  0  0  0  0  0  0  0  0  0
  -25.9030  -34.9620   23.4030 C   0  0  0  0  0  0  0  0  0  0  0  0
  -26.5850  -34.8880   22.3760 O   0  0  0  0  0  0  0  0  0  0  0  0
  -24.9840  -34.0210   24.9400 H   0  0  0  0  0  0  0  0  0  0  0  0
  -24.1270  -36.7140   23.0630 C   0  0  0  0  0  1  0  0  0  0  0  0
  -25.3780  -36.3340   23.8730 C   0  0  0  0  0  3  0  0  0  0  0  0
  -27.4850  -37.2700   24.7200 C   0  0  0  0  0  1  0  0  0  0  0  0
  -26.3830  -37.4140   23.7730 N   0  0  0  0  0  0  0  0  0  0  0  0
  -25.9510  -38.3210   23.9260 H   0  0  0  0  0  0  0  0  0  0  0  0
  1  4  1  0
  2  4  2  0
  3  1  2  0
  4 53  1  0
  5  6  1  0
  5  3  1  0
  6  2  1  0
  7  5  2  0
  9  8  2  0
 10  8  1  0
 11 12  2  0
 11 13  1  0
 12  9  1  0
 13  6  1  0
 13 10  2  0
 14 12  1  0
 14 17  1  0
 15 14  2  0
 16 15  1  0
 18 23  1  0
 19 20  1  0
 19 18  1  0
 21 20  1  0
 21 28  1  0
 21 22  1  0
 23 17  1  0
 23 22  1  0
 24 17  2  0
 25 26  2  0
 26 45  1  0
 27 26  1  0
 27 30  1  0
 28 25  1  0
 28 29  1  0
 29 27  2  0
 30 31  1  0
 31 32  2  0
 33 36  1  0
 33 32  1  0
 34 33  2  0
 35 34  1  0
 35 30  2  0
 36 37  1  0
 37 38  1  0
 38 39  2  0
 40 39  1  0
 40 44  1  0
 41 40  2  0
 42 37  2  0
 42 41  1  0
 43 42  1  0
 45 46  1  0
 46 49  1  0
 46 48  1  0
 47 45  2  0
 50 51  1  0
 50 25  1  0
 52 50  1  0
 53 54  1  0
 55 57  1  0
 55  3  1  0
 56 67  2  0
 57 62  1  0
 58 66  1  0
 58 68  1  0
 59 65  1  0
 59 61  1  0
 60 66  1  0
 61 62  2  0
 61 60  1  0
 63 57  2  0
 64 63  1  0
 64 59  2  0
 65 58  1  0
 66 56  1  0
 68 70  2  0
 69 68  1  0
 71 69  1  0
 72 81  2  0
 72 77  1  0
 73 69  1  0
 73 77  1  0
 74 73  1  0
 75 76  1  0
 75 74  1  0
 76 72  1  0
 77 78  2  0
 78 79  1  0
 80 79  2  0
 81 80  1  0
 82 56  1  0
 82 87  1  0
 82 83  1  0
 83 86  1  1
 83 84  1  0
 85 83  1  0
 87 90  1  0
 88 92  1  0
 88 87  1  0
 89 88  2  0
 92 91  1  0
 94 92  1  0
 94 95  1  0
 94 93  1  0
M  ISO  4   3 101  14 100  17 100  55 101
M  END
>  <TORSDO>  (36) 
F 19

>  <SCORE>  (36) 
-14.487

>  <name>  (36) 
35

>  <ligand_id>  (36) 
35

>  <original_smiles>  (36) 
[H]N=C(C(=O)N1C([H])([H])C([H])([H])C([H])([H])C([H])(n2nc(-c3c([H])c([H])c(Oc4c([H])c([H])c(F)c([H])c4F)c([H])c3[H])c(C(=O)N([H])[H])c2N([H])[H])C1([H])[H])c1c([H])c([H])c([H])c(-n2c([H])c(O[H])c([H])c(Oc3c([H])c([H])c4c(c3[H])C([H])([H])N(C(=O)C([H])(N([H])C(=O)C([H])(N([H])C([H])([H])[H])C([H])([H])[H])C(C([H])([H])[H])(C([H])([H])[H])C([H])([H])[H])C([H])(C(=O)N([H])C3([H])c5c([H])c([H])c([H])c([H])c5C([H])([H])C([H])([H])C3([H])[H])C4([H])[H])c2=O)c1[H]

>  <smiles>  (36) 
[H]N=C(C(=O)N1C([H])([H])C([H])([H])C([H])([H])C([H])(n2nc(-c3c([H])c([H])c(Oc4c([H])c([H])c(F)c([H])c4F)c([H])c3[H])c(C(=O)N([H])[H])c2N([H])[H])C1([H])[H])c1c([H])c([H])c([H])c(-n2c([H])c(O[H])c([H])c(Oc3c([H])c([H])c4c(c3[H])C([H])([H])N(C(=O)C([H])(N([H])C(=O)C([H])(N([H])C([H])([H])[H])C([H])([H])[H])C(C([H])([H])[H])(C([H])([H])[H])C([H])([H])[H])C([H])(C(=O)N([H])C3([H])c5c([H])c([H])c([H])c([H])c5C([H])([H])C([H])([H])C3([H])[H])C4([H])[H])c2=O)c1[H]

$$$$
36:0:0
     RDKit          3D

 97106  0  0  1  0  0  0  0  0999 V2000
  -28.1740  -24.6440   18.5410 C   0  0  0  0  0  3  0  0  0  0  0  0
  -28.3790  -25.1820   19.8460 C   0  0  0  0  0  0  0  0  0  0  0  0
  -28.3340  -23.2820   18.5950 C   0  0  0  0  0  0  0  0  0  0  0  0
  -28.6970  -24.0680   20.6270 C   0  0  0  0  0  0  0  0  0  0  0  0
  -28.6730  -22.8630   19.8790 N   0  0  0  0  0  0  0  0  0  0  0  0
  -30.5610  -19.5780   20.4590 C   0  0  0  0  0  3  0  0  0  0  0  0
  -28.2380  -19.0720   20.1770 C   0  0  0  0  0  3  0  0  0  0  0  0
  -30.2630  -20.9790   20.4570 C   0  0  0  0  0  3  0  0  0  0  0  0
  -27.9400  -20.4710   20.1650 C   0  0  0  0  0  3  0  0  0  0  0  0
  -29.5750  -18.5720   20.2200 C   0  0  0  0  0  0  0  0  0  0  0  0
  -28.9500  -21.4660   20.2300 C   0  0  0  0  0  0  0  0  0  0  0  0
  -31.3300  -17.2170   18.9820 C   0  0  0  0  0  1  0  0  0  0  0  0
  -28.9650  -16.7430   18.5660 C   0  0  0  0  0  1  0  0  0  0  0  0
  -29.9570  -17.1040   19.7000 C   0  0  2  0  0  0  0  0  0  0  0  0
  -30.6640  -14.7370   20.5980 C   0  0  0  0  0  0  0  0  0  0  0  0
  -30.4660  -12.4590   19.6450 C   0  0  0  0  0  2  0  0  0  0  0  0
  -29.5960  -12.5440   18.3740 C   0  0  0  0  0  2  0  0  0  0  0  0
  -28.1040  -12.3990   18.7310 C   0  0  0  0  0  2  0  0  0  0  0  0
  -27.6790  -13.2920   19.9270 C   0  0  0  0  0  3  0  0  0  0  0  0
  -28.6840  -13.2230   21.0980 C   0  0  0  0  0  2  0  0  0  0  0  0
  -30.0150  -13.5280   20.5620 N   0  0  0  0  0  0  0  0  0  0  0  0
  -31.8700  -14.7820   20.3520 O   0  0  0  0  0  0  0  0  0  0  0  0
  -29.8920  -15.8870   20.6220 N   0  0  0  0  0  0  0  0  0  0  0  0
  -28.9720  -15.7320   21.0040 H   0  0  0  0  0  0  0  0  0  0  0  0
  -25.2600  -13.8880   20.5400 C   0  0  0  0  0  0  0  0  0  0  0  0
  -24.1820  -13.1170   20.8770 C   0  0  0  0  0  0  0  0  0  0  0  0
  -24.6490  -11.7670   20.8880 C   0  0  0  0  0  0  0  0  0  0  0  0
  -26.3160  -13.0090   20.3640 N   0  0  0  0  0  0  0  0  0  0  0  0
  -25.9520  -11.7290   20.6360 N   0  0  0  0  0  0  0  0  0  0  0  0
  -23.9180  -10.5060   21.0670 C   0  0  0  0  0  0  0  0  0  0  0  0
  -24.3190   -9.5490   22.0240 C   0  0  0  0  0  3  0  0  0  0  0  0
  -23.5870   -8.3530   22.1900 C   0  0  0  0  0  3  0  0  0  0  0  0
  -22.4400   -8.1070   21.3980 C   0  0  0  0  0  0  0  0  0  0  0  0
  -22.0570   -9.0540   20.4330 C   0  0  0  0  0  3  0  0  0  0  0  0
  -22.7900  -10.2410   20.2650 C   0  0  0  0  0  3  0  0  0  0  0  0
  -21.6840   -6.9610   21.4720 O   0  0  0  0  0  0  0  0  0  0  0  0
  -21.6010   -6.2260   22.6280 C   0  0  0  0  0  0  0  0  0  0  0  0
  -21.1400   -6.7890   23.8370 C   0  0  0  0  0  3  0  0  0  0  0  0
  -21.0040   -5.9810   24.9830 C   0  0  0  0  0  3  0  0  0  0  0  0
  -21.3190   -4.6110   24.9210 C   0  0  0  0  0  0  0  0  0  0  0  0
  -21.7740   -4.0460   23.7160 C   0  0  0  0  0  3  0  0  0  0  0  0
  -21.9100   -4.8520   22.5710 C   0  0  0  0  0  0  0  0  0  0  0  0
  -22.3280   -4.3000   21.4060 F   0  0  0  0  0  0  0  0  0  0  0  0
  -21.1810   -3.8320   26.0180 F   0  0  0  0  0  0  0  0  0  0  0  0
  -22.7730  -13.5960   21.0780 C   0  0  0  0  0  0  0  0  0  0  0  0
  -22.0070  -12.9120   21.9210 N   0  0  0  0  0  0  0  0  0  0  0  0
  -22.3570  -14.6120   20.5230 O   0  0  0  0  0  0  0  0  0  0  0  0
  -22.3540  -12.0910   22.3950 H   0  0  0  0  0  0  0  0  0  0  0  0
  -21.0600  -13.2170   22.0970 H   0  0  0  0  0  0  0  0  0  0  0  0
  -25.4280  -15.2570   20.3470 N   0  0  0  0  0  0  0  0  0  0  0  0
  -24.6490  -15.9050   20.4030 H   0  0  0  0  0  0  0  0  0  0  0  0
  -26.2830  -15.6880   20.0260 H   0  0  0  0  0  0  0  0  0  0  0  0
  -28.2300  -22.3820   17.5770 O   0  0  0  0  0  0  0  0  0  0  0  0
  -28.0040  -22.8580   16.7830 H   0  0  0  0  0  0  0  0  0  0  0  0
  -29.0230  -24.0450   21.9480 O   0  0  0  0  0  0  0  0  0  0  0  0
  -28.9890  -24.9440   22.2590 H   0  0  0  0  0  0  0  0  0  0  0  0
  -28.3660  -26.5550   20.1860 O   0  0  0  0  0  0  0  0  0  0  0  0
  -24.6090  -31.8950   23.2190 C   0  0  0  0  0  0  0  0  0  0  0  0
  -27.2190  -27.3610   20.1350 C   0  0  0  0  0  0  0  0  0  0  0  0
  -23.3970  -30.4950   21.5850 C   0  0  0  0  0  3  0  0  0  0  0  0
  -24.8410  -28.9550   20.1430 C   0  0  0  0  0  0  0  0  0  0  0  0
  -25.9320  -30.8280   21.3800 C   0  0  0  0  0  2  0  0  0  0  0  0
  -26.0100  -29.4520   20.7300 C   0  0  0  0  0  0  0  0  0  0  0  0
  -27.1990  -28.6660   20.7180 C   0  0  0  0  0  3  0  0  0  0  0  0
  -26.0220  -26.9080   19.5360 C   0  0  0  0  0  3  0  0  0  0  0  0
  -24.8480  -27.6880   19.5370 C   0  0  0  0  0  3  0  0  0  0  0  0
  -23.6000  -29.8220   20.2020 C   0  0  0  0  0  2  0  0  0  0  0  0
  -24.6650  -31.0900   22.1180 N   0  0  0  0  0  0  0  0  0  0  0  0
  -23.5290  -32.1690   23.7620 O   0  0  0  0  0  0  0  0  0  0  0  0
  -22.7470  -29.4740   22.5480 C   0  0  0  0  0  0  0  0  0  0  0  0
  -21.4210  -29.2910   22.4290 N   0  0  0  0  0  0  0  0  0  0  0  0
  -23.4330  -28.8490   23.3610 O   0  0  0  0  0  0  0  0  0  0  0  0
  -20.9250  -29.8460   21.7450 H   0  0  0  0  0  0  0  0  0  0  0  0
  -18.0540  -28.0760   22.9370 C   0  0  0  0  0  0  0  0  0  0  0  0
  -20.6100  -28.3490   23.2030 C   0  0  0  0  0  3  0  0  0  0  0  0
  -20.7190  -26.9170   22.6290 C   0  0  0  0  0  2  0  0  0  0  0  0
  -19.6170  -26.5880   21.6180 C   0  0  0  0  0  2  0  0  0  0  0  0
  -18.2350  -26.7260   22.2650 C   0  0  0  0  0  2  0  0  0  0  0  0
  -19.1690  -28.8450   23.3640 C   0  0  0  0  0  0  0  0  0  0  0  0
  -18.9430  -30.1070   23.9550 C   0  0  0  0  0  3  0  0  0  0  0  0
  -17.6360  -30.6000   24.1240 C   0  0  0  0  0  3  0  0  0  0  0  0
  -16.5350  -29.8270   23.7150 C   0  0  0  0  0  3  0  0  0  0  0  0
  -16.7450  -28.5680   23.1260 C   0  0  0  0  0  3  0  0  0  0  0  0
  -25.8940  -32.5310   23.8320 C   0  0  0  0  0  3  0  0  0  0  0  0
  -26.4230  -31.7580   25.1040 C   0  0  1  0  0  0  0  0  0  0  0  0
  -25.3390  -31.5180   26.1810 C   0  0  0  0  0  1  0  0  0  0  0  0
  -27.0070  -30.3830   24.7040 C   0  0  0  0  0  1  0  0  0  0  0  0
  -27.5760  -32.5560   25.7580 C   0  0  0  0  0  1  0  0  0  0  0  0
  -25.5830  -33.9270   24.1690 N   0  0  0  0  0  0  0  0  0  0  0  0
  -25.9160  -34.9840   23.4170 C   0  0  0  0  0  0  0  0  0  0  0  0
  -26.5880  -34.8870   22.3870 O   0  0  0  0  0  0  0  0  0  0  0  0
  -24.9880  -34.0760   24.9710 H   0  0  0  0  0  0  0  0  0  0  0  0
  -24.1990  -36.7870   23.0580 C   0  0  0  0  0  1  0  0  0  0  0  0
  -25.4280  -36.3700   23.8820 C   0  0  0  0  0  3  0  0  0  0  0  0
  -27.5540  -37.2410   24.7490 C   0  0  0  0  0  1  0  0  0  0  0  0
  -26.4650  -37.4200   23.7920 N   0  0  0  0  0  0  0  0  0  0  0  0
  -26.0600  -38.3410   23.9430 H   0  0  0  0  0  0  0  0  0  0  0  0
  1  3  2  0
  1  2  1  0
  2 57  1  0
  2  4  2  0
  3  5  1  0
  4 55  1  0
  5 11  1  0
  5  4  1  0
  7 10  1  0
  8  6  1  0
  9  7  2  0
  9 11  1  0
 10  6  2  0
 11  8  2  0
 14 12  1  6
 13 14  1  0
 14 10  1  0
 14 23  1  0
 15 23  1  0
 16 21  1  0
 17 18  1  0
 17 16  1  0
 19 18  1  0
 19 28  1  0
 19 20  1  0
 21 15  1  0
 21 20  1  0
 22 15  2  0
 23 24  1  0
 25 26  2  0
 26 27  1  0
 26 45  1  0
 27 30  1  0
 28 25  1  0
 28 29  1  0
 29 27  2  0
 30 31  1  0
 31 32  2  0
 33 36  1  0
 33 32  1  0
 34 33  2  0
 35 34  1  0
 35 30  2  0
 36 37  1  0
 37 38  1  0
 38 39  2  0
 40 39  1  0
 40 44  1  0
 41 40  2  0
 42 37  2  0
 42 41  1  0
 43 42  1  0
 45 46  1  0
 46 49  1  0
 46 48  1  0
 47 45  2  0
 50 51  1  0
 50 25  1  0
 52 50  1  0
 53  3  1  0
 54 53  1  0
 55 56  1  0
 58 69  2  0
 59 57  1  0
 59 64  1  0
 60 68  1  0
 60 70  1  0
 61 67  1  0
 61 63  1  0
 62 68  1  0
 63 62  1  0
 64 63  2  0
 65 66  1  0
 65 59  2  0
 66 61  2  0
 67 60  1  0
 68 58  1  0
 70 72  2  0
 71 70  1  0
 73 71  1  0
 74 83  2  0
 74 79  1  0
 75 71  1  0
 75 79  1  0
 76 75  1  0
 77 78  1  0
 77 76  1  0
 78 74  1  0
 79 80  2  0
 80 81  1  0
 82 81  2  0
 83 82  1  0
 84 58  1  0
 84 89  1  0
 84 85  1  0
 85 88  1  1
 85 86  1  0
 87 85  1  0
 89 92  1  0
 90 94  1  0
 90 89  1  0
 91 90  2  0
 94 93  1  0
 96 94  1  0
 96 97  1  0
 96 95  1  0
M  ISO  4   2 101  15 100  23 100  57 101
M  END
>  <TORSDO>  (37) 
F 20

>  <SCORE>  (37) 
-14.394

>  <name>  (37) 
36

>  <ligand_id>  (37) 
36

>  <original_smiles>  (37) 
[H]Oc1c([H])c(Oc2c([H])c([H])c3c(c2[H])C([H])([H])N(C(=O)C([H])(N([H])C(=O)C([H])(N([H])C([H])([H])[H])C([H])([H])[H])C(C([H])([H])[H])(C([H])([H])[H])C([H])([H])[H])C([H])(C(=O)N([H])C2([H])c4c([H])c([H])c([H])c([H])c4C([H])([H])C([H])([H])C2([H])[H])C3([H])[H])c(O[H])n1-c1c([H])c([H])c(C(N([H])C(=O)N2C([H])([H])C([H])([H])C([H])([H])C([H])(n3nc(-c4c([H])c([H])c(Oc5c([H])c([H])c(F)c([H])c5F)c([H])c4[H])c(C(=O)N([H])[H])c3N([H])[H])C2([H])[H])(C([H])([H])[H])C([H])([H])[H])c([H])c1[H]

>  <smiles>  (37) 
[H]Oc1c([H])c(Oc2c([H])c([H])c3c(c2[H])C([H])([H])N(C(=O)C([H])(N([H])C(=O)C([H])(N([H])C([H])([H])[H])C([H])([H])[H])C(C([H])([H])[H])(C([H])([H])[H])C([H])([H])[H])C([H])(C(=O)N([H])C2([H])c4c([H])c([H])c([H])c([H])c4C([H])([H])C([H])([H])C2([H])[H])C3([H])[H])c(O[H])n1-c1c([H])c([H])c(C(N([H])C(=O)N2C([H])([H])C([H])([H])C([H])([H])C([H])(n3nc(-c4c([H])c([H])c(Oc5c([H])c([H])c(F)c([H])c5F)c([H])c4[H])c(C(=O)N([H])[H])c3N([H])[H])C2([H])[H])(C([H])([H])[H])C([H])([H])[H])c([H])c1[H]

$$$$
37:0:0
     RDKit          3D

 95104  0  0  1  0  0  0  0  0999 V2000
  -28.7770  -24.3900   21.2810 C   0  0  0  0  0  0  0  0  0  0  0  0
  -29.1000  -23.7090   22.5120 C   0  0  0  0  0  0  0  0  0  0  0  0
  -28.7080  -23.3290   20.2540 C   0  0  0  0  0  0  0  0  0  0  0  0
  -29.1010  -24.2490   23.7450 C   0  0  0  0  0  1  0  0  0  0  0  0
  -28.5910  -25.7500   21.1730 C   0  0  0  0  0  2  0  0  0  0  0  0
  -29.3890  -22.2610   22.2340 C   0  0  0  0  0  2  0  0  0  0  0  0
  -28.9930  -22.1020   20.8360 N   0  0  0  0  0  0  0  0  0  0  0  0
  -28.4420  -23.4970   19.0590 O   0  0  0  0  0  0  0  0  0  0  0  0
  -27.6460  -19.1640   18.8430 C   0  0  0  0  0  3  0  0  0  0  0  0
  -28.4120  -18.0790   19.3160 C   0  0  0  0  0  3  0  0  0  0  0  0
  -27.8670  -20.4750   19.3120 C   0  0  0  0  0  3  0  0  0  0  0  0
  -29.6180  -19.6200   20.7650 C   0  0  0  0  0  3  0  0  0  0  0  0
  -29.4220  -18.2740   20.2850 C   0  0  0  0  0  0  0  0  0  0  0  0
  -28.8510  -20.7460   20.2910 C   0  0  0  0  0  0  0  0  0  0  0  0
  -30.6740  -14.6760   20.3840 C   0  0  0  0  0  0  0  0  0  0  0  0
  -30.4190  -12.4450   19.3220 C   0  0  0  0  0  2  0  0  0  0  0  0
  -29.4860  -12.5620   18.1000 C   0  0  0  0  0  2  0  0  0  0  0  0
  -28.0140  -12.4030   18.5270 C   0  0  0  0  0  2  0  0  0  0  0  0
  -27.6460  -13.2830   19.7510 C   0  0  0  0  0  3  0  0  0  0  0  0
  -28.6990  -13.1660   20.8740 C   0  0  0  0  0  2  0  0  0  0  0  0
  -30.0050  -13.4850   20.2840 N   0  0  0  0  0  0  0  0  0  0  0  0
  -31.8720  -14.7350   20.0930 O   0  0  0  0  0  0  0  0  0  0  0  0
  -30.3490  -17.1060   20.6710 C   0  0  0  0  0  0  0  0  0  0  0  0
  -29.9140  -15.8090   20.5470 N   0  0  0  0  0  0  0  0  0  0  0  0
  -31.4740  -17.3940   21.0960 O   0  0  0  0  0  0  0  0  0  0  0  0
  -28.9200  -15.6840   20.4680 H   0  0  0  0  0  0  0  0  0  0  0  0
  -25.2500  -13.8800   20.4540 C   0  0  0  0  0  0  0  0  0  0  0  0
  -24.1830  -13.1060   20.8230 C   0  0  0  0  0  0  0  0  0  0  0  0
  -24.6500  -11.7570   20.8070 C   0  0  0  0  0  0  0  0  0  0  0  0
  -26.2980  -13.0010   20.2330 N   0  0  0  0  0  0  0  0  0  0  0  0
  -25.9420  -11.7200   20.5080 N   0  0  0  0  0  0  0  0  0  0  0  0
  -23.9260  -10.4940   21.0000 C   0  0  0  0  0  0  0  0  0  0  0  0
  -24.3520   -9.5360   21.9460 C   0  0  0  0  0  3  0  0  0  0  0  0
  -23.6260   -8.3370   22.1270 C   0  0  0  0  0  3  0  0  0  0  0  0
  -22.4610   -8.0910   21.3630 C   0  0  0  0  0  0  0  0  0  0  0  0
  -22.0550   -9.0380   20.4070 C   0  0  0  0  0  3  0  0  0  0  0  0
  -22.7800  -10.2270   20.2240 C   0  0  0  0  0  3  0  0  0  0  0  0
  -21.7090   -6.9450   21.4530 O   0  0  0  0  0  0  0  0  0  0  0  0
  -21.6480   -6.2120   22.6120 C   0  0  0  0  0  0  0  0  0  0  0  0
  -21.2030   -6.7760   23.8270 C   0  0  0  0  0  3  0  0  0  0  0  0
  -21.0920   -5.9700   24.9780 C   0  0  0  0  0  3  0  0  0  0  0  0
  -21.4140   -4.6010   24.9130 C   0  0  0  0  0  0  0  0  0  0  0  0
  -21.8510   -4.0360   23.7020 C   0  0  0  0  0  3  0  0  0  0  0  0
  -21.9640   -4.8400   22.5530 C   0  0  0  0  0  0  0  0  0  0  0  0
  -22.3660   -4.2870   21.3830 F   0  0  0  0  0  0  0  0  0  0  0  0
  -21.3000   -3.8230   26.0150 F   0  0  0  0  0  0  0  0  0  0  0  0
  -22.7830  -13.5830   21.0810 C   0  0  0  0  0  0  0  0  0  0  0  0
  -22.0490  -12.8890   21.9440 N   0  0  0  0  0  0  0  0  0  0  0  0
  -22.3470  -14.6030   20.5520 O   0  0  0  0  0  0  0  0  0  0  0  0
  -22.4150  -12.0640   22.3960 H   0  0  0  0  0  0  0  0  0  0  0  0
  -21.1080  -13.1870   22.1570 H   0  0  0  0  0  0  0  0  0  0  0  0
  -25.4070  -15.2500   20.2670 N   0  0  0  0  0  0  0  0  0  0  0  0
  -24.6270  -15.8930   20.3600 H   0  0  0  0  0  0  0  0  0  0  0  0
  -26.2400  -15.6970   19.9110 H   0  0  0  0  0  0  0  0  0  0  0  0
  -28.3620  -26.5480   20.0570 O   0  0  0  0  0  0  0  0  0  0  0  0
  -24.6860  -31.8980   23.2090 C   0  0  0  0  0  0  0  0  0  0  0  0
  -27.2680  -27.4020   20.0980 C   0  0  0  0  0  0  0  0  0  0  0  0
  -23.4610  -30.5080   21.5750 C   0  0  0  0  0  3  0  0  0  0  0  0
  -24.8970  -28.9710   20.1230 C   0  0  0  0  0  0  0  0  0  0  0  0
  -25.9930  -30.8450   21.3560 C   0  0  0  0  0  2  0  0  0  0  0  0
  -26.0690  -29.4700   20.7110 C   0  0  0  0  0  0  0  0  0  0  0  0
  -27.2600  -28.6920   20.6990 C   0  0  0  0  0  3  0  0  0  0  0  0
  -26.0840  -26.9410   19.4930 C   0  0  0  0  0  3  0  0  0  0  0  0
  -24.9040  -27.7070   19.5090 C   0  0  0  0  0  3  0  0  0  0  0  0
  -23.6580  -29.8390   20.1880 C   0  0  0  0  0  2  0  0  0  0  0  0
  -24.7330  -31.1010   22.1030 N   0  0  0  0  0  0  0  0  0  0  0  0
  -23.6100  -32.1690   23.7620 O   0  0  0  0  0  0  0  0  0  0  0  0
  -22.8160  -29.4830   22.5370 C   0  0  0  0  0  0  0  0  0  0  0  0
  -21.4890  -29.3020   22.4250 N   0  0  0  0  0  0  0  0  0  0  0  0
  -23.5070  -28.8530   23.3420 O   0  0  0  0  0  0  0  0  0  0  0  0
  -20.9900  -29.8610   21.7480 H   0  0  0  0  0  0  0  0  0  0  0  0
  -18.1250  -28.0880   22.9520 C   0  0  0  0  0  0  0  0  0  0  0  0
  -20.6840  -28.3570   23.2000 C   0  0  0  0  0  3  0  0  0  0  0  0
  -20.7880  -26.9280   22.6200 C   0  0  0  0  0  2  0  0  0  0  0  0
  -19.6780  -26.6030   21.6160 C   0  0  0  0  0  2  0  0  0  0  0  0
  -18.3010  -26.7410   22.2730 C   0  0  0  0  0  2  0  0  0  0  0  0
  -19.2440  -28.8540   23.3730 C   0  0  0  0  0  0  0  0  0  0  0  0
  -19.0250  -30.1160   23.9680 C   0  0  0  0  0  3  0  0  0  0  0  0
  -17.7200  -30.6120   24.1440 C   0  0  0  0  0  3  0  0  0  0  0  0
  -16.6150  -29.8440   23.7380 C   0  0  0  0  0  3  0  0  0  0  0  0
  -16.8190  -28.5840   23.1480 C   0  0  0  0  0  3  0  0  0  0  0  0
  -25.9790  -32.5270   23.8160 C   0  0  0  0  0  3  0  0  0  0  0  0
  -25.6690  -33.9200   24.1680 N   0  0  0  0  0  0  0  0  0  0  0  0
  -25.9860  -34.9820   23.4170 C   0  0  0  0  0  0  0  0  0  0  0  0
  -26.6390  -34.8940   22.3740 O   0  0  0  0  0  0  0  0  0  0  0  0
  -25.0880  -34.0620   24.9810 H   0  0  0  0  0  0  0  0  0  0  0  0
  -24.2480  -36.7750   23.1130 C   0  0  0  0  0  1  0  0  0  0  0  0
  -25.5030  -36.3630   23.8990 C   0  0  0  0  0  3  0  0  0  0  0  0
  -27.6470  -37.2450   24.7090 C   0  0  0  0  0  1  0  0  0  0  0  0
  -26.5310  -37.4200   23.7840 N   0  0  0  0  0  0  0  0  0  0  0  0
  -26.1240  -38.3380   23.9470 H   0  0  0  0  0  0  0  0  0  0  0  0
  -26.5190  -31.7410   25.0750 C   0  0  1  0  0  0  0  0  0  0  0  0
  -25.4460  -31.4880   26.1580 C   0  0  0  0  0  1  0  0  0  0  0  0
  -27.0990  -30.3700   24.6540 C   0  0  0  0  0  1  0  0  0  0  0  0
  -27.6790  -32.5310   25.7270 C   0  0  0  0  0  1  0  0  0  0  0  0
  1  2  2  0
  2  4  1  0
  3  7  1  0
  3  1  1  0
  5  1  1  0
  6  2  1  0
  7  6  1  0
  8  3  2  0
  9 11  2  0
  9 10  1  0
 10 13  2  0
 11 14  1  0
 13 23  1  0
 13 12  1  0
 14 12  2  0
 14  7  1  0
 15 24  1  0
 16 21  1  0
 17 18  1  0
 17 16  1  0
 19 18  1  0
 19 30  1  0
 19 20  1  0
 21 15  1  0
 21 20  1  0
 22 15  2  0
 23 25  2  0
 24 23  1  0
 26 24  1  0
 27 28  2  0
 28 47  1  0
 29 28  1  0
 29 32  1  0
 30 27  1  0
 30 31  1  0
 31 29  2  0
 32 33  1  0
 33 34  2  0
 35 38  1  0
 35 34  1  0
 36 35  2  0
 37 36  1  0
 37 32  2  0
 38 39  1  0
 39 40  1  0
 40 41  2  0
 42 41  1  0
 42 46  1  0
 43 42  2  0
 44 39  2  0
 44 43  1  0
 45 44  1  0
 47 48  1  0
 48 51  1  0
 48 50  1  0
 49 47  2  0
 52 53  1  0
 52 27  1  0
 54 52  1  0
 55 57  1  0
 55  5  1  0
 56 67  2  0
 57 62  1  0
 58 66  1  0
 58 68  1  0
 59 65  1  0
 59 61  1  0
 60 66  1  0
 61 60  1  0
 62 61  2  0
 63 64  1  0
 63 57  2  0
 64 59  2  0
 65 58  1  0
 66 56  1  0
 68 70  2  0
 69 68  1  0
 71 69  1  0
 72 81  2  0
 72 77  1  0
 73 69  1  0
 73 77  1  0
 74 73  1  0
 75 76  1  0
 75 74  1  0
 76 72  1  0
 77 78  2  0
 78 79  1  0
 80 79  2  0
 81 80  1  0
 82 56  1  0
 82 83  1  0
 82 92  1  0
 83 86  1  0
 84 88  1  0
 84 83  1  0
 85 84  2  0
 88 87  1  0
 90 88  1  0
 90 91  1  0
 90 89  1  0
 92 95  1  1
 92 93  1  0
 94 92  1  0
M  ISO  4   5 101  15 100  24 100  55 101
M  END
>  <TORSDO>  (38) 
F 17

>  <SCORE>  (38) 
-15.271

>  <name>  (38) 
37

>  <ligand_id>  (38) 
37

>  <original_smiles>  (38) 
[H]C([H])=C1C(=C([H])Oc2c([H])c([H])c3c(c2[H])C([H])([H])N(C(=O)C([H])(N([H])C(=O)C([H])(N([H])C([H])([H])[H])C([H])([H])[H])C(C([H])([H])[H])(C([H])([H])[H])C([H])([H])[H])C([H])(C(=O)N([H])C2([H])c4c([H])c([H])c([H])c([H])c4C([H])([H])C([H])([H])C2([H])[H])C3([H])[H])C(=O)N(c2c([H])c([H])c([H])c(C(=O)N([H])C(=O)N3C([H])([H])C([H])([H])C([H])([H])C([H])(n4nc(-c5c([H])c([H])c(Oc6c([H])c([H])c(F)c([H])c6F)c([H])c5[H])c(C(=O)N([H])[H])c4N([H])[H])C3([H])[H])c2[H])C1([H])[H]

>  <smiles>  (38) 
[H]C([H])=C1C(=C([H])Oc2c([H])c([H])c3c(c2[H])C([H])([H])N(C(=O)C([H])(N([H])C(=O)C([H])(N([H])C([H])([H])[H])C([H])([H])[H])C(C([H])([H])[H])(C([H])([H])[H])C([H])([H])[H])C([H])(C(=O)N([H])C2([H])c4c([H])c([H])c([H])c([H])c4C([H])([H])C([H])([H])C2([H])[H])C3([H])[H])C(=O)N(c2c([H])c([H])c([H])c(C(=O)N([H])C(=O)N3C([H])([H])C([H])([H])C([H])([H])C([H])(n4nc(-c5c([H])c([H])c(Oc6c([H])c([H])c(F)c([H])c6F)c([H])c5[H])c(C(=O)N([H])[H])c4N([H])[H])C3([H])[H])c2[H])C1([H])[H]

$$$$
38:0:0
     RDKit          3D

 95104  0  0  1  0  0  0  0  0999 V2000
  -27.2900  -23.3020   19.3280 C   0  0  0  0  0  0  0  0  0  0  0  0
  -28.5670  -23.6760   19.4990 C   0  0  0  0  0  0  0  0  0  0  0  0
  -27.1740  -21.8530   19.2450 C   0  0  0  0  0  0  0  0  0  0  0  0
  -29.2970  -22.3550   19.5290 C   0  0  0  0  0  0  0  0  0  0  0  0
  -26.0770  -24.1810   19.0930 C   0  0  0  0  0  1  0  0  0  0  0  0
  -28.3990  -21.2980   19.4120 N   0  0  0  0  0  0  0  0  0  0  0  0
  -26.1320  -21.2340   18.9980 O   0  0  0  0  0  0  0  0  0  0  0  0
  -30.5210  -22.2020   19.6200 O   0  0  0  0  0  0  0  0  0  0  0  0
  -27.5030  -17.7190   20.5170 C   0  0  0  0  0  3  0  0  0  0  0  0
  -28.5240  -16.8830   20.0300 C   0  0  0  0  0  3  0  0  0  0  0  0
  -27.5250  -19.1160   20.3180 C   0  0  0  0  0  3  0  0  0  0  0  0
  -29.5680  -18.8810   19.0760 C   0  0  0  0  0  3  0  0  0  0  0  0
  -29.5950  -17.4170   19.2870 C   0  0  0  0  0  0  0  0  0  0  0  0
  -28.5480  -19.7890   19.5890 C   0  0  0  0  0  0  0  0  0  0  0  0
  -30.8570  -16.5570   18.9920 C   0  0  0  0  0  0  0  0  0  0  0  0
  -31.7540  -17.2620   18.4190 N   0  0  0  0  0  0  0  0  0  0  0  0
  -31.4540  -18.2230   18.3040 H   0  0  0  0  0  0  0  0  0  0  0  0
  -31.3250  -15.0030   19.3090 C   0  0  0  0  0  0  0  0  0  0  0  0
  -31.1120  -12.5480   18.9580 C   0  0  0  0  0  2  0  0  0  0  0  0
  -30.1640  -12.1940   17.8000 C   0  0  0  0  0  2  0  0  0  0  0  0
  -28.7410  -12.0000   18.3390 C   0  0  0  0  0  2  0  0  0  0  0  0
  -28.3080  -13.1450   19.2920 C   0  0  0  0  0  3  0  0  0  0  0  0
  -29.3970  -13.5350   20.3130 C   0  0  0  0  0  2  0  0  0  0  0  0
  -30.6260  -13.8280   19.5650 N   0  0  0  0  0  0  0  0  0  0  0  0
  -32.5260  -14.8460   19.0590 O   0  0  0  0  0  0  0  0  0  0  0  0
  -26.0520  -13.7370   20.3310 C   0  0  0  0  0  0  0  0  0  0  0  0
  -25.0100  -12.9690   20.7720 C   0  0  0  0  0  0  0  0  0  0  0  0
  -25.4240  -11.6110   20.6230 C   0  0  0  0  0  0  0  0  0  0  0  0
  -27.0330  -12.8490   19.9330 N   0  0  0  0  0  0  0  0  0  0  0  0
  -26.6740  -11.5590   20.1750 N   0  0  0  0  0  0  0  0  0  0  0  0
  -24.6810  -10.3600   20.8270 C   0  0  0  0  0  0  0  0  0  0  0  0
  -24.9660   -9.4950   21.9070 C   0  0  0  0  0  3  0  0  0  0  0  0
  -24.2170   -8.3100   22.0940 C   0  0  0  0  0  3  0  0  0  0  0  0
  -23.1710   -7.9840   21.1980 C   0  0  0  0  0  0  0  0  0  0  0  0
  -22.9070   -8.8370   20.1120 C   0  0  0  0  0  3  0  0  0  0  0  0
  -23.6560  -10.0110   19.9250 C   0  0  0  0  0  3  0  0  0  0  0  0
  -22.4060   -6.8450   21.2870 O   0  0  0  0  0  0  0  0  0  0  0  0
  -21.9640   -6.3690   22.4950 C   0  0  0  0  0  0  0  0  0  0  0  0
  -21.1550   -7.1460   23.3520 C   0  0  0  0  0  3  0  0  0  0  0  0
  -20.6620   -6.5910   24.5510 C   0  0  0  0  0  3  0  0  0  0  0  0
  -20.9710   -5.2600   24.8910 C   0  0  0  0  0  0  0  0  0  0  0  0
  -21.7730   -4.4830   24.0350 C   0  0  0  0  0  3  0  0  0  0  0  0
  -22.2650   -5.0360   22.8410 C   0  0  0  0  0  0  0  0  0  0  0  0
  -23.0200   -4.2750   22.0100 F   0  0  0  0  0  0  0  0  0  0  0  0
  -20.4930   -4.7240   26.0380 F   0  0  0  0  0  0  0  0  0  0  0  0
  -23.6650  -13.4730   21.2130 C   0  0  0  0  0  0  0  0  0  0  0  0
  -23.0360  -12.7870   22.1600 N   0  0  0  0  0  0  0  0  0  0  0  0
  -23.1880  -14.5090   20.7530 O   0  0  0  0  0  0  0  0  0  0  0  0
  -23.4410  -11.9520   22.5550 H   0  0  0  0  0  0  0  0  0  0  0  0
  -22.1360  -13.1010   22.4930 H   0  0  0  0  0  0  0  0  0  0  0  0
  -26.2360  -15.1100   20.2080 N   0  0  0  0  0  0  0  0  0  0  0  0
  -25.5010  -15.7700   20.4340 H   0  0  0  0  0  0  0  0  0  0  0  0
  -27.0860  -15.5630   19.8940 H   0  0  0  0  0  0  0  0  0  0  0  0
  -29.1650  -25.1690   19.2630 C   0  0  0  0  0  2  0  0  0  0  0  0
  -28.9410  -26.4150   20.1250 O   0  0  0  0  0  0  0  0  0  0  0  0
  -24.9180  -31.6190   23.2520 C   0  0  0  0  0  0  0  0  0  0  0  0
  -27.8630  -27.3360   19.9950 C   0  0  0  0  0  0  0  0  0  0  0  0
  -23.8760  -30.3180   21.4360 C   0  0  0  0  0  3  0  0  0  0  0  0
  -25.4700  -28.9420   19.9670 C   0  0  0  0  0  0  0  0  0  0  0  0
  -26.4140  -30.7120   21.4480 C   0  0  0  0  0  2  0  0  0  0  0  0
  -26.5810  -29.3890   20.6900 C   0  0  0  0  0  0  0  0  0  0  0  0
  -27.7750  -28.5900   20.7080 C   0  0  0  0  0  3  0  0  0  0  0  0
  -26.7540  -27.0120   19.1940 C   0  0  0  0  0  3  0  0  0  0  0  0
  -25.5610  -27.7620   19.2140 C   0  0  0  0  0  3  0  0  0  0  0  0
  -24.1990  -29.7670   20.0210 C   0  0  0  0  0  2  0  0  0  0  0  0
  -25.0870  -30.8970   22.1030 N   0  0  0  0  0  0  0  0  0  0  0  0
  -23.7930  -31.8210   23.7320 O   0  0  0  0  0  0  0  0  0  0  0  0
  -23.1960  -29.2050   22.2680 C   0  0  0  0  0  0  0  0  0  0  0  0
  -21.8780  -29.0200   22.0720 N   0  0  0  0  0  0  0  0  0  0  0  0
  -23.8540  -28.5160   23.0520 O   0  0  0  0  0  0  0  0  0  0  0  0
  -21.4010  -29.6410   21.4320 H   0  0  0  0  0  0  0  0  0  0  0  0
  -18.5000  -27.7660   22.3920 C   0  0  0  0  0  0  0  0  0  0  0  0
  -21.0530  -27.9910   22.7100 C   0  0  0  0  0  3  0  0  0  0  0  0
  -21.1620  -26.6440   21.9580 C   0  0  0  0  0  2  0  0  0  0  0  0
  -20.0680  -26.4530   20.9030 C   0  0  0  0  0  2  0  0  0  0  0  0
  -18.6840  -26.5090   21.5550 C   0  0  0  0  0  2  0  0  0  0  0  0
  -19.6110  -28.4720   22.9170 C   0  0  0  0  0  0  0  0  0  0  0  0
  -19.3860  -29.6530   23.6570 C   0  0  0  0  0  3  0  0  0  0  0  0
  -18.0780  -30.1290   23.8720 C   0  0  0  0  0  3  0  0  0  0  0  0
  -16.9800  -29.4160   23.3630 C   0  0  0  0  0  3  0  0  0  0  0  0
  -17.1910  -28.2360   22.6260 C   0  0  0  0  0  3  0  0  0  0  0  0
  -26.1310  -32.2450   24.0050 C   0  0  0  0  0  3  0  0  0  0  0  0
  -26.5800  -31.4080   25.2650 C   0  0  1  0  0  0  0  0  0  0  0  0
  -25.4210  -31.0650   26.2320 C   0  0  0  0  0  1  0  0  0  0  0  0
  -27.2400  -30.0790   24.8340 C   0  0  0  0  0  1  0  0  0  0  0  0
  -27.6420  -32.1970   26.0650 C   0  0  0  0  0  1  0  0  0  0  0  0
  -25.7510  -33.6090   24.4070 N   0  0  0  0  0  0  0  0  0  0  0  0
  -26.0940  -34.7210   23.7450 C   0  0  0  0  0  0  0  0  0  0  0  0
  -26.8300  -34.7110   22.7560 O   0  0  0  0  0  0  0  0  0  0  0  0
  -25.1000  -33.6920   25.1740 H   0  0  0  0  0  0  0  0  0  0  0  0
  -24.3340  -36.4830   23.3990 C   0  0  0  0  0  1  0  0  0  0  0  0
  -25.5290  -36.0560   24.2670 C   0  0  0  0  0  3  0  0  0  0  0  0
  -27.5620  -36.9410   25.3200 C   0  0  0  0  0  1  0  0  0  0  0  0
  -26.5300  -37.1430   24.3070 N   0  0  0  0  0  0  0  0  0  0  0  0
  -26.0810  -38.0360   24.4880 H   0  0  0  0  0  0  0  0  0  0  0  0
  1  2  2  0
  2  4  1  0
  3  1  1  0
  3  6  1  0
  4  8  2  0
  5  1  1  0
  6  4  1  0
  6 14  1  0
  7  3  2  0
 10  9  2  0
 11  9  1  0
 12 13  2  0
 12 14  1  0
 13 10  1  0
 14 11  2  0
 15 13  1  0
 15 18  1  0
 16 15  2  0
 17 16  1  0
 18 24  1  0
 19 24  1  0
 20 21  1  0
 20 19  1  0
 22 21  1  0
 22 29  1  0
 22 23  1  0
 24 23  1  0
 25 18  2  0
 26 27  2  0
 27 46  1  0
 28 27  1  0
 28 31  1  0
 29 30  1  0
 29 26  1  0
 30 28  2  0
 31 32  1  0
 32 33  2  0
 34 37  1  0
 34 33  1  0
 35 34  2  0
 36 35  1  0
 36 31  2  0
 37 38  1  0
 38 43  2  0
 38 39  1  0
 39 40  2  0
 40 41  1  0
 41 45  1  0
 42 41  2  0
 43 42  1  0
 44 43  1  0
 46 47  1  0
 47 50  1  0
 47 49  1  0
 48 46  2  0
 51 26  1  0
 51 52  1  0
 53 51  1  0
 54  2  1  0
 54 55  1  0
 56 67  2  0
 57 55  1  0
 57 62  1  0
 58 66  1  0
 58 68  1  0
 59 65  1  0
 59 61  1  0
 60 66  1  0
 61 62  2  0
 61 60  1  0
 63 64  1  0
 63 57  2  0
 64 59  2  0
 65 58  1  0
 66 56  1  0
 68 70  2  0
 69 68  1  0
 71 69  1  0
 72 81  2  0
 72 77  1  0
 73 69  1  0
 73 77  1  0
 74 73  1  0
 75 76  1  0
 75 74  1  0
 76 72  1  0
 77 78  2  0
 78 79  1  0
 80 79  2  0
 81 80  1  0
 82 56  1  0
 82 87  1  0
 82 83  1  0
 83 86  1  1
 83 84  1  0
 85 83  1  0
 87 90  1  0
 88 92  1  0
 88 87  1  0
 89 88  2  0
 92 91  1  0
 92 94  1  0
 94 95  1  0
 94 93  1  0
M  ISO  4  15 100  18 100  54 101  55 101
M  END
>  <TORSDO>  (39) 
F 19

>  <SCORE>  (39) 
-11.463

>  <name>  (39) 
38

>  <ligand_id>  (39) 
38

>  <original_smiles>  (39) 
[H]N=C(C(=O)N1C([H])([H])C([H])([H])C([H])([H])C([H])(n2nc(-c3c([H])c([H])c(Oc4c([H])c([H])c(F)c([H])c4F)c([H])c3[H])c(C(=O)N([H])[H])c2N([H])[H])C1([H])[H])c1c([H])c([H])c([H])c(N2C(=O)C(C([H])([H])[H])=C(C([H])([H])Oc3c([H])c([H])c4c(c3[H])C([H])([H])N(C(=O)C([H])(N([H])C(=O)C([H])(N([H])C([H])([H])[H])C([H])([H])[H])C(C([H])([H])[H])(C([H])([H])[H])C([H])([H])[H])C([H])(C(=O)N([H])C3([H])c5c([H])c([H])c([H])c([H])c5C([H])([H])C([H])([H])C3([H])[H])C4([H])[H])C2=O)c1[H]

>  <smiles>  (39) 
[H]N=C(C(=O)N1C([H])([H])C([H])([H])C([H])([H])C([H])(n2nc(-c3c([H])c([H])c(Oc4c([H])c([H])c(F)c([H])c4F)c([H])c3[H])c(C(=O)N([H])[H])c2N([H])[H])C1([H])[H])c1c([H])c([H])c([H])c(N2C(=O)C(C([H])([H])[H])=C(C([H])([H])Oc3c([H])c([H])c4c(c3[H])C([H])([H])N(C(=O)C([H])(N([H])C(=O)C([H])(N([H])C([H])([H])[H])C([H])([H])[H])C(C([H])([H])[H])(C([H])([H])[H])C([H])([H])[H])C([H])(C(=O)N([H])C3([H])c5c([H])c([H])c([H])c([H])c5C([H])([H])C([H])([H])C3([H])[H])C4([H])[H])C2=O)c1[H]

$$$$
39:0:0
     RDKit          3D

 93102  0  0  1  0  0  0  0  0999 V2000
  -28.7790  -23.7000   20.3410 C   0  0  0  0  0  0  0  0  0  0  0  0
  -30.1240  -23.5560   20.8310 C   0  0  0  0  0  0  0  0  0  0  0  0
  -28.3550  -22.2790   20.0670 C   0  0  0  0  0  0  0  0  0  0  0  0
  -30.9320  -24.5710   21.1810 C   0  0  0  0  0  1  0  0  0  0  0  0
  -27.9940  -24.8440   20.1220 C   0  0  0  0  0  2  0  0  0  0  0  0
  -30.5070  -22.0790   20.9070 C   0  0  0  0  0  2  0  0  0  0  0  0
  -29.3470  -21.3450   20.3770 N   0  0  0  0  0  0  0  0  0  0  0  0
  -27.2490  -21.9500   19.6260 O   0  0  0  0  0  0  0  0  0  0  0  0
  -29.8500  -18.5620   17.8440 C   0  0  0  0  0  3  0  0  0  0  0  0
  -29.6130  -19.8050   18.4660 C   0  0  0  0  0  3  0  0  0  0  0  0
  -29.9770  -17.3720   18.5890 C   0  0  0  0  0  3  0  0  0  0  0  0
  -29.6240  -18.6730   20.6220 C   0  0  0  0  0  3  0  0  0  0  0  0
  -29.4950  -19.9320   19.8680 C   0  0  0  0  0  0  0  0  0  0  0  0
  -29.8610  -17.3590   19.9980 C   0  0  0  0  0  0  0  0  0  0  0  0
  -30.5960  -14.8540   20.3380 C   0  0  0  0  0  0  0  0  0  0  0  0
  -30.4140  -12.5490   19.3790 C   0  0  0  0  0  2  0  0  0  0  0  0
  -29.4910  -12.5980   18.1400 C   0  0  0  0  0  2  0  0  0  0  0  0
  -28.0180  -12.4250   18.5530 C   0  0  0  0  0  2  0  0  0  0  0  0
  -27.6300  -13.3210   19.7580 C   0  0  0  0  0  3  0  0  0  0  0  0
  -28.6750  -13.2600   20.8940 C   0  0  0  0  0  2  0  0  0  0  0  0
  -29.9770  -13.6170   20.3170 N   0  0  0  0  0  0  0  0  0  0  0  0
  -31.7670  -14.9380   19.9580 O   0  0  0  0  0  0  0  0  0  0  0  0
  -29.8730  -16.0090   20.6600 N   0  0  0  0  0  0  0  0  0  0  0  0
  -29.0590  -15.8270   21.2300 H   0  0  0  0  0  0  0  0  0  0  0  0
  -25.2330  -13.9100   20.4490 C   0  0  0  0  0  0  0  0  0  0  0  0
  -24.1640  -13.1380   20.8150 C   0  0  0  0  0  0  0  0  0  0  0  0
  -24.6290  -11.7870   20.8050 C   0  0  0  0  0  0  0  0  0  0  0  0
  -26.2810  -13.0300   20.2350 N   0  0  0  0  0  0  0  0  0  0  0  0
  -25.9240  -11.7500   20.5110 N   0  0  0  0  0  0  0  0  0  0  0  0
  -23.8990  -10.5260   20.9990 C   0  0  0  0  0  0  0  0  0  0  0  0
  -24.3260   -9.5650   21.9420 C   0  0  0  0  0  3  0  0  0  0  0  0
  -23.5990   -8.3680   22.1250 C   0  0  0  0  0  3  0  0  0  0  0  0
  -22.4300   -8.1250   21.3650 C   0  0  0  0  0  0  0  0  0  0  0  0
  -22.0220   -9.0750   20.4110 C   0  0  0  0  0  3  0  0  0  0  0  0
  -22.7500  -10.2620   20.2260 C   0  0  0  0  0  3  0  0  0  0  0  0
  -21.6720   -6.9820   21.4600 O   0  0  0  0  0  0  0  0  0  0  0  0
  -21.6200   -6.2450   22.6150 C   0  0  0  0  0  0  0  0  0  0  0  0
  -21.1940   -6.8080   23.8390 C   0  0  0  0  0  3  0  0  0  0  0  0
  -21.0870   -5.9990   24.9870 C   0  0  0  0  0  3  0  0  0  0  0  0
  -21.3980   -4.6270   24.9140 C   0  0  0  0  0  0  0  0  0  0  0  0
  -21.8150   -4.0630   23.6960 C   0  0  0  0  0  3  0  0  0  0  0  0
  -21.9230   -4.8700   22.5500 C   0  0  0  0  0  0  0  0  0  0  0  0
  -22.3060   -4.3160   21.3740 F   0  0  0  0  0  0  0  0  0  0  0  0
  -21.2880   -3.8480   26.0150 F   0  0  0  0  0  0  0  0  0  0  0  0
  -22.7620  -13.6150   21.0620 C   0  0  0  0  0  0  0  0  0  0  0  0
  -22.0230  -12.9300   21.9270 N   0  0  0  0  0  0  0  0  0  0  0  0
  -22.3320  -14.6350   20.5250 O   0  0  0  0  0  0  0  0  0  0  0  0
  -22.3830  -12.1060   22.3850 H   0  0  0  0  0  0  0  0  0  0  0  0
  -21.0820  -13.2330   22.1320 H   0  0  0  0  0  0  0  0  0  0  0  0
  -25.3970  -15.2780   20.2570 N   0  0  0  0  0  0  0  0  0  0  0  0
  -24.6340  -15.9370   20.3550 H   0  0  0  0  0  0  0  0  0  0  0  0
  -26.2500  -15.7120   19.9240 H   0  0  0  0  0  0  0  0  0  0  0  0
  -28.2390  -26.2730   20.2300 O   0  0  0  0  0  0  0  0  0  0  0  0
  -24.6160  -31.8930   23.2260 C   0  0  0  0  0  0  0  0  0  0  0  0
  -27.1750  -27.2310   20.1620 C   0  0  0  0  0  0  0  0  0  0  0  0
  -23.4010  -30.4990   21.5980 C   0  0  0  0  0  3  0  0  0  0  0  0
  -24.8370  -28.9410   20.1580 C   0  0  0  0  0  0  0  0  0  0  0  0
  -25.9490  -30.7790   21.4100 C   0  0  0  0  0  2  0  0  0  0  0  0
  -26.0170  -29.3910   20.7650 C   0  0  0  0  0  0  0  0  0  0  0  0
  -27.1820  -28.5450   20.7670 C   0  0  0  0  0  3  0  0  0  0  0  0
  -25.9800  -26.8980   19.4780 C   0  0  0  0  0  3  0  0  0  0  0  0
  -24.8260  -27.7030   19.5070 C   0  0  0  0  0  3  0  0  0  0  0  0
  -23.6070  -29.8270   20.2160 C   0  0  0  0  0  2  0  0  0  0  0  0
  -24.6750  -31.0780   22.1320 N   0  0  0  0  0  0  0  0  0  0  0  0
  -23.5360  -32.1730   23.7670 O   0  0  0  0  0  0  0  0  0  0  0  0
  -22.7400  -29.4830   22.5630 C   0  0  0  0  0  0  0  0  0  0  0  0
  -21.4120  -29.3030   22.4460 N   0  0  0  0  0  0  0  0  0  0  0  0
  -23.4210  -28.8580   23.3800 O   0  0  0  0  0  0  0  0  0  0  0  0
  -20.9200  -29.8600   21.7610 H   0  0  0  0  0  0  0  0  0  0  0  0
  -18.0410  -28.0930   22.9660 C   0  0  0  0  0  0  0  0  0  0  0  0
  -20.5990  -28.3660   23.2250 C   0  0  0  0  0  3  0  0  0  0  0  0
  -20.7050  -26.9320   22.6570 C   0  0  0  0  0  2  0  0  0  0  0  0
  -19.6020  -26.5980   21.6480 C   0  0  0  0  0  2  0  0  0  0  0  0
  -18.2220  -26.7410   22.2950 C   0  0  0  0  0  2  0  0  0  0  0  0
  -19.1570  -28.8630   23.3880 C   0  0  0  0  0  0  0  0  0  0  0  0
  -18.9320  -30.1270   23.9740 C   0  0  0  0  0  3  0  0  0  0  0  0
  -17.6250  -30.6220   24.1430 C   0  0  0  0  0  3  0  0  0  0  0  0
  -16.5240  -29.8480   23.7380 C   0  0  0  0  0  3  0  0  0  0  0  0
  -16.7330  -28.5860   23.1550 C   0  0  0  0  0  3  0  0  0  0  0  0
  -25.9020  -32.5280   23.8370 C   0  0  0  0  0  3  0  0  0  0  0  0
  -25.5930  -33.9260   24.1740 N   0  0  0  0  0  0  0  0  0  0  0  0
  -25.9120  -34.9820   23.4160 C   0  0  0  0  0  0  0  0  0  0  0  0
  -26.5670  -34.8840   22.3750 O   0  0  0  0  0  0  0  0  0  0  0  0
  -25.0100  -34.0770   24.9850 H   0  0  0  0  0  0  0  0  0  0  0  0
  -24.1750  -36.7750   23.0960 C   0  0  0  0  0  1  0  0  0  0  0  0
  -25.4280  -36.3680   23.8870 C   0  0  0  0  0  3  0  0  0  0  0  0
  -27.5710  -37.2550   24.6920 C   0  0  0  0  0  1  0  0  0  0  0  0
  -26.4550  -37.4240   23.7660 N   0  0  0  0  0  0  0  0  0  0  0  0
  -26.0480  -38.3420   23.9240 H   0  0  0  0  0  0  0  0  0  0  0  0
  -26.4310  -31.7560   25.1090 C   0  0  1  0  0  0  0  0  0  0  0  0
  -25.3470  -31.5180   26.1870 C   0  0  0  0  0  1  0  0  0  0  0  0
  -27.0100  -30.3780   24.7160 C   0  0  0  0  0  1  0  0  0  0  0  0
  -27.5880  -32.5500   25.7590 C   0  0  0  0  0  1  0  0  0  0  0  0
  1  2  2  0
  2  6  1  0
  2  4  1  0
  3  1  1  0
  3  7  1  0
  5 53  1  0
  5  1  1  0
  7  6  1  0
  8  3  2  0
  9 10  2  0
  9 11  1  0
 10 13  1  0
 11 14  2  0
 13  7  1  0
 13 12  2  0
 14 12  1  0
 14 23  1  0
 15 23  1  0
 16 21  1  0
 17 18  1  0
 17 16  1  0
 19 18  1  0
 19 28  1  0
 19 20  1  0
 21 15  1  0
 21 20  1  0
 22 15  2  0
 23 24  1  0
 25 26  2  0
 26 45  1  0
 27 26  1  0
 27 30  1  0
 28 25  1  0
 28 29  1  0
 29 27  2  0
 30 31  1  0
 31 32  2  0
 33 36  1  0
 33 32  1  0
 34 33  2  0
 35 34  1  0
 35 30  2  0
 36 37  1  0
 37 38  1  0
 38 39  2  0
 40 39  1  0
 40 44  1  0
 41 40  2  0
 42 37  2  0
 42 41  1  0
 43 42  1  0
 45 46  1  0
 46 49  1  0
 46 48  1  0
 47 45  2  0
 50 51  1  0
 50 25  1  0
 52 50  1  0
 54 65  2  0
 55 53  1  0
 55 60  1  0
 56 64  1  0
 56 66  1  0
 57 63  1  0
 57 59  1  0
 58 64  1  0
 59 60  2  0
 59 58  1  0
 61 62  1  0
 61 55  2  0
 62 57  2  0
 63 56  1  0
 64 54  1  0
 66 68  2  0
 67 66  1  0
 69 67  1  0
 70 79  2  0
 70 75  1  0
 71 67  1  0
 71 75  1  0
 72 71  1  0
 73 74  1  0
 73 72  1  0
 74 70  1  0
 75 76  2  0
 76 77  1  0
 78 77  2  0
 79 78  1  0
 80 54  1  0
 80 81  1  0
 80 90  1  0
 81 84  1  0
 82 86  1  0
 82 81  1  0
 83 82  2  0
 86 85  1  0
 88 86  1  0
 88 89  1  0
 88 87  1  0
 90 93  1  1
 90 91  1  0
 92 90  1  0
M  ISO  4   5 101  15 100  23 100  53 101
M  END
>  <TORSDO>  (40) 
F 17

>  <SCORE>  (40) 
-15.234

>  <name>  (40) 
39

>  <ligand_id>  (40) 
39

>  <original_smiles>  (40) 
[H]C([H])=C1C(=C([H])Oc2c([H])c([H])c3c(c2[H])C([H])([H])N(C(=O)C([H])(N([H])C(=O)C([H])(N([H])C([H])([H])[H])C([H])([H])[H])C(C([H])([H])[H])(C([H])([H])[H])C([H])([H])[H])C([H])(C(=O)N([H])C2([H])c4c([H])c([H])c([H])c([H])c4C([H])([H])C([H])([H])C2([H])[H])C3([H])[H])C(=O)N(c2c([H])c([H])c([H])c(N([H])C(=O)N3C([H])([H])C([H])([H])C([H])([H])C([H])(n4nc(-c5c([H])c([H])c(Oc6c([H])c([H])c(F)c([H])c6F)c([H])c5[H])c(C(=O)N([H])[H])c4N([H])[H])C3([H])[H])c2[H])C1([H])[H]

>  <smiles>  (40) 
[H]C([H])=C1C(=C([H])Oc2c([H])c([H])c3c(c2[H])C([H])([H])N(C(=O)C([H])(N([H])C(=O)C([H])(N([H])C([H])([H])[H])C([H])([H])[H])C(C([H])([H])[H])(C([H])([H])[H])C([H])([H])[H])C([H])(C(=O)N([H])C2([H])c4c([H])c([H])c([H])c([H])c4C([H])([H])C([H])([H])C2([H])[H])C3([H])[H])C(=O)N(c2c([H])c([H])c([H])c(N([H])C(=O)N3C([H])([H])C([H])([H])C([H])([H])C([H])(n4nc(-c5c([H])c([H])c(Oc6c([H])c([H])c(F)c([H])c6F)c([H])c5[H])c(C(=O)N([H])[H])c4N([H])[H])C3([H])[H])c2[H])C1([H])[H]

$$$$
40:0:0
     RDKit          3D

 94103  0  0  1  0  0  0  0  0999 V2000
  -27.1410  -24.1110   20.7960 C   0  0  0  0  0  0  0  0  0  0  0  0
  -28.4590  -24.6280   21.0430 C   0  0  0  0  0  3  0  0  0  0  0  0
  -27.2310  -22.6800   20.5650 C   0  0  0  0  0  0  0  0  0  0  0  0
  -25.9530  -24.6930   21.0370 C   0  0  0  0  0  2  0  0  0  0  0  0
  -29.0070  -25.8590   20.7930 C   0  0  0  0  0  3  0  0  0  0  0  0
  -29.2860  -23.4130   21.4170 C   0  0  0  0  0  2  0  0  0  0  0  0
  -30.4620  -26.1530   21.0970 C   0  0  0  0  0  1  0  0  0  0  0  0
  -28.4600  -22.2630   20.9780 N   0  0  0  0  0  0  0  0  0  0  0  0
  -26.3340  -21.9700   20.0970 O   0  0  0  0  0  0  0  0  0  0  0  0
  -30.8660  -19.3480   20.6800 C   0  0  0  0  0  3  0  0  0  0  0  0
  -28.6290  -18.4450   20.7820 C   0  0  0  0  0  3  0  0  0  0  0  0
  -30.3590  -20.6590   20.8230 C   0  0  0  0  0  3  0  0  0  0  0  0
  -28.1170  -19.7590   20.9230 C   0  0  0  0  0  3  0  0  0  0  0  0
  -30.0140  -18.2200   20.6300 C   0  0  0  0  0  0  0  0  0  0  0  0
  -28.9670  -20.9020   20.9110 C   0  0  0  0  0  0  0  0  0  0  0  0
  -30.6130  -16.8760   20.3600 C   0  0  0  0  0  3  0  0  0  0  0  0
  -30.0600  -15.7110   20.4320 N   0  0  0  0  0  0  0  0  0  0  0  0
  -30.7810  -14.6350   19.8810 C   0  0  0  0  0  0  0  0  0  0  0  0
  -30.4090  -12.4570   18.7740 C   0  0  0  0  0  2  0  0  0  0  0  0
  -29.3840  -12.6570   17.6390 C   0  0  0  0  0  2  0  0  0  0  0  0
  -27.9490  -12.4960   18.1760 C   0  0  0  0  0  2  0  0  0  0  0  0
  -27.6940  -13.3270   19.4640 C   0  0  0  0  0  3  0  0  0  0  0  0
  -28.8340  -13.1380   20.4870 C   0  0  0  0  0  2  0  0  0  0  0  0
  -30.1090  -13.4500   19.8210 N   0  0  0  0  0  0  0  0  0  0  0  0
  -31.8860  -14.7350   19.3350 O   0  0  0  0  0  0  0  0  0  0  0  0
  -25.3660  -13.8910   20.3960 C   0  0  0  0  0  0  0  0  0  0  0  0
  -24.3350  -13.1010   20.8280 C   0  0  0  0  0  0  0  0  0  0  0  0
  -24.7960  -11.7530   20.7130 C   0  0  0  0  0  0  0  0  0  0  0  0
  -26.3890  -13.0250   20.0460 N   0  0  0  0  0  0  0  0  0  0  0  0
  -26.0550  -11.7310   20.2940 N   0  0  0  0  0  0  0  0  0  0  0  0
  -24.0920  -10.4810   20.9220 C   0  0  0  0  0  0  0  0  0  0  0  0
  -24.5670   -9.5150   21.8360 C   0  0  0  0  0  3  0  0  0  0  0  0
  -23.8620   -8.3080   22.0320 C   0  0  0  0  0  3  0  0  0  0  0  0
  -22.6680   -8.0580   21.3150 C   0  0  0  0  0  0  0  0  0  0  0  0
  -22.2120   -9.0140   20.3900 C   0  0  0  0  0  3  0  0  0  0  0  0
  -22.9170  -10.2120   20.1910 C   0  0  0  0  0  3  0  0  0  0  0  0
  -21.9310   -6.9030   21.4220 O   0  0  0  0  0  0  0  0  0  0  0  0
  -21.8710   -6.1950   22.5950 C   0  0  0  0  0  0  0  0  0  0  0  0
  -21.4120   -6.7790   23.7960 C   0  0  0  0  0  3  0  0  0  0  0  0
  -21.2990   -5.9960   24.9620 C   0  0  0  0  0  3  0  0  0  0  0  0
  -21.6330   -4.6290   24.9280 C   0  0  0  0  0  0  0  0  0  0  0  0
  -22.0840   -4.0440   23.7320 C   0  0  0  0  0  3  0  0  0  0  0  0
  -22.1990   -4.8240   22.5680 C   0  0  0  0  0  0  0  0  0  0  0  0
  -22.6140   -4.2500   21.4130 F   0  0  0  0  0  0  0  0  0  0  0  0
  -21.5180   -3.8740   26.0460 F   0  0  0  0  0  0  0  0  0  0  0  0
  -22.9650  -13.5600   21.2340 C   0  0  0  0  0  0  0  0  0  0  0  0
  -22.3190  -12.8350   22.1400 N   0  0  0  0  0  0  0  0  0  0  0  0
  -22.4790  -14.5970   20.7840 O   0  0  0  0  0  0  0  0  0  0  0  0
  -22.7250  -11.9960   22.5250 H   0  0  0  0  0  0  0  0  0  0  0  0
  -21.4030  -13.1260   22.4550 H   0  0  0  0  0  0  0  0  0  0  0  0
  -25.5130  -15.2680   20.2520 N   0  0  0  0  0  0  0  0  0  0  0  0
  -24.7650  -15.9230   20.4520 H   0  0  0  0  0  0  0  0  0  0  0  0
  -26.3500  -15.7130   19.8950 H   0  0  0  0  0  0  0  0  0  0  0  0
  -28.5270  -26.8460   19.9460 O   0  0  0  0  0  0  0  0  0  0  0  0
  -24.6900  -31.9170   23.2800 C   0  0  0  0  0  0  0  0  0  0  0  0
  -27.3590  -27.5560   20.1050 C   0  0  0  0  0  0  0  0  0  0  0  0
  -23.4980  -30.5490   21.6000 C   0  0  0  0  0  3  0  0  0  0  0  0
  -24.9670  -29.0650   20.1330 C   0  0  0  0  0  0  0  0  0  0  0  0
  -26.0220  -30.9260   21.4200 C   0  0  0  0  0  2  0  0  0  0  0  0
  -26.1170  -29.5660   20.7590 C   0  0  0  0  0  0  0  0  0  0  0  0
  -27.3170  -28.8130   20.7580 C   0  0  0  0  0  3  0  0  0  0  0  0
  -26.2160  -27.1140   19.4110 C   0  0  0  0  0  3  0  0  0  0  0  0
  -25.0100  -27.8340   19.4590 C   0  0  0  0  0  3  0  0  0  0  0  0
  -23.7160  -29.9120   20.2000 C   0  0  0  0  0  2  0  0  0  0  0  0
  -24.7540  -31.1460   22.1570 N   0  0  0  0  0  0  0  0  0  0  0  0
  -23.6070  -32.1630   23.8270 O   0  0  0  0  0  0  0  0  0  0  0  0
  -22.8600  -29.4920   22.5310 C   0  0  0  0  0  0  0  0  0  0  0  0
  -21.5450  -29.2670   22.3700 N   0  0  0  0  0  0  0  0  0  0  0  0
  -23.5450  -28.8780   23.3520 O   0  0  0  0  0  0  0  0  0  0  0  0
  -21.0520  -29.8160   21.6810 H   0  0  0  0  0  0  0  0  0  0  0  0
  -18.2160  -27.9070   22.7250 C   0  0  0  0  0  0  0  0  0  0  0  0
  -20.7430  -28.2920   23.1090 C   0  0  0  0  0  3  0  0  0  0  0  0
  -20.9430  -26.8660   22.5460 C   0  0  0  0  0  2  0  0  0  0  0  0
  -19.9040  -26.4850   21.4870 C   0  0  0  0  0  2  0  0  0  0  0  0
  -18.4900  -26.5640   22.0670 C   0  0  0  0  0  2  0  0  0  0  0  0
  -19.2750  -28.7250   23.2010 C   0  0  0  0  0  0  0  0  0  0  0  0
  -18.9690  -29.9780   23.7730 C   0  0  0  0  0  3  0  0  0  0  0  0
  -17.6350  -30.4160   23.8750 C   0  0  0  0  0  3  0  0  0  0  0  0
  -16.5890  -29.5960   23.4190 C   0  0  0  0  0  3  0  0  0  0  0  0
  -16.8800  -28.3430   22.8490 C   0  0  0  0  0  3  0  0  0  0  0  0
  -25.9710  -32.5440   23.9120 C   0  0  0  0  0  3  0  0  0  0  0  0
  -25.6650  -33.9440   24.2330 N   0  0  0  0  0  0  0  0  0  0  0  0
  -25.9990  -34.9900   23.4650 C   0  0  0  0  0  0  0  0  0  0  0  0
  -26.6680  -34.8780   22.4350 O   0  0  0  0  0  0  0  0  0  0  0  0
  -25.0700  -34.1050   25.0330 H   0  0  0  0  0  0  0  0  0  0  0  0
  -24.2660  -36.7750   23.1040 C   0  0  0  0  0  1  0  0  0  0  0  0
  -25.5130  -36.3820   23.9110 C   0  0  0  0  0  3  0  0  0  0  0  0
  -27.6500  -37.2780   24.7190 C   0  0  0  0  0  1  0  0  0  0  0  0
  -26.5430  -37.4350   23.7810 N   0  0  0  0  0  0  0  0  0  0  0  0
  -26.1360  -38.3560   23.9210 H   0  0  0  0  0  0  0  0  0  0  0  0
  -26.4720  -31.7730   25.1960 C   0  0  1  0  0  0  0  0  0  0  0  0
  -25.3650  -31.5400   26.2510 C   0  0  0  0  0  1  0  0  0  0  0  0
  -27.0560  -30.3930   24.8110 C   0  0  0  0  0  1  0  0  0  0  0  0
  -27.6170  -32.5650   25.8700 C   0  0  0  0  0  1  0  0  0  0  0  0
  1  4  2  0
  1  2  1  0
  2  5  1  0
  2  6  1  0
  3  1  1  0
  3  8  1  0
  5  7  1  0
  8  6  1  0
  9  3  2  0
 10 12  1  0
 11 13  2  0
 12 15  2  0
 14 10  2  0
 14 11  1  0
 15 13  1  0
 15  8  1  0
 16 17  2  0
 16 14  1  0
 18 17  1  0
 19 24  1  0
 20 21  1  0
 20 19  1  0
 22 21  1  0
 22 29  1  0
 22 23  1  0
 24 18  1  0
 24 23  1  0
 25 18  2  0
 26 27  2  0
 27 46  1  0
 28 27  1  0
 28 31  1  0
 29 30  1  0
 29 26  1  0
 30 28  2  0
 31 32  1  0
 32 33  2  0
 34 37  1  0
 34 33  1  0
 35 34  2  0
 36 35  1  0
 36 31  2  0
 37 38  1  0
 38 39  1  0
 39 40  2  0
 41 40  1  0
 41 45  1  0
 42 41  2  0
 43 38  2  0
 43 42  1  0
 44 43  1  0
 46 47  1  0
 47 50  1  0
 47 49  1  0
 48 46  2  0
 51 26  1  0
 51 52  1  0
 53 51  1  0
 54 56  1  0
 54  5  1  0
 55 66  2  0
 56 61  1  0
 57 65  1  0
 57 67  1  0
 58 64  1  0
 58 60  1  0
 59 65  1  0
 60 59  1  0
 61 60  2  0
 62 63  1  0
 62 56  2  0
 63 58  2  0
 64 57  1  0
 65 55  1  0
 67 69  2  0
 68 67  1  0
 70 68  1  0
 71 80  2  0
 71 76  1  0
 72 68  1  0
 72 76  1  0
 73 72  1  0
 74 75  1  0
 74 73  1  0
 75 71  1  0
 76 77  2  0
 77 78  1  0
 79 78  2  0
 80 79  1  0
 81 55  1  0
 81 82  1  0
 81 91  1  0
 82 85  1  0
 83 87  1  0
 83 82  1  0
 84 83  2  0
 87 86  1  0
 89 87  1  0
 89 90  1  0
 89 88  1  0
 91 94  1  1
 91 92  1  0
 93 91  1  0
M  ISO  4   5 101  17 100  18 100  54 101
M  END
>  <TORSDO>  (41) 
F 18

>  <SCORE>  (41) 
-13.729

>  <name>  (41) 
40

>  <ligand_id>  (41) 
40

>  <original_smiles>  (41) 
[H]C(=NC(=O)N1C([H])([H])C([H])([H])C([H])([H])C([H])(n2nc(-c3c([H])c([H])c(Oc4c([H])c([H])c(F)c([H])c4F)c([H])c3[H])c(C(=O)N([H])[H])c2N([H])[H])C1([H])[H])c1c([H])c([H])c(N2C(=O)C(=C([H])[H])C(=C(Oc3c([H])c([H])c4c(c3[H])C([H])([H])N(C(=O)C([H])(N([H])C(=O)C([H])(N([H])C([H])([H])[H])C([H])([H])[H])C(C([H])([H])[H])(C([H])([H])[H])C([H])([H])[H])C([H])(C(=O)N([H])C3([H])c5c([H])c([H])c([H])c([H])c5C([H])([H])C([H])([H])C3([H])[H])C4([H])[H])C([H])([H])[H])C2([H])[H])c([H])c1[H]

>  <smiles>  (41) 
[H]C(=NC(=O)N1C([H])([H])C([H])([H])C([H])([H])C([H])(n2nc(-c3c([H])c([H])c(Oc4c([H])c([H])c(F)c([H])c4F)c([H])c3[H])c(C(=O)N([H])[H])c2N([H])[H])C1([H])[H])c1c([H])c([H])c(N2C(=O)C(=C([H])[H])C(=C(Oc3c([H])c([H])c4c(c3[H])C([H])([H])N(C(=O)C([H])(N([H])C(=O)C([H])(N([H])C([H])([H])[H])C([H])([H])[H])C(C([H])([H])[H])(C([H])([H])[H])C([H])([H])[H])C([H])(C(=O)N([H])C3([H])c5c([H])c([H])c([H])c([H])c5C([H])([H])C([H])([H])C3([H])[H])C4([H])[H])C([H])([H])[H])C2([H])[H])c([H])c1[H]

$$$$
41:0:0
     RDKit          3D

 95104  0  0  1  0  0  0  0  0999 V2000
  -28.7240  -23.1370   21.1060 C   0  0  0  0  0  3  0  0  0  0  0  0
  -28.2870  -24.3250   20.6070 C   0  0  0  0  0  0  0  0  0  0  0  0
  -26.9740  -22.9490   18.9000 C   0  0  0  0  0  0  0  0  0  0  0  0
  -26.7280  -22.7260   17.5990 C   0  0  0  0  0  2  0  0  0  0  0  0
  -27.3100  -24.3300   19.4360 C   0  0  0  0  0  2  0  0  0  0  0  0
  -26.9950  -21.8380   19.9260 C   0  0  0  0  0  2  0  0  0  0  0  0
  -28.2370  -21.8820   20.7000 N   0  0  0  0  0  0  0  0  0  0  0  0
  -31.0120  -19.3830   20.3830 C   0  0  0  0  0  3  0  0  0  0  0  0
  -28.9540  -18.1700   20.8030 C   0  0  0  0  0  3  0  0  0  0  0  0
  -30.3280  -20.6150   20.4840 C   0  0  0  0  0  3  0  0  0  0  0  0
  -28.2710  -19.4060   20.9040 C   0  0  0  0  0  3  0  0  0  0  0  0
  -30.3370  -18.1420   20.5140 C   0  0  0  0  0  0  0  0  0  0  0  0
  -28.9380  -20.6490   20.7180 C   0  0  0  0  0  0  0  0  0  0  0  0
  -30.9810  -14.6180   19.5130 C   0  0  0  0  0  0  0  0  0  0  0  0
  -30.4690  -12.4420   18.4550 C   0  0  0  0  0  2  0  0  0  0  0  0
  -29.3780  -12.5990   17.3820 C   0  0  0  0  0  2  0  0  0  0  0  0
  -27.9850  -12.4470   18.0190 C   0  0  0  0  0  2  0  0  0  0  0  0
  -27.8090  -13.3180   19.2920 C   0  0  0  0  0  3  0  0  0  0  0  0
  -29.0160  -13.1890   20.2500 C   0  0  0  0  0  2  0  0  0  0  0  0
  -30.2360  -13.4750   19.4820 N   0  0  0  0  0  0  0  0  0  0  0  0
  -32.0180  -14.7030   18.8480 O   0  0  0  0  0  0  0  0  0  0  0  0
  -31.1300  -16.8560   20.3950 C   0  0  0  0  0  0  0  0  0  0  0  0
  -30.4670  -15.6930   20.1630 N   0  0  0  0  0  0  0  0  0  0  0  0
  -32.3630  -16.9440   20.4560 O   0  0  0  0  0  0  0  0  0  0  0  0
  -29.4910  -15.6640   20.3970 H   0  0  0  0  0  0  0  0  0  0  0  0
  -25.5910  -13.9080   20.4500 C   0  0  0  0  0  0  0  0  0  0  0  0
  -24.5700  -13.1310   20.9250 C   0  0  0  0  0  0  0  0  0  0  0  0
  -24.9640  -11.7760   20.6960 C   0  0  0  0  0  0  0  0  0  0  0  0
  -26.5470  -13.0270   19.9670 N   0  0  0  0  0  0  0  0  0  0  0  0
  -26.1830  -11.7350   20.1720 N   0  0  0  0  0  0  0  0  0  0  0  0
  -24.2260  -10.5230   20.8960 C   0  0  0  0  0  0  0  0  0  0  0  0
  -24.7020   -9.5150   21.7640 C   0  0  0  0  0  3  0  0  0  0  0  0
  -23.9650   -8.3250   21.9530 C   0  0  0  0  0  3  0  0  0  0  0  0
  -22.7380   -8.1350   21.2750 C   0  0  0  0  0  0  0  0  0  0  0  0
  -22.2800   -9.1310   20.3940 C   0  0  0  0  0  3  0  0  0  0  0  0
  -23.0180  -10.3120   20.2020 C   0  0  0  0  0  3  0  0  0  0  0  0
  -21.9670   -7.0030   21.3760 O   0  0  0  0  0  0  0  0  0  0  0  0
  -21.8870   -6.2880   22.5450 C   0  0  0  0  0  0  0  0  0  0  0  0
  -21.4500   -6.8790   23.7500 C   0  0  0  0  0  3  0  0  0  0  0  0
  -21.3180   -6.0920   24.9120 C   0  0  0  0  0  3  0  0  0  0  0  0
  -21.6130   -4.7150   24.8680 C   0  0  0  0  0  0  0  0  0  0  0  0
  -22.0420   -4.1250   23.6670 C   0  0  0  0  0  3  0  0  0  0  0  0
  -22.1760   -4.9090   22.5080 C   0  0  0  0  0  0  0  0  0  0  0  0
  -22.5710   -4.3300   21.3480 F   0  0  0  0  0  0  0  0  0  0  0  0
  -21.4790   -3.9570   25.9810 F   0  0  0  0  0  0  0  0  0  0  0  0
  -23.2590  -13.6170   21.4700 C   0  0  0  0  0  0  0  0  0  0  0  0
  -22.6640  -12.8700   22.3930 N   0  0  0  0  0  0  0  0  0  0  0  0
  -22.7780  -14.6920   21.1140 O   0  0  0  0  0  0  0  0  0  0  0  0
  -23.0660  -11.9960   22.7000 H   0  0  0  0  0  0  0  0  0  0  0  0
  -21.7890  -13.1750   22.7970 H   0  0  0  0  0  0  0  0  0  0  0  0
  -25.7800  -15.2840   20.3680 N   0  0  0  0  0  0  0  0  0  0  0  0
  -25.0570  -15.9390   20.6460 H   0  0  0  0  0  0  0  0  0  0  0  0
  -26.5690  -15.7320   19.9200 H   0  0  0  0  0  0  0  0  0  0  0  0
  -28.6570  -25.7010   21.2350 C   0  0  0  0  0  2  0  0  0  0  0  0
  -28.7090  -26.8660   20.3640 O   0  0  0  0  0  0  0  0  0  0  0  0
  -24.6400  -31.9500   23.3800 C   0  0  0  0  0  0  0  0  0  0  0  0
  -27.5660  -27.6460   20.3310 C   0  0  0  0  0  0  0  0  0  0  0  0
  -23.5650  -30.5400   21.6600 C   0  0  0  0  0  3  0  0  0  0  0  0
  -25.1370  -29.1060   20.2640 C   0  0  0  0  0  0  0  0  0  0  0  0
  -26.0880  -30.9890   21.5910 C   0  0  0  0  0  2  0  0  0  0  0  0
  -26.2520  -29.6350   20.9290 C   0  0  0  0  0  0  0  0  0  0  0  0
  -27.4690  -28.9070   20.9780 C   0  0  0  0  0  3  0  0  0  0  0  0
  -26.4510  -27.1890   19.6010 C   0  0  0  0  0  3  0  0  0  0  0  0
  -25.2330  -27.8800   19.5970 C   0  0  0  0  0  3  0  0  0  0  0  0
  -23.8620  -29.9150   20.2740 C   0  0  0  0  0  2  0  0  0  0  0  0
  -24.7800  -31.1750   22.2680 N   0  0  0  0  0  0  0  0  0  0  0  0
  -23.5250  -32.1650   23.8770 O   0  0  0  0  0  0  0  0  0  0  0  0
  -22.9190  -29.4640   22.5660 C   0  0  0  0  0  0  0  0  0  0  0  0
  -21.6150  -29.2130   22.3620 N   0  0  0  0  0  0  0  0  0  0  0  0
  -23.5890  -28.8630   23.4090 O   0  0  0  0  0  0  0  0  0  0  0  0
  -21.1340  -29.7550   21.6580 H   0  0  0  0  0  0  0  0  0  0  0  0
  -18.2810  -27.8480   22.6710 C   0  0  0  0  0  0  0  0  0  0  0  0
  -20.8080  -28.2200   23.0730 C   0  0  0  0  0  3  0  0  0  0  0  0
  -21.0070  -26.8080   22.4760 C   0  0  0  0  0  2  0  0  0  0  0  0
  -19.9720  -26.4540   21.4030 C   0  0  0  0  0  2  0  0  0  0  0  0
  -18.5560  -26.5220   21.9810 C   0  0  0  0  0  2  0  0  0  0  0  0
  -19.3400  -28.6530   23.1680 C   0  0  0  0  0  0  0  0  0  0  0  0
  -19.0320  -29.8940   23.7690 C   0  0  0  0  0  3  0  0  0  0  0  0
  -17.6980  -30.3290   23.8790 C   0  0  0  0  0  3  0  0  0  0  0  0
  -16.6530  -29.5200   23.3980 C   0  0  0  0  0  3  0  0  0  0  0  0
  -16.9460  -28.2820   22.8010 C   0  0  0  0  0  3  0  0  0  0  0  0
  -25.8720  -32.6200   24.0650 C   0  0  0  0  0  3  0  0  0  0  0  0
  -25.5250  -34.0250   24.3150 N   0  0  0  0  0  0  0  0  0  0  0  0
  -25.8870  -35.0490   23.5290 C   0  0  0  0  0  0  0  0  0  0  0  0
  -26.6170  -34.9120   22.5430 O   0  0  0  0  0  0  0  0  0  0  0  0
  -24.8900  -34.2060   25.0780 H   0  0  0  0  0  0  0  0  0  0  0  0
  -24.1540  -36.7910   22.9930 C   0  0  0  0  0  1  0  0  0  0  0  0
  -25.3520  -36.4480   23.8930 C   0  0  0  0  0  3  0  0  0  0  0  0
  -27.4260  -37.4010   24.7970 C   0  0  0  0  0  1  0  0  0  0  0  0
  -26.3720  -37.5130   23.7910 N   0  0  0  0  0  0  0  0  0  0  0  0
  -25.9460  -38.4310   23.8820 H   0  0  0  0  0  0  0  0  0  0  0  0
  -26.3030  -31.9030   25.4020 C   0  0  1  0  0  0  0  0  0  0  0  0
  -25.1340  -31.6660   26.3860 C   0  0  0  0  0  1  0  0  0  0  0  0
  -26.9530  -30.5320   25.1050 C   0  0  0  0  0  1  0  0  0  0  0  0
  -27.3760  -32.7500   26.1260 C   0  0  0  0  0  1  0  0  0  0  0  0
  2  1  2  0
  2 54  1  0
  3  5  1  0
  3  6  1  0
  4  3  2  0
  5  2  1  0
  6  7  1  0
  7 13  1  0
  7  1  1  0
  8 10  2  0
  8 12  1  0
  9 11  1  0
 10 13  1  0
 12  9  2  0
 13 11  2  0
 14 23  1  0
 15 20  1  0
 16 17  1  0
 16 15  1  0
 18 17  1  0
 18 29  1  0
 18 19  1  0
 20 14  1  0
 20 19  1  0
 21 14  2  0
 22 24  2  0
 22 12  1  0
 23 22  1  0
 23 25  1  0
 26 27  2  0
 27 46  1  0
 28 31  1  0
 28 27  1  0
 29 30  1  0
 29 26  1  0
 30 28  2  0
 31 32  1  0
 32 33  2  0
 34 37  1  0
 34 33  1  0
 35 34  2  0
 36 35  1  0
 36 31  2  0
 37 38  1  0
 38 39  1  0
 39 40  2  0
 41 40  1  0
 41 45  1  0
 42 41  2  0
 43 38  2  0
 43 42  1  0
 44 43  1  0
 46 47  1  0
 47 49  1  0
 47 50  1  0
 48 46  2  0
 51 26  1  0
 51 52  1  0
 53 51  1  0
 55 54  1  0
 56 67  2  0
 57 55  1  0
 57 62  1  0
 58 66  1  0
 58 68  1  0
 59 65  1  0
 59 61  1  0
 60 66  1  0
 61 62  2  0
 61 60  1  0
 63 57  2  0
 64 63  1  0
 64 59  2  0
 65 58  1  0
 66 56  1  0
 68 70  2  0
 69 68  1  0
 71 69  1  0
 72 81  2  0
 72 77  1  0
 73 69  1  0
 73 77  1  0
 74 73  1  0
 75 76  1  0
 75 74  1  0
 76 72  1  0
 77 78  2  0
 78 79  1  0
 80 79  2  0
 81 80  1  0
 82 56  1  0
 82 83  1  0
 82 92  1  0
 83 86  1  0
 84 88  1  0
 84 83  1  0
 85 84  2  0
 88 87  1  0
 90 91  1  0
 90 88  1  0
 90 89  1  0
 92 95  1  1
 92 93  1  0
 94 92  1  0
M  ISO  4  14 100  23 100  54 101  55 101
M  END
>  <TORSDO>  (42) 
F 18

>  <SCORE>  (42) 
-13.058

>  <name>  (42) 
41

>  <ligand_id>  (42) 
41

>  <original_smiles>  (42) 
[H]C([H])=C1C([H])([H])C(C([H])([H])Oc2c([H])c([H])c3c(c2[H])C([H])([H])N(C(=O)C([H])(N([H])C(=O)C([H])(N([H])C([H])([H])[H])C([H])([H])[H])C(C([H])([H])[H])(C([H])([H])[H])C([H])([H])[H])C([H])(C(=O)N([H])C2([H])c4c([H])c([H])c([H])c([H])c4C([H])([H])C([H])([H])C2([H])[H])C3([H])[H])=C([H])N(c2c([H])c([H])c(C(=O)N([H])C(=O)N3C([H])([H])C([H])([H])C([H])([H])C([H])(n4nc(-c5c([H])c([H])c(Oc6c([H])c([H])c(F)c([H])c6F)c([H])c5[H])c(C(=O)N([H])[H])c4N([H])[H])C3([H])[H])c([H])c2[H])C1([H])[H]

>  <smiles>  (42) 
[H]C([H])=C1C([H])([H])C(C([H])([H])Oc2c([H])c([H])c3c(c2[H])C([H])([H])N(C(=O)C([H])(N([H])C(=O)C([H])(N([H])C([H])([H])[H])C([H])([H])[H])C(C([H])([H])[H])(C([H])([H])[H])C([H])([H])[H])C([H])(C(=O)N([H])C2([H])c4c([H])c([H])c([H])c([H])c4C([H])([H])C([H])([H])C2([H])[H])C3([H])[H])=C([H])N(c2c([H])c([H])c(C(=O)N([H])C(=O)N3C([H])([H])C([H])([H])C([H])([H])C([H])(n4nc(-c5c([H])c([H])c(Oc6c([H])c([H])c(F)c([H])c6F)c([H])c5[H])c(C(=O)N([H])[H])c4N([H])[H])C3([H])[H])c([H])c2[H])C1([H])[H]

$$$$
42:0:0
     RDKit          3D

 95104  0  0  1  0  0  0  0  0999 V2000
  -28.6610  -24.0350   19.7100 C   0  0  0  0  0  0  0  0  0  0  0  0
  -28.7970  -23.5010   21.0980 C   0  0  0  0  0  0  0  0  0  0  0  0
  -28.4540  -25.3600   19.3480 C   0  0  0  0  0  0  0  0  0  0  0  0
  -28.7760  -22.8840   18.6820 C   0  0  0  0  0  2  0  0  0  0  0  0
  -29.4150  -22.0630   21.2880 C   0  0  0  0  0  2  0  0  0  0  0  0
  -28.2950  -21.4660   19.1550 C   0  0  0  0  0  2  0  0  0  0  0  0
  -28.4540  -25.7790   17.8820 C   0  0  0  0  0  1  0  0  0  0  0  0
  -28.9550  -20.9710   20.3770 N   0  0  0  0  0  0  0  0  0  0  0  0
  -28.4700  -24.1430   22.1000 O   0  0  0  0  0  0  0  0  0  0  0  0
  -29.4240  -18.4360   20.4920 C   0  0  0  0  0  3  0  0  0  0  0  0
  -31.1080  -20.0320   19.7380 C   0  0  0  0  0  3  0  0  0  0  0  0
  -31.6210  -17.6440   19.8400 C   0  0  0  0  0  3  0  0  0  0  0  0
  -29.8030  -19.8140   20.2220 C   0  0  0  0  0  0  0  0  0  0  0  0
  -30.3240  -17.3090   20.3110 C   0  0  0  0  0  0  0  0  0  0  0  0
  -32.0020  -18.9670   19.5530 C   0  0  0  0  0  0  0  0  0  0  0  0
  -33.2470  -19.2190   19.0780 F   0  0  0  0  0  0  0  0  0  0  0  0
  -30.6500  -14.7140   20.3620 C   0  0  0  0  0  0  0  0  0  0  0  0
  -30.3690  -12.4690   19.3430 C   0  0  0  0  0  2  0  0  0  0  0  0
  -29.4450  -12.5940   18.1140 C   0  0  0  0  0  2  0  0  0  0  0  0
  -27.9700  -12.4480   18.5360 C   0  0  0  0  0  2  0  0  0  0  0  0
  -27.6080  -13.3080   19.7780 C   0  0  0  0  0  3  0  0  0  0  0  0
  -28.6680  -13.2060   20.8960 C   0  0  0  0  0  2  0  0  0  0  0  0
  -29.9680  -13.5240   20.2980 N   0  0  0  0  0  0  0  0  0  0  0  0
  -31.8440  -14.7260   20.0610 O   0  0  0  0  0  0  0  0  0  0  0  0
  -29.9410  -15.8900   20.5630 N   0  0  0  0  0  0  0  0  0  0  0  0
  -28.9790  -15.7490   20.8280 H   0  0  0  0  0  0  0  0  0  0  0  0
  -25.2200  -13.8820   20.5080 C   0  0  0  0  0  0  0  0  0  0  0  0
  -24.1580  -13.1040   20.8810 C   0  0  0  0  0  0  0  0  0  0  0  0
  -24.6260  -11.7540   20.8460 C   0  0  0  0  0  0  0  0  0  0  0  0
  -26.2660  -13.0080   20.2680 N   0  0  0  0  0  0  0  0  0  0  0  0
  -25.9160  -11.7220   20.5340 N   0  0  0  0  0  0  0  0  0  0  0  0
  -23.9030  -10.4890   21.0350 C   0  0  0  0  0  0  0  0  0  0  0  0
  -24.3310   -9.5250   21.9730 C   0  0  0  0  0  3  0  0  0  0  0  0
  -23.6090   -8.3270   22.1500 C   0  0  0  0  0  3  0  0  0  0  0  0
  -22.4430   -8.0820   21.3880 C   0  0  0  0  0  0  0  0  0  0  0  0
  -22.0320   -9.0340   20.4390 C   0  0  0  0  0  3  0  0  0  0  0  0
  -22.7550  -10.2250   20.2610 C   0  0  0  0  0  3  0  0  0  0  0  0
  -21.6900   -6.9350   21.4740 O   0  0  0  0  0  0  0  0  0  0  0  0
  -21.6300   -6.1990   22.6290 C   0  0  0  0  0  0  0  0  0  0  0  0
  -21.1700   -6.7540   23.8430 C   0  0  0  0  0  3  0  0  0  0  0  0
  -21.0580   -5.9440   24.9910 C   0  0  0  0  0  3  0  0  0  0  0  0
  -21.3940   -4.5780   24.9240 C   0  0  0  0  0  0  0  0  0  0  0  0
  -21.8450   -4.0220   23.7140 C   0  0  0  0  0  3  0  0  0  0  0  0
  -21.9580   -4.8300   22.5690 C   0  0  0  0  0  0  0  0  0  0  0  0
  -22.3730   -4.2830   21.4010 F   0  0  0  0  0  0  0  0  0  0  0  0
  -21.2800   -3.7980   26.0240 F   0  0  0  0  0  0  0  0  0  0  0  0
  -22.7590  -13.5750   21.1530 C   0  0  0  0  0  0  0  0  0  0  0  0
  -22.0310  -12.8720   22.0110 N   0  0  0  0  0  0  0  0  0  0  0  0
  -22.3200  -14.6030   20.6400 O   0  0  0  0  0  0  0  0  0  0  0  0
  -22.3980  -12.0400   22.4500 H   0  0  0  0  0  0  0  0  0  0  0  0
  -21.0900  -13.1690   22.2330 H   0  0  0  0  0  0  0  0  0  0  0  0
  -25.3790  -15.2530   20.3320 N   0  0  0  0  0  0  0  0  0  0  0  0
  -24.6110  -15.9070   20.4420 H   0  0  0  0  0  0  0  0  0  0  0  0
  -26.2160  -15.6860   19.9650 H   0  0  0  0  0  0  0  0  0  0  0  0
  -28.3290  -26.4860   20.1940 O   0  0  0  0  0  0  0  0  0  0  0  0
  -24.5900  -31.8860   23.2080 C   0  0  0  0  0  0  0  0  0  0  0  0
  -27.2080  -27.3360   20.1320 C   0  0  0  0  0  0  0  0  0  0  0  0
  -23.3840  -30.4830   21.5720 C   0  0  0  0  0  3  0  0  0  0  0  0
  -24.8330  -28.9370   20.1420 C   0  0  0  0  0  0  0  0  0  0  0  0
  -25.9230  -30.8090   21.3790 C   0  0  0  0  0  2  0  0  0  0  0  0
  -26.0040  -29.4320   20.7280 C   0  0  0  0  0  0  0  0  0  0  0  0
  -27.1930  -28.6420   20.7150 C   0  0  0  0  0  3  0  0  0  0  0  0
  -26.0000  -26.8820   19.5530 C   0  0  0  0  0  3  0  0  0  0  0  0
  -24.8320  -27.6660   19.5480 C   0  0  0  0  0  3  0  0  0  0  0  0
  -23.5940  -29.8040   20.1930 C   0  0  0  0  0  2  0  0  0  0  0  0
  -24.6510  -31.0780   22.1090 N   0  0  0  0  0  0  0  0  0  0  0  0
  -23.5070  -32.1590   23.7450 O   0  0  0  0  0  0  0  0  0  0  0  0
  -22.7280  -29.4650   22.5340 C   0  0  0  0  0  0  0  0  0  0  0  0
  -21.4030  -29.2830   22.4100 N   0  0  0  0  0  0  0  0  0  0  0  0
  -23.4110  -28.8420   23.3520 O   0  0  0  0  0  0  0  0  0  0  0  0
  -20.9130  -29.8350   21.7190 H   0  0  0  0  0  0  0  0  0  0  0  0
  -18.0290  -28.0750   22.9150 C   0  0  0  0  0  0  0  0  0  0  0  0
  -20.5880  -28.3430   23.1810 C   0  0  0  0  0  3  0  0  0  0  0  0
  -20.6930  -26.9110   22.6060 C   0  0  0  0  0  2  0  0  0  0  0  0
  -19.5910  -26.5840   21.5950 C   0  0  0  0  0  2  0  0  0  0  0  0
  -18.2090  -26.7270   22.2390 C   0  0  0  0  0  2  0  0  0  0  0  0
  -19.1460  -28.8410   23.3420 C   0  0  0  0  0  0  0  0  0  0  0  0
  -18.9240  -30.1040   23.9340 C   0  0  0  0  0  3  0  0  0  0  0  0
  -17.6200  -30.6020   24.1000 C   0  0  0  0  0  3  0  0  0  0  0  0
  -16.5170  -29.8340   23.6880 C   0  0  0  0  0  3  0  0  0  0  0  0
  -16.7230  -28.5710   23.1030 C   0  0  0  0  0  3  0  0  0  0  0  0
  -25.8720  -32.5210   23.8270 C   0  0  0  0  0  3  0  0  0  0  0  0
  -25.5580  -33.9170   24.1610 N   0  0  0  0  0  0  0  0  0  0  0  0
  -25.8880  -34.9740   23.4060 C   0  0  0  0  0  0  0  0  0  0  0  0
  -26.5570  -34.8760   22.3730 O   0  0  0  0  0  0  0  0  0  0  0  0
  -24.9630  -34.0680   24.9610 H   0  0  0  0  0  0  0  0  0  0  0  0
  -24.1620  -36.7700   23.0500 C   0  0  0  0  0  1  0  0  0  0  0  0
  -25.3970  -36.3600   23.8690 C   0  0  0  0  0  3  0  0  0  0  0  0
  -27.5240  -37.2410   24.7240 C   0  0  0  0  0  1  0  0  0  0  0  0
  -26.4320  -37.4130   23.7700 N   0  0  0  0  0  0  0  0  0  0  0  0
  -26.0240  -38.3340   23.9180 H   0  0  0  0  0  0  0  0  0  0  0  0
  -26.3930  -31.7520   25.1030 C   0  0  1  0  0  0  0  0  0  0  0  0
  -25.3020  -31.5120   26.1730 C   0  0  0  0  0  1  0  0  0  0  0  0
  -26.9790  -30.3760   24.7100 C   0  0  0  0  0  1  0  0  0  0  0  0
  -27.5410  -32.5510   25.7650 C   0  0  0  0  0  1  0  0  0  0  0  0
  1  2  1  0
  2  5  1  0
  2  9  2  0
  3  1  2  0
  3 55  1  0
  4  6  1  0
  4  1  1  0
  6  8  1  0
  7  3  1  0
  8  5  1  0
 11 13  1  0
 12 14  2  0
 13  8  1  0
 13 10  2  0
 14 10  1  0
 14 25  1  0
 15 11  2  0
 15 12  1  0
 16 15  1  0
 17 25  1  0
 18 23  1  0
 19 20  1  0
 19 18  1  0
 21 20  1  0
 21 30  1  0
 21 22  1  0
 23 17  1  0
 23 22  1  0
 24 17  2  0
 25 26  1  0
 27 28  2  0
 28 47  1  0
 29 28  1  0
 29 32  1  0
 30 27  1  0
 30 31  1  0
 31 29  2  0
 32 33  1  0
 33 34  2  0
 35 38  1  0
 35 34  1  0
 36 35  2  0
 37 36  1  0
 37 32  2  0
 38 39  1  0
 39 40  1  0
 40 41  2  0
 42 41  1  0
 42 46  1  0
 43 42  2  0
 44 39  2  0
 44 43  1  0
 45 44  1  0
 47 48  1  0
 48 51  1  0
 48 50  1  0
 49 47  2  0
 52 53  1  0
 52 27  1  0
 54 52  1  0
 56 67  2  0
 57 55  1  0
 57 62  1  0
 58 66  1  0
 58 68  1  0
 59 65  1  0
 59 61  1  0
 60 66  1  0
 61 60  1  0
 62 61  2  0
 63 57  2  0
 64 63  1  0
 64 59  2  0
 65 58  1  0
 66 56  1  0
 68 70  2  0
 69 68  1  0
 71 69  1  0
 72 81  2  0
 72 77  1  0
 73 69  1  0
 73 77  1  0
 74 73  1  0
 75 76  1  0
 75 74  1  0
 76 72  1  0
 77 78  2  0
 78 79  1  0
 80 79  2  0
 81 80  1  0
 82 56  1  0
 82 83  1  0
 82 92  1  0
 83 86  1  0
 84 88  1  0
 84 83  1  0
 85 84  2  0
 88 87  1  0
 90 88  1  0
 90 91  1  0
 90 89  1  0
 92 95  1  1
 92 93  1  0
 94 92  1  0
M  ISO  4   3 101  17 100  25 100  55 101
M  END
>  <TORSDO>  (43) 
F 17

>  <SCORE>  (43) 
-15.423

>  <name>  (43) 
42

>  <ligand_id>  (43) 
42

>  <original_smiles>  (43) 
[H]c1c([H])c([H])c2c(c1[H])C([H])([H])C([H])([H])C([H])([H])C2([H])N([H])C(=O)C1([H])N(C(=O)C([H])(N([H])C(=O)C([H])(N([H])C([H])([H])[H])C([H])([H])[H])C(C([H])([H])[H])(C([H])([H])[H])C([H])([H])[H])C([H])([H])c2c([H])c(OC(=C3C(=O)C([H])([H])N(c4c([H])c(F)c([H])c(N([H])C(=O)N5C([H])([H])C([H])([H])C([H])([H])C([H])(n6nc(-c7c([H])c([H])c(Oc8c([H])c([H])c(F)c([H])c8F)c([H])c7[H])c(C(=O)N([H])[H])c6N([H])[H])C5([H])[H])c4[H])C([H])([H])C3([H])[H])C([H])([H])[H])c([H])c([H])c2C1([H])[H]

>  <smiles>  (43) 
[H]c1c([H])c([H])c2c(c1[H])C([H])([H])C([H])([H])C([H])([H])C2([H])N([H])C(=O)C1([H])N(C(=O)C([H])(N([H])C(=O)C([H])(N([H])C([H])([H])[H])C([H])([H])[H])C(C([H])([H])[H])(C([H])([H])[H])C([H])([H])[H])C([H])([H])c2c([H])c(OC(=C3C(=O)C([H])([H])N(c4c([H])c(F)c([H])c(N([H])C(=O)N5C([H])([H])C([H])([H])C([H])([H])C([H])(n6nc(-c7c([H])c([H])c(Oc8c([H])c([H])c(F)c([H])c8F)c([H])c7[H])c(C(=O)N([H])[H])c6N([H])[H])C5([H])[H])c4[H])C([H])([H])C3([H])[H])C([H])([H])[H])c([H])c([H])c2C1([H])[H]

$$$$
43:0:0
     RDKit          3D

 92101  0  0  1  0  0  0  0  0999 V2000
  -27.9480  -23.5400   19.4660 C   0  0  0  0  0  0  0  0  0  0  0  0
  -29.4600  -23.7180   20.8500 C   0  0  0  0  0  2  0  0  0  0  0  0
  -28.1910  -24.6800   20.6000 C   0  0  2  0  0  0  0  0  0  0  0  0
  -27.1190  -24.6020   21.6940 C   0  0  0  0  0  1  0  0  0  0  0  0
  -28.7710  -22.5900   20.1620 N   0  0  0  0  0  0  0  0  0  0  0  0
  -27.3280  -23.4450   18.4260 O   0  0  0  0  0  0  0  0  0  0  0  0
  -28.8660  -18.6460   19.3070 C   0  0  0  0  0  3  0  0  0  0  0  0
  -30.2910  -18.9430   21.1160 C   0  0  0  0  0  3  0  0  0  0  0  0
  -28.6240  -20.0850   19.2680 C   0  0  0  0  0  3  0  0  0  0  0  0
  -30.0450  -20.3870   21.0580 C   0  0  0  0  0  3  0  0  0  0  0  0
  -29.7020  -17.9530   20.2500 C   0  0  0  0  0  0  0  0  0  0  0  0
  -29.1560  -21.0900   20.1580 C   0  0  0  0  0  0  0  0  0  0  0  0
  -29.5780  -16.3570   20.5540 C   0  0  0  0  0  0  0  0  0  0  0  0
  -28.5590  -16.1550   21.2750 N   0  0  0  0  0  0  0  0  0  0  0  0
  -28.1100  -17.0350   21.4990 H   0  0  0  0  0  0  0  0  0  0  0  0
  -30.5000  -15.0220   20.0840 C   0  0  0  0  0  0  0  0  0  0  0  0
  -30.4040  -12.6850   19.0720 C   0  0  0  0  0  2  0  0  0  0  0  0
  -29.4010  -12.6780   17.8890 C   0  0  0  0  0  2  0  0  0  0  0  0
  -27.9520  -12.4560   18.3760 C   0  0  0  0  0  2  0  0  0  0  0  0
  -27.6150  -13.3210   19.6180 C   0  0  0  0  0  3  0  0  0  0  0  0
  -28.7280  -13.2070   20.6800 C   0  0  0  0  0  2  0  0  0  0  0  0
  -29.9630  -13.7200   20.0570 N   0  0  0  0  0  0  0  0  0  0  0  0
  -31.6570  -15.1470   19.6580 O   0  0  0  0  0  0  0  0  0  0  0  0
  -25.2700  -13.9040   20.4650 C   0  0  0  0  0  0  0  0  0  0  0  0
  -24.2120  -13.1290   20.8550 C   0  0  0  0  0  0  0  0  0  0  0  0
  -24.6660  -11.7770   20.7760 C   0  0  0  0  0  0  0  0  0  0  0  0
  -26.2940  -13.0230   20.1620 N   0  0  0  0  0  0  0  0  0  0  0  0
  -25.9420  -11.7360   20.4100 N   0  0  0  0  0  0  0  0  0  0  0  0
  -23.9410  -10.5160   20.9760 C   0  0  0  0  0  0  0  0  0  0  0  0
  -24.3920   -9.5400   21.8930 C   0  0  0  0  0  3  0  0  0  0  0  0
  -23.6680   -8.3430   22.0790 C   0  0  0  0  0  3  0  0  0  0  0  0
  -22.4760   -8.1140   21.3490 C   0  0  0  0  0  0  0  0  0  0  0  0
  -22.0430   -9.0790   20.4220 C   0  0  0  0  0  3  0  0  0  0  0  0
  -22.7690  -10.2670   20.2350 C   0  0  0  0  0  3  0  0  0  0  0  0
  -21.7200   -6.9710   21.4460 O   0  0  0  0  0  0  0  0  0  0  0  0
  -21.6710   -6.2360   22.6040 C   0  0  0  0  0  0  0  0  0  0  0  0
  -21.2480   -6.8000   23.8270 C   0  0  0  0  0  3  0  0  0  0  0  0
  -21.1480   -5.9920   24.9760 C   0  0  0  0  0  3  0  0  0  0  0  0
  -21.4600   -4.6220   24.9040 C   0  0  0  0  0  0  0  0  0  0  0  0
  -21.8760   -4.0570   23.6850 C   0  0  0  0  0  3  0  0  0  0  0  0
  -21.9790   -4.8620   22.5380 C   0  0  0  0  0  0  0  0  0  0  0  0
  -22.3610   -4.3100   21.3610 F   0  0  0  0  0  0  0  0  0  0  0  0
  -21.3560   -3.8420   26.0060 F   0  0  0  0  0  0  0  0  0  0  0  0
  -22.8320  -13.6090   21.1990 C   0  0  0  0  0  0  0  0  0  0  0  0
  -22.1400  -12.9010   22.0850 N   0  0  0  0  0  0  0  0  0  0  0  0
  -22.3780  -14.6470   20.7190 O   0  0  0  0  0  0  0  0  0  0  0  0
  -22.5220  -12.0600   22.4930 H   0  0  0  0  0  0  0  0  0  0  0  0
  -21.2170  -13.2040   22.3600 H   0  0  0  0  0  0  0  0  0  0  0  0
  -25.4480  -15.2770   20.3290 N   0  0  0  0  0  0  0  0  0  0  0  0
  -24.7470  -15.9370   20.6440 H   0  0  0  0  0  0  0  0  0  0  0  0
  -26.3830  -15.6710   20.2960 H   0  0  0  0  0  0  0  0  0  0  0  0
  -28.3540  -26.1970   20.2010 O   0  0  0  0  0  0  0  0  0  0  0  0
  -24.6710  -31.8560   23.2000 C   0  0  0  0  0  0  0  0  0  0  0  0
  -27.2760  -27.1600   20.1620 C   0  0  0  0  0  0  0  0  0  0  0  0
  -23.4740  -30.4510   21.5640 C   0  0  0  0  0  3  0  0  0  0  0  0
  -24.9290  -28.8830   20.1340 C   0  0  0  0  0  0  0  0  0  0  0  0
  -26.0230  -30.7360   21.3880 C   0  0  0  0  0  2  0  0  0  0  0  0
  -26.1050  -29.3420   20.7370 C   0  0  0  0  0  0  0  0  0  0  0  0
  -27.2800  -28.4980   20.7310 C   0  0  0  0  0  3  0  0  0  0  0  0
  -26.0750  -26.8030   19.5130 C   0  0  0  0  0  3  0  0  0  0  0  0
  -24.9260  -27.6270   19.5050 C   0  0  0  0  0  3  0  0  0  0  0  0
  -23.6950  -29.7710   20.1850 C   0  0  0  0  0  2  0  0  0  0  0  0
  -24.7420  -31.0370   22.1060 N   0  0  0  0  0  0  0  0  0  0  0  0
  -23.5850  -32.1340   23.7320 O   0  0  0  0  0  0  0  0  0  0  0  0
  -22.8050  -29.4410   22.5290 C   0  0  0  0  0  0  0  0  0  0  0  0
  -21.4750  -29.2730   22.4160 N   0  0  0  0  0  0  0  0  0  0  0  0
  -23.4850  -28.8120   23.3430 O   0  0  0  0  0  0  0  0  0  0  0  0
  -20.9830  -29.8330   21.7340 H   0  0  0  0  0  0  0  0  0  0  0  0
  -18.0990  -28.0670   22.9430 C   0  0  0  0  0  0  0  0  0  0  0  0
  -20.6600  -28.3320   23.1910 C   0  0  0  0  0  3  0  0  0  0  0  0
  -20.7600  -26.9020   22.6110 C   0  0  0  0  0  2  0  0  0  0  0  0
  -19.6490  -26.5810   21.6050 C   0  0  0  0  0  2  0  0  0  0  0  0
  -18.2720  -26.7210   22.2600 C   0  0  0  0  0  2  0  0  0  0  0  0
  -19.2210  -28.8310   23.3660 C   0  0  0  0  0  0  0  0  0  0  0  0
  -19.0020  -30.0910   23.9650 C   0  0  0  0  0  3  0  0  0  0  0  0
  -17.6980  -30.5850   24.1480 C   0  0  0  0  0  3  0  0  0  0  0  0
  -16.5920  -29.8190   23.7400 C   0  0  0  0  0  3  0  0  0  0  0  0
  -16.7930  -28.5630   23.1430 C   0  0  0  0  0  3  0  0  0  0  0  0
  -25.9470  -32.4990   23.8240 C   0  0  0  0  0  3  0  0  0  0  0  0
  -25.6250  -33.8930   24.1710 N   0  0  0  0  0  0  0  0  0  0  0  0
  -25.9340  -34.9590   23.4210 C   0  0  0  0  0  0  0  0  0  0  0  0
  -26.5880  -34.8750   22.3790 O   0  0  0  0  0  0  0  0  0  0  0  0
  -25.0480  -34.0330   24.9890 H   0  0  0  0  0  0  0  0  0  0  0  0
  -24.1770  -36.7370   23.1210 C   0  0  0  0  0  1  0  0  0  0  0  0
  -25.4400  -36.3380   23.9030 C   0  0  0  0  0  3  0  0  0  0  0  0
  -27.5810  -37.2430   24.6980 C   0  0  0  0  0  1  0  0  0  0  0  0
  -26.4570  -37.4060   23.7780 N   0  0  0  0  0  0  0  0  0  0  0  0
  -26.0430  -38.3200   23.9460 H   0  0  0  0  0  0  0  0  0  0  0  0
  -26.4740  -31.7250   25.0950 C   0  0  1  0  0  0  0  0  0  0  0  0
  -25.3870  -31.4800   26.1670 C   0  0  0  0  0  1  0  0  0  0  0  0
  -27.0610  -30.3510   24.6980 C   0  0  0  0  0  1  0  0  0  0  0  0
  -27.6230  -32.5220   25.7550 C   0  0  0  0  0  1  0  0  0  0  0  0
  1  5  1  0
  1  3  1  0
  3  2  1  0
  3  4  1  1
  5  2  1  0
  6  1  2  0
  7 11  1  0
  9  7  2  0
  9 12  1  0
 10  8  1  0
 11 13  1  0
 11  8  2  0
 12  5  1  0
 12 10  2  0
 13 14  2  0
 14 15  1  0
 16 13  1  0
 17 22  1  0
 18 19  1  0
 18 17  1  0
 20 19  1  0
 20 27  1  0
 20 21  1  0
 22 16  1  0
 22 21  1  0
 23 16  2  0
 24 25  2  0
 25 44  1  0
 26 25  1  0
 26 29  1  0
 27 28  1  0
 27 24  1  0
 28 26  2  0
 29 30  1  0
 30 31  2  0
 32 35  1  0
 32 31  1  0
 33 32  2  0
 34 33  1  0
 34 29  2  0
 35 36  1  0
 36 37  1  0
 37 38  2  0
 39 38  1  0
 39 43  1  0
 40 39  2  0
 41 36  2  0
 41 40  1  0
 42 41  1  0
 44 45  1  0
 45 48  1  0
 45 47  1  0
 46 44  2  0
 49 24  1  0
 49 50  1  0
 51 49  1  0
 52  3  1  0
 53 64  2  0
 54 52  1  0
 54 59  1  0
 55 63  1  0
 55 65  1  0
 56 62  1  0
 56 58  1  0
 57 63  1  0
 58 57  1  0
 59 58  2  0
 60 54  2  0
 61 60  1  0
 61 56  2  0
 62 55  1  0
 63 53  1  0
 65 67  2  0
 66 65  1  0
 68 66  1  0
 69 78  2  0
 69 74  1  0
 70 66  1  0
 70 74  1  0
 71 70  1  0
 72 73  1  0
 72 71  1  0
 73 69  1  0
 74 75  2  0
 75 76  1  0
 77 76  2  0
 78 77  1  0
 79 53  1  0
 79 80  1  0
 79 89  1  0
 80 83  1  0
 81 85  1  0
 81 80  1  0
 82 81  2  0
 85 84  1  0
 87 85  1  0
 87 88  1  0
 87 86  1  0
 89 92  1  1
 89 90  1  0
 91 89  1  0
M  ISO  4   3 101  13 100  16 100  52 101
M  END
>  <TORSDO>  (44) 
F 18

>  <SCORE>  (44) 
-14.696

>  <name>  (44) 
43

>  <ligand_id>  (44) 
43

>  <original_smiles>  (44) 
[H]N=C(C(=O)N1C([H])([H])C([H])([H])C([H])([H])C([H])(n2nc(-c3c([H])c([H])c(Oc4c([H])c([H])c(F)c([H])c4F)c([H])c3[H])c(C(=O)N([H])[H])c2N([H])[H])C1([H])[H])c1c([H])c([H])c(N2C(=O)C(Oc3c([H])c([H])c4c(c3[H])C([H])([H])N(C(=O)C([H])(N([H])C(=O)C([H])(N([H])C([H])([H])[H])C([H])([H])[H])C(C([H])([H])[H])(C([H])([H])[H])C([H])([H])[H])C([H])(C(=O)N([H])C3([H])c5c([H])c([H])c([H])c([H])c5C([H])([H])C([H])([H])C3([H])[H])C4([H])[H])(C([H])([H])[H])C2([H])[H])c([H])c1[H]

>  <smiles>  (44) 
[H]N=C(C(=O)N1C([H])([H])C([H])([H])C([H])([H])C([H])(n2nc(-c3c([H])c([H])c(Oc4c([H])c([H])c(F)c([H])c4F)c([H])c3[H])c(C(=O)N([H])[H])c2N([H])[H])C1([H])[H])c1c([H])c([H])c(N2C(=O)C(Oc3c([H])c([H])c4c(c3[H])C([H])([H])N(C(=O)C([H])(N([H])C(=O)C([H])(N([H])C([H])([H])[H])C([H])([H])[H])C(C([H])([H])[H])(C([H])([H])[H])C([H])([H])[H])C([H])(C(=O)N([H])C3([H])c5c([H])c([H])c([H])c([H])c5C([H])([H])C([H])([H])C3([H])[H])C4([H])[H])(C([H])([H])[H])C2([H])[H])c([H])c1[H]

$$$$
44:0:0
     RDKit          3D

 96104  0  0  1  0  0  0  0  0999 V2000
  -29.2540  -21.7880   20.6690 C   0  0  0  0  0  0  0  0  0  0  0  0
  -28.5630  -24.0040   19.5560 C   0  0  0  0  0  3  0  0  0  0  0  0
  -28.4670  -23.9270   17.0030 C   0  0  0  0  0  1  0  0  0  0  0  0
  -29.5900  -22.2990   21.8610 N   0  0  0  0  0  4  0  0  0  0  0  0
  -28.8320  -22.6270   19.6540 N   0  0  0  0  0  0  0  0  0  0  0  0
  -28.4040  -24.5550   18.3320 N   0  0  0  0  0  0  0  0  0  0  0  0
  -29.8460  -21.6570   22.5950 H   0  0  0  0  0  0  0  0  0  0  0  0
  -29.6380  -23.2840   22.0520 H   0  0  0  0  0  0  0  0  0  0  0  0
  -28.7430  -22.1070   18.8010 H   0  0  0  0  0  0  0  0  0  0  0  0
  -28.2860  -25.5610   18.3330 H   0  0  0  0  0  0  0  0  0  0  0  0
  -30.6420  -19.5790   20.8360 C   0  0  0  0  0  3  0  0  0  0  0  0
  -28.3430  -19.3880   20.2050 C   0  0  0  0  0  3  0  0  0  0  0  0
  -30.7820  -18.1440   20.8210 C   0  0  0  0  0  3  0  0  0  0  0  0
  -28.4740  -17.9610   20.2230 C   0  0  0  0  0  3  0  0  0  0  0  0
  -29.4180  -20.2590   20.5350 C   0  0  0  0  0  0  0  0  0  0  0  0
  -29.6880  -17.2780   20.5340 C   0  0  0  0  0  0  0  0  0  0  0  0
  -30.5460  -14.7680   20.3690 C   0  0  0  0  0  0  0  0  0  0  0  0
  -30.3980  -12.5110   19.3030 C   0  0  0  0  0  2  0  0  0  0  0  0
  -29.4520  -12.6170   18.0840 C   0  0  0  0  0  2  0  0  0  0  0  0
  -27.9780  -12.4400   18.5040 C   0  0  0  0  0  2  0  0  0  0  0  0
  -27.6080  -13.2980   19.7430 C   0  0  0  0  0  3  0  0  0  0  0  0
  -28.6620  -13.1470   20.8620 C   0  0  0  0  0  2  0  0  0  0  0  0
  -29.9670  -13.5220   20.2910 N   0  0  0  0  0  0  0  0  0  0  0  0
  -31.7230  -14.9390   20.0310 O   0  0  0  0  0  0  0  0  0  0  0  0
  -29.6710  -15.8020   20.6400 N   0  0  0  0  0  0  0  0  0  0  0  0
  -28.7540  -15.4350   20.8370 H   0  0  0  0  0  0  0  0  0  0  0  0
  -25.2110  -13.8970   20.4460 C   0  0  0  0  0  0  0  0  0  0  0  0
  -24.1450  -13.1260   20.8200 C   0  0  0  0  0  0  0  0  0  0  0  0
  -24.6080  -11.7760   20.7990 C   0  0  0  0  0  0  0  0  0  0  0  0
  -26.2580  -13.0160   20.2230 N   0  0  0  0  0  0  0  0  0  0  0  0
  -25.9010  -11.7360   20.4970 N   0  0  0  0  0  0  0  0  0  0  0  0
  -23.8820  -10.5140   20.9900 C   0  0  0  0  0  0  0  0  0  0  0  0
  -24.3050   -9.5560   21.9370 C   0  0  0  0  0  3  0  0  0  0  0  0
  -23.5790   -8.3580   22.1150 C   0  0  0  0  0  3  0  0  0  0  0  0
  -22.4160   -8.1120   21.3480 C   0  0  0  0  0  0  0  0  0  0  0  0
  -22.0130   -9.0600   20.3910 C   0  0  0  0  0  3  0  0  0  0  0  0
  -22.7400  -10.2490   20.2100 C   0  0  0  0  0  3  0  0  0  0  0  0
  -21.6620   -6.9670   21.4350 O   0  0  0  0  0  0  0  0  0  0  0  0
  -21.5970   -6.2360   22.5940 C   0  0  0  0  0  0  0  0  0  0  0  0
  -21.1360   -6.7980   23.8060 C   0  0  0  0  0  3  0  0  0  0  0  0
  -21.0190   -5.9920   24.9560 C   0  0  0  0  0  3  0  0  0  0  0  0
  -21.3540   -4.6260   24.8960 C   0  0  0  0  0  0  0  0  0  0  0  0
  -21.8080   -4.0640   23.6900 C   0  0  0  0  0  3  0  0  0  0  0  0
  -21.9270   -4.8660   22.5420 C   0  0  0  0  0  0  0  0  0  0  0  0
  -22.3450   -4.3150   21.3770 F   0  0  0  0  0  0  0  0  0  0  0  0
  -21.2340   -3.8500   25.9990 F   0  0  0  0  0  0  0  0  0  0  0  0
  -22.7450  -13.6050   21.0780 C   0  0  0  0  0  0  0  0  0  0  0  0
  -22.0090  -12.9110   21.9390 N   0  0  0  0  0  0  0  0  0  0  0  0
  -22.3130  -14.6290   20.5520 O   0  0  0  0  0  0  0  0  0  0  0  0
  -22.3700  -12.0830   22.3890 H   0  0  0  0  0  0  0  0  0  0  0  0
  -21.0680  -13.2140   22.1530 H   0  0  0  0  0  0  0  0  0  0  0  0
  -25.3710  -15.2660   20.2470 N   0  0  0  0  0  0  0  0  0  0  0  0
  -24.5670  -15.8830   20.2780 H   0  0  0  0  0  0  0  0  0  0  0  0
  -26.1470  -15.6570   19.7320 H   0  0  0  0  0  0  0  0  0  0  0  0
  -28.3650  -25.0830   20.6660 C   0  0  0  0  0  2  0  0  0  0  0  0
  -28.4250  -26.5230   20.2490 O   0  0  0  0  0  0  0  0  0  0  0  0
  -24.6150  -31.9170   23.2400 C   0  0  0  0  0  0  0  0  0  0  0  0
  -27.2790  -27.3390   20.2510 C   0  0  0  0  0  0  0  0  0  0  0  0
  -23.4320  -30.5000   21.5990 C   0  0  0  0  0  3  0  0  0  0  0  0
  -24.9010  -28.9390   20.2020 C   0  0  0  0  0  0  0  0  0  0  0  0
  -25.9700  -30.8320   21.4290 C   0  0  0  0  0  2  0  0  0  0  0  0
  -26.0640  -29.4460   20.7970 C   0  0  0  0  0  0  0  0  0  0  0  0
  -27.2570  -28.6620   20.8000 C   0  0  0  0  0  3  0  0  0  0  0  0
  -26.0880  -26.8750   19.6520 C   0  0  0  0  0  3  0  0  0  0  0  0
  -24.9170  -27.6600   19.6200 C   0  0  0  0  0  3  0  0  0  0  0  0
  -23.6610  -29.8090   20.2280 C   0  0  0  0  0  2  0  0  0  0  0  0
  -24.6910  -31.1010   22.1470 N   0  0  0  0  0  0  0  0  0  0  0  0
  -23.5260  -32.1910   23.7650 O   0  0  0  0  0  0  0  0  0  0  0  0
  -22.7650  -29.4910   22.5640 C   0  0  0  0  0  0  0  0  0  0  0  0
  -21.4400  -29.3110   22.4320 N   0  0  0  0  0  0  0  0  0  0  0  0
  -23.4410  -28.8690   23.3880 O   0  0  0  0  0  0  0  0  0  0  0  0
  -20.9530  -29.8650   21.7420 H   0  0  0  0  0  0  0  0  0  0  0  0
  -18.0620  -28.1140   22.9280 C   0  0  0  0  0  0  0  0  0  0  0  0
  -20.6200  -28.3760   23.2030 C   0  0  0  0  0  3  0  0  0  0  0  0
  -20.7240  -26.9420   22.6330 C   0  0  0  0  0  2  0  0  0  0  0  0
  -19.6250  -26.6160   21.6170 C   0  0  0  0  0  2  0  0  0  0  0  0
  -18.2410  -26.7620   22.2560 C   0  0  0  0  0  2  0  0  0  0  0  0
  -19.1790  -28.8780   23.3590 C   0  0  0  0  0  0  0  0  0  0  0  0
  -18.9580  -30.1420   23.9470 C   0  0  0  0  0  3  0  0  0  0  0  0
  -17.6520  -30.6430   24.1080 C   0  0  0  0  0  3  0  0  0  0  0  0
  -16.5490  -29.8770   23.6920 C   0  0  0  0  0  3  0  0  0  0  0  0
  -16.7550  -28.6130   23.1080 C   0  0  0  0  0  3  0  0  0  0  0  0
  -25.8890  -32.5610   23.8700 C   0  0  0  0  0  3  0  0  0  0  0  0
  -25.5720  -33.9620   24.1800 N   0  0  0  0  0  0  0  0  0  0  0  0
  -25.9080  -35.0080   23.4140 C   0  0  0  0  0  0  0  0  0  0  0  0
  -26.5860  -34.8960   22.3900 O   0  0  0  0  0  0  0  0  0  0  0  0
  -24.9730  -34.1240   24.9770 H   0  0  0  0  0  0  0  0  0  0  0  0
  -24.1820  -36.7970   23.0230 C   0  0  0  0  0  1  0  0  0  0  0  0
  -25.4140  -36.4000   23.8530 C   0  0  0  0  0  3  0  0  0  0  0  0
  -27.5360  -37.2970   24.7040 C   0  0  0  0  0  1  0  0  0  0  0  0
  -26.4470  -37.4550   23.7440 N   0  0  0  0  0  0  0  0  0  0  0  0
  -26.0380  -38.3750   23.8790 H   0  0  0  0  0  0  0  0  0  0  0  0
  -26.3940  -31.8070   25.1610 C   0  0  1  0  0  0  0  0  0  0  0  0
  -25.2890  -31.5790   26.2190 C   0  0  0  0  0  1  0  0  0  0  0  0
  -26.9850  -30.4270   24.7930 C   0  0  0  0  0  1  0  0  0  0  0  0
  -27.5350  -32.6120   25.8270 C   0  0  0  0  0  1  0  0  0  0  0  0
  1  4  2  0
  2  5  1  0
  2 55  1  0
  3  6  1  0
  4  8  1  0
  4  7  1  0
  5  1  1  0
  6 10  1  0
  6  2  1  0
  9  5  1  0
 12 14  2  0
 12 15  1  0
 13 11  1  0
 14 16  1  0
 15  1  1  0
 15 11  2  0
 16 25  1  0
 16 13  2  0
 17 25  1  0
 18 23  1  0
 19 20  1  0
 19 18  1  0
 21 20  1  0
 21 30  1  0
 21 22  1  0
 23 17  1  0
 23 22  1  0
 24 17  2  0
 25 26  1  0
 27 28  2  0
 28 47  1  0
 29 28  1  0
 29 32  1  0
 30 27  1  0
 30 31  1  0
 31 29  2  0
 32 33  1  0
 33 34  2  0
 35 38  1  0
 35 34  1  0
 36 35  2  0
 37 36  1  0
 37 32  2  0
 38 39  1  0
 39 40  1  0
 40 41  2  0
 42 41  1  0
 42 46  1  0
 43 42  2  0
 44 39  2  0
 44 43  1  0
 45 44  1  0
 47 48  1  0
 48 51  1  0
 48 50  1  0
 49 47  2  0
 52 53  1  0
 52 27  1  0
 54 52  1  0
 56 58  1  0
 56 55  1  0
 57 68  2  0
 58 63  1  0
 59 67  1  0
 59 69  1  0
 60 66  1  0
 60 62  1  0
 61 67  1  0
 62 63  2  0
 62 61  1  0
 64 58  2  0
 65 64  1  0
 65 60  2  0
 66 59  1  0
 67 57  1  0
 69 71  2  0
 70 69  1  0
 72 70  1  0
 73 82  2  0
 73 78  1  0
 74 70  1  0
 74 78  1  0
 75 74  1  0
 76 77  1  0
 76 75  1  0
 77 73  1  0
 78 79  2  0
 79 80  1  0
 81 80  2  0
 82 81  1  0
 83 57  1  0
 83 84  1  0
 83 93  1  0
 84 87  1  0
 85 89  1  0
 85 84  1  0
 86 85  2  0
 89 88  1  0
 91 89  1  0
 91 92  1  0
 91 90  1  0
 93 96  1  1
 93 94  1  0
 95 93  1  0
M  ISO  4  17 100  25 100  55 101  56 101
M  END
>  <TORSDO>  (45) 
F 18

>  <SCORE>  (45) 
-14.934

>  <name>  (45) 
44

>  <ligand_id>  (45) 
44

>  <original_smiles>  (45) 
[H]c1c([H])c([H])c2c(c1[H])C([H])([H])C([H])([H])C([H])([H])C2([H])N([H])C(=O)C1([H])N(C(=O)C([H])(N([H])C(=O)C([H])(N([H])C([H])([H])[H])C([H])([H])[H])C(C([H])([H])[H])(C([H])([H])[H])C([H])([H])[H])C([H])([H])c2c([H])c(OC([H])([H])C(N([H])C(c3c([H])c([H])c(N([H])C(=O)N4C([H])([H])C([H])([H])C([H])([H])C([H])(n5nc(-c6c([H])c([H])c(Oc7c([H])c([H])c(F)c([H])c7F)c([H])c6[H])c(C(=O)N([H])[H])c5N([H])[H])C4([H])[H])c([H])c3[H])=[N+]([H])[H])=[N+]([H])C([H])([H])[H])c([H])c([H])c2C1([H])[H]

>  <smiles>  (45) 
[H]c1c([H])c([H])c2c(c1[H])C([H])([H])C([H])([H])C([H])([H])C2([H])N([H])C(=O)C1([H])N(C(=O)C([H])(N([H])C(=O)C([H])(N([H])C([H])([H])[H])C([H])([H])[H])C(C([H])([H])[H])(C([H])([H])[H])C([H])([H])[H])C([H])([H])c2c([H])c(OC([H])([H])C(N([H])C(c3c([H])c([H])c(N([H])C(=O)N4C([H])([H])C([H])([H])C([H])([H])C([H])(n5nc(-c6c([H])c([H])c(Oc7c([H])c([H])c(F)c([H])c7F)c([H])c6[H])c(C(=O)N([H])[H])c5N([H])[H])C4([H])[H])c([H])c3[H])=[N+]([H])[H])=[N+]([H])C([H])([H])[H])c([H])c([H])c2C1([H])[H]

$$$$
45:0:0
     RDKit          3D

 94103  0  0  1  0  0  0  0  0999 V2000
  -28.7590  -22.4250   19.6640 C   0  0  0  0  0  3  0  0  0  0  0  0
  -28.8780  -23.7930   19.8320 C   0  0  0  0  0  0  0  0  0  0  0  0
  -30.2000  -24.3230   20.2720 C   0  0  0  0  0  0  0  0  0  0  0  0
  -31.3240  -23.3580   20.4100 C   0  0  0  0  0  0  0  0  0  0  0  0
  -32.4390  -23.7140   21.0760 C   0  0  0  0  0  2  0  0  0  0  0  0
  -31.1700  -21.9780   19.7790 C   0  0  0  0  0  2  0  0  0  0  0  0
  -29.8000  -21.4540   19.7530 N   0  0  0  0  0  0  0  0  0  0  0  0
  -30.3730  -25.5170   20.5390 O   0  0  0  0  0  0  0  0  0  0  0  0
  -28.5670  -19.2740   20.0980 C   0  0  0  0  0  3  0  0  0  0  0  0
  -30.8780  -19.1820   19.4880 C   0  0  0  0  0  3  0  0  0  0  0  0
  -28.5610  -17.8470   20.2120 C   0  0  0  0  0  3  0  0  0  0  0  0
  -30.8740  -17.7580   19.5910 C   0  0  0  0  0  3  0  0  0  0  0  0
  -29.7380  -20.0030   19.7590 C   0  0  0  0  0  0  0  0  0  0  0  0
  -29.7130  -17.0420   19.9740 C   0  0  0  0  0  0  0  0  0  0  0  0
  -30.4490  -14.5360   19.8020 C   0  0  0  0  0  0  0  0  0  0  0  0
  -30.2120  -12.2410   18.8680 C   0  0  0  0  0  2  0  0  0  0  0  0
  -29.1540  -12.2840   17.7420 C   0  0  0  0  0  2  0  0  0  0  0  0
  -27.7320  -12.1110   18.3150 C   0  0  0  0  0  2  0  0  0  0  0  0
  -27.4660  -13.0290   19.5370 C   0  0  0  0  0  3  0  0  0  0  0  0
  -28.6260  -12.9500   20.5560 C   0  0  0  0  0  2  0  0  0  0  0  0
  -29.8670  -13.2950   19.8440 N   0  0  0  0  0  0  0  0  0  0  0  0
  -31.5700  -14.6950   19.3120 O   0  0  0  0  0  0  0  0  0  0  0  0
  -29.6350  -15.5860   20.1580 N   0  0  0  0  0  0  0  0  0  0  0  0
  -28.7550  -15.2650   20.5310 H   0  0  0  0  0  0  0  0  0  0  0  0
  -25.1960  -13.6370   20.5770 C   0  0  0  0  0  0  0  0  0  0  0  0
  -24.1540  -12.8660   21.0160 C   0  0  0  0  0  0  0  0  0  0  0  0
  -24.5610  -11.5080   20.8320 C   0  0  0  0  0  0  0  0  0  0  0  0
  -26.1740  -12.7490   20.1560 N   0  0  0  0  0  0  0  0  0  0  0  0
  -25.8050  -11.4590   20.3700 N   0  0  0  0  0  0  0  0  0  0  0  0
  -23.8180  -10.2550   21.0150 C   0  0  0  0  0  0  0  0  0  0  0  0
  -24.2920   -9.2340   21.8670 C   0  0  0  0  0  3  0  0  0  0  0  0
  -23.5510   -8.0450   22.0400 C   0  0  0  0  0  3  0  0  0  0  0  0
  -22.3210   -7.8700   21.3620 C   0  0  0  0  0  0  0  0  0  0  0  0
  -21.8650   -8.8800   20.4960 C   0  0  0  0  0  3  0  0  0  0  0  0
  -22.6060  -10.0610   20.3210 C   0  0  0  0  0  3  0  0  0  0  0  0
  -21.5480   -6.7380   21.4490 O   0  0  0  0  0  0  0  0  0  0  0  0
  -21.5810   -5.9270   22.5540 C   0  0  0  0  0  0  0  0  0  0  0  0
  -21.1480   -6.3760   23.8220 C   0  0  0  0  0  3  0  0  0  0  0  0
  -21.1340   -5.4870   24.9160 C   0  0  0  0  0  3  0  0  0  0  0  0
  -21.5430   -4.1510   24.7440 C   0  0  0  0  0  0  0  0  0  0  0  0
  -21.9710   -3.7020   23.4820 C   0  0  0  0  0  3  0  0  0  0  0  0
  -21.9860   -4.5870   22.3910 C   0  0  0  0  0  0  0  0  0  0  0  0
  -22.3780   -4.1430   21.1720 F   0  0  0  0  0  0  0  0  0  0  0  0
  -21.5230   -3.2960   25.7930 F   0  0  0  0  0  0  0  0  0  0  0  0
  -22.8160  -13.3580   21.4850 C   0  0  0  0  0  0  0  0  0  0  0  0
  -22.1740  -12.6240   22.3880 N   0  0  0  0  0  0  0  0  0  0  0  0
  -22.3500  -14.4250   21.0860 O   0  0  0  0  0  0  0  0  0  0  0  0
  -22.5640  -11.7610   22.7340 H   0  0  0  0  0  0  0  0  0  0  0  0
  -21.2800  -12.9350   22.7430 H   0  0  0  0  0  0  0  0  0  0  0  0
  -25.3870  -15.0120   20.4790 N   0  0  0  0  0  0  0  0  0  0  0  0
  -24.6560  -15.6730   20.7190 H   0  0  0  0  0  0  0  0  0  0  0  0
  -26.1760  -15.4490   20.0210 H   0  0  0  0  0  0  0  0  0  0  0  0
  -27.6940  -24.8220   19.6440 C   0  0  0  0  0  2  0  0  0  0  0  0
  -27.9360  -26.2890   19.5600 O   0  0  0  0  0  0  0  0  0  0  0  0
  -24.5070  -31.6460   22.9700 C   0  0  0  0  0  0  0  0  0  0  0  0
  -26.8230  -27.1470   19.6080 C   0  0  0  0  0  0  0  0  0  0  0  0
  -23.1600  -30.2960   21.4020 C   0  0  0  0  0  3  0  0  0  0  0  0
  -24.4760  -28.7720   19.8260 C   0  0  0  0  0  0  0  0  0  0  0  0
  -25.6790  -30.6040   21.0180 C   0  0  0  0  0  2  0  0  0  0  0  0
  -25.6940  -29.2410   20.3350 C   0  0  0  0  0  0  0  0  0  0  0  0
  -26.8700  -28.4400   20.2160 C   0  0  0  0  0  3  0  0  0  0  0  0
  -25.5790  -26.7360   19.0720 C   0  0  0  0  0  3  0  0  0  0  0  0
  -24.4190  -27.5250   19.1860 C   0  0  0  0  0  3  0  0  0  0  0  0
  -23.2550  -29.6520   19.9940 C   0  0  0  0  0  2  0  0  0  0  0  0
  -24.4720  -30.8630   21.8520 N   0  0  0  0  0  0  0  0  0  0  0  0
  -23.4750  -31.9190   23.5990 O   0  0  0  0  0  0  0  0  0  0  0  0
  -22.5700  -29.2620   22.3890 C   0  0  0  0  0  0  0  0  0  0  0  0
  -21.2510  -29.0170   22.2920 N   0  0  0  0  0  0  0  0  0  0  0  0
  -23.2950  -28.6810   23.2010 O   0  0  0  0  0  0  0  0  0  0  0  0
  -20.7220  -29.5410   21.6090 H   0  0  0  0  0  0  0  0  0  0  0  0
  -17.9690  -27.5860   22.8010 C   0  0  0  0  0  0  0  0  0  0  0  0
  -20.4950  -28.0550   23.0930 C   0  0  0  0  0  3  0  0  0  0  0  0
  -20.7160  -26.6120   22.5840 C   0  0  0  0  0  2  0  0  0  0  0  0
  -19.6600  -26.1610   21.5690 C   0  0  0  0  0  2  0  0  0  0  0  0
  -18.2600  -26.2270   22.1880 C   0  0  0  0  0  2  0  0  0  0  0  0
  -19.0180  -28.4510   23.2110 C   0  0  0  0  0  0  0  0  0  0  0  0
  -18.6940  -29.7170   23.7450 C   0  0  0  0  0  3  0  0  0  0  0  0
  -17.3520  -30.1220   23.8720 C   0  0  0  0  0  3  0  0  0  0  0  0
  -16.3160  -29.2570   23.4770 C   0  0  0  0  0  3  0  0  0  0  0  0
  -16.6260  -27.9910   22.9470 C   0  0  0  0  0  3  0  0  0  0  0  0
  -25.8430  -32.2530   23.4990 C   0  0  0  0  0  3  0  0  0  0  0  0
  -25.5560  -33.6170   23.9650 N   0  0  0  0  0  0  0  0  0  0  0  0
  -25.8920  -34.7330   23.3050 C   0  0  0  0  0  0  0  0  0  0  0  0
  -26.5460  -34.7220   22.2580 O   0  0  0  0  0  0  0  0  0  0  0  0
  -24.9720  -33.7010   24.7830 H   0  0  0  0  0  0  0  0  0  0  0  0
  -24.2100  -36.5960   23.1240 C   0  0  0  0  0  1  0  0  0  0  0  0
  -25.4300  -36.0780   23.9000 C   0  0  0  0  0  3  0  0  0  0  0  0
  -27.5580  -36.8360   24.8630 C   0  0  0  0  0  1  0  0  0  0  0  0
  -26.4870  -37.1120   23.9090 N   0  0  0  0  0  0  0  0  0  0  0  0
  -26.0960  -38.0250   24.1290 H   0  0  0  0  0  0  0  0  0  0  0  0
  -26.4990  -31.4000   24.6530 C   0  0  1  0  0  0  0  0  0  0  0  0
  -25.5260  -31.0590   25.8050 C   0  0  0  0  0  1  0  0  0  0  0  0
  -27.0600  -30.0690   24.0990 C   0  0  0  0  0  1  0  0  0  0  0  0
  -27.7000  -32.1680   25.2550 C   0  0  0  0  0  1  0  0  0  0  0  0
  1  7  1  0
  1  2  2  0
  2  3  1  0
  3  4  1  0
  3  8  2  0
  4  5  2  0
  6  4  1  0
  7 13  1  0
  7  6  1  0
  9 11  1  0
 10 12  2  0
 10 13  1  0
 12 14  1  0
 13  9  2  0
 14 23  1  0
 14 11  2  0
 15 21  1  0
 15 23  1  0
 16 21  1  0
 17 18  1  0
 17 16  1  0
 19 18  1  0
 19 28  1  0
 19 20  1  0
 21 20  1  0
 22 15  2  0
 23 24  1  0
 25 26  2  0
 26 45  1  0
 27 30  1  0
 27 26  1  0
 28 29  1  0
 28 25  1  0
 29 27  2  0
 30 31  1  0
 31 32  2  0
 33 36  1  0
 33 32  1  0
 34 33  2  0
 35 34  1  0
 35 30  2  0
 36 37  1  0
 37 38  1  0
 38 39  2  0
 40 39  1  0
 40 44  1  0
 41 40  2  0
 42 37  2  0
 42 41  1  0
 43 42  1  0
 45 46  1  0
 46 48  1  0
 46 49  1  0
 47 45  2  0
 50 25  1  0
 50 51  1  0
 52 50  1  0
 53  2  1  0
 54 56  1  0
 54 53  1  0
 55 66  2  0
 56 61  1  0
 57 65  1  0
 57 67  1  0
 58 64  1  0
 58 60  1  0
 59 65  1  0
 60 59  1  0
 61 60  2  0
 62 63  1  0
 62 56  2  0
 63 58  2  0
 64 57  1  0
 65 55  1  0
 67 69  2  0
 68 67  1  0
 70 68  1  0
 71 80  2  0
 71 76  1  0
 72 68  1  0
 72 76  1  0
 73 72  1  0
 74 75  1  0
 74 73  1  0
 75 71  1  0
 76 77  2  0
 77 78  1  0
 79 78  2  0
 80 79  1  0
 81 55  1  0
 81 82  1  0
 81 91  1  0
 82 85  1  0
 83 87  1  0
 83 82  1  0
 84 83  2  0
 87 86  1  0
 87 89  1  0
 89 90  1  0
 89 88  1  0
 91 94  1  1
 91 92  1  0
 93 91  1  0
M  ISO  4  15 100  23 100  53 101  54 101
M  END
>  <TORSDO>  (46) 
F 18

>  <SCORE>  (46) 
-12.786

>  <name>  (46) 
45

>  <ligand_id>  (46) 
45

>  <original_smiles>  (46) 
[H]C([H])=C1C(=O)C(C([H])([H])Oc2c([H])c([H])c3c(c2[H])C([H])([H])N(C(=O)C([H])(N([H])C(=O)C([H])(N([H])C([H])([H])[H])C([H])([H])[H])C(C([H])([H])[H])(C([H])([H])[H])C([H])([H])[H])C([H])(C(=O)N([H])C2([H])c4c([H])c([H])c([H])c([H])c4C([H])([H])C([H])([H])C2([H])[H])C3([H])[H])=C([H])N(c2c([H])c([H])c(N([H])C(=O)N3C([H])([H])C([H])([H])C([H])([H])C([H])(n4nc(-c5c([H])c([H])c(Oc6c([H])c([H])c(F)c([H])c6F)c([H])c5[H])c(C(=O)N([H])[H])c4N([H])[H])C3([H])[H])c([H])c2[H])C1([H])[H]

>  <smiles>  (46) 
[H]C([H])=C1C(=O)C(C([H])([H])Oc2c([H])c([H])c3c(c2[H])C([H])([H])N(C(=O)C([H])(N([H])C(=O)C([H])(N([H])C([H])([H])[H])C([H])([H])[H])C(C([H])([H])[H])(C([H])([H])[H])C([H])([H])[H])C([H])(C(=O)N([H])C2([H])c4c([H])c([H])c([H])c([H])c4C([H])([H])C([H])([H])C2([H])[H])C3([H])[H])=C([H])N(c2c([H])c([H])c(N([H])C(=O)N3C([H])([H])C([H])([H])C([H])([H])C([H])(n4nc(-c5c([H])c([H])c(Oc6c([H])c([H])c(F)c([H])c6F)c([H])c5[H])c(C(=O)N([H])[H])c4N([H])[H])C3([H])[H])c([H])c2[H])C1([H])[H]

$$$$
46:0:0
     RDKit          3D

 93102  0  0  1  0  0  0  0  0999 V2000
  -28.9100  -23.9800   20.1980 C   0  0  0  0  0  0  0  0  0  0  0  0
  -30.2120  -23.8990   19.6010 C   0  0  0  0  0  0  0  0  0  0  0  0
  -28.5400  -22.5700   20.5170 C   0  0  0  0  0  0  0  0  0  0  0  0
  -30.9600  -24.9410   19.1960 C   0  0  0  0  0  2  0  0  0  0  0  0
  -28.1150  -25.0870   20.4450 C   0  0  0  0  0  3  0  0  0  0  0  0
  -30.6410  -22.4510   19.5150 C   0  0  0  0  0  2  0  0  0  0  0  0
  -29.5390  -21.6880   20.1290 N   0  0  0  0  0  0  0  0  0  0  0  0
  -27.4800  -22.2310   21.0530 O   0  0  0  0  0  0  0  0  0  0  0  0
  -28.6300  -19.3790   20.8520 C   0  0  0  0  0  3  0  0  0  0  0  0
  -30.7300  -19.4610   19.7180 C   0  0  0  0  0  3  0  0  0  0  0  0
  -28.7430  -17.9550   20.9310 C   0  0  0  0  0  3  0  0  0  0  0  0
  -30.8460  -18.0320   19.7950 C   0  0  0  0  0  3  0  0  0  0  0  0
  -29.6180  -20.2000   20.2360 C   0  0  0  0  0  0  0  0  0  0  0  0
  -29.8470  -17.2260   20.4060 C   0  0  0  0  0  0  0  0  0  0  0  0
  -30.6310  -14.7350   20.0310 C   0  0  0  0  0  0  0  0  0  0  0  0
  -30.3970  -12.5070   18.9320 C   0  0  0  0  0  2  0  0  0  0  0  0
  -29.3770  -12.6460   17.7780 C   0  0  0  0  0  2  0  0  0  0  0  0
  -27.9340  -12.4630   18.2900 C   0  0  0  0  0  2  0  0  0  0  0  0
  -27.6450  -13.2930   19.5690 C   0  0  0  0  0  3  0  0  0  0  0  0
  -28.7710  -13.1160   20.6130 C   0  0  0  0  0  2  0  0  0  0  0  0
  -30.0380  -13.4960   19.9700 N   0  0  0  0  0  0  0  0  0  0  0  0
  -31.7570  -14.9220   19.5570 O   0  0  0  0  0  0  0  0  0  0  0  0
  -29.8400  -15.7550   20.5130 N   0  0  0  0  0  0  0  0  0  0  0  0
  -29.0020  -15.3880   20.9370 H   0  0  0  0  0  0  0  0  0  0  0  0
  -25.3040  -13.8690   20.4580 C   0  0  0  0  0  0  0  0  0  0  0  0
  -24.2610  -13.0850   20.8680 C   0  0  0  0  0  0  0  0  0  0  0  0
  -24.7150  -11.7350   20.7610 C   0  0  0  0  0  0  0  0  0  0  0  0
  -26.3290  -12.9960   20.1270 N   0  0  0  0  0  0  0  0  0  0  0  0
  -25.9830  -11.7050   20.3680 N   0  0  0  0  0  0  0  0  0  0  0  0
  -23.9990  -10.4680   20.9530 C   0  0  0  0  0  0  0  0  0  0  0  0
  -24.4480   -9.4970   21.8760 C   0  0  0  0  0  3  0  0  0  0  0  0
  -23.7320   -8.2950   22.0580 C   0  0  0  0  0  3  0  0  0  0  0  0
  -22.5510   -8.0530   21.3150 C   0  0  0  0  0  0  0  0  0  0  0  0
  -22.1200   -9.0130   20.3810 C   0  0  0  0  0  3  0  0  0  0  0  0
  -22.8380  -10.2060   20.1980 C   0  0  0  0  0  3  0  0  0  0  0  0
  -21.8050   -6.9030   21.4050 O   0  0  0  0  0  0  0  0  0  0  0  0
  -21.7210   -6.1900   22.5740 C   0  0  0  0  0  0  0  0  0  0  0  0
  -21.2400   -6.7720   23.7680 C   0  0  0  0  0  3  0  0  0  0  0  0
  -21.1020   -5.9850   24.9290 C   0  0  0  0  0  3  0  0  0  0  0  0
  -21.4350   -4.6170   24.8970 C   0  0  0  0  0  0  0  0  0  0  0  0
  -21.9090   -4.0350   23.7070 C   0  0  0  0  0  3  0  0  0  0  0  0
  -22.0470   -4.8200   22.5490 C   0  0  0  0  0  0  0  0  0  0  0  0
  -22.4840   -4.2500   21.4000 F   0  0  0  0  0  0  0  0  0  0  0  0
  -21.2970   -3.8590   26.0090 F   0  0  0  0  0  0  0  0  0  0  0  0
  -22.8840  -13.5540   21.2440 C   0  0  0  0  0  0  0  0  0  0  0  0
  -22.2110  -12.8320   22.1330 N   0  0  0  0  0  0  0  0  0  0  0  0
  -22.4160  -14.5960   20.7850 O   0  0  0  0  0  0  0  0  0  0  0  0
  -22.6040  -11.9890   22.5260 H   0  0  0  0  0  0  0  0  0  0  0  0
  -21.2920  -13.1280   22.4270 H   0  0  0  0  0  0  0  0  0  0  0  0
  -25.4610  -15.2440   20.3170 N   0  0  0  0  0  0  0  0  0  0  0  0
  -24.7010  -15.8930   20.4890 H   0  0  0  0  0  0  0  0  0  0  0  0
  -26.2770  -15.6920   19.9150 H   0  0  0  0  0  0  0  0  0  0  0  0
  -28.3530  -26.4630   20.1800 O   0  0  0  0  0  0  0  0  0  0  0  0
  -24.6360  -31.8860   23.2280 C   0  0  0  0  0  0  0  0  0  0  0  0
  -27.2520  -27.3390   20.1520 C   0  0  0  0  0  0  0  0  0  0  0  0
  -23.4320  -30.4890   21.5870 C   0  0  0  0  0  3  0  0  0  0  0  0
  -24.8840  -28.9490   20.1490 C   0  0  0  0  0  0  0  0  0  0  0  0
  -25.9700  -30.8130   21.3980 C   0  0  0  0  0  2  0  0  0  0  0  0
  -26.0530  -29.4360   20.7490 C   0  0  0  0  0  0  0  0  0  0  0  0
  -27.2400  -28.6420   20.7450 C   0  0  0  0  0  3  0  0  0  0  0  0
  -26.0650  -26.9130   19.5180 C   0  0  0  0  0  3  0  0  0  0  0  0
  -24.8920  -27.6920   19.5250 C   0  0  0  0  0  3  0  0  0  0  0  0
  -23.6440  -29.8190   20.2040 C   0  0  0  0  0  2  0  0  0  0  0  0
  -24.6980  -31.0810   22.1270 N   0  0  0  0  0  0  0  0  0  0  0  0
  -23.5540  -32.1590   23.7680 O   0  0  0  0  0  0  0  0  0  0  0  0
  -22.7750  -29.4680   22.5460 C   0  0  0  0  0  0  0  0  0  0  0  0
  -21.4510  -29.2780   22.4130 N   0  0  0  0  0  0  0  0  0  0  0  0
  -23.4550  -28.8490   23.3680 O   0  0  0  0  0  0  0  0  0  0  0  0
  -20.9600  -29.8300   21.7220 H   0  0  0  0  0  0  0  0  0  0  0  0
  -18.0820  -28.0490   22.8970 C   0  0  0  0  0  0  0  0  0  0  0  0
  -20.6360  -28.3340   23.1810 C   0  0  0  0  0  3  0  0  0  0  0  0
  -20.7560  -26.9020   22.6100 C   0  0  0  0  0  2  0  0  0  0  0  0
  -19.6630  -26.5660   21.5900 C   0  0  0  0  0  2  0  0  0  0  0  0
  -18.2760  -26.6990   22.2260 C   0  0  0  0  0  2  0  0  0  0  0  0
  -19.1910  -28.8230   23.3320 C   0  0  0  0  0  0  0  0  0  0  0  0
  -18.9550  -30.0860   23.9180 C   0  0  0  0  0  3  0  0  0  0  0  0
  -17.6450  -30.5740   24.0760 C   0  0  0  0  0  3  0  0  0  0  0  0
  -16.5510  -29.7960   23.6580 C   0  0  0  0  0  3  0  0  0  0  0  0
  -16.7710  -28.5360   23.0740 C   0  0  0  0  0  3  0  0  0  0  0  0
  -25.9190  -32.5200   23.8490 C   0  0  0  0  0  3  0  0  0  0  0  0
  -25.6050  -33.9150   24.1890 N   0  0  0  0  0  0  0  0  0  0  0  0
  -25.9180  -34.9730   23.4280 C   0  0  0  0  0  0  0  0  0  0  0  0
  -26.5700  -34.8770   22.3850 O   0  0  0  0  0  0  0  0  0  0  0  0
  -25.0230  -34.0630   25.0000 H   0  0  0  0  0  0  0  0  0  0  0  0
  -24.1680  -36.7540   23.1180 C   0  0  0  0  0  1  0  0  0  0  0  0
  -25.4300  -36.3570   23.9000 C   0  0  0  0  0  3  0  0  0  0  0  0
  -27.5760  -37.2580   24.6830 C   0  0  0  0  0  1  0  0  0  0  0  0
  -26.4510  -37.4190   23.7640 N   0  0  0  0  0  0  0  0  0  0  0  0
  -26.0410  -38.3350   23.9220 H   0  0  0  0  0  0  0  0  0  0  0  0
  -26.4420  -31.7440   25.1200 C   0  0  1  0  0  0  0  0  0  0  0  0
  -25.3530  -31.4980   26.1910 C   0  0  0  0  0  1  0  0  0  0  0  0
  -27.0300  -30.3710   24.7220 C   0  0  0  0  0  1  0  0  0  0  0  0
  -27.5920  -32.5390   25.7830 C   0  0  0  0  0  1  0  0  0  0  0  0
  1  5  2  0
  1  3  1  0
  2  1  1  0
  3  8  2  0
  4  2  2  0
  6  2  1  0
  6  7  1  0
  7 13  1  0
  7  3  1  0
  9 11  1  0
 10 12  2  0
 10 13  1  0
 12 14  1  0
 13  9  2  0
 14 23  1  0
 14 11  2  0
 15 23  1  0
 16 21  1  0
 17 18  1  0
 17 16  1  0
 19 18  1  0
 19 28  1  0
 19 20  1  0
 21 15  1  0
 21 20  1  0
 22 15  2  0
 23 24  1  0
 25 26  2  0
 26 45  1  0
 27 26  1  0
 27 30  1  0
 28 29  1  0
 28 25  1  0
 29 27  2  0
 30 31  1  0
 31 32  2  0
 33 36  1  0
 33 32  1  0
 34 33  2  0
 35 34  1  0
 35 30  2  0
 36 37  1  0
 37 38  1  0
 38 39  2  0
 40 39  1  0
 40 44  1  0
 41 40  2  0
 42 37  2  0
 42 41  1  0
 43 42  1  0
 45 46  1  0
 46 49  1  0
 46 48  1  0
 47 45  2  0
 50 25  1  0
 50 51  1  0
 52 50  1  0
 53  5  1  0
 54 65  2  0
 55 53  1  0
 55 60  1  0
 56 64  1  0
 56 66  1  0
 57 63  1  0
 57 59  1  0
 58 64  1  0
 59 58  1  0
 60 59  2  0
 61 62  1  0
 61 55  2  0
 62 57  2  0
 63 56  1  0
 64 54  1  0
 66 68  2  0
 67 66  1  0
 69 67  1  0
 70 79  2  0
 70 75  1  0
 71 67  1  0
 71 75  1  0
 72 71  1  0
 73 74  1  0
 73 72  1  0
 74 70  1  0
 75 76  2  0
 76 77  1  0
 78 77  2  0
 79 78  1  0
 80 54  1  0
 80 81  1  0
 80 90  1  0
 81 84  1  0
 82 86  1  0
 82 81  1  0
 83 82  2  0
 86 85  1  0
 88 86  1  0
 88 89  1  0
 88 87  1  0
 90 93  1  1
 90 91  1  0
 92 90  1  0
M  ISO  4   5 101  15 100  23 100  53 101
M  END
>  <TORSDO>  (47) 
F 17

>  <SCORE>  (47) 
-14.716

>  <name>  (47) 
46

>  <ligand_id>  (47) 
46

>  <original_smiles>  (47) 
[H]C([H])=C1C(=C([H])Oc2c([H])c([H])c3c(c2[H])C([H])([H])N(C(=O)C([H])(N([H])C(=O)C([H])(N([H])C([H])([H])[H])C([H])([H])[H])C(C([H])([H])[H])(C([H])([H])[H])C([H])([H])[H])C([H])(C(=O)N([H])C2([H])c4c([H])c([H])c([H])c([H])c4C([H])([H])C([H])([H])C2([H])[H])C3([H])[H])C(=O)N(c2c([H])c([H])c(N([H])C(=O)N3C([H])([H])C([H])([H])C([H])([H])C([H])(n4nc(-c5c([H])c([H])c(Oc6c([H])c([H])c(F)c([H])c6F)c([H])c5[H])c(C(=O)N([H])[H])c4N([H])[H])C3([H])[H])c([H])c2[H])C1([H])[H]

>  <smiles>  (47) 
[H]C([H])=C1C(=C([H])Oc2c([H])c([H])c3c(c2[H])C([H])([H])N(C(=O)C([H])(N([H])C(=O)C([H])(N([H])C([H])([H])[H])C([H])([H])[H])C(C([H])([H])[H])(C([H])([H])[H])C([H])([H])[H])C([H])(C(=O)N([H])C2([H])c4c([H])c([H])c([H])c([H])c4C([H])([H])C([H])([H])C2([H])[H])C3([H])[H])C(=O)N(c2c([H])c([H])c(N([H])C(=O)N3C([H])([H])C([H])([H])C([H])([H])C([H])(n4nc(-c5c([H])c([H])c(Oc6c([H])c([H])c(F)c([H])c6F)c([H])c5[H])c(C(=O)N([H])[H])c4N([H])[H])C3([H])[H])c([H])c2[H])C1([H])[H]

$$$$
47:0:0
     RDKit          3D

 91100  0  0  1  0  0  0  0  0999 V2000
  -28.6090  -23.6640   19.8730 C   0  0  0  0  0  0  0  0  0  0  0  0
  -28.9420  -22.8560   21.0630 C   0  0  0  0  0  0  0  0  0  0  0  0
  -28.3450  -25.0090   19.5050 C   0  0  0  0  0  0  0  0  0  0  0  0
  -28.7440  -22.3400   19.0490 C   0  0  0  0  0  2  0  0  0  0  0  0
  -28.2430  -25.2910   18.0110 C   0  0  0  0  0  1  0  0  0  0  0  0
  -28.8710  -21.6070   20.3350 N   0  0  0  0  0  0  0  0  0  0  0  0
  -29.2700  -23.1950   22.1820 O   0  0  0  0  0  0  0  0  0  0  0  0
  -30.6940  -19.7230   20.6360 C   0  0  0  0  0  3  0  0  0  0  0  0
  -30.9070  -18.2680   20.6560 C   0  0  0  0  0  3  0  0  0  0  0  0
  -29.4080  -20.1810   20.3980 C   0  0  0  0  0  0  0  0  0  0  0  0
  -29.7990  -17.4580   20.4650 C   0  0  0  0  0  0  0  0  0  0  0  0
  -28.4510  -18.6540   20.2150 S   0  0  0  0  0  0  0  0  0  0  0  0
  -30.4790  -14.9090   20.3500 C   0  0  0  0  0  0  0  0  0  0  0  0
  -30.3600  -12.5880   19.3650 C   0  0  0  0  0  2  0  0  0  0  0  0
  -29.4250  -12.5950   18.1330 C   0  0  0  0  0  2  0  0  0  0  0  0
  -27.9560  -12.3960   18.5560 C   0  0  0  0  0  2  0  0  0  0  0  0
  -27.5560  -13.2970   19.7540 C   0  0  0  0  0  3  0  0  0  0  0  0
  -28.6090  -13.2540   20.8820 C   0  0  0  0  0  2  0  0  0  0  0  0
  -29.8930  -13.6530   20.2900 N   0  0  0  0  0  0  0  0  0  0  0  0
  -31.6790  -15.0130   20.0750 O   0  0  0  0  0  0  0  0  0  0  0  0
  -29.6390  -16.0350   20.4930 N   0  0  0  0  0  0  0  0  0  0  0  0
  -28.6780  -15.7490   20.5950 H   0  0  0  0  0  0  0  0  0  0  0  0
  -25.1630  -13.8770   20.4640 C   0  0  0  0  0  0  0  0  0  0  0  0
  -24.0990  -13.0990   20.8310 C   0  0  0  0  0  0  0  0  0  0  0  0
  -24.5700  -11.7500   20.8150 C   0  0  0  0  0  0  0  0  0  0  0  0
  -26.2130  -13.0010   20.2400 N   0  0  0  0  0  0  0  0  0  0  0  0
  -25.8640  -11.7180   20.5170 N   0  0  0  0  0  0  0  0  0  0  0  0
  -23.8480  -10.4860   21.0070 C   0  0  0  0  0  0  0  0  0  0  0  0
  -24.2750   -9.5280   21.9540 C   0  0  0  0  0  3  0  0  0  0  0  0
  -23.5510   -8.3290   22.1340 C   0  0  0  0  0  3  0  0  0  0  0  0
  -22.3870   -8.0800   21.3680 C   0  0  0  0  0  0  0  0  0  0  0  0
  -21.9810   -9.0270   20.4110 C   0  0  0  0  0  3  0  0  0  0  0  0
  -22.7040  -10.2170   20.2290 C   0  0  0  0  0  3  0  0  0  0  0  0
  -21.6360   -6.9330   21.4570 O   0  0  0  0  0  0  0  0  0  0  0  0
  -21.5720   -6.2030   22.6160 C   0  0  0  0  0  0  0  0  0  0  0  0
  -21.1150   -6.7660   23.8270 C   0  0  0  0  0  3  0  0  0  0  0  0
  -21.0000   -5.9620   24.9790 C   0  0  0  0  0  3  0  0  0  0  0  0
  -21.3300   -4.5950   24.9200 C   0  0  0  0  0  0  0  0  0  0  0  0
  -21.7810   -4.0310   23.7140 C   0  0  0  0  0  3  0  0  0  0  0  0
  -21.8980   -4.8320   22.5640 C   0  0  0  0  0  0  0  0  0  0  0  0
  -22.3120   -4.2790   21.3990 F   0  0  0  0  0  0  0  0  0  0  0  0
  -21.2130   -3.8200   26.0240 F   0  0  0  0  0  0  0  0  0  0  0  0
  -22.6970  -13.5710   21.0840 C   0  0  0  0  0  0  0  0  0  0  0  0
  -21.9610  -12.8770   21.9440 N   0  0  0  0  0  0  0  0  0  0  0  0
  -22.2610  -14.5920   20.5510 O   0  0  0  0  0  0  0  0  0  0  0  0
  -22.3260  -12.0530   22.3960 H   0  0  0  0  0  0  0  0  0  0  0  0
  -21.0200  -13.1760   22.1570 H   0  0  0  0  0  0  0  0  0  0  0  0
  -25.3190  -15.2470   20.2730 N   0  0  0  0  0  0  0  0  0  0  0  0
  -24.5370  -15.8880   20.3640 H   0  0  0  0  0  0  0  0  0  0  0  0
  -26.1460  -15.6870   19.8950 H   0  0  0  0  0  0  0  0  0  0  0  0
  -28.2810  -26.2570   20.2510 O   0  0  0  0  0  0  0  0  0  0  0  0
  -24.6240  -31.8800   23.2300 C   0  0  0  0  0  0  0  0  0  0  0  0
  -27.2120  -27.2170   20.1610 C   0  0  0  0  0  0  0  0  0  0  0  0
  -23.4190  -30.4860   21.5940 C   0  0  0  0  0  3  0  0  0  0  0  0
  -24.8650  -28.9250   20.1580 C   0  0  0  0  0  0  0  0  0  0  0  0
  -25.9700  -30.7690   21.4140 C   0  0  0  0  0  2  0  0  0  0  0  0
  -26.0460  -29.3840   20.7550 C   0  0  0  0  0  0  0  0  0  0  0  0
  -27.2190  -28.5440   20.7420 C   0  0  0  0  0  3  0  0  0  0  0  0
  -25.9880  -26.8390   19.5620 C   0  0  0  0  0  3  0  0  0  0  0  0
  -24.8460  -27.6630   19.5490 C   0  0  0  0  0  3  0  0  0  0  0  0
  -23.6340  -29.8140   20.2110 C   0  0  0  0  0  2  0  0  0  0  0  0
  -24.6910  -31.0660   22.1340 N   0  0  0  0  0  0  0  0  0  0  0  0
  -23.5390  -32.1600   23.7630 O   0  0  0  0  0  0  0  0  0  0  0  0
  -22.7490  -29.4730   22.5550 C   0  0  0  0  0  0  0  0  0  0  0  0
  -21.4220  -29.2960   22.4290 N   0  0  0  0  0  0  0  0  0  0  0  0
  -23.4250  -28.8490   23.3770 O   0  0  0  0  0  0  0  0  0  0  0  0
  -20.9330  -29.8510   21.7410 H   0  0  0  0  0  0  0  0  0  0  0  0
  -18.0470  -28.0790   22.9280 C   0  0  0  0  0  0  0  0  0  0  0  0
  -20.6030  -28.3570   23.2010 C   0  0  0  0  0  3  0  0  0  0  0  0
  -20.7150  -26.9230   22.6320 C   0  0  0  0  0  2  0  0  0  0  0  0
  -19.6180  -26.5900   21.6170 C   0  0  0  0  0  2  0  0  0  0  0  0
  -18.2330  -26.7290   22.2570 C   0  0  0  0  0  2  0  0  0  0  0  0
  -19.1600  -28.8500   23.3570 C   0  0  0  0  0  0  0  0  0  0  0  0
  -18.9310  -30.1130   23.9460 C   0  0  0  0  0  3  0  0  0  0  0  0
  -17.6220  -30.6050   24.1090 C   0  0  0  0  0  3  0  0  0  0  0  0
  -16.5230  -29.8310   23.6950 C   0  0  0  0  0  3  0  0  0  0  0  0
  -16.7370  -28.5700   23.1090 C   0  0  0  0  0  3  0  0  0  0  0  0
  -25.9030  -32.5160   23.8530 C   0  0  0  0  0  3  0  0  0  0  0  0
  -25.5910  -33.9160   24.1850 N   0  0  0  0  0  0  0  0  0  0  0  0
  -25.9160  -34.9710   23.4260 C   0  0  0  0  0  0  0  0  0  0  0  0
  -26.5770  -34.8700   22.3900 O   0  0  0  0  0  0  0  0  0  0  0  0
  -25.0020  -34.0680   24.9900 H   0  0  0  0  0  0  0  0  0  0  0  0
  -24.1840  -36.7660   23.0920 C   0  0  0  0  0  1  0  0  0  0  0  0
  -25.4320  -36.3590   23.8910 C   0  0  0  0  0  3  0  0  0  0  0  0
  -27.5730  -37.2470   24.7040 C   0  0  0  0  0  1  0  0  0  0  0  0
  -26.4640  -37.4130   23.7690 N   0  0  0  0  0  0  0  0  0  0  0  0
  -26.0580  -38.3330   23.9190 H   0  0  0  0  0  0  0  0  0  0  0  0
  -26.4160  -31.7490   25.1330 C   0  0  1  0  0  0  0  0  0  0  0  0
  -25.3230  -31.5170   26.2020 C   0  0  0  0  0  1  0  0  0  0  0  0
  -26.9980  -30.3680   24.7500 C   0  0  0  0  0  1  0  0  0  0  0  0
  -27.5680  -32.5430   25.7930 C   0  0  0  0  0  1  0  0  0  0  0  0
  1  2  1  0
  2  7  2  0
  3  1  2  0
  3 51  1  0
  4  1  1  0
  4  6  1  0
  5  3  1  0
  6 10  1  0
  6  2  1  0
  8  9  1  0
 10  8  2  0
 11 21  1  0
 11  9  2  0
 12 10  1  0
 12 11  1  0
 13 21  1  0
 14 19  1  0
 15 16  1  0
 15 14  1  0
 17 16  1  0
 17 26  1  0
 17 18  1  0
 19 13  1  0
 19 18  1  0
 20 13  2  0
 21 22  1  0
 23 24  2  0
 24 43  1  0
 25 24  1  0
 25 28  1  0
 26 23  1  0
 26 27  1  0
 27 25  2  0
 28 29  1  0
 29 30  2  0
 31 34  1  0
 31 30  1  0
 32 31  2  0
 33 32  1  0
 33 28  2  0
 34 35  1  0
 35 36  1  0
 36 37  2  0
 38 37  1  0
 38 42  1  0
 39 38  2  0
 40 35  2  0
 40 39  1  0
 41 40  1  0
 43 44  1  0
 44 47  1  0
 44 46  1  0
 45 43  2  0
 48 49  1  0
 48 23  1  0
 50 48  1  0
 52 63  2  0
 53 51  1  0
 53 58  1  0
 54 62  1  0
 54 64  1  0
 55 61  1  0
 55 57  1  0
 56 62  1  0
 57 56  1  0
 58 57  2  0
 59 53  2  0
 60 59  1  0
 60 55  2  0
 61 54  1  0
 62 52  1  0
 64 66  2  0
 65 64  1  0
 67 65  1  0
 68 77  2  0
 68 73  1  0
 69 65  1  0
 69 73  1  0
 70 69  1  0
 71 72  1  0
 71 70  1  0
 72 68  1  0
 73 74  2  0
 74 75  1  0
 76 75  2  0
 77 76  1  0
 78 52  1  0
 78 79  1  0
 78 88  1  0
 79 82  1  0
 80 84  1  0
 80 79  1  0
 81 80  2  0
 84 83  1  0
 86 84  1  0
 86 87  1  0
 86 85  1  0
 88 91  1  1
 88 89  1  0
 90 88  1  0
M  ISO  4   3 101  13 100  21 100  51 101
M  END
>  <TORSDO>  (48) 
F 17

>  <SCORE>  (48) 
-15.213

>  <name>  (48) 
47

>  <ligand_id>  (48) 
47

>  <original_smiles>  (48) 
[H]c1c(N([H])C(=O)N2C([H])([H])C([H])([H])C([H])([H])C([H])(n3nc(-c4c([H])c([H])c(Oc5c([H])c([H])c(F)c([H])c5F)c([H])c4[H])c(C(=O)N([H])[H])c3N([H])[H])C2([H])[H])sc(N2C(=O)C(=C(Oc3c([H])c([H])c4c(c3[H])C([H])([H])N(C(=O)C([H])(N([H])C(=O)C([H])(N([H])C([H])([H])[H])C([H])([H])[H])C(C([H])([H])[H])(C([H])([H])[H])C([H])([H])[H])C([H])(C(=O)N([H])C3([H])c5c([H])c([H])c([H])c([H])c5C([H])([H])C([H])([H])C3([H])[H])C4([H])[H])C([H])([H])[H])C2([H])[H])c1[H]

>  <smiles>  (48) 
[H]c1c(N([H])C(=O)N2C([H])([H])C([H])([H])C([H])([H])C([H])(n3nc(-c4c([H])c([H])c(Oc5c([H])c([H])c(F)c([H])c5F)c([H])c4[H])c(C(=O)N([H])[H])c3N([H])[H])C2([H])[H])sc(N2C(=O)C(=C(Oc3c([H])c([H])c4c(c3[H])C([H])([H])N(C(=O)C([H])(N([H])C(=O)C([H])(N([H])C([H])([H])[H])C([H])([H])[H])C(C([H])([H])[H])(C([H])([H])[H])C([H])([H])[H])C([H])(C(=O)N([H])C3([H])c5c([H])c([H])c([H])c([H])c5C([H])([H])C([H])([H])C3([H])[H])C4([H])[H])C([H])([H])[H])C2([H])[H])c1[H]

$$$$
48:0:0
     RDKit          3D

 94103  0  0  1  0  0  0  0  0999 V2000
  -28.7210  -23.9850   20.2630 C   0  0  0  0  0  0  0  0  0  0  0  0
  -29.0690  -23.7900   21.6490 C   0  0  0  0  0  0  0  0  0  0  0  0
  -28.8360  -22.6120   19.6630 C   0  0  0  0  0  0  0  0  0  0  0  0
  -28.9480  -24.6940   22.6370 C   0  0  0  0  0  1  0  0  0  0  0  0
  -28.3940  -25.1740   19.6080 C   0  0  0  0  0  3  0  0  0  0  0  0
  -29.5460  -22.3700   21.8700 C   0  0  0  0  0  2  0  0  0  0  0  0
  -28.2170  -25.2480   18.0940 C   0  0  0  0  0  1  0  0  0  0  0  0
  -29.2780  -21.6910   20.5980 N   0  0  0  0  0  0  0  0  0  0  0  0
  -28.5820  -22.3040   18.4940 O   0  0  0  0  0  0  0  0  0  0  0  0
  -28.6270  -19.3680   19.7170 C   0  0  0  0  0  3  0  0  0  0  0  0
  -30.5030  -19.5280   21.1960 C   0  0  0  0  0  3  0  0  0  0  0  0
  -28.7540  -17.9420   19.7340 C   0  0  0  0  0  3  0  0  0  0  0  0
  -30.6510  -18.1010   21.1860 C   0  0  0  0  0  3  0  0  0  0  0  0
  -29.4790  -20.2200   20.4760 C   0  0  0  0  0  0  0  0  0  0  0  0
  -29.7610  -17.2550   20.4710 C   0  0  0  0  0  0  0  0  0  0  0  0
  -30.5680  -14.7490   20.3690 C   0  0  0  0  0  0  0  0  0  0  0  0
  -30.4120  -12.4840   19.3340 C   0  0  0  0  0  2  0  0  0  0  0  0
  -29.4580  -12.5780   18.1210 C   0  0  0  0  0  2  0  0  0  0  0  0
  -27.9880  -12.4020   18.5570 C   0  0  0  0  0  2  0  0  0  0  0  0
  -27.6220  -13.2700   19.7890 C   0  0  0  0  0  3  0  0  0  0  0  0
  -28.6870  -13.1420   20.9010 C   0  0  0  0  0  2  0  0  0  0  0  0
  -29.9860  -13.5050   20.3130 N   0  0  0  0  0  0  0  0  0  0  0  0
  -31.7460  -14.9180   20.0330 O   0  0  0  0  0  0  0  0  0  0  0  0
  -29.6970  -15.7900   20.6050 N   0  0  0  0  0  0  0  0  0  0  0  0
  -28.7620  -15.4420   20.7480 H   0  0  0  0  0  0  0  0  0  0  0  0
  -25.2330  -13.8640   20.5260 C   0  0  0  0  0  0  0  0  0  0  0  0
  -24.1700  -13.0880   20.8970 C   0  0  0  0  0  0  0  0  0  0  0  0
  -24.6330  -11.7380   20.8590 C   0  0  0  0  0  0  0  0  0  0  0  0
  -26.2770  -12.9860   20.2810 N   0  0  0  0  0  0  0  0  0  0  0  0
  -25.9220  -11.7010   20.5430 N   0  0  0  0  0  0  0  0  0  0  0  0
  -23.9100  -10.4740   21.0470 C   0  0  0  0  0  0  0  0  0  0  0  0
  -24.3510   -9.5010   21.9700 C   0  0  0  0  0  3  0  0  0  0  0  0
  -23.6290   -8.3020   22.1470 C   0  0  0  0  0  3  0  0  0  0  0  0
  -22.4490   -8.0670   21.4010 C   0  0  0  0  0  0  0  0  0  0  0  0
  -22.0260   -9.0290   20.4670 C   0  0  0  0  0  3  0  0  0  0  0  0
  -22.7500  -10.2200   20.2880 C   0  0  0  0  0  3  0  0  0  0  0  0
  -21.6980   -6.9210   21.4870 O   0  0  0  0  0  0  0  0  0  0  0  0
  -21.6600   -6.1690   22.6340 C   0  0  0  0  0  0  0  0  0  0  0  0
  -21.2320   -6.7100   23.8650 C   0  0  0  0  0  3  0  0  0  0  0  0
  -21.1410   -5.8850   25.0040 C   0  0  0  0  0  3  0  0  0  0  0  0
  -21.4680   -4.5190   24.9120 C   0  0  0  0  0  0  0  0  0  0  0  0
  -21.8900   -3.9770   23.6850 C   0  0  0  0  0  3  0  0  0  0  0  0
  -21.9830   -4.8000   22.5490 C   0  0  0  0  0  0  0  0  0  0  0  0
  -22.3680   -4.2680   21.3630 F   0  0  0  0  0  0  0  0  0  0  0  0
  -21.3740   -3.7240   26.0030 F   0  0  0  0  0  0  0  0  0  0  0  0
  -22.7720  -13.5630   21.1760 C   0  0  0  0  0  0  0  0  0  0  0  0
  -22.0490  -12.8640   22.0440 N   0  0  0  0  0  0  0  0  0  0  0  0
  -22.3310  -14.5910   20.6630 O   0  0  0  0  0  0  0  0  0  0  0  0
  -22.4170  -12.0320   22.4820 H   0  0  0  0  0  0  0  0  0  0  0  0
  -21.1130  -13.1660   22.2740 H   0  0  0  0  0  0  0  0  0  0  0  0
  -25.3940  -15.2370   20.3520 N   0  0  0  0  0  0  0  0  0  0  0  0
  -24.6230  -15.8850   20.4680 H   0  0  0  0  0  0  0  0  0  0  0  0
  -26.2300  -15.6810   19.9980 H   0  0  0  0  0  0  0  0  0  0  0  0
  -28.3500  -26.4730   20.1950 O   0  0  0  0  0  0  0  0  0  0  0  0
  -24.6340  -31.8940   23.2520 C   0  0  0  0  0  0  0  0  0  0  0  0
  -27.2200  -27.3240   20.1510 C   0  0  0  0  0  0  0  0  0  0  0  0
  -23.4160  -30.5000   21.6210 C   0  0  0  0  0  3  0  0  0  0  0  0
  -24.8510  -28.9520   20.1790 C   0  0  0  0  0  0  0  0  0  0  0  0
  -25.9550  -30.8180   21.4080 C   0  0  0  0  0  2  0  0  0  0  0  0
  -26.0300  -29.4370   20.7590 C   0  0  0  0  0  0  0  0  0  0  0  0
  -27.2140  -28.6350   20.7330 C   0  0  0  0  0  3  0  0  0  0  0  0
  -26.0000  -26.8850   19.5850 C   0  0  0  0  0  3  0  0  0  0  0  0
  -24.8390  -27.6810   19.5860 C   0  0  0  0  0  3  0  0  0  0  0  0
  -23.6170  -29.8310   20.2370 C   0  0  0  0  0  2  0  0  0  0  0  0
  -24.6900  -31.0880   22.1510 N   0  0  0  0  0  0  0  0  0  0  0  0
  -23.5560  -32.1690   23.7980 O   0  0  0  0  0  0  0  0  0  0  0  0
  -22.7620  -29.4810   22.5840 C   0  0  0  0  0  0  0  0  0  0  0  0
  -21.4370  -29.2940   22.4640 N   0  0  0  0  0  0  0  0  0  0  0  0
  -23.4480  -28.8600   23.4010 O   0  0  0  0  0  0  0  0  0  0  0  0
  -20.9430  -29.8470   21.7770 H   0  0  0  0  0  0  0  0  0  0  0  0
  -18.0700  -28.0670   22.9650 C   0  0  0  0  0  0  0  0  0  0  0  0
  -20.6270  -28.3530   23.2380 C   0  0  0  0  0  3  0  0  0  0  0  0
  -20.7420  -26.9190   22.6690 C   0  0  0  0  0  2  0  0  0  0  0  0
  -19.6450  -26.5820   21.6550 C   0  0  0  0  0  2  0  0  0  0  0  0
  -18.2610  -26.7160   22.2960 C   0  0  0  0  0  2  0  0  0  0  0  0
  -19.1810  -28.8420   23.3930 C   0  0  0  0  0  0  0  0  0  0  0  0
  -18.9480  -30.1050   23.9790 C   0  0  0  0  0  3  0  0  0  0  0  0
  -17.6380  -30.5940   24.1420 C   0  0  0  0  0  3  0  0  0  0  0  0
  -16.5420  -29.8150   23.7310 C   0  0  0  0  0  3  0  0  0  0  0  0
  -16.7600  -28.5550   23.1470 C   0  0  0  0  0  3  0  0  0  0  0  0
  -25.9220  -32.5240   23.8660 C   0  0  0  0  0  3  0  0  0  0  0  0
  -25.6140  -33.9220   24.2040 N   0  0  0  0  0  0  0  0  0  0  0  0
  -25.9230  -34.9770   23.4390 C   0  0  0  0  0  0  0  0  0  0  0  0
  -26.5650  -34.8760   22.3900 O   0  0  0  0  0  0  0  0  0  0  0  0
  -25.0390  -34.0740   25.0200 H   0  0  0  0  0  0  0  0  0  0  0  0
  -24.1750  -36.7620   23.1370 C   0  0  0  0  0  1  0  0  0  0  0  0
  -25.4430  -36.3630   23.9090 C   0  0  0  0  0  3  0  0  0  0  0  0
  -27.5980  -37.2650   24.6690 C   0  0  0  0  0  1  0  0  0  0  0  0
  -26.4650  -37.4220   23.7610 N   0  0  0  0  0  0  0  0  0  0  0  0
  -26.0590  -38.3410   23.9150 H   0  0  0  0  0  0  0  0  0  0  0  0
  -26.4470  -31.7470   25.1360 C   0  0  1  0  0  0  0  0  0  0  0  0
  -25.3630  -31.5110   26.2120 C   0  0  0  0  0  1  0  0  0  0  0  0
  -27.0190  -30.3670   24.7340 C   0  0  0  0  0  1  0  0  0  0  0  0
  -27.6080  -32.5340   25.7890 C   0  0  0  0  0  1  0  0  0  0  0  0
  1  2  2  0
  2  6  1  0
  2  4  1  0
  3  1  1  0
  3  8  1  0
  5  7  1  0
  5 54  1  0
  5  1  1  0
  8  6  1  0
  9  3  2  0
 10 12  2  0
 10 14  1  0
 12 15  1  0
 13 11  1  0
 14  8  1  0
 14 11  2  0
 15 24  1  0
 15 13  2  0
 16 24  1  0
 17 22  1  0
 18 19  1  0
 18 17  1  0
 20 19  1  0
 20 29  1  0
 20 21  1  0
 22 16  1  0
 22 21  1  0
 23 16  2  0
 24 25  1  0
 26 27  2  0
 27 46  1  0
 28 27  1  0
 28 31  1  0
 29 26  1  0
 29 30  1  0
 30 28  2  0
 31 32  1  0
 32 33  2  0
 34 37  1  0
 34 33  1  0
 35 34  2  0
 36 35  1  0
 36 31  2  0
 37 38  1  0
 38 39  1  0
 39 40  2  0
 41 40  1  0
 41 45  1  0
 42 41  2  0
 43 38  2  0
 43 42  1  0
 44 43  1  0
 46 47  1  0
 47 50  1  0
 47 49  1  0
 48 46  2  0
 51 52  1  0
 51 26  1  0
 53 51  1  0
 55 66  2  0
 56 54  1  0
 56 61  1  0
 57 65  1  0
 57 67  1  0
 58 64  1  0
 58 60  1  0
 59 65  1  0
 60 59  1  0
 61 60  2  0
 62 63  1  0
 62 56  2  0
 63 58  2  0
 64 57  1  0
 65 55  1  0
 67 69  2  0
 68 67  1  0
 70 68  1  0
 71 80  2  0
 71 76  1  0
 72 68  1  0
 72 76  1  0
 73 72  1  0
 74 75  1  0
 74 73  1  0
 75 71  1  0
 76 77  2  0
 77 78  1  0
 79 78  2  0
 80 79  1  0
 81 55  1  0
 81 82  1  0
 81 91  1  0
 82 85  1  0
 83 87  1  0
 83 82  1  0
 84 83  2  0
 87 86  1  0
 89 87  1  0
 89 90  1  0
 89 88  1  0
 91 94  1  1
 91 92  1  0
 93 91  1  0
M  ISO  4   5 101  16 100  24 100  54 101
M  END
>  <TORSDO>  (49) 
F 17

>  <SCORE>  (49) 
-15.512

>  <name>  (49) 
48

>  <ligand_id>  (49) 
48

>  <original_smiles>  (49) 
[H]C([H])=C1C(=C(Oc2c([H])c([H])c3c(c2[H])C([H])([H])N(C(=O)C([H])(N([H])C(=O)C([H])(N([H])C([H])([H])[H])C([H])([H])[H])C(C([H])([H])[H])(C([H])([H])[H])C([H])([H])[H])C([H])(C(=O)N([H])C2([H])c4c([H])c([H])c([H])c([H])c4C([H])([H])C([H])([H])C2([H])[H])C3([H])[H])C([H])([H])[H])C(=O)N(c2c([H])c([H])c(N([H])C(=O)N3C([H])([H])C([H])([H])C([H])([H])C([H])(n4nc(-c5c([H])c([H])c(Oc6c([H])c([H])c(F)c([H])c6F)c([H])c5[H])c(C(=O)N([H])[H])c4N([H])[H])C3([H])[H])c([H])c2[H])C1([H])[H]

>  <smiles>  (49) 
[H]C([H])=C1C(=C(Oc2c([H])c([H])c3c(c2[H])C([H])([H])N(C(=O)C([H])(N([H])C(=O)C([H])(N([H])C([H])([H])[H])C([H])([H])[H])C(C([H])([H])[H])(C([H])([H])[H])C([H])([H])[H])C([H])(C(=O)N([H])C2([H])c4c([H])c([H])c([H])c([H])c4C([H])([H])C([H])([H])C2([H])[H])C3([H])[H])C([H])([H])[H])C(=O)N(c2c([H])c([H])c(N([H])C(=O)N3C([H])([H])C([H])([H])C([H])([H])C([H])(n4nc(-c5c([H])c([H])c(Oc6c([H])c([H])c(F)c([H])c6F)c([H])c5[H])c(C(=O)N([H])[H])c4N([H])[H])C3([H])[H])c([H])c2[H])C1([H])[H]

$$$$
49:0:0
     RDKit          3D

 92101  0  0  1  0  0  0  0  0999 V2000
  -28.6590  -23.7020   20.0630 C   0  0  0  0  0  0  0  0  0  0  0  0
  -28.4620  -22.4000   19.4000 C   0  0  0  0  0  0  0  0  0  0  0  0
  -28.1670  -24.9700   19.7030 C   0  0  0  0  0  3  0  0  0  0  0  0
  -29.5550  -22.9720   21.0960 C   0  0  0  0  0  2  0  0  0  0  0  0
  -29.1840  -21.6910   20.3970 N   0  0  0  0  0  0  0  0  0  0  0  0
  -27.9530  -22.1280   18.3320 O   0  0  0  0  0  0  0  0  0  0  0  0
  -32.1300  -19.2930   20.9510 C   0  0  0  0  0  3  0  0  0  0  0  0
  -31.6150  -17.9870   20.8580 C   0  0  0  0  0  3  0  0  0  0  0  0
  -31.3130  -20.4340   20.8010 C   0  0  0  0  0  3  0  0  0  0  0  0
  -29.4510  -18.9880   20.4310 C   0  0  0  0  0  3  0  0  0  0  0  0
  -30.2500  -17.7540   20.5960 C   0  0  0  0  0  0  0  0  0  0  0  0
  -29.9240  -20.3800   20.5300 C   0  0  0  0  0  0  0  0  0  0  0  0
  -29.6820  -16.2720   20.6140 C   0  0  0  0  0  0  0  0  0  0  0  0
  -28.4440  -16.1950   20.8640 N   0  0  0  0  0  0  0  0  0  0  0  0
  -28.1590  -15.2250   20.8760 H   0  0  0  0  0  0  0  0  0  0  0  0
  -30.5580  -14.9000   20.3170 C   0  0  0  0  0  0  0  0  0  0  0  0
  -30.3980  -12.6000   19.3000 C   0  0  0  0  0  2  0  0  0  0  0  0
  -29.4390  -12.6280   18.0850 C   0  0  0  0  0  2  0  0  0  0  0  0
  -27.9770  -12.4120   18.5280 C   0  0  0  0  0  2  0  0  0  0  0  0
  -27.6000  -13.2870   19.7490 C   0  0  0  0  0  3  0  0  0  0  0  0
  -28.6790  -13.2020   20.8540 C   0  0  0  0  0  2  0  0  0  0  0  0
  -29.9510  -13.6450   20.2620 N   0  0  0  0  0  0  0  0  0  0  0  0
  -31.7410  -14.9780   19.9680 O   0  0  0  0  0  0  0  0  0  0  0  0
  -25.2240  -13.8640   20.5180 C   0  0  0  0  0  0  0  0  0  0  0  0
  -24.1670  -13.0810   20.8940 C   0  0  0  0  0  0  0  0  0  0  0  0
  -24.6400  -11.7340   20.8510 C   0  0  0  0  0  0  0  0  0  0  0  0
  -26.2680  -12.9900   20.2610 N   0  0  0  0  0  0  0  0  0  0  0  0
  -25.9270  -11.7050   20.5260 N   0  0  0  0  0  0  0  0  0  0  0  0
  -23.9260  -10.4660   21.0440 C   0  0  0  0  0  0  0  0  0  0  0  0
  -24.3760   -9.4990   21.9680 C   0  0  0  0  0  3  0  0  0  0  0  0
  -23.6610   -8.2940   22.1480 C   0  0  0  0  0  3  0  0  0  0  0  0
  -22.4820   -8.0500   21.4030 C   0  0  0  0  0  0  0  0  0  0  0  0
  -22.0520   -9.0080   20.4680 C   0  0  0  0  0  3  0  0  0  0  0  0
  -22.7670  -10.2030   20.2860 C   0  0  0  0  0  3  0  0  0  0  0  0
  -21.7370   -6.9010   21.4930 O   0  0  0  0  0  0  0  0  0  0  0  0
  -21.7020   -6.1540   22.6440 C   0  0  0  0  0  0  0  0  0  0  0  0
  -21.2640   -6.6970   23.8710 C   0  0  0  0  0  3  0  0  0  0  0  0
  -21.1760   -5.8750   25.0120 C   0  0  0  0  0  3  0  0  0  0  0  0
  -21.5190   -4.5120   24.9270 C   0  0  0  0  0  0  0  0  0  0  0  0
  -21.9510   -3.9700   23.7040 C   0  0  0  0  0  3  0  0  0  0  0  0
  -22.0390   -4.7880   22.5650 C   0  0  0  0  0  0  0  0  0  0  0  0
  -22.4370   -4.2550   21.3850 F   0  0  0  0  0  0  0  0  0  0  0  0
  -21.4270   -3.7200   26.0210 F   0  0  0  0  0  0  0  0  0  0  0  0
  -22.7700  -13.5480   21.1870 C   0  0  0  0  0  0  0  0  0  0  0  0
  -22.0620  -12.8460   22.0640 N   0  0  0  0  0  0  0  0  0  0  0  0
  -22.3170  -14.5700   20.6730 O   0  0  0  0  0  0  0  0  0  0  0  0
  -22.4430  -12.0200   22.5010 H   0  0  0  0  0  0  0  0  0  0  0  0
  -21.1250  -13.1400   22.3040 H   0  0  0  0  0  0  0  0  0  0  0  0
  -25.3760  -15.2390   20.3580 N   0  0  0  0  0  0  0  0  0  0  0  0
  -24.6150  -15.8850   20.5370 H   0  0  0  0  0  0  0  0  0  0  0  0
  -26.2550  -15.7130   20.1720 H   0  0  0  0  0  0  0  0  0  0  0  0
  -28.2870  -26.3140   20.2190 O   0  0  0  0  0  0  0  0  0  0  0  0
  -24.6310  -31.8940   23.2400 C   0  0  0  0  0  0  0  0  0  0  0  0
  -27.2060  -27.2540   20.1510 C   0  0  0  0  0  0  0  0  0  0  0  0
  -23.4210  -30.5100   21.5980 C   0  0  0  0  0  3  0  0  0  0  0  0
  -24.8620  -28.9580   20.1580 C   0  0  0  0  0  0  0  0  0  0  0  0
  -25.9720  -30.7920   21.4200 C   0  0  0  0  0  2  0  0  0  0  0  0
  -26.0430  -29.4100   20.7590 C   0  0  0  0  0  0  0  0  0  0  0  0
  -27.2140  -28.5710   20.7470 C   0  0  0  0  0  3  0  0  0  0  0  0
  -25.9860  -26.8870   19.5310 C   0  0  0  0  0  3  0  0  0  0  0  0
  -24.8430  -27.7060   19.5330 C   0  0  0  0  0  3  0  0  0  0  0  0
  -23.6330  -29.8460   20.2140 C   0  0  0  0  0  2  0  0  0  0  0  0
  -24.6950  -31.0850   22.1410 N   0  0  0  0  0  0  0  0  0  0  0  0
  -23.5480  -32.1750   23.7750 O   0  0  0  0  0  0  0  0  0  0  0  0
  -22.7510  -29.4930   22.5540 C   0  0  0  0  0  0  0  0  0  0  0  0
  -21.4240  -29.3170   22.4260 N   0  0  0  0  0  0  0  0  0  0  0  0
  -23.4260  -28.8650   23.3740 O   0  0  0  0  0  0  0  0  0  0  0  0
  -20.9370  -29.8750   21.7390 H   0  0  0  0  0  0  0  0  0  0  0  0
  -18.0450  -28.1150   22.9240 C   0  0  0  0  0  0  0  0  0  0  0  0
  -20.6040  -28.3770   23.1940 C   0  0  0  0  0  3  0  0  0  0  0  0
  -20.7060  -26.9460   22.6160 C   0  0  0  0  0  2  0  0  0  0  0  0
  -19.6050  -26.6250   21.6010 C   0  0  0  0  0  2  0  0  0  0  0  0
  -18.2240  -26.7670   22.2450 C   0  0  0  0  0  2  0  0  0  0  0  0
  -19.1630  -28.8780   23.3560 C   0  0  0  0  0  0  0  0  0  0  0  0
  -18.9420  -30.1370   23.9520 C   0  0  0  0  0  3  0  0  0  0  0  0
  -17.6360  -30.6360   24.1200 C   0  0  0  0  0  3  0  0  0  0  0  0
  -16.5330  -29.8710   23.7040 C   0  0  0  0  0  3  0  0  0  0  0  0
  -16.7380  -28.6120   23.1110 C   0  0  0  0  0  3  0  0  0  0  0  0
  -25.9140  -32.5230   23.8630 C   0  0  0  0  0  3  0  0  0  0  0  0
  -25.6070  -33.9210   24.2000 N   0  0  0  0  0  0  0  0  0  0  0  0
  -25.9230  -34.9760   23.4370 C   0  0  0  0  0  0  0  0  0  0  0  0
  -26.5710  -34.8750   22.3920 O   0  0  0  0  0  0  0  0  0  0  0  0
  -25.0280  -34.0720   25.0120 H   0  0  0  0  0  0  0  0  0  0  0  0
  -24.1820  -36.7670   23.1310 C   0  0  0  0  0  1  0  0  0  0  0  0
  -25.4460  -36.3650   23.9070 C   0  0  0  0  0  3  0  0  0  0  0  0
  -27.5980  -37.2590   24.6810 C   0  0  0  0  0  1  0  0  0  0  0  0
  -26.4730  -37.4200   23.7640 N   0  0  0  0  0  0  0  0  0  0  0  0
  -26.0670  -38.3400   23.9160 H   0  0  0  0  0  0  0  0  0  0  0  0
  -26.4260  -31.7470   25.1390 C   0  0  1  0  0  0  0  0  0  0  0  0
  -25.3320  -31.5130   26.2070 C   0  0  0  0  0  1  0  0  0  0  0  0
  -27.0040  -30.3670   24.7490 C   0  0  0  0  0  1  0  0  0  0  0  0
  -27.5800  -32.5360   25.8020 C   0  0  0  0  0  1  0  0  0  0  0  0
  1  4  1  0
  2  1  1  0
  2  5  1  0
  3  1  2  0
  3 52  1  0
  5 12  1  0
  5  4  1  0
  6  2  2  0
  8  7  1  0
  9  7  2  0
 10 12  2  0
 10 11  1  0
 11 13  1  0
 11  8  2  0
 12  9  1  0
 13 14  2  0
 14 15  1  0
 16 13  1  0
 17 22  1  0
 18 19  1  0
 18 17  1  0
 20 19  1  0
 20 27  1  0
 20 21  1  0
 22 16  1  0
 22 21  1  0
 23 16  2  0
 24 25  2  0
 25 44  1  0
 26 25  1  0
 26 29  1  0
 27 24  1  0
 27 28  1  0
 28 26  2  0
 29 30  1  0
 30 31  2  0
 32 35  1  0
 32 31  1  0
 33 32  2  0
 34 33  1  0
 34 29  2  0
 35 36  1  0
 36 37  1  0
 37 38  2  0
 39 38  1  0
 39 43  1  0
 40 39  2  0
 41 36  2  0
 41 40  1  0
 42 41  1  0
 44 45  1  0
 45 48  1  0
 45 47  1  0
 46 44  2  0
 49 24  1  0
 49 50  1  0
 51 49  1  0
 53 64  2  0
 54 52  1  0
 54 59  1  0
 55 63  1  0
 55 65  1  0
 56 62  1  0
 56 58  1  0
 57 63  1  0
 58 57  1  0
 59 58  2  0
 60 61  1  0
 60 54  2  0
 61 56  2  0
 62 55  1  0
 63 53  1  0
 65 67  2  0
 66 65  1  0
 68 66  1  0
 69 78  2  0
 69 74  1  0
 70 66  1  0
 70 74  1  0
 71 70  1  0
 72 73  1  0
 72 71  1  0
 73 69  1  0
 74 75  2  0
 75 76  1  0
 77 76  2  0
 78 77  1  0
 79 53  1  0
 79 80  1  0
 79 89  1  0
 80 83  1  0
 81 85  1  0
 81 80  1  0
 82 81  2  0
 85 84  1  0
 87 85  1  0
 87 88  1  0
 87 86  1  0
 89 92  1  1
 89 90  1  0
 91 89  1  0
M  ISO  4   3 101  13 100  16 100  52 101
M  END
>  <TORSDO>  (50) 
F 18

>  <SCORE>  (50) 
-14.920

>  <name>  (50) 
49

>  <ligand_id>  (50) 
49

>  <original_smiles>  (50) 
[H]N=C(C(=O)N1C([H])([H])C([H])([H])C([H])([H])C([H])(n2nc(-c3c([H])c([H])c(Oc4c([H])c([H])c(F)c([H])c4F)c([H])c3[H])c(C(=O)N([H])[H])c2N([H])[H])C1([H])[H])c1c([H])c([H])c([H])c(N2C(=O)C(=C([H])Oc3c([H])c([H])c4c(c3[H])C([H])([H])N(C(=O)C([H])(N([H])C(=O)C([H])(N([H])C([H])([H])[H])C([H])([H])[H])C(C([H])([H])[H])(C([H])([H])[H])C([H])([H])[H])C([H])(C(=O)N([H])C3([H])c5c([H])c([H])c([H])c([H])c5C([H])([H])C([H])([H])C3([H])[H])C4([H])[H])C2([H])[H])c1[H]

>  <smiles>  (50) 
[H]N=C(C(=O)N1C([H])([H])C([H])([H])C([H])([H])C([H])(n2nc(-c3c([H])c([H])c(Oc4c([H])c([H])c(F)c([H])c4F)c([H])c3[H])c(C(=O)N([H])[H])c2N([H])[H])C1([H])[H])c1c([H])c([H])c([H])c(N2C(=O)C(=C([H])Oc3c([H])c([H])c4c(c3[H])C([H])([H])N(C(=O)C([H])(N([H])C(=O)C([H])(N([H])C([H])([H])[H])C([H])([H])[H])C(C([H])([H])[H])(C([H])([H])[H])C([H])([H])[H])C([H])(C(=O)N([H])C3([H])c5c([H])c([H])c([H])c([H])c5C([H])([H])C([H])([H])C3([H])[H])C4([H])[H])C2([H])[H])c1[H]

$$$$
50:0:0
     RDKit          3D

 93101  0  0  1  0  0  0  0  0999 V2000
  -29.1370  -22.6710   20.3640 C   0  0  0  0  0  0  0  0  0  0  0  0
  -28.9820  -21.2770   20.6240 N   0  0  0  0  0  0  0  0  0  0  0  0
  -30.0580  -23.0840   19.6560 O   0  0  0  0  0  0  0  0  0  0  0  0
  -28.0800  -21.0300   21.0030 H   0  0  0  0  0  0  0  0  0  0  0  0
  -32.2930  -19.7510   20.0040 C   0  0  0  0  0  3  0  0  0  0  0  0
  -32.3700  -18.5500   19.4150 C   0  0  0  0  0  3  0  0  0  0  0  0
  -31.2150  -20.4320   20.4250 C   0  0  0  0  0  2  0  0  0  0  0  0
  -31.4790  -17.5480   19.3460 C   0  0  0  0  0  3  0  0  0  0  0  0
  -29.4880  -18.7530   20.5020 C   0  0  0  0  0  3  0  0  0  0  0  0
  -29.9010  -20.1110   20.4710 C   0  0  0  0  0  0  0  0  0  0  0  0
  -30.2670  -17.3930   20.1960 C   0  0  0  0  0  0  0  0  0  0  0  0
  -29.8710  -16.1480   20.5640 N   0  0  0  0  0  2  0  0  0  0  0  0
  -30.6190  -14.8980   20.3250 C   0  0  0  0  0  0  0  0  0  0  0  0
  -30.4050  -12.5600   19.4010 C   0  0  0  0  0  2  0  0  0  0  0  0
  -29.4900  -12.5580   18.1590 C   0  0  0  0  0  2  0  0  0  0  0  0
  -28.0140  -12.3860   18.5690 C   0  0  0  0  0  2  0  0  0  0  0  0
  -27.6150  -13.3020   19.7580 C   0  0  0  0  0  3  0  0  0  0  0  0
  -28.6690  -13.3170   20.8830 C   0  0  0  0  0  2  0  0  0  0  0  0
  -29.9650  -13.6710   20.2910 N   0  0  0  0  0  0  0  0  0  0  0  0
  -31.8120  -14.8600   20.0170 O   0  0  0  0  0  0  0  0  0  0  0  0
  -25.2320  -13.8550   20.5130 C   0  0  0  0  0  0  0  0  0  0  0  0
  -24.1760  -13.0710   20.8860 C   0  0  0  0  0  0  0  0  0  0  0  0
  -24.6500  -11.7240   20.8500 C   0  0  0  0  0  0  0  0  0  0  0  0
  -26.2810  -12.9880   20.2640 N   0  0  0  0  0  0  0  0  0  0  0  0
  -25.9410  -11.6990   20.5350 N   0  0  0  0  0  0  0  0  0  0  0  0
  -23.9310  -10.4570   21.0440 C   0  0  0  0  0  0  0  0  0  0  0  0
  -24.3710   -9.4890   21.9750 C   0  0  0  0  0  3  0  0  0  0  0  0
  -23.6510   -8.2880   22.1540 C   0  0  0  0  0  3  0  0  0  0  0  0
  -22.4740   -8.0470   21.4070 C   0  0  0  0  0  0  0  0  0  0  0  0
  -22.0510   -9.0030   20.4670 C   0  0  0  0  0  3  0  0  0  0  0  0
  -22.7720  -10.1950   20.2860 C   0  0  0  0  0  3  0  0  0  0  0  0
  -21.7220   -6.9000   21.4980 O   0  0  0  0  0  0  0  0  0  0  0  0
  -21.6860   -6.1570   22.6510 C   0  0  0  0  0  0  0  0  0  0  0  0
  -21.2580   -6.7050   23.8800 C   0  0  0  0  0  3  0  0  0  0  0  0
  -21.1660   -5.8880   25.0230 C   0  0  0  0  0  3  0  0  0  0  0  0
  -21.4930   -4.5210   24.9400 C   0  0  0  0  0  0  0  0  0  0  0  0
  -21.9150   -3.9710   23.7160 C   0  0  0  0  0  3  0  0  0  0  0  0
  -22.0080   -4.7870   22.5740 C   0  0  0  0  0  0  0  0  0  0  0  0
  -22.3940   -4.2470   21.3940 F   0  0  0  0  0  0  0  0  0  0  0  0
  -21.3990   -3.7320   26.0360 F   0  0  0  0  0  0  0  0  0  0  0  0
  -22.7760  -13.5400   21.1600 C   0  0  0  0  0  0  0  0  0  0  0  0
  -22.0530  -12.8440   22.0290 N   0  0  0  0  0  0  0  0  0  0  0  0
  -22.3320  -14.5650   20.6420 O   0  0  0  0  0  0  0  0  0  0  0  0
  -22.4180  -12.0160   22.4770 H   0  0  0  0  0  0  0  0  0  0  0  0
  -21.1160  -13.1480   22.2540 H   0  0  0  0  0  0  0  0  0  0  0  0
  -25.3850  -15.2290   20.3410 N   0  0  0  0  0  0  0  0  0  0  0  0
  -24.6160  -15.8790   20.4680 H   0  0  0  0  0  0  0  0  0  0  0  0
  -26.2470  -15.6750   20.0530 H   0  0  0  0  0  0  0  0  0  0  0  0
  -27.8640  -25.0170   20.9650 C   0  0  0  0  0  3  0  0  0  0  0  0
  -28.1530  -23.6300   21.0330 C   0  0  0  0  0  0  0  0  0  0  0  0
  -27.3940  -23.0150   21.9570 O   0  0  0  0  0  0  0  0  0  0  0  0
  -27.8200  -22.1990   22.1860 H   0  0  0  0  0  0  0  0  0  0  0  0
  -28.2470  -26.2370   20.2940 O   0  0  0  0  0  0  0  0  0  0  0  0
  -24.6090  -31.8890   23.2260 C   0  0  0  0  0  0  0  0  0  0  0  0
  -27.2310  -27.2430   20.2080 C   0  0  0  0  0  0  0  0  0  0  0  0
  -23.4170  -30.4830   21.5890 C   0  0  0  0  0  3  0  0  0  0  0  0
  -24.8840  -28.9280   20.1660 C   0  0  0  0  0  0  0  0  0  0  0  0
  -25.9650  -30.7910   21.4140 C   0  0  0  0  0  2  0  0  0  0  0  0
  -26.0580  -29.4020   20.7680 C   0  0  0  0  0  0  0  0  0  0  0  0
  -27.2380  -28.5740   20.7740 C   0  0  0  0  0  3  0  0  0  0  0  0
  -26.0390  -26.8630   19.5560 C   0  0  0  0  0  3  0  0  0  0  0  0
  -24.8830  -27.6710   19.5430 C   0  0  0  0  0  3  0  0  0  0  0  0
  -23.6420  -29.8030   20.2120 C   0  0  0  0  0  2  0  0  0  0  0  0
  -24.6840  -31.0700   22.1330 N   0  0  0  0  0  0  0  0  0  0  0  0
  -23.5210  -32.1670   23.7530 O   0  0  0  0  0  0  0  0  0  0  0  0
  -22.7440  -29.4740   22.5520 C   0  0  0  0  0  0  0  0  0  0  0  0
  -21.4160  -29.3030   22.4270 N   0  0  0  0  0  0  0  0  0  0  0  0
  -23.4190  -28.8450   23.3730 O   0  0  0  0  0  0  0  0  0  0  0  0
  -20.9310  -29.8520   21.7310 H   0  0  0  0  0  0  0  0  0  0  0  0
  -18.0330  -28.1140   22.9290 C   0  0  0  0  0  0  0  0  0  0  0  0
  -20.5930  -28.3680   23.1990 C   0  0  0  0  0  3  0  0  0  0  0  0
  -20.6930  -26.9370   22.6220 C   0  0  0  0  0  2  0  0  0  0  0  0
  -19.5880  -26.6170   21.6090 C   0  0  0  0  0  2  0  0  0  0  0  0
  -18.2070  -26.7650   22.2530 C   0  0  0  0  0  2  0  0  0  0  0  0
  -19.1540  -28.8730   23.3590 C   0  0  0  0  0  0  0  0  0  0  0  0
  -18.9360  -30.1350   23.9550 C   0  0  0  0  0  3  0  0  0  0  0  0
  -17.6320  -30.6370   24.1230 C   0  0  0  0  0  3  0  0  0  0  0  0
  -16.5260  -29.8730   23.7110 C   0  0  0  0  0  3  0  0  0  0  0  0
  -16.7270  -28.6140   23.1180 C   0  0  0  0  0  3  0  0  0  0  0  0
  -25.8840  -32.5270   23.8550 C   0  0  0  0  0  3  0  0  0  0  0  0
  -26.3920  -31.7640   25.1390 C   0  0  1  0  0  0  0  0  0  0  0  0
  -25.2900  -31.5340   26.2000 C   0  0  0  0  0  1  0  0  0  0  0  0
  -26.9720  -30.3830   24.7590 C   0  0  0  0  0  1  0  0  0  0  0  0
  -27.5430  -32.5590   25.8000 C   0  0  0  0  0  1  0  0  0  0  0  0
  -25.5710  -33.9280   24.1760 N   0  0  0  0  0  0  0  0  0  0  0  0
  -25.9100  -34.9790   23.4160 C   0  0  0  0  0  0  0  0  0  0  0  0
  -26.5810  -34.8700   22.3860 O   0  0  0  0  0  0  0  0  0  0  0  0
  -24.9720  -34.0860   24.9730 H   0  0  0  0  0  0  0  0  0  0  0  0
  -24.1870  -36.7730   23.0550 C   0  0  0  0  0  1  0  0  0  0  0  0
  -25.4260  -36.3710   23.8690 C   0  0  0  0  0  3  0  0  0  0  0  0
  -27.5610  -37.2490   24.7040 C   0  0  0  0  0  1  0  0  0  0  0  0
  -26.4620  -37.4190   23.7570 N   0  0  0  0  0  0  0  0  0  0  0  0
  -26.0580  -38.3400   23.9000 H   0  0  0  0  0  0  0  0  0  0  0  0
  1  2  1  0
  1 50  1  0
  2  4  1  0
  3  1  2  0
  5  7  1  0
  6  5  2  0
  7 10  1  0
  8  6  1  0
  8 11  2  0
 10  9  2  0
 10  2  1  0
 11  9  1  0
 11 12  1  0
 13 12  1  0
 14 19  1  0
 15 16  1  0
 15 14  1  0
 17 16  1  0
 17 24  1  0
 17 18  1  0
 19 13  1  0
 19 18  1  0
 20 13  2  0
 21 22  2  0
 22 41  1  0
 23 22  1  0
 23 26  1  0
 24 21  1  0
 24 25  1  0
 25 23  2  0
 26 27  1  0
 27 28  2  0
 29 32  1  0
 29 28  1  0
 30 29  2  0
 31 30  1  0
 31 26  2  0
 32 33  1  0
 33 34  1  0
 34 35  2  0
 36 35  1  0
 36 40  1  0
 37 36  2  0
 38 33  2  0
 38 37  1  0
 39 38  1  0
 41 42  1  0
 42 45  1  0
 42 44  1  0
 43 41  2  0
 46 47  1  0
 46 21  1  0
 48 46  1  0
 49 50  2  0
 50 51  1  0
 51 52  1  0
 53 49  1  0
 54 65  2  0
 55 53  1  0
 55 60  1  0
 56 64  1  0
 56 66  1  0
 57 63  1  0
 57 59  1  0
 58 64  1  0
 59 60  2  0
 59 58  1  0
 61 55  2  0
 62 61  1  0
 62 57  2  0
 63 56  1  0
 64 54  1  0
 66 68  2  0
 67 66  1  0
 69 67  1  0
 70 79  2  0
 70 75  1  0
 71 67  1  0
 71 75  1  0
 72 71  1  0
 73 74  1  0
 73 72  1  0
 74 70  1  0
 75 76  2  0
 76 77  1  0
 78 77  2  0
 79 78  1  0
 80 54  1  0
 80 85  1  0
 80 81  1  0
 81 84  1  1
 81 82  1  0
 83 81  1  0
 85 88  1  0
 86 90  1  0
 86 85  1  0
 87 86  2  0
 90 89  1  0
 92 90  1  0
 92 93  1  0
 92 91  1  0
M  ISO  4  12 100  13 100  49 101  53 101
M  END
>  <TORSDO>  (51) 
F 19

>  <SCORE>  (51) 
-14.785

>  <name>  (51) 
50

>  <ligand_id>  (51) 
50

>  <original_smiles>  (51) 
[H]OC(C(=O)N([H])c1c([H])c([H])c([H])c([H])c(=NC(=O)N2C([H])([H])C([H])([H])C([H])([H])C([H])(n3nc(-c4c([H])c([H])c(Oc5c([H])c([H])c(F)c([H])c5F)c([H])c4[H])c(C(=O)N([H])[H])c3N([H])[H])C2([H])[H])c1[H])=C([H])Oc1c([H])c([H])c2c(c1[H])C([H])([H])N(C(=O)C([H])(N([H])C(=O)C([H])(N([H])C([H])([H])[H])C([H])([H])[H])C(C([H])([H])[H])(C([H])([H])[H])C([H])([H])[H])C([H])(C(=O)N([H])C1([H])c3c([H])c([H])c([H])c([H])c3C([H])([H])C([H])([H])C1([H])[H])C2([H])[H]

>  <smiles>  (51) 
[H]OC(C(=O)N([H])c1c([H])c([H])c([H])c([H])c(=NC(=O)N2C([H])([H])C([H])([H])C([H])([H])C([H])(n3nc(-c4c([H])c([H])c(Oc5c([H])c([H])c(F)c([H])c5F)c([H])c4[H])c(C(=O)N([H])[H])c3N([H])[H])C2([H])[H])c1[H])=C([H])Oc1c([H])c([H])c2c(c1[H])C([H])([H])N(C(=O)C([H])(N([H])C(=O)C([H])(N([H])C([H])([H])[H])C([H])([H])[H])C(C([H])([H])[H])(C([H])([H])[H])C([H])([H])[H])C([H])(C(=O)N([H])C1([H])c3c([H])c([H])c([H])c([H])c3C([H])([H])C([H])([H])C1([H])[H])C2([H])[H]

$$$$
51:0:0
     RDKit          3D

 94103  0  0  1  0  0  0  0  0999 V2000
  -27.7930  -24.9590   21.7380 C   0  0  0  0  0  3  0  0  0  0  0  0
  -28.3050  -25.2130   20.5180 C   0  0  0  0  0  0  0  0  0  0  0  0
  -28.9270  -24.0900   19.7450 C   0  0  0  0  0  0  0  0  0  0  0  0
  -27.7750  -23.5990   22.4000 C   0  0  0  0  0  2  0  0  0  0  0  0
  -28.0810  -22.4370   21.4340 C   0  0  0  0  0  2  0  0  0  0  0  0
  -28.8750  -22.7950   20.2520 N   0  0  0  0  0  0  0  0  0  0  0  0
  -29.5020  -24.3090   18.6730 O   0  0  0  0  0  0  0  0  0  0  0  0
  -28.3690  -26.5530   20.0680 O   0  0  0  0  0  0  0  0  0  0  0  0
  -24.6400  -31.8920   23.2170 C   0  0  0  0  0  0  0  0  0  0  0  0
  -27.2400  -27.3790   20.1040 C   0  0  0  0  0  0  0  0  0  0  0  0
  -23.4230  -30.5020   21.5760 C   0  0  0  0  0  3  0  0  0  0  0  0
  -24.8650  -28.9610   20.1310 C   0  0  0  0  0  0  0  0  0  0  0  0
  -25.9580  -30.8330   21.3710 C   0  0  0  0  0  2  0  0  0  0  0  0
  -26.0370  -29.4590   20.7180 C   0  0  0  0  0  0  0  0  0  0  0  0
  -27.2290  -28.6780   20.6940 C   0  0  0  0  0  3  0  0  0  0  0  0
  -26.0490  -26.9230   19.5030 C   0  0  0  0  0  3  0  0  0  0  0  0
  -24.8710  -27.6970   19.5160 C   0  0  0  0  0  3  0  0  0  0  0  0
  -23.6260  -29.8320   20.1920 C   0  0  0  0  0  2  0  0  0  0  0  0
  -24.6930  -31.0920   22.1110 N   0  0  0  0  0  0  0  0  0  0  0  0
  -23.5610  -32.1630   23.7640 O   0  0  0  0  0  0  0  0  0  0  0  0
  -22.7720  -29.4780   22.5360 C   0  0  0  0  0  0  0  0  0  0  0  0
  -21.4460  -29.3000   22.4210 N   0  0  0  0  0  0  0  0  0  0  0  0
  -23.4600  -28.8470   23.3430 O   0  0  0  0  0  0  0  0  0  0  0  0
  -20.9500  -29.8610   21.7420 H   0  0  0  0  0  0  0  0  0  0  0  0
  -18.0740  -28.0940   22.9380 C   0  0  0  0  0  0  0  0  0  0  0  0
  -20.6340  -28.3560   23.1910 C   0  0  0  0  0  3  0  0  0  0  0  0
  -20.7340  -26.9290   22.6060 C   0  0  0  0  0  2  0  0  0  0  0  0
  -19.6250  -26.6100   21.5980 C   0  0  0  0  0  2  0  0  0  0  0  0
  -18.2480  -26.7490   22.2530 C   0  0  0  0  0  2  0  0  0  0  0  0
  -19.1960  -28.8560   23.3640 C   0  0  0  0  0  0  0  0  0  0  0  0
  -18.9780  -30.1140   23.9650 C   0  0  0  0  0  3  0  0  0  0  0  0
  -17.6740  -30.6120   24.1450 C   0  0  0  0  0  3  0  0  0  0  0  0
  -16.5680  -29.8470   23.7350 C   0  0  0  0  0  3  0  0  0  0  0  0
  -16.7690  -28.5900   23.1380 C   0  0  0  0  0  3  0  0  0  0  0  0
  -25.9280  -32.5210   23.8310 C   0  0  0  0  0  3  0  0  0  0  0  0
  -25.6190  -33.9150   24.1770 N   0  0  0  0  0  0  0  0  0  0  0  0
  -25.9440  -34.9760   23.4250 C   0  0  0  0  0  0  0  0  0  0  0  0
  -26.6030  -34.8830   22.3870 O   0  0  0  0  0  0  0  0  0  0  0  0
  -25.0310  -34.0620   24.9840 H   0  0  0  0  0  0  0  0  0  0  0  0
  -24.2100  -36.7710   23.1070 C   0  0  0  0  0  1  0  0  0  0  0  0
  -25.4600  -36.3600   23.9000 C   0  0  0  0  0  3  0  0  0  0  0  0
  -27.6020  -37.2410   24.7140 C   0  0  0  0  0  1  0  0  0  0  0  0
  -26.4910  -37.4150   23.7830 N   0  0  0  0  0  0  0  0  0  0  0  0
  -26.0850  -38.3340   23.9410 H   0  0  0  0  0  0  0  0  0  0  0  0
  -26.4600  -31.7400   25.0970 C   0  0  1  0  0  0  0  0  0  0  0  0
  -25.3790  -31.4930   26.1740 C   0  0  0  0  0  1  0  0  0  0  0  0
  -27.0420  -30.3670   24.6900 C   0  0  0  0  0  1  0  0  0  0  0  0
  -27.6170  -32.5310   25.7510 C   0  0  0  0  0  1  0  0  0  0  0  0
  -29.5650  -21.6550   19.5160 C   0  0  0  0  0  2  0  0  0  0  0  0
  -28.5250  -19.3570   20.3800 C   0  0  0  0  0  3  0  0  0  0  0  0
  -28.6180  -17.9470   20.5900 C   0  0  0  0  0  3  0  0  0  0  0  0
  -30.9280  -17.9760   19.9490 C   0  0  0  0  0  3  0  0  0  0  0  0
  -29.6380  -20.1300   19.9520 C   0  0  0  0  0  0  0  0  0  0  0  0
  -29.8110  -17.2040   20.3590 C   0  0  0  0  0  0  0  0  0  0  0  0
  -30.8420  -19.3890   19.7500 C   0  0  0  0  0  0  0  0  0  0  0  0
  -31.9500  -20.0360   19.3140 F   0  0  0  0  0  0  0  0  0  0  0  0
  -30.6070  -14.7170   20.1330 C   0  0  0  0  0  0  0  0  0  0  0  0
  -30.3900  -12.4850   19.0520 C   0  0  0  0  0  2  0  0  0  0  0  0
  -29.4070  -12.6270   17.8670 C   0  0  0  0  0  2  0  0  0  0  0  0
  -27.9460  -12.4650   18.3380 C   0  0  0  0  0  2  0  0  0  0  0  0
  -27.6260  -13.3050   19.6030 C   0  0  0  0  0  3  0  0  0  0  0  0
  -28.7190  -13.1250   20.6820 C   0  0  0  0  0  2  0  0  0  0  0  0
  -30.0090  -13.4840   20.0710 N   0  0  0  0  0  0  0  0  0  0  0  0
  -31.7510  -14.8940   19.7060 O   0  0  0  0  0  0  0  0  0  0  0  0
  -29.7930  -15.7450   20.5490 N   0  0  0  0  0  0  0  0  0  0  0  0
  -28.9220  -15.3960   20.9140 H   0  0  0  0  0  0  0  0  0  0  0  0
  -25.2560  -13.9000   20.3960 C   0  0  0  0  0  0  0  0  0  0  0  0
  -24.2010  -13.1240   20.7960 C   0  0  0  0  0  0  0  0  0  0  0  0
  -24.6630  -11.7730   20.7450 C   0  0  0  0  0  0  0  0  0  0  0  0
  -26.2920  -13.0200   20.1240 N   0  0  0  0  0  0  0  0  0  0  0  0
  -25.9440  -11.7360   20.3950 N   0  0  0  0  0  0  0  0  0  0  0  0
  -23.9450  -10.5100   20.9520 C   0  0  0  0  0  0  0  0  0  0  0  0
  -24.3960   -9.5450   21.8800 C   0  0  0  0  0  3  0  0  0  0  0  0
  -23.6780   -8.3460   22.0760 C   0  0  0  0  0  3  0  0  0  0  0  0
  -22.4920   -8.1030   21.3420 C   0  0  0  0  0  0  0  0  0  0  0  0
  -22.0580   -9.0560   20.4030 C   0  0  0  0  0  3  0  0  0  0  0  0
  -22.7790  -10.2460   20.2070 C   0  0  0  0  0  3  0  0  0  0  0  0
  -21.7450   -6.9550   21.4450 O   0  0  0  0  0  0  0  0  0  0  0  0
  -21.7060   -6.2240   22.6050 C   0  0  0  0  0  0  0  0  0  0  0  0
  -21.2910   -6.7920   23.8300 C   0  0  0  0  0  3  0  0  0  0  0  0
  -21.1980   -5.9860   24.9820 C   0  0  0  0  0  3  0  0  0  0  0  0
  -21.5100   -4.6150   24.9120 C   0  0  0  0  0  0  0  0  0  0  0  0
  -21.9190   -4.0470   23.6920 C   0  0  0  0  0  3  0  0  0  0  0  0
  -22.0130   -4.8500   22.5420 C   0  0  0  0  0  0  0  0  0  0  0  0
  -22.3860   -4.2940   21.3630 F   0  0  0  0  0  0  0  0  0  0  0  0
  -21.4140   -3.8400   26.0170 F   0  0  0  0  0  0  0  0  0  0  0  0
  -22.8130  -13.5990   21.1120 C   0  0  0  0  0  0  0  0  0  0  0  0
  -22.1120  -12.9010   22.0000 N   0  0  0  0  0  0  0  0  0  0  0  0
  -22.3570  -14.6250   20.6090 O   0  0  0  0  0  0  0  0  0  0  0  0
  -22.4940  -12.0720   22.4310 H   0  0  0  0  0  0  0  0  0  0  0  0
  -21.1820  -13.2040   22.2540 H   0  0  0  0  0  0  0  0  0  0  0  0
  -25.4100  -15.2710   20.2170 N   0  0  0  0  0  0  0  0  0  0  0  0
  -24.6320  -15.9120   20.3290 H   0  0  0  0  0  0  0  0  0  0  0  0
  -26.2210  -15.7080   19.8000 H   0  0  0  0  0  0  0  0  0  0  0  0
  1  4  1  0
  2  1  2  0
  3  6  1  0
  3  2  1  0
  5  4  1  0
  6  5  1  0
  7  3  2  0
  8 10  1  0
  8  2  1  0
  9 20  2  0
 10 15  1  0
 11 19  1  0
 11 21  1  0
 12 18  1  0
 12 14  1  0
 13 19  1  0
 14 13  1  0
 15 14  2  0
 16 17  1  0
 16 10  2  0
 17 12  2  0
 18 11  1  0
 19  9  1  0
 21 23  2  0
 22 21  1  0
 24 22  1  0
 25 34  2  0
 25 30  1  0
 26 22  1  0
 26 30  1  0
 27 26  1  0
 28 29  1  0
 28 27  1  0
 29 25  1  0
 30 31  2  0
 31 32  1  0
 33 32  2  0
 34 33  1  0
 35  9  1  0
 35 36  1  0
 35 45  1  0
 36 39  1  0
 37 41  1  0
 37 36  1  0
 38 37  2  0
 41 40  1  0
 43 41  1  0
 43 44  1  0
 43 42  1  0
 45 48  1  1
 45 46  1  0
 47 45  1  0
 49 53  1  0
 49  6  1  0
 50 51  1  0
 52 54  1  0
 53 50  2  0
 54 65  1  0
 54 51  2  0
 55 52  2  0
 55 53  1  0
 56 55  1  0
 57 65  1  0
 58 63  1  0
 59 60  1  0
 59 58  1  0
 61 60  1  0
 61 70  1  0
 61 62  1  0
 63 57  1  0
 63 62  1  0
 64 57  2  0
 65 66  1  0
 67 68  2  0
 68 87  1  0
 69 68  1  0
 69 72  1  0
 70 71  1  0
 70 67  1  0
 71 69  2  0
 72 73  1  0
 73 74  2  0
 75 78  1  0
 75 74  1  0
 76 75  2  0
 77 76  1  0
 77 72  2  0
 78 79  1  0
 79 80  1  0
 80 81  2  0
 82 81  1  0
 82 86  1  0
 83 82  2  0
 84 79  2  0
 84 83  1  0
 85 84  1  0
 87 88  1  0
 88 91  1  0
 88 90  1  0
 89 87  2  0
 92 93  1  0
 92 67  1  0
 94 92  1  0
M  ISO  4   2 101   8 101  57 100  65 100
M  END
>  <TORSDO>  (52) 
F 18

>  <SCORE>  (52) 
-14.551

>  <name>  (52) 
51

>  <ligand_id>  (52) 
51

>  <original_smiles>  (52) 
[H]C1=C(Oc2c([H])c([H])c3c(c2[H])C([H])([H])N(C(=O)C([H])(N([H])C(=O)C([H])(N([H])C([H])([H])[H])C([H])([H])[H])C(C([H])([H])[H])(C([H])([H])[H])C([H])([H])[H])C([H])(C(=O)N([H])C2([H])c4c([H])c([H])c([H])c([H])c4C([H])([H])C([H])([H])C2([H])[H])C3([H])[H])C(=O)N(C([H])([H])c2c([H])c([H])c(N([H])C(=O)N3C([H])([H])C([H])([H])C([H])([H])C([H])(n4nc(-c5c([H])c([H])c(Oc6c([H])c([H])c(F)c([H])c6F)c([H])c5[H])c(C(=O)N([H])[H])c4N([H])[H])C3([H])[H])c([H])c2F)C([H])([H])C1([H])[H]

>  <smiles>  (52) 
[H]C1=C(Oc2c([H])c([H])c3c(c2[H])C([H])([H])N(C(=O)C([H])(N([H])C(=O)C([H])(N([H])C([H])([H])[H])C([H])([H])[H])C(C([H])([H])[H])(C([H])([H])[H])C([H])([H])[H])C([H])(C(=O)N([H])C2([H])c4c([H])c([H])c([H])c([H])c4C([H])([H])C([H])([H])C2([H])[H])C3([H])[H])C(=O)N(C([H])([H])c2c([H])c([H])c(N([H])C(=O)N3C([H])([H])C([H])([H])C([H])([H])C([H])(n4nc(-c5c([H])c([H])c(Oc6c([H])c([H])c(F)c([H])c6F)c([H])c5[H])c(C(=O)N([H])[H])c4N([H])[H])C3([H])[H])c([H])c2F)C([H])([H])C1([H])[H]

$$$$
52:0:0
     RDKit          3D

 96105  0  0  1  0  0  0  0  0999 V2000
  -30.4420  -24.4630   20.3550 C   0  0  0  0  0  3  0  0  0  0  0  0
  -31.2600  -22.2120   20.5430 C   0  0  0  0  0  3  0  0  0  0  0  0
  -29.2140  -24.0430   19.9860 C   0  0  0  0  0  0  0  0  0  0  0  0
  -31.5080  -23.5300   20.6400 C   0  0  0  0  0  0  0  0  0  0  0  0
  -28.9600  -22.5540   19.8740 C   0  0  0  0  0  0  0  0  0  0  0  0
  -30.0030  -21.6820   20.1800 N   0  0  0  0  0  0  0  0  0  0  0  0
  -27.8690  -22.1220   19.4890 O   0  0  0  0  0  0  0  0  0  0  0  0
  -31.0460  -19.4210   19.6730 C   0  0  0  0  0  3  0  0  0  0  0  0
  -31.0780  -17.9940   19.7450 C   0  0  0  0  0  3  0  0  0  0  0  0
  -28.8930  -18.0260   20.7380 C   0  0  0  0  0  3  0  0  0  0  0  0
  -29.9450  -20.2030   20.1420 C   0  0  0  0  0  0  0  0  0  0  0  0
  -30.0010  -17.2490   20.2960 C   0  0  0  0  0  0  0  0  0  0  0  0
  -28.8590  -19.4530   20.6730 C   0  0  0  0  0  0  0  0  0  0  0  0
  -27.7840  -20.0960   21.1880 F   0  0  0  0  0  0  0  0  0  0  0  0
  -30.7110  -14.7550   19.9370 C   0  0  0  0  0  0  0  0  0  0  0  0
  -30.4410  -12.5250   18.8660 C   0  0  0  0  0  2  0  0  0  0  0  0
  -29.4100  -12.6630   17.7240 C   0  0  0  0  0  2  0  0  0  0  0  0
  -27.9720  -12.4960   18.2530 C   0  0  0  0  0  2  0  0  0  0  0  0
  -27.7020  -13.3420   19.5260 C   0  0  0  0  0  3  0  0  0  0  0  0
  -28.8380  -13.1710   20.5610 C   0  0  0  0  0  2  0  0  0  0  0  0
  -30.1030  -13.5260   19.8980 N   0  0  0  0  0  0  0  0  0  0  0  0
  -31.8320  -14.9280   19.4480 O   0  0  0  0  0  0  0  0  0  0  0  0
  -29.9390  -15.7850   20.4140 N   0  0  0  0  0  0  0  0  0  0  0  0
  -29.1030  -15.4430   20.8610 H   0  0  0  0  0  0  0  0  0  0  0  0
  -25.3820  -13.9380   20.4580 C   0  0  0  0  0  0  0  0  0  0  0  0
  -24.3350  -13.1610   20.8740 C   0  0  0  0  0  0  0  0  0  0  0  0
  -24.7690  -11.8070   20.7410 C   0  0  0  0  0  0  0  0  0  0  0  0
  -26.3900  -13.0550   20.1000 N   0  0  0  0  0  0  0  0  0  0  0  0
  -26.0300  -11.7670   20.3300 N   0  0  0  0  0  0  0  0  0  0  0  0
  -24.0390  -10.5460   20.9270 C   0  0  0  0  0  0  0  0  0  0  0  0
  -24.4620   -9.5790   21.8650 C   0  0  0  0  0  3  0  0  0  0  0  0
  -23.7310   -8.3830   22.0380 C   0  0  0  0  0  3  0  0  0  0  0  0
  -22.5650   -8.1470   21.2740 C   0  0  0  0  0  0  0  0  0  0  0  0
  -22.1600   -9.1040   20.3260 C   0  0  0  0  0  3  0  0  0  0  0  0
  -22.8910  -10.2910   20.1510 C   0  0  0  0  0  3  0  0  0  0  0  0
  -21.8080   -7.0030   21.3560 O   0  0  0  0  0  0  0  0  0  0  0  0
  -21.6620   -6.3200   22.5370 C   0  0  0  0  0  0  0  0  0  0  0  0
  -21.1100   -6.9280   23.6860 C   0  0  0  0  0  3  0  0  0  0  0  0
  -20.9130   -6.1700   24.8570 C   0  0  0  0  0  3  0  0  0  0  0  0
  -21.2570   -4.8050   24.8810 C   0  0  0  0  0  0  0  0  0  0  0  0
  -21.8010   -4.1960   23.7350 C   0  0  0  0  0  3  0  0  0  0  0  0
  -21.9990   -4.9520   22.5660 C   0  0  0  0  0  0  0  0  0  0  0  0
  -22.5030   -4.3550   21.4590 F   0  0  0  0  0  0  0  0  0  0  0  0
  -21.0610   -4.0740   26.0020 F   0  0  0  0  0  0  0  0  0  0  0  0
  -22.9710  -13.6430   21.2780 C   0  0  0  0  0  0  0  0  0  0  0  0
  -22.3040  -12.9200   22.1710 N   0  0  0  0  0  0  0  0  0  0  0  0
  -22.5080  -14.6950   20.8380 O   0  0  0  0  0  0  0  0  0  0  0  0
  -22.6910  -12.0670   22.5470 H   0  0  0  0  0  0  0  0  0  0  0  0
  -21.3930  -13.2260   22.4840 H   0  0  0  0  0  0  0  0  0  0  0  0
  -25.5560  -15.3130   20.3330 N   0  0  0  0  0  0  0  0  0  0  0  0
  -24.8070  -15.9700   20.5270 H   0  0  0  0  0  0  0  0  0  0  0  0
  -26.3710  -15.7540   19.9270 H   0  0  0  0  0  0  0  0  0  0  0  0
  -32.7220  -23.9620   20.9990 O   0  0  0  0  0  0  0  0  0  0  0  0
  -32.7050  -24.9120   21.0030 H   0  0  0  0  0  0  0  0  0  0  0  0
  -28.0800  -25.0700   19.6530 C   0  0  0  0  0  2  0  0  0  0  0  0
  -28.2900  -26.5210   19.9020 O   0  0  0  0  0  0  0  0  0  0  0  0
  -24.4700  -31.7340   23.1320 C   0  0  0  0  0  0  0  0  0  0  0  0
  -27.1510  -27.3490   19.8870 C   0  0  0  0  0  0  0  0  0  0  0  0
  -23.2750  -30.3560   21.4690 C   0  0  0  0  0  3  0  0  0  0  0  0
  -24.7410  -28.8960   19.9690 C   0  0  0  0  0  0  0  0  0  0  0  0
  -25.8020  -30.7500   21.2530 C   0  0  0  0  0  2  0  0  0  0  0  0
  -25.9080  -29.3960   20.5600 C   0  0  0  0  0  0  0  0  0  0  0  0
  -27.1150  -28.6350   20.5110 C   0  0  0  0  0  3  0  0  0  0  0  0
  -25.9550  -26.9060   19.2710 C   0  0  0  0  0  3  0  0  0  0  0  0
  -24.7660  -27.6560   19.3150 C   0  0  0  0  0  3  0  0  0  0  0  0
  -23.4830  -29.7330   20.0640 C   0  0  0  0  0  2  0  0  0  0  0  0
  -24.5350  -30.9620   22.0080 N   0  0  0  0  0  0  0  0  0  0  0  0
  -23.3890  -31.9660   23.6920 O   0  0  0  0  0  0  0  0  0  0  0  0
  -22.6580  -29.2910   22.4060 C   0  0  0  0  0  0  0  0  0  0  0  0
  -21.3420  -29.0540   22.2690 N   0  0  0  0  0  0  0  0  0  0  0  0
  -23.3610  -28.6820   23.2160 O   0  0  0  0  0  0  0  0  0  0  0  0
  -20.8310  -29.6000   21.5880 H   0  0  0  0  0  0  0  0  0  0  0  0
  -18.0240  -27.6860   22.7190 C   0  0  0  0  0  0  0  0  0  0  0  0
  -20.5630  -28.0670   23.0190 C   0  0  0  0  0  3  0  0  0  0  0  0
  -20.7410  -26.6500   22.4260 C   0  0  0  0  0  2  0  0  0  0  0  0
  -19.6660  -26.2880   21.3960 C   0  0  0  0  0  2  0  0  0  0  0  0
  -18.2740  -26.3560   22.0280 C   0  0  0  0  0  2  0  0  0  0  0  0
  -19.0990  -28.4960   23.1710 C   0  0  0  0  0  0  0  0  0  0  0  0
  -18.8120  -29.7380   23.7760 C   0  0  0  0  0  3  0  0  0  0  0  0
  -17.4820  -30.1720   23.9370 C   0  0  0  0  0  3  0  0  0  0  0  0
  -16.4220  -29.3590   23.5010 C   0  0  0  0  0  3  0  0  0  0  0  0
  -16.6930  -28.1180   22.8980 C   0  0  0  0  0  3  0  0  0  0  0  0
  -25.7470  -32.3810   23.7510 C   0  0  0  0  0  3  0  0  0  0  0  0
  -26.2770  -31.6120   25.0240 C   0  0  1  0  0  0  0  0  0  0  0  0
  -25.1880  -31.3540   26.0910 C   0  0  0  0  0  1  0  0  0  0  0  0
  -26.8830  -30.2450   24.6260 C   0  0  0  0  0  1  0  0  0  0  0  0
  -27.4150  -32.4220   25.6880 C   0  0  0  0  0  1  0  0  0  0  0  0
  -25.4190  -33.7730   24.0880 N   0  0  0  0  0  0  0  0  0  0  0  0
  -25.7150  -34.8330   23.3210 C   0  0  0  0  0  0  0  0  0  0  0  0
  -26.3610  -34.7400   22.2730 O   0  0  0  0  0  0  0  0  0  0  0  0
  -24.8420  -33.9180   24.9030 H   0  0  0  0  0  0  0  0  0  0  0  0
  -23.9330  -36.5830   23.0260 C   0  0  0  0  0  1  0  0  0  0  0  0
  -25.2130  -36.2110   23.7900 C   0  0  0  0  0  3  0  0  0  0  0  0
  -27.3510  -37.1560   24.5430 C   0  0  0  0  0  1  0  0  0  0  0  0
  -26.2160  -37.2870   23.6330 N   0  0  0  0  0  0  0  0  0  0  0  0
  -25.7930  -38.1990   23.7850 H   0  0  0  0  0  0  0  0  0  0  0  0
  1  4  1  0
  2  4  2  0
  3  1  2  0
  4 53  1  0
  5  3  1  0
  5  6  1  0
  6  2  1  0
  7  5  2  0
  8  9  2  0
  8 11  1  0
  9 12  1  0
 11  6  1  0
 11 13  2  0
 12 23  1  0
 12 10  2  0
 13 10  1  0
 13 14  1  0
 15 23  1  0
 16 21  1  0
 17 18  1  0
 17 16  1  0
 19 18  1  0
 19 28  1  0
 19 20  1  0
 21 15  1  0
 21 20  1  0
 22 15  2  0
 23 24  1  0
 25 26  2  0
 26 45  1  0
 27 26  1  0
 27 30  1  0
 28 29  1  0
 28 25  1  0
 29 27  2  0
 30 31  1  0
 31 32  2  0
 33 36  1  0
 33 32  1  0
 34 33  2  0
 35 34  1  0
 35 30  2  0
 36 37  1  0
 37 42  2  0
 37 38  1  0
 38 39  2  0
 39 40  1  0
 40 44  1  0
 41 40  2  0
 42 41  1  0
 43 42  1  0
 45 46  1  0
 46 49  1  0
 46 48  1  0
 47 45  2  0
 50 25  1  0
 50 51  1  0
 52 50  1  0
 53 54  1  0
 55 56  1  0
 55  3  1  0
 57 68  2  0
 58 56  1  0
 58 63  1  0
 59 67  1  0
 59 69  1  0
 60 66  1  0
 60 62  1  0
 61 67  1  0
 62 61  1  0
 63 62  2  0
 64 65  1  0
 64 58  2  0
 65 60  2  0
 66 59  1  0
 67 57  1  0
 69 71  2  0
 70 69  1  0
 72 70  1  0
 73 82  2  0
 73 78  1  0
 74 70  1  0
 74 78  1  0
 75 74  1  0
 76 77  1  0
 76 75  1  0
 77 73  1  0
 78 79  2  0
 79 80  1  0
 81 80  2  0
 82 81  1  0
 83 57  1  0
 83 88  1  0
 83 84  1  0
 84 87  1  1
 84 85  1  0
 86 84  1  0
 88 91  1  0
 89 93  1  0
 89 88  1  0
 90 89  2  0
 93 92  1  0
 95 96  1  0
 95 93  1  0
 95 94  1  0
M  ISO  4  15 100  23 100  55 101  56 101
M  END
>  <TORSDO>  (53) 
F 19

>  <SCORE>  (53) 
-13.516

>  <name>  (53) 
52

>  <ligand_id>  (53) 
52

>  <original_smiles>  (53) 
[H]Oc1c([H])c(C([H])([H])Oc2c([H])c([H])c3c(c2[H])C([H])([H])N(C(=O)C([H])(N([H])C(=O)C([H])(N([H])C([H])([H])[H])C([H])([H])[H])C(C([H])([H])[H])(C([H])([H])[H])C([H])([H])[H])C([H])(C(=O)N([H])C2([H])c4c([H])c([H])c([H])c([H])c4C([H])([H])C([H])([H])C2([H])[H])C3([H])[H])c(=O)n(-c2c([H])c([H])c(N([H])C(=O)N3C([H])([H])C([H])([H])C([H])([H])C([H])(n4nc(-c5c([H])c([H])c(Oc6c([H])c([H])c(F)c([H])c6F)c([H])c5[H])c(C(=O)N([H])[H])c4N([H])[H])C3([H])[H])c([H])c2F)c1[H]

>  <smiles>  (53) 
[H]Oc1c([H])c(C([H])([H])Oc2c([H])c([H])c3c(c2[H])C([H])([H])N(C(=O)C([H])(N([H])C(=O)C([H])(N([H])C([H])([H])[H])C([H])([H])[H])C(C([H])([H])[H])(C([H])([H])[H])C([H])([H])[H])C([H])(C(=O)N([H])C2([H])c4c([H])c([H])c([H])c([H])c4C([H])([H])C([H])([H])C2([H])[H])C3([H])[H])c(=O)n(-c2c([H])c([H])c(N([H])C(=O)N3C([H])([H])C([H])([H])C([H])([H])C([H])(n4nc(-c5c([H])c([H])c(Oc6c([H])c([H])c(F)c([H])c6F)c([H])c5[H])c(C(=O)N([H])[H])c4N([H])[H])C3([H])[H])c([H])c2F)c1[H]

$$$$
53:0:0
     RDKit          3D

 94103  0  0  1  0  0  0  0  0999 V2000
  -28.9070  -24.1690   20.8690 C   0  0  0  0  0  0  0  0  0  0  0  0
  -29.0090  -23.5410   22.1710 C   0  0  0  0  0  0  0  0  0  0  0  0
  -29.2140  -23.0390   19.9120 C   0  0  0  0  0  0  0  0  0  0  0  0
  -28.6620  -24.0770   23.3580 C   0  0  0  0  0  2  0  0  0  0  0  0
  -28.5970  -25.5350   20.7570 C   0  0  0  0  0  3  0  0  0  0  0  0
  -29.5210  -22.1380   22.0520 C   0  0  0  0  0  2  0  0  0  0  0  0
  -29.5320  -21.8660   20.6190 N   0  0  0  0  0  0  0  0  0  0  0  0
  -29.1870  -23.1070   18.6800 O   0  0  0  0  0  0  0  0  0  0  0  0
  -29.0270  -19.5190   19.6120 C   0  0  0  0  0  3  0  0  0  0  0  0
  -31.0810  -19.8630   20.7710 C   0  0  0  0  0  3  0  0  0  0  0  0
  -29.2810  -18.0950   19.6000 C   0  0  0  0  0  3  0  0  0  0  0  0
  -31.3400  -18.4530   20.7490 C   0  0  0  0  0  3  0  0  0  0  0  0
  -29.8980  -20.4610   20.2450 C   0  0  0  0  0  0  0  0  0  0  0  0
  -30.4320  -17.4940   20.2090 C   0  0  0  0  0  0  0  0  0  0  0  0
  -31.1000  -14.9880   19.8200 C   0  0  0  0  0  0  0  0  0  0  0  0
  -30.8090  -12.7280   18.7410 C   0  0  0  0  0  2  0  0  0  0  0  0
  -29.7410  -12.7790   17.6250 C   0  0  0  0  0  2  0  0  0  0  0  0
  -28.3290  -12.5670   18.2040 C   0  0  0  0  0  2  0  0  0  0  0  0
  -28.0750  -13.4390   19.4590 C   0  0  0  0  0  3  0  0  0  0  0  0
  -29.2380  -13.3260   20.4580 C   0  0  0  0  0  2  0  0  0  0  0  0
  -30.4700  -13.7500   19.7650 N   0  0  0  0  0  0  0  0  0  0  0  0
  -32.1480  -15.1500   19.1860 O   0  0  0  0  0  0  0  0  0  0  0  0
  -30.5400  -16.0390   20.5640 N   0  0  0  0  0  0  0  0  0  0  0  0
  -25.8190  -14.0090   20.5380 C   0  0  0  0  0  0  0  0  0  0  0  0
  -24.7850  -13.2260   20.9720 C   0  0  0  0  0  0  0  0  0  0  0  0
  -25.1980  -11.8750   20.7640 C   0  0  0  0  0  0  0  0  0  0  0  0
  -26.7940  -13.1350   20.0880 N   0  0  0  0  0  0  0  0  0  0  0  0
  -26.4370  -11.8400   20.2870 N   0  0  0  0  0  0  0  0  0  0  0  0
  -24.4640  -10.6150   20.9350 C   0  0  0  0  0  0  0  0  0  0  0  0
  -24.8770   -9.6410   21.8720 C   0  0  0  0  0  3  0  0  0  0  0  0
  -24.1430   -8.4460   22.0320 C   0  0  0  0  0  3  0  0  0  0  0  0
  -22.9850   -8.2150   21.2540 C   0  0  0  0  0  0  0  0  0  0  0  0
  -22.5900   -9.1770   20.3080 C   0  0  0  0  0  3  0  0  0  0  0  0
  -23.3230  -10.3650   20.1470 C   0  0  0  0  0  3  0  0  0  0  0  0
  -22.2260   -7.0710   21.3210 O   0  0  0  0  0  0  0  0  0  0  0  0
  -22.0030   -6.4240   22.5110 C   0  0  0  0  0  0  0  0  0  0  0  0
  -21.4050   -7.0750   23.6120 C   0  0  0  0  0  3  0  0  0  0  0  0
  -21.1300   -6.3530   24.7900 C   0  0  0  0  0  3  0  0  0  0  0  0
  -21.4450   -4.9830   24.8690 C   0  0  0  0  0  0  0  0  0  0  0  0
  -22.0350   -4.3330   23.7710 C   0  0  0  0  0  3  0  0  0  0  0  0
  -22.3110   -5.0520   22.5940 C   0  0  0  0  0  0  0  0  0  0  0  0
  -22.8620   -4.4150   21.5330 F   0  0  0  0  0  0  0  0  0  0  0  0
  -21.1730   -4.2880   25.9970 F   0  0  0  0  0  0  0  0  0  0  0  0
  -23.4490  -13.7040   21.4640 C   0  0  0  0  0  0  0  0  0  0  0  0
  -22.8380  -12.9720   22.3900 N   0  0  0  0  0  0  0  0  0  0  0  0
  -22.9610  -14.7600   21.0620 O   0  0  0  0  0  0  0  0  0  0  0  0
  -23.2490  -12.1170   22.7350 H   0  0  0  0  0  0  0  0  0  0  0  0
  -21.9490  -13.2740   22.7600 H   0  0  0  0  0  0  0  0  0  0  0  0
  -26.0030  -15.3870   20.4690 N   0  0  0  0  0  0  0  0  0  0  0  0
  -25.2870  -16.0460   20.7530 H   0  0  0  0  0  0  0  0  0  0  0  0
  -26.8390  -15.8350   20.1150 H   0  0  0  0  0  0  0  0  0  0  0  0
  -30.1310  -16.6920   22.9030 C   0  0  0  0  0  2  0  0  0  0  0  0
  -30.4830  -15.8010   21.9560 C   0  0  0  0  0  3  0  0  0  0  0  0
  -28.4890  -26.5000   19.7310 O   0  0  0  0  0  0  0  0  0  0  0  0
  -24.5790  -31.7480   22.9790 C   0  0  0  0  0  0  0  0  0  0  0  0
  -27.3840  -27.3790   19.7770 C   0  0  0  0  0  0  0  0  0  0  0  0
  -23.4340  -30.3360   21.3100 C   0  0  0  0  0  3  0  0  0  0  0  0
  -24.9510  -28.8970   19.8280 C   0  0  0  0  0  0  0  0  0  0  0  0
  -25.9570  -30.7770   21.1200 C   0  0  0  0  0  2  0  0  0  0  0  0
  -26.1020  -29.4180   20.4350 C   0  0  0  0  0  0  0  0  0  0  0  0
  -27.3260  -28.6700   20.4030 C   0  0  0  0  0  3  0  0  0  0  0  0
  -26.2100  -26.9210   19.1500 C   0  0  0  0  0  3  0  0  0  0  0  0
  -25.0080  -27.6550   19.1760 C   0  0  0  0  0  3  0  0  0  0  0  0
  -23.6710  -29.7090   19.9110 C   0  0  0  0  0  2  0  0  0  0  0  0
  -24.6750  -30.9720   21.8600 N   0  0  0  0  0  0  0  0  0  0  0  0
  -23.4870  -31.9560   23.5280 O   0  0  0  0  0  0  0  0  0  0  0  0
  -22.8270  -29.2630   22.2470 C   0  0  0  0  0  0  0  0  0  0  0  0
  -21.5150  -29.0070   22.1090 N   0  0  0  0  0  0  0  0  0  0  0  0
  -23.5380  -28.6660   23.0590 O   0  0  0  0  0  0  0  0  0  0  0  0
  -20.9970  -29.5430   21.4270 H   0  0  0  0  0  0  0  0  0  0  0  0
  -18.2310  -27.5430   22.5180 C   0  0  0  0  0  0  0  0  0  0  0  0
  -20.7520  -28.0050   22.8550 C   0  0  0  0  0  3  0  0  0  0  0  0
  -20.9820  -26.5880   22.2800 C   0  0  0  0  0  2  0  0  0  0  0  0
  -19.9370  -26.1830   21.2360 C   0  0  0  0  0  2  0  0  0  0  0  0
  -18.5310  -26.2160   21.8430 C   0  0  0  0  0  2  0  0  0  0  0  0
  -19.2730  -28.3910   22.9780 C   0  0  0  0  0  0  0  0  0  0  0  0
  -18.9380  -29.6300   23.5670 C   0  0  0  0  0  3  0  0  0  0  0  0
  -17.5940  -30.0240   23.7000 C   0  0  0  0  0  3  0  0  0  0  0  0
  -16.5650  -29.1740   23.2560 C   0  0  0  0  0  3  0  0  0  0  0  0
  -16.8840  -27.9360   22.6700 C   0  0  0  0  0  3  0  0  0  0  0  0
  -25.8330  -32.4260   23.6120 C   0  0  0  0  0  3  0  0  0  0  0  0
  -25.4460  -33.7850   24.0190 N   0  0  0  0  0  0  0  0  0  0  0  0
  -25.6980  -34.8940   23.3090 C   0  0  0  0  0  0  0  0  0  0  0  0
  -26.3500  -34.8820   22.2610 O   0  0  0  0  0  0  0  0  0  0  0  0
  -24.8600  -33.8630   24.8370 H   0  0  0  0  0  0  0  0  0  0  0  0
  -23.8670  -36.6030   23.0740 C   0  0  0  0  0  1  0  0  0  0  0  0
  -25.1410  -36.2260   23.8470 C   0  0  0  0  0  3  0  0  0  0  0  0
  -27.2320  -37.1880   24.7020 C   0  0  0  0  0  1  0  0  0  0  0  0
  -26.1120  -37.3410   23.7790 N   0  0  0  0  0  0  0  0  0  0  0  0
  -25.6550  -38.2280   23.9770 H   0  0  0  0  0  0  0  0  0  0  0  0
  -26.4190  -31.6270   24.8400 C   0  0  1  0  0  0  0  0  0  0  0  0
  -25.3600  -31.2660   25.9090 C   0  0  0  0  0  1  0  0  0  0  0  0
  -27.0840  -30.3110   24.3750 C   0  0  0  0  0  1  0  0  0  0  0  0
  -27.5250  -32.4610   25.5270 C   0  0  0  0  0  1  0  0  0  0  0  0
  1  2  1  0
  2  4  2  0
  3  7  1  0
  3  1  1  0
  5  1  2  0
  6  2  1  0
  7  6  1  0
  8  3  2  0
  9 13  1  0
 11  9  2  0
 11 14  1  0
 12 10  1  0
 13  7  1  0
 13 10  2  0
 14 23  1  0
 14 12  2  0
 15 23  1  0
 16 21  1  0
 17 18  1  0
 17 16  1  0
 19 18  1  0
 19 27  1  0
 19 20  1  0
 21 15  1  0
 21 20  1  0
 22 15  2  0
 23 53  1  0
 24 25  2  0
 25 44  1  0
 26 29  1  0
 26 25  1  0
 27 28  1  0
 27 24  1  0
 28 26  2  0
 29 30  1  0
 30 31  2  0
 32 35  1  0
 32 31  1  0
 33 32  2  0
 34 33  1  0
 34 29  2  0
 35 36  1  0
 36 41  2  0
 36 37  1  0
 37 38  2  0
 38 39  1  0
 39 43  1  0
 40 39  2  0
 41 40  1  0
 42 41  1  0
 44 45  1  0
 45 47  1  0
 45 48  1  0
 46 44  2  0
 49 24  1  0
 49 50  1  0
 51 49  1  0
 53 52  2  0
 54 56  1  0
 54  5  1  0
 55 66  2  0
 56 61  1  0
 57 65  1  0
 57 67  1  0
 58 64  1  0
 58 60  1  0
 59 65  1  0
 60 59  1  0
 61 60  2  0
 62 63  1  0
 62 56  2  0
 63 58  2  0
 64 57  1  0
 65 55  1  0
 67 69  2  0
 68 67  1  0
 70 68  1  0
 71 80  2  0
 71 76  1  0
 72 68  1  0
 72 76  1  0
 73 72  1  0
 74 75  1  0
 74 73  1  0
 75 71  1  0
 76 77  2  0
 77 78  1  0
 79 78  2  0
 80 79  1  0
 81 55  1  0
 81 82  1  0
 81 91  1  0
 82 85  1  0
 83 87  1  0
 83 82  1  0
 84 83  2  0
 87 86  1  0
 89 87  1  0
 89 90  1  0
 89 88  1  0
 91 94  1  1
 91 92  1  0
 93 91  1  0
M  ISO  4   5 101  15 100  23 100  54 101
M  END
>  <TORSDO>  (54) 
F 18

>  <SCORE>  (54) 
-11.898

>  <name>  (54) 
53

>  <ligand_id>  (54) 
53

>  <original_smiles>  (54) 
[H]C([H])=C([H])N(C(=O)N1C([H])([H])C([H])([H])C([H])([H])C([H])(n2nc(-c3c([H])c([H])c(Oc4c([H])c([H])c(F)c([H])c4F)c([H])c3[H])c(C(=O)N([H])[H])c2N([H])[H])C1([H])[H])c1c([H])c([H])c(N2C(=O)C(=C([H])Oc3c([H])c([H])c4c(c3[H])C([H])([H])N(C(=O)C([H])(N([H])C(=O)C([H])(N([H])C([H])([H])[H])C([H])([H])[H])C(C([H])([H])[H])(C([H])([H])[H])C([H])([H])[H])C([H])(C(=O)N([H])C3([H])c5c([H])c([H])c([H])c([H])c5C([H])([H])C([H])([H])C3([H])[H])C4([H])[H])C(=C([H])[H])C2([H])[H])c([H])c1[H]

>  <smiles>  (54) 
[H]C([H])=C([H])N(C(=O)N1C([H])([H])C([H])([H])C([H])([H])C([H])(n2nc(-c3c([H])c([H])c(Oc4c([H])c([H])c(F)c([H])c4F)c([H])c3[H])c(C(=O)N([H])[H])c2N([H])[H])C1([H])[H])c1c([H])c([H])c(N2C(=O)C(=C([H])Oc3c([H])c([H])c4c(c3[H])C([H])([H])N(C(=O)C([H])(N([H])C(=O)C([H])(N([H])C([H])([H])[H])C([H])([H])[H])C(C([H])([H])[H])(C([H])([H])[H])C([H])([H])[H])C([H])(C(=O)N([H])C3([H])c5c([H])c([H])c([H])c([H])c5C([H])([H])C([H])([H])C3([H])[H])C4([H])[H])C(=C([H])[H])C2([H])[H])c([H])c1[H]

$$$$
54:0:0
     RDKit          3D

 94103  0  0  1  0  0  0  0  0999 V2000
  -30.2970  -20.1440   20.6530 C   0  0  0  0  0  3  0  0  0  0  0  0
  -30.6030  -18.7080   20.7260 C   0  0  0  0  0  3  0  0  0  0  0  0
  -28.4720  -18.2460   19.8640 C   0  0  0  0  0  3  0  0  0  0  0  0
  -29.0610  -20.7050   20.1580 C   0  0  0  0  0  0  0  0  0  0  0  0
  -28.1530  -19.6590   19.7420 C   0  0  0  0  0  0  0  0  0  0  0  0
  -29.6890  -17.6650   20.3280 C   0  0  0  0  0  0  0  0  0  0  0  0
  -30.5810  -15.0350   20.0900 C   0  0  0  0  0  0  0  0  0  0  0  0
  -30.3970  -12.7290   19.0380 C   0  0  0  0  0  2  0  0  0  0  0  0
  -29.3990  -12.7850   17.8560 C   0  0  0  0  0  2  0  0  0  0  0  0
  -27.9500  -12.5850   18.3430 C   0  0  0  0  0  2  0  0  0  0  0  0
  -27.6270  -13.4390   19.5970 C   0  0  0  0  0  3  0  0  0  0  0  0
  -28.7410  -13.3440   20.6620 C   0  0  0  0  0  2  0  0  0  0  0  0
  -29.9960  -13.7720   20.0240 N   0  0  0  0  0  0  0  0  0  0  0  0
  -31.7490  -15.1550   19.7040 O   0  0  0  0  0  0  0  0  0  0  0  0
  -29.7600  -16.1330   20.4430 N   0  0  0  0  0  0  0  0  0  0  0  0
  -28.8670  -15.7510   20.7130 H   0  0  0  0  0  0  0  0  0  0  0  0
  -25.2770  -14.0090   20.4440 C   0  0  0  0  0  0  0  0  0  0  0  0
  -24.2270  -13.2280   20.8450 C   0  0  0  0  0  0  0  0  0  0  0  0
  -24.6870  -11.8780   20.7670 C   0  0  0  0  0  0  0  0  0  0  0  0
  -26.3070  -13.1350   20.1420 N   0  0  0  0  0  0  0  0  0  0  0  0
  -25.9630  -11.8450   20.4010 N   0  0  0  0  0  0  0  0  0  0  0  0
  -23.9640  -10.6130   20.9630 C   0  0  0  0  0  0  0  0  0  0  0  0
  -24.4080   -9.6450   21.8910 C   0  0  0  0  0  3  0  0  0  0  0  0
  -23.6830   -8.4470   22.0780 C   0  0  0  0  0  3  0  0  0  0  0  0
  -22.4990   -8.2100   21.3370 C   0  0  0  0  0  0  0  0  0  0  0  0
  -22.0750   -9.1690   20.3990 C   0  0  0  0  0  3  0  0  0  0  0  0
  -22.8010  -10.3570   20.2100 C   0  0  0  0  0  3  0  0  0  0  0  0
  -21.7460   -7.0660   21.4330 O   0  0  0  0  0  0  0  0  0  0  0  0
  -21.6820   -6.3420   22.5970 C   0  0  0  0  0  0  0  0  0  0  0  0
  -21.2280   -6.9130   23.8060 C   0  0  0  0  0  3  0  0  0  0  0  0
  -21.1140   -6.1150   24.9620 C   0  0  0  0  0  3  0  0  0  0  0  0
  -21.4430   -4.7480   24.9090 C   0  0  0  0  0  0  0  0  0  0  0  0
  -21.8910   -4.1770   23.7060 C   0  0  0  0  0  3  0  0  0  0  0  0
  -22.0090   -4.9720   22.5530 C   0  0  0  0  0  0  0  0  0  0  0  0
  -22.4200   -4.4120   21.3900 F   0  0  0  0  0  0  0  0  0  0  0  0
  -21.3250   -3.9780   26.0170 F   0  0  0  0  0  0  0  0  0  0  0  0
  -22.8450  -13.7040   21.1850 C   0  0  0  0  0  0  0  0  0  0  0  0
  -22.1600  -12.9980   22.0780 N   0  0  0  0  0  0  0  0  0  0  0  0
  -22.3840  -14.7340   20.6960 O   0  0  0  0  0  0  0  0  0  0  0  0
  -22.5480  -12.1640   22.4940 H   0  0  0  0  0  0  0  0  0  0  0  0
  -21.2370  -13.2990   22.3550 H   0  0  0  0  0  0  0  0  0  0  0  0
  -25.4330  -15.3820   20.2880 N   0  0  0  0  0  0  0  0  0  0  0  0
  -24.6810  -16.0390   20.4740 H   0  0  0  0  0  0  0  0  0  0  0  0
  -26.2500  -15.8280   19.8990 H   0  0  0  0  0  0  0  0  0  0  0  0
  -25.7060  -19.9260   17.5860 C   0  0  0  0  0  0  0  0  0  0  0  0
  -25.7580  -19.2670   18.8560 C   0  0  0  0  0  0  0  0  0  0  0  0
  -24.8640  -19.7920   16.5500 C   0  0  0  0  0  2  0  0  0  0  0  0
  -26.9710  -20.6880   17.8720 C   0  0  0  0  0  2  0  0  0  0  0  0
  -26.8960  -20.0100   19.1770 N   0  0  0  0  0  0  0  0  0  0  0  0
  -25.1350  -18.3290   19.3090 O   0  0  0  0  0  0  0  0  0  0  0  0
  -28.9270  -23.3820   20.3910 C   0  0  0  0  0  3  0  0  0  0  0  0
  -28.6210  -22.1370   19.9660 N   0  0  0  0  0  0  0  0  0  0  0  0
  -28.1180  -24.7780   19.9360 C   0  0  0  0  0  2  0  0  0  0  0  0
  -28.3520  -26.2530   20.3980 O   0  0  0  0  0  0  0  0  0  0  0  0
  -24.5810  -31.9110   23.2820 C   0  0  0  0  0  0  0  0  0  0  0  0
  -27.3020  -27.2450   20.2860 C   0  0  0  0  0  0  0  0  0  0  0  0
  -23.4540  -30.5330   21.5820 C   0  0  0  0  0  3  0  0  0  0  0  0
  -24.9630  -28.9860   20.1890 C   0  0  0  0  0  0  0  0  0  0  0  0
  -26.0120  -30.8050   21.5210 C   0  0  0  0  0  2  0  0  0  0  0  0
  -26.1170  -29.4230   20.8530 C   0  0  0  0  0  0  0  0  0  0  0  0
  -27.2850  -28.5700   20.8860 C   0  0  0  0  0  3  0  0  0  0  0  0
  -26.1210  -26.9170   19.5790 C   0  0  0  0  0  3  0  0  0  0  0  0
  -24.9790  -27.7460   19.5380 C   0  0  0  0  0  3  0  0  0  0  0  0
  -23.7310  -29.8790   20.2030 C   0  0  0  0  0  2  0  0  0  0  0  0
  -24.7010  -31.1040   22.1850 N   0  0  0  0  0  0  0  0  0  0  0  0
  -23.4740  -32.1850   23.7700 O   0  0  0  0  0  0  0  0  0  0  0  0
  -22.7410  -29.5110   22.5010 C   0  0  0  0  0  0  0  0  0  0  0  0
  -21.4110  -29.3700   22.3500 N   0  0  0  0  0  0  0  0  0  0  0  0
  -23.3870  -28.8450   23.3130 O   0  0  0  0  0  0  0  0  0  0  0  0
  -20.9460  -29.9560   21.6700 H   0  0  0  0  0  0  0  0  0  0  0  0
  -17.9920  -28.2720   22.8250 C   0  0  0  0  0  0  0  0  0  0  0  0
  -20.5620  -28.4260   23.0810 C   0  0  0  0  0  3  0  0  0  0  0  0
  -20.6040  -27.0210   22.4380 C   0  0  0  0  0  2  0  0  0  0  0  0
  -19.4840  -26.7890   21.4190 C   0  0  0  0  0  2  0  0  0  0  0  0
  -18.1130  -26.9530   22.0810 C   0  0  0  0  0  2  0  0  0  0  0  0
  -19.1420  -28.9710   23.2810 C   0  0  0  0  0  0  0  0  0  0  0  0
  -18.9720  -30.2090   23.9400 C   0  0  0  0  0  3  0  0  0  0  0  0
  -17.6880  -30.7470   24.1450 C   0  0  0  0  0  3  0  0  0  0  0  0
  -16.5530  -30.0450   23.7030 C   0  0  0  0  0  3  0  0  0  0  0  0
  -16.7070  -28.8090   23.0490 C   0  0  0  0  0  3  0  0  0  0  0  0
  -25.8300  -32.5450   23.9670 C   0  0  0  0  0  3  0  0  0  0  0  0
  -26.2570  -31.7950   25.2880 C   0  0  1  0  0  0  0  0  0  0  0  0
  -25.0980  -31.5950   26.2940 C   0  0  0  0  0  1  0  0  0  0  0  0
  -26.8420  -30.4010   24.9630 C   0  0  0  0  0  1  0  0  0  0  0  0
  -27.3800  -32.5870   25.9990 C   0  0  0  0  0  1  0  0  0  0  0  0
  -25.5160  -33.9530   24.2560 N   0  0  0  0  0  0  0  0  0  0  0  0
  -25.8820  -34.9920   23.4920 C   0  0  0  0  0  0  0  0  0  0  0  0
  -26.5850  -34.8640   22.4870 O   0  0  0  0  0  0  0  0  0  0  0  0
  -24.8910  -34.1250   25.0290 H   0  0  0  0  0  0  0  0  0  0  0  0
  -24.1640  -36.7820   23.0710 C   0  0  0  0  0  1  0  0  0  0  0  0
  -25.3930  -36.3940   23.9080 C   0  0  0  0  0  3  0  0  0  0  0  0
  -27.5160  -37.2980   24.7480 C   0  0  0  0  0  1  0  0  0  0  0  0
  -26.4300  -37.4410   23.7820 N   0  0  0  0  0  0  0  0  0  0  0  0
  -26.0260  -38.3660   23.8970 H   0  0  0  0  0  0  0  0  0  0  0  0
  1  2  1  0
  3  6  1  0
  4  1  2  0
  5  3  2  0
  5  4  1  0
  6 15  1  0
  6  2  2  0
  7 15  1  0
  8 13  1  0
  9 10  1  0
  9  8  1  0
 11 10  1  0
 11 20  1  0
 11 12  1  0
 13  7  1  0
 13 12  1  0
 14  7  2  0
 15 16  1  0
 17 18  2  0
 18 37  1  0
 19 18  1  0
 19 22  1  0
 20 21  1  0
 20 17  1  0
 21 19  2  0
 22 23  1  0
 23 24  2  0
 25 28  1  0
 25 24  1  0
 26 25  2  0
 27 26  1  0
 27 22  2  0
 28 29  1  0
 29 30  1  0
 30 31  2  0
 32 31  1  0
 32 36  1  0
 33 32  2  0
 34 29  2  0
 34 33  1  0
 35 34  1  0
 37 38  1  0
 38 41  1  0
 38 40  1  0
 39 37  2  0
 42 17  1  0
 42 43  1  0
 44 42  1  0
 45 48  1  0
 45 46  1  0
 46 49  1  0
 46 50  2  0
 47 45  2  0
 48 49  1  0
 49  5  1  0
 52  4  1  0
 52 51  2  0
 53 51  1  0
 53 54  1  0
 55 66  2  0
 56 54  1  0
 56 61  1  0
 57 65  1  0
 57 67  1  0
 58 64  1  0
 58 60  1  0
 59 65  1  0
 60 61  2  0
 60 59  1  0
 62 56  2  0
 63 62  1  0
 63 58  2  0
 64 57  1  0
 65 55  1  0
 67 69  2  0
 68 67  1  0
 70 68  1  0
 71 80  2  0
 71 76  1  0
 72 68  1  0
 72 76  1  0
 73 72  1  0
 74 75  1  0
 74 73  1  0
 75 71  1  0
 76 77  2  0
 77 78  1  0
 79 78  2  0
 80 79  1  0
 81 55  1  0
 81 86  1  0
 81 82  1  0
 82 85  1  1
 82 83  1  0
 84 82  1  0
 86 89  1  0
 87 91  1  0
 87 86  1  0
 88 87  2  0
 91 90  1  0
 93 94  1  0
 93 91  1  0
 93 92  1  0
M  ISO  4   7 100  15 100  53 101  54 101
M  END
>  <TORSDO>  (55) 
F 19

>  <SCORE>  (55) 
-12.620

>  <name>  (55) 
54

>  <ligand_id>  (55) 
54

>  <original_smiles>  (55) 
[H]C(=Nc1c([H])c([H])c(N([H])C(=O)N2C([H])([H])C([H])([H])C([H])([H])C([H])(n3nc(-c4c([H])c([H])c(Oc5c([H])c([H])c(F)c([H])c5F)c([H])c4[H])c(C(=O)N([H])[H])c3N([H])[H])C2([H])[H])c([H])c1N1C(=O)C(=C([H])[H])C1([H])[H])C([H])([H])Oc1c([H])c([H])c2c(c1[H])C([H])([H])N(C(=O)C([H])(N([H])C(=O)C([H])(N([H])C([H])([H])[H])C([H])([H])[H])C(C([H])([H])[H])(C([H])([H])[H])C([H])([H])[H])C([H])(C(=O)N([H])C1([H])c3c([H])c([H])c([H])c([H])c3C([H])([H])C([H])([H])C1([H])[H])C2([H])[H]

>  <smiles>  (55) 
[H]C(=Nc1c([H])c([H])c(N([H])C(=O)N2C([H])([H])C([H])([H])C([H])([H])C([H])(n3nc(-c4c([H])c([H])c(Oc5c([H])c([H])c(F)c([H])c5F)c([H])c4[H])c(C(=O)N([H])[H])c3N([H])[H])C2([H])[H])c([H])c1N1C(=O)C(=C([H])[H])C1([H])[H])C([H])([H])Oc1c([H])c([H])c2c(c1[H])C([H])([H])N(C(=O)C([H])(N([H])C(=O)C([H])(N([H])C([H])([H])[H])C([H])([H])[H])C(C([H])([H])[H])(C([H])([H])[H])C([H])([H])[H])C([H])(C(=O)N([H])C1([H])c3c([H])c([H])c([H])c([H])c3C([H])([H])C([H])([H])C1([H])[H])C2([H])[H]

$$$$
55:0:0
     RDKit          3D

 93102  0  0  1  0  0  0  0  0999 V2000
  -28.8120  -23.8000   20.2790 C   0  0  0  0  0  0  0  0  0  0  0  0
  -29.1940  -23.4700   21.6350 C   0  0  0  0  0  0  0  0  0  0  0  0
  -28.9960  -22.4900   19.5540 C   0  0  0  0  0  0  0  0  0  0  0  0
  -29.3400  -24.3490   22.6440 C   0  0  0  0  0  2  0  0  0  0  0  0
  -28.3840  -25.0210   19.7200 C   0  0  0  0  0  3  0  0  0  0  0  0
  -29.4640  -21.9740   21.7710 C   0  0  0  0  0  2  0  0  0  0  0  0
  -29.3780  -21.4440   20.4010 N   0  0  0  0  0  0  0  0  0  0  0  0
  -28.8380  -22.3260   18.3400 O   0  0  0  0  0  0  0  0  0  0  0  0
  -29.5810  -18.7520   20.5420 C   0  0  0  0  0  3  0  0  0  0  0  0
  -30.9890  -20.0650   19.1020 C   0  0  0  0  0  3  0  0  0  0  0  0
  -31.2910  -17.7440   19.1790 C   0  0  0  0  0  3  0  0  0  0  0  0
  -29.9290  -20.0840   20.0300 C   0  0  0  0  0  0  0  0  0  0  0  0
  -30.2530  -17.5130   20.1130 C   0  0  0  0  0  0  0  0  0  0  0  0
  -31.6480  -18.9570   18.7010 N   0  0  0  0  0  0  0  0  0  0  0  0
  -30.6110  -14.8850   20.3160 C   0  0  0  0  0  0  0  0  0  0  0  0
  -30.3760  -12.5860   19.3490 C   0  0  0  0  0  2  0  0  0  0  0  0
  -29.4350  -12.6260   18.1260 C   0  0  0  0  0  2  0  0  0  0  0  0
  -27.9680  -12.4500   18.5580 C   0  0  0  0  0  2  0  0  0  0  0  0
  -27.5940  -13.3450   19.7700 C   0  0  0  0  0  3  0  0  0  0  0  0
  -28.6620  -13.3140   20.8870 C   0  0  0  0  0  2  0  0  0  0  0  0
  -29.9520  -13.6680   20.2750 N   0  0  0  0  0  0  0  0  0  0  0  0
  -31.8070  -14.9100   20.0140 O   0  0  0  0  0  0  0  0  0  0  0  0
  -29.9090  -16.0890   20.5040 N   0  0  0  0  0  0  0  0  0  0  0  0
  -28.9720  -15.9570   20.8550 H   0  0  0  0  0  0  0  0  0  0  0  0
  -25.2070  -13.9240   20.5000 C   0  0  0  0  0  0  0  0  0  0  0  0
  -24.1430  -13.1490   20.8750 C   0  0  0  0  0  0  0  0  0  0  0  0
  -24.6070  -11.7970   20.8470 C   0  0  0  0  0  0  0  0  0  0  0  0
  -26.2530  -13.0470   20.2690 N   0  0  0  0  0  0  0  0  0  0  0  0
  -25.8980  -11.7610   20.5400 N   0  0  0  0  0  0  0  0  0  0  0  0
  -23.8770  -10.5350   21.0370 C   0  0  0  0  0  0  0  0  0  0  0  0
  -24.3080   -9.5640   21.9670 C   0  0  0  0  0  3  0  0  0  0  0  0
  -23.5790   -8.3690   22.1480 C   0  0  0  0  0  3  0  0  0  0  0  0
  -22.4020   -8.1360   21.4020 C   0  0  0  0  0  0  0  0  0  0  0  0
  -21.9860   -9.0960   20.4600 C   0  0  0  0  0  3  0  0  0  0  0  0
  -22.7180  -10.2810   20.2750 C   0  0  0  0  0  3  0  0  0  0  0  0
  -21.6420   -6.9950   21.4930 O   0  0  0  0  0  0  0  0  0  0  0  0
  -21.6020   -6.2450   22.6420 C   0  0  0  0  0  0  0  0  0  0  0  0
  -21.1920   -6.7950   23.8760 C   0  0  0  0  0  3  0  0  0  0  0  0
  -21.0990   -5.9740   25.0180 C   0  0  0  0  0  3  0  0  0  0  0  0
  -21.4090   -4.6050   24.9270 C   0  0  0  0  0  0  0  0  0  0  0  0
  -21.8140   -4.0520   23.6980 C   0  0  0  0  0  3  0  0  0  0  0  0
  -21.9060   -4.8720   22.5580 C   0  0  0  0  0  0  0  0  0  0  0  0
  -22.2780   -4.3290   21.3740 F   0  0  0  0  0  0  0  0  0  0  0  0
  -21.3120   -3.8140   26.0220 F   0  0  0  0  0  0  0  0  0  0  0  0
  -22.7460  -13.6250   21.1410 C   0  0  0  0  0  0  0  0  0  0  0  0
  -22.0150  -12.9380   22.0120 N   0  0  0  0  0  0  0  0  0  0  0  0
  -22.3090  -14.6460   20.6100 O   0  0  0  0  0  0  0  0  0  0  0  0
  -22.3790  -12.1130   22.4630 H   0  0  0  0  0  0  0  0  0  0  0  0
  -21.0750  -13.2390   22.2280 H   0  0  0  0  0  0  0  0  0  0  0  0
  -25.3660  -15.2950   20.3100 N   0  0  0  0  0  0  0  0  0  0  0  0
  -24.5930  -15.9430   20.3980 H   0  0  0  0  0  0  0  0  0  0  0  0
  -26.2030  -15.7270   19.9390 H   0  0  0  0  0  0  0  0  0  0  0  0
  -28.3290  -26.3570   20.2610 O   0  0  0  0  0  0  0  0  0  0  0  0
  -24.6180  -31.8690   23.2270 C   0  0  0  0  0  0  0  0  0  0  0  0
  -27.2260  -27.2580   20.1450 C   0  0  0  0  0  0  0  0  0  0  0  0
  -23.4050  -30.4770   21.5870 C   0  0  0  0  0  3  0  0  0  0  0  0
  -24.8550  -28.9200   20.1410 C   0  0  0  0  0  0  0  0  0  0  0  0
  -25.9470  -30.7780   21.3930 C   0  0  0  0  0  2  0  0  0  0  0  0
  -26.0260  -29.3920   20.7440 C   0  0  0  0  0  0  0  0  0  0  0  0
  -27.2050  -28.5720   20.7400 C   0  0  0  0  0  3  0  0  0  0  0  0
  -26.0290  -26.8610   19.5040 C   0  0  0  0  0  3  0  0  0  0  0  0
  -24.8640  -27.6650   19.5090 C   0  0  0  0  0  3  0  0  0  0  0  0
  -23.6150  -29.7970   20.2050 C   0  0  0  0  0  2  0  0  0  0  0  0
  -24.6770  -31.0610   22.1250 N   0  0  0  0  0  0  0  0  0  0  0  0
  -23.5380  -32.1450   23.7710 O   0  0  0  0  0  0  0  0  0  0  0  0
  -22.7420  -29.4630   22.5530 C   0  0  0  0  0  0  0  0  0  0  0  0
  -21.4160  -29.2900   22.4340 N   0  0  0  0  0  0  0  0  0  0  0  0
  -23.4250  -28.8370   23.3660 O   0  0  0  0  0  0  0  0  0  0  0  0
  -20.9230  -29.8520   21.7520 H   0  0  0  0  0  0  0  0  0  0  0  0
  -18.0410  -28.0830   22.9380 C   0  0  0  0  0  0  0  0  0  0  0  0
  -20.6000  -28.3470   23.2040 C   0  0  0  0  0  3  0  0  0  0  0  0
  -20.7000  -26.9170   22.6230 C   0  0  0  0  0  2  0  0  0  0  0  0
  -19.5980  -26.5960   21.6080 C   0  0  0  0  0  2  0  0  0  0  0  0
  -18.2180  -26.7380   22.2550 C   0  0  0  0  0  2  0  0  0  0  0  0
  -19.1590  -28.8470   23.3690 C   0  0  0  0  0  0  0  0  0  0  0  0
  -18.9370  -30.1070   23.9650 C   0  0  0  0  0  3  0  0  0  0  0  0
  -17.6320  -30.6040   24.1350 C   0  0  0  0  0  3  0  0  0  0  0  0
  -16.5280  -29.8370   23.7230 C   0  0  0  0  0  3  0  0  0  0  0  0
  -16.7350  -28.5780   23.1300 C   0  0  0  0  0  3  0  0  0  0  0  0
  -25.9030  -32.5040   23.8470 C   0  0  0  0  0  3  0  0  0  0  0  0
  -25.5960  -33.9010   24.1880 N   0  0  0  0  0  0  0  0  0  0  0  0
  -25.9130  -34.9580   23.4290 C   0  0  0  0  0  0  0  0  0  0  0  0
  -26.5650  -34.8590   22.3870 O   0  0  0  0  0  0  0  0  0  0  0  0
  -25.0150  -34.0520   25.0000 H   0  0  0  0  0  0  0  0  0  0  0  0
  -24.1750  -36.7510   23.1190 C   0  0  0  0  0  1  0  0  0  0  0  0
  -25.4350  -36.3460   23.9020 C   0  0  0  0  0  3  0  0  0  0  0  0
  -27.5850  -37.2370   24.6830 C   0  0  0  0  0  1  0  0  0  0  0  0
  -26.4590  -37.4040   23.7700 N   0  0  0  0  0  0  0  0  0  0  0  0
  -26.0510  -38.3210   23.9260 H   0  0  0  0  0  0  0  0  0  0  0  0
  -26.4230  -31.7290   25.1210 C   0  0  1  0  0  0  0  0  0  0  0  0
  -25.3360  -31.4950   26.1970 C   0  0  0  0  0  1  0  0  0  0  0  0
  -26.9910  -30.3480   24.7200 C   0  0  0  0  0  1  0  0  0  0  0  0
  -27.5830  -32.5140   25.7770 C   0  0  0  0  0  1  0  0  0  0  0  0
  1  2  1  0
  2  6  1  0
  2  4  2  0
  3  1  1  0
  3  7  1  0
  5 53  1  0
  5  1  2  0
  7  6  1  0
  8  3  2  0
 10 12  1  0
 11 13  2  0
 12  7  1  0
 12  9  2  0
 13 23  1  0
 13  9  1  0
 14 10  2  0
 14 11  1  0
 15 23  1  0
 16 21  1  0
 17 18  1  0
 17 16  1  0
 19 18  1  0
 19 28  1  0
 19 20  1  0
 21 15  1  0
 21 20  1  0
 22 15  2  0
 23 24  1  0
 25 26  2  0
 26 45  1  0
 27 26  1  0
 27 30  1  0
 28 25  1  0
 28 29  1  0
 29 27  2  0
 30 31  1  0
 31 32  2  0
 33 36  1  0
 33 32  1  0
 34 33  2  0
 35 34  1  0
 35 30  2  0
 36 37  1  0
 37 38  1  0
 38 39  2  0
 40 39  1  0
 40 44  1  0
 41 40  2  0
 42 37  2  0
 42 41  1  0
 43 42  1  0
 45 46  1  0
 46 49  1  0
 46 48  1  0
 47 45  2  0
 50 51  1  0
 50 25  1  0
 52 50  1  0
 54 65  2  0
 55 53  1  0
 55 60  1  0
 56 64  1  0
 56 66  1  0
 57 63  1  0
 57 59  1  0
 58 64  1  0
 59 58  1  0
 60 59  2  0
 61 62  1  0
 61 55  2  0
 62 57  2  0
 63 56  1  0
 64 54  1  0
 66 68  2  0
 67 66  1  0
 69 67  1  0
 70 79  2  0
 70 75  1  0
 71 67  1  0
 71 75  1  0
 72 71  1  0
 73 74  1  0
 73 72  1  0
 74 70  1  0
 75 76  2  0
 76 77  1  0
 78 77  2  0
 79 78  1  0
 80 54  1  0
 80 81  1  0
 80 90  1  0
 81 84  1  0
 82 86  1  0
 82 81  1  0
 83 82  2  0
 86 85  1  0
 88 86  1  0
 88 89  1  0
 88 87  1  0
 90 93  1  1
 90 91  1  0
 92 90  1  0
M  ISO  4   5 101  15 100  23 100  53 101
M  END
>  <TORSDO>  (56) 
F 17

>  <SCORE>  (56) 
-15.322

>  <name>  (56) 
55

>  <ligand_id>  (56) 
55

>  <original_smiles>  (56) 
[H]C([H])=C1C(=C([H])Oc2c([H])c([H])c3c(c2[H])C([H])([H])N(C(=O)C([H])(N([H])C(=O)C([H])(N([H])C([H])([H])[H])C([H])([H])[H])C(C([H])([H])[H])(C([H])([H])[H])C([H])([H])[H])C([H])(C(=O)N([H])C2([H])c4c([H])c([H])c([H])c([H])c4C([H])([H])C([H])([H])C2([H])[H])C3([H])[H])C(=O)N(c2c([H])nc([H])c(N([H])C(=O)N3C([H])([H])C([H])([H])C([H])([H])C([H])(n4nc(-c5c([H])c([H])c(Oc6c([H])c([H])c(F)c([H])c6F)c([H])c5[H])c(C(=O)N([H])[H])c4N([H])[H])C3([H])[H])c2[H])C1([H])[H]

>  <smiles>  (56) 
[H]C([H])=C1C(=C([H])Oc2c([H])c([H])c3c(c2[H])C([H])([H])N(C(=O)C([H])(N([H])C(=O)C([H])(N([H])C([H])([H])[H])C([H])([H])[H])C(C([H])([H])[H])(C([H])([H])[H])C([H])([H])[H])C([H])(C(=O)N([H])C2([H])c4c([H])c([H])c([H])c([H])c4C([H])([H])C([H])([H])C2([H])[H])C3([H])[H])C(=O)N(c2c([H])nc([H])c(N([H])C(=O)N3C([H])([H])C([H])([H])C([H])([H])C([H])(n4nc(-c5c([H])c([H])c(Oc6c([H])c([H])c(F)c([H])c6F)c([H])c5[H])c(C(=O)N([H])[H])c4N([H])[H])C3([H])[H])c2[H])C1([H])[H]

$$$$
56:0:0
     RDKit          3D

 94103  0  0  1  0  0  0  0  0999 V2000
  -28.6460  -23.7680   20.0980 C   0  0  0  0  0  0  0  0  0  0  0  0
  -28.7600  -23.4110   21.5070 C   0  0  0  0  0  0  0  0  0  0  0  0
  -28.8990  -22.4630   19.3860 C   0  0  0  0  0  0  0  0  0  0  0  0
  -28.3870  -25.0450   19.5480 C   0  0  0  0  0  0  0  0  0  0  0  0
  -29.0050  -21.8920   21.6390 C   0  0  0  0  0  2  0  0  0  0  0  0
  -28.3360  -25.2600   18.0380 C   0  0  0  0  0  1  0  0  0  0  0  0
  -29.1600  -21.4010   20.2600 N   0  0  0  0  0  0  0  0  0  0  0  0
  -28.6750  -24.1670   22.4790 O   0  0  0  0  0  0  0  0  0  0  0  0
  -28.8780  -22.3060   18.1590 O   0  0  0  0  0  0  0  0  0  0  0  0
  -31.5660  -18.9350   18.6590 C   0  0  0  0  0  3  0  0  0  0  0  0
  -30.8570  -20.0890   19.0280 C   0  0  0  0  0  3  0  0  0  0  0  0
  -31.2340  -17.6660   19.1680 C   0  0  0  0  0  3  0  0  0  0  0  0
  -29.4650  -18.7100   20.4690 C   0  0  0  0  0  3  0  0  0  0  0  0
  -29.7750  -20.0530   19.9380 C   0  0  0  0  0  0  0  0  0  0  0  0
  -30.1810  -17.4700   20.0930 C   0  0  0  0  0  0  0  0  0  0  0  0
  -30.5930  -14.8470   20.3400 C   0  0  0  0  0  0  0  0  0  0  0  0
  -30.3740  -12.5380   19.3860 C   0  0  0  0  0  2  0  0  0  0  0  0
  -29.4510  -12.5750   18.1500 C   0  0  0  0  0  2  0  0  0  0  0  0
  -27.9810  -12.4000   18.5750 C   0  0  0  0  0  2  0  0  0  0  0  0
  -27.5950  -13.3050   19.7760 C   0  0  0  0  0  3  0  0  0  0  0  0
  -28.6510  -13.2730   20.9030 C   0  0  0  0  0  2  0  0  0  0  0  0
  -29.9420  -13.6260   20.3030 N   0  0  0  0  0  0  0  0  0  0  0  0
  -31.7940  -14.8580   20.0570 O   0  0  0  0  0  0  0  0  0  0  0  0
  -29.8760  -16.0490   20.5230 N   0  0  0  0  0  0  0  0  0  0  0  0
  -28.9520  -15.9120   20.9040 H   0  0  0  0  0  0  0  0  0  0  0  0
  -25.2090  -13.8880   20.5010 C   0  0  0  0  0  0  0  0  0  0  0  0
  -24.1420  -13.1140   20.8690 C   0  0  0  0  0  0  0  0  0  0  0  0
  -24.6070  -11.7630   20.8480 C   0  0  0  0  0  0  0  0  0  0  0  0
  -26.2530  -13.0100   20.2700 N   0  0  0  0  0  0  0  0  0  0  0  0
  -25.9000  -11.7270   20.5450 N   0  0  0  0  0  0  0  0  0  0  0  0
  -23.8800  -10.5010   21.0420 C   0  0  0  0  0  0  0  0  0  0  0  0
  -24.3140   -9.5320   21.9730 C   0  0  0  0  0  3  0  0  0  0  0  0
  -23.5850   -8.3370   22.1580 C   0  0  0  0  0  3  0  0  0  0  0  0
  -22.4070   -8.1020   21.4090 C   0  0  0  0  0  0  0  0  0  0  0  0
  -21.9920   -9.0600   20.4670 C   0  0  0  0  0  3  0  0  0  0  0  0
  -22.7220  -10.2460   20.2820 C   0  0  0  0  0  3  0  0  0  0  0  0
  -21.6520   -6.9570   21.5000 O   0  0  0  0  0  0  0  0  0  0  0  0
  -21.6190   -6.2060   22.6470 C   0  0  0  0  0  0  0  0  0  0  0  0
  -21.2230   -6.7550   23.8850 C   0  0  0  0  0  3  0  0  0  0  0  0
  -21.1340   -5.9310   25.0250 C   0  0  0  0  0  3  0  0  0  0  0  0
  -21.4330   -4.5590   24.9290 C   0  0  0  0  0  0  0  0  0  0  0  0
  -21.8240   -4.0100   23.6950 C   0  0  0  0  0  3  0  0  0  0  0  0
  -21.9130   -4.8310   22.5560 C   0  0  0  0  0  0  0  0  0  0  0  0
  -22.2690   -4.2910   21.3650 F   0  0  0  0  0  0  0  0  0  0  0  0
  -21.3410   -3.7660   26.0210 F   0  0  0  0  0  0  0  0  0  0  0  0
  -22.7430  -13.5930   21.1300 C   0  0  0  0  0  0  0  0  0  0  0  0
  -22.0120  -12.9030   21.9980 N   0  0  0  0  0  0  0  0  0  0  0  0
  -22.3080  -14.6140   20.6000 O   0  0  0  0  0  0  0  0  0  0  0  0
  -22.3760  -12.0780   22.4510 H   0  0  0  0  0  0  0  0  0  0  0  0
  -21.0740  -13.2090   22.2160 H   0  0  0  0  0  0  0  0  0  0  0  0
  -25.3720  -15.2570   20.3130 N   0  0  0  0  0  0  0  0  0  0  0  0
  -24.5990  -15.9090   20.3980 H   0  0  0  0  0  0  0  0  0  0  0  0
  -26.2110  -15.6880   19.9470 H   0  0  0  0  0  0  0  0  0  0  0  0
  -28.2960  -26.3200   20.2250 O   0  0  0  0  0  0  0  0  0  0  0  0
  -24.6460  -31.8740   23.2270 C   0  0  0  0  0  0  0  0  0  0  0  0
  -27.2080  -27.2400   20.1330 C   0  0  0  0  0  0  0  0  0  0  0  0
  -23.4250  -30.4790   21.6000 C   0  0  0  0  0  3  0  0  0  0  0  0
  -24.8550  -28.9180   20.1530 C   0  0  0  0  0  0  0  0  0  0  0  0
  -25.9690  -30.7730   21.3930 C   0  0  0  0  0  2  0  0  0  0  0  0
  -26.0390  -29.3870   20.7370 C   0  0  0  0  0  0  0  0  0  0  0  0
  -27.2140  -28.5620   20.7130 C   0  0  0  0  0  3  0  0  0  0  0  0
  -25.9900  -26.8410   19.5400 C   0  0  0  0  0  3  0  0  0  0  0  0
  -24.8380  -27.6530   19.5450 C   0  0  0  0  0  3  0  0  0  0  0  0
  -23.6240  -29.8050   20.2170 C   0  0  0  0  0  2  0  0  0  0  0  0
  -24.7010  -31.0620   22.1300 N   0  0  0  0  0  0  0  0  0  0  0  0
  -23.5690  -32.1540   23.7730 O   0  0  0  0  0  0  0  0  0  0  0  0
  -22.7650  -29.4660   22.5680 C   0  0  0  0  0  0  0  0  0  0  0  0
  -21.4380  -29.2880   22.4520 N   0  0  0  0  0  0  0  0  0  0  0  0
  -23.4490  -28.8450   23.3850 O   0  0  0  0  0  0  0  0  0  0  0  0
  -20.9440  -29.8420   21.7670 H   0  0  0  0  0  0  0  0  0  0  0  0
  -18.0690  -28.0630   22.9640 C   0  0  0  0  0  0  0  0  0  0  0  0
  -20.6260  -28.3500   23.2310 C   0  0  0  0  0  3  0  0  0  0  0  0
  -20.7410  -26.9140   22.6680 C   0  0  0  0  0  2  0  0  0  0  0  0
  -19.6420  -26.5720   21.6560 C   0  0  0  0  0  2  0  0  0  0  0  0
  -18.2590  -26.7100   22.2990 C   0  0  0  0  0  2  0  0  0  0  0  0
  -19.1810  -28.8400   23.3870 C   0  0  0  0  0  0  0  0  0  0  0  0
  -18.9490  -30.1030   23.9710 C   0  0  0  0  0  3  0  0  0  0  0  0
  -17.6400  -30.5930   24.1350 C   0  0  0  0  0  3  0  0  0  0  0  0
  -16.5440  -29.8140   23.7280 C   0  0  0  0  0  3  0  0  0  0  0  0
  -16.7590  -28.5520   23.1480 C   0  0  0  0  0  3  0  0  0  0  0  0
  -25.9340  -32.5090   23.8370 C   0  0  0  0  0  3  0  0  0  0  0  0
  -25.6250  -33.9050   24.1790 N   0  0  0  0  0  0  0  0  0  0  0  0
  -25.9410  -34.9650   23.4220 C   0  0  0  0  0  0  0  0  0  0  0  0
  -26.5920  -34.8690   22.3790 O   0  0  0  0  0  0  0  0  0  0  0  0
  -25.0470  -34.0520   24.9930 H   0  0  0  0  0  0  0  0  0  0  0  0
  -24.2020  -36.7570   23.1150 C   0  0  0  0  0  1  0  0  0  0  0  0
  -25.4610  -36.3500   23.8970 C   0  0  0  0  0  3  0  0  0  0  0  0
  -27.6120  -37.2360   24.6860 C   0  0  0  0  0  1  0  0  0  0  0  0
  -26.4880  -37.4060   23.7690 N   0  0  0  0  0  0  0  0  0  0  0  0
  -26.0830  -38.3240   23.9310 H   0  0  0  0  0  0  0  0  0  0  0  0
  -26.4630  -31.7350   25.1070 C   0  0  1  0  0  0  0  0  0  0  0  0
  -25.3820  -31.5000   26.1880 C   0  0  0  0  0  1  0  0  0  0  0  0
  -27.0390  -30.3550   24.7090 C   0  0  0  0  0  1  0  0  0  0  0  0
  -27.6230  -32.5260   25.7580 C   0  0  0  0  0  1  0  0  0  0  0  0
  1  2  1  0
  2  5  1  0
  2  8  2  0
  3  1  1  0
  3  7  1  0
  4  1  2  0
  4 54  1  0
  6  4  1  0
  7  5  1  0
  9  3  2  0
 10 11  2  0
 10 12  1  0
 11 14  1  0
 12 15  2  0
 14  7  1  0
 14 13  2  0
 15 13  1  0
 15 24  1  0
 16 24  1  0
 17 22  1  0
 18 19  1  0
 18 17  1  0
 20 19  1  0
 20 29  1  0
 20 21  1  0
 22 16  1  0
 22 21  1  0
 23 16  2  0
 24 25  1  0
 26 27  2  0
 27 46  1  0
 28 27  1  0
 28 31  1  0
 29 26  1  0
 29 30  1  0
 30 28  2  0
 31 32  1  0
 32 33  2  0
 34 37  1  0
 34 33  1  0
 35 34  2  0
 36 35  1  0
 36 31  2  0
 37 38  1  0
 38 39  1  0
 39 40  2  0
 41 40  1  0
 41 45  1  0
 42 41  2  0
 43 38  2  0
 43 42  1  0
 44 43  1  0
 46 47  1  0
 47 50  1  0
 47 49  1  0
 48 46  2  0
 51 52  1  0
 51 26  1  0
 53 51  1  0
 55 66  2  0
 56 54  1  0
 56 61  1  0
 57 65  1  0
 57 67  1  0
 58 64  1  0
 58 60  1  0
 59 65  1  0
 60 59  1  0
 61 60  2  0
 62 63  1  0
 62 56  2  0
 63 58  2  0
 64 57  1  0
 65 55  1  0
 67 69  2  0
 68 67  1  0
 70 68  1  0
 71 80  2  0
 71 76  1  0
 72 68  1  0
 72 76  1  0
 73 72  1  0
 74 75  1  0
 74 73  1  0
 75 71  1  0
 76 77  2  0
 77 78  1  0
 79 78  2  0
 80 79  1  0
 81 55  1  0
 81 82  1  0
 81 91  1  0
 82 85  1  0
 83 87  1  0
 83 82  1  0
 84 83  2  0
 87 86  1  0
 89 87  1  0
 89 90  1  0
 89 88  1  0
 91 94  1  1
 91 92  1  0
 93 91  1  0
M  ISO  4   4 101  16 100  24 100  54 101
M  END
>  <TORSDO>  (57) 
F 17

>  <SCORE>  (57) 
-15.250

>  <name>  (57) 
56

>  <ligand_id>  (57) 
56

>  <original_smiles>  (57) 
[H]c1c([H])c(N([H])C(=O)N2C([H])([H])C([H])([H])C([H])([H])C([H])(n3nc(-c4c([H])c([H])c(Oc5c([H])c([H])c(F)c([H])c5F)c([H])c4[H])c(C(=O)N([H])[H])c3N([H])[H])C2([H])[H])c([H])c(N2C(=O)C(=C(Oc3c([H])c([H])c4c(c3[H])C([H])([H])N(C(=O)C([H])(N([H])C(=O)C([H])(N([H])C([H])([H])[H])C([H])([H])[H])C(C([H])([H])[H])(C([H])([H])[H])C([H])([H])[H])C([H])(C(=O)N([H])C3([H])c5c([H])c([H])c([H])c([H])c5C([H])([H])C([H])([H])C3([H])[H])C4([H])[H])C([H])([H])[H])C(=O)C2([H])[H])c1[H]

>  <smiles>  (57) 
[H]c1c([H])c(N([H])C(=O)N2C([H])([H])C([H])([H])C([H])([H])C([H])(n3nc(-c4c([H])c([H])c(Oc5c([H])c([H])c(F)c([H])c5F)c([H])c4[H])c(C(=O)N([H])[H])c3N([H])[H])C2([H])[H])c([H])c(N2C(=O)C(=C(Oc3c([H])c([H])c4c(c3[H])C([H])([H])N(C(=O)C([H])(N([H])C(=O)C([H])(N([H])C([H])([H])[H])C([H])([H])[H])C(C([H])([H])[H])(C([H])([H])[H])C([H])([H])[H])C([H])(C(=O)N([H])C3([H])c5c([H])c([H])c([H])c([H])c5C([H])([H])C([H])([H])C3([H])[H])C4([H])[H])C([H])([H])[H])C(=O)C2([H])[H])c1[H]

$$$$
57:0:0
     RDKit          3D

 95104  0  0  1  0  0  0  0  0999 V2000
  -28.7220  -24.1100   20.2450 C   0  0  0  0  0  0  0  0  0  0  0  0
  -28.9700  -23.9030   21.6490 C   0  0  0  0  0  0  0  0  0  0  0  0
  -28.8730  -22.7410   19.6390 C   0  0  0  0  0  0  0  0  0  0  0  0
  -28.8500  -24.8190   22.6270 C   0  0  0  0  0  1  0  0  0  0  0  0
  -28.4440  -25.3080   19.5840 C   0  0  0  0  0  3  0  0  0  0  0  0
  -29.3680  -22.4660   21.8970 C   0  0  0  0  0  2  0  0  0  0  0  0
  -28.3490  -25.4060   18.0650 C   0  0  0  0  0  1  0  0  0  0  0  0
  -29.2300  -21.7990   20.5940 N   0  0  0  0  0  0  0  0  0  0  0  0
  -28.7130  -22.4590   18.4460 O   0  0  0  0  0  0  0  0  0  0  0  0
  -30.2450  -19.6190   21.4440 C   0  0  0  0  0  3  0  0  0  0  0  0
  -30.4250  -18.1990   21.4350 C   0  0  0  0  0  3  0  0  0  0  0  0
  -28.9040  -19.4780   19.4740 C   0  0  0  0  0  3  0  0  0  0  0  0
  -29.0680  -18.0490   19.4630 C   0  0  0  0  0  0  0  0  0  0  0  0
  -29.4620  -20.3250   20.4790 C   0  0  0  0  0  0  0  0  0  0  0  0
  -29.8330  -17.3600   20.4540 C   0  0  0  0  0  0  0  0  0  0  0  0
  -28.3570  -17.2500   18.3850 C   0  0  0  0  0  1  0  0  0  0  0  0
  -30.6320  -14.8620   20.2760 C   0  0  0  0  0  0  0  0  0  0  0  0
  -30.4870  -12.5890   19.2520 C   0  0  0  0  0  2  0  0  0  0  0  0
  -29.5150  -12.6610   18.0530 C   0  0  0  0  0  2  0  0  0  0  0  0
  -28.0540  -12.4670   18.5110 C   0  0  0  0  0  2  0  0  0  0  0  0
  -27.6960  -13.3380   19.7440 C   0  0  0  0  0  3  0  0  0  0  0  0
  -28.7790  -13.2290   20.8400 C   0  0  0  0  0  2  0  0  0  0  0  0
  -30.0640  -13.6100   20.2330 N   0  0  0  0  0  0  0  0  0  0  0  0
  -31.7870  -15.0460   19.8790 O   0  0  0  0  0  0  0  0  0  0  0  0
  -29.7830  -15.8940   20.6150 N   0  0  0  0  0  0  0  0  0  0  0  0
  -28.8780  -15.5510   20.8950 H   0  0  0  0  0  0  0  0  0  0  0  0
  -25.3210  -13.9040   20.5420 C   0  0  0  0  0  0  0  0  0  0  0  0
  -24.2680  -13.1160   20.9190 C   0  0  0  0  0  0  0  0  0  0  0  0
  -24.7360  -11.7680   20.8420 C   0  0  0  0  0  0  0  0  0  0  0  0
  -26.3630  -13.0350   20.2570 N   0  0  0  0  0  0  0  0  0  0  0  0
  -26.0180  -11.7450   20.4980 N   0  0  0  0  0  0  0  0  0  0  0  0
  -24.0210  -10.4980   21.0190 C   0  0  0  0  0  0  0  0  0  0  0  0
  -24.4440   -9.5380   21.9640 C   0  0  0  0  0  3  0  0  0  0  0  0
  -23.7280   -8.3320   22.1280 C   0  0  0  0  0  3  0  0  0  0  0  0
  -22.5760   -8.0780   21.3470 C   0  0  0  0  0  0  0  0  0  0  0  0
  -22.1740   -9.0270   20.3900 C   0  0  0  0  0  3  0  0  0  0  0  0
  -22.8900  -10.2240   20.2240 C   0  0  0  0  0  3  0  0  0  0  0  0
  -21.8340   -6.9240   21.4190 O   0  0  0  0  0  0  0  0  0  0  0  0
  -21.7100   -6.2210   22.5900 C   0  0  0  0  0  0  0  0  0  0  0  0
  -21.0970   -6.7790   23.7330 C   0  0  0  0  0  3  0  0  0  0  0  0
  -20.9280   -5.9980   24.8940 C   0  0  0  0  0  3  0  0  0  0  0  0
  -21.3610   -4.6580   24.9110 C   0  0  0  0  0  0  0  0  0  0  0  0
  -21.9660   -4.0990   23.7720 C   0  0  0  0  0  3  0  0  0  0  0  0
  -22.1370   -4.8770   22.6140 C   0  0  0  0  0  0  0  0  0  0  0  0
  -22.7020   -4.3280   21.5120 F   0  0  0  0  0  0  0  0  0  0  0  0
  -21.1910   -3.9050   26.0230 F   0  0  0  0  0  0  0  0  0  0  0  0
  -22.8760  -13.5790   21.2390 C   0  0  0  0  0  0  0  0  0  0  0  0
  -22.1770  -12.8620   22.1130 N   0  0  0  0  0  0  0  0  0  0  0  0
  -22.4180  -14.6100   20.7500 O   0  0  0  0  0  0  0  0  0  0  0  0
  -22.5610  -12.0280   22.5310 H   0  0  0  0  0  0  0  0  0  0  0  0
  -21.2440  -13.1550   22.3690 H   0  0  0  0  0  0  0  0  0  0  0  0
  -25.4720  -15.2800   20.3970 N   0  0  0  0  0  0  0  0  0  0  0  0
  -24.7000  -15.9210   20.5460 H   0  0  0  0  0  0  0  0  0  0  0  0
  -26.3050  -15.7390   20.0540 H   0  0  0  0  0  0  0  0  0  0  0  0
  -28.3860  -26.5990   20.1800 O   0  0  0  0  0  0  0  0  0  0  0  0
  -24.6580  -31.9420   23.3320 C   0  0  0  0  0  0  0  0  0  0  0  0
  -27.2530  -27.4430   20.1400 C   0  0  0  0  0  0  0  0  0  0  0  0
  -23.4420  -30.5830   21.6690 C   0  0  0  0  0  3  0  0  0  0  0  0
  -24.8810  -29.0630   20.1960 C   0  0  0  0  0  0  0  0  0  0  0  0
  -25.9800  -30.9020   21.4720 C   0  0  0  0  0  2  0  0  0  0  0  0
  -26.0560  -29.5380   20.7910 C   0  0  0  0  0  0  0  0  0  0  0  0
  -27.2410  -28.7400   20.7530 C   0  0  0  0  0  3  0  0  0  0  0  0
  -26.0410  -27.0160   19.5500 C   0  0  0  0  0  3  0  0  0  0  0  0
  -24.8760  -27.8080   19.5670 C   0  0  0  0  0  3  0  0  0  0  0  0
  -23.6450  -29.9370   20.2730 C   0  0  0  0  0  2  0  0  0  0  0  0
  -24.7140  -31.1580   22.2150 N   0  0  0  0  0  0  0  0  0  0  0  0
  -23.5790  -32.2070   23.8810 O   0  0  0  0  0  0  0  0  0  0  0  0
  -22.7850  -29.5450   22.6110 C   0  0  0  0  0  0  0  0  0  0  0  0
  -21.4690  -29.3270   22.4490 N   0  0  0  0  0  0  0  0  0  0  0  0
  -23.4600  -28.9400   23.4490 O   0  0  0  0  0  0  0  0  0  0  0  0
  -20.9820  -29.8690   21.7500 H   0  0  0  0  0  0  0  0  0  0  0  0
  -18.1190  -28.0220   22.8520 C   0  0  0  0  0  0  0  0  0  0  0  0
  -20.6590  -28.3630   23.1970 C   0  0  0  0  0  3  0  0  0  0  0  0
  -20.8230  -26.9360   22.6250 C   0  0  0  0  0  2  0  0  0  0  0  0
  -19.7620  -26.5770   21.5800 C   0  0  0  0  0  2  0  0  0  0  0  0
  -18.3580  -26.6790   22.1830 C   0  0  0  0  0  2  0  0  0  0  0  0
  -19.1990  -28.8200   23.3140 C   0  0  0  0  0  0  0  0  0  0  0  0
  -18.9220  -30.0750   23.8980 C   0  0  0  0  0  3  0  0  0  0  0  0
  -17.5970  -30.5330   24.0260 C   0  0  0  0  0  3  0  0  0  0  0  0
  -16.5310  -29.7320   23.5810 C   0  0  0  0  0  3  0  0  0  0  0  0
  -16.7920  -28.4780   23.0000 C   0  0  0  0  0  3  0  0  0  0  0  0
  -25.9460  -32.5600   23.9600 C   0  0  0  0  0  3  0  0  0  0  0  0
  -25.6540  -33.9650   24.2800 N   0  0  0  0  0  0  0  0  0  0  0  0
  -25.9520  -35.0040   23.4880 C   0  0  0  0  0  0  0  0  0  0  0  0
  -26.5700  -34.8810   22.4270 O   0  0  0  0  0  0  0  0  0  0  0  0
  -25.0990  -34.1350   25.1050 H   0  0  0  0  0  0  0  0  0  0  0  0
  -24.1980  -36.7870   23.2070 C   0  0  0  0  0  1  0  0  0  0  0  0
  -25.4900  -36.4020   23.9450 C   0  0  0  0  0  3  0  0  0  0  0  0
  -27.6620  -37.3210   24.6300 C   0  0  0  0  0  1  0  0  0  0  0  0
  -26.5100  -37.4540   23.7410 N   0  0  0  0  0  0  0  0  0  0  0  0
  -26.1080  -38.3770   23.8810 H   0  0  0  0  0  0  0  0  0  0  0  0
  -26.4400  -31.7890   25.2460 C   0  0  1  0  0  0  0  0  0  0  0  0
  -25.3330  -31.5700   26.3030 C   0  0  0  0  0  1  0  0  0  0  0  0
  -27.0120  -30.4030   24.8680 C   0  0  0  0  0  1  0  0  0  0  0  0
  -27.5930  -32.5750   25.9160 C   0  0  0  0  0  1  0  0  0  0  0  0
  1  2  2  0
  2  6  1  0
  2  4  1  0
  3  1  1  0
  3  8  1  0
  5  7  1  0
  5 55  1  0
  5  1  1  0
  8  6  1  0
  9  3  2  0
 11 10  1  0
 12 14  1  0
 13 12  2  0
 13 15  1  0
 14  8  1  0
 14 10  2  0
 15 25  1  0
 15 11  2  0
 16 13  1  0
 17 25  1  0
 18 23  1  0
 19 20  1  0
 19 18  1  0
 21 20  1  0
 21 30  1  0
 21 22  1  0
 23 17  1  0
 23 22  1  0
 24 17  2  0
 25 26  1  0
 27 28  2  0
 28 47  1  0
 29 28  1  0
 29 32  1  0
 30 31  1  0
 30 27  1  0
 31 29  2  0
 32 33  1  0
 33 34  2  0
 35 38  1  0
 35 34  1  0
 36 35  2  0
 37 36  1  0
 37 32  2  0
 38 39  1  0
 39 44  2  0
 39 40  1  0
 40 41  2  0
 41 42  1  0
 42 46  1  0
 43 42  2  0
 44 43  1  0
 45 44  1  0
 47 48  1  0
 48 51  1  0
 48 50  1  0
 49 47  2  0
 52 27  1  0
 52 53  1  0
 54 52  1  0
 56 67  2  0
 57 55  1  0
 57 62  1  0
 58 66  1  0
 58 68  1  0
 59 65  1  0
 59 61  1  0
 60 66  1  0
 61 60  1  0
 62 61  2  0
 63 64  1  0
 63 57  2  0
 64 59  2  0
 65 58  1  0
 66 56  1  0
 68 70  2  0
 69 68  1  0
 71 69  1  0
 72 81  2  0
 72 77  1  0
 73 69  1  0
 73 77  1  0
 74 73  1  0
 75 76  1  0
 75 74  1  0
 76 72  1  0
 77 78  2  0
 78 79  1  0
 80 79  2  0
 81 80  1  0
 82 56  1  0
 82 83  1  0
 82 92  1  0
 83 86  1  0
 84 88  1  0
 84 83  1  0
 85 84  2  0
 88 87  1  0
 90 91  1  0
 90 88  1  0
 90 89  1  0
 92 95  1  1
 92 93  1  0
 94 92  1  0
M  ISO  4   5 101  17 100  25 100  55 101
M  END
>  <TORSDO>  (58) 
F 17

>  <SCORE>  (58) 
-15.321

>  <name>  (58) 
57

>  <ligand_id>  (58) 
57

>  <original_smiles>  (58) 
[H]C([H])=C1C(=C(Oc2c([H])c([H])c3c(c2[H])C([H])([H])N(C(=O)C([H])(N([H])C(=O)C([H])(N([H])C([H])([H])[H])C([H])([H])[H])C(C([H])([H])[H])(C([H])([H])[H])C([H])([H])[H])C([H])(C(=O)N([H])C2([H])c4c([H])c([H])c([H])c([H])c4C([H])([H])C([H])([H])C2([H])[H])C3([H])[H])C([H])([H])[H])C(=O)N(c2c([H])c([H])c(N([H])C(=O)N3C([H])([H])C([H])([H])C([H])([H])C([H])(n4nc(-c5c([H])c([H])c(Oc6c([H])c([H])c(F)c([H])c6F)c([H])c5[H])c(C(=O)N([H])[H])c4N([H])[H])C3([H])[H])c(C([H])([H])[H])c2[H])C1([H])[H]

>  <smiles>  (58) 
[H]C([H])=C1C(=C(Oc2c([H])c([H])c3c(c2[H])C([H])([H])N(C(=O)C([H])(N([H])C(=O)C([H])(N([H])C([H])([H])[H])C([H])([H])[H])C(C([H])([H])[H])(C([H])([H])[H])C([H])([H])[H])C([H])(C(=O)N([H])C2([H])c4c([H])c([H])c([H])c([H])c4C([H])([H])C([H])([H])C2([H])[H])C3([H])[H])C([H])([H])[H])C(=O)N(c2c([H])c([H])c(N([H])C(=O)N3C([H])([H])C([H])([H])C([H])([H])C([H])(n4nc(-c5c([H])c([H])c(Oc6c([H])c([H])c(F)c([H])c6F)c([H])c5[H])c(C(=O)N([H])[H])c4N([H])[H])C3([H])[H])c(C([H])([H])[H])c2[H])C1([H])[H]

$$$$
58:0:0
     RDKit          3D

 93101  0  0  1  0  0  0  0  0999 V2000
  -28.4880  -22.2320   20.8380 C   0  0  0  0  0  0  0  0  0  0  0  0
  -28.0570  -24.8700   20.7000 C   0  0  0  0  0  0  0  0  0  0  0  0
  -28.7150  -23.6580   20.2660 N   0  0  0  0  0  0  0  0  0  0  0  0
  -27.1400  -24.8570   21.6870 N   0  0  0  0  0  4  0  0  0  0  0  0
  -27.7070  -22.2100   21.8000 O   0  0  0  0  0  0  0  0  0  0  0  0
  -29.3470  -23.8030   19.4970 H   0  0  0  0  0  0  0  0  0  0  0  0
  -26.9240  -23.9780   22.1440 H   0  0  0  0  0  0  0  0  0  0  0  0
  -26.6990  -25.7040   22.0040 H   0  0  0  0  0  0  0  0  0  0  0  0
  -28.0070  -19.6730   20.4440 C   0  0  0  0  0  3  0  0  0  0  0  0
  -30.2990  -20.1690   20.3260 C   0  0  0  0  0  3  0  0  0  0  0  0
  -28.2960  -18.2590   20.3770 C   0  0  0  0  0  3  0  0  0  0  0  0
  -30.5940  -18.7230   20.2500 C   0  0  0  0  0  3  0  0  0  0  0  0
  -28.9710  -20.7370   20.4380 C   0  0  0  0  0  0  0  0  0  0  0  0
  -29.5980  -17.6730   20.2950 C   0  0  0  0  0  0  0  0  0  0  0  0
  -30.5580  -15.0460   20.0240 C   0  0  0  0  0  0  0  0  0  0  0  0
  -30.4310  -12.7180   19.0140 C   0  0  0  0  0  2  0  0  0  0  0  0
  -29.4200  -12.7140   17.8410 C   0  0  0  0  0  2  0  0  0  0  0  0
  -27.9830  -12.4870   18.3510 C   0  0  0  0  0  2  0  0  0  0  0  0
  -27.6480  -13.3700   19.5800 C   0  0  0  0  0  3  0  0  0  0  0  0
  -28.7680  -13.3240   20.6430 C   0  0  0  0  0  2  0  0  0  0  0  0
  -30.0070  -13.7650   19.9840 N   0  0  0  0  0  0  0  0  0  0  0  0
  -31.7290  -15.1820   19.6480 O   0  0  0  0  0  0  0  0  0  0  0  0
  -29.6940  -16.1330   20.3200 N   0  0  0  0  0  0  0  0  0  0  0  0
  -28.8080  -15.7310   20.5840 H   0  0  0  0  0  0  0  0  0  0  0  0
  -25.3110  -13.9320   20.4630 C   0  0  0  0  0  0  0  0  0  0  0  0
  -24.2670  -13.1490   20.8740 C   0  0  0  0  0  0  0  0  0  0  0  0
  -24.7270  -11.7990   20.7800 C   0  0  0  0  0  0  0  0  0  0  0  0
  -26.3370  -13.0610   20.1420 N   0  0  0  0  0  0  0  0  0  0  0  0
  -25.9980  -11.7710   20.3960 N   0  0  0  0  0  0  0  0  0  0  0  0
  -24.0080  -10.5330   20.9740 C   0  0  0  0  0  0  0  0  0  0  0  0
  -24.4610   -9.5610   21.8950 C   0  0  0  0  0  3  0  0  0  0  0  0
  -23.7410   -8.3600   22.0790 C   0  0  0  0  0  3  0  0  0  0  0  0
  -22.5560   -8.1220   21.3430 C   0  0  0  0  0  0  0  0  0  0  0  0
  -22.1230   -9.0830   20.4110 C   0  0  0  0  0  3  0  0  0  0  0  0
  -22.8440  -10.2750   20.2250 C   0  0  0  0  0  3  0  0  0  0  0  0
  -21.8070   -6.9740   21.4370 O   0  0  0  0  0  0  0  0  0  0  0  0
  -21.7450   -6.2490   22.6000 C   0  0  0  0  0  0  0  0  0  0  0  0
  -21.2770   -6.8140   23.8060 C   0  0  0  0  0  3  0  0  0  0  0  0
  -21.1650   -6.0130   24.9610 C   0  0  0  0  0  3  0  0  0  0  0  0
  -21.5090   -4.6500   24.9100 C   0  0  0  0  0  0  0  0  0  0  0  0
  -21.9710   -4.0850   23.7080 C   0  0  0  0  0  3  0  0  0  0  0  0
  -22.0850   -4.8820   22.5560 C   0  0  0  0  0  0  0  0  0  0  0  0
  -22.5100   -4.3270   21.3950 F   0  0  0  0  0  0  0  0  0  0  0  0
  -21.3950   -3.8790   26.0170 F   0  0  0  0  0  0  0  0  0  0  0  0
  -22.8880  -13.6190   21.2340 C   0  0  0  0  0  0  0  0  0  0  0  0
  -22.2070  -12.9000   22.1180 N   0  0  0  0  0  0  0  0  0  0  0  0
  -22.4260  -14.6600   20.7660 O   0  0  0  0  0  0  0  0  0  0  0  0
  -22.5950  -12.0580   22.5170 H   0  0  0  0  0  0  0  0  0  0  0  0
  -21.2830  -13.1960   22.4020 H   0  0  0  0  0  0  0  0  0  0  0  0
  -25.4630  -15.3070   20.3060 N   0  0  0  0  0  0  0  0  0  0  0  0
  -24.6840  -15.9440   20.4440 H   0  0  0  0  0  0  0  0  0  0  0  0
  -26.2420  -15.7370   19.8260 H   0  0  0  0  0  0  0  0  0  0  0  0
  -28.2970  -26.2070   20.2060 O   0  0  0  0  0  0  0  0  0  0  0  0
  -24.5860  -31.8840   23.1800 C   0  0  0  0  0  0  0  0  0  0  0  0
  -27.2600  -27.2150   20.1720 C   0  0  0  0  0  0  0  0  0  0  0  0
  -23.4230  -30.4790   21.5220 C   0  0  0  0  0  3  0  0  0  0  0  0
  -24.9110  -28.9260   20.1130 C   0  0  0  0  0  0  0  0  0  0  0  0
  -25.9760  -30.7770   21.3910 C   0  0  0  0  0  2  0  0  0  0  0  0
  -26.0770  -29.3870   20.7390 C   0  0  0  0  0  0  0  0  0  0  0  0
  -27.2560  -28.5470   20.7540 C   0  0  0  0  0  3  0  0  0  0  0  0
  -26.0710  -26.8580   19.5030 C   0  0  0  0  0  3  0  0  0  0  0  0
  -24.9190  -27.6750   19.4790 C   0  0  0  0  0  3  0  0  0  0  0  0
  -23.6710  -29.8080   20.1450 C   0  0  0  0  0  2  0  0  0  0  0  0
  -24.6810  -31.0680   22.0860 N   0  0  0  0  0  0  0  0  0  0  0  0
  -23.4890  -32.1550   23.6950 O   0  0  0  0  0  0  0  0  0  0  0  0
  -22.7440  -29.4620   22.4720 C   0  0  0  0  0  0  0  0  0  0  0  0
  -21.4140  -29.3030   22.3510 N   0  0  0  0  0  0  0  0  0  0  0  0
  -23.4160  -28.8190   23.2830 O   0  0  0  0  0  0  0  0  0  0  0  0
  -20.9280  -29.8720   21.6730 H   0  0  0  0  0  0  0  0  0  0  0  0
  -18.0220  -28.1450   22.8840 C   0  0  0  0  0  0  0  0  0  0  0  0
  -20.5890  -28.3590   23.1130 C   0  0  0  0  0  3  0  0  0  0  0  0
  -20.6570  -26.9410   22.5010 C   0  0  0  0  0  2  0  0  0  0  0  0
  -19.5340  -26.6610   21.4980 C   0  0  0  0  0  2  0  0  0  0  0  0
  -18.1650  -26.8110   22.1700 C   0  0  0  0  0  2  0  0  0  0  0  0
  -19.1590  -28.8790   23.3120 C   0  0  0  0  0  0  0  0  0  0  0  0
  -18.9690  -30.1280   23.9420 C   0  0  0  0  0  3  0  0  0  0  0  0
  -17.6750  -30.6430   24.1470 C   0  0  0  0  0  3  0  0  0  0  0  0
  -16.5520  -29.9050   23.7320 C   0  0  0  0  0  3  0  0  0  0  0  0
  -16.7270  -28.6580   23.1070 C   0  0  0  0  0  3  0  0  0  0  0  0
  -25.8480  -32.5320   23.8250 C   0  0  0  0  0  3  0  0  0  0  0  0
  -25.5180  -33.9290   24.1510 N   0  0  0  0  0  0  0  0  0  0  0  0
  -25.8560  -34.9890   23.4050 C   0  0  0  0  0  0  0  0  0  0  0  0
  -26.5450  -34.8940   22.3850 O   0  0  0  0  0  0  0  0  0  0  0  0
  -24.9080  -34.0760   24.9420 H   0  0  0  0  0  0  0  0  0  0  0  0
  -24.1270  -36.7790   23.0250 C   0  0  0  0  0  1  0  0  0  0  0  0
  -25.3530  -36.3730   23.8610 C   0  0  0  0  0  3  0  0  0  0  0  0
  -27.4630  -37.2690   24.7450 C   0  0  0  0  0  1  0  0  0  0  0  0
  -26.3830  -37.4320   23.7750 N   0  0  0  0  0  0  0  0  0  0  0  0
  -25.9680  -38.3500   23.9140 H   0  0  0  0  0  0  0  0  0  0  0  0
  -26.3450  -31.7710   25.1150 C   0  0  1  0  0  0  0  0  0  0  0  0
  -25.2340  -31.5250   26.1620 C   0  0  0  0  0  1  0  0  0  0  0  0
  -26.9500  -30.3960   24.7430 C   0  0  0  0  0  1  0  0  0  0  0  0
  -27.4750  -32.5780   25.7980 C   0  0  0  0  0  1  0  0  0  0  0  0
  1  5  2  0
  2  4  2  0
  3  2  1  0
  3  1  1  0
  4  8  1  0
  4  7  1  0
  6  3  1  0
 10 13  2  0
 11  9  2  0
 12 14  2  0
 12 10  1  0
 13  9  1  0
 13  1  1  0
 14 23  1  0
 14 11  1  0
 15 23  1  0
 16 21  1  0
 17 18  1  0
 17 16  1  0
 19 18  1  0
 19 28  1  0
 19 20  1  0
 21 15  1  0
 21 20  1  0
 22 15  2  0
 23 24  1  0
 25 26  2  0
 26 45  1  0
 27 26  1  0
 27 30  1  0
 28 29  1  0
 28 25  1  0
 29 27  2  0
 30 31  1  0
 31 32  2  0
 33 36  1  0
 33 32  1  0
 34 33  2  0
 35 34  1  0
 35 30  2  0
 36 37  1  0
 37 38  1  0
 38 39  2  0
 40 39  1  0
 40 44  1  0
 41 40  2  0
 42 37  2  0
 42 41  1  0
 43 42  1  0
 45 46  1  0
 46 49  1  0
 46 48  1  0
 47 45  2  0
 50 51  1  0
 50 25  1  0
 52 50  1  0
 53  2  1  0
 54 65  2  0
 55 53  1  0
 55 60  1  0
 56 64  1  0
 56 66  1  0
 57 63  1  0
 57 59  1  0
 58 64  1  0
 59 60  2  0
 59 58  1  0
 61 55  2  0
 62 61  1  0
 62 57  2  0
 63 56  1  0
 64 54  1  0
 66 68  2  0
 67 66  1  0
 69 67  1  0
 70 79  2  0
 70 75  1  0
 71 67  1  0
 71 75  1  0
 72 71  1  0
 73 74  1  0
 73 72  1  0
 74 70  1  0
 75 76  2  0
 76 77  1  0
 78 77  2  0
 79 78  1  0
 80 54  1  0
 80 81  1  0
 80 90  1  0
 81 84  1  0
 82 86  1  0
 82 81  1  0
 83 82  2  0
 86 85  1  0
 88 86  1  0
 88 89  1  0
 88 87  1  0
 90 93  1  1
 90 91  1  0
 92 90  1  0
M  ISO  4   2 101  15 100  23 100  53 101
M  END
>  <TORSDO>  (59) 
F 17

>  <SCORE>  (59) 
-15.195

>  <name>  (59) 
58

>  <ligand_id>  (59) 
58

>  <original_smiles>  (59) 
[H]c1c([H])c([H])c2c(c1[H])C([H])([H])C([H])([H])C([H])([H])C2([H])N([H])C(=O)C1([H])N(C(=O)C([H])(N([H])C(=O)C([H])(N([H])C([H])([H])[H])C([H])([H])[H])C(C([H])([H])[H])(C([H])([H])[H])C([H])([H])[H])C([H])([H])c2c([H])c(OC(N([H])C(=O)c3c([H])c([H])c(N([H])C(=O)N4C([H])([H])C([H])([H])C([H])([H])C([H])(n5nc(-c6c([H])c([H])c(Oc7c([H])c([H])c(F)c([H])c7F)c([H])c6[H])c(C(=O)N([H])[H])c5N([H])[H])C4([H])[H])c([H])c3[H])=[N+]([H])[H])c([H])c([H])c2C1([H])[H]

>  <smiles>  (59) 
[H]c1c([H])c([H])c2c(c1[H])C([H])([H])C([H])([H])C([H])([H])C2([H])N([H])C(=O)C1([H])N(C(=O)C([H])(N([H])C(=O)C([H])(N([H])C([H])([H])[H])C([H])([H])[H])C(C([H])([H])[H])(C([H])([H])[H])C([H])([H])[H])C([H])([H])c2c([H])c(OC(N([H])C(=O)c3c([H])c([H])c(N([H])C(=O)N4C([H])([H])C([H])([H])C([H])([H])C([H])(n5nc(-c6c([H])c([H])c(Oc7c([H])c([H])c(F)c([H])c7F)c([H])c6[H])c(C(=O)N([H])[H])c5N([H])[H])C4([H])[H])c([H])c3[H])=[N+]([H])[H])c([H])c([H])c2C1([H])[H]

$$$$
59:0:0
     RDKit          3D

 95103  0  0  1  0  0  0  0  0999 V2000
  -28.9280  -20.6480   20.5790 C   0  0  0  0  0  3  0  0  0  0  0  0
  -27.4760  -20.2010   20.3540 C   0  0  0  0  0  1  0  0  0  0  0  0
  -29.3030  -21.8930   20.6960 N   0  0  0  0  0  2  0  0  0  0  0  0
  -31.3130  -19.8390   20.6390 C   0  0  0  0  0  3  0  0  0  0  0  0
  -29.5970  -18.1170   20.7160 C   0  0  0  0  0  3  0  0  0  0  0  0
  -31.9420  -17.4910   20.8230 C   0  0  0  0  0  3  0  0  0  0  0  0
  -29.9360  -19.5100   20.6350 C   0  0  0  0  0  0  0  0  0  0  0  0
  -32.3040  -18.8490   20.7440 C   0  0  0  0  0  0  0  0  0  0  0  0
  -30.5850  -17.0880   20.7750 C   0  0  0  0  0  0  0  0  0  0  0  0
  -30.8660  -14.6190   20.2830 C   0  0  0  0  0  0  0  0  0  0  0  0
  -30.5200  -12.4600   19.1370 C   0  0  0  0  0  2  0  0  0  0  0  0
  -29.5500  -12.6750   17.9570 C   0  0  0  0  0  2  0  0  0  0  0  0
  -28.0900  -12.5200   18.4260 C   0  0  0  0  0  2  0  0  0  0  0  0
  -27.7840  -13.3380   19.7110 C   0  0  0  0  0  3  0  0  0  0  0  0
  -28.8750  -13.1350   20.7870 C   0  0  0  0  0  2  0  0  0  0  0  0
  -30.1760  -13.4470   20.1770 N   0  0  0  0  0  0  0  0  0  0  0  0
  -31.9880  -14.7370   19.7870 O   0  0  0  0  0  0  0  0  0  0  0  0
  -30.1980  -15.6870   20.7990 N   0  0  0  0  0  0  0  0  0  0  0  0
  -29.2580  -15.4860   21.1050 H   0  0  0  0  0  0  0  0  0  0  0  0
  -25.4090  -13.9100   20.5170 C   0  0  0  0  0  0  0  0  0  0  0  0
  -24.3570  -13.1230   20.9000 C   0  0  0  0  0  0  0  0  0  0  0  0
  -24.8220  -11.7750   20.8180 C   0  0  0  0  0  0  0  0  0  0  0  0
  -26.4500  -13.0410   20.2270 N   0  0  0  0  0  0  0  0  0  0  0  0
  -26.1020  -11.7500   20.4670 N   0  0  0  0  0  0  0  0  0  0  0  0
  -24.1050  -10.5050   20.9990 C   0  0  0  0  0  0  0  0  0  0  0  0
  -24.5280   -9.5450   21.9450 C   0  0  0  0  0  3  0  0  0  0  0  0
  -23.8120   -8.3410   22.1130 C   0  0  0  0  0  3  0  0  0  0  0  0
  -22.6580   -8.0870   21.3350 C   0  0  0  0  0  0  0  0  0  0  0  0
  -22.2530   -9.0340   20.3780 C   0  0  0  0  0  3  0  0  0  0  0  0
  -22.9720  -10.2310   20.2080 C   0  0  0  0  0  3  0  0  0  0  0  0
  -21.9160   -6.9320   21.4110 O   0  0  0  0  0  0  0  0  0  0  0  0
  -21.8000   -6.2270   22.5820 C   0  0  0  0  0  0  0  0  0  0  0  0
  -21.2220   -6.7940   23.7390 C   0  0  0  0  0  3  0  0  0  0  0  0
  -21.0560   -6.0110   24.8990 C   0  0  0  0  0  3  0  0  0  0  0  0
  -21.4600   -4.6630   24.9030 C   0  0  0  0  0  0  0  0  0  0  0  0
  -22.0340   -4.0970   23.7510 C   0  0  0  0  0  3  0  0  0  0  0  0
  -22.1990   -4.8760   22.5930 C   0  0  0  0  0  0  0  0  0  0  0  0
  -22.7300   -4.3190   21.4780 F   0  0  0  0  0  0  0  0  0  0  0  0
  -21.2970   -3.9090   26.0150 F   0  0  0  0  0  0  0  0  0  0  0  0
  -22.9680  -13.5870   21.2290 C   0  0  0  0  0  0  0  0  0  0  0  0
  -22.2660  -12.8590   22.0900 N   0  0  0  0  0  0  0  0  0  0  0  0
  -22.5140  -14.6300   20.7600 O   0  0  0  0  0  0  0  0  0  0  0  0
  -22.6450  -12.0150   22.4930 H   0  0  0  0  0  0  0  0  0  0  0  0
  -21.3360  -13.1520   22.3520 H   0  0  0  0  0  0  0  0  0  0  0  0
  -25.5660  -15.2860   20.3700 N   0  0  0  0  0  0  0  0  0  0  0  0
  -24.7990  -15.9340   20.5100 H   0  0  0  0  0  0  0  0  0  0  0  0
  -26.3980  -15.7300   20.0060 H   0  0  0  0  0  0  0  0  0  0  0  0
  -33.6500  -19.2130   20.7660 N   0  0  0  0  0  0  0  0  0  0  0  0
  -33.9030  -20.1430   20.4450 H   0  0  0  0  0  0  0  0  0  0  0  0
  -34.3420  -18.5140   20.5170 H   0  0  0  0  0  0  0  0  0  0  0  0
  -28.4100  -22.9430   20.9600 C   0  0  0  0  0  0  0  0  0  0  0  0
  -27.3450  -22.8250   21.5750 O   0  0  0  0  0  0  0  0  0  0  0  0
  -28.8720  -24.2510   20.4680 C   0  0  0  0  0  3  0  0  0  0  0  0
  -28.1670  -25.3750   20.7600 C   0  0  0  0  0  3  0  0  0  0  0  0
  -28.4380  -26.6660   20.3290 O   0  0  0  0  0  0  0  0  0  0  0  0
  -24.5680  -31.9110   23.2730 C   0  0  0  0  0  0  0  0  0  0  0  0
  -27.3260  -27.4880   20.2440 C   0  0  0  0  0  0  0  0  0  0  0  0
  -23.4270  -30.5200   21.5800 C   0  0  0  0  0  3  0  0  0  0  0  0
  -24.9370  -29.0100   20.1820 C   0  0  0  0  0  0  0  0  0  0  0  0
  -25.9600  -30.8860   21.4750 C   0  0  0  0  0  2  0  0  0  0  0  0
  -26.0760  -29.5230   20.8190 C   0  0  0  0  0  0  0  0  0  0  0  0
  -27.2780  -28.7700   20.8470 C   0  0  0  0  0  3  0  0  0  0  0  0
  -26.1750  -27.0080   19.5830 C   0  0  0  0  0  3  0  0  0  0  0  0
  -24.9830  -27.7530   19.5580 C   0  0  0  0  0  3  0  0  0  0  0  0
  -23.6860  -29.8610   20.2010 C   0  0  0  0  0  2  0  0  0  0  0  0
  -24.6680  -31.1200   22.1680 N   0  0  0  0  0  0  0  0  0  0  0  0
  -23.4670  -32.1720   23.7790 O   0  0  0  0  0  0  0  0  0  0  0  0
  -22.7480  -29.4850   22.5060 C   0  0  0  0  0  0  0  0  0  0  0  0
  -21.4220  -29.3240   22.3560 N   0  0  0  0  0  0  0  0  0  0  0  0
  -23.4110  -28.8310   23.3150 O   0  0  0  0  0  0  0  0  0  0  0  0
  -20.9510  -29.9030   21.6760 H   0  0  0  0  0  0  0  0  0  0  0  0
  -18.0140  -28.2200   22.8360 C   0  0  0  0  0  0  0  0  0  0  0  0
  -20.5820  -28.3800   23.0920 C   0  0  0  0  0  3  0  0  0  0  0  0
  -20.6300  -26.9740   22.4520 C   0  0  0  0  0  2  0  0  0  0  0  0
  -19.5100  -26.7340   21.4350 C   0  0  0  0  0  2  0  0  0  0  0  0
  -18.1400  -26.8960   22.0990 C   0  0  0  0  0  2  0  0  0  0  0  0
  -19.1610  -28.9240   23.2880 C   0  0  0  0  0  0  0  0  0  0  0  0
  -18.9920  -30.1660   23.9380 C   0  0  0  0  0  3  0  0  0  0  0  0
  -17.7070  -30.7040   24.1360 C   0  0  0  0  0  3  0  0  0  0  0  0
  -16.5740  -29.9950   23.7020 C   0  0  0  0  0  3  0  0  0  0  0  0
  -16.7280  -28.7540   23.0590 C   0  0  0  0  0  3  0  0  0  0  0  0
  -25.8290  -32.5430   23.9430 C   0  0  0  0  0  3  0  0  0  0  0  0
  -26.2830  -31.7860   25.2510 C   0  0  1  0  0  0  0  0  0  0  0  0
  -25.1400  -31.5610   26.2670 C   0  0  0  0  0  1  0  0  0  0  0  0
  -26.8830  -30.4030   24.9040 C   0  0  0  0  0  1  0  0  0  0  0  0
  -27.4000  -32.5880   25.9590 C   0  0  0  0  0  1  0  0  0  0  0  0
  -25.5140  -33.9470   24.2380 N   0  0  0  0  0  0  0  0  0  0  0  0
  -25.8760  -34.9840   23.4720 C   0  0  0  0  0  0  0  0  0  0  0  0
  -26.5810  -34.8610   22.4660 O   0  0  0  0  0  0  0  0  0  0  0  0
  -24.8910  -34.1170   25.0150 H   0  0  0  0  0  0  0  0  0  0  0  0
  -24.1750  -36.7820   23.0180 C   0  0  0  0  0  1  0  0  0  0  0  0
  -25.3780  -36.3810   23.8870 C   0  0  0  0  0  3  0  0  0  0  0  0
  -27.4730  -37.2760   24.8060 C   0  0  0  0  0  1  0  0  0  0  0  0
  -26.4200  -37.4270   23.8040 N   0  0  0  0  0  0  0  0  0  0  0  0
  -26.0140  -38.3520   23.9100 H   0  0  0  0  0  0  0  0  0  0  0  0
  1  2  1  0
  1  7  1  0
  1  3  1  0
  3 51  1  0
  4  8  1  0
  5  9  2  0
  7  4  2  0
  7  5  1  0
  8 48  1  0
  8  6  2  0
  9 18  1  0
  9  6  1  0
 10 18  1  0
 11 16  1  0
 12 13  1  0
 12 11  1  0
 14 13  1  0
 14 23  1  0
 14 15  1  0
 16 10  1  0
 16 15  1  0
 17 10  2  0
 18 19  1  0
 20 21  2  0
 21 40  1  0
 22 21  1  0
 22 25  1  0
 23 24  1  0
 23 20  1  0
 24 22  2  0
 25 26  1  0
 26 27  2  0
 28 31  1  0
 28 27  1  0
 29 28  2  0
 30 29  1  0
 30 25  2  0
 31 32  1  0
 32 37  2  0
 32 33  1  0
 33 34  2  0
 34 35  1  0
 35 39  1  0
 36 35  2  0
 37 36  1  0
 38 37  1  0
 40 41  1  0
 41 44  1  0
 41 43  1  0
 42 40  2  0
 45 46  1  0
 45 20  1  0
 47 45  1  0
 49 48  1  0
 50 48  1  0
 51 52  2  0
 53 54  2  0
 53 51  1  0
 55 54  1  0
 56 67  2  0
 57 55  1  0
 57 62  1  0
 58 66  1  0
 58 68  1  0
 59 65  1  0
 59 61  1  0
 60 66  1  0
 61 62  2  0
 61 60  1  0
 63 57  2  0
 64 63  1  0
 64 59  2  0
 65 58  1  0
 66 56  1  0
 68 70  2  0
 69 68  1  0
 71 69  1  0
 72 81  2  0
 72 77  1  0
 73 69  1  0
 73 77  1  0
 74 73  1  0
 75 76  1  0
 75 74  1  0
 76 72  1  0
 77 78  2  0
 78 79  1  0
 80 79  2  0
 81 80  1  0
 82 56  1  0
 82 87  1  0
 82 83  1  0
 83 86  1  1
 83 84  1  0
 85 83  1  0
 87 90  1  0
 88 92  1  0
 88 87  1  0
 89 88  2  0
 92 91  1  0
 94 92  1  0
 94 95  1  0
 94 93  1  0
M  ISO  4  10 100  18 100  54 101  55 101
M  END
>  <TORSDO>  (60) 
F 20

>  <SCORE>  (60) 
-14.109

>  <name>  (60) 
59

>  <ligand_id>  (60) 
59

>  <original_smiles>  (60) 
[H]C(Oc1c([H])c([H])c2c(c1[H])C([H])([H])N(C(=O)C([H])(N([H])C(=O)C([H])(N([H])C([H])([H])[H])C([H])([H])[H])C(C([H])([H])[H])(C([H])([H])[H])C([H])([H])[H])C([H])(C(=O)N([H])C1([H])c3c([H])c([H])c([H])c([H])c3C([H])([H])C([H])([H])C1([H])[H])C2([H])[H])=C([H])C(=O)N=C(c1c([H])c(N([H])[H])c([H])c(N([H])C(=O)N2C([H])([H])C([H])([H])C([H])([H])C([H])(n3nc(-c4c([H])c([H])c(Oc5c([H])c([H])c(F)c([H])c5F)c([H])c4[H])c(C(=O)N([H])[H])c3N([H])[H])C2([H])[H])c1[H])C([H])([H])[H]

>  <smiles>  (60) 
[H]C(Oc1c([H])c([H])c2c(c1[H])C([H])([H])N(C(=O)C([H])(N([H])C(=O)C([H])(N([H])C([H])([H])[H])C([H])([H])[H])C(C([H])([H])[H])(C([H])([H])[H])C([H])([H])[H])C([H])(C(=O)N([H])C1([H])c3c([H])c([H])c([H])c([H])c3C([H])([H])C([H])([H])C1([H])[H])C2([H])[H])=C([H])C(=O)N=C(c1c([H])c(N([H])[H])c([H])c(N([H])C(=O)N2C([H])([H])C([H])([H])C([H])([H])C([H])(n3nc(-c4c([H])c([H])c(Oc5c([H])c([H])c(F)c([H])c5F)c([H])c4[H])c(C(=O)N([H])[H])c3N([H])[H])C2([H])[H])c1[H])C([H])([H])[H]

$$$$
60:0:0
     RDKit          3D

 93102  0  0  1  0  0  0  0  0999 V2000
  -30.1070  -23.8290   19.7890 C   0  0  0  0  0  3  0  0  0  0  0  0
  -28.8980  -23.8640   20.3460 C   0  0  0  0  0  0  0  0  0  0  0  0
  -28.5160  -22.4490   20.5960 C   0  0  0  0  0  0  0  0  0  0  0  0
  -30.6220  -22.4110   19.6560 C   0  0  0  0  0  2  0  0  0  0  0  0
  -29.5310  -21.5960   20.2080 N   0  0  0  0  0  0  0  0  0  0  0  0
  -27.4420  -22.0890   21.0830 O   0  0  0  0  0  0  0  0  0  0  0  0
  -28.5350  -19.2690   20.6480 C   0  0  0  0  0  3  0  0  0  0  0  0
  -30.8460  -19.4180   20.0340 C   0  0  0  0  0  3  0  0  0  0  0  0
  -28.6580  -17.8510   20.7260 C   0  0  0  0  0  3  0  0  0  0  0  0
  -30.9700  -17.9930   20.1070 C   0  0  0  0  0  3  0  0  0  0  0  0
  -29.6260  -20.1150   20.3010 C   0  0  0  0  0  0  0  0  0  0  0  0
  -29.8710  -17.1630   20.4560 C   0  0  0  0  0  0  0  0  0  0  0  0
  -30.6600  -14.6960   20.0650 C   0  0  0  0  0  0  0  0  0  0  0  0
  -30.4090  -12.4870   18.9400 C   0  0  0  0  0  2  0  0  0  0  0  0
  -29.3910  -12.6440   17.7860 C   0  0  0  0  0  2  0  0  0  0  0  0
  -27.9450  -12.4730   18.2940 C   0  0  0  0  0  2  0  0  0  0  0  0
  -27.6610  -13.2960   19.5780 C   0  0  0  0  0  3  0  0  0  0  0  0
  -28.7810  -13.0950   20.6240 C   0  0  0  0  0  2  0  0  0  0  0  0
  -30.0570  -13.4660   19.9880 N   0  0  0  0  0  0  0  0  0  0  0  0
  -31.7860  -14.8880   19.5920 O   0  0  0  0  0  0  0  0  0  0  0  0
  -29.8730  -15.7010   20.5650 N   0  0  0  0  0  0  0  0  0  0  0  0
  -29.0270  -15.3270   20.9660 H   0  0  0  0  0  0  0  0  0  0  0  0
  -25.3130  -13.8800   20.4420 C   0  0  0  0  0  0  0  0  0  0  0  0
  -24.2670  -13.0980   20.8540 C   0  0  0  0  0  0  0  0  0  0  0  0
  -24.7240  -11.7480   20.7620 C   0  0  0  0  0  0  0  0  0  0  0  0
  -26.3410  -13.0040   20.1290 N   0  0  0  0  0  0  0  0  0  0  0  0
  -25.9950  -11.7160   20.3790 N   0  0  0  0  0  0  0  0  0  0  0  0
  -24.0070  -10.4820   20.9590 C   0  0  0  0  0  0  0  0  0  0  0  0
  -24.4580   -9.5140   21.8840 C   0  0  0  0  0  3  0  0  0  0  0  0
  -23.7430   -8.3120   22.0690 C   0  0  0  0  0  3  0  0  0  0  0  0
  -22.5600   -8.0700   21.3310 C   0  0  0  0  0  0  0  0  0  0  0  0
  -22.1280   -9.0260   20.3960 C   0  0  0  0  0  3  0  0  0  0  0  0
  -22.8440  -10.2190   20.2080 C   0  0  0  0  0  3  0  0  0  0  0  0
  -21.8140   -6.9210   21.4270 O   0  0  0  0  0  0  0  0  0  0  0  0
  -21.7460   -6.2010   22.5920 C   0  0  0  0  0  0  0  0  0  0  0  0
  -21.2750   -6.7710   23.7960 C   0  0  0  0  0  3  0  0  0  0  0  0
  -21.1580   -5.9760   24.9530 C   0  0  0  0  0  3  0  0  0  0  0  0
  -21.5010   -4.6120   24.9090 C   0  0  0  0  0  0  0  0  0  0  0  0
  -21.9650   -4.0410   23.7110 C   0  0  0  0  0  3  0  0  0  0  0  0
  -22.0840   -4.8330   22.5560 C   0  0  0  0  0  0  0  0  0  0  0  0
  -22.5110   -4.2720   21.3980 F   0  0  0  0  0  0  0  0  0  0  0  0
  -21.3820   -3.8460   26.0180 F   0  0  0  0  0  0  0  0  0  0  0  0
  -22.8880  -13.5690   21.2170 C   0  0  0  0  0  0  0  0  0  0  0  0
  -22.2090  -12.8490   22.1020 N   0  0  0  0  0  0  0  0  0  0  0  0
  -22.4260  -14.6100   20.7530 O   0  0  0  0  0  0  0  0  0  0  0  0
  -22.5980  -12.0060   22.4980 H   0  0  0  0  0  0  0  0  0  0  0  0
  -21.2860  -13.1430   22.3860 H   0  0  0  0  0  0  0  0  0  0  0  0
  -25.4690  -15.2530   20.2820 N   0  0  0  0  0  0  0  0  0  0  0  0
  -24.6940  -15.8940   20.4080 H   0  0  0  0  0  0  0  0  0  0  0  0
  -26.2680  -15.6830   19.8360 H   0  0  0  0  0  0  0  0  0  0  0  0
  -27.8890  -25.2700   22.2270 C   0  0  0  0  0  1  0  0  0  0  0  0
  -28.0000  -25.1060   20.7000 C   0  0  0  0  0  3  0  0  0  0  0  0
  -28.3300  -26.4520   20.1500 O   0  0  0  0  0  0  0  0  0  0  0  0
  -24.6380  -31.8690   23.1870 C   0  0  0  0  0  0  0  0  0  0  0  0
  -27.2500  -27.3480   20.0850 C   0  0  0  0  0  0  0  0  0  0  0  0
  -23.4350  -30.4830   21.5350 C   0  0  0  0  0  3  0  0  0  0  0  0
  -24.8880  -28.9570   20.0850 C   0  0  0  0  0  0  0  0  0  0  0  0
  -25.9730  -30.8100   21.3490 C   0  0  0  0  0  2  0  0  0  0  0  0
  -26.0560  -29.4400   20.6900 C   0  0  0  0  0  0  0  0  0  0  0  0
  -27.2430  -28.6450   20.6860 C   0  0  0  0  0  3  0  0  0  0  0  0
  -26.0680  -26.9340   19.4310 C   0  0  0  0  0  3  0  0  0  0  0  0
  -24.8970  -27.7110   19.4440 C   0  0  0  0  0  3  0  0  0  0  0  0
  -23.6470  -29.8250   20.1470 C   0  0  0  0  0  2  0  0  0  0  0  0
  -24.7020  -31.0710   22.0810 N   0  0  0  0  0  0  0  0  0  0  0  0
  -23.5550  -32.1380   23.7240 O   0  0  0  0  0  0  0  0  0  0  0  0
  -22.7790  -29.4530   22.4840 C   0  0  0  0  0  0  0  0  0  0  0  0
  -21.4500  -29.2850   22.3720 N   0  0  0  0  0  0  0  0  0  0  0  0
  -23.4640  -28.8090   23.2850 O   0  0  0  0  0  0  0  0  0  0  0  0
  -20.9560  -29.8560   21.7000 H   0  0  0  0  0  0  0  0  0  0  0  0
  -18.0710  -28.1120   22.8970 C   0  0  0  0  0  0  0  0  0  0  0  0
  -20.6350  -28.3420   23.1380 C   0  0  0  0  0  3  0  0  0  0  0  0
  -20.7150  -26.9190   22.5370 C   0  0  0  0  0  2  0  0  0  0  0  0
  -19.5970  -26.6240   21.5320 C   0  0  0  0  0  2  0  0  0  0  0  0
  -18.2260  -26.7730   22.1970 C   0  0  0  0  0  2  0  0  0  0  0  0
  -19.2020  -28.8550   23.3260 C   0  0  0  0  0  0  0  0  0  0  0  0
  -19.0040  -30.1110   23.9390 C   0  0  0  0  0  3  0  0  0  0  0  0
  -17.7060  -30.6210   24.1330 C   0  0  0  0  0  3  0  0  0  0  0  0
  -16.5890  -29.8730   23.7220 C   0  0  0  0  0  3  0  0  0  0  0  0
  -16.7730  -28.6210   23.1070 C   0  0  0  0  0  3  0  0  0  0  0  0
  -25.9200  -32.4980   23.8120 C   0  0  0  0  0  3  0  0  0  0  0  0
  -25.6060  -33.8910   24.1610 N   0  0  0  0  0  0  0  0  0  0  0  0
  -25.9310  -34.9550   23.4160 C   0  0  0  0  0  0  0  0  0  0  0  0
  -26.5990  -34.8700   22.3820 O   0  0  0  0  0  0  0  0  0  0  0  0
  -25.0140  -34.0310   24.9680 H   0  0  0  0  0  0  0  0  0  0  0  0
  -24.1990  -36.7490   23.0880 C   0  0  0  0  0  1  0  0  0  0  0  0
  -25.4390  -36.3350   23.8940 C   0  0  0  0  0  3  0  0  0  0  0  0
  -27.5700  -37.2160   24.7410 C   0  0  0  0  0  1  0  0  0  0  0  0
  -26.4700  -37.3920   23.7970 N   0  0  0  0  0  0  0  0  0  0  0  0
  -26.0610  -38.3080   23.9580 H   0  0  0  0  0  0  0  0  0  0  0  0
  -26.4450  -31.7120   25.0760 C   0  0  1  0  0  0  0  0  0  0  0  0
  -25.3570  -31.4570   26.1450 C   0  0  0  0  0  1  0  0  0  0  0  0
  -27.0320  -30.3410   24.6630 C   0  0  0  0  0  1  0  0  0  0  0  0
  -27.5940  -32.5010   25.7460 C   0  0  0  0  0  1  0  0  0  0  0  0
  1  2  2  0
  2  3  1  0
  2 52  1  0
  3  6  2  0
  4  1  1  0
  4  5  1  0
  5 11  1  0
  5  3  1  0
  7  9  1  0
  8 10  2  0
  8 11  1  0
 10 12  1  0
 11  7  2  0
 12 21  1  0
 12  9  2  0
 13 21  1  0
 14 19  1  0
 15 16  1  0
 15 14  1  0
 17 16  1  0
 17 26  1  0
 17 18  1  0
 19 13  1  0
 19 18  1  0
 20 13  2  0
 21 22  1  0
 23 24  2  0
 24 43  1  0
 25 24  1  0
 25 28  1  0
 26 27  1  0
 26 23  1  0
 27 25  2  0
 28 29  1  0
 29 30  2  0
 31 34  1  0
 31 30  1  0
 32 31  2  0
 33 32  1  0
 33 28  2  0
 34 35  1  0
 35 36  1  0
 36 37  2  0
 38 37  1  0
 38 42  1  0
 39 38  2  0
 40 35  2  0
 40 39  1  0
 41 40  1  0
 43 44  1  0
 44 47  1  0
 44 46  1  0
 45 43  2  0
 48 49  1  0
 48 23  1  0
 50 48  1  0
 52 51  1  0
 53 52  1  0
 54 65  2  0
 55 53  1  0
 55 60  1  0
 56 64  1  0
 56 66  1  0
 57 63  1  0
 57 59  1  0
 58 64  1  0
 59 58  1  0
 60 59  2  0
 61 62  1  0
 61 55  2  0
 62 57  2  0
 63 56  1  0
 64 54  1  0
 66 68  2  0
 67 66  1  0
 69 67  1  0
 70 79  2  0
 70 75  1  0
 71 67  1  0
 71 75  1  0
 72 71  1  0
 73 74  1  0
 73 72  1  0
 74 70  1  0
 75 76  2  0
 76 77  1  0
 78 77  2  0
 79 78  1  0
 80 54  1  0
 80 81  1  0
 80 90  1  0
 81 84  1  0
 82 86  1  0
 82 81  1  0
 83 82  2  0
 86 85  1  0
 88 86  1  0
 88 89  1  0
 88 87  1  0
 90 93  1  1
 90 91  1  0
 92 90  1  0
M  ISO  4  13 100  21 100  52 101  53 101
M  END
>  <TORSDO>  (61) 
F 18

>  <SCORE>  (61) 
-14.627

>  <name>  (61) 
60

>  <ligand_id>  (61) 
60

>  <original_smiles>  (61) 
[H]C1=C(C([H])(Oc2c([H])c([H])c3c(c2[H])C([H])([H])N(C(=O)C([H])(N([H])C(=O)C([H])(N([H])C([H])([H])[H])C([H])([H])[H])C(C([H])([H])[H])(C([H])([H])[H])C([H])([H])[H])C([H])(C(=O)N([H])C2([H])c4c([H])c([H])c([H])c([H])c4C([H])([H])C([H])([H])C2([H])[H])C3([H])[H])C([H])([H])[H])C(=O)N(c2c([H])c([H])c(N([H])C(=O)N3C([H])([H])C([H])([H])C([H])([H])C([H])(n4nc(-c5c([H])c([H])c(Oc6c([H])c([H])c(F)c([H])c6F)c([H])c5[H])c(C(=O)N([H])[H])c4N([H])[H])C3([H])[H])c([H])c2[H])C1([H])[H]

>  <smiles>  (61) 
[H]C1=C(C([H])(Oc2c([H])c([H])c3c(c2[H])C([H])([H])N(C(=O)C([H])(N([H])C(=O)C([H])(N([H])C([H])([H])[H])C([H])([H])[H])C(C([H])([H])[H])(C([H])([H])[H])C([H])([H])[H])C([H])(C(=O)N([H])C2([H])c4c([H])c([H])c([H])c([H])c4C([H])([H])C([H])([H])C2([H])[H])C3([H])[H])C([H])([H])[H])C(=O)N(c2c([H])c([H])c(N([H])C(=O)N3C([H])([H])C([H])([H])C([H])([H])C([H])(n4nc(-c5c([H])c([H])c(Oc6c([H])c([H])c(F)c([H])c6F)c([H])c5[H])c(C(=O)N([H])[H])c4N([H])[H])C3([H])[H])c([H])c2[H])C1([H])[H]

$$$$
61:0:0
     RDKit          3D

 95103  0  0  1  0  0  0  0  0999 V2000
  -30.2870  -21.1640   21.8770 C   0  0  0  0  0  0  0  0  0  0  0  0
  -29.5000  -23.5440   21.5810 C   0  0  0  0  0  0  0  0  0  0  0  0
  -29.6760  -22.1590   21.1750 N   0  0  0  0  0  0  0  0  0  0  0  0
  -30.9300  -21.4110   23.0240 N   0  0  0  0  0  4  0  0  0  0  0  0
  -29.7220  -23.8820   22.7520 O   0  0  0  0  0  0  0  0  0  0  0  0
  -29.4060  -21.8490   20.2550 H   0  0  0  0  0  0  0  0  0  0  0  0
  -31.3240  -20.6550   23.5620 H   0  0  0  0  0  0  0  0  0  0  0  0
  -30.8780  -22.3410   23.4230 H   0  0  0  0  0  0  0  0  0  0  0  0
  -29.0950  -19.1240   21.0080 C   0  0  0  0  0  3  0  0  0  0  0  0
  -31.4510  -18.9510   21.5690 C   0  0  0  0  0  3  0  0  0  0  0  0
  -29.0610  -17.7290   20.7700 C   0  0  0  0  0  3  0  0  0  0  0  0
  -31.4220  -17.5580   21.3070 C   0  0  0  0  0  3  0  0  0  0  0  0
  -30.2850  -19.7480   21.4390 C   0  0  0  0  0  0  0  0  0  0  0  0
  -30.2160  -16.9230   20.9250 C   0  0  0  0  0  0  0  0  0  0  0  0
  -30.8190  -14.5760   20.1440 C   0  0  0  0  0  0  0  0  0  0  0  0
  -30.5080  -12.4570   18.9010 C   0  0  0  0  0  2  0  0  0  0  0  0
  -29.4790  -12.6890   17.7730 C   0  0  0  0  0  2  0  0  0  0  0  0
  -28.0350  -12.5200   18.2910 C   0  0  0  0  0  2  0  0  0  0  0  0
  -27.7790  -13.3050   19.6030 C   0  0  0  0  0  3  0  0  0  0  0  0
  -28.8990  -13.0190   20.6280 C   0  0  0  0  0  2  0  0  0  0  0  0
  -30.1830  -13.3800   19.9990 N   0  0  0  0  0  0  0  0  0  0  0  0
  -31.9150  -14.8190   19.6270 O   0  0  0  0  0  0  0  0  0  0  0  0
  -30.0640  -15.5090   20.7680 N   0  0  0  0  0  0  0  0  0  0  0  0
  -29.1690  -15.1470   21.0580 H   0  0  0  0  0  0  0  0  0  0  0  0
  -25.4330  -13.9010   20.4840 C   0  0  0  0  0  0  0  0  0  0  0  0
  -24.3850  -13.1200   20.8910 C   0  0  0  0  0  0  0  0  0  0  0  0
  -24.8330  -11.7680   20.7740 C   0  0  0  0  0  0  0  0  0  0  0  0
  -26.4540  -13.0240   20.1530 N   0  0  0  0  0  0  0  0  0  0  0  0
  -26.1000  -11.7340   20.3820 N   0  0  0  0  0  0  0  0  0  0  0  0
  -24.1130  -10.5020   20.9590 C   0  0  0  0  0  0  0  0  0  0  0  0
  -24.5480   -9.5340   21.8910 C   0  0  0  0  0  3  0  0  0  0  0  0
  -23.8290   -8.3320   22.0610 C   0  0  0  0  0  3  0  0  0  0  0  0
  -22.6610   -8.0890   21.2990 C   0  0  0  0  0  0  0  0  0  0  0  0
  -22.2470   -9.0460   20.3560 C   0  0  0  0  0  3  0  0  0  0  0  0
  -22.9660  -10.2400   20.1840 C   0  0  0  0  0  3  0  0  0  0  0  0
  -21.9140   -6.9380   21.3770 O   0  0  0  0  0  0  0  0  0  0  0  0
  -21.7910   -6.2390   22.5510 C   0  0  0  0  0  0  0  0  0  0  0  0
  -21.2310   -6.8210   23.7100 C   0  0  0  0  0  3  0  0  0  0  0  0
  -21.0600   -6.0460   24.8750 C   0  0  0  0  0  3  0  0  0  0  0  0
  -21.4380   -4.6900   24.8810 C   0  0  0  0  0  0  0  0  0  0  0  0
  -21.9910   -4.1080   23.7260 C   0  0  0  0  0  3  0  0  0  0  0  0
  -22.1650   -4.8800   22.5640 C   0  0  0  0  0  0  0  0  0  0  0  0
  -22.6790   -4.3090   21.4480 F   0  0  0  0  0  0  0  0  0  0  0  0
  -21.2670   -3.9440   25.9970 F   0  0  0  0  0  0  0  0  0  0  0  0
  -23.0110  -13.5900   21.2700 C   0  0  0  0  0  0  0  0  0  0  0  0
  -22.3320  -12.8560   22.1440 N   0  0  0  0  0  0  0  0  0  0  0  0
  -22.5500  -14.6410   20.8270 O   0  0  0  0  0  0  0  0  0  0  0  0
  -22.7180  -12.0030   22.5210 H   0  0  0  0  0  0  0  0  0  0  0  0
  -21.4110  -13.1490   22.4400 H   0  0  0  0  0  0  0  0  0  0  0  0
  -25.5950  -15.2770   20.3470 N   0  0  0  0  0  0  0  0  0  0  0  0
  -24.8190  -15.9150   20.4890 H   0  0  0  0  0  0  0  0  0  0  0  0
  -26.3790  -15.7080   19.8770 H   0  0  0  0  0  0  0  0  0  0  0  0
  -29.1130  -24.4770   20.5230 C   0  0  0  0  0  3  0  0  0  0  0  0
  -28.7270  -25.7420   20.8250 C   0  0  0  0  0  3  0  0  0  0  0  0
  -28.4770  -26.7050   19.8760 O   0  0  0  0  0  0  0  0  0  0  0  0
  -24.6200  -31.8220   23.0840 C   0  0  0  0  0  0  0  0  0  0  0  0
  -27.3130  -27.4330   19.9710 C   0  0  0  0  0  0  0  0  0  0  0  0
  -23.4310  -30.4290   21.4200 C   0  0  0  0  0  3  0  0  0  0  0  0
  -24.9050  -28.9140   19.9920 C   0  0  0  0  0  0  0  0  0  0  0  0
  -25.9540  -30.8110   21.2360 C   0  0  0  0  0  2  0  0  0  0  0  0
  -26.0570  -29.4440   20.5900 C   0  0  0  0  0  0  0  0  0  0  0  0
  -27.2670  -28.7100   20.5780 C   0  0  0  0  0  3  0  0  0  0  0  0
  -26.1470  -26.9140   19.3770 C   0  0  0  0  0  3  0  0  0  0  0  0
  -24.9430  -27.6450   19.3850 C   0  0  0  0  0  3  0  0  0  0  0  0
  -23.6540  -29.7640   20.0370 C   0  0  0  0  0  2  0  0  0  0  0  0
  -24.6870  -31.0360   21.9720 N   0  0  0  0  0  0  0  0  0  0  0  0
  -23.5340  -32.0800   23.6220 O   0  0  0  0  0  0  0  0  0  0  0  0
  -22.7830  -29.3930   22.3670 C   0  0  0  0  0  0  0  0  0  0  0  0
  -21.4530  -29.2350   22.2610 N   0  0  0  0  0  0  0  0  0  0  0  0
  -23.4720  -28.7350   23.1500 O   0  0  0  0  0  0  0  0  0  0  0  0
  -20.9590  -29.8170   21.6000 H   0  0  0  0  0  0  0  0  0  0  0  0
  -18.0640  -28.1300   22.8490 C   0  0  0  0  0  0  0  0  0  0  0  0
  -20.6390  -28.2890   23.0220 C   0  0  0  0  0  3  0  0  0  0  0  0
  -20.6660  -26.8850   22.3730 C   0  0  0  0  0  2  0  0  0  0  0  0
  -19.5120  -26.6500   21.3930 C   0  0  0  0  0  2  0  0  0  0  0  0
  -18.1640  -26.8100   22.1040 C   0  0  0  0  0  2  0  0  0  0  0  0
  -19.2270  -28.8320   23.2660 C   0  0  0  0  0  0  0  0  0  0  0  0
  -19.0790  -30.0720   23.9250 C   0  0  0  0  0  3  0  0  0  0  0  0
  -17.8020  -30.6090   24.1700 C   0  0  0  0  0  3  0  0  0  0  0  0
  -16.6540  -29.9030   23.7690 C   0  0  0  0  0  3  0  0  0  0  0  0
  -16.7860  -28.6640   23.1160 C   0  0  0  0  0  3  0  0  0  0  0  0
  -25.8980  -32.4540   23.7170 C   0  0  0  0  0  3  0  0  0  0  0  0
  -25.5730  -33.8410   24.0800 N   0  0  0  0  0  0  0  0  0  0  0  0
  -25.9030  -34.9130   23.3480 C   0  0  0  0  0  0  0  0  0  0  0  0
  -26.5840  -34.8410   22.3210 O   0  0  0  0  0  0  0  0  0  0  0  0
  -24.9670  -33.9700   24.8770 H   0  0  0  0  0  0  0  0  0  0  0  0
  -24.1710  -36.7040   23.0040 C   0  0  0  0  0  1  0  0  0  0  0  0
  -25.3960  -36.2840   23.8330 C   0  0  0  0  0  3  0  0  0  0  0  0
  -27.4990  -37.1620   24.7500 C   0  0  0  0  0  1  0  0  0  0  0  0
  -26.4240  -37.3470   23.7780 N   0  0  0  0  0  0  0  0  0  0  0  0
  -26.0060  -38.2600   23.9380 H   0  0  0  0  0  0  0  0  0  0  0  0
  -26.4300  -31.6600   24.9720 C   0  0  1  0  0  0  0  0  0  0  0  0
  -25.3410  -31.3680   26.0310 C   0  0  0  0  0  1  0  0  0  0  0  0
  -27.0440  -30.3070   24.5420 C   0  0  0  0  0  1  0  0  0  0  0  0
  -27.5620  -32.4590   25.6580 C   0  0  0  0  0  1  0  0  0  0  0  0
  1  4  2  0
  2  5  2  0
  3  2  1  0
  3  1  1  0
  4  8  1  0
  4  7  1  0
  6  3  1  0
  9 13  1  0
 11 14  1  0
 11  9  2  0
 12 10  1  0
 13 10  2  0
 13  1  1  0
 14 12  2  0
 15 23  1  0
 16 21  1  0
 17 18  1  0
 17 16  1  0
 19 18  1  0
 19 28  1  0
 19 20  1  0
 21 15  1  0
 21 20  1  0
 22 15  2  0
 23 14  1  0
 23 24  1  0
 25 26  2  0
 26 45  1  0
 27 26  1  0
 27 30  1  0
 28 29  1  0
 28 25  1  0
 29 27  2  0
 30 31  1  0
 31 32  2  0
 33 36  1  0
 33 32  1  0
 34 33  2  0
 35 34  1  0
 35 30  2  0
 36 37  1  0
 37 42  2  0
 37 38  1  0
 38 39  2  0
 39 40  1  0
 40 44  1  0
 41 40  2  0
 42 41  1  0
 43 42  1  0
 45 46  1  0
 46 49  1  0
 46 48  1  0
 47 45  2  0
 50 25  1  0
 50 51  1  0
 52 50  1  0
 53 54  2  0
 53  2  1  0
 55 57  1  0
 55 54  1  0
 56 67  2  0
 57 62  1  0
 58 66  1  0
 58 68  1  0
 59 65  1  0
 59 61  1  0
 60 66  1  0
 61 60  1  0
 62 61  2  0
 63 64  1  0
 63 57  2  0
 64 59  2  0
 65 58  1  0
 66 56  1  0
 68 70  2  0
 69 68  1  0
 71 69  1  0
 72 81  2  0
 72 77  1  0
 73 69  1  0
 73 77  1  0
 74 73  1  0
 75 76  1  0
 75 74  1  0
 76 72  1  0
 77 78  2  0
 78 79  1  0
 80 79  2  0
 81 80  1  0
 82 56  1  0
 82 83  1  0
 82 92  1  0
 83 86  1  0
 84 88  1  0
 84 83  1  0
 85 84  2  0
 88 87  1  0
 90 88  1  0
 90 91  1  0
 90 89  1  0
 92 95  1  1
 92 93  1  0
 94 92  1  0
M  ISO  4  15 100  23 100  54 101  55 101
M  END
>  <TORSDO>  (62) 
F 18

>  <SCORE>  (62) 
-14.478

>  <name>  (62) 
61

>  <ligand_id>  (62) 
61

>  <original_smiles>  (62) 
[H]C(Oc1c([H])c([H])c2c(c1[H])C([H])([H])N(C(=O)C([H])(N([H])C(=O)C([H])(N([H])C([H])([H])[H])C([H])([H])[H])C(C([H])([H])[H])(C([H])([H])[H])C([H])([H])[H])C([H])(C(=O)N([H])C1([H])c3c([H])c([H])c([H])c([H])c3C([H])([H])C([H])([H])C1([H])[H])C2([H])[H])=C([H])C(=O)N([H])C(c1c([H])c([H])c(N([H])C(=O)N2C([H])([H])C([H])([H])C([H])([H])C([H])(n3nc(-c4c([H])c([H])c(Oc5c([H])c([H])c(F)c([H])c5F)c([H])c4[H])c(C(=O)N([H])[H])c3N([H])[H])C2([H])[H])c([H])c1[H])=[N+]([H])[H]

>  <smiles>  (62) 
[H]C(Oc1c([H])c([H])c2c(c1[H])C([H])([H])N(C(=O)C([H])(N([H])C(=O)C([H])(N([H])C([H])([H])[H])C([H])([H])[H])C(C([H])([H])[H])(C([H])([H])[H])C([H])([H])[H])C([H])(C(=O)N([H])C1([H])c3c([H])c([H])c([H])c([H])c3C([H])([H])C([H])([H])C1([H])[H])C2([H])[H])=C([H])C(=O)N([H])C(c1c([H])c([H])c(N([H])C(=O)N2C([H])([H])C([H])([H])C([H])([H])C([H])(n3nc(-c4c([H])c([H])c(Oc5c([H])c([H])c(F)c([H])c5F)c([H])c4[H])c(C(=O)N([H])[H])c3N([H])[H])C2([H])[H])c([H])c1[H])=[N+]([H])[H]

$$$$
62:0:0
     RDKit          3D

 92100  0  0  1  0  0  0  0  0999 V2000
  -30.1940  -21.7380   20.5810 C   0  0  0  0  0  0  0  0  0  0  0  0
  -29.3180  -24.0650   20.4040 C   0  0  0  0  0  0  0  0  0  0  0  0
  -29.2260  -22.6810   20.2980 N   0  0  0  0  0  0  0  0  0  0  0  0
  -31.3260  -22.0690   20.9530 O   0  0  0  0  0  0  0  0  0  0  0  0
  -30.3260  -24.6380   20.8380 O   0  0  0  0  0  0  0  0  0  0  0  0
  -28.3520  -22.3160   19.9550 H   0  0  0  0  0  0  0  0  0  0  0  0
  -31.1170  -19.3710   20.1190 C   0  0  0  0  0  3  0  0  0  0  0  0
  -28.8060  -19.4960   20.7410 C   0  0  0  0  0  3  0  0  0  0  0  0
  -31.0750  -17.9420   20.1460 C   0  0  0  0  0  3  0  0  0  0  0  0
  -28.7630  -18.0620   20.7690 C   0  0  0  0  0  3  0  0  0  0  0  0
  -29.9970  -20.2030   20.4260 C   0  0  0  0  0  0  0  0  0  0  0  0
  -29.8940  -17.2350   20.4920 C   0  0  0  0  0  0  0  0  0  0  0  0
  -30.5680  -14.7130   20.2000 C   0  0  0  0  0  0  0  0  0  0  0  0
  -30.3280  -12.4810   19.1160 C   0  0  0  0  0  2  0  0  0  0  0  0
  -29.3470  -12.6240   17.9320 C   0  0  0  0  0  2  0  0  0  0  0  0
  -27.8870  -12.4620   18.4040 C   0  0  0  0  0  2  0  0  0  0  0  0
  -27.5700  -13.3070   19.6650 C   0  0  0  0  0  3  0  0  0  0  0  0
  -28.6620  -13.1350   20.7450 C   0  0  0  0  0  2  0  0  0  0  0  0
  -29.9510  -13.4880   20.1310 N   0  0  0  0  0  0  0  0  0  0  0  0
  -31.7230  -14.8610   19.7890 O   0  0  0  0  0  0  0  0  0  0  0  0
  -29.7710  -15.7690   20.5810 N   0  0  0  0  0  0  0  0  0  0  0  0
  -28.8730  -15.4540   20.9150 H   0  0  0  0  0  0  0  0  0  0  0  0
  -25.2040  -13.9080   20.4660 C   0  0  0  0  0  0  0  0  0  0  0  0
  -24.1450  -13.1370   20.8580 C   0  0  0  0  0  0  0  0  0  0  0  0
  -24.5970  -11.7830   20.7910 C   0  0  0  0  0  0  0  0  0  0  0  0
  -26.2350  -13.0250   20.1870 N   0  0  0  0  0  0  0  0  0  0  0  0
  -25.8760  -11.7410   20.4430 N   0  0  0  0  0  0  0  0  0  0  0  0
  -23.8670  -10.5220   20.9830 C   0  0  0  0  0  0  0  0  0  0  0  0
  -24.3070   -9.5490   21.9060 C   0  0  0  0  0  3  0  0  0  0  0  0
  -23.5790   -8.3520   22.0860 C   0  0  0  0  0  3  0  0  0  0  0  0
  -22.3970   -8.1220   21.3420 C   0  0  0  0  0  0  0  0  0  0  0  0
  -21.9780   -9.0850   20.4070 C   0  0  0  0  0  3  0  0  0  0  0  0
  -22.7070  -10.2710   20.2260 C   0  0  0  0  0  3  0  0  0  0  0  0
  -21.6400   -6.9790   21.4320 O   0  0  0  0  0  0  0  0  0  0  0  0
  -21.5780   -6.2470   22.5900 C   0  0  0  0  0  0  0  0  0  0  0  0
  -21.1290   -6.8080   23.8050 C   0  0  0  0  0  3  0  0  0  0  0  0
  -21.0140   -6.0010   24.9540 C   0  0  0  0  0  3  0  0  0  0  0  0
  -21.3390   -4.6330   24.8900 C   0  0  0  0  0  0  0  0  0  0  0  0
  -21.7820   -4.0710   23.6800 C   0  0  0  0  0  3  0  0  0  0  0  0
  -21.8980   -4.8740   22.5330 C   0  0  0  0  0  0  0  0  0  0  0  0
  -22.3050   -4.3230   21.3640 F   0  0  0  0  0  0  0  0  0  0  0  0
  -21.2220   -3.8560   25.9920 F   0  0  0  0  0  0  0  0  0  0  0  0
  -22.7590  -13.6180   21.1790 C   0  0  0  0  0  0  0  0  0  0  0  0
  -22.0540  -12.9140   22.0570 N   0  0  0  0  0  0  0  0  0  0  0  0
  -22.3110  -14.6520   20.6850 O   0  0  0  0  0  0  0  0  0  0  0  0
  -22.4290  -12.0770   22.4770 H   0  0  0  0  0  0  0  0  0  0  0  0
  -21.1260  -13.2190   22.3150 H   0  0  0  0  0  0  0  0  0  0  0  0
  -25.3720  -15.2810   20.3040 N   0  0  0  0  0  0  0  0  0  0  0  0
  -24.6050  -15.9330   20.4350 H   0  0  0  0  0  0  0  0  0  0  0  0
  -26.1960  -15.7160   19.9080 H   0  0  0  0  0  0  0  0  0  0  0  0
  -28.1290  -25.0170   19.9720 C   0  0  0  0  0  2  0  0  0  0  0  0
  -28.3410  -26.4810   20.1960 O   0  0  0  0  0  0  0  0  0  0  0  0
  -24.6120  -31.8710   23.2470 C   0  0  0  0  0  0  0  0  0  0  0  0
  -27.2230  -27.3360   20.1470 C   0  0  0  0  0  0  0  0  0  0  0  0
  -23.4070  -30.4890   21.5940 C   0  0  0  0  0  3  0  0  0  0  0  0
  -24.8580  -28.9540   20.1510 C   0  0  0  0  0  0  0  0  0  0  0  0
  -25.9470  -30.8080   21.4130 C   0  0  0  0  0  2  0  0  0  0  0  0
  -26.0280  -29.4360   20.7520 C   0  0  0  0  0  0  0  0  0  0  0  0
  -27.2140  -28.6390   20.7390 C   0  0  0  0  0  3  0  0  0  0  0  0
  -26.0280  -26.9120   19.5200 C   0  0  0  0  0  3  0  0  0  0  0  0
  -24.8610  -27.6980   19.5270 C   0  0  0  0  0  3  0  0  0  0  0  0
  -23.6210  -29.8280   20.2080 C   0  0  0  0  0  2  0  0  0  0  0  0
  -24.6750  -31.0730   22.1410 N   0  0  0  0  0  0  0  0  0  0  0  0
  -23.5280  -32.1440   23.7840 O   0  0  0  0  0  0  0  0  0  0  0  0
  -22.7450  -29.4630   22.5450 C   0  0  0  0  0  0  0  0  0  0  0  0
  -21.4180  -29.2870   22.4170 N   0  0  0  0  0  0  0  0  0  0  0  0
  -23.4240  -28.8290   23.3560 O   0  0  0  0  0  0  0  0  0  0  0  0
  -20.9300  -29.8510   21.7350 H   0  0  0  0  0  0  0  0  0  0  0  0
  -18.0380  -28.1030   22.9200 C   0  0  0  0  0  0  0  0  0  0  0  0
  -20.5990  -28.3440   23.1790 C   0  0  0  0  0  3  0  0  0  0  0  0
  -20.6900  -26.9200   22.5830 C   0  0  0  0  0  2  0  0  0  0  0  0
  -19.5800  -26.6170   21.5700 C   0  0  0  0  0  2  0  0  0  0  0  0
  -18.2030  -26.7620   22.2250 C   0  0  0  0  0  2  0  0  0  0  0  0
  -19.1630  -28.8530   23.3540 C   0  0  0  0  0  0  0  0  0  0  0  0
  -18.9540  -30.1080   23.9650 C   0  0  0  0  0  3  0  0  0  0  0  0
  -17.6530  -30.6140   24.1440 C   0  0  0  0  0  3  0  0  0  0  0  0
  -16.5420  -29.8610   23.7260 C   0  0  0  0  0  3  0  0  0  0  0  0
  -16.7350  -28.6070   23.1190 C   0  0  0  0  0  3  0  0  0  0  0  0
  -25.8940  -32.4980   23.8750 C   0  0  0  0  0  3  0  0  0  0  0  0
  -25.5870  -33.8960   24.2100 N   0  0  0  0  0  0  0  0  0  0  0  0
  -25.9040  -34.9500   23.4460 C   0  0  0  0  0  0  0  0  0  0  0  0
  -26.5550  -34.8480   22.4030 O   0  0  0  0  0  0  0  0  0  0  0  0
  -25.0060  -34.0490   25.0210 H   0  0  0  0  0  0  0  0  0  0  0  0
  -24.1570  -36.7340   23.1360 C   0  0  0  0  0  1  0  0  0  0  0  0
  -25.4220  -36.3380   23.9130 C   0  0  0  0  0  3  0  0  0  0  0  0
  -27.5730  -37.2390   24.6830 C   0  0  0  0  0  1  0  0  0  0  0  0
  -26.4460  -37.3950   23.7670 N   0  0  0  0  0  0  0  0  0  0  0  0
  -26.0390  -38.3150   23.9190 H   0  0  0  0  0  0  0  0  0  0  0  0
  -26.4050  -31.7220   25.1500 C   0  0  1  0  0  0  0  0  0  0  0  0
  -25.3060  -31.4800   26.2130 C   0  0  0  0  0  1  0  0  0  0  0  0
  -26.9880  -30.3450   24.7560 C   0  0  0  0  0  1  0  0  0  0  0  0
  -27.5520  -32.5120   25.8210 C   0  0  0  0  0  1  0  0  0  0  0  0
  1  4  2  0
  2  5  2  0
  3  2  1  0
  3  1  1  0
  6  3  1  0
  7  9  2  0
  7 11  1  0
  8 10  1  0
  9 12  1  0
 11  1  1  0
 11  8  2  0
 12 21  1  0
 12 10  2  0
 13 21  1  0
 14 19  1  0
 15 16  1  0
 15 14  1  0
 17 16  1  0
 17 26  1  0
 17 18  1  0
 19 13  1  0
 19 18  1  0
 20 13  2  0
 21 22  1  0
 23 24  2  0
 24 43  1  0
 25 24  1  0
 25 28  1  0
 26 27  1  0
 26 23  1  0
 27 25  2  0
 28 29  1  0
 29 30  2  0
 31 34  1  0
 31 30  1  0
 32 31  2  0
 33 32  1  0
 33 28  2  0
 34 35  1  0
 35 36  1  0
 36 37  2  0
 38 37  1  0
 38 42  1  0
 39 38  2  0
 40 35  2  0
 40 39  1  0
 41 40  1  0
 43 44  1  0
 44 47  1  0
 44 46  1  0
 45 43  2  0
 48 49  1  0
 48 23  1  0
 50 48  1  0
 51 52  1  0
 51  2  1  0
 53 64  2  0
 54 52  1  0
 54 59  1  0
 55 63  1  0
 55 65  1  0
 56 62  1  0
 56 58  1  0
 57 63  1  0
 58 57  1  0
 59 58  2  0
 60 61  1  0
 60 54  2  0
 61 56  2  0
 62 55  1  0
 63 53  1  0
 65 67  2  0
 66 65  1  0
 68 66  1  0
 69 78  2  0
 69 74  1  0
 70 66  1  0
 70 74  1  0
 71 70  1  0
 72 73  1  0
 72 71  1  0
 73 69  1  0
 74 75  2  0
 75 76  1  0
 77 76  2  0
 78 77  1  0
 79 53  1  0
 79 80  1  0
 79 89  1  0
 80 83  1  0
 81 85  1  0
 81 80  1  0
 82 81  2  0
 85 84  1  0
 87 85  1  0
 87 88  1  0
 87 86  1  0
 89 92  1  1
 89 90  1  0
 91 89  1  0
M  ISO  4  13 100  21 100  51 101  52 101
M  END
>  <TORSDO>  (63) 
F 18

>  <SCORE>  (63) 
-14.623

>  <name>  (63) 
62

>  <ligand_id>  (63) 
62

>  <original_smiles>  (63) 
[H]c1c([H])c([H])c2c(c1[H])C([H])([H])C([H])([H])C([H])([H])C2([H])N([H])C(=O)C1([H])N(C(=O)C([H])(N([H])C(=O)C([H])(N([H])C([H])([H])[H])C([H])([H])[H])C(C([H])([H])[H])(C([H])([H])[H])C([H])([H])[H])C([H])([H])c2c([H])c(OC([H])([H])C(=O)N([H])C(=O)c3c([H])c([H])c(N([H])C(=O)N4C([H])([H])C([H])([H])C([H])([H])C([H])(n5nc(-c6c([H])c([H])c(Oc7c([H])c([H])c(F)c([H])c7F)c([H])c6[H])c(C(=O)N([H])[H])c5N([H])[H])C4([H])[H])c([H])c3[H])c([H])c([H])c2C1([H])[H]

>  <smiles>  (63) 
[H]c1c([H])c([H])c2c(c1[H])C([H])([H])C([H])([H])C([H])([H])C2([H])N([H])C(=O)C1([H])N(C(=O)C([H])(N([H])C(=O)C([H])(N([H])C([H])([H])[H])C([H])([H])[H])C(C([H])([H])[H])(C([H])([H])[H])C([H])([H])[H])C([H])([H])c2c([H])c(OC([H])([H])C(=O)N([H])C(=O)c3c([H])c([H])c(N([H])C(=O)N4C([H])([H])C([H])([H])C([H])([H])C([H])(n5nc(-c6c([H])c([H])c(Oc7c([H])c([H])c(F)c([H])c7F)c([H])c6[H])c(C(=O)N([H])[H])c5N([H])[H])C4([H])[H])c([H])c3[H])c([H])c([H])c2C1([H])[H]

$$$$
63:0:0
     RDKit          3D

 92101  0  0  1  0  0  0  0  0999 V2000
  -28.5330  -23.7840   20.4570 C   0  0  0  0  0  0  0  0  0  0  0  0
  -28.0270  -22.5530   21.0520 C   0  0  0  0  0  0  0  0  0  0  0  0
  -28.0250  -25.0730   20.6320 C   0  0  0  0  0  3  0  0  0  0  0  0
  -29.6300  -22.9410   19.7370 C   0  0  0  0  0  2  0  0  0  0  0  0
  -29.0100  -21.7640   20.4190 N   0  0  0  0  0  0  0  0  0  0  0  0
  -27.0890  -22.3590   21.7980 O   0  0  0  0  0  0  0  0  0  0  0  0
  -30.4850  -19.6790   19.6990 C   0  0  0  0  0  3  0  0  0  0  0  0
  -30.7350  -18.2510   19.6760 C   0  0  0  0  0  3  0  0  0  0  0  0
  -28.5160  -19.3290   20.9340 C   0  0  0  0  0  3  0  0  0  0  0  0
  -29.3590  -20.3110   20.3300 C   0  0  0  0  0  0  0  0  0  0  0  0
  -29.8530  -17.3120   20.2900 C   0  0  0  0  0  0  0  0  0  0  0  0
  -28.7360  -17.9170   20.9170 C   0  0  0  0  0  0  0  0  0  0  0  0
  -27.8300  -17.1090   21.5210 F   0  0  0  0  0  0  0  0  0  0  0  0
  -30.7090  -14.8220   19.7990 C   0  0  0  0  0  0  0  0  0  0  0  0
  -30.4900  -12.5900   18.6820 C   0  0  0  0  0  2  0  0  0  0  0  0
  -29.4410  -12.7090   17.5510 C   0  0  0  0  0  2  0  0  0  0  0  0
  -28.0130  -12.5000   18.0940 C   0  0  0  0  0  2  0  0  0  0  0  0
  -27.7410  -13.3180   19.3850 C   0  0  0  0  0  3  0  0  0  0  0  0
  -28.8920  -13.1530   20.4030 C   0  0  0  0  0  2  0  0  0  0  0  0
  -30.1370  -13.5690   19.7350 N   0  0  0  0  0  0  0  0  0  0  0  0
  -31.8230  -15.0270   19.3060 O   0  0  0  0  0  0  0  0  0  0  0  0
  -29.9140  -15.8270   20.3180 N   0  0  0  0  0  0  0  0  0  0  0  0
  -29.1070  -15.4380   20.7840 H   0  0  0  0  0  0  0  0  0  0  0  0
  -25.4210  -13.8610   20.3420 C   0  0  0  0  0  0  0  0  0  0  0  0
  -24.3900  -13.0630   20.7560 C   0  0  0  0  0  0  0  0  0  0  0  0
  -24.8450  -11.7180   20.6050 C   0  0  0  0  0  0  0  0  0  0  0  0
  -26.4410  -13.0000   19.9670 N   0  0  0  0  0  0  0  0  0  0  0  0
  -26.1050  -11.7030   20.1840 N   0  0  0  0  0  0  0  0  0  0  0  0
  -24.1350  -10.4440   20.7810 C   0  0  0  0  0  0  0  0  0  0  0  0
  -24.6290   -9.4360   21.6360 C   0  0  0  0  0  3  0  0  0  0  0  0
  -23.9190   -8.2270   21.8030 C   0  0  0  0  0  3  0  0  0  0  0  0
  -22.7000   -8.0200   21.1160 C   0  0  0  0  0  0  0  0  0  0  0  0
  -22.2240   -9.0190   20.2470 C   0  0  0  0  0  3  0  0  0  0  0  0
  -22.9350  -10.2170   20.0780 C   0  0  0  0  0  3  0  0  0  0  0  0
  -21.9550   -6.8680   21.1960 O   0  0  0  0  0  0  0  0  0  0  0  0
  -21.9620   -6.0830   22.3210 C   0  0  0  0  0  0  0  0  0  0  0  0
  -21.6090   -6.5950   23.5890 C   0  0  0  0  0  3  0  0  0  0  0  0
  -21.5640   -5.7370   24.7070 C   0  0  0  0  0  3  0  0  0  0  0  0
  -21.8610   -4.3690   24.5580 C   0  0  0  0  0  0  0  0  0  0  0  0
  -22.2070   -3.8580   23.2950 C   0  0  0  0  0  3  0  0  0  0  0  0
  -22.2550   -4.7110   22.1790 C   0  0  0  0  0  0  0  0  0  0  0  0
  -22.5680   -4.2080   20.9610 F   0  0  0  0  0  0  0  0  0  0  0  0
  -21.8100   -3.5440   25.6290 F   0  0  0  0  0  0  0  0  0  0  0  0
  -23.0220  -13.5190   21.1780 C   0  0  0  0  0  0  0  0  0  0  0  0
  -22.3790  -12.7800   22.0740 N   0  0  0  0  0  0  0  0  0  0  0  0
  -22.5360  -14.5640   20.7470 O   0  0  0  0  0  0  0  0  0  0  0  0
  -22.7870  -11.9330   22.4420 H   0  0  0  0  0  0  0  0  0  0  0  0
  -21.4660  -13.0660   22.4000 H   0  0  0  0  0  0  0  0  0  0  0  0
  -25.5710  -15.2400   20.2320 N   0  0  0  0  0  0  0  0  0  0  0  0
  -24.8230  -15.8840   20.4630 H   0  0  0  0  0  0  0  0  0  0  0  0
  -26.4030  -15.7070   19.8970 H   0  0  0  0  0  0  0  0  0  0  0  0
  -28.3510  -26.3770   20.1520 O   0  0  0  0  0  0  0  0  0  0  0  0
  -24.6480  -31.8910   23.1380 C   0  0  0  0  0  0  0  0  0  0  0  0
  -27.2830  -27.3060   20.1010 C   0  0  0  0  0  0  0  0  0  0  0  0
  -23.4500  -30.4690   21.5160 C   0  0  0  0  0  3  0  0  0  0  0  0
  -24.9100  -28.9240   20.0870 C   0  0  0  0  0  0  0  0  0  0  0  0
  -25.9890  -30.8020   21.3190 C   0  0  0  0  0  2  0  0  0  0  0  0
  -26.0810  -29.4170   20.6780 C   0  0  0  0  0  0  0  0  0  0  0  0
  -27.2720  -28.6200   20.6780 C   0  0  0  0  0  3  0  0  0  0  0  0
  -26.0930  -26.8820   19.4710 C   0  0  0  0  0  3  0  0  0  0  0  0
  -24.9210  -27.6620   19.4710 C   0  0  0  0  0  3  0  0  0  0  0  0
  -23.6640  -29.7870   20.1400 C   0  0  0  0  0  2  0  0  0  0  0  0
  -24.7150  -31.0730   22.0470 N   0  0  0  0  0  0  0  0  0  0  0  0
  -23.5650  -32.1620   23.6770 O   0  0  0  0  0  0  0  0  0  0  0  0
  -22.8020  -29.4540   22.4890 C   0  0  0  0  0  0  0  0  0  0  0  0
  -21.4720  -29.2780   22.3860 N   0  0  0  0  0  0  0  0  0  0  0  0
  -23.4930  -28.8270   23.2950 O   0  0  0  0  0  0  0  0  0  0  0  0
  -20.9720  -29.8360   21.7080 H   0  0  0  0  0  0  0  0  0  0  0  0
  -18.1030  -28.0850   22.9540 C   0  0  0  0  0  0  0  0  0  0  0  0
  -20.6670  -28.3410   23.1710 C   0  0  0  0  0  3  0  0  0  0  0  0
  -20.7540  -26.9090   22.5920 C   0  0  0  0  0  2  0  0  0  0  0  0
  -19.6310  -26.5910   21.6000 C   0  0  0  0  0  2  0  0  0  0  0  0
  -18.2630  -26.7370   22.2720 C   0  0  0  0  0  2  0  0  0  0  0  0
  -19.2320  -28.8450   23.3620 C   0  0  0  0  0  0  0  0  0  0  0  0
  -19.0260  -30.1070   23.9620 C   0  0  0  0  0  3  0  0  0  0  0  0
  -17.7260  -30.6100   24.1560 C   0  0  0  0  0  3  0  0  0  0  0  0
  -16.6120  -29.8470   23.7630 C   0  0  0  0  0  3  0  0  0  0  0  0
  -16.8020  -28.5870   23.1670 C   0  0  0  0  0  3  0  0  0  0  0  0
  -25.9270  -32.5430   23.7480 C   0  0  0  0  0  3  0  0  0  0  0  0
  -25.6030  -33.9380   24.0780 N   0  0  0  0  0  0  0  0  0  0  0  0
  -25.9140  -34.9940   23.3150 C   0  0  0  0  0  0  0  0  0  0  0  0
  -26.5760  -34.8980   22.2780 O   0  0  0  0  0  0  0  0  0  0  0  0
  -25.0120  -34.0850   24.8840 H   0  0  0  0  0  0  0  0  0  0  0  0
  -24.1600  -36.7660   22.9800 C   0  0  0  0  0  1  0  0  0  0  0  0
  -25.4160  -36.3770   23.7760 C   0  0  0  0  0  3  0  0  0  0  0  0
  -27.5510  -37.2890   24.5790 C   0  0  0  0  0  1  0  0  0  0  0  0
  -26.4340  -37.4430   23.6500 N   0  0  0  0  0  0  0  0  0  0  0  0
  -26.0190  -38.3590   23.8010 H   0  0  0  0  0  0  0  0  0  0  0  0
  -26.4640  -31.7810   25.0230 C   0  0  1  0  0  0  0  0  0  0  0  0
  -25.3820  -31.5370   26.1020 C   0  0  0  0  0  1  0  0  0  0  0  0
  -27.0590  -30.4090   24.6340 C   0  0  0  0  0  1  0  0  0  0  0  0
  -27.6100  -32.5930   25.6730 C   0  0  0  0  0  1  0  0  0  0  0  0
  1  3  2  0
  1  2  1  0
  2  6  2  0
  4  5  1  0
  4  1  1  0
  5  2  1  0
  7 10  1  0
  8  7  2  0
  8 11  1  0
 10  5  1  0
 10  9  2  0
 11 22  1  0
 11 12  2  0
 12  9  1  0
 12 13  1  0
 14 22  1  0
 15 20  1  0
 16 17  1  0
 16 15  1  0
 18 17  1  0
 18 27  1  0
 18 19  1  0
 20 14  1  0
 20 19  1  0
 21 14  2  0
 22 23  1  0
 24 25  2  0
 25 44  1  0
 26 25  1  0
 26 29  1  0
 27 28  1  0
 27 24  1  0
 28 26  2  0
 29 30  1  0
 30 31  2  0
 32 35  1  0
 32 31  1  0
 33 32  2  0
 34 33  1  0
 34 29  2  0
 35 36  1  0
 36 37  1  0
 37 38  2  0
 39 38  1  0
 39 43  1  0
 40 39  2  0
 41 36  2  0
 41 40  1  0
 42 41  1  0
 44 45  1  0
 45 48  1  0
 45 47  1  0
 46 44  2  0
 49 24  1  0
 49 50  1  0
 51 49  1  0
 52  3  1  0
 53 64  2  0
 54 52  1  0
 54 59  1  0
 55 63  1  0
 55 65  1  0
 56 62  1  0
 56 58  1  0
 57 63  1  0
 58 57  1  0
 59 58  2  0
 60 54  2  0
 61 60  1  0
 61 56  2  0
 62 55  1  0
 63 53  1  0
 65 67  2  0
 66 65  1  0
 68 66  1  0
 69 78  2  0
 69 74  1  0
 70 66  1  0
 70 74  1  0
 71 70  1  0
 72 73  1  0
 72 71  1  0
 73 69  1  0
 74 75  2  0
 75 76  1  0
 77 76  2  0
 78 77  1  0
 79 53  1  0
 79 80  1  0
 79 89  1  0
 80 83  1  0
 81 85  1  0
 81 80  1  0
 82 81  2  0
 85 84  1  0
 87 85  1  0
 87 88  1  0
 87 86  1  0
 89 92  1  1
 89 90  1  0
 91 89  1  0
M  ISO  4   3 101  14 100  22 100  52 101
M  END
>  <TORSDO>  (64) 
F 17

>  <SCORE>  (64) 
-12.991

>  <name>  (64) 
63

>  <ligand_id>  (64) 
63

>  <original_smiles>  (64) 
[H]C(Oc1c([H])c([H])c2c(c1[H])C([H])([H])N(C(=O)C([H])(N([H])C(=O)C([H])(N([H])C([H])([H])[H])C([H])([H])[H])C(C([H])([H])[H])(C([H])([H])[H])C([H])([H])[H])C([H])(C(=O)N([H])C1([H])c3c([H])c([H])c([H])c([H])c3C([H])([H])C([H])([H])C1([H])[H])C2([H])[H])=C1C(=O)N(c2c([H])c([H])c(N([H])C(=O)N3C([H])([H])C([H])([H])C([H])([H])C([H])(n4nc(-c5c([H])c([H])c(Oc6c([H])c([H])c(F)c([H])c6F)c([H])c5[H])c(C(=O)N([H])[H])c4N([H])[H])C3([H])[H])c(F)c2[H])C1([H])[H]

>  <smiles>  (64) 
[H]C(Oc1c([H])c([H])c2c(c1[H])C([H])([H])N(C(=O)C([H])(N([H])C(=O)C([H])(N([H])C([H])([H])[H])C([H])([H])[H])C(C([H])([H])[H])(C([H])([H])[H])C([H])([H])[H])C([H])(C(=O)N([H])C1([H])c3c([H])c([H])c([H])c([H])c3C([H])([H])C([H])([H])C1([H])[H])C2([H])[H])=C1C(=O)N(c2c([H])c([H])c(N([H])C(=O)N3C([H])([H])C([H])([H])C([H])([H])C([H])(n4nc(-c5c([H])c([H])c(Oc6c([H])c([H])c(F)c([H])c6F)c([H])c5[H])c(C(=O)N([H])[H])c4N([H])[H])C3([H])[H])c(F)c2[H])C1([H])[H]

$$$$
64:0:0
     RDKit          3D

 95104  0  0  1  0  0  0  0  0999 V2000
  -28.7770  -24.3900   21.2810 C   0  0  0  0  0  0  0  0  0  0  0  0
  -29.1000  -23.7090   22.5120 C   0  0  0  0  0  0  0  0  0  0  0  0
  -28.7080  -23.3290   20.2540 C   0  0  0  0  0  0  0  0  0  0  0  0
  -29.1010  -24.2490   23.7450 C   0  0  0  0  0  1  0  0  0  0  0  0
  -28.5910  -25.7500   21.1730 C   0  0  0  0  0  2  0  0  0  0  0  0
  -29.3890  -22.2610   22.2340 C   0  0  0  0  0  2  0  0  0  0  0  0
  -28.9930  -22.1020   20.8360 N   0  0  0  0  0  0  0  0  0  0  0  0
  -28.4420  -23.4970   19.0590 O   0  0  0  0  0  0  0  0  0  0  0  0
  -27.6460  -19.1640   18.8430 C   0  0  0  0  0  3  0  0  0  0  0  0
  -28.4120  -18.0790   19.3160 C   0  0  0  0  0  3  0  0  0  0  0  0
  -27.8670  -20.4750   19.3120 C   0  0  0  0  0  3  0  0  0  0  0  0
  -29.6180  -19.6200   20.7650 C   0  0  0  0  0  3  0  0  0  0  0  0
  -29.4220  -18.2740   20.2850 C   0  0  0  0  0  0  0  0  0  0  0  0
  -28.8510  -20.7460   20.2910 C   0  0  0  0  0  0  0  0  0  0  0  0
  -30.6740  -14.6760   20.3840 C   0  0  0  0  0  0  0  0  0  0  0  0
  -30.4190  -12.4450   19.3220 C   0  0  0  0  0  2  0  0  0  0  0  0
  -29.4860  -12.5620   18.1000 C   0  0  0  0  0  2  0  0  0  0  0  0
  -28.0140  -12.4030   18.5270 C   0  0  0  0  0  2  0  0  0  0  0  0
  -27.6460  -13.2830   19.7510 C   0  0  0  0  0  3  0  0  0  0  0  0
  -28.6990  -13.1660   20.8740 C   0  0  0  0  0  2  0  0  0  0  0  0
  -30.0050  -13.4850   20.2840 N   0  0  0  0  0  0  0  0  0  0  0  0
  -31.8720  -14.7350   20.0930 O   0  0  0  0  0  0  0  0  0  0  0  0
  -30.3490  -17.1060   20.6710 C   0  0  0  0  0  0  0  0  0  0  0  0
  -29.9140  -15.8090   20.5470 N   0  0  0  0  0  0  0  0  0  0  0  0
  -31.4740  -17.3940   21.0960 O   0  0  0  0  0  0  0  0  0  0  0  0
  -28.9200  -15.6840   20.4680 H   0  0  0  0  0  0  0  0  0  0  0  0
  -25.2500  -13.8800   20.4540 C   0  0  0  0  0  0  0  0  0  0  0  0
  -24.1830  -13.1060   20.8230 C   0  0  0  0  0  0  0  0  0  0  0  0
  -24.6500  -11.7570   20.8070 C   0  0  0  0  0  0  0  0  0  0  0  0
  -26.2980  -13.0010   20.2330 N   0  0  0  0  0  0  0  0  0  0  0  0
  -25.9420  -11.7200   20.5080 N   0  0  0  0  0  0  0  0  0  0  0  0
  -23.9260  -10.4940   21.0000 C   0  0  0  0  0  0  0  0  0  0  0  0
  -24.3520   -9.5360   21.9460 C   0  0  0  0  0  3  0  0  0  0  0  0
  -23.6260   -8.3370   22.1270 C   0  0  0  0  0  3  0  0  0  0  0  0
  -22.4610   -8.0910   21.3630 C   0  0  0  0  0  0  0  0  0  0  0  0
  -22.0550   -9.0380   20.4070 C   0  0  0  0  0  3  0  0  0  0  0  0
  -22.7800  -10.2270   20.2240 C   0  0  0  0  0  3  0  0  0  0  0  0
  -21.7090   -6.9450   21.4530 O   0  0  0  0  0  0  0  0  0  0  0  0
  -21.6480   -6.2120   22.6120 C   0  0  0  0  0  0  0  0  0  0  0  0
  -21.2030   -6.7760   23.8270 C   0  0  0  0  0  3  0  0  0  0  0  0
  -21.0920   -5.9700   24.9780 C   0  0  0  0  0  3  0  0  0  0  0  0
  -21.4140   -4.6010   24.9130 C   0  0  0  0  0  0  0  0  0  0  0  0
  -21.8510   -4.0360   23.7020 C   0  0  0  0  0  3  0  0  0  0  0  0
  -21.9640   -4.8400   22.5530 C   0  0  0  0  0  0  0  0  0  0  0  0
  -22.3660   -4.2870   21.3830 F   0  0  0  0  0  0  0  0  0  0  0  0
  -21.3000   -3.8230   26.0150 F   0  0  0  0  0  0  0  0  0  0  0  0
  -22.7830  -13.5830   21.0810 C   0  0  0  0  0  0  0  0  0  0  0  0
  -22.0490  -12.8890   21.9440 N   0  0  0  0  0  0  0  0  0  0  0  0
  -22.3470  -14.6030   20.5520 O   0  0  0  0  0  0  0  0  0  0  0  0
  -22.4150  -12.0640   22.3960 H   0  0  0  0  0  0  0  0  0  0  0  0
  -21.1080  -13.1870   22.1570 H   0  0  0  0  0  0  0  0  0  0  0  0
  -25.4070  -15.2500   20.2670 N   0  0  0  0  0  0  0  0  0  0  0  0
  -24.6270  -15.8930   20.3600 H   0  0  0  0  0  0  0  0  0  0  0  0
  -26.2400  -15.6970   19.9110 H   0  0  0  0  0  0  0  0  0  0  0  0
  -28.3620  -26.5480   20.0570 O   0  0  0  0  0  0  0  0  0  0  0  0
  -24.6860  -31.8980   23.2090 C   0  0  0  0  0  0  0  0  0  0  0  0
  -27.2680  -27.4020   20.0980 C   0  0  0  0  0  0  0  0  0  0  0  0
  -23.4610  -30.5080   21.5750 C   0  0  0  0  0  3  0  0  0  0  0  0
  -24.8970  -28.9710   20.1230 C   0  0  0  0  0  0  0  0  0  0  0  0
  -25.9930  -30.8450   21.3560 C   0  0  0  0  0  2  0  0  0  0  0  0
  -26.0690  -29.4700   20.7110 C   0  0  0  0  0  0  0  0  0  0  0  0
  -27.2600  -28.6920   20.6990 C   0  0  0  0  0  3  0  0  0  0  0  0
  -26.0840  -26.9410   19.4930 C   0  0  0  0  0  3  0  0  0  0  0  0
  -24.9040  -27.7070   19.5090 C   0  0  0  0  0  3  0  0  0  0  0  0
  -23.6580  -29.8390   20.1880 C   0  0  0  0  0  2  0  0  0  0  0  0
  -24.7330  -31.1010   22.1030 N   0  0  0  0  0  0  0  0  0  0  0  0
  -23.6100  -32.1690   23.7620 O   0  0  0  0  0  0  0  0  0  0  0  0
  -22.8160  -29.4830   22.5370 C   0  0  0  0  0  0  0  0  0  0  0  0
  -21.4890  -29.3020   22.4250 N   0  0  0  0  0  0  0  0  0  0  0  0
  -23.5070  -28.8530   23.3420 O   0  0  0  0  0  0  0  0  0  0  0  0
  -20.9900  -29.8610   21.7480 H   0  0  0  0  0  0  0  0  0  0  0  0
  -18.1250  -28.0880   22.9520 C   0  0  0  0  0  0  0  0  0  0  0  0
  -20.6840  -28.3570   23.2000 C   0  0  0  0  0  3  0  0  0  0  0  0
  -20.7880  -26.9280   22.6200 C   0  0  0  0  0  2  0  0  0  0  0  0
  -19.6780  -26.6030   21.6160 C   0  0  0  0  0  2  0  0  0  0  0  0
  -18.3010  -26.7410   22.2730 C   0  0  0  0  0  2  0  0  0  0  0  0
  -19.2440  -28.8540   23.3730 C   0  0  0  0  0  0  0  0  0  0  0  0
  -19.0250  -30.1160   23.9680 C   0  0  0  0  0  3  0  0  0  0  0  0
  -17.7200  -30.6120   24.1440 C   0  0  0  0  0  3  0  0  0  0  0  0
  -16.6150  -29.8440   23.7380 C   0  0  0  0  0  3  0  0  0  0  0  0
  -16.8190  -28.5840   23.1480 C   0  0  0  0  0  3  0  0  0  0  0  0
  -25.9790  -32.5270   23.8160 C   0  0  0  0  0  3  0  0  0  0  0  0
  -25.6690  -33.9200   24.1680 N   0  0  0  0  0  0  0  0  0  0  0  0
  -25.9860  -34.9820   23.4170 C   0  0  0  0  0  0  0  0  0  0  0  0
  -26.6390  -34.8940   22.3740 O   0  0  0  0  0  0  0  0  0  0  0  0
  -25.0880  -34.0620   24.9810 H   0  0  0  0  0  0  0  0  0  0  0  0
  -24.2480  -36.7750   23.1130 C   0  0  0  0  0  1  0  0  0  0  0  0
  -25.5030  -36.3630   23.8990 C   0  0  0  0  0  3  0  0  0  0  0  0
  -27.6470  -37.2450   24.7090 C   0  0  0  0  0  1  0  0  0  0  0  0
  -26.5310  -37.4200   23.7840 N   0  0  0  0  0  0  0  0  0  0  0  0
  -26.1240  -38.3380   23.9470 H   0  0  0  0  0  0  0  0  0  0  0  0
  -26.5190  -31.7410   25.0750 C   0  0  1  0  0  0  0  0  0  0  0  0
  -25.4460  -31.4880   26.1580 C   0  0  0  0  0  1  0  0  0  0  0  0
  -27.0990  -30.3700   24.6540 C   0  0  0  0  0  1  0  0  0  0  0  0
  -27.6790  -32.5310   25.7270 C   0  0  0  0  0  1  0  0  0  0  0  0
  1  2  2  0
  2  4  1  0
  3  7  1  0
  3  1  1  0
  5  1  1  0
  6  2  1  0
  7  6  1  0
  8  3  2  0
  9 11  2  0
  9 10  1  0
 10 13  2  0
 11 14  1  0
 13 23  1  0
 13 12  1  0
 14 12  2  0
 14  7  1  0
 15 24  1  0
 16 21  1  0
 17 18  1  0
 17 16  1  0
 19 18  1  0
 19 30  1  0
 19 20  1  0
 21 15  1  0
 21 20  1  0
 22 15  2  0
 23 25  2  0
 24 23  1  0
 26 24  1  0
 27 28  2  0
 28 47  1  0
 29 28  1  0
 29 32  1  0
 30 27  1  0
 30 31  1  0
 31 29  2  0
 32 33  1  0
 33 34  2  0
 35 38  1  0
 35 34  1  0
 36 35  2  0
 37 36  1  0
 37 32  2  0
 38 39  1  0
 39 40  1  0
 40 41  2  0
 42 41  1  0
 42 46  1  0
 43 42  2  0
 44 39  2  0
 44 43  1  0
 45 44  1  0
 47 48  1  0
 48 51  1  0
 48 50  1  0
 49 47  2  0
 52 53  1  0
 52 27  1  0
 54 52  1  0
 55 57  1  0
 55  5  1  0
 56 67  2  0
 57 62  1  0
 58 66  1  0
 58 68  1  0
 59 65  1  0
 59 61  1  0
 60 66  1  0
 61 60  1  0
 62 61  2  0
 63 64  1  0
 63 57  2  0
 64 59  2  0
 65 58  1  0
 66 56  1  0
 68 70  2  0
 69 68  1  0
 71 69  1  0
 72 81  2  0
 72 77  1  0
 73 69  1  0
 73 77  1  0
 74 73  1  0
 75 76  1  0
 75 74  1  0
 76 72  1  0
 77 78  2  0
 78 79  1  0
 80 79  2  0
 81 80  1  0
 82 56  1  0
 82 83  1  0
 82 92  1  0
 83 86  1  0
 84 88  1  0
 84 83  1  0
 85 84  2  0
 88 87  1  0
 90 88  1  0
 90 91  1  0
 90 89  1  0
 92 95  1  1
 92 93  1  0
 94 92  1  0
M  ISO  4   5 101  15 100  24 100  55 101
M  END
>  <TORSDO>  (65) 
F 17

>  <SCORE>  (65) 
-15.271

>  <name>  (65) 
64

>  <ligand_id>  (65) 
64

>  <original_smiles>  (65) 
[H]C([H])=C1C(=C([H])Oc2c([H])c([H])c3c(c2[H])C([H])([H])N(C(=O)C([H])(N([H])C(=O)C([H])(N([H])C([H])([H])[H])C([H])([H])[H])C(C([H])([H])[H])(C([H])([H])[H])C([H])([H])[H])C([H])(C(=O)N([H])C2([H])c4c([H])c([H])c([H])c([H])c4C([H])([H])C([H])([H])C2([H])[H])C3([H])[H])C(=O)N(c2c([H])c([H])c([H])c(C(=O)N([H])C(=O)N3C([H])([H])C([H])([H])C([H])([H])C([H])(n4nc(-c5c([H])c([H])c(Oc6c([H])c([H])c(F)c([H])c6F)c([H])c5[H])c(C(=O)N([H])[H])c4N([H])[H])C3([H])[H])c2[H])C1([H])[H]

>  <smiles>  (65) 
[H]C([H])=C1C(=C([H])Oc2c([H])c([H])c3c(c2[H])C([H])([H])N(C(=O)C([H])(N([H])C(=O)C([H])(N([H])C([H])([H])[H])C([H])([H])[H])C(C([H])([H])[H])(C([H])([H])[H])C([H])([H])[H])C([H])(C(=O)N([H])C2([H])c4c([H])c([H])c([H])c([H])c4C([H])([H])C([H])([H])C2([H])[H])C3([H])[H])C(=O)N(c2c([H])c([H])c([H])c(C(=O)N([H])C(=O)N3C([H])([H])C([H])([H])C([H])([H])C([H])(n4nc(-c5c([H])c([H])c(Oc6c([H])c([H])c(F)c([H])c6F)c([H])c5[H])c(C(=O)N([H])[H])c4N([H])[H])C3([H])[H])c2[H])C1([H])[H]

$$$$
65:0:0
     RDKit          3D

 95104  0  0  1  0  0  0  0  0999 V2000
  -29.2630  -24.2070   19.8820 C   0  0  0  0  0  0  0  0  0  0  0  0
  -29.0530  -22.7300   20.1800 C   0  0  0  0  0  0  0  0  0  0  0  0
  -31.6180  -23.6960   19.3000 C   0  0  0  0  0  0  0  0  0  0  0  0
  -32.8470  -24.1090   19.6560 C   0  0  0  0  0  2  0  0  0  0  0  0
  -28.3800  -25.1790   20.3150 C   0  0  0  0  0  3  0  0  0  0  0  0
  -30.4720  -24.6400   19.0680 C   0  0  0  0  0  2  0  0  0  0  0  0
  -31.2500  -22.2430   19.0880 C   0  0  0  0  0  2  0  0  0  0  0  0
  -30.0230  -21.7970   19.7840 N   0  0  0  0  0  0  0  0  0  0  0  0
  -28.0320  -22.3420   20.7580 O   0  0  0  0  0  0  0  0  0  0  0  0
  -29.3970  -19.6340   21.0520 C   0  0  0  0  0  3  0  0  0  0  0  0
  -29.4200  -18.2030   21.1790 C   0  0  0  0  0  3  0  0  0  0  0  0
  -30.4850  -19.4280   18.9340 C   0  0  0  0  0  3  0  0  0  0  0  0
  -29.9340  -20.3100   19.9210 C   0  0  0  0  0  0  0  0  0  0  0  0
  -29.9810  -17.3340   20.1960 C   0  0  0  0  0  0  0  0  0  0  0  0
  -30.5010  -18.0000   19.0500 C   0  0  0  0  0  0  0  0  0  0  0  0
  -30.9940  -17.2800   18.0140 F   0  0  0  0  0  0  0  0  0  0  0  0
  -30.6730  -14.8020   19.9750 C   0  0  0  0  0  0  0  0  0  0  0  0
  -30.4610  -12.5200   18.9890 C   0  0  0  0  0  2  0  0  0  0  0  0
  -29.4620  -12.5820   17.8100 C   0  0  0  0  0  2  0  0  0  0  0  0
  -28.0160  -12.4000   18.3080 C   0  0  0  0  0  2  0  0  0  0  0  0
  -27.6910  -13.2940   19.5350 C   0  0  0  0  0  3  0  0  0  0  0  0
  -28.8000  -13.2040   20.6070 C   0  0  0  0  0  2  0  0  0  0  0  0
  -30.0720  -13.5650   19.9630 N   0  0  0  0  0  0  0  0  0  0  0  0
  -31.8210  -14.9400   19.5460 O   0  0  0  0  0  0  0  0  0  0  0  0
  -29.8920  -15.8680   20.3750 N   0  0  0  0  0  0  0  0  0  0  0  0
  -29.0420  -15.5650   20.8240 H   0  0  0  0  0  0  0  0  0  0  0  0
  -25.3470  -13.8790   20.4080 C   0  0  0  0  0  0  0  0  0  0  0  0
  -24.2960  -13.1010   20.8120 C   0  0  0  0  0  0  0  0  0  0  0  0
  -24.7460  -11.7490   20.7150 C   0  0  0  0  0  0  0  0  0  0  0  0
  -26.3700  -13.0020   20.0870 N   0  0  0  0  0  0  0  0  0  0  0  0
  -26.0180  -11.7130   20.3340 N   0  0  0  0  0  0  0  0  0  0  0  0
  -24.0220  -10.4870   20.9070 C   0  0  0  0  0  0  0  0  0  0  0  0
  -24.4350   -9.5400   21.8700 C   0  0  0  0  0  3  0  0  0  0  0  0
  -23.7100   -8.3400   22.0510 C   0  0  0  0  0  3  0  0  0  0  0  0
  -22.5600   -8.0810   21.2690 C   0  0  0  0  0  0  0  0  0  0  0  0
  -22.1660   -9.0180   20.2980 C   0  0  0  0  0  3  0  0  0  0  0  0
  -22.8910  -10.2080   20.1150 C   0  0  0  0  0  3  0  0  0  0  0  0
  -21.8090   -6.9320   21.3560 O   0  0  0  0  0  0  0  0  0  0  0  0
  -21.6630   -6.2580   22.5420 C   0  0  0  0  0  0  0  0  0  0  0  0
  -21.0600   -6.8560   23.6700 C   0  0  0  0  0  3  0  0  0  0  0  0
  -20.8630   -6.1040   24.8450 C   0  0  0  0  0  3  0  0  0  0  0  0
  -21.2610   -4.7560   24.8930 C   0  0  0  0  0  0  0  0  0  0  0  0
  -21.8580   -4.1560   23.7700 C   0  0  0  0  0  3  0  0  0  0  0  0
  -22.0560   -4.9060   22.5970 C   0  0  0  0  0  0  0  0  0  0  0  0
  -22.6120   -4.3180   21.5100 F   0  0  0  0  0  0  0  0  0  0  0  0
  -21.0660   -4.0300   26.0200 F   0  0  0  0  0  0  0  0  0  0  0  0
  -22.9190  -13.5790   21.1700 C   0  0  0  0  0  0  0  0  0  0  0  0
  -22.2380  -12.8700   22.0640 N   0  0  0  0  0  0  0  0  0  0  0  0
  -22.4550  -14.6140   20.6940 O   0  0  0  0  0  0  0  0  0  0  0  0
  -22.6250  -12.0340   22.4750 H   0  0  0  0  0  0  0  0  0  0  0  0
  -21.3170  -13.1720   22.3460 H   0  0  0  0  0  0  0  0  0  0  0  0
  -25.5090  -15.2540   20.2640 N   0  0  0  0  0  0  0  0  0  0  0  0
  -24.7510  -15.9050   20.4380 H   0  0  0  0  0  0  0  0  0  0  0  0
  -26.3350  -15.7040   19.8910 H   0  0  0  0  0  0  0  0  0  0  0  0
  -28.4760  -26.5770   20.0860 O   0  0  0  0  0  0  0  0  0  0  0  0
  -24.6150  -31.9000   23.1240 C   0  0  0  0  0  0  0  0  0  0  0  0
  -27.3270  -27.3900   20.0740 C   0  0  0  0  0  0  0  0  0  0  0  0
  -23.4380  -30.4790   21.4830 C   0  0  0  0  0  3  0  0  0  0  0  0
  -24.9210  -28.9520   20.0570 C   0  0  0  0  0  0  0  0  0  0  0  0
  -25.9680  -30.8470   21.2990 C   0  0  0  0  0  2  0  0  0  0  0  0
  -26.0780  -29.4680   20.6570 C   0  0  0  0  0  0  0  0  0  0  0  0
  -27.2810  -28.6980   20.6550 C   0  0  0  0  0  3  0  0  0  0  0  0
  -26.1480  -26.9300   19.4460 C   0  0  0  0  0  3  0  0  0  0  0  0
  -24.9580  -27.6890   19.4430 C   0  0  0  0  0  3  0  0  0  0  0  0
  -23.6670  -29.8030   20.1030 C   0  0  0  0  0  2  0  0  0  0  0  0
  -24.6920  -31.0920   22.0260 N   0  0  0  0  0  0  0  0  0  0  0  0
  -23.5270  -32.1570   23.6590 O   0  0  0  0  0  0  0  0  0  0  0  0
  -22.7900  -29.4530   22.4440 C   0  0  0  0  0  0  0  0  0  0  0  0
  -21.4680  -29.2530   22.3150 N   0  0  0  0  0  0  0  0  0  0  0  0
  -23.4780  -28.8410   23.2650 O   0  0  0  0  0  0  0  0  0  0  0  0
  -20.9710  -29.7970   21.6230 H   0  0  0  0  0  0  0  0  0  0  0  0
  -18.1130  -27.9890   22.7990 C   0  0  0  0  0  0  0  0  0  0  0  0
  -20.6630  -28.3020   23.0850 C   0  0  0  0  0  3  0  0  0  0  0  0
  -20.7980  -26.8720   22.5160 C   0  0  0  0  0  2  0  0  0  0  0  0
  -19.7100  -26.5240   21.4940 C   0  0  0  0  0  2  0  0  0  0  0  0
  -18.3210  -26.6420   22.1290 C   0  0  0  0  0  2  0  0  0  0  0  0
  -19.2130  -28.7760   23.2340 C   0  0  0  0  0  0  0  0  0  0  0  0
  -18.9650  -30.0360   23.8210 C   0  0  0  0  0  3  0  0  0  0  0  0
  -17.6480  -30.5090   23.9770 C   0  0  0  0  0  3  0  0  0  0  0  0
  -16.5620  -29.7200   23.5580 C   0  0  0  0  0  3  0  0  0  0  0  0
  -16.7950  -28.4620   22.9750 C   0  0  0  0  0  3  0  0  0  0  0  0
  -25.8850  -32.5540   23.7500 C   0  0  0  0  0  3  0  0  0  0  0  0
  -25.5440  -33.9410   24.1000 N   0  0  0  0  0  0  0  0  0  0  0  0
  -25.8400  -35.0110   23.3510 C   0  0  0  0  0  0  0  0  0  0  0  0
  -26.4990  -34.9360   22.3100 O   0  0  0  0  0  0  0  0  0  0  0  0
  -24.9500  -34.0680   24.9070 H   0  0  0  0  0  0  0  0  0  0  0  0
  -24.0740  -36.7710   23.0310 C   0  0  0  0  0  1  0  0  0  0  0  0
  -25.3260  -36.3830   23.8320 C   0  0  0  0  0  3  0  0  0  0  0  0
  -27.4370  -37.3100   24.6760 C   0  0  0  0  0  1  0  0  0  0  0  0
  -26.3370  -37.4590   23.7280 N   0  0  0  0  0  0  0  0  0  0  0  0
  -25.9090  -38.3700   23.8730 H   0  0  0  0  0  0  0  0  0  0  0  0
  -26.4230  -31.7790   25.0150 C   0  0  1  0  0  0  0  0  0  0  0  0
  -25.3370  -31.4960   26.0810 C   0  0  0  0  0  1  0  0  0  0  0  0
  -27.0410  -30.4230   24.6040 C   0  0  0  0  0  1  0  0  0  0  0  0
  -27.5560  -32.5930   25.6840 C   0  0  0  0  0  1  0  0  0  0  0  0
  1  2  1  0
  1  5  2  0
  2  9  2  0
  3  4  2  0
  6  3  1  0
  6  1  1  0
  7  3  1  0
  7  8  1  0
  8 13  1  0
  8  2  1  0
 10 11  1  0
 12 15  2  0
 12 13  1  0
 13 10  2  0
 14 25  1  0
 14 11  2  0
 15 14  1  0
 16 15  1  0
 17 25  1  0
 18 23  1  0
 19 20  1  0
 19 18  1  0
 21 20  1  0
 21 30  1  0
 21 22  1  0
 23 17  1  0
 23 22  1  0
 24 17  2  0
 25 26  1  0
 27 28  2  0
 28 47  1  0
 29 28  1  0
 29 32  1  0
 30 31  1  0
 30 27  1  0
 31 29  2  0
 32 33  1  0
 33 34  2  0
 35 38  1  0
 35 34  1  0
 36 35  2  0
 37 36  1  0
 37 32  2  0
 38 39  1  0
 39 44  2  0
 39 40  1  0
 40 41  2  0
 41 42  1  0
 42 46  1  0
 43 42  2  0
 44 43  1  0
 45 44  1  0
 47 48  1  0
 48 51  1  0
 48 50  1  0
 49 47  2  0
 52 27  1  0
 52 53  1  0
 54 52  1  0
 55  5  1  0
 56 67  2  0
 57 55  1  0
 57 62  1  0
 58 66  1  0
 58 68  1  0
 59 65  1  0
 59 61  1  0
 60 66  1  0
 61 60  1  0
 62 61  2  0
 63 57  2  0
 64 63  1  0
 64 59  2  0
 65 58  1  0
 66 56  1  0
 68 70  2  0
 69 68  1  0
 71 69  1  0
 72 81  2  0
 72 77  1  0
 73 69  1  0
 73 77  1  0
 74 73  1  0
 75 76  1  0
 75 74  1  0
 76 72  1  0
 77 78  2  0
 78 79  1  0
 80 79  2  0
 81 80  1  0
 82 56  1  0
 82 83  1  0
 82 92  1  0
 83 86  1  0
 84 88  1  0
 84 83  1  0
 85 84  2  0
 88 87  1  0
 90 88  1  0
 90 91  1  0
 90 89  1  0
 92 95  1  1
 92 93  1  0
 94 92  1  0
M  ISO  4   5 101  17 100  25 100  55 101
M  END
>  <TORSDO>  (66) 
F 17

>  <SCORE>  (66) 
-14.734

>  <name>  (66) 
65

>  <ligand_id>  (66) 
65

>  <original_smiles>  (66) 
[H]C([H])=C1C([H])([H])C(=C([H])Oc2c([H])c([H])c3c(c2[H])C([H])([H])N(C(=O)C([H])(N([H])C(=O)C([H])(N([H])C([H])([H])[H])C([H])([H])[H])C(C([H])([H])[H])(C([H])([H])[H])C([H])([H])[H])C([H])(C(=O)N([H])C2([H])c4c([H])c([H])c([H])c([H])c4C([H])([H])C([H])([H])C2([H])[H])C3([H])[H])C(=O)N(c2c([H])c([H])c(N([H])C(=O)N3C([H])([H])C([H])([H])C([H])([H])C([H])(n4nc(-c5c([H])c([H])c(Oc6c([H])c([H])c(F)c([H])c6F)c([H])c5[H])c(C(=O)N([H])[H])c4N([H])[H])C3([H])[H])c(F)c2[H])C1([H])[H]

>  <smiles>  (66) 
[H]C([H])=C1C([H])([H])C(=C([H])Oc2c([H])c([H])c3c(c2[H])C([H])([H])N(C(=O)C([H])(N([H])C(=O)C([H])(N([H])C([H])([H])[H])C([H])([H])[H])C(C([H])([H])[H])(C([H])([H])[H])C([H])([H])[H])C([H])(C(=O)N([H])C2([H])c4c([H])c([H])c([H])c([H])c4C([H])([H])C([H])([H])C2([H])[H])C3([H])[H])C(=O)N(c2c([H])c([H])c(N([H])C(=O)N3C([H])([H])C([H])([H])C([H])([H])C([H])(n4nc(-c5c([H])c([H])c(Oc6c([H])c([H])c(F)c([H])c6F)c([H])c5[H])c(C(=O)N([H])[H])c4N([H])[H])C3([H])[H])c(F)c2[H])C1([H])[H]

$$$$
66:0:0
     RDKit          3D

 93102  0  0  1  0  0  0  0  0999 V2000
  -27.9570  -23.1010   20.7970 C   0  0  0  0  0  3  0  0  0  0  0  0
  -28.6550  -23.7620   19.8680 C   0  0  0  0  0  0  0  0  0  0  0  0
  -28.3970  -21.7080   20.8690 C   0  0  0  0  0  0  0  0  0  0  0  0
  -29.5430  -22.7290   19.2920 C   0  0  0  0  0  0  0  0  0  0  0  0
  -29.3570  -21.5090   19.9310 N   0  0  0  0  0  0  0  0  0  0  0  0
  -27.9640  -20.8570   21.6540 O   0  0  0  0  0  0  0  0  0  0  0  0
  -30.3080  -22.9330   18.3440 O   0  0  0  0  0  0  0  0  0  0  0  0
  -32.1430  -19.1310   18.8040 C   0  0  0  0  0  3  0  0  0  0  0  0
  -31.7380  -17.8560   19.2310 C   0  0  0  0  0  3  0  0  0  0  0  0
  -31.3690  -20.2720   19.0490 C   0  0  0  0  0  3  0  0  0  0  0  0
  -29.7340  -18.8570   20.1360 C   0  0  0  0  0  3  0  0  0  0  0  0
  -30.5300  -17.6340   19.9340 C   0  0  0  0  0  0  0  0  0  0  0  0
  -30.1150  -20.2120   19.7090 C   0  0  0  0  0  0  0  0  0  0  0  0
  -29.4920  -16.2170   21.6850 C   0  0  0  0  0  2  0  0  0  0  0  0
  -30.2300  -16.2170   20.5550 C   0  0  0  0  0  0  0  0  0  0  0  0
  -30.8230  -14.8970   20.0170 C   0  0  0  0  0  0  0  0  0  0  0  0
  -30.5000  -12.6590   18.9280 C   0  0  0  0  0  2  0  0  0  0  0  0
  -29.4780  -12.7550   17.7690 C   0  0  0  0  0  2  0  0  0  0  0  0
  -28.0340  -12.5740   18.2820 C   0  0  0  0  0  2  0  0  0  0  0  0
  -27.7550  -13.4110   19.5570 C   0  0  0  0  0  3  0  0  0  0  0  0
  -28.8830  -13.2240   20.5820 C   0  0  0  0  0  2  0  0  0  0  0  0
  -30.1410  -13.6810   19.9590 N   0  0  0  0  0  0  0  0  0  0  0  0
  -31.9590  -14.8780   19.5380 O   0  0  0  0  0  0  0  0  0  0  0  0
  -25.4160  -13.9840   20.4430 C   0  0  0  0  0  0  0  0  0  0  0  0
  -24.3730  -13.2010   20.8600 C   0  0  0  0  0  0  0  0  0  0  0  0
  -24.8340  -11.8510   20.7770 C   0  0  0  0  0  0  0  0  0  0  0  0
  -26.4430  -13.1100   20.1260 N   0  0  0  0  0  0  0  0  0  0  0  0
  -26.1030  -11.8220   20.3890 N   0  0  0  0  0  0  0  0  0  0  0  0
  -24.1210  -10.5860   20.9880 C   0  0  0  0  0  0  0  0  0  0  0  0
  -24.5680   -9.6320   21.9310 C   0  0  0  0  0  3  0  0  0  0  0  0
  -23.8510   -8.4320   22.1270 C   0  0  0  0  0  3  0  0  0  0  0  0
  -22.6740   -8.1780   21.3820 C   0  0  0  0  0  0  0  0  0  0  0  0
  -22.2470   -9.1210   20.4300 C   0  0  0  0  0  3  0  0  0  0  0  0
  -22.9650  -10.3110   20.2300 C   0  0  0  0  0  3  0  0  0  0  0  0
  -21.9290   -7.0280   21.4870 O   0  0  0  0  0  0  0  0  0  0  0  0
  -21.8300   -6.3400   22.6690 C   0  0  0  0  0  0  0  0  0  0  0  0
  -21.3420   -6.9480   23.8470 C   0  0  0  0  0  3  0  0  0  0  0  0
  -21.1930   -6.1860   25.0230 C   0  0  0  0  0  3  0  0  0  0  0  0
  -21.5220   -4.8170   25.0200 C   0  0  0  0  0  0  0  0  0  0  0  0
  -22.0010   -4.2080   23.8470 C   0  0  0  0  0  3  0  0  0  0  0  0
  -22.1510   -4.9680   22.6740 C   0  0  0  0  0  0  0  0  0  0  0  0
  -22.5950   -4.3720   21.5410 F   0  0  0  0  0  0  0  0  0  0  0  0
  -21.3690   -4.0830   26.1460 F   0  0  0  0  0  0  0  0  0  0  0  0
  -22.9970  -13.6750   21.2230 C   0  0  0  0  0  0  0  0  0  0  0  0
  -22.3250  -12.9700   22.1240 N   0  0  0  0  0  0  0  0  0  0  0  0
  -22.5300  -14.7080   20.7440 O   0  0  0  0  0  0  0  0  0  0  0  0
  -22.7190  -12.1360   22.5360 H   0  0  0  0  0  0  0  0  0  0  0  0
  -21.4020  -13.2670   22.4040 H   0  0  0  0  0  0  0  0  0  0  0  0
  -25.5720  -15.3570   20.2820 N   0  0  0  0  0  0  0  0  0  0  0  0
  -24.8190  -16.0130   20.4580 H   0  0  0  0  0  0  0  0  0  0  0  0
  -26.4220  -15.8040   19.9610 H   0  0  0  0  0  0  0  0  0  0  0  0
  -28.4400  -25.2290   19.2720 C   0  0  0  0  0  2  0  0  0  0  0  0
  -28.3050  -26.4640   20.1220 O   0  0  0  0  0  0  0  0  0  0  0  0
  -24.5870  -31.8840   23.2200 C   0  0  0  0  0  0  0  0  0  0  0  0
  -27.1830  -27.3280   20.0750 C   0  0  0  0  0  0  0  0  0  0  0  0
  -23.3700  -30.4950   21.5840 C   0  0  0  0  0  3  0  0  0  0  0  0
  -24.8110  -28.9580   20.1290 C   0  0  0  0  0  0  0  0  0  0  0  0
  -25.9130  -30.8070   21.3840 C   0  0  0  0  0  2  0  0  0  0  0  0
  -25.9880  -29.4370   20.7160 C   0  0  0  0  0  0  0  0  0  0  0  0
  -27.1730  -28.6310   20.6820 C   0  0  0  0  0  3  0  0  0  0  0  0
  -25.9690  -26.9080   19.4850 C   0  0  0  0  0  3  0  0  0  0  0  0
  -24.8060  -27.7000   19.5110 C   0  0  0  0  0  3  0  0  0  0  0  0
  -23.5770  -29.8360   20.1950 C   0  0  0  0  0  2  0  0  0  0  0  0
  -24.6430  -31.0800   22.1170 N   0  0  0  0  0  0  0  0  0  0  0  0
  -23.5090  -32.1500   23.7710 O   0  0  0  0  0  0  0  0  0  0  0  0
  -22.7240  -29.4640   22.5440 C   0  0  0  0  0  0  0  0  0  0  0  0
  -21.4020  -29.2650   22.4220 N   0  0  0  0  0  0  0  0  0  0  0  0
  -23.4140  -28.8480   23.3630 O   0  0  0  0  0  0  0  0  0  0  0  0
  -20.8950  -29.8220   21.7470 H   0  0  0  0  0  0  0  0  0  0  0  0
  -18.0600  -27.9650   22.9060 C   0  0  0  0  0  0  0  0  0  0  0  0
  -20.6060  -28.3060   23.1930 C   0  0  0  0  0  3  0  0  0  0  0  0
  -20.7560  -26.8750   22.6330 C   0  0  0  0  0  2  0  0  0  0  0  0
  -19.6770  -26.5080   21.6090 C   0  0  0  0  0  2  0  0  0  0  0  0
  -18.2850  -26.6140   22.2420 C   0  0  0  0  0  2  0  0  0  0  0  0
  -19.1520  -28.7640   23.3380 C   0  0  0  0  0  0  0  0  0  0  0  0
  -18.8910  -30.0260   23.9170 C   0  0  0  0  0  3  0  0  0  0  0  0
  -17.5720  -30.4910   24.0650 C   0  0  0  0  0  3  0  0  0  0  0  0
  -16.4940  -29.6900   23.6470 C   0  0  0  0  0  3  0  0  0  0  0  0
  -16.7380  -28.4270   23.0780 C   0  0  0  0  0  3  0  0  0  0  0  0
  -25.8730  -32.5240   23.8280 C   0  0  0  0  0  3  0  0  0  0  0  0
  -26.4070  -31.7580   25.1030 C   0  0  1  0  0  0  0  0  0  0  0  0
  -25.3260  -31.5230   26.1820 C   0  0  0  0  0  1  0  0  0  0  0  0
  -26.9970  -30.3820   24.7160 C   0  0  0  0  0  1  0  0  0  0  0  0
  -27.5560  -32.5650   25.7530 C   0  0  0  0  0  1  0  0  0  0  0  0
  -25.5610  -33.9220   24.1600 N   0  0  0  0  0  0  0  0  0  0  0  0
  -25.8800  -34.9760   23.3980 C   0  0  0  0  0  0  0  0  0  0  0  0
  -26.5380  -34.8760   22.3570 O   0  0  0  0  0  0  0  0  0  0  0  0
  -24.9780  -34.0750   24.9710 H   0  0  0  0  0  0  0  0  0  0  0  0
  -24.1410  -36.7670   23.0670 C   0  0  0  0  0  1  0  0  0  0  0  0
  -25.3930  -36.3630   23.8620 C   0  0  0  0  0  3  0  0  0  0  0  0
  -27.5320  -37.2590   24.6710 C   0  0  0  0  0  1  0  0  0  0  0  0
  -26.4210  -37.4190   23.7370 N   0  0  0  0  0  0  0  0  0  0  0  0
  -26.0120  -38.3380   23.8860 H   0  0  0  0  0  0  0  0  0  0  0  0
  1  3  1  0
  2  1  2  0
  3  6  2  0
  4  2  1  0
  4  5  1  0
  5  3  1  0
  7  4  2  0
  8 10  2  0
  8  9  1  0
  9 12  2  0
 10 13  1  0
 12 11  1  0
 12 15  1  0
 13  5  1  0
 13 11  2  0
 15 14  2  0
 16 15  1  0
 17 22  1  0
 18 19  1  0
 18 17  1  0
 20 19  1  0
 20 27  1  0
 20 21  1  0
 22 16  1  0
 22 21  1  0
 23 16  2  0
 24 25  2  0
 25 44  1  0
 26 25  1  0
 26 29  1  0
 27 28  1  0
 27 24  1  0
 28 26  2  0
 29 30  1  0
 30 31  2  0
 32 35  1  0
 32 31  1  0
 33 32  2  0
 34 33  1  0
 34 29  2  0
 35 36  1  0
 36 41  2  0
 36 37  1  0
 37 38  2  0
 39 38  1  0
 39 43  1  0
 40 39  2  0
 41 40  1  0
 42 41  1  0
 44 45  1  0
 45 48  1  0
 45 47  1  0
 46 44  2  0
 49 24  1  0
 49 50  1  0
 51 49  1  0
 52  2  1  0
 52 53  1  0
 54 65  2  0
 55 53  1  0
 55 60  1  0
 56 64  1  0
 56 66  1  0
 57 63  1  0
 57 59  1  0
 58 64  1  0
 59 58  1  0
 60 59  2  0
 61 62  1  0
 61 55  2  0
 62 57  2  0
 63 56  1  0
 64 54  1  0
 66 68  2  0
 67 66  1  0
 69 67  1  0
 70 79  2  0
 70 75  1  0
 71 67  1  0
 71 75  1  0
 72 71  1  0
 73 74  1  0
 73 72  1  0
 74 70  1  0
 75 76  2  0
 76 77  1  0
 78 77  2  0
 79 78  1  0
 80 54  1  0
 80 85  1  0
 80 81  1  0
 81 84  1  1
 81 82  1  0
 83 81  1  0
 85 88  1  0
 86 90  1  0
 86 85  1  0
 87 86  2  0
 90 89  1  0
 92 90  1  0
 92 93  1  0
 92 91  1  0
M  ISO  4  15 100  16 100  52 101  53 101
M  END
>  <TORSDO>  (67) 
F 19

>  <SCORE>  (67) 
-13.460

>  <name>  (67) 
66

>  <ligand_id>  (67) 
66

>  <original_smiles>  (67) 
[H]C([H])=C(C(=O)N1C([H])([H])C([H])([H])C([H])([H])C([H])(n2nc(-c3c([H])c([H])c(Oc4c([H])c([H])c(F)c([H])c4F)c([H])c3[H])c(C(=O)N([H])[H])c2N([H])[H])C1([H])[H])c1c([H])c([H])c([H])c(N2C(=O)C([H])=C(C([H])([H])Oc3c([H])c([H])c4c(c3[H])C([H])([H])N(C(=O)C([H])(N([H])C(=O)C([H])(N([H])C([H])([H])[H])C([H])([H])[H])C(C([H])([H])[H])(C([H])([H])[H])C([H])([H])[H])C([H])(C(=O)N([H])C3([H])c5c([H])c([H])c([H])c([H])c5C([H])([H])C([H])([H])C3([H])[H])C4([H])[H])C2=O)c1[H]

>  <smiles>  (67) 
[H]C([H])=C(C(=O)N1C([H])([H])C([H])([H])C([H])([H])C([H])(n2nc(-c3c([H])c([H])c(Oc4c([H])c([H])c(F)c([H])c4F)c([H])c3[H])c(C(=O)N([H])[H])c2N([H])[H])C1([H])[H])c1c([H])c([H])c([H])c(N2C(=O)C([H])=C(C([H])([H])Oc3c([H])c([H])c4c(c3[H])C([H])([H])N(C(=O)C([H])(N([H])C(=O)C([H])(N([H])C([H])([H])[H])C([H])([H])[H])C(C([H])([H])[H])(C([H])([H])[H])C([H])([H])[H])C([H])(C(=O)N([H])C3([H])c5c([H])c([H])c([H])c([H])c5C([H])([H])C([H])([H])C3([H])[H])C4([H])[H])C2=O)c1[H]

$$$$
67:0:0
     RDKit          3D

 96105  0  0  1  0  0  0  0  0999 V2000
  -28.1540  -20.0400   19.2230 C   0  0  0  0  0  3  0  0  0  0  0  0
  -28.2670  -18.6690   19.3090 C   0  0  0  0  0  3  0  0  0  0  0  0
  -29.9580  -20.8640   20.4620 C   0  0  0  0  0  3  0  0  0  0  0  0
  -30.6180  -18.4760   20.2760 C   0  0  0  0  0  3  0  0  0  0  0  0
  -28.8230  -21.1100   19.7500 C   0  0  0  0  0  3  0  0  0  0  0  0
  -30.7360  -19.7650   20.7260 C   0  0  0  0  0  0  0  0  0  0  0  0
  -29.3990  -17.7810   19.7810 C   0  0  0  0  0  0  0  0  0  0  0  0
  -29.2380  -16.4670   19.7200 N   0  0  0  0  0  2  0  0  0  0  0  0
  -30.2470  -15.4410   19.7250 C   0  0  0  0  0  0  0  0  0  0  0  0
  -30.2220  -13.1100   18.8550 C   0  0  0  0  0  2  0  0  0  0  0  0
  -29.1810  -13.0620   17.7120 C   0  0  0  0  0  2  0  0  0  0  0  0
  -27.7700  -12.7740   18.2660 C   0  0  0  0  0  2  0  0  0  0  0  0
  -27.4110  -13.6710   19.4810 C   0  0  0  0  0  3  0  0  0  0  0  0
  -28.5600  -13.7200   20.5080 C   0  0  0  0  0  2  0  0  0  0  0  0
  -29.7840  -14.1480   19.8150 N   0  0  0  0  0  0  0  0  0  0  0  0
  -31.4220  -15.6270   19.4070 O   0  0  0  0  0  0  0  0  0  0  0  0
  -25.1200  -14.0920   20.5560 C   0  0  0  0  0  0  0  0  0  0  0  0
  -24.1280  -13.2440   20.9660 C   0  0  0  0  0  0  0  0  0  0  0  0
  -24.6160  -11.9210   20.7360 C   0  0  0  0  0  0  0  0  0  0  0  0
  -26.1460  -13.2810   20.0980 N   0  0  0  0  0  0  0  0  0  0  0  0
  -25.8590  -11.9650   20.2710 N   0  0  0  0  0  0  0  0  0  0  0  0
  -23.9520  -10.6190   20.8770 C   0  0  0  0  0  0  0  0  0  0  0  0
  -24.4920   -9.5970   21.6870 C   0  0  0  0  0  3  0  0  0  0  0  0
  -23.8230   -8.3610   21.8200 C   0  0  0  0  0  3  0  0  0  0  0  0
  -22.6000   -8.1380   21.1420 C   0  0  0  0  0  0  0  0  0  0  0  0
  -22.0800   -9.1510   20.3170 C   0  0  0  0  0  3  0  0  0  0  0  0
  -22.7500  -10.3790   20.1810 C   0  0  0  0  0  3  0  0  0  0  0  0
  -21.8950   -6.9590   21.1900 O   0  0  0  0  0  0  0  0  0  0  0  0
  -21.9320   -6.1430   22.2920 C   0  0  0  0  0  0  0  0  0  0  0  0
  -21.5130   -6.5890   23.5650 C   0  0  0  0  0  3  0  0  0  0  0  0
  -21.5030   -5.6970   24.6560 C   0  0  0  0  0  3  0  0  0  0  0  0
  -21.9020   -4.3590   24.4740 C   0  0  0  0  0  0  0  0  0  0  0  0
  -22.3150   -3.9110   23.2070 C   0  0  0  0  0  3  0  0  0  0  0  0
  -22.3260   -4.8000   22.1190 C   0  0  0  0  0  0  0  0  0  0  0  0
  -22.7060   -4.3590   20.8950 F   0  0  0  0  0  0  0  0  0  0  0  0
  -21.8840   -3.4990   25.5200 F   0  0  0  0  0  0  0  0  0  0  0  0
  -22.7620  -13.6350   21.4500 C   0  0  0  0  0  0  0  0  0  0  0  0
  -22.1710  -12.8360   22.3320 N   0  0  0  0  0  0  0  0  0  0  0  0
  -22.2290  -14.6840   21.0870 O   0  0  0  0  0  0  0  0  0  0  0  0
  -22.6160  -11.9850   22.6470 H   0  0  0  0  0  0  0  0  0  0  0  0
  -21.2610  -13.0790   22.7010 H   0  0  0  0  0  0  0  0  0  0  0  0
  -25.2270  -15.4790   20.5080 N   0  0  0  0  0  0  0  0  0  0  0  0
  -24.4740  -16.0980   20.7870 H   0  0  0  0  0  0  0  0  0  0  0  0
  -26.0410  -15.9690   20.1590 H   0  0  0  0  0  0  0  0  0  0  0  0
  -27.8130  -24.5200   19.6400 C   0  0  0  0  0  0  0  0  0  0  0  0
  -27.5460  -23.3680   18.7770 C   0  0  0  0  0  0  0  0  0  0  0  0
  -27.4990  -25.8800   19.6950 C   0  0  0  0  0  3  0  0  0  0  0  0
  -28.6650  -23.6000   20.5310 C   0  0  0  0  0  2  0  0  0  0  0  0
  -28.3670  -22.5010   19.5760 N   0  0  0  0  0  0  0  0  0  0  0  0
  -26.8650  -23.2600   17.7820 O   0  0  0  0  0  0  0  0  0  0  0  0
  -26.9030  -26.7680   18.7660 O   0  0  0  0  0  0  0  0  0  0  0  0
  -24.3680  -32.0220   23.1670 C   0  0  0  0  0  0  0  0  0  0  0  0
  -25.9290  -27.7050   19.1620 C   0  0  0  0  0  0  0  0  0  0  0  0
  -22.7600  -30.9510   21.6310 C   0  0  0  0  0  3  0  0  0  0  0  0
  -23.7750  -29.4960   19.7860 C   0  0  0  0  0  0  0  0  0  0  0  0
  -25.2450  -31.0930   21.0090 C   0  0  0  0  0  2  0  0  0  0  0  0
  -25.0760  -29.8040   20.2070 C   0  0  0  0  0  0  0  0  0  0  0  0
  -26.1570  -28.9200   19.8900 C   0  0  0  0  0  3  0  0  0  0  0  0
  -24.6100  -27.4570   18.7330 C   0  0  0  0  0  3  0  0  0  0  0  0
  -23.5430  -28.3280   19.0390 C   0  0  0  0  0  3  0  0  0  0  0  0
  -22.6590  -30.4510   20.1660 C   0  0  0  0  0  2  0  0  0  0  0  0
  -24.1540  -31.3650   21.9890 N   0  0  0  0  0  0  0  0  0  0  0  0
  -23.4310  -32.3050   23.9280 O   0  0  0  0  0  0  0  0  0  0  0  0
  -22.1830  -29.8660   22.5710 C   0  0  0  0  0  0  0  0  0  0  0  0
  -20.8570  -29.6510   22.5070 N   0  0  0  0  0  0  0  0  0  0  0  0
  -22.9250  -29.2270   23.3210 O   0  0  0  0  0  0  0  0  0  0  0  0
  -20.3160  -30.2200   21.8720 H   0  0  0  0  0  0  0  0  0  0  0  0
  -17.5900  -28.1630   22.9660 C   0  0  0  0  0  0  0  0  0  0  0  0
  -20.1120  -28.6480   23.2710 C   0  0  0  0  0  3  0  0  0  0  0  0
  -20.3480  -27.2280   22.7030 C   0  0  0  0  0  2  0  0  0  0  0  0
  -19.2930  -26.8060   21.6760 C   0  0  0  0  0  2  0  0  0  0  0  0
  -17.8940  -26.8320   22.3000 C   0  0  0  0  0  2  0  0  0  0  0  0
  -18.6310  -29.0230   23.4080 C   0  0  0  0  0  0  0  0  0  0  0  0
  -18.2940  -30.2630   23.9920 C   0  0  0  0  0  3  0  0  0  0  0  0
  -16.9480  -30.6480   24.1380 C   0  0  0  0  0  3  0  0  0  0  0  0
  -15.9210  -29.7860   23.7130 C   0  0  0  0  0  3  0  0  0  0  0  0
  -16.2420  -28.5460   23.1330 C   0  0  0  0  0  3  0  0  0  0  0  0
  -25.7980  -32.4680   23.6060 C   0  0  0  0  0  3  0  0  0  0  0  0
  -25.6980  -33.8440   24.1160 N   0  0  0  0  0  0  0  0  0  0  0  0
  -26.0670  -34.9370   23.4360 C   0  0  0  0  0  0  0  0  0  0  0  0
  -26.5960  -34.8840   22.3220 O   0  0  0  0  0  0  0  0  0  0  0  0
  -25.2210  -33.9650   24.9970 H   0  0  0  0  0  0  0  0  0  0  0  0
  -24.5510  -36.9450   23.4770 C   0  0  0  0  0  1  0  0  0  0  0  0
  -25.8060  -36.3050   24.0940 C   0  0  0  0  0  3  0  0  0  0  0  0
  -28.1050  -36.8340   24.7740 C   0  0  0  0  0  1  0  0  0  0  0  0
  -26.9470  -37.2400   23.9830 N   0  0  0  0  0  0  0  0  0  0  0  0
  -26.6750  -38.1740   24.2760 H   0  0  0  0  0  0  0  0  0  0  0  0
  -26.4380  -31.5200   24.6930 C   0  0  1  0  0  0  0  0  0  0  0  0
  -25.5210  -31.2670   25.9140 C   0  0  0  0  0  1  0  0  0  0  0  0
  -26.7950  -30.1440   24.0800 C   0  0  0  0  0  1  0  0  0  0  0  0
  -27.7610  -32.1320   25.2080 C   0  0  0  0  0  1  0  0  0  0  0  0
  -32.2250  -19.5110   22.7450 C   0  0  0  0  0  0  0  0  0  0  0  0
  -33.4120  -20.1780   23.4330 C   0  0  0  0  0  1  0  0  0  0  0  0
  -31.8100  -20.0830   21.5930 N   0  0  0  0  0  0  0  0  0  0  0  0
  -31.7100  -18.5230   23.2770 O   0  0  0  0  0  0  0  0  0  0  0  0
  -32.3330  -20.9080   21.3350 H   0  0  0  0  0  0  0  0  0  0  0  0
  1  2  2  0
  2  7  1  0
  3  6  2  0
  4  6  1  0
  5  1  1  0
  5  3  1  0
  6 94  1  0
  7  4  2  0
  8  9  1  0
  8  7  1  0
  9 15  1  0
 10 15  1  0
 11 12  1  0
 11 10  1  0
 13 12  1  0
 13 20  1  0
 13 14  1  0
 15 14  1  0
 16  9  2  0
 17 18  2  0
 18 37  1  0
 19 22  1  0
 19 18  1  0
 20 21  1  0
 20 17  1  0
 21 19  2  0
 22 23  1  0
 23 24  2  0
 25 28  1  0
 25 24  1  0
 26 25  2  0
 27 26  1  0
 27 22  2  0
 28 29  1  0
 29 30  1  0
 30 31  2  0
 32 31  1  0
 32 36  1  0
 33 32  2  0
 34 29  2  0
 34 33  1  0
 35 34  1  0
 37 38  1  0
 38 40  1  0
 38 41  1  0
 39 37  2  0
 42 17  1  0
 42 43  1  0
 44 42  1  0
 45 47  2  0
 45 48  1  0
 46 49  1  0
 46 45  1  0
 49  5  1  0
 49 48  1  0
 50 46  2  0
 51 53  1  0
 51 47  1  0
 52 63  2  0
 53 58  1  0
 54 62  1  0
 54 64  1  0
 55 61  1  0
 55 57  1  0
 56 62  1  0
 57 56  1  0
 58 57  2  0
 59 60  1  0
 59 53  2  0
 60 55  2  0
 61 54  1  0
 62 52  1  0
 64 66  2  0
 65 64  1  0
 67 65  1  0
 68 77  2  0
 68 73  1  0
 69 65  1  0
 69 73  1  0
 70 69  1  0
 71 72  1  0
 71 70  1  0
 72 68  1  0
 73 74  2  0
 74 75  1  0
 76 75  2  0
 77 76  1  0
 78 52  1  0
 78 79  1  0
 78 88  1  0
 79 82  1  0
 80 84  1  0
 80 79  1  0
 81 80  2  0
 84 83  1  0
 86 84  1  0
 86 87  1  0
 86 85  1  0
 88 91  1  1
 88 89  1  0
 90 88  1  0
 92 95  2  0
 92 93  1  0
 94 92  1  0
 96 94  1  0
M  ISO  4   8 100   9 100  47 101  51 101
M  END
>  <TORSDO>  (68) 
F 18

>  <SCORE>  (68) 
-11.699

>  <name>  (68) 
67

>  <ligand_id>  (68) 
67

>  <original_smiles>  (68) 
[H]C(Oc1c([H])c([H])c2c(c1[H])C([H])([H])N(C(=O)C([H])(N([H])C(=O)C([H])(N([H])C([H])([H])[H])C([H])([H])[H])C(C([H])([H])[H])(C([H])([H])[H])C([H])([H])[H])C([H])(C(=O)N([H])C1([H])c3c([H])c([H])c([H])c([H])c3C([H])([H])C([H])([H])C1([H])[H])C2([H])[H])=C1C(=O)N(c2c([H])c(N([H])C(=O)C([H])([H])[H])c([H])c(=NC(=O)N3C([H])([H])C([H])([H])C([H])([H])C([H])(n4nc(-c5c([H])c([H])c(Oc6c([H])c([H])c(F)c([H])c6F)c([H])c5[H])c(C(=O)N([H])[H])c4N([H])[H])C3([H])[H])c([H])c2[H])C1([H])[H]

>  <smiles>  (68) 
[H]C(Oc1c([H])c([H])c2c(c1[H])C([H])([H])N(C(=O)C([H])(N([H])C(=O)C([H])(N([H])C([H])([H])[H])C([H])([H])[H])C(C([H])([H])[H])(C([H])([H])[H])C([H])([H])[H])C([H])(C(=O)N([H])C1([H])c3c([H])c([H])c([H])c([H])c3C([H])([H])C([H])([H])C1([H])[H])C2([H])[H])=C1C(=O)N(c2c([H])c(N([H])C(=O)C([H])([H])[H])c([H])c(=NC(=O)N3C([H])([H])C([H])([H])C([H])([H])C([H])(n4nc(-c5c([H])c([H])c(Oc6c([H])c([H])c(F)c([H])c6F)c([H])c5[H])c(C(=O)N([H])[H])c4N([H])[H])C3([H])[H])c([H])c2[H])C1([H])[H]

$$$$
68:0:0
     RDKit          3D

 89 94  0  0  1  0  0  0  0  0999 V2000
  -30.4480  -18.6340   21.5390 C   0  0  0  0  0  0  0  0  0  0  0  0
  -30.3440  -21.2610   21.3740 C   0  0  0  0  0  0  0  0  0  0  0  0
  -29.8260  -19.8510   19.4130 C   0  0  0  0  0  2  0  0  0  0  0  0
  -29.9660  -18.0420   20.1540 C   0  0  0  0  0  2  0  0  0  0  0  0
  -29.3970  -21.6160   20.1680 C   0  0  0  0  0  3  0  0  0  0  0  0
  -30.6070  -19.9840   21.8750 N   0  0  0  0  0  0  0  0  0  0  0  0
  -30.7280  -17.8220   22.4230 O   0  0  0  0  0  0  0  0  0  0  0  0
  -30.8560  -22.2150   21.9620 O   0  0  0  0  0  0  0  0  0  0  0  0
  -31.0810  -20.0580   22.7610 H   0  0  0  0  0  0  0  0  0  0  0  0
  -30.6670  -16.1750   19.9360 C   0  0  0  0  0  2  0  0  0  0  0  0
  -30.8490  -13.4890   19.3270 C   0  0  0  0  0  2  0  0  0  0  0  0
  -29.9980  -12.9070   18.1490 C   0  0  0  0  0  2  0  0  0  0  0  0
  -28.5890  -12.5230   18.6140 C   0  0  0  0  0  2  0  0  0  0  0  0
  -28.0350  -13.5960   19.5730 C   0  0  0  0  0  3  0  0  0  0  0  0
  -29.0360  -14.0780   20.6600 C   0  0  0  0  0  2  0  0  0  0  0  0
  -30.1950  -14.7420   19.9910 N   0  0  0  0  0  0  0  0  0  0  0  0
  -31.8860  -16.0090   19.6810 O   0  0  0  0  0  1  0  0  0  0  0  0
  -25.7110  -14.1660   20.3950 C   0  0  0  0  0  0  0  0  0  0  0  0
  -24.6310  -13.4130   20.7520 C   0  0  0  0  0  0  0  0  0  0  0  0
  -25.0500  -12.0490   20.6700 C   0  0  0  0  0  0  0  0  0  0  0  0
  -26.7210  -13.2690   20.1060 N   0  0  0  0  0  0  0  0  0  0  0  0
  -26.3380  -11.9830   20.3360 N   0  0  0  0  0  0  0  0  0  0  0  0
  -24.2750  -10.8100   20.8310 C   0  0  0  0  0  0  0  0  0  0  0  0
  -24.6530   -9.8120   21.7570 C   0  0  0  0  0  3  0  0  0  0  0  0
  -23.8740   -8.6440   21.9110 C   0  0  0  0  0  3  0  0  0  0  0  0
  -22.7010   -8.4650   21.1400 C   0  0  0  0  0  0  0  0  0  0  0  0
  -22.3390   -9.4520   20.2050 C   0  0  0  0  0  3  0  0  0  0  0  0
  -23.1190  -10.6100   20.0490 C   0  0  0  0  0  3  0  0  0  0  0  0
  -21.8980   -7.3510   21.2030 O   0  0  0  0  0  0  0  0  0  0  0  0
  -21.7740   -6.6170   22.3560 C   0  0  0  0  0  0  0  0  0  0  0  0
  -21.3210   -7.1940   23.5620 C   0  0  0  0  0  3  0  0  0  0  0  0
  -21.1420   -6.3890   24.7040 C   0  0  0  0  0  3  0  0  0  0  0  0
  -21.4050   -5.0070   24.6410 C   0  0  0  0  0  0  0  0  0  0  0  0
  -21.8510   -4.4290   23.4390 C   0  0  0  0  0  3  0  0  0  0  0  0
  -22.0320   -5.2320   22.2990 C   0  0  0  0  0  0  0  0  0  0  0  0
  -22.4400   -4.6660   21.1380 F   0  0  0  0  0  0  0  0  0  0  0  0
  -21.2260   -4.2310   25.7350 F   0  0  0  0  0  0  0  0  0  0  0  0
  -23.2560  -13.9350   21.0500 C   0  0  0  0  0  0  0  0  0  0  0  0
  -22.5140  -13.2490   21.9120 N   0  0  0  0  0  0  0  0  0  0  0  0
  -22.8530  -14.9870   20.5560 O   0  0  0  0  0  0  0  0  0  0  0  0
  -22.8550  -12.3980   22.3330 H   0  0  0  0  0  0  0  0  0  0  0  0
  -21.5920  -13.5810   22.1540 H   0  0  0  0  0  0  0  0  0  0  0  0
  -25.9190  -15.5360   20.2580 N   0  0  0  0  0  0  0  0  0  0  0  0
  -25.1750  -16.2100   20.4010 H   0  0  0  0  0  0  0  0  0  0  0  0
  -26.7760  -15.9560   19.9230 H   0  0  0  0  0  0  0  0  0  0  0  0
  -27.0470  -20.5430   20.3260 C   0  0  0  0  0  2  0  0  0  0  0  0
  -27.9610  -21.4700   20.6670 C   0  0  0  0  0  3  0  0  0  0  0  0
  -29.2860  -23.6490   19.6720 C   0  0  0  0  0 15  0  0  0  0  0  0
  -29.0410  -25.4540   20.1500 O   0  0  0  0  0  1  0  0  0  0  0  0
  -25.0620  -31.6460   23.1800 C   0  0  0  0  0  0  0  0  0  0  0  0
  -28.0310  -26.7160   20.0560 C   0  0  0  0  0  0  0  0  0  0  0  0
  -24.0470  -30.2700   21.4150 C   0  0  0  0  0  3  0  0  0  0  0  0
  -25.6600  -28.7510   19.9940 C   0  0  0  0  0  0  0  0  0  0  0  0
  -26.6250  -30.5060   21.4520 C   0  0  0  0  0  2  0  0  0  0  0  0
  -26.8040  -29.0970   20.7220 C   0  0  0  0  0  0  0  0  0  0  0  0
  -27.9570  -28.1110   20.7200 C   0  0  0  0  0  3  0  0  0  0  0  0
  -26.8420  -26.6420   19.2690 C   0  0  0  0  0  3  0  0  0  0  0  0
  -25.7310  -27.5590   19.2480 C   0  0  0  0  0  3  0  0  0  0  0  0
  -24.4030  -29.6510   20.0290 C   0  0  0  0  0  2  0  0  0  0  0  0
  -25.2660  -30.8450   22.0700 N   0  0  0  0  0  0  0  0  0  0  0  0
  -23.9270  -31.8620   23.6410 O   0  0  0  0  0  0  0  0  0  0  0  0
  -23.3260  -29.2180   22.3040 C   0  0  0  0  0  0  0  0  0  0  0  0
  -22.0040  -29.0230   22.1270 N   0  0  0  0  0  0  0  0  0  0  0  0
  -23.9740  -28.5730   23.1310 O   0  0  0  0  0  0  0  0  0  0  0  0
  -21.5250  -29.5970   21.4460 H   0  0  0  0  0  0  0  0  0  0  0  0
  -18.6400  -27.6900   22.5230 C   0  0  0  0  0  0  0  0  0  0  0  0
  -21.1950  -28.0040   22.8110 C   0  0  0  0  0  3  0  0  0  0  0  0
  -21.3310  -26.6300   22.1140 C   0  0  0  0  0  2  0  0  0  0  0  0
  -20.2390  -26.3720   21.0710 C   0  0  0  0  0  2  0  0  0  0  0  0
  -18.8540  -26.4180   21.7210 C   0  0  0  0  0  2  0  0  0  0  0  0
  -19.7390  -28.4440   23.0200 C   0  0  0  0  0  0  0  0  0  0  0  0
  -19.4810  -29.6320   23.7370 C   0  0  0  0  0  3  0  0  0  0  0  0
  -18.1610  -30.0710   23.9570 C   0  0  0  0  0  3  0  0  0  0  0  0
  -17.0790  -29.3160   23.4710 C   0  0  0  0  0  3  0  0  0  0  0  0
  -17.3200  -28.1260   22.7600 C   0  0  0  0  0  3  0  0  0  0  0  0
  -26.2430  -32.3420   23.9240 C   0  0  0  0  0  3  0  0  0  0  0  0
  -25.8100  -33.6990   24.3240 N   0  0  0  0  0  0  0  0  0  0  0  0
  -26.0910  -34.8310   23.6630 C   0  0  0  0  0  0  0  0  0  0  0  0
  -26.7930  -34.8470   22.6500 O   0  0  0  0  0  0  0  0  0  0  0  0
  -25.1820  -33.7530   25.1130 H   0  0  0  0  0  0  0  0  0  0  0  0
  -24.2400  -36.5270   23.4210 C   0  0  0  0  0  1  0  0  0  0  0  0
  -25.5070  -36.1530   24.2080 C   0  0  0  0  0  3  0  0  0  0  0  0
  -27.5660  -37.1470   25.1100 C   0  0  0  0  0  1  0  0  0  0  0  0
  -26.4610  -37.2850   24.1670 N   0  0  0  0  0  0  0  0  0  0  0  0
  -25.9860  -38.1640   24.3600 H   0  0  0  0  0  0  0  0  0  0  0  0
  -26.7210  -31.5450   25.2030 C   0  0  1  0  0  0  0  0  0  0  0  0
  -25.5790  -31.2060   26.1910 C   0  0  0  0  0  1  0  0  0  0  0  0
  -27.4020  -30.2160   24.8100 C   0  0  0  0  0  1  0  0  0  0  0  0
  -27.7840  -32.3700   25.9670 C   0  0  0  0  0  1  0  0  0  0  0  0
  1  6  1  0
  1  7  2  0
  2  6  1  0
  2  8  2  0
  3  4  1  0
  3  5  1  0
  4  1  1  0
  5 47  1  0
  5  2  1  0
  6  9  1  0
 10 16  1  0
 11 16  1  0
 12 13  1  0
 12 11  1  0
 14 13  1  0
 14 21  1  0
 14 15  1  0
 16 15  1  0
 17 10  1  0
 18 19  2  0
 19 38  1  0
 20 19  1  0
 20 23  1  0
 21 22  1  0
 21 18  1  0
 22 20  2  0
 23 24  1  0
 24 25  2  0
 26 29  1  0
 26 25  1  0
 27 26  2  0
 28 27  1  0
 28 23  2  0
 29 30  1  0
 30 31  1  0
 31 32  2  0
 33 32  1  0
 33 37  1  0
 34 33  2  0
 35 30  2  0
 35 34  1  0
 36 35  1  0
 38 39  1  0
 39 42  1  0
 39 41  1  0
 40 38  2  0
 43 18  1  0
 43 44  1  0
 45 43  1  0
 46 47  2  0
 50 61  2  0
 51 49  1  0
 51 56  1  0
 52 60  1  0
 52 62  1  0
 53 59  1  0
 53 55  1  0
 54 60  1  0
 55 54  1  0
 56 55  2  0
 57 51  2  0
 58 57  1  0
 58 53  2  0
 59 52  1  0
 60 50  1  0
 62 64  2  0
 63 62  1  0
 65 63  1  0
 66 75  2  0
 66 71  1  0
 67 63  1  0
 67 71  1  0
 68 67  1  0
 69 70  1  0
 69 68  1  0
 70 66  1  0
 71 72  2  0
 72 73  1  0
 74 73  2  0
 75 74  1  0
 76 50  1  0
 76 77  1  0
 76 86  1  0
 77 80  1  0
 78 82  1  0
 78 77  1  0
 79 78  2  0
 82 81  1  0
 84 82  1  0
 84 85  1  0
 84 83  1  0
 86 89  1  1
 86 87  1  0
 88 86  1  0
M  ISO  4   4 100  10 100  48 101  49 101
M  END
>  <TORSDO>  (69) 
F 18

>  <SCORE>  (69) 
-14.050

>  <name>  (69) 
68

>  <ligand_id>  (69) 
68

>  <original_smiles>  (69) 
[H]C([H])=C([H])C1(C([H])([H])Oc2c([H])c([H])c3c(c2[H])C([H])([H])N(C(=O)C([H])(N([H])C(=O)C([H])(N([H])C([H])([H])[H])C([H])([H])[H])C(C([H])([H])[H])(C([H])([H])[H])C([H])([H])[H])C([H])(C(=O)N([H])C2([H])c4c([H])c([H])c([H])c([H])c4C([H])([H])C([H])([H])C2([H])[H])C3([H])[H])C(=O)N([H])C(=O)C([H])(C(=O)N2C([H])([H])C([H])([H])C([H])([H])C([H])(n3nc(-c4c([H])c([H])c(Oc5c([H])c([H])c(F)c([H])c5F)c([H])c4[H])c(C(=O)N([H])[H])c3N([H])[H])C2([H])[H])C1([H])[H]

>  <smiles>  (69) 
[H]C([H])=C([H])C1(C([H])([H])Oc2c([H])c([H])c3c(c2[H])C([H])([H])N(C(=O)C([H])(N([H])C(=O)C([H])(N([H])C([H])([H])[H])C([H])([H])[H])C(C([H])([H])[H])(C([H])([H])[H])C([H])([H])[H])C([H])(C(=O)N([H])C2([H])c4c([H])c([H])c([H])c([H])c4C([H])([H])C([H])([H])C2([H])[H])C3([H])[H])C(=O)N([H])C(=O)C([H])(C(=O)N2C([H])([H])C([H])([H])C([H])([H])C([H])(n3nc(-c4c([H])c([H])c(Oc5c([H])c([H])c(F)c([H])c5F)c([H])c4[H])c(C(=O)N([H])[H])c3N([H])[H])C2([H])[H])C1([H])[H]

$$$$
69:0:0
     RDKit          3D

 92100  0  0  1  0  0  0  0  0999 V2000
  -30.2640  -21.7520   20.5350 C   0  0  0  0  0  0  0  0  0  0  0  0
  -31.4100  -22.0900   20.8490 O   0  0  0  0  0  0  0  0  0  0  0  0
  -28.8800  -19.5100   20.7200 C   0  0  0  0  0  3  0  0  0  0  0  0
  -31.1790  -19.3770   20.0610 C   0  0  0  0  0  3  0  0  0  0  0  0
  -28.8270  -18.0770   20.7370 C   0  0  0  0  0  3  0  0  0  0  0  0
  -31.1280  -17.9490   20.0760 C   0  0  0  0  0  3  0  0  0  0  0  0
  -30.0700  -20.2150   20.3910 C   0  0  0  0  0  0  0  0  0  0  0  0
  -29.9480  -17.2450   20.4310 C   0  0  0  0  0  0  0  0  0  0  0  0
  -30.5940  -14.7220   20.0870 C   0  0  0  0  0  0  0  0  0  0  0  0
  -30.3250  -12.5090   18.9750 C   0  0  0  0  0  2  0  0  0  0  0  0
  -29.3180  -12.6670   17.8140 C   0  0  0  0  0  2  0  0  0  0  0  0
  -27.8700  -12.4950   18.3150 C   0  0  0  0  0  2  0  0  0  0  0  0
  -27.5790  -13.3230   19.5950 C   0  0  0  0  0  3  0  0  0  0  0  0
  -28.6950  -13.1400   20.6480 C   0  0  0  0  0  2  0  0  0  0  0  0
  -29.9710  -13.5010   20.0120 N   0  0  0  0  0  0  0  0  0  0  0  0
  -31.7410  -14.8710   19.6530 O   0  0  0  0  0  0  0  0  0  0  0  0
  -29.8130  -15.7780   20.5030 N   0  0  0  0  0  0  0  0  0  0  0  0
  -28.9200  -15.4650   20.8510 H   0  0  0  0  0  0  0  0  0  0  0  0
  -25.2240  -13.9070   20.4370 C   0  0  0  0  0  0  0  0  0  0  0  0
  -24.1770  -13.1280   20.8460 C   0  0  0  0  0  0  0  0  0  0  0  0
  -24.6380  -11.7770   20.7740 C   0  0  0  0  0  0  0  0  0  0  0  0
  -26.2560  -13.0320   20.1400 N   0  0  0  0  0  0  0  0  0  0  0  0
  -25.9120  -11.7450   20.4030 N   0  0  0  0  0  0  0  0  0  0  0  0
  -23.9220  -10.5110   20.9800 C   0  0  0  0  0  0  0  0  0  0  0  0
  -24.3800   -9.5450   21.9020 C   0  0  0  0  0  3  0  0  0  0  0  0
  -23.6630   -8.3440   22.0950 C   0  0  0  0  0  3  0  0  0  0  0  0
  -22.4750   -8.1010   21.3660 C   0  0  0  0  0  0  0  0  0  0  0  0
  -22.0360   -9.0550   20.4330 C   0  0  0  0  0  3  0  0  0  0  0  0
  -22.7530  -10.2480   20.2380 C   0  0  0  0  0  3  0  0  0  0  0  0
  -21.7290   -6.9520   21.4700 O   0  0  0  0  0  0  0  0  0  0  0  0
  -21.6870   -6.2230   22.6320 C   0  0  0  0  0  0  0  0  0  0  0  0
  -21.2400   -6.7830   23.8480 C   0  0  0  0  0  3  0  0  0  0  0  0
  -21.1490   -5.9790   25.0010 C   0  0  0  0  0  3  0  0  0  0  0  0
  -21.4930   -4.6160   24.9400 C   0  0  0  0  0  0  0  0  0  0  0  0
  -21.9340   -4.0550   23.7280 C   0  0  0  0  0  3  0  0  0  0  0  0
  -22.0270   -4.8560   22.5770 C   0  0  0  0  0  0  0  0  0  0  0  0
  -22.4320   -4.3060   21.4070 F   0  0  0  0  0  0  0  0  0  0  0  0
  -21.3980   -3.8410   26.0460 F   0  0  0  0  0  0  0  0  0  0  0  0
  -22.7930  -13.5990   21.1910 C   0  0  0  0  0  0  0  0  0  0  0  0
  -22.1060  -12.8870   22.0780 N   0  0  0  0  0  0  0  0  0  0  0  0
  -22.3320  -14.6320   20.7090 O   0  0  0  0  0  0  0  0  0  0  0  0
  -22.4940  -12.0520   22.4910 H   0  0  0  0  0  0  0  0  0  0  0  0
  -21.1800  -13.1850   22.3510 H   0  0  0  0  0  0  0  0  0  0  0  0
  -25.3770  -15.2810   20.2690 N   0  0  0  0  0  0  0  0  0  0  0  0
  -24.6100  -15.9270   20.4120 H   0  0  0  0  0  0  0  0  0  0  0  0
  -26.1910  -15.7210   19.8590 H   0  0  0  0  0  0  0  0  0  0  0  0
  -29.2360  -22.6360   20.2430 N   0  0  0  0  0  2  0  0  0  0  0  0
  -29.2220  -24.0040   20.5480 C   0  0  0  0  0  0  0  0  0  0  0  0
  -29.7700  -24.4640   21.5610 O   0  0  0  0  0  0  0  0  0  0  0  0
  -28.4700  -25.1400   19.6600 C   0  0  0  0  0  0  0  0  0  0  0  0
  -28.0310  -24.8470   18.5410 O   0  0  0  0  0  0  0  0  0  0  0  0
  -28.3750  -26.4710   20.2470 O   0  0  0  0  0  0  0  0  0  0  0  0
  -24.6200  -31.8830   23.2170 C   0  0  0  0  0  0  0  0  0  0  0  0
  -27.2630  -27.3360   20.1330 C   0  0  0  0  0  0  0  0  0  0  0  0
  -23.4290  -30.4920   21.5640 C   0  0  0  0  0  3  0  0  0  0  0  0
  -24.8900  -28.9610   20.1310 C   0  0  0  0  0  0  0  0  0  0  0  0
  -25.9710  -30.8140   21.3970 C   0  0  0  0  0  2  0  0  0  0  0  0
  -26.0580  -29.4410   20.7350 C   0  0  0  0  0  0  0  0  0  0  0  0
  -27.2430  -28.6410   20.7290 C   0  0  0  0  0  3  0  0  0  0  0  0
  -26.0570  -26.9150   19.5180 C   0  0  0  0  0  3  0  0  0  0  0  0
  -24.8930  -27.7030   19.5150 C   0  0  0  0  0  3  0  0  0  0  0  0
  -23.6510  -29.8310   20.1800 C   0  0  0  0  0  2  0  0  0  0  0  0
  -24.6930  -31.0800   22.1160 N   0  0  0  0  0  0  0  0  0  0  0  0
  -23.5330  -32.1550   23.7470 O   0  0  0  0  0  0  0  0  0  0  0  0
  -22.7640  -29.4670   22.5130 C   0  0  0  0  0  0  0  0  0  0  0  0
  -21.4360  -29.2980   22.3890 N   0  0  0  0  0  0  0  0  0  0  0  0
  -23.4410  -28.8270   23.3220 O   0  0  0  0  0  0  0  0  0  0  0  0
  -20.9490  -29.8660   21.7100 H   0  0  0  0  0  0  0  0  0  0  0  0
  -18.0500  -28.1310   22.9000 C   0  0  0  0  0  0  0  0  0  0  0  0
  -20.6130  -28.3570   23.1520 C   0  0  0  0  0  3  0  0  0  0  0  0
  -20.6940  -26.9350   22.5530 C   0  0  0  0  0  2  0  0  0  0  0  0
  -19.5790  -26.6390   21.5440 C   0  0  0  0  0  2  0  0  0  0  0  0
  -18.2040  -26.7910   22.2030 C   0  0  0  0  0  2  0  0  0  0  0  0
  -19.1800  -28.8740   23.3320 C   0  0  0  0  0  0  0  0  0  0  0  0
  -18.9820  -30.1290   23.9460 C   0  0  0  0  0  3  0  0  0  0  0  0
  -17.6840  -30.6420   24.1320 C   0  0  0  0  0  3  0  0  0  0  0  0
  -16.5680  -29.8960   23.7170 C   0  0  0  0  0  3  0  0  0  0  0  0
  -16.7510  -28.6430   23.1070 C   0  0  0  0  0  3  0  0  0  0  0  0
  -25.8970  -32.5160   23.8500 C   0  0  0  0  0  3  0  0  0  0  0  0
  -26.4010  -31.7460   25.1320 C   0  0  1  0  0  0  0  0  0  0  0  0
  -25.2980  -31.5070   26.1890 C   0  0  0  0  0  1  0  0  0  0  0  0
  -26.9900  -30.3680   24.7480 C   0  0  0  0  0  1  0  0  0  0  0  0
  -27.5440  -32.5410   25.8050 C   0  0  0  0  0  1  0  0  0  0  0  0
  -25.5830  -33.9140   24.1770 N   0  0  0  0  0  0  0  0  0  0  0  0
  -25.9170  -34.9680   23.4190 C   0  0  0  0  0  0  0  0  0  0  0  0
  -26.5910  -34.8640   22.3910 O   0  0  0  0  0  0  0  0  0  0  0  0
  -24.9860  -34.0690   24.9760 H   0  0  0  0  0  0  0  0  0  0  0  0
  -24.1920  -36.7610   23.0560 C   0  0  0  0  0  1  0  0  0  0  0  0
  -25.4280  -36.3560   23.8750 C   0  0  0  0  0  3  0  0  0  0  0  0
  -27.5550  -37.2440   24.7230 C   0  0  0  0  0  1  0  0  0  0  0  0
  -26.4610  -37.4080   23.7670 N   0  0  0  0  0  0  0  0  0  0  0  0
  -26.0540  -38.3290   23.9070 H   0  0  0  0  0  0  0  0  0  0  0  0
  1  2  2  0
  3  5  1  0
  4  6  2  0
  4  7  1  0
  6  8  1  0
  7  1  1  0
  7  3  2  0
  8 17  1  0
  8  5  2  0
  9 17  1  0
 10 15  1  0
 11 12  1  0
 11 10  1  0
 13 12  1  0
 13 22  1  0
 13 14  1  0
 15  9  1  0
 15 14  1  0
 16  9  2  0
 17 18  1  0
 19 20  2  0
 20 39  1  0
 21 20  1  0
 21 24  1  0
 22 23  1  0
 22 19  1  0
 23 21  2  0
 24 25  1  0
 25 26  2  0
 27 30  1  0
 27 26  1  0
 28 27  2  0
 29 28  1  0
 29 24  2  0
 30 31  1  0
 31 32  1  0
 32 33  2  0
 34 33  1  0
 34 38  1  0
 35 34  2  0
 36 31  2  0
 36 35  1  0
 37 36  1  0
 39 40  1  0
 40 43  1  0
 40 42  1  0
 41 39  2  0
 44 45  1  0
 44 19  1  0
 46 44  1  0
 47  1  1  0
 47 48  1  0
 48 49  2  0
 50 52  1  0
 50 48  1  0
 51 50  2  0
 53 64  2  0
 54 52  1  0
 54 59  1  0
 55 63  1  0
 55 65  1  0
 56 62  1  0
 56 58  1  0
 57 63  1  0
 58 57  1  0
 59 58  2  0
 60 54  2  0
 61 60  1  0
 61 56  2  0
 62 55  1  0
 63 53  1  0
 65 67  2  0
 66 65  1  0
 68 66  1  0
 69 78  2  0
 69 74  1  0
 70 66  1  0
 70 74  1  0
 71 70  1  0
 72 73  1  0
 72 71  1  0
 73 69  1  0
 74 75  2  0
 75 76  1  0
 77 76  2  0
 78 77  1  0
 79 53  1  0
 79 84  1  0
 79 80  1  0
 80 83  1  1
 80 81  1  0
 82 80  1  0
 84 87  1  0
 85 89  1  0
 85 84  1  0
 86 85  2  0
 89 88  1  0
 91 89  1  0
 91 92  1  0
 91 90  1  0
M  ISO  4   9 100  17 100  50 101  52 101
M  END
>  <TORSDO>  (70) 
F 20

>  <SCORE>  (70) 
-13.886

>  <name>  (70) 
69

>  <ligand_id>  (70) 
69

>  <original_smiles>  (70) 
[H]c1c([H])c([H])c2c(c1[H])C([H])([H])C([H])([H])C([H])([H])C2([H])N([H])C(=O)C1([H])N(C(=O)C([H])(N([H])C(=O)C([H])(N([H])C([H])([H])[H])C([H])([H])[H])C(C([H])([H])[H])(C([H])([H])[H])C([H])([H])[H])C([H])([H])c2c([H])c(OC(=O)C(=O)[N-]C(=O)c3c([H])c([H])c(N([H])C(=O)N4C([H])([H])C([H])([H])C([H])([H])C([H])(n5nc(-c6c([H])c([H])c(Oc7c([H])c([H])c(F)c([H])c7F)c([H])c6[H])c(C(=O)N([H])[H])c5N([H])[H])C4([H])[H])c([H])c3[H])c([H])c([H])c2C1([H])[H]

>  <smiles>  (70) 
[H]c1c([H])c([H])c2c(c1[H])C([H])([H])C([H])([H])C([H])([H])C2([H])N([H])C(=O)C1([H])N(C(=O)C([H])(N([H])C(=O)C([H])(N([H])C([H])([H])[H])C([H])([H])[H])C(C([H])([H])[H])(C([H])([H])[H])C([H])([H])[H])C([H])([H])c2c([H])c(OC(=O)C(=O)[N-]C(=O)c3c([H])c([H])c(N([H])C(=O)N4C([H])([H])C([H])([H])C([H])([H])C([H])(n5nc(-c6c([H])c([H])c(Oc7c([H])c([H])c(F)c([H])c7F)c([H])c6[H])c(C(=O)N([H])[H])c5N([H])[H])C4([H])[H])c([H])c3[H])c([H])c([H])c2C1([H])[H]

$$$$
70:0:0
     RDKit          3D

 92100  0  0  1  0  0  0  0  0999 V2000
  -29.5800  -21.7500   20.7030 C   0  0  0  0  0  2  0  0  0  0  0  0
  -28.7750  -22.8790   20.6990 C   0  0  0  0  0  3  0  0  0  0  0  0
  -28.8700  -19.4430   19.7890 C   0  0  0  0  0  3  0  0  0  0  0  0
  -30.7880  -19.5350   21.2440 C   0  0  0  0  0  3  0  0  0  0  0  0
  -28.9620  -18.0260   19.7670 C   0  0  0  0  0  3  0  0  0  0  0  0
  -30.8770  -18.1080   21.2220 C   0  0  0  0  0  3  0  0  0  0  0  0
  -29.7690  -20.2460   20.5490 C   0  0  0  0  0  0  0  0  0  0  0  0
  -29.9480  -17.3160   20.4990 C   0  0  0  0  0  0  0  0  0  0  0  0
  -30.6620  -14.8430   20.2150 C   0  0  0  0  0  0  0  0  0  0  0  0
  -30.4240  -12.6470   19.0620 C   0  0  0  0  0  2  0  0  0  0  0  0
  -29.4150  -12.7630   17.8960 C   0  0  0  0  0  2  0  0  0  0  0  0
  -27.9640  -12.6000   18.3870 C   0  0  0  0  0  2  0  0  0  0  0  0
  -27.6550  -13.4550   19.6420 C   0  0  0  0  0  3  0  0  0  0  0  0
  -28.7580  -13.2560   20.7100 C   0  0  0  0  0  2  0  0  0  0  0  0
  -30.0410  -13.6280   20.0940 N   0  0  0  0  0  0  0  0  0  0  0  0
  -31.8280  -15.0180   19.8410 O   0  0  0  0  0  0  0  0  0  0  0  0
  -29.8340  -15.8670   20.5930 N   0  0  0  0  0  0  0  0  0  0  0  0
  -28.8990  -15.5400   20.7630 H   0  0  0  0  0  0  0  0  0  0  0  0
  -25.2890  -14.0640   20.4370 C   0  0  0  0  0  0  0  0  0  0  0  0
  -24.2270  -13.2920   20.8250 C   0  0  0  0  0  0  0  0  0  0  0  0
  -24.6800  -11.9380   20.7700 C   0  0  0  0  0  0  0  0  0  0  0  0
  -26.3200  -13.1790   20.1660 N   0  0  0  0  0  0  0  0  0  0  0  0
  -25.9630  -11.8980   20.4330 N   0  0  0  0  0  0  0  0  0  0  0  0
  -23.9530  -10.6790   20.9650 C   0  0  0  0  0  0  0  0  0  0  0  0
  -24.3880   -9.7190   21.9040 C   0  0  0  0  0  3  0  0  0  0  0  0
  -23.6650   -8.5210   22.0910 C   0  0  0  0  0  3  0  0  0  0  0  0
  -22.4930   -8.2760   21.3390 C   0  0  0  0  0  0  0  0  0  0  0  0
  -22.0750   -9.2270   20.3910 C   0  0  0  0  0  3  0  0  0  0  0  0
  -22.7980  -10.4160   20.2030 C   0  0  0  0  0  3  0  0  0  0  0  0
  -21.7400   -7.1330   21.4360 O   0  0  0  0  0  0  0  0  0  0  0  0
  -21.6810   -6.4040   22.5980 C   0  0  0  0  0  0  0  0  0  0  0  0
  -21.2000   -6.9610   23.8020 C   0  0  0  0  0  3  0  0  0  0  0  0
  -21.0910   -6.1570   24.9530 C   0  0  0  0  0  3  0  0  0  0  0  0
  -21.4550   -4.7980   24.9000 C   0  0  0  0  0  0  0  0  0  0  0  0
  -21.9290   -4.2420   23.6990 C   0  0  0  0  0  3  0  0  0  0  0  0
  -22.0370   -5.0420   22.5490 C   0  0  0  0  0  0  0  0  0  0  0  0
  -22.4750   -4.4950   21.3890 F   0  0  0  0  0  0  0  0  0  0  0  0
  -21.3420   -4.0240   26.0040 F   0  0  0  0  0  0  0  0  0  0  0  0
  -22.8400  -13.7700   21.1360 C   0  0  0  0  0  0  0  0  0  0  0  0
  -22.1340  -13.0710   22.0160 N   0  0  0  0  0  0  0  0  0  0  0  0
  -22.3910  -14.8020   20.6350 O   0  0  0  0  0  0  0  0  0  0  0  0
  -22.5060  -12.2330   22.4380 H   0  0  0  0  0  0  0  0  0  0  0  0
  -21.2050  -13.3770   22.2720 H   0  0  0  0  0  0  0  0  0  0  0  0
  -25.4480  -15.4360   20.2620 N   0  0  0  0  0  0  0  0  0  0  0  0
  -24.6810  -16.0860   20.4050 H   0  0  0  0  0  0  0  0  0  0  0  0
  -26.2670  -15.8700   19.8560 H   0  0  0  0  0  0  0  0  0  0  0  0
  -26.4400  -22.1980   20.1090 C   0  0  0  0  0  2  0  0  0  0  0  0
  -27.3150  -22.8690   20.8650 C   0  0  0  0  0  3  0  0  0  0  0  0
  -29.3480  -24.2800   20.5470 C   0  0  0  0  0  0  0  0  0  0  0  0
  -30.4530  -24.5820   21.0060 O   0  0  0  0  0  0  0  0  0  0  0  0
  -28.5190  -25.3790   19.7800 C   0  0  0  0  0  2  0  0  0  0  0  0
  -28.6190  -26.7650   20.2630 O   0  0  0  0  0  0  0  0  0  0  0  0
  -24.6320  -31.9220   23.2630 C   0  0  0  0  0  0  0  0  0  0  0  0
  -27.4640  -27.5550   20.1770 C   0  0  0  0  0  0  0  0  0  0  0  0
  -23.5070  -30.5310   21.5580 C   0  0  0  0  0  3  0  0  0  0  0  0
  -25.0440  -29.0640   20.1380 C   0  0  0  0  0  0  0  0  0  0  0  0
  -26.0390  -30.9310   21.4570 C   0  0  0  0  0  2  0  0  0  0  0  0
  -26.1740  -29.5740   20.7900 C   0  0  0  0  0  0  0  0  0  0  0  0
  -27.3820  -28.8200   20.8230 C   0  0  0  0  0  3  0  0  0  0  0  0
  -26.3250  -27.1130   19.4580 C   0  0  0  0  0  3  0  0  0  0  0  0
  -25.1170  -27.8310   19.4700 C   0  0  0  0  0  3  0  0  0  0  0  0
  -23.7770  -29.8940   20.1710 C   0  0  0  0  0  2  0  0  0  0  0  0
  -24.7430  -31.1400   22.1520 N   0  0  0  0  0  0  0  0  0  0  0  0
  -23.5280  -32.1630   23.7710 O   0  0  0  0  0  0  0  0  0  0  0  0
  -22.8510  -29.4700   22.4740 C   0  0  0  0  0  0  0  0  0  0  0  0
  -21.5320  -29.2730   22.3090 N   0  0  0  0  0  0  0  0  0  0  0  0
  -23.5270  -28.8320   23.2860 O   0  0  0  0  0  0  0  0  0  0  0  0
  -21.0450  -29.8140   21.6050 H   0  0  0  0  0  0  0  0  0  0  0  0
  -18.1490  -28.1310   22.8010 C   0  0  0  0  0  0  0  0  0  0  0  0
  -20.7160  -28.3090   23.0440 C   0  0  0  0  0  3  0  0  0  0  0  0
  -20.7680  -26.9160   22.3760 C   0  0  0  0  0  2  0  0  0  0  0  0
  -19.6400  -26.6830   21.3680 C   0  0  0  0  0  2  0  0  0  0  0  0
  -18.2740  -26.8250   22.0410 C   0  0  0  0  0  2  0  0  0  0  0  0
  -19.2930  -28.8370   23.2580 C   0  0  0  0  0  0  0  0  0  0  0  0
  -19.1220  -30.0680   23.9300 C   0  0  0  0  0  3  0  0  0  0  0  0
  -17.8350  -30.6000   24.1440 C   0  0  0  0  0  3  0  0  0  0  0  0
  -16.7060  -29.8850   23.7040 C   0  0  0  0  0  3  0  0  0  0  0  0
  -16.8590  -28.6540   23.0410 C   0  0  0  0  0  3  0  0  0  0  0  0
  -25.8840  -32.5680   23.9350 C   0  0  0  0  0  3  0  0  0  0  0  0
  -26.3490  -31.8130   25.2430 C   0  0  1  0  0  0  0  0  0  0  0  0
  -25.2060  -31.5730   26.2570 C   0  0  0  0  0  1  0  0  0  0  0  0
  -26.9650  -30.4370   24.8920 C   0  0  0  0  0  1  0  0  0  0  0  0
  -27.4590  -32.6240   25.9510 C   0  0  0  0  0  1  0  0  0  0  0  0
  -25.5530  -33.9690   24.2350 N   0  0  0  0  0  0  0  0  0  0  0  0
  -25.9060  -35.0120   23.4700 C   0  0  0  0  0  0  0  0  0  0  0  0
  -26.6100  -34.8930   22.4630 O   0  0  0  0  0  0  0  0  0  0  0  0
  -24.9320  -34.1350   25.0150 H   0  0  0  0  0  0  0  0  0  0  0  0
  -24.1740  -36.7800   23.0350 C   0  0  0  0  0  1  0  0  0  0  0  0
  -25.3940  -36.4040   23.8880 C   0  0  0  0  0  3  0  0  0  0  0  0
  -27.4920  -37.3260   24.7720 C   0  0  0  0  0  1  0  0  0  0  0  0
  -26.4240  -37.4610   23.7830 N   0  0  0  0  0  0  0  0  0  0  0  0
  -26.0070  -38.3820   23.8900 H   0  0  0  0  0  0  0  0  0  0  0  0
  2  1  1  0
  2 48  1  0
  3  7  1  0
  5  3  2  0
  5  8  1  0
  6  4  1  0
  7  1  1  0
  7  4  2  0
  8 17  1  0
  8  6  2  0
  9 17  1  0
 10 15  1  0
 11 12  1  0
 11 10  1  0
 13 12  1  0
 13 22  1  0
 13 14  1  0
 15  9  1  0
 15 14  1  0
 16  9  2  0
 17 18  1  0
 19 20  2  0
 20 39  1  0
 21 20  1  0
 21 24  1  0
 22 23  1  0
 22 19  1  0
 23 21  2  0
 24 25  1  0
 25 26  2  0
 27 30  1  0
 27 26  1  0
 28 27  2  0
 29 28  1  0
 29 24  2  0
 30 31  1  0
 31 32  1  0
 32 33  2  0
 34 33  1  0
 34 38  1  0
 35 34  2  0
 36 31  2  0
 36 35  1  0
 37 36  1  0
 39 40  1  0
 40 43  1  0
 40 42  1  0
 41 39  2  0
 44 45  1  0
 44 19  1  0
 46 44  1  0
 47 48  2  0
 49  2  1  0
 49 50  2  0
 51 52  1  0
 51 49  1  0
 53 64  2  0
 54 52  1  0
 54 59  1  0
 55 63  1  0
 55 65  1  0
 56 62  1  0
 56 58  1  0
 57 63  1  0
 58 59  2  0
 58 57  1  0
 60 61  1  0
 60 54  2  0
 61 56  2  0
 62 55  1  0
 63 53  1  0
 65 67  2  0
 66 65  1  0
 68 66  1  0
 69 78  2  0
 69 74  1  0
 70 66  1  0
 70 74  1  0
 71 70  1  0
 72 73  1  0
 72 71  1  0
 73 69  1  0
 74 75  2  0
 75 76  1  0
 77 76  2  0
 78 77  1  0
 79 53  1  0
 79 84  1  0
 79 80  1  0
 80 83  1  1
 80 81  1  0
 82 80  1  0
 84 87  1  0
 85 89  1  0
 85 84  1  0
 86 85  2  0
 89 88  1  0
 91 89  1  0
 91 92  1  0
 91 90  1  0
M  ISO  4   9 100  17 100  51 101  52 101
M  END
>  <TORSDO>  (71) 
F 20

>  <SCORE>  (71) 
-13.858

>  <name>  (71) 
70

>  <ligand_id>  (71) 
70

>  <original_smiles>  (71) 
[H]C([H])=C([H])C(C(=O)C([H])([H])Oc1c([H])c([H])c2c(c1[H])C([H])([H])N(C(=O)C([H])(N([H])C(=O)C([H])(N([H])C([H])([H])[H])C([H])([H])[H])C(C([H])([H])[H])(C([H])([H])[H])C([H])([H])[H])C([H])(C(=O)N([H])C1([H])c3c([H])c([H])c([H])c([H])c3C([H])([H])C([H])([H])C1([H])[H])C2([H])[H])=C([H])c1c([H])c([H])c(N([H])C(=O)N2C([H])([H])C([H])([H])C([H])([H])C([H])(n3nc(-c4c([H])c([H])c(Oc5c([H])c([H])c(F)c([H])c5F)c([H])c4[H])c(C(=O)N([H])[H])c3N([H])[H])C2([H])[H])c([H])c1[H]

>  <smiles>  (71) 
[H]C([H])=C([H])C(C(=O)C([H])([H])Oc1c([H])c([H])c2c(c1[H])C([H])([H])N(C(=O)C([H])(N([H])C(=O)C([H])(N([H])C([H])([H])[H])C([H])([H])[H])C(C([H])([H])[H])(C([H])([H])[H])C([H])([H])[H])C([H])(C(=O)N([H])C1([H])c3c([H])c([H])c([H])c([H])c3C([H])([H])C([H])([H])C1([H])[H])C2([H])[H])=C([H])c1c([H])c([H])c(N([H])C(=O)N2C([H])([H])C([H])([H])C([H])([H])C([H])(n3nc(-c4c([H])c([H])c(Oc5c([H])c([H])c(F)c([H])c5F)c([H])c4[H])c(C(=O)N([H])[H])c3N([H])[H])C2([H])[H])c([H])c1[H]

$$$$
71:0:0
     RDKit          3D

 94102  0  0  1  0  0  0  0  0999 V2000
  -29.3540  -21.2300   20.8620 C   0  0  0  0  0  0  0  0  0  0  0  0
  -29.1670  -22.4100   20.1490 N   0  0  0  0  0  0  0  0  0  0  0  0
  -29.3060  -21.2160   22.0930 O   0  0  0  0  0  0  0  0  0  0  0  0
  -29.0470  -22.2480   19.1600 H   0  0  0  0  0  0  0  0  0  0  0  0
  -30.6850  -18.7520   18.1970 C   0  0  0  0  0  3  0  0  0  0  0  0
  -30.2550  -19.9250   18.8500 C   0  0  0  0  0  3  0  0  0  0  0  0
  -30.5750  -17.4840   18.8030 C   0  0  0  0  0  3  0  0  0  0  0  0
  -29.5680  -18.5510   20.7400 C   0  0  0  0  0  3  0  0  0  0  0  0
  -29.6810  -19.8820   20.1400 C   0  0  0  0  0  0  0  0  0  0  0  0
  -30.0200  -17.3210   20.0930 C   0  0  0  0  0  0  0  0  0  0  0  0
  -30.6140  -14.7890   20.3450 C   0  0  0  0  0  0  0  0  0  0  0  0
  -30.4120  -12.5030   19.3630 C   0  0  0  0  0  2  0  0  0  0  0  0
  -29.4860  -12.5780   18.1290 C   0  0  0  0  0  2  0  0  0  0  0  0
  -28.0130  -12.4070   18.5470 C   0  0  0  0  0  2  0  0  0  0  0  0
  -27.6310  -13.2930   19.7620 C   0  0  0  0  0  3  0  0  0  0  0  0
  -28.6830  -13.2140   20.8920 C   0  0  0  0  0  2  0  0  0  0  0  0
  -29.9850  -13.5620   20.3110 N   0  0  0  0  0  0  0  0  0  0  0  0
  -31.7930  -14.8710   19.9870 O   0  0  0  0  0  0  0  0  0  0  0  0
  -29.8760  -15.9350   20.6310 N   0  0  0  0  0  0  0  0  0  0  0  0
  -29.0170  -15.7590   21.1300 H   0  0  0  0  0  0  0  0  0  0  0  0
  -25.2340  -13.8730   20.4690 C   0  0  0  0  0  0  0  0  0  0  0  0
  -24.1710  -13.0960   20.8370 C   0  0  0  0  0  0  0  0  0  0  0  0
  -24.6420  -11.7470   20.8200 C   0  0  0  0  0  0  0  0  0  0  0  0
  -26.2850  -12.9990   20.2460 N   0  0  0  0  0  0  0  0  0  0  0  0
  -25.9350  -11.7150   20.5210 N   0  0  0  0  0  0  0  0  0  0  0  0
  -23.9210  -10.4820   21.0140 C   0  0  0  0  0  0  0  0  0  0  0  0
  -24.3540   -9.5220   21.9540 C   0  0  0  0  0  3  0  0  0  0  0  0
  -23.6320   -8.3220   22.1360 C   0  0  0  0  0  3  0  0  0  0  0  0
  -22.4630   -8.0740   21.3790 C   0  0  0  0  0  0  0  0  0  0  0  0
  -22.0490   -9.0240   20.4270 C   0  0  0  0  0  3  0  0  0  0  0  0
  -22.7720  -10.2150   20.2440 C   0  0  0  0  0  3  0  0  0  0  0  0
  -21.7120   -6.9270   21.4700 O   0  0  0  0  0  0  0  0  0  0  0  0
  -21.6630   -6.1890   22.6260 C   0  0  0  0  0  0  0  0  0  0  0  0
  -21.2290   -6.7460   23.8480 C   0  0  0  0  0  3  0  0  0  0  0  0
  -21.1280   -5.9330   24.9950 C   0  0  0  0  0  3  0  0  0  0  0  0
  -21.4500   -4.5650   24.9220 C   0  0  0  0  0  0  0  0  0  0  0  0
  -21.8780   -4.0080   23.7040 C   0  0  0  0  0  3  0  0  0  0  0  0
  -21.9800   -4.8170   22.5580 C   0  0  0  0  0  0  0  0  0  0  0  0
  -22.3720   -4.2700   21.3830 F   0  0  0  0  0  0  0  0  0  0  0  0
  -21.3470   -3.7820   26.0210 F   0  0  0  0  0  0  0  0  0  0  0  0
  -22.7690  -13.5670   21.0950 C   0  0  0  0  0  0  0  0  0  0  0  0
  -22.0370  -12.8720   21.9590 N   0  0  0  0  0  0  0  0  0  0  0  0
  -22.3300  -14.5880   20.5650 O   0  0  0  0  0  0  0  0  0  0  0  0
  -22.4040  -12.0480   22.4110 H   0  0  0  0  0  0  0  0  0  0  0  0
  -21.0960  -13.1700   22.1730 H   0  0  0  0  0  0  0  0  0  0  0  0
  -25.3920  -15.2440   20.2820 N   0  0  0  0  0  0  0  0  0  0  0  0
  -24.6220  -15.8950   20.3840 H   0  0  0  0  0  0  0  0  0  0  0  0
  -26.2390  -15.6830   19.9430 H   0  0  0  0  0  0  0  0  0  0  0  0
  -30.4340  -24.4110   19.4820 C   0  0  0  0  0  1  0  0  0  0  0  0
  -29.9020  -24.1240   21.9040 C   0  0  0  0  0  1  0  0  0  0  0  0
  -29.3610  -23.9130   20.4720 C   0  0  2  0  0  0  0  0  0  0  0  0
  -28.0780  -24.8640   20.3110 C   0  0  0  0  0  0  0  0  0  0  0  0
  -26.9780  -24.3070   20.3200 O   0  0  0  0  0  0  0  0  0  0  0  0
  -28.2600  -26.3480   20.2400 O   0  0  0  0  0  0  0  0  0  0  0  0
  -24.5920  -31.8860   23.2300 C   0  0  0  0  0  0  0  0  0  0  0  0
  -27.1820  -27.2730   20.1630 C   0  0  0  0  0  0  0  0  0  0  0  0
  -23.3880  -30.4940   21.5890 C   0  0  0  0  0  3  0  0  0  0  0  0
  -24.8350  -28.9450   20.1530 C   0  0  0  0  0  0  0  0  0  0  0  0
  -25.9340  -30.7870   21.4160 C   0  0  0  0  0  2  0  0  0  0  0  0
  -26.0080  -29.4060   20.7650 C   0  0  0  0  0  0  0  0  0  0  0  0
  -27.1800  -28.5780   20.7730 C   0  0  0  0  0  3  0  0  0  0  0  0
  -25.9930  -26.9090   19.4900 C   0  0  0  0  0  3  0  0  0  0  0  0
  -24.8330  -27.7040   19.5040 C   0  0  0  0  0  3  0  0  0  0  0  0
  -23.6020  -29.8270   20.2070 C   0  0  0  0  0  2  0  0  0  0  0  0
  -24.6570  -31.0750   22.1330 N   0  0  0  0  0  0  0  0  0  0  0  0
  -23.5090  -32.1670   23.7630 O   0  0  0  0  0  0  0  0  0  0  0  0
  -22.7210  -29.4760   22.5470 C   0  0  0  0  0  0  0  0  0  0  0  0
  -21.3930  -29.3040   22.4230 N   0  0  0  0  0  0  0  0  0  0  0  0
  -23.3970  -28.8460   23.3620 O   0  0  0  0  0  0  0  0  0  0  0  0
  -20.9040  -29.8620   21.7380 H   0  0  0  0  0  0  0  0  0  0  0  0
  -18.0120  -28.1170   22.9350 C   0  0  0  0  0  0  0  0  0  0  0  0
  -20.5730  -28.3670   23.1940 C   0  0  0  0  0  3  0  0  0  0  0  0
  -20.6660  -26.9370   22.6140 C   0  0  0  0  0  2  0  0  0  0  0  0
  -19.5590  -26.6220   21.6030 C   0  0  0  0  0  2  0  0  0  0  0  0
  -18.1800  -26.7710   22.2540 C   0  0  0  0  0  2  0  0  0  0  0  0
  -19.1360  -28.8740   23.3630 C   0  0  0  0  0  0  0  0  0  0  0  0
  -18.9250  -30.1350   23.9610 C   0  0  0  0  0  3  0  0  0  0  0  0
  -17.6230  -30.6410   24.1360 C   0  0  0  0  0  3  0  0  0  0  0  0
  -16.5130  -29.8810   23.7240 C   0  0  0  0  0  3  0  0  0  0  0  0
  -16.7090  -28.6220   23.1290 C   0  0  0  0  0  3  0  0  0  0  0  0
  -25.8760  -32.5180   23.8510 C   0  0  0  0  0  3  0  0  0  0  0  0
  -26.3890  -31.7470   25.1300 C   0  0  1  0  0  0  0  0  0  0  0  0
  -25.2940  -31.5130   26.1970 C   0  0  0  0  0  1  0  0  0  0  0  0
  -26.9700  -30.3670   24.7430 C   0  0  0  0  0  1  0  0  0  0  0  0
  -27.5400  -32.5400   25.7910 C   0  0  0  0  0  1  0  0  0  0  0  0
  -25.5680  -33.9170   24.1820 N   0  0  0  0  0  0  0  0  0  0  0  0
  -25.9000  -34.9710   23.4250 C   0  0  0  0  0  0  0  0  0  0  0  0
  -26.5670  -34.8680   22.3930 O   0  0  0  0  0  0  0  0  0  0  0  0
  -24.9740  -34.0710   24.9840 H   0  0  0  0  0  0  0  0  0  0  0  0
  -24.1760  -36.7700   23.0750 C   0  0  0  0  0  1  0  0  0  0  0  0
  -25.4160  -36.3600   23.8850 C   0  0  0  0  0  3  0  0  0  0  0  0
  -27.5520  -37.2380   24.7210 C   0  0  0  0  0  1  0  0  0  0  0  0
  -26.4510  -37.4110   23.7770 N   0  0  0  0  0  0  0  0  0  0  0  0
  -26.0480  -38.3310   23.9250 H   0  0  0  0  0  0  0  0  0  0  0  0
  1  3  2  0
  2 51  1  0
  2  1  1  0
  4  2  1  0
  5  7  2  0
  5  6  1  0
  6  9  2  0
  7 10  1  0
  9  8  1  0
  9  1  1  0
 10 19  1  0
 10  8  2  0
 11 19  1  0
 12 17  1  0
 13 14  1  0
 13 12  1  0
 15 14  1  0
 15 24  1  0
 15 16  1  0
 17 11  1  0
 17 16  1  0
 18 11  2  0
 19 20  1  0
 21 22  2  0
 22 41  1  0
 23 22  1  0
 23 26  1  0
 24 21  1  0
 24 25  1  0
 25 23  2  0
 26 27  1  0
 27 28  2  0
 29 32  1  0
 29 28  1  0
 30 29  2  0
 31 30  1  0
 31 26  2  0
 32 33  1  0
 33 34  1  0
 34 35  2  0
 36 35  1  0
 36 40  1  0
 37 36  2  0
 38 33  2  0
 38 37  1  0
 39 38  1  0
 41 42  1  0
 42 45  1  0
 42 44  1  0
 43 41  2  0
 46 47  1  0
 46 21  1  0
 48 46  1  0
 51 49  1  6
 51 50  1  0
 52 53  2  0
 52 51  1  0
 54 52  1  0
 55 66  2  0
 56 54  1  0
 56 61  1  0
 57 65  1  0
 57 67  1  0
 58 64  1  0
 58 60  1  0
 59 65  1  0
 60 61  2  0
 60 59  1  0
 62 63  1  0
 62 56  2  0
 63 58  2  0
 64 57  1  0
 65 55  1  0
 67 69  2  0
 68 67  1  0
 70 68  1  0
 71 80  2  0
 71 76  1  0
 72 68  1  0
 72 76  1  0
 73 72  1  0
 74 75  1  0
 74 73  1  0
 75 71  1  0
 76 77  2  0
 77 78  1  0
 79 78  2  0
 80 79  1  0
 81 55  1  0
 81 86  1  0
 81 82  1  0
 82 85  1  1
 82 83  1  0
 84 82  1  0
 86 89  1  0
 87 91  1  0
 87 86  1  0
 88 87  2  0
 91 90  1  0
 93 91  1  0
 93 94  1  0
 93 92  1  0
M  ISO  4  11 100  19 100  52 101  54 101
M  END
>  <TORSDO>  (72) 
F 19

>  <SCORE>  (72) 
-14.490

>  <name>  (72) 
71

>  <ligand_id>  (72) 
71

>  <original_smiles>  (72) 
[H]c1c([H])c(C(=O)N([H])C(C(=O)Oc2c([H])c([H])c3c(c2[H])C([H])([H])N(C(=O)C([H])(N([H])C(=O)C([H])(N([H])C([H])([H])[H])C([H])([H])[H])C(C([H])([H])[H])(C([H])([H])[H])C([H])([H])[H])C([H])(C(=O)N([H])C2([H])c4c([H])c([H])c([H])c([H])c4C([H])([H])C([H])([H])C2([H])[H])C3([H])[H])(C([H])([H])[H])C([H])([H])[H])c([H])c(N([H])C(=O)N2C([H])([H])C([H])([H])C([H])([H])C([H])(n3nc(-c4c([H])c([H])c(Oc5c([H])c([H])c(F)c([H])c5F)c([H])c4[H])c(C(=O)N([H])[H])c3N([H])[H])C2([H])[H])c1[H]

>  <smiles>  (72) 
[H]c1c([H])c(C(=O)N([H])C(C(=O)Oc2c([H])c([H])c3c(c2[H])C([H])([H])N(C(=O)C([H])(N([H])C(=O)C([H])(N([H])C([H])([H])[H])C([H])([H])[H])C(C([H])([H])[H])(C([H])([H])[H])C([H])([H])[H])C([H])(C(=O)N([H])C2([H])c4c([H])c([H])c([H])c([H])c4C([H])([H])C([H])([H])C2([H])[H])C3([H])[H])(C([H])([H])[H])C([H])([H])[H])c([H])c(N([H])C(=O)N2C([H])([H])C([H])([H])C([H])([H])C([H])(n3nc(-c4c([H])c([H])c(Oc5c([H])c([H])c(F)c([H])c5F)c([H])c4[H])c(C(=O)N([H])[H])c3N([H])[H])C2([H])[H])c1[H]

$$$$
72:0:0
     RDKit          3D

 94103  0  0  1  0  0  0  0  0999 V2000
  -28.2020  -23.6180   21.5130 C   0  0  0  0  0  0  0  0  0  0  0  0
  -28.4800  -24.1060   20.1500 C   0  0  0  0  0  0  0  0  0  0  0  0
  -27.5850  -22.3080   21.6550 C   0  0  0  0  0  0  0  0  0  0  0  0
  -29.1600  -22.9510   19.3280 C   0  0  0  0  0  0  0  0  0  0  0  0
  -28.6620  -24.2930   22.5920 C   0  0  0  0  0  2  0  0  0  0  0  0
  -27.0640  -21.8550   22.8120 C   0  0  0  0  0  2  0  0  0  0  0  0
  -28.1640  -25.5110   20.0220 C   0  0  0  0  0  3  0  0  0  0  0  0
  -27.6370  -21.4060   20.4450 C   0  0  0  0  0  2  0  0  0  0  0  0
  -28.9000  -21.5780   19.7130 N   0  0  0  0  0  0  0  0  0  0  0  0
  -29.9200  -23.1840   18.3840 O   0  0  0  0  0  0  0  0  0  0  0  0
  -29.3370  -17.6840   18.8740 C   0  0  0  0  0  3  0  0  0  0  0  0
  -28.8600  -19.0650   18.9030 C   0  0  0  0  0  3  0  0  0  0  0  0
  -31.2970  -18.3740   19.9550 C   0  0  0  0  0  3  0  0  0  0  0  0
  -30.5830  -17.2310   19.4310 C   0  0  0  0  0  0  0  0  0  0  0  0
  -29.5660  -20.2000   19.4560 C   0  0  0  0  0  0  0  0  0  0  0  0
  -30.8290  -19.7600   19.9840 C   0  0  0  0  0  0  0  0  0  0  0  0
  -31.6150  -20.6820   20.5900 F   0  0  0  0  0  0  0  0  0  0  0  0
  -31.2590  -15.7690   19.2440 C   0  0  0  0  0  0  0  0  0  0  0  0
  -31.0880  -13.3600   18.4640 C   0  0  0  0  0  2  0  0  0  0  0  0
  -29.9860  -13.1820   17.3950 C   0  0  0  0  0  2  0  0  0  0  0  0
  -28.6340  -12.8930   18.0700 C   0  0  0  0  0  2  0  0  0  0  0  0
  -28.3440  -13.8660   19.2410 C   0  0  0  0  0  3  0  0  0  0  0  0
  -29.5550  -14.0600   20.1760 C   0  0  0  0  0  2  0  0  0  0  0  0
  -30.6880  -14.4960   19.3520 N   0  0  0  0  0  0  0  0  0  0  0  0
  -32.4180  -15.7850   18.8170 O   0  0  0  0  0  0  0  0  0  0  0  0
  -26.2300  -14.3450   20.5930 C   0  0  0  0  0  0  0  0  0  0  0  0
  -25.2200  -13.5410   21.0400 C   0  0  0  0  0  0  0  0  0  0  0  0
  -25.5810  -12.2080   20.6710 C   0  0  0  0  0  0  0  0  0  0  0  0
  -27.1370  -13.5040   19.9720 N   0  0  0  0  0  0  0  0  0  0  0  0
  -26.7710  -12.2000   20.0830 N   0  0  0  0  0  0  0  0  0  0  0  0
  -24.8310  -10.9510   20.7900 C   0  0  0  0  0  0  0  0  0  0  0  0
  -25.2020   -9.9540   21.7180 C   0  0  0  0  0  3  0  0  0  0  0  0
  -24.4530   -8.7620   21.8280 C   0  0  0  0  0  3  0  0  0  0  0  0
  -23.3170   -8.5610   21.0080 C   0  0  0  0  0  0  0  0  0  0  0  0
  -22.9650   -9.5470   20.0690 C   0  0  0  0  0  3  0  0  0  0  0  0
  -23.7150  -10.7300   19.9580 C   0  0  0  0  0  3  0  0  0  0  0  0
  -22.5440   -7.4240   21.0270 O   0  0  0  0  0  0  0  0  0  0  0  0
  -22.0830   -6.8870   22.2010 C   0  0  0  0  0  0  0  0  0  0  0  0
  -21.2630   -7.6200   23.0860 C   0  0  0  0  0  3  0  0  0  0  0  0
  -20.7540   -7.0070   24.2480 C   0  0  0  0  0  3  0  0  0  0  0  0
  -21.0560   -5.6590   24.5230 C   0  0  0  0  0  0  0  0  0  0  0  0
  -21.8690   -4.9240   23.6410 C   0  0  0  0  0  3  0  0  0  0  0  0
  -22.3780   -5.5360   22.4820 C   0  0  0  0  0  0  0  0  0  0  0  0
  -23.1430   -4.8190   21.6240 F   0  0  0  0  0  0  0  0  0  0  0  0
  -20.5630   -5.0660   25.6350 F   0  0  0  0  0  0  0  0  0  0  0  0
  -23.9460  -13.9920   21.6930 C   0  0  0  0  0  0  0  0  0  0  0  0
  -23.4080  -13.1910   22.6040 N   0  0  0  0  0  0  0  0  0  0  0  0
  -23.4480  -15.0870   21.4310 O   0  0  0  0  0  0  0  0  0  0  0  0
  -23.8280  -12.3030   22.8330 H   0  0  0  0  0  0  0  0  0  0  0  0
  -22.5620  -13.4700   23.0810 H   0  0  0  0  0  0  0  0  0  0  0  0
  -26.4460  -15.7200   20.6410 N   0  0  0  0  0  0  0  0  0  0  0  0
  -25.7770  -16.3560   21.0630 H   0  0  0  0  0  0  0  0  0  0  0  0
  -27.2870  -16.1820   20.3210 H   0  0  0  0  0  0  0  0  0  0  0  0
  -28.2280  -26.6940   19.1660 O   0  0  0  0  0  0  0  0  0  0  0  0
  -24.6020  -31.8390   23.0940 C   0  0  0  0  0  0  0  0  0  0  0  0
  -27.2030  -27.7070   19.3190 C   0  0  0  0  0  0  0  0  0  0  0  0
  -23.3950  -30.6890   21.2780 C   0  0  0  0  0  3  0  0  0  0  0  0
  -24.8450  -29.3910   19.5970 C   0  0  0  0  0  0  0  0  0  0  0  0
  -25.9390  -31.0330   21.1120 C   0  0  0  0  0  2  0  0  0  0  0  0
  -26.0310  -29.7600   20.2500 C   0  0  0  0  0  0  0  0  0  0  0  0
  -27.2130  -28.9350   20.1000 C   0  0  0  0  0  3  0  0  0  0  0  0
  -25.9930  -27.4500   18.6440 C   0  0  0  0  0  3  0  0  0  0  0  0
  -24.8400  -28.2510   18.7800 C   0  0  0  0  0  3  0  0  0  0  0  0
  -23.6020  -30.2430   19.8060 C   0  0  0  0  0  2  0  0  0  0  0  0
  -24.6660  -31.2000   21.8850 N   0  0  0  0  0  0  0  0  0  0  0  0
  -23.5220  -32.0140   23.6790 O   0  0  0  0  0  0  0  0  0  0  0  0
  -22.7540  -29.5300   22.0830 C   0  0  0  0  0  0  0  0  0  0  0  0
  -21.4310  -29.3380   21.9370 N   0  0  0  0  0  0  0  0  0  0  0  0
  -23.4490  -28.8110   22.8030 O   0  0  0  0  0  0  0  0  0  0  0  0
  -20.9220  -29.9740   21.3380 H   0  0  0  0  0  0  0  0  0  0  0  0
  -18.0720  -28.0680   22.4180 C   0  0  0  0  0  0  0  0  0  0  0  0
  -20.6460  -28.2710   22.5650 C   0  0  0  0  0  3  0  0  0  0  0  0
  -20.6920  -26.9750   21.7220 C   0  0  0  0  0  2  0  0  0  0  0  0
  -19.5250  -26.8530   20.7370 C   0  0  0  0  0  2  0  0  0  0  0  0
  -18.1880  -26.8740   21.4840 C   0  0  0  0  0  2  0  0  0  0  0  0
  -19.2250  -28.7320   22.9130 C   0  0  0  0  0  0  0  0  0  0  0  0
  -19.0600  -29.8530   23.7540 C   0  0  0  0  0  3  0  0  0  0  0  0
  -17.7750  -30.3120   24.1000 C   0  0  0  0  0  3  0  0  0  0  0  0
  -16.6370  -29.6430   23.6180 C   0  0  0  0  0  3  0  0  0  0  0  0
  -16.7870  -28.5210   22.7830 C   0  0  0  0  0  3  0  0  0  0  0  0
  -25.8800  -32.3970   23.7900 C   0  0  0  0  0  3  0  0  0  0  0  0
  -25.5740  -33.7540   24.2680 N   0  0  0  0  0  0  0  0  0  0  0  0
  -25.8780  -34.8830   23.6150 C   0  0  0  0  0  0  0  0  0  0  0  0
  -26.5140  -34.8900   22.5570 O   0  0  0  0  0  0  0  0  0  0  0  0
  -25.0030  -33.8230   25.0990 H   0  0  0  0  0  0  0  0  0  0  0  0
  -24.1220  -36.6850   23.5250 C   0  0  0  0  0  1  0  0  0  0  0  0
  -25.4050  -36.2160   24.2290 C   0  0  0  0  0  3  0  0  0  0  0  0
  -27.5630  -37.0550   25.0500 C   0  0  0  0  0  1  0  0  0  0  0  0
  -26.4240  -37.2880   24.1660 N   0  0  0  0  0  0  0  0  0  0  0  0
  -26.0160  -38.1870   24.4050 H   0  0  0  0  0  0  0  0  0  0  0  0
  -26.3800  -31.4940   24.9850 C   0  0  1  0  0  0  0  0  0  0  0  0
  -25.2700  -31.1330   26.0000 C   0  0  0  0  0  1  0  0  0  0  0  0
  -26.9830  -30.1700   24.4600 C   0  0  0  0  0  1  0  0  0  0  0  0
  -27.5100  -32.2210   25.7520 C   0  0  0  0  0  1  0  0  0  0  0  0
  1  3  1  0
  1  5  2  0
  2  1  1  0
  3  6  2  0
  4  9  1  0
  4  2  1  0
  7  2  2  0
  8  3  1  0
  9  8  1  0
 10  4  2  0
 11 12  2  0
 11 14  1  0
 12 15  1  0
 13 16  1  0
 14 13  2  0
 15  9  1  0
 15 16  2  0
 16 17  1  0
 18 24  1  0
 18 14  1  0
 19 24  1  0
 20 21  1  0
 20 19  1  0
 22 21  1  0
 22 29  1  0
 22 23  1  0
 24 23  1  0
 25 18  2  0
 26 51  1  0
 26 27  2  0
 27 46  1  0
 28 31  1  0
 28 27  1  0
 29 30  1  0
 29 26  1  0
 30 28  2  0
 31 32  1  0
 32 33  2  0
 34 37  1  0
 34 33  1  0
 35 34  2  0
 36 35  1  0
 36 31  2  0
 37 38  1  0
 38 43  2  0
 38 39  1  0
 39 40  2  0
 40 41  1  0
 41 45  1  0
 42 41  2  0
 43 42  1  0
 44 43  1  0
 46 47  1  0
 47 49  1  0
 47 50  1  0
 48 46  2  0
 51 52  1  0
 53 51  1  0
 54 56  1  0
 54  7  1  0
 55 66  2  0
 56 61  1  0
 57 65  1  0
 57 67  1  0
 58 64  1  0
 58 60  1  0
 59 65  1  0
 60 59  1  0
 61 60  2  0
 62 63  1  0
 62 56  2  0
 63 58  2  0
 64 57  1  0
 65 55  1  0
 67 69  2  0
 68 67  1  0
 70 68  1  0
 71 80  2  0
 71 76  1  0
 72 68  1  0
 72 76  1  0
 73 72  1  0
 74 75  1  0
 74 73  1  0
 75 71  1  0
 76 77  2  0
 77 78  1  0
 79 78  2  0
 80 79  1  0
 81 55  1  0
 81 82  1  0
 81 91  1  0
 82 85  1  0
 83 87  1  0
 83 82  1  0
 84 83  2  0
 87 86  1  0
 89 87  1  0
 89 90  1  0
 89 88  1  0
 91 94  1  1
 91 92  1  0
 93 91  1  0
M  ISO  4   7 101  14 100  18 100  54 101
M  END
>  <TORSDO>  (73) 
F 17

>  <SCORE>  (73) 
-6.775

>  <name>  (73) 
72

>  <ligand_id>  (73) 
72

>  <original_smiles>  (73) 
[H]C([H])=C1C(=C([H])Oc2c([H])c([H])c3c(c2[H])C([H])([H])N(C(=O)C([H])(N([H])C(=O)C([H])(N([H])C([H])([H])[H])C([H])([H])[H])C(C([H])([H])[H])(C([H])([H])[H])C([H])([H])[H])C([H])(C(=O)N([H])C2([H])c4c([H])c([H])c([H])c([H])c4C([H])([H])C([H])([H])C2([H])[H])C3([H])[H])C(=O)N(c2c([H])c([H])c(C(=O)N3C([H])([H])C([H])([H])C([H])([H])C([H])(n4nc(-c5c([H])c([H])c(Oc6c([H])c([H])c(F)c([H])c6F)c([H])c5[H])c(C(=O)N([H])[H])c4N([H])[H])C3([H])[H])c([H])c2F)C([H])([H])C1=C([H])[H]

>  <smiles>  (73) 
[H]C([H])=C1C(=C([H])Oc2c([H])c([H])c3c(c2[H])C([H])([H])N(C(=O)C([H])(N([H])C(=O)C([H])(N([H])C([H])([H])[H])C([H])([H])[H])C(C([H])([H])[H])(C([H])([H])[H])C([H])([H])[H])C([H])(C(=O)N([H])C2([H])c4c([H])c([H])c([H])c([H])c4C([H])([H])C([H])([H])C2([H])[H])C3([H])[H])C(=O)N(c2c([H])c([H])c(C(=O)N3C([H])([H])C([H])([H])C([H])([H])C([H])(n4nc(-c5c([H])c([H])c(Oc6c([H])c([H])c(F)c([H])c6F)c([H])c5[H])c(C(=O)N([H])[H])c4N([H])[H])C3([H])[H])c([H])c2F)C([H])([H])C1=C([H])[H]

$$$$
73:0:0
     RDKit          3D

 93102  0  0  1  0  0  0  0  0999 V2000
  -28.9100  -23.9800   20.1980 C   0  0  0  0  0  0  0  0  0  0  0  0
  -30.2120  -23.8990   19.6010 C   0  0  0  0  0  0  0  0  0  0  0  0
  -28.5400  -22.5700   20.5170 C   0  0  0  0  0  0  0  0  0  0  0  0
  -30.9600  -24.9410   19.1960 C   0  0  0  0  0  2  0  0  0  0  0  0
  -28.1150  -25.0870   20.4450 C   0  0  0  0  0  3  0  0  0  0  0  0
  -30.6410  -22.4510   19.5150 C   0  0  0  0  0  2  0  0  0  0  0  0
  -29.5390  -21.6880   20.1290 N   0  0  0  0  0  0  0  0  0  0  0  0
  -27.4800  -22.2310   21.0530 O   0  0  0  0  0  0  0  0  0  0  0  0
  -28.6300  -19.3790   20.8520 C   0  0  0  0  0  3  0  0  0  0  0  0
  -30.7300  -19.4610   19.7180 C   0  0  0  0  0  3  0  0  0  0  0  0
  -28.7430  -17.9550   20.9310 C   0  0  0  0  0  3  0  0  0  0  0  0
  -30.8460  -18.0320   19.7950 C   0  0  0  0  0  3  0  0  0  0  0  0
  -29.6180  -20.2000   20.2360 C   0  0  0  0  0  0  0  0  0  0  0  0
  -29.8470  -17.2260   20.4060 C   0  0  0  0  0  0  0  0  0  0  0  0
  -30.6310  -14.7350   20.0310 C   0  0  0  0  0  0  0  0  0  0  0  0
  -30.3970  -12.5070   18.9320 C   0  0  0  0  0  2  0  0  0  0  0  0
  -29.3770  -12.6460   17.7780 C   0  0  0  0  0  2  0  0  0  0  0  0
  -27.9340  -12.4630   18.2900 C   0  0  0  0  0  2  0  0  0  0  0  0
  -27.6450  -13.2930   19.5690 C   0  0  0  0  0  3  0  0  0  0  0  0
  -28.7710  -13.1160   20.6130 C   0  0  0  0  0  2  0  0  0  0  0  0
  -30.0380  -13.4960   19.9700 N   0  0  0  0  0  0  0  0  0  0  0  0
  -31.7570  -14.9220   19.5570 O   0  0  0  0  0  0  0  0  0  0  0  0
  -29.8400  -15.7550   20.5130 N   0  0  0  0  0  0  0  0  0  0  0  0
  -29.0020  -15.3880   20.9370 H   0  0  0  0  0  0  0  0  0  0  0  0
  -25.3040  -13.8690   20.4580 C   0  0  0  0  0  0  0  0  0  0  0  0
  -24.2610  -13.0850   20.8680 C   0  0  0  0  0  0  0  0  0  0  0  0
  -24.7150  -11.7350   20.7610 C   0  0  0  0  0  0  0  0  0  0  0  0
  -26.3290  -12.9960   20.1270 N   0  0  0  0  0  0  0  0  0  0  0  0
  -25.9830  -11.7050   20.3680 N   0  0  0  0  0  0  0  0  0  0  0  0
  -23.9990  -10.4680   20.9530 C   0  0  0  0  0  0  0  0  0  0  0  0
  -24.4480   -9.4970   21.8760 C   0  0  0  0  0  3  0  0  0  0  0  0
  -23.7320   -8.2950   22.0580 C   0  0  0  0  0  3  0  0  0  0  0  0
  -22.5510   -8.0530   21.3150 C   0  0  0  0  0  0  0  0  0  0  0  0
  -22.1200   -9.0130   20.3810 C   0  0  0  0  0  3  0  0  0  0  0  0
  -22.8380  -10.2060   20.1980 C   0  0  0  0  0  3  0  0  0  0  0  0
  -21.8050   -6.9030   21.4050 O   0  0  0  0  0  0  0  0  0  0  0  0
  -21.7210   -6.1900   22.5740 C   0  0  0  0  0  0  0  0  0  0  0  0
  -21.2400   -6.7720   23.7680 C   0  0  0  0  0  3  0  0  0  0  0  0
  -21.1020   -5.9850   24.9290 C   0  0  0  0  0  3  0  0  0  0  0  0
  -21.4350   -4.6170   24.8970 C   0  0  0  0  0  0  0  0  0  0  0  0
  -21.9090   -4.0350   23.7070 C   0  0  0  0  0  3  0  0  0  0  0  0
  -22.0470   -4.8200   22.5490 C   0  0  0  0  0  0  0  0  0  0  0  0
  -22.4840   -4.2500   21.4000 F   0  0  0  0  0  0  0  0  0  0  0  0
  -21.2970   -3.8590   26.0090 F   0  0  0  0  0  0  0  0  0  0  0  0
  -22.8840  -13.5540   21.2440 C   0  0  0  0  0  0  0  0  0  0  0  0
  -22.2110  -12.8320   22.1330 N   0  0  0  0  0  0  0  0  0  0  0  0
  -22.4160  -14.5960   20.7850 O   0  0  0  0  0  0  0  0  0  0  0  0
  -22.6040  -11.9890   22.5260 H   0  0  0  0  0  0  0  0  0  0  0  0
  -21.2920  -13.1280   22.4270 H   0  0  0  0  0  0  0  0  0  0  0  0
  -25.4610  -15.2440   20.3170 N   0  0  0  0  0  0  0  0  0  0  0  0
  -24.7010  -15.8930   20.4890 H   0  0  0  0  0  0  0  0  0  0  0  0
  -26.2770  -15.6920   19.9150 H   0  0  0  0  0  0  0  0  0  0  0  0
  -28.3530  -26.4630   20.1800 O   0  0  0  0  0  0  0  0  0  0  0  0
  -24.6360  -31.8860   23.2280 C   0  0  0  0  0  0  0  0  0  0  0  0
  -27.2520  -27.3390   20.1520 C   0  0  0  0  0  0  0  0  0  0  0  0
  -23.4320  -30.4890   21.5870 C   0  0  0  0  0  3  0  0  0  0  0  0
  -24.8840  -28.9490   20.1490 C   0  0  0  0  0  0  0  0  0  0  0  0
  -25.9700  -30.8130   21.3980 C   0  0  0  0  0  2  0  0  0  0  0  0
  -26.0530  -29.4360   20.7490 C   0  0  0  0  0  0  0  0  0  0  0  0
  -27.2400  -28.6420   20.7450 C   0  0  0  0  0  3  0  0  0  0  0  0
  -26.0650  -26.9130   19.5180 C   0  0  0  0  0  3  0  0  0  0  0  0
  -24.8920  -27.6920   19.5250 C   0  0  0  0  0  3  0  0  0  0  0  0
  -23.6440  -29.8190   20.2040 C   0  0  0  0  0  2  0  0  0  0  0  0
  -24.6980  -31.0810   22.1270 N   0  0  0  0  0  0  0  0  0  0  0  0
  -23.5540  -32.1590   23.7680 O   0  0  0  0  0  0  0  0  0  0  0  0
  -22.7750  -29.4680   22.5460 C   0  0  0  0  0  0  0  0  0  0  0  0
  -21.4510  -29.2780   22.4130 N   0  0  0  0  0  0  0  0  0  0  0  0
  -23.4550  -28.8490   23.3680 O   0  0  0  0  0  0  0  0  0  0  0  0
  -20.9600  -29.8300   21.7220 H   0  0  0  0  0  0  0  0  0  0  0  0
  -18.0820  -28.0490   22.8970 C   0  0  0  0  0  0  0  0  0  0  0  0
  -20.6360  -28.3340   23.1810 C   0  0  0  0  0  3  0  0  0  0  0  0
  -20.7560  -26.9020   22.6100 C   0  0  0  0  0  2  0  0  0  0  0  0
  -19.6630  -26.5660   21.5900 C   0  0  0  0  0  2  0  0  0  0  0  0
  -18.2760  -26.6990   22.2260 C   0  0  0  0  0  2  0  0  0  0  0  0
  -19.1910  -28.8230   23.3320 C   0  0  0  0  0  0  0  0  0  0  0  0
  -18.9550  -30.0860   23.9180 C   0  0  0  0  0  3  0  0  0  0  0  0
  -17.6450  -30.5740   24.0760 C   0  0  0  0  0  3  0  0  0  0  0  0
  -16.5510  -29.7960   23.6580 C   0  0  0  0  0  3  0  0  0  0  0  0
  -16.7710  -28.5360   23.0740 C   0  0  0  0  0  3  0  0  0  0  0  0
  -25.9190  -32.5200   23.8490 C   0  0  0  0  0  3  0  0  0  0  0  0
  -25.6050  -33.9150   24.1890 N   0  0  0  0  0  0  0  0  0  0  0  0
  -25.9180  -34.9730   23.4280 C   0  0  0  0  0  0  0  0  0  0  0  0
  -26.5700  -34.8770   22.3850 O   0  0  0  0  0  0  0  0  0  0  0  0
  -25.0230  -34.0630   25.0000 H   0  0  0  0  0  0  0  0  0  0  0  0
  -24.1680  -36.7540   23.1180 C   0  0  0  0  0  1  0  0  0  0  0  0
  -25.4300  -36.3570   23.9000 C   0  0  0  0  0  3  0  0  0  0  0  0
  -27.5760  -37.2580   24.6830 C   0  0  0  0  0  1  0  0  0  0  0  0
  -26.4510  -37.4190   23.7640 N   0  0  0  0  0  0  0  0  0  0  0  0
  -26.0410  -38.3350   23.9220 H   0  0  0  0  0  0  0  0  0  0  0  0
  -26.4420  -31.7440   25.1200 C   0  0  1  0  0  0  0  0  0  0  0  0
  -25.3530  -31.4980   26.1910 C   0  0  0  0  0  1  0  0  0  0  0  0
  -27.0300  -30.3710   24.7220 C   0  0  0  0  0  1  0  0  0  0  0  0
  -27.5920  -32.5390   25.7830 C   0  0  0  0  0  1  0  0  0  0  0  0
  1  5  2  0
  1  3  1  0
  2  1  1  0
  3  8  2  0
  4  2  2  0
  6  2  1  0
  6  7  1  0
  7 13  1  0
  7  3  1  0
  9 11  1  0
 10 12  2  0
 10 13  1  0
 12 14  1  0
 13  9  2  0
 14 23  1  0
 14 11  2  0
 15 23  1  0
 16 21  1  0
 17 18  1  0
 17 16  1  0
 19 18  1  0
 19 28  1  0
 19 20  1  0
 21 15  1  0
 21 20  1  0
 22 15  2  0
 23 24  1  0
 25 26  2  0
 26 45  1  0
 27 26  1  0
 27 30  1  0
 28 29  1  0
 28 25  1  0
 29 27  2  0
 30 31  1  0
 31 32  2  0
 33 36  1  0
 33 32  1  0
 34 33  2  0
 35 34  1  0
 35 30  2  0
 36 37  1  0
 37 38  1  0
 38 39  2  0
 40 39  1  0
 40 44  1  0
 41 40  2  0
 42 37  2  0
 42 41  1  0
 43 42  1  0
 45 46  1  0
 46 49  1  0
 46 48  1  0
 47 45  2  0
 50 25  1  0
 50 51  1  0
 52 50  1  0
 53  5  1  0
 54 65  2  0
 55 53  1  0
 55 60  1  0
 56 64  1  0
 56 66  1  0
 57 63  1  0
 57 59  1  0
 58 64  1  0
 59 58  1  0
 60 59  2  0
 61 62  1  0
 61 55  2  0
 62 57  2  0
 63 56  1  0
 64 54  1  0
 66 68  2  0
 67 66  1  0
 69 67  1  0
 70 79  2  0
 70 75  1  0
 71 67  1  0
 71 75  1  0
 72 71  1  0
 73 74  1  0
 73 72  1  0
 74 70  1  0
 75 76  2  0
 76 77  1  0
 78 77  2  0
 79 78  1  0
 80 54  1  0
 80 81  1  0
 80 90  1  0
 81 84  1  0
 82 86  1  0
 82 81  1  0
 83 82  2  0
 86 85  1  0
 88 86  1  0
 88 89  1  0
 88 87  1  0
 90 93  1  1
 90 91  1  0
 92 90  1  0
M  ISO  4   5 101  15 100  23 100  53 101
M  END
>  <TORSDO>  (74) 
F 17

>  <SCORE>  (74) 
-14.716

>  <name>  (74) 
73

>  <ligand_id>  (74) 
73

>  <original_smiles>  (74) 
[H]C([H])=C1C(=C([H])Oc2c([H])c([H])c3c(c2[H])C([H])([H])N(C(=O)C([H])(N([H])C(=O)C([H])(N([H])C([H])([H])[H])C([H])([H])[H])C(C([H])([H])[H])(C([H])([H])[H])C([H])([H])[H])C([H])(C(=O)N([H])C2([H])c4c([H])c([H])c([H])c([H])c4C([H])([H])C([H])([H])C2([H])[H])C3([H])[H])C(=O)N(c2c([H])c([H])c(N([H])C(=O)N3C([H])([H])C([H])([H])C([H])([H])C([H])(n4nc(-c5c([H])c([H])c(Oc6c([H])c([H])c(F)c([H])c6F)c([H])c5[H])c(C(=O)N([H])[H])c4N([H])[H])C3([H])[H])c([H])c2[H])C1([H])[H]

>  <smiles>  (74) 
[H]C([H])=C1C(=C([H])Oc2c([H])c([H])c3c(c2[H])C([H])([H])N(C(=O)C([H])(N([H])C(=O)C([H])(N([H])C([H])([H])[H])C([H])([H])[H])C(C([H])([H])[H])(C([H])([H])[H])C([H])([H])[H])C([H])(C(=O)N([H])C2([H])c4c([H])c([H])c([H])c([H])c4C([H])([H])C([H])([H])C2([H])[H])C3([H])[H])C(=O)N(c2c([H])c([H])c(N([H])C(=O)N3C([H])([H])C([H])([H])C([H])([H])C([H])(n4nc(-c5c([H])c([H])c(Oc6c([H])c([H])c(F)c([H])c6F)c([H])c5[H])c(C(=O)N([H])[H])c4N([H])[H])C3([H])[H])c([H])c2[H])C1([H])[H]

$$$$
74:0:0
     RDKit          3D

 96105  0  0  1  0  0  0  0  0999 V2000
  -28.6890  -24.0010   20.6730 C   0  0  0  0  0  0  0  0  0  0  0  0
  -28.5490  -23.4540   22.0040 C   0  0  0  0  0  0  0  0  0  0  0  0
  -29.0830  -22.8970   19.6760 C   0  0  0  0  0  0  0  0  0  0  0  0
  -29.2530  -23.9220   23.0510 C   0  0  0  0  0  2  0  0  0  0  0  0
  -28.4450  -25.3970   20.6240 C   0  0  0  0  0  3  0  0  0  0  0  0
  -27.6310  -22.2870   22.1320 C   0  0  0  0  0  2  0  0  0  0  0  0
  -28.2120  -21.1520   21.2940 C   0  0  0  0  0  2  0  0  0  0  0  0
  -29.0110  -21.5110   20.0940 N   0  0  0  0  0  0  0  0  0  0  0  0
  -29.4650  -23.2040   18.5450 O   0  0  0  0  0  0  0  0  0  0  0  0
  -29.5660  -18.8800   20.0510 C   0  0  0  0  0  3  0  0  0  0  0  0
  -30.3030  -20.2940   18.2320 C   0  0  0  0  0  3  0  0  0  0  0  0
  -30.9050  -17.8980   18.2970 C   0  0  0  0  0  3  0  0  0  0  0  0
  -29.6240  -20.2460   19.4760 C   0  0  0  0  0  0  0  0  0  0  0  0
  -30.2150  -17.6790   19.5100 C   0  0  0  0  0  0  0  0  0  0  0  0
  -30.9120  -19.1530   17.6420 C   0  0  0  0  0  0  0  0  0  0  0  0
  -30.8780  -15.1130   19.8430 C   0  0  0  0  0  0  0  0  0  0  0  0
  -30.6830  -12.7740   18.9710 C   0  0  0  0  0  2  0  0  0  0  0  0
  -29.6990  -12.7910   17.7810 C   0  0  0  0  0  2  0  0  0  0  0  0
  -28.2520  -12.5940   18.2760 C   0  0  0  0  0  2  0  0  0  0  0  0
  -27.9110  -13.5040   19.4880 C   0  0  0  0  0  3  0  0  0  0  0  0
  -29.0250  -13.4990   20.5600 C   0  0  0  0  0  2  0  0  0  0  0  0
  -30.2810  -13.8660   19.8950 N   0  0  0  0  0  0  0  0  0  0  0  0
  -32.0510  -15.1830   19.4650 O   0  0  0  0  0  0  0  0  0  0  0  0
  -30.1180  -16.2720   20.0660 N   0  0  0  0  0  0  0  0  0  0  0  0
  -29.2800  -16.0900   20.5980 H   0  0  0  0  0  0  0  0  0  0  0  0
  -25.5740  -14.0670   20.3770 C   0  0  0  0  0  0  0  0  0  0  0  0
  -24.5290  -13.2830   20.7850 C   0  0  0  0  0  0  0  0  0  0  0  0
  -24.9910  -11.9350   20.6970 C   0  0  0  0  0  0  0  0  0  0  0  0
  -26.6000  -13.1950   20.0550 N   0  0  0  0  0  0  0  0  0  0  0  0
  -26.2610  -11.9060   20.3120 N   0  0  0  0  0  0  0  0  0  0  0  0
  -24.2730  -10.6670   20.8980 C   0  0  0  0  0  0  0  0  0  0  0  0
  -24.6910   -9.7220   21.8610 C   0  0  0  0  0  3  0  0  0  0  0  0
  -23.9700   -8.5240   22.0480 C   0  0  0  0  0  3  0  0  0  0  0  0
  -22.8150   -8.2600   21.2720 C   0  0  0  0  0  0  0  0  0  0  0  0
  -22.4150   -9.1940   20.2990 C   0  0  0  0  0  3  0  0  0  0  0  0
  -23.1390  -10.3860   20.1120 C   0  0  0  0  0  3  0  0  0  0  0  0
  -22.0730   -7.1080   21.3620 O   0  0  0  0  0  0  0  0  0  0  0  0
  -21.9250   -6.4400   22.5510 C   0  0  0  0  0  0  0  0  0  0  0  0
  -21.3520   -7.0540   23.6870 C   0  0  0  0  0  3  0  0  0  0  0  0
  -21.1520   -6.3100   24.8660 C   0  0  0  0  0  3  0  0  0  0  0  0
  -21.5180   -4.9510   24.9100 C   0  0  0  0  0  0  0  0  0  0  0  0
  -22.0850   -4.3370   23.7790 C   0  0  0  0  0  3  0  0  0  0  0  0
  -22.2840   -5.0780   22.6020 C   0  0  0  0  0  0  0  0  0  0  0  0
  -22.8120   -4.4740   21.5090 F   0  0  0  0  0  0  0  0  0  0  0  0
  -21.3190   -4.2340   26.0390 F   0  0  0  0  0  0  0  0  0  0  0  0
  -23.1520  -13.7570   21.1460 C   0  0  0  0  0  0  0  0  0  0  0  0
  -22.4730  -13.0550   22.0430 N   0  0  0  0  0  0  0  0  0  0  0  0
  -22.6860  -14.7910   20.6670 O   0  0  0  0  0  0  0  0  0  0  0  0
  -22.8610  -12.2200   22.4570 H   0  0  0  0  0  0  0  0  0  0  0  0
  -21.5530  -13.3630   22.3250 H   0  0  0  0  0  0  0  0  0  0  0  0
  -25.7270  -15.4420   20.2190 N   0  0  0  0  0  0  0  0  0  0  0  0
  -24.9540  -16.0840   20.3590 H   0  0  0  0  0  0  0  0  0  0  0  0
  -26.5280  -15.8800   19.7860 H   0  0  0  0  0  0  0  0  0  0  0  0
  -31.0280  -20.1210   15.4530 C   0  0  0  0  0  1  0  0  0  0  0  0
  -31.5330  -19.1920   16.4110 O   0  0  0  0  0  0  0  0  0  0  0  0
  -28.4680  -26.5090   19.7250 O   0  0  0  0  0  0  0  0  0  0  0  0
  -24.7240  -31.8790   23.0830 C   0  0  0  0  0  0  0  0  0  0  0  0
  -27.3940  -27.4390   19.8060 C   0  0  0  0  0  0  0  0  0  0  0  0
  -23.5280  -30.5070   21.4180 C   0  0  0  0  0  3  0  0  0  0  0  0
  -24.9950  -29.0390   19.9070 C   0  0  0  0  0  0  0  0  0  0  0  0
  -26.0600  -30.8850   21.2000 C   0  0  0  0  0  2  0  0  0  0  0  0
  -26.1690  -29.5240   20.5010 C   0  0  0  0  0  0  0  0  0  0  0  0
  -27.3750  -28.7350   20.4420 C   0  0  0  0  0  3  0  0  0  0  0  0
  -26.1900  -27.0300   19.2010 C   0  0  0  0  0  3  0  0  0  0  0  0
  -25.0110  -27.8010   19.2490 C   0  0  0  0  0  3  0  0  0  0  0  0
  -23.7360  -29.8840   20.0120 C   0  0  0  0  0  2  0  0  0  0  0  0
  -24.7910  -31.1080   21.9570 N   0  0  0  0  0  0  0  0  0  0  0  0
  -23.6440  -32.1080   23.6470 O   0  0  0  0  0  0  0  0  0  0  0  0
  -22.9060  -29.4430   22.3570 C   0  0  0  0  0  0  0  0  0  0  0  0
  -21.5780  -29.2470   22.2650 N   0  0  0  0  0  0  0  0  0  0  0  0
  -23.6190  -28.7980   23.1290 O   0  0  0  0  0  0  0  0  0  0  0  0
  -21.0570  -29.8220   21.6180 H   0  0  0  0  0  0  0  0  0  0  0  0
  -18.2430  -27.9630   22.8350 C   0  0  0  0  0  0  0  0  0  0  0  0
  -20.8030  -28.2640   23.0250 C   0  0  0  0  0  3  0  0  0  0  0  0
  -20.9130  -26.8590   22.3890 C   0  0  0  0  0  2  0  0  0  0  0  0
  -19.7830  -26.5570   21.4000 C   0  0  0  0  0  2  0  0  0  0  0  0
  -18.4200  -26.6480   22.0940 C   0  0  0  0  0  2  0  0  0  0  0  0
  -19.3620  -28.7280   23.2580 C   0  0  0  0  0  0  0  0  0  0  0  0
  -19.1410  -29.9580   23.9160 C   0  0  0  0  0  3  0  0  0  0  0  0
  -17.8340  -30.4250   24.1490 C   0  0  0  0  0  3  0  0  0  0  0  0
  -16.7300  -29.6590   23.7370 C   0  0  0  0  0  3  0  0  0  0  0  0
  -16.9340  -28.4280   23.0870 C   0  0  0  0  0  3  0  0  0  0  0  0
  -26.0000  -32.5290   23.7010 C   0  0  0  0  0  3  0  0  0  0  0  0
  -25.6560  -33.9060   24.0880 N   0  0  0  0  0  0  0  0  0  0  0  0
  -25.9430  -34.9950   23.3630 C   0  0  0  0  0  0  0  0  0  0  0  0
  -26.5930  -34.9470   22.3150 O   0  0  0  0  0  0  0  0  0  0  0  0
  -25.0720  -34.0120   24.9040 H   0  0  0  0  0  0  0  0  0  0  0  0
  -24.1580  -36.7520   23.1110 C   0  0  0  0  0  1  0  0  0  0  0  0
  -25.4280  -36.3530   23.8800 C   0  0  0  0  0  3  0  0  0  0  0  0
  -27.5540  -37.2720   24.6990 C   0  0  0  0  0  1  0  0  0  0  0  0
  -26.4270  -37.4390   23.7830 N   0  0  0  0  0  0  0  0  0  0  0  0
  -25.9990  -38.3400   23.9680 H   0  0  0  0  0  0  0  0  0  0  0  0
  -26.5600  -31.7320   24.9420 C   0  0  1  0  0  0  0  0  0  0  0  0
  -25.4920  -31.4380   26.0210 C   0  0  0  0  0  1  0  0  0  0  0  0
  -27.1700  -30.3800   24.5020 C   0  0  0  0  0  1  0  0  0  0  0  0
  -27.7030  -32.5320   25.6100 C   0  0  0  0  0  1  0  0  0  0  0  0
  1  2  1  0
  2  6  1  0
  2  4  2  0
  3  8  1  0
  3  1  1  0
  5  1  2  0
  7  6  1  0
  8  7  1  0
  9  3  2  0
 11 13  1  0
 12 14  2  0
 13 10  2  0
 13  8  1  0
 14 10  1  0
 14 24  1  0
 15 11  2  0
 15 12  1  0
 16 22  1  0
 16 24  1  0
 17 22  1  0
 18 19  1  0
 18 17  1  0
 20 19  1  0
 20 29  1  0
 20 21  1  0
 22 21  1  0
 23 16  2  0
 24 25  1  0
 26 27  2  0
 27 46  1  0
 28 27  1  0
 28 31  1  0
 29 30  1  0
 29 26  1  0
 30 28  2  0
 31 32  1  0
 32 33  2  0
 34 37  1  0
 34 33  1  0
 35 34  2  0
 36 35  1  0
 36 31  2  0
 37 38  1  0
 38 43  2  0
 38 39  1  0
 39 40  2  0
 40 41  1  0
 41 45  1  0
 42 41  2  0
 43 42  1  0
 44 43  1  0
 46 47  1  0
 47 50  1  0
 47 49  1  0
 48 46  2  0
 51 52  1  0
 51 26  1  0
 53 51  1  0
 54 55  1  0
 55 15  1  0
 56 58  1  0
 56  5  1  0
 57 68  2  0
 58 63  1  0
 59 67  1  0
 59 69  1  0
 60 66  1  0
 60 62  1  0
 61 67  1  0
 62 61  1  0
 63 62  2  0
 64 65  1  0
 64 58  2  0
 65 60  2  0
 66 59  1  0
 67 57  1  0
 69 71  2  0
 70 69  1  0
 72 70  1  0
 73 82  2  0
 73 78  1  0
 74 70  1  0
 74 78  1  0
 75 74  1  0
 76 77  1  0
 76 75  1  0
 77 73  1  0
 78 79  2  0
 79 80  1  0
 81 80  2  0
 82 81  1  0
 83 57  1  0
 83 84  1  0
 83 93  1  0
 84 87  1  0
 85 89  1  0
 85 84  1  0
 86 85  2  0
 89 88  1  0
 91 89  1  0
 91 92  1  0
 91 90  1  0
 93 96  1  1
 93 94  1  0
 95 93  1  0
M  ISO  4   5 101  16 100  24 100  56 101
M  END
>  <TORSDO>  (75) 
F 18

>  <SCORE>  (75) 
-13.554

>  <name>  (75) 
74

>  <ligand_id>  (75) 
74

>  <original_smiles>  (75) 
[H]C([H])=C1C(=C([H])Oc2c([H])c([H])c3c(c2[H])C([H])([H])N(C(=O)C([H])(N([H])C(=O)C([H])(N([H])C([H])([H])[H])C([H])([H])[H])C(C([H])([H])[H])(C([H])([H])[H])C([H])([H])[H])C([H])(C(=O)N([H])C2([H])c4c([H])c([H])c([H])c([H])c4C([H])([H])C([H])([H])C2([H])[H])C3([H])[H])C(=O)N(c2c([H])c(OC([H])([H])[H])c([H])c(N([H])C(=O)N3C([H])([H])C([H])([H])C([H])([H])C([H])(n4nc(-c5c([H])c([H])c(Oc6c([H])c([H])c(F)c([H])c6F)c([H])c5[H])c(C(=O)N([H])[H])c4N([H])[H])C3([H])[H])c2[H])C([H])([H])C1([H])[H]

>  <smiles>  (75) 
[H]C([H])=C1C(=C([H])Oc2c([H])c([H])c3c(c2[H])C([H])([H])N(C(=O)C([H])(N([H])C(=O)C([H])(N([H])C([H])([H])[H])C([H])([H])[H])C(C([H])([H])[H])(C([H])([H])[H])C([H])([H])[H])C([H])(C(=O)N([H])C2([H])c4c([H])c([H])c([H])c([H])c4C([H])([H])C([H])([H])C2([H])[H])C3([H])[H])C(=O)N(c2c([H])c(OC([H])([H])[H])c([H])c(N([H])C(=O)N3C([H])([H])C([H])([H])C([H])([H])C([H])(n4nc(-c5c([H])c([H])c(Oc6c([H])c([H])c(F)c([H])c6F)c([H])c5[H])c(C(=O)N([H])[H])c4N([H])[H])C3([H])[H])c2[H])C([H])([H])C1([H])[H]

$$$$
75:0:0
     RDKit          3D

 94103  0  0  1  0  0  0  0  0999 V2000
  -30.2880  -23.8180   20.5460 C   0  0  0  0  0  0  0  0  0  0  0  0
  -29.0130  -23.8360   20.1420 C   0  0  0  0  0  0  0  0  0  0  0  0
  -30.7310  -22.4330   20.6680 C   0  0  0  0  0  0  0  0  0  0  0  0
  -28.6280  -22.4180   20.0000 C   0  0  0  0  0  0  0  0  0  0  0  0
  -31.2100  -24.9920   20.8270 C   0  0  0  0  0  1  0  0  0  0  0  0
  -29.6980  -21.6270   20.3200 N   0  0  0  0  0  0  0  0  0  0  0  0
  -31.8500  -22.0550   21.0380 O   0  0  0  0  0  0  0  0  0  0  0  0
  -27.5230  -21.9980   19.6360 O   0  0  0  0  0  0  0  0  0  0  0  0
  -30.8830  -19.3920   19.8780 C   0  0  0  0  0  3  0  0  0  0  0  0
  -28.6800  -19.3450   20.8230 C   0  0  0  0  0  3  0  0  0  0  0  0
  -30.9480  -17.9620   19.9250 C   0  0  0  0  0  3  0  0  0  0  0  0
  -28.7440  -17.9200   20.8730 C   0  0  0  0  0  3  0  0  0  0  0  0
  -29.7500  -20.1410   20.3300 C   0  0  0  0  0  0  0  0  0  0  0  0
  -29.8740  -17.1800   20.4300 C   0  0  0  0  0  0  0  0  0  0  0  0
  -30.6030  -14.6960   20.0360 C   0  0  0  0  0  0  0  0  0  0  0  0
  -30.3360  -12.4840   18.9230 C   0  0  0  0  0  2  0  0  0  0  0  0
  -29.3140  -12.6440   17.7730 C   0  0  0  0  0  2  0  0  0  0  0  0
  -27.8710  -12.4700   18.2880 C   0  0  0  0  0  2  0  0  0  0  0  0
  -27.5930  -13.2980   19.5710 C   0  0  0  0  0  3  0  0  0  0  0  0
  -28.7180  -13.1040   20.6120 C   0  0  0  0  0  2  0  0  0  0  0  0
  -29.9910  -13.4680   19.9670 N   0  0  0  0  0  0  0  0  0  0  0  0
  -31.7290  -14.8770   19.5620 O   0  0  0  0  0  0  0  0  0  0  0  0
  -29.8230  -15.7160   20.5170 N   0  0  0  0  0  0  0  0  0  0  0  0
  -28.9680  -15.3630   20.9200 H   0  0  0  0  0  0  0  0  0  0  0  0
  -25.2530  -13.8860   20.4550 C   0  0  0  0  0  0  0  0  0  0  0  0
  -24.2060  -13.1070   20.8680 C   0  0  0  0  0  0  0  0  0  0  0  0
  -24.6580  -11.7550   20.7690 C   0  0  0  0  0  0  0  0  0  0  0  0
  -26.2740  -13.0090   20.1300 N   0  0  0  0  0  0  0  0  0  0  0  0
  -25.9260  -11.7200   20.3780 N   0  0  0  0  0  0  0  0  0  0  0  0
  -23.9390  -10.4900   20.9670 C   0  0  0  0  0  0  0  0  0  0  0  0
  -24.3970   -9.5150   21.8800 C   0  0  0  0  0  3  0  0  0  0  0  0
  -23.6790   -8.3150   22.0680 C   0  0  0  0  0  3  0  0  0  0  0  0
  -22.4870   -8.0810   21.3410 C   0  0  0  0  0  0  0  0  0  0  0  0
  -22.0470   -9.0450   20.4170 C   0  0  0  0  0  3  0  0  0  0  0  0
  -22.7660  -10.2370   20.2280 C   0  0  0  0  0  3  0  0  0  0  0  0
  -21.7370   -6.9340   21.4380 O   0  0  0  0  0  0  0  0  0  0  0  0
  -21.6790   -6.2080   22.6010 C   0  0  0  0  0  0  0  0  0  0  0  0
  -21.2330   -6.7780   23.8140 C   0  0  0  0  0  3  0  0  0  0  0  0
  -21.1240   -5.9770   24.9690 C   0  0  0  0  0  3  0  0  0  0  0  0
  -21.4490   -4.6100   24.9120 C   0  0  0  0  0  0  0  0  0  0  0  0
  -21.8890   -4.0400   23.7040 C   0  0  0  0  0  3  0  0  0  0  0  0
  -22.0000   -4.8370   22.5500 C   0  0  0  0  0  0  0  0  0  0  0  0
  -22.4030   -4.2780   21.3840 F   0  0  0  0  0  0  0  0  0  0  0  0
  -21.3370   -3.8390   26.0190 F   0  0  0  0  0  0  0  0  0  0  0  0
  -22.8310  -13.5810   21.2410 C   0  0  0  0  0  0  0  0  0  0  0  0
  -22.1570  -12.8650   22.1350 N   0  0  0  0  0  0  0  0  0  0  0  0
  -22.3650  -14.6200   20.7760 O   0  0  0  0  0  0  0  0  0  0  0  0
  -22.5470  -12.0250   22.5330 H   0  0  0  0  0  0  0  0  0  0  0  0
  -21.2370  -13.1640   22.4250 H   0  0  0  0  0  0  0  0  0  0  0  0
  -25.4130  -15.2610   20.3060 N   0  0  0  0  0  0  0  0  0  0  0  0
  -24.6510  -15.9110   20.4710 H   0  0  0  0  0  0  0  0  0  0  0  0
  -26.2320  -15.7050   19.9130 H   0  0  0  0  0  0  0  0  0  0  0  0
  -28.0400  -25.0250   19.8050 C   0  0  0  0  0  2  0  0  0  0  0  0
  -28.3330  -26.4560   20.1100 O   0  0  0  0  0  0  0  0  0  0  0  0
  -24.6400  -31.8490   23.2250 C   0  0  0  0  0  0  0  0  0  0  0  0
  -27.2330  -27.3400   20.0660 C   0  0  0  0  0  0  0  0  0  0  0  0
  -23.4280  -30.4820   21.5680 C   0  0  0  0  0  3  0  0  0  0  0  0
  -24.8700  -28.9680   20.1010 C   0  0  0  0  0  0  0  0  0  0  0  0
  -25.9690  -30.8020   21.3770 C   0  0  0  0  0  2  0  0  0  0  0  0
  -26.0460  -29.4380   20.7020 C   0  0  0  0  0  0  0  0  0  0  0  0
  -27.2300  -28.6360   20.6760 C   0  0  0  0  0  3  0  0  0  0  0  0
  -26.0300  -26.9420   19.4320 C   0  0  0  0  0  3  0  0  0  0  0  0
  -24.8660  -27.7270   19.4580 C   0  0  0  0  0  3  0  0  0  0  0  0
  -23.6350  -29.8410   20.1730 C   0  0  0  0  0  2  0  0  0  0  0  0
  -24.6990  -31.0600   22.1130 N   0  0  0  0  0  0  0  0  0  0  0  0
  -23.5590  -32.1150   23.7700 O   0  0  0  0  0  0  0  0  0  0  0  0
  -22.7720  -29.4430   22.5090 C   0  0  0  0  0  0  0  0  0  0  0  0
  -21.4450  -29.2670   22.3880 N   0  0  0  0  0  0  0  0  0  0  0  0
  -23.4570  -28.8020   23.3110 O   0  0  0  0  0  0  0  0  0  0  0  0
  -20.9500  -29.8380   21.7180 H   0  0  0  0  0  0  0  0  0  0  0  0
  -18.0710  -28.0650   22.8990 C   0  0  0  0  0  0  0  0  0  0  0  0
  -20.6330  -28.3150   23.1480 C   0  0  0  0  0  3  0  0  0  0  0  0
  -20.7270  -26.8950   22.5440 C   0  0  0  0  0  2  0  0  0  0  0  0
  -19.6140  -26.5940   21.5350 C   0  0  0  0  0  2  0  0  0  0  0  0
  -18.2390  -26.7290   22.1960 C   0  0  0  0  0  2  0  0  0  0  0  0
  -19.1960  -28.8160   23.3340 C   0  0  0  0  0  0  0  0  0  0  0  0
  -18.9850  -30.0670   23.9530 C   0  0  0  0  0  3  0  0  0  0  0  0
  -17.6840  -30.5670   24.1420 C   0  0  0  0  0  3  0  0  0  0  0  0
  -16.5740  -29.8140   23.7220 C   0  0  0  0  0  3  0  0  0  0  0  0
  -16.7680  -28.5640   23.1080 C   0  0  0  0  0  3  0  0  0  0  0  0
  -25.9250  -32.4730   23.8490 C   0  0  0  0  0  3  0  0  0  0  0  0
  -25.6180  -33.8690   24.1940 N   0  0  0  0  0  0  0  0  0  0  0  0
  -25.9250  -34.9260   23.4320 C   0  0  0  0  0  0  0  0  0  0  0  0
  -26.5660  -34.8320   22.3820 O   0  0  0  0  0  0  0  0  0  0  0  0
  -25.0460  -34.0160   25.0120 H   0  0  0  0  0  0  0  0  0  0  0  0
  -24.1670  -36.7040   23.1470 C   0  0  0  0  0  1  0  0  0  0  0  0
  -25.4430  -36.3110   23.9080 C   0  0  0  0  0  3  0  0  0  0  0  0
  -27.6010  -37.2140   24.6540 C   0  0  0  0  0  1  0  0  0  0  0  0
  -26.4600  -37.3730   23.7560 N   0  0  0  0  0  0  0  0  0  0  0  0
  -26.0510  -38.2890   23.9220 H   0  0  0  0  0  0  0  0  0  0  0  0
  -26.4410  -31.6880   25.1170 C   0  0  1  0  0  0  0  0  0  0  0  0
  -25.3490  -31.4440   26.1840 C   0  0  0  0  0  1  0  0  0  0  0  0
  -27.0200  -30.3130   24.7130 C   0  0  0  0  0  1  0  0  0  0  0  0
  -27.5950  -32.4740   25.7860 C   0  0  0  0  0  1  0  0  0  0  0  0
  1  3  1  0
  1  5  1  0
  2  1  2  0
  3  7  2  0
  4  2  1  0
  4  6  1  0
  6 13  1  0
  6  3  1  0
  8  4  2  0
  9 11  2  0
  9 13  1  0
 10 12  1  0
 11 14  1  0
 13 10  2  0
 14 23  1  0
 14 12  2  0
 15 23  1  0
 16 21  1  0
 17 18  1  0
 17 16  1  0
 19 18  1  0
 19 28  1  0
 19 20  1  0
 21 15  1  0
 21 20  1  0
 22 15  2  0
 23 24  1  0
 25 26  2  0
 26 45  1  0
 27 26  1  0
 27 30  1  0
 28 29  1  0
 28 25  1  0
 29 27  2  0
 30 31  1  0
 31 32  2  0
 33 36  1  0
 33 32  1  0
 34 33  2  0
 35 34  1  0
 35 30  2  0
 36 37  1  0
 37 38  1  0
 38 39  2  0
 40 39  1  0
 40 44  1  0
 41 40  2  0
 42 37  2  0
 42 41  1  0
 43 42  1  0
 45 46  1  0
 46 49  1  0
 46 48  1  0
 47 45  2  0
 50 25  1  0
 50 51  1  0
 52 50  1  0
 53 54  1  0
 53  2  1  0
 55 66  2  0
 56 54  1  0
 56 61  1  0
 57 65  1  0
 57 67  1  0
 58 64  1  0
 58 60  1  0
 59 65  1  0
 60 59  1  0
 61 60  2  0
 62 63  1  0
 62 56  2  0
 63 58  2  0
 64 57  1  0
 65 55  1  0
 67 69  2  0
 68 67  1  0
 70 68  1  0
 71 80  2  0
 71 76  1  0
 72 68  1  0
 72 76  1  0
 73 72  1  0
 74 75  1  0
 74 73  1  0
 75 71  1  0
 76 77  2  0
 77 78  1  0
 79 78  2  0
 80 79  1  0
 81 55  1  0
 81 82  1  0
 81 91  1  0
 82 85  1  0
 83 87  1  0
 83 82  1  0
 84 83  2  0
 87 86  1  0
 89 87  1  0
 89 90  1  0
 89 88  1  0
 91 94  1  1
 91 92  1  0
 93 91  1  0
M  ISO  4  15 100  23 100  53 101  54 101
M  END
>  <TORSDO>  (76) 
F 18

>  <SCORE>  (76) 
-14.546

>  <name>  (76) 
75

>  <ligand_id>  (76) 
75

>  <original_smiles>  (76) 
[H]c1c([H])c([H])c2c(c1[H])C([H])([H])C([H])([H])C([H])([H])C2([H])N([H])C(=O)C1([H])N(C(=O)C([H])(N([H])C(=O)C([H])(N([H])C([H])([H])[H])C([H])([H])[H])C(C([H])([H])[H])(C([H])([H])[H])C([H])([H])[H])C([H])([H])c2c([H])c(OC([H])([H])C3=C(C([H])([H])[H])C(=O)N(c4c([H])c([H])c(N([H])C(=O)N5C([H])([H])C([H])([H])C([H])([H])C([H])(n6nc(-c7c([H])c([H])c(Oc8c([H])c([H])c(F)c([H])c8F)c([H])c7[H])c(C(=O)N([H])[H])c6N([H])[H])C5([H])[H])c([H])c4[H])C3=O)c([H])c([H])c2C1([H])[H]

>  <smiles>  (76) 
[H]c1c([H])c([H])c2c(c1[H])C([H])([H])C([H])([H])C([H])([H])C2([H])N([H])C(=O)C1([H])N(C(=O)C([H])(N([H])C(=O)C([H])(N([H])C([H])([H])[H])C([H])([H])[H])C(C([H])([H])[H])(C([H])([H])[H])C([H])([H])[H])C([H])([H])c2c([H])c(OC([H])([H])C3=C(C([H])([H])[H])C(=O)N(c4c([H])c([H])c(N([H])C(=O)N5C([H])([H])C([H])([H])C([H])([H])C([H])(n6nc(-c7c([H])c([H])c(Oc8c([H])c([H])c(F)c([H])c8F)c([H])c7[H])c(C(=O)N([H])[H])c6N([H])[H])C5([H])[H])c([H])c4[H])C3=O)c([H])c([H])c2C1([H])[H]

$$$$
76:0:0
     RDKit          3D

 93102  0  0  1  0  0  0  0  0999 V2000
  -30.0870  -23.7010   20.0360 C   0  0  0  0  0  0  0  0  0  0  0  0
  -30.7710  -22.8770   20.9850 C   0  0  0  0  0  0  0  0  0  0  0  0
  -28.7090  -23.3260   20.1380 C   0  0  0  0  0  3  0  0  0  0  0  0
  -30.6040  -24.6060   19.1830 C   0  0  0  0  0  1  0  0  0  0  0  0
  -32.0510  -23.0160   21.3760 C   0  0  0  0  0  1  0  0  0  0  0  0
  -27.8160  -24.4610   20.2350 C   0  0  0  0  0  2  0  0  0  0  0  0
  -29.8100  -21.8200   21.4910 C   0  0  0  0  0  2  0  0  0  0  0  0
  -28.6960  -21.8320   20.5210 N   0  0  0  0  0  0  0  0  0  0  0  0
  -29.1910  -19.2170   17.7040 C   0  0  0  0  0  3  0  0  0  0  0  0
  -28.9340  -20.4210   18.4220 C   0  0  0  0  0  3  0  0  0  0  0  0
  -29.4640  -17.9640   18.3220 C   0  0  0  0  0  3  0  0  0  0  0  0
  -29.1400  -19.0900   20.4330 C   0  0  0  0  0  3  0  0  0  0  0  0
  -28.9040  -20.4790   19.8340 C   0  0  0  0  0  0  0  0  0  0  0  0
  -29.4580  -17.7850   19.7260 C   0  0  0  0  0  0  0  0  0  0  0  0
  -30.3690  -15.1080   19.9580 C   0  0  0  0  0  0  0  0  0  0  0  0
  -30.2880  -12.6970   19.0980 C   0  0  0  0  0  2  0  0  0  0  0  0
  -29.3150  -12.6110   17.8990 C   0  0  0  0  0  2  0  0  0  0  0  0
  -27.8690  -12.4060   18.3770 C   0  0  0  0  0  2  0  0  0  0  0  0
  -27.5030  -13.3110   19.5770 C   0  0  0  0  0  3  0  0  0  0  0  0
  -28.6000  -13.3490   20.6600 C   0  0  0  0  0  2  0  0  0  0  0  0
  -29.8300  -13.8060   20.0010 N   0  0  0  0  0  0  0  0  0  0  0  0
  -31.5410  -15.1700   19.5620 O   0  0  0  0  0  0  0  0  0  0  0  0
  -29.6040  -16.3080   20.2750 N   0  0  0  0  0  0  0  0  0  0  0  0
  -28.8690  -16.0740   20.9220 H   0  0  0  0  0  0  0  0  0  0  0  0
  -25.1580  -13.8610   20.4130 C   0  0  0  0  0  0  0  0  0  0  0  0
  -24.1150  -13.0780   20.8230 C   0  0  0  0  0  0  0  0  0  0  0  0
  -24.5840  -11.7300   20.7680 C   0  0  0  0  0  0  0  0  0  0  0  0
  -26.1930  -12.9900   20.1250 N   0  0  0  0  0  0  0  0  0  0  0  0
  -25.8600  -11.7020   20.4020 N   0  0  0  0  0  0  0  0  0  0  0  0
  -23.8670  -10.4650   20.9750 C   0  0  0  0  0  0  0  0  0  0  0  0
  -24.3220   -9.4980   21.8990 C   0  0  0  0  0  3  0  0  0  0  0  0
  -23.6030   -8.2970   22.0920 C   0  0  0  0  0  3  0  0  0  0  0  0
  -22.4130   -8.0580   21.3630 C   0  0  0  0  0  0  0  0  0  0  0  0
  -21.9760   -9.0140   20.4290 C   0  0  0  0  0  3  0  0  0  0  0  0
  -22.6980  -10.2030   20.2340 C   0  0  0  0  0  3  0  0  0  0  0  0
  -21.6570   -6.9150   21.4730 O   0  0  0  0  0  0  0  0  0  0  0  0
  -21.6290   -6.1850   22.6330 C   0  0  0  0  0  0  0  0  0  0  0  0
  -21.2080   -6.7470   23.8590 C   0  0  0  0  0  3  0  0  0  0  0  0
  -21.1190   -5.9390   25.0110 C   0  0  0  0  0  3  0  0  0  0  0  0
  -21.4440   -4.5710   24.9380 C   0  0  0  0  0  0  0  0  0  0  0  0
  -21.8610   -4.0100   23.7180 C   0  0  0  0  0  3  0  0  0  0  0  0
  -21.9490   -4.8140   22.5700 C   0  0  0  0  0  0  0  0  0  0  0  0
  -22.3320   -4.2620   21.3910 F   0  0  0  0  0  0  0  0  0  0  0  0
  -21.3570   -3.7920   26.0430 F   0  0  0  0  0  0  0  0  0  0  0  0
  -22.7280  -13.5490   21.1460 C   0  0  0  0  0  0  0  0  0  0  0  0
  -22.0300  -12.8500   22.0350 N   0  0  0  0  0  0  0  0  0  0  0  0
  -22.2710  -14.5780   20.6470 O   0  0  0  0  0  0  0  0  0  0  0  0
  -22.4060  -12.0170   22.4580 H   0  0  0  0  0  0  0  0  0  0  0  0
  -21.1040  -13.1580   22.2950 H   0  0  0  0  0  0  0  0  0  0  0  0
  -25.2940  -15.2360   20.2410 N   0  0  0  0  0  0  0  0  0  0  0  0
  -24.5020  -15.8560   20.3880 H   0  0  0  0  0  0  0  0  0  0  0  0
  -26.0770  -15.6960   19.7980 H   0  0  0  0  0  0  0  0  0  0  0  0
  -28.1000  -25.9440   20.2140 O   0  0  0  0  0  0  0  0  0  0  0  0
  -24.6270  -31.8500   23.2590 C   0  0  0  0  0  0  0  0  0  0  0  0
  -27.1060  -27.0150   20.2080 C   0  0  0  0  0  0  0  0  0  0  0  0
  -23.4160  -30.4590   21.6310 C   0  0  0  0  0  3  0  0  0  0  0  0
  -24.8370  -28.8680   20.1920 C   0  0  0  0  0  0  0  0  0  0  0  0
  -25.9760  -30.6700   21.4680 C   0  0  0  0  0  2  0  0  0  0  0  0
  -26.0310  -29.2680   20.8060 C   0  0  0  0  0  0  0  0  0  0  0  0
  -27.1660  -28.3580   20.8010 C   0  0  0  0  0  3  0  0  0  0  0  0
  -25.8960  -26.7460   19.5460 C   0  0  0  0  0  3  0  0  0  0  0  0
  -24.7890  -27.6200   19.5460 C   0  0  0  0  0  3  0  0  0  0  0  0
  -23.6290  -29.7930   20.2480 C   0  0  0  0  0  2  0  0  0  0  0  0
  -24.6950  -31.0170   22.1750 N   0  0  0  0  0  0  0  0  0  0  0  0
  -23.5430  -32.1470   23.7860 O   0  0  0  0  0  0  0  0  0  0  0  0
  -22.7280  -29.4600   22.5930 C   0  0  0  0  0  0  0  0  0  0  0  0
  -21.3960  -29.2950   22.4680 N   0  0  0  0  0  0  0  0  0  0  0  0
  -23.3930  -28.8380   23.4240 O   0  0  0  0  0  0  0  0  0  0  0  0
  -20.9110  -29.8440   21.7740 H   0  0  0  0  0  0  0  0  0  0  0  0
  -18.0160  -28.0880   22.9720 C   0  0  0  0  0  0  0  0  0  0  0  0
  -20.5750  -28.3600   23.2450 C   0  0  0  0  0  3  0  0  0  0  0  0
  -20.6810  -26.9240   22.6810 C   0  0  0  0  0  2  0  0  0  0  0  0
  -19.5820  -26.5910   21.6650 C   0  0  0  0  0  2  0  0  0  0  0  0
  -18.1980  -26.7360   22.3050 C   0  0  0  0  0  2  0  0  0  0  0  0
  -19.1320  -28.8580   23.3990 C   0  0  0  0  0  0  0  0  0  0  0  0
  -18.9040  -30.1220   23.9840 C   0  0  0  0  0  3  0  0  0  0  0  0
  -17.5960  -30.6170   24.1480 C   0  0  0  0  0  3  0  0  0  0  0  0
  -16.4980  -29.8460   23.7330 C   0  0  0  0  0  3  0  0  0  0  0  0
  -16.7070  -28.5840   23.1500 C   0  0  0  0  0  3  0  0  0  0  0  0
  -25.9080  -32.4820   23.8820 C   0  0  0  0  0  3  0  0  0  0  0  0
  -25.6020  -33.8820   24.2150 N   0  0  0  0  0  0  0  0  0  0  0  0
  -25.9130  -34.9380   23.4520 C   0  0  0  0  0  0  0  0  0  0  0  0
  -26.5540  -34.8360   22.4030 O   0  0  0  0  0  0  0  0  0  0  0  0
  -25.0210  -34.0340   25.0280 H   0  0  0  0  0  0  0  0  0  0  0  0
  -24.1620  -36.7260   23.1690 C   0  0  0  0  0  1  0  0  0  0  0  0
  -25.4390  -36.3270   23.9240 C   0  0  0  0  0  3  0  0  0  0  0  0
  -27.6010  -37.2300   24.6590 C   0  0  0  0  0  1  0  0  0  0  0  0
  -26.4600  -37.3840   23.7610 N   0  0  0  0  0  0  0  0  0  0  0  0
  -26.0550  -38.3020   23.9210 H   0  0  0  0  0  0  0  0  0  0  0  0
  -26.4120  -31.7140   25.1660 C   0  0  1  0  0  0  0  0  0  0  0  0
  -25.3150  -31.4870   26.2330 C   0  0  0  0  0  1  0  0  0  0  0  0
  -26.9890  -30.3320   24.7890 C   0  0  0  0  0  1  0  0  0  0  0  0
  -27.5690  -32.5010   25.8210 C   0  0  0  0  0  1  0  0  0  0  0  0
  1  3  1  0
  1  2  2  0
  2  5  1  0
  2  7  1  0
  3  6  1  0
  3  8  1  0
  4  1  1  0
  8  7  1  0
  9 11  2  0
  9 10  1  0
 10 13  2  0
 11 14  1  0
 13 12  1  0
 13  8  1  0
 14 23  1  0
 14 12  2  0
 15 21  1  0
 15 23  1  0
 16 21  1  0
 17 18  1  0
 17 16  1  0
 19 18  1  0
 19 28  1  0
 19 20  1  0
 21 20  1  0
 22 15  2  0
 23 24  1  0
 25 26  2  0
 26 45  1  0
 27 26  1  0
 27 30  1  0
 28 29  1  0
 28 25  1  0
 29 27  2  0
 30 31  1  0
 31 32  2  0
 33 36  1  0
 33 32  1  0
 34 33  2  0
 35 34  1  0
 35 30  2  0
 36 37  1  0
 37 38  1  0
 38 39  2  0
 40 39  1  0
 40 44  1  0
 41 40  2  0
 42 37  2  0
 42 41  1  0
 43 42  1  0
 45 46  1  0
 46 49  1  0
 46 48  1  0
 47 45  2  0
 50 51  1  0
 50 25  1  0
 52 50  1  0
 53  6  1  0
 54 65  2  0
 55 53  1  0
 55 60  1  0
 56 64  1  0
 56 66  1  0
 57 63  1  0
 57 59  1  0
 58 64  1  0
 59 58  1  0
 60 59  2  0
 61 62  1  0
 61 55  2  0
 62 57  2  0
 63 56  1  0
 64 54  1  0
 66 68  2  0
 67 66  1  0
 69 67  1  0
 70 79  2  0
 70 75  1  0
 71 67  1  0
 71 75  1  0
 72 71  1  0
 73 74  1  0
 73 72  1  0
 74 70  1  0
 75 76  2  0
 76 77  1  0
 78 77  2  0
 79 78  1  0
 80 54  1  0
 80 81  1  0
 80 90  1  0
 81 84  1  0
 82 86  1  0
 82 81  1  0
 83 82  2  0
 86 85  1  0
 88 89  1  0
 88 86  1  0
 88 87  1  0
 90 93  1  1
 90 91  1  0
 92 90  1  0
M  ISO  4   6 101  15 100  23 100  53 101
M  END
>  <TORSDO>  (77) 
F 17

>  <SCORE>  (77) 
-14.529

>  <name>  (77) 
76

>  <ligand_id>  (77) 
76

>  <original_smiles>  (77) 
[H]C([H])=C1C(=C([H])Oc2c([H])c([H])c3c(c2[H])C([H])([H])N(C(=O)C([H])(N([H])C(=O)C([H])(N([H])C([H])([H])[H])C([H])([H])[H])C(C([H])([H])[H])(C([H])([H])[H])C([H])([H])[H])C([H])(C(=O)N([H])C2([H])c4c([H])c([H])c([H])c([H])c4C([H])([H])C([H])([H])C2([H])[H])C3([H])[H])N(c2c([H])c([H])c([H])c(N([H])C(=O)N3C([H])([H])C([H])([H])C([H])([H])C([H])(n4nc(-c5c([H])c([H])c(Oc6c([H])c([H])c(F)c([H])c6F)c([H])c5[H])c(C(=O)N([H])[H])c4N([H])[H])C3([H])[H])c2[H])C([H])([H])C1=C([H])[H]

>  <smiles>  (77) 
[H]C([H])=C1C(=C([H])Oc2c([H])c([H])c3c(c2[H])C([H])([H])N(C(=O)C([H])(N([H])C(=O)C([H])(N([H])C([H])([H])[H])C([H])([H])[H])C(C([H])([H])[H])(C([H])([H])[H])C([H])([H])[H])C([H])(C(=O)N([H])C2([H])c4c([H])c([H])c([H])c([H])c4C([H])([H])C([H])([H])C2([H])[H])C3([H])[H])N(c2c([H])c([H])c([H])c(N([H])C(=O)N3C([H])([H])C([H])([H])C([H])([H])C([H])(n4nc(-c5c([H])c([H])c(Oc6c([H])c([H])c(F)c([H])c6F)c([H])c5[H])c(C(=O)N([H])[H])c4N([H])[H])C3([H])[H])c2[H])C([H])([H])C1=C([H])[H]

$$$$
77:0:0
     RDKit          3D

 93102  0  0  1  0  0  0  0  0999 V2000
  -29.0830  -23.9210   21.7130 C   0  0  0  0  0  0  0  0  0  0  0  0
  -30.4170  -23.4400   21.8880 C   0  0  0  0  0  0  0  0  0  0  0  0
  -28.7630  -23.6450   20.3400 C   0  0  0  0  0  3  0  0  0  0  0  0
  -28.2720  -24.5050   22.6180 C   0  0  0  0  0  1  0  0  0  0  0  0
  -31.1780  -23.5530   22.9890 C   0  0  0  0  0  1  0  0  0  0  0  0
  -28.2510  -24.7600   19.6200 C   0  0  0  0  0  2  0  0  0  0  0  0
  -30.8230  -22.7680   20.5930 C   0  0  0  0  0  2  0  0  0  0  0  0
  -29.5480  -22.4320   19.9150 N   0  0  0  0  0  0  0  0  0  0  0  0
  -28.4960  -20.0500   20.5390 C   0  0  0  0  0  3  0  0  0  0  0  0
  -30.5870  -20.0670   19.5100 C   0  0  0  0  0  3  0  0  0  0  0  0
  -28.5830  -18.5840   20.6070 C   0  0  0  0  0  3  0  0  0  0  0  0
  -30.6900  -18.6080   19.6000 C   0  0  0  0  0  3  0  0  0  0  0  0
  -29.5010  -20.9150   19.9830 C   0  0  0  0  0  0  0  0  0  0  0  0
  -29.6800  -17.7490   20.1510 C   0  0  0  0  0  0  0  0  0  0  0  0
  -30.4210  -15.0370   19.9010 C   0  0  0  0  0  0  0  0  0  0  0  0
  -30.2520  -12.6840   18.9300 C   0  0  0  0  0  2  0  0  0  0  0  0
  -29.2300  -12.6310   17.7680 C   0  0  0  0  0  2  0  0  0  0  0  0
  -27.7990  -12.4080   18.2950 C   0  0  0  0  0  2  0  0  0  0  0  0
  -27.4750  -13.3110   19.5120 C   0  0  0  0  0  3  0  0  0  0  0  0
  -28.6120  -13.3140   20.5600 C   0  0  0  0  0  2  0  0  0  0  0  0
  -29.8370  -13.7610   19.8790 N   0  0  0  0  0  0  0  0  0  0  0  0
  -31.5830  -15.1190   19.4850 O   0  0  0  0  0  0  0  0  0  0  0  0
  -29.6460  -16.1930   20.2520 N   0  0  0  0  0  0  0  0  0  0  0  0
  -28.7850  -15.8760   20.6690 H   0  0  0  0  0  0  0  0  0  0  0  0
  -25.1610  -13.8740   20.4480 C   0  0  0  0  0  0  0  0  0  0  0  0
  -24.1160  -13.0910   20.8630 C   0  0  0  0  0  0  0  0  0  0  0  0
  -24.5630  -11.7400   20.7450 C   0  0  0  0  0  0  0  0  0  0  0  0
  -26.1740  -12.9990   20.0970 N   0  0  0  0  0  0  0  0  0  0  0  0
  -25.8300  -11.7080   20.3420 N   0  0  0  0  0  0  0  0  0  0  0  0
  -23.8360  -10.4760   20.9370 C   0  0  0  0  0  0  0  0  0  0  0  0
  -24.2760   -9.5030   21.8620 C   0  0  0  0  0  3  0  0  0  0  0  0
  -23.5470   -8.3080   22.0450 C   0  0  0  0  0  3  0  0  0  0  0  0
  -22.3660   -8.0750   21.3020 C   0  0  0  0  0  0  0  0  0  0  0  0
  -21.9460   -9.0360   20.3650 C   0  0  0  0  0  3  0  0  0  0  0  0
  -22.6750  -10.2230   20.1810 C   0  0  0  0  0  3  0  0  0  0  0  0
  -21.6100   -6.9320   21.3930 O   0  0  0  0  0  0  0  0  0  0  0  0
  -21.5150   -6.2220   22.5630 C   0  0  0  0  0  0  0  0  0  0  0  0
  -21.0230   -6.8060   23.7500 C   0  0  0  0  0  3  0  0  0  0  0  0
  -20.8780   -6.0220   24.9120 C   0  0  0  0  0  3  0  0  0  0  0  0
  -21.2150   -4.6560   24.8880 C   0  0  0  0  0  0  0  0  0  0  0  0
  -21.7010   -4.0720   23.7060 C   0  0  0  0  0  3  0  0  0  0  0  0
  -21.8480   -4.8520   22.5460 C   0  0  0  0  0  0  0  0  0  0  0  0
  -22.2960   -4.2800   21.4030 F   0  0  0  0  0  0  0  0  0  0  0  0
  -21.0690   -3.9010   26.0020 F   0  0  0  0  0  0  0  0  0  0  0  0
  -22.7460  -13.5690   21.2480 C   0  0  0  0  0  0  0  0  0  0  0  0
  -22.0720  -12.8420   22.1320 N   0  0  0  0  0  0  0  0  0  0  0  0
  -22.2850  -14.6180   20.8020 O   0  0  0  0  0  0  0  0  0  0  0  0
  -22.4630  -11.9930   22.5170 H   0  0  0  0  0  0  0  0  0  0  0  0
  -21.1530  -13.1380   22.4300 H   0  0  0  0  0  0  0  0  0  0  0  0
  -25.3210  -15.2490   20.3100 N   0  0  0  0  0  0  0  0  0  0  0  0
  -24.5680  -15.9010   20.5040 H   0  0  0  0  0  0  0  0  0  0  0  0
  -26.1260  -15.6960   19.8900 H   0  0  0  0  0  0  0  0  0  0  0  0
  -28.2130  -26.1700   20.0550 O   0  0  0  0  0  0  0  0  0  0  0  0
  -24.5110  -31.7470   23.1200 C   0  0  0  0  0  0  0  0  0  0  0  0
  -27.1280  -27.1180   19.9730 C   0  0  0  0  0  0  0  0  0  0  0  0
  -23.3150  -30.3590   21.4730 C   0  0  0  0  0  3  0  0  0  0  0  0
  -24.7720  -28.8300   19.9930 C   0  0  0  0  0  0  0  0  0  0  0  0
  -25.8620  -30.6640   21.2860 C   0  0  0  0  0  2  0  0  0  0  0  0
  -25.9490  -29.2860   20.6020 C   0  0  0  0  0  0  0  0  0  0  0  0
  -27.1220  -28.4410   20.5780 C   0  0  0  0  0  3  0  0  0  0  0  0
  -25.9240  -26.7600   19.3310 C   0  0  0  0  0  3  0  0  0  0  0  0
  -24.7710  -27.5820   19.3440 C   0  0  0  0  0  3  0  0  0  0  0  0
  -23.5270  -29.7060   20.0780 C   0  0  0  0  0  2  0  0  0  0  0  0
  -24.5840  -30.9430   22.0150 N   0  0  0  0  0  0  0  0  0  0  0  0
  -23.4250  -32.0080   23.6600 O   0  0  0  0  0  0  0  0  0  0  0  0
  -22.6580  -29.3270   22.4220 C   0  0  0  0  0  0  0  0  0  0  0  0
  -21.3330  -29.1420   22.3000 N   0  0  0  0  0  0  0  0  0  0  0  0
  -23.3440  -28.6950   23.2290 O   0  0  0  0  0  0  0  0  0  0  0  0
  -20.8370  -29.6970   21.6170 H   0  0  0  0  0  0  0  0  0  0  0  0
  -17.9650  -27.9080   22.8210 C   0  0  0  0  0  0  0  0  0  0  0  0
  -20.5260  -28.1840   23.0610 C   0  0  0  0  0  3  0  0  0  0  0  0
  -20.6300  -26.7670   22.4550 C   0  0  0  0  0  2  0  0  0  0  0  0
  -19.5170  -26.4580   21.4480 C   0  0  0  0  0  2  0  0  0  0  0  0
  -18.1420  -26.5770   22.1120 C   0  0  0  0  0  2  0  0  0  0  0  0
  -19.0830  -28.6700   23.2520 C   0  0  0  0  0  0  0  0  0  0  0  0
  -18.8620  -29.9140   23.8790 C   0  0  0  0  0  3  0  0  0  0  0  0
  -17.5570  -30.4010   24.0770 C   0  0  0  0  0  3  0  0  0  0  0  0
  -16.4530  -29.6360   23.6640 C   0  0  0  0  0  3  0  0  0  0  0  0
  -16.6570  -28.3910   23.0440 C   0  0  0  0  0  3  0  0  0  0  0  0
  -25.7840  -32.3910   23.7480 C   0  0  0  0  0  3  0  0  0  0  0  0
  -25.4520  -33.7770   24.1120 N   0  0  0  0  0  0  0  0  0  0  0  0
  -25.7460  -34.8550   23.3720 C   0  0  0  0  0  0  0  0  0  0  0  0
  -26.3930  -34.7880   22.3240 O   0  0  0  0  0  0  0  0  0  0  0  0
  -24.8730  -33.9030   24.9300 H   0  0  0  0  0  0  0  0  0  0  0  0
  -23.9680  -36.6180   23.1130 C   0  0  0  0  0  1  0  0  0  0  0  0
  -25.2440  -36.2240   23.8740 C   0  0  0  0  0  3  0  0  0  0  0  0
  -27.3800  -37.1410   24.6620 C   0  0  0  0  0  1  0  0  0  0  0  0
  -26.2500  -37.3020   23.7490 N   0  0  0  0  0  0  0  0  0  0  0  0
  -25.8300  -38.2100   23.9270 H   0  0  0  0  0  0  0  0  0  0  0  0
  -26.3210  -31.6040   25.0080 C   0  0  1  0  0  0  0  0  0  0  0  0
  -25.2370  -31.3240   26.0750 C   0  0  0  0  0  1  0  0  0  0  0  0
  -26.9230  -30.2410   24.5920 C   0  0  0  0  0  1  0  0  0  0  0  0
  -27.4630  -32.4040   25.6790 C   0  0  0  0  0  1  0  0  0  0  0  0
  1  2  2  0
  1  4  1  0
  2  5  1  0
  3  6  1  0
  3  1  1  0
  6 53  1  0
  7  2  1  0
  8 13  1  0
  8  3  1  0
  8  7  1  0
  9 11  1  0
 10 12  2  0
 10 13  1  0
 12 14  1  0
 13  9  2  0
 14 23  1  0
 14 11  2  0
 15 23  1  0
 16 21  1  0
 17 18  1  0
 17 16  1  0
 19 18  1  0
 19 28  1  0
 19 20  1  0
 21 15  1  0
 21 20  1  0
 22 15  2  0
 23 24  1  0
 25 26  2  0
 26 45  1  0
 27 26  1  0
 27 30  1  0
 28 29  1  0
 28 25  1  0
 29 27  2  0
 30 31  1  0
 31 32  2  0
 33 36  1  0
 33 32  1  0
 34 33  2  0
 35 34  1  0
 35 30  2  0
 36 37  1  0
 37 38  1  0
 38 39  2  0
 40 39  1  0
 40 44  1  0
 41 40  2  0
 42 37  2  0
 42 41  1  0
 43 42  1  0
 45 46  1  0
 46 49  1  0
 46 48  1  0
 47 45  2  0
 50 25  1  0
 50 51  1  0
 52 50  1  0
 54 65  2  0
 55 53  1  0
 55 60  1  0
 56 64  1  0
 56 66  1  0
 57 63  1  0
 57 59  1  0
 58 64  1  0
 59 58  1  0
 60 59  2  0
 61 62  1  0
 61 55  2  0
 62 57  2  0
 63 56  1  0
 64 54  1  0
 66 68  2  0
 67 66  1  0
 69 67  1  0
 70 79  2  0
 70 75  1  0
 71 67  1  0
 71 75  1  0
 72 71  1  0
 73 74  1  0
 73 72  1  0
 74 70  1  0
 75 76  2  0
 76 77  1  0
 78 77  2  0
 79 78  1  0
 80 54  1  0
 80 81  1  0
 80 90  1  0
 81 84  1  0
 82 86  1  0
 82 81  1  0
 83 82  2  0
 86 85  1  0
 88 86  1  0
 88 89  1  0
 88 87  1  0
 90 93  1  1
 90 91  1  0
 92 90  1  0
M  ISO  4   6 101  15 100  23 100  53 101
M  END
>  <TORSDO>  (78) 
F 17

>  <SCORE>  (78) 
-12.929

>  <name>  (78) 
77

>  <ligand_id>  (78) 
77

>  <original_smiles>  (78) 
[H]C([H])=C1C(=C([H])Oc2c([H])c([H])c3c(c2[H])C([H])([H])N(C(=O)C([H])(N([H])C(=O)C([H])(N([H])C([H])([H])[H])C([H])([H])[H])C(C([H])([H])[H])(C([H])([H])[H])C([H])([H])[H])C([H])(C(=O)N([H])C2([H])c4c([H])c([H])c([H])c([H])c4C([H])([H])C([H])([H])C2([H])[H])C3([H])[H])N(c2c([H])c([H])c(N([H])C(=O)N3C([H])([H])C([H])([H])C([H])([H])C([H])(n4nc(-c5c([H])c([H])c(Oc6c([H])c([H])c(F)c([H])c6F)c([H])c5[H])c(C(=O)N([H])[H])c4N([H])[H])C3([H])[H])c([H])c2[H])C([H])([H])C1=C([H])[H]

>  <smiles>  (78) 
[H]C([H])=C1C(=C([H])Oc2c([H])c([H])c3c(c2[H])C([H])([H])N(C(=O)C([H])(N([H])C(=O)C([H])(N([H])C([H])([H])[H])C([H])([H])[H])C(C([H])([H])[H])(C([H])([H])[H])C([H])([H])[H])C([H])(C(=O)N([H])C2([H])c4c([H])c([H])c([H])c([H])c4C([H])([H])C([H])([H])C2([H])[H])C3([H])[H])N(c2c([H])c([H])c(N([H])C(=O)N3C([H])([H])C([H])([H])C([H])([H])C([H])(n4nc(-c5c([H])c([H])c(Oc6c([H])c([H])c(F)c([H])c6F)c([H])c5[H])c(C(=O)N([H])[H])c4N([H])[H])C3([H])[H])c([H])c2[H])C([H])([H])C1=C([H])[H]

$$$$
78:0:0
     RDKit          3D

 94103  0  0  1  0  0  0  0  0999 V2000
  -28.7210  -23.9850   20.2630 C   0  0  0  0  0  0  0  0  0  0  0  0
  -29.0690  -23.7900   21.6490 C   0  0  0  0  0  0  0  0  0  0  0  0
  -28.8360  -22.6120   19.6630 C   0  0  0  0  0  0  0  0  0  0  0  0
  -28.9480  -24.6940   22.6370 C   0  0  0  0  0  1  0  0  0  0  0  0
  -28.3940  -25.1740   19.6080 C   0  0  0  0  0  3  0  0  0  0  0  0
  -29.5460  -22.3700   21.8700 C   0  0  0  0  0  2  0  0  0  0  0  0
  -28.2170  -25.2480   18.0940 C   0  0  0  0  0  1  0  0  0  0  0  0
  -29.2780  -21.6910   20.5980 N   0  0  0  0  0  0  0  0  0  0  0  0
  -28.5820  -22.3040   18.4940 O   0  0  0  0  0  0  0  0  0  0  0  0
  -28.6270  -19.3680   19.7170 C   0  0  0  0  0  3  0  0  0  0  0  0
  -30.5030  -19.5280   21.1960 C   0  0  0  0  0  3  0  0  0  0  0  0
  -28.7540  -17.9420   19.7340 C   0  0  0  0  0  3  0  0  0  0  0  0
  -30.6510  -18.1010   21.1860 C   0  0  0  0  0  3  0  0  0  0  0  0
  -29.4790  -20.2200   20.4760 C   0  0  0  0  0  0  0  0  0  0  0  0
  -29.7610  -17.2550   20.4710 C   0  0  0  0  0  0  0  0  0  0  0  0
  -30.5680  -14.7490   20.3690 C   0  0  0  0  0  0  0  0  0  0  0  0
  -30.4120  -12.4840   19.3340 C   0  0  0  0  0  2  0  0  0  0  0  0
  -29.4580  -12.5780   18.1210 C   0  0  0  0  0  2  0  0  0  0  0  0
  -27.9880  -12.4020   18.5570 C   0  0  0  0  0  2  0  0  0  0  0  0
  -27.6220  -13.2700   19.7890 C   0  0  0  0  0  3  0  0  0  0  0  0
  -28.6870  -13.1420   20.9010 C   0  0  0  0  0  2  0  0  0  0  0  0
  -29.9860  -13.5050   20.3130 N   0  0  0  0  0  0  0  0  0  0  0  0
  -31.7460  -14.9180   20.0330 O   0  0  0  0  0  0  0  0  0  0  0  0
  -29.6970  -15.7900   20.6050 N   0  0  0  0  0  0  0  0  0  0  0  0
  -28.7620  -15.4420   20.7480 H   0  0  0  0  0  0  0  0  0  0  0  0
  -25.2330  -13.8640   20.5260 C   0  0  0  0  0  0  0  0  0  0  0  0
  -24.1700  -13.0880   20.8970 C   0  0  0  0  0  0  0  0  0  0  0  0
  -24.6330  -11.7380   20.8590 C   0  0  0  0  0  0  0  0  0  0  0  0
  -26.2770  -12.9860   20.2810 N   0  0  0  0  0  0  0  0  0  0  0  0
  -25.9220  -11.7010   20.5430 N   0  0  0  0  0  0  0  0  0  0  0  0
  -23.9100  -10.4740   21.0470 C   0  0  0  0  0  0  0  0  0  0  0  0
  -24.3510   -9.5010   21.9700 C   0  0  0  0  0  3  0  0  0  0  0  0
  -23.6290   -8.3020   22.1470 C   0  0  0  0  0  3  0  0  0  0  0  0
  -22.4490   -8.0670   21.4010 C   0  0  0  0  0  0  0  0  0  0  0  0
  -22.0260   -9.0290   20.4670 C   0  0  0  0  0  3  0  0  0  0  0  0
  -22.7500  -10.2200   20.2880 C   0  0  0  0  0  3  0  0  0  0  0  0
  -21.6980   -6.9210   21.4870 O   0  0  0  0  0  0  0  0  0  0  0  0
  -21.6600   -6.1690   22.6340 C   0  0  0  0  0  0  0  0  0  0  0  0
  -21.2320   -6.7100   23.8650 C   0  0  0  0  0  3  0  0  0  0  0  0
  -21.1410   -5.8850   25.0040 C   0  0  0  0  0  3  0  0  0  0  0  0
  -21.4680   -4.5190   24.9120 C   0  0  0  0  0  0  0  0  0  0  0  0
  -21.8900   -3.9770   23.6850 C   0  0  0  0  0  3  0  0  0  0  0  0
  -21.9830   -4.8000   22.5490 C   0  0  0  0  0  0  0  0  0  0  0  0
  -22.3680   -4.2680   21.3630 F   0  0  0  0  0  0  0  0  0  0  0  0
  -21.3740   -3.7240   26.0030 F   0  0  0  0  0  0  0  0  0  0  0  0
  -22.7720  -13.5630   21.1760 C   0  0  0  0  0  0  0  0  0  0  0  0
  -22.0490  -12.8640   22.0440 N   0  0  0  0  0  0  0  0  0  0  0  0
  -22.3310  -14.5910   20.6630 O   0  0  0  0  0  0  0  0  0  0  0  0
  -22.4170  -12.0320   22.4820 H   0  0  0  0  0  0  0  0  0  0  0  0
  -21.1130  -13.1660   22.2740 H   0  0  0  0  0  0  0  0  0  0  0  0
  -25.3940  -15.2370   20.3520 N   0  0  0  0  0  0  0  0  0  0  0  0
  -24.6230  -15.8850   20.4680 H   0  0  0  0  0  0  0  0  0  0  0  0
  -26.2300  -15.6810   19.9980 H   0  0  0  0  0  0  0  0  0  0  0  0
  -28.3500  -26.4730   20.1950 O   0  0  0  0  0  0  0  0  0  0  0  0
  -24.6340  -31.8940   23.2520 C   0  0  0  0  0  0  0  0  0  0  0  0
  -27.2200  -27.3240   20.1510 C   0  0  0  0  0  0  0  0  0  0  0  0
  -23.4160  -30.5000   21.6210 C   0  0  0  0  0  3  0  0  0  0  0  0
  -24.8510  -28.9520   20.1790 C   0  0  0  0  0  0  0  0  0  0  0  0
  -25.9550  -30.8180   21.4080 C   0  0  0  0  0  2  0  0  0  0  0  0
  -26.0300  -29.4370   20.7590 C   0  0  0  0  0  0  0  0  0  0  0  0
  -27.2140  -28.6350   20.7330 C   0  0  0  0  0  3  0  0  0  0  0  0
  -26.0000  -26.8850   19.5850 C   0  0  0  0  0  3  0  0  0  0  0  0
  -24.8390  -27.6810   19.5860 C   0  0  0  0  0  3  0  0  0  0  0  0
  -23.6170  -29.8310   20.2370 C   0  0  0  0  0  2  0  0  0  0  0  0
  -24.6900  -31.0880   22.1510 N   0  0  0  0  0  0  0  0  0  0  0  0
  -23.5560  -32.1690   23.7980 O   0  0  0  0  0  0  0  0  0  0  0  0
  -22.7620  -29.4810   22.5840 C   0  0  0  0  0  0  0  0  0  0  0  0
  -21.4370  -29.2940   22.4640 N   0  0  0  0  0  0  0  0  0  0  0  0
  -23.4480  -28.8600   23.4010 O   0  0  0  0  0  0  0  0  0  0  0  0
  -20.9430  -29.8470   21.7770 H   0  0  0  0  0  0  0  0  0  0  0  0
  -18.0700  -28.0670   22.9650 C   0  0  0  0  0  0  0  0  0  0  0  0
  -20.6270  -28.3530   23.2380 C   0  0  0  0  0  3  0  0  0  0  0  0
  -20.7420  -26.9190   22.6690 C   0  0  0  0  0  2  0  0  0  0  0  0
  -19.6450  -26.5820   21.6550 C   0  0  0  0  0  2  0  0  0  0  0  0
  -18.2610  -26.7160   22.2960 C   0  0  0  0  0  2  0  0  0  0  0  0
  -19.1810  -28.8420   23.3930 C   0  0  0  0  0  0  0  0  0  0  0  0
  -18.9480  -30.1050   23.9790 C   0  0  0  0  0  3  0  0  0  0  0  0
  -17.6380  -30.5940   24.1420 C   0  0  0  0  0  3  0  0  0  0  0  0
  -16.5420  -29.8150   23.7310 C   0  0  0  0  0  3  0  0  0  0  0  0
  -16.7600  -28.5550   23.1470 C   0  0  0  0  0  3  0  0  0  0  0  0
  -25.9220  -32.5240   23.8660 C   0  0  0  0  0  3  0  0  0  0  0  0
  -25.6140  -33.9220   24.2040 N   0  0  0  0  0  0  0  0  0  0  0  0
  -25.9230  -34.9770   23.4390 C   0  0  0  0  0  0  0  0  0  0  0  0
  -26.5650  -34.8760   22.3900 O   0  0  0  0  0  0  0  0  0  0  0  0
  -25.0390  -34.0740   25.0200 H   0  0  0  0  0  0  0  0  0  0  0  0
  -24.1750  -36.7620   23.1370 C   0  0  0  0  0  1  0  0  0  0  0  0
  -25.4430  -36.3630   23.9090 C   0  0  0  0  0  3  0  0  0  0  0  0
  -27.5980  -37.2650   24.6690 C   0  0  0  0  0  1  0  0  0  0  0  0
  -26.4650  -37.4220   23.7610 N   0  0  0  0  0  0  0  0  0  0  0  0
  -26.0590  -38.3410   23.9150 H   0  0  0  0  0  0  0  0  0  0  0  0
  -26.4470  -31.7470   25.1360 C   0  0  1  0  0  0  0  0  0  0  0  0
  -25.3630  -31.5110   26.2120 C   0  0  0  0  0  1  0  0  0  0  0  0
  -27.0190  -30.3670   24.7340 C   0  0  0  0  0  1  0  0  0  0  0  0
  -27.6080  -32.5340   25.7890 C   0  0  0  0  0  1  0  0  0  0  0  0
  1  2  2  0
  2  6  1  0
  2  4  1  0
  3  1  1  0
  3  8  1  0
  5  7  1  0
  5 54  1  0
  5  1  1  0
  8  6  1  0
  9  3  2  0
 10 12  2  0
 10 14  1  0
 12 15  1  0
 13 11  1  0
 14  8  1  0
 14 11  2  0
 15 24  1  0
 15 13  2  0
 16 24  1  0
 17 22  1  0
 18 19  1  0
 18 17  1  0
 20 19  1  0
 20 29  1  0
 20 21  1  0
 22 16  1  0
 22 21  1  0
 23 16  2  0
 24 25  1  0
 26 27  2  0
 27 46  1  0
 28 27  1  0
 28 31  1  0
 29 26  1  0
 29 30  1  0
 30 28  2  0
 31 32  1  0
 32 33  2  0
 34 37  1  0
 34 33  1  0
 35 34  2  0
 36 35  1  0
 36 31  2  0
 37 38  1  0
 38 39  1  0
 39 40  2  0
 41 40  1  0
 41 45  1  0
 42 41  2  0
 43 38  2  0
 43 42  1  0
 44 43  1  0
 46 47  1  0
 47 50  1  0
 47 49  1  0
 48 46  2  0
 51 52  1  0
 51 26  1  0
 53 51  1  0
 55 66  2  0
 56 54  1  0
 56 61  1  0
 57 65  1  0
 57 67  1  0
 58 64  1  0
 58 60  1  0
 59 65  1  0
 60 59  1  0
 61 60  2  0
 62 63  1  0
 62 56  2  0
 63 58  2  0
 64 57  1  0
 65 55  1  0
 67 69  2  0
 68 67  1  0
 70 68  1  0
 71 80  2  0
 71 76  1  0
 72 68  1  0
 72 76  1  0
 73 72  1  0
 74 75  1  0
 74 73  1  0
 75 71  1  0
 76 77  2  0
 77 78  1  0
 79 78  2  0
 80 79  1  0
 81 55  1  0
 81 82  1  0
 81 91  1  0
 82 85  1  0
 83 87  1  0
 83 82  1  0
 84 83  2  0
 87 86  1  0
 89 87  1  0
 89 90  1  0
 89 88  1  0
 91 94  1  1
 91 92  1  0
 93 91  1  0
M  ISO  4   5 101  16 100  24 100  54 101
M  END
>  <TORSDO>  (79) 
F 17

>  <SCORE>  (79) 
-15.512

>  <name>  (79) 
78

>  <ligand_id>  (79) 
78

>  <original_smiles>  (79) 
[H]C([H])=C1C(=C(Oc2c([H])c([H])c3c(c2[H])C([H])([H])N(C(=O)C([H])(N([H])C(=O)C([H])(N([H])C([H])([H])[H])C([H])([H])[H])C(C([H])([H])[H])(C([H])([H])[H])C([H])([H])[H])C([H])(C(=O)N([H])C2([H])c4c([H])c([H])c([H])c([H])c4C([H])([H])C([H])([H])C2([H])[H])C3([H])[H])C([H])([H])[H])C(=O)N(c2c([H])c([H])c(N([H])C(=O)N3C([H])([H])C([H])([H])C([H])([H])C([H])(n4nc(-c5c([H])c([H])c(Oc6c([H])c([H])c(F)c([H])c6F)c([H])c5[H])c(C(=O)N([H])[H])c4N([H])[H])C3([H])[H])c([H])c2[H])C1([H])[H]

>  <smiles>  (79) 
[H]C([H])=C1C(=C(Oc2c([H])c([H])c3c(c2[H])C([H])([H])N(C(=O)C([H])(N([H])C(=O)C([H])(N([H])C([H])([H])[H])C([H])([H])[H])C(C([H])([H])[H])(C([H])([H])[H])C([H])([H])[H])C([H])(C(=O)N([H])C2([H])c4c([H])c([H])c([H])c([H])c4C([H])([H])C([H])([H])C2([H])[H])C3([H])[H])C([H])([H])[H])C(=O)N(c2c([H])c([H])c(N([H])C(=O)N3C([H])([H])C([H])([H])C([H])([H])C([H])(n4nc(-c5c([H])c([H])c(Oc6c([H])c([H])c(F)c([H])c6F)c([H])c5[H])c(C(=O)N([H])[H])c4N([H])[H])C3([H])[H])c([H])c2[H])C1([H])[H]

$$$$
79:0:0
     RDKit          3D

 92101  0  0  1  0  0  0  0  0999 V2000
  -28.8260  -23.6970   20.1340 C   0  0  0  0  0  0  0  0  0  0  0  0
  -30.1580  -23.4920   19.6180 C   0  0  0  0  0  0  0  0  0  0  0  0
  -28.3720  -22.2810   20.4280 C   0  0  0  0  0  0  0  0  0  0  0  0
  -31.0080  -24.4760   19.2810 C   0  0  0  0  0  2  0  0  0  0  0  0
  -28.0800  -24.8840   20.3400 C   0  0  0  0  0  3  0  0  0  0  0  0
  -30.4960  -21.9960   19.5420 C   0  0  0  0  0  2  0  0  0  0  0  0
  -29.3250  -21.2970   20.1000 N   0  0  0  0  0  0  0  0  0  0  0  0
  -27.2660  -22.0100   20.9060 O   0  0  0  0  0  0  0  0  0  0  0  0
  -30.1290  -18.7890   19.9520 C   0  0  0  0  0  3  0  0  0  0  0  0
  -28.3180  -17.9400   20.9130 C   0  0  0  0  0  3  0  0  0  0  0  0
  -29.5050  -17.5090   20.3690 C   0  0  0  0  0  0  0  0  0  0  0  0
  -29.2540  -19.8710   20.2730 C   0  0  0  0  0  0  0  0  0  0  0  0
  -28.1580  -19.3070   20.8660 O   0  0  0  0  0  0  0  0  0  0  0  0
  -30.6390  -14.9880   19.9370 C   0  0  0  0  0  0  0  0  0  0  0  0
  -30.5530  -12.6650   18.9350 C   0  0  0  0  0  2  0  0  0  0  0  0
  -29.5320  -12.6640   17.7700 C   0  0  0  0  0  2  0  0  0  0  0  0
  -28.0980  -12.4220   18.2890 C   0  0  0  0  0  2  0  0  0  0  0  0
  -27.7630  -13.2980   19.5230 C   0  0  0  0  0  3  0  0  0  0  0  0
  -28.8910  -13.2450   20.5770 C   0  0  0  0  0  2  0  0  0  0  0  0
  -30.1280  -13.6960   19.9160 N   0  0  0  0  0  0  0  0  0  0  0  0
  -31.7830  -15.1860   19.5120 O   0  0  0  0  0  0  0  0  0  0  0  0
  -29.7410  -16.0020   20.3170 N   0  0  0  0  0  0  0  0  0  0  0  0
  -28.9330  -15.5190   20.6800 H   0  0  0  0  0  0  0  0  0  0  0  0
  -25.4310  -13.8330   20.4440 C   0  0  0  0  0  0  0  0  0  0  0  0
  -24.3990  -13.0340   20.8550 C   0  0  0  0  0  0  0  0  0  0  0  0
  -24.8670  -11.6890   20.7330 C   0  0  0  0  0  0  0  0  0  0  0  0
  -26.4600  -12.9740   20.0930 N   0  0  0  0  0  0  0  0  0  0  0  0
  -26.1330  -11.6770   20.3300 N   0  0  0  0  0  0  0  0  0  0  0  0
  -24.1640  -10.4150   20.9200 C   0  0  0  0  0  0  0  0  0  0  0  0
  -24.5900   -9.4680   21.8780 C   0  0  0  0  0  3  0  0  0  0  0  0
  -23.8860   -8.2570   22.0510 C   0  0  0  0  0  3  0  0  0  0  0  0
  -22.7420   -7.9830   21.2660 C   0  0  0  0  0  0  0  0  0  0  0  0
  -22.3340   -8.9180   20.2980 C   0  0  0  0  0  3  0  0  0  0  0  0
  -23.0400  -10.1210   20.1220 C   0  0  0  0  0  3  0  0  0  0  0  0
  -22.0100   -6.8230   21.3460 O   0  0  0  0  0  0  0  0  0  0  0  0
  -21.8410   -6.1590   22.5360 C   0  0  0  0  0  0  0  0  0  0  0  0
  -21.2400   -6.7780   23.6540 C   0  0  0  0  0  3  0  0  0  0  0  0
  -21.0240   -6.0390   24.8340 C   0  0  0  0  0  3  0  0  0  0  0  0
  -21.3960   -4.6830   24.8950 C   0  0  0  0  0  0  0  0  0  0  0  0
  -21.9890   -4.0640   23.7800 C   0  0  0  0  0  3  0  0  0  0  0  0
  -22.2080   -4.8000   22.6030 C   0  0  0  0  0  0  0  0  0  0  0  0
  -22.7600   -4.1930   21.5250 F   0  0  0  0  0  0  0  0  0  0  0  0
  -21.1810   -3.9710   26.0260 F   0  0  0  0  0  0  0  0  0  0  0  0
  -23.0210  -13.4870   21.2420 C   0  0  0  0  0  0  0  0  0  0  0  0
  -22.3620  -12.7540   22.1330 N   0  0  0  0  0  0  0  0  0  0  0  0
  -22.5390  -14.5260   20.7910 O   0  0  0  0  0  0  0  0  0  0  0  0
  -22.7660  -11.9130   22.5190 H   0  0  0  0  0  0  0  0  0  0  0  0
  -21.4420  -13.0400   22.4350 H   0  0  0  0  0  0  0  0  0  0  0  0
  -25.5720  -15.2120   20.3160 N   0  0  0  0  0  0  0  0  0  0  0  0
  -24.8030  -15.8460   20.5040 H   0  0  0  0  0  0  0  0  0  0  0  0
  -26.3600  -15.6710   19.8760 H   0  0  0  0  0  0  0  0  0  0  0  0
  -28.3520  -26.3010   20.1430 O   0  0  0  0  0  0  0  0  0  0  0  0
  -24.6590  -31.8780   23.2100 C   0  0  0  0  0  0  0  0  0  0  0  0
  -27.2850  -27.2590   20.1230 C   0  0  0  0  0  0  0  0  0  0  0  0
  -23.4720  -30.5030   21.5420 C   0  0  0  0  0  3  0  0  0  0  0  0
  -24.9380  -28.9600   20.1020 C   0  0  0  0  0  0  0  0  0  0  0  0
  -26.0230  -30.7910   21.3970 C   0  0  0  0  0  2  0  0  0  0  0  0
  -26.1080  -29.4120   20.7280 C   0  0  0  0  0  0  0  0  0  0  0  0
  -27.2830  -28.5750   20.7290 C   0  0  0  0  0  3  0  0  0  0  0  0
  -26.0930  -26.9030   19.4540 C   0  0  0  0  0  3  0  0  0  0  0  0
  -24.9410  -27.7160   19.4520 C   0  0  0  0  0  3  0  0  0  0  0  0
  -23.7040  -29.8460   20.1550 C   0  0  0  0  0  2  0  0  0  0  0  0
  -24.7370  -31.0770   22.1050 N   0  0  0  0  0  0  0  0  0  0  0  0
  -23.5690  -32.1500   23.7360 O   0  0  0  0  0  0  0  0  0  0  0  0
  -22.7940  -29.4800   22.4840 C   0  0  0  0  0  0  0  0  0  0  0  0
  -21.4660  -29.3100   22.3490 N   0  0  0  0  0  0  0  0  0  0  0  0
  -23.4630  -28.8400   23.2990 O   0  0  0  0  0  0  0  0  0  0  0  0
  -20.9820  -29.8780   21.6680 H   0  0  0  0  0  0  0  0  0  0  0  0
  -18.0760  -28.1410   22.8590 C   0  0  0  0  0  0  0  0  0  0  0  0
  -20.6420  -28.3620   23.1040 C   0  0  0  0  0  3  0  0  0  0  0  0
  -20.7170  -26.9450   22.4870 C   0  0  0  0  0  2  0  0  0  0  0  0
  -19.5990  -26.6660   21.4770 C   0  0  0  0  0  2  0  0  0  0  0  0
  -18.2280  -26.8110   22.1410 C   0  0  0  0  0  2  0  0  0  0  0  0
  -19.2100  -28.8760   23.2970 C   0  0  0  0  0  0  0  0  0  0  0  0
  -19.0130  -30.1230   23.9320 C   0  0  0  0  0  3  0  0  0  0  0  0
  -17.7170  -30.6340   24.1310 C   0  0  0  0  0  3  0  0  0  0  0  0
  -16.5980  -29.8960   23.7060 C   0  0  0  0  0  3  0  0  0  0  0  0
  -16.7790  -28.6510   23.0780 C   0  0  0  0  0  3  0  0  0  0  0  0
  -25.9330  -32.5060   23.8530 C   0  0  0  0  0  3  0  0  0  0  0  0
  -25.6200  -33.9040   24.1910 N   0  0  0  0  0  0  0  0  0  0  0  0
  -25.9390  -34.9630   23.4350 C   0  0  0  0  0  0  0  0  0  0  0  0
  -26.5940  -34.8650   22.3950 O   0  0  0  0  0  0  0  0  0  0  0  0
  -25.0330  -34.0510   25.0000 H   0  0  0  0  0  0  0  0  0  0  0  0
  -24.1920  -36.7480   23.1320 C   0  0  0  0  0  1  0  0  0  0  0  0
  -25.4570  -36.3490   23.9080 C   0  0  0  0  0  3  0  0  0  0  0  0
  -27.6030  -37.2540   24.6880 C   0  0  0  0  0  1  0  0  0  0  0  0
  -26.4810  -37.4070   23.7650 N   0  0  0  0  0  0  0  0  0  0  0  0
  -26.0720  -38.3250   23.9130 H   0  0  0  0  0  0  0  0  0  0  0  0
  -26.4290  -31.7270   25.1340 C   0  0  1  0  0  0  0  0  0  0  0  0
  -25.3190  -31.4890   26.1840 C   0  0  0  0  0  1  0  0  0  0  0  0
  -27.0150  -30.3490   24.7480 C   0  0  0  0  0  1  0  0  0  0  0  0
  -27.5700  -32.5160   25.8160 C   0  0  0  0  0  1  0  0  0  0  0  0
  1  5  2  0
  1  3  1  0
  2  1  1  0
  3  8  2  0
  4  2  2  0
  6  2  1  0
  6  7  1  0
  7 12  1  0
  7  3  1  0
  9 12  2  0
  9 11  1  0
 11 10  2  0
 12 13  1  0
 13 10  1  0
 14 22  1  0
 15 20  1  0
 16 17  1  0
 16 15  1  0
 18 17  1  0
 18 27  1  0
 18 19  1  0
 20 14  1  0
 20 19  1  0
 21 14  2  0
 22 11  1  0
 22 23  1  0
 24 25  2  0
 25 44  1  0
 26 25  1  0
 26 29  1  0
 27 28  1  0
 27 24  1  0
 28 26  2  0
 29 30  1  0
 30 31  2  0
 32 35  1  0
 32 31  1  0
 33 32  2  0
 34 33  1  0
 34 29  2  0
 35 36  1  0
 36 41  2  0
 36 37  1  0
 37 38  2  0
 38 39  1  0
 39 43  1  0
 40 39  2  0
 41 40  1  0
 42 41  1  0
 44 45  1  0
 45 48  1  0
 45 47  1  0
 46 44  2  0
 49 24  1  0
 49 50  1  0
 51 49  1  0
 52  5  1  0
 53 64  2  0
 54 52  1  0
 54 59  1  0
 55 63  1  0
 55 65  1  0
 56 62  1  0
 56 58  1  0
 57 63  1  0
 58 59  2  0
 58 57  1  0
 60 54  2  0
 61 60  1  0
 61 56  2  0
 62 55  1  0
 63 53  1  0
 65 67  2  0
 66 65  1  0
 68 66  1  0
 69 78  2  0
 69 74  1  0
 70 66  1  0
 70 74  1  0
 71 70  1  0
 72 73  1  0
 72 71  1  0
 73 69  1  0
 74 75  2  0
 75 76  1  0
 77 76  2  0
 78 77  1  0
 79 53  1  0
 79 80  1  0
 79 89  1  0
 80 83  1  0
 81 85  1  0
 81 80  1  0
 82 81  2  0
 85 84  1  0
 87 85  1  0
 87 88  1  0
 87 86  1  0
 89 92  1  1
 89 90  1  0
 91 89  1  0
M  ISO  4   5 101  14 100  22 100  52 101
M  END
>  <TORSDO>  (80) 
F 17

>  <SCORE>  (80) 
-14.228

>  <name>  (80) 
79

>  <ligand_id>  (80) 
79

>  <original_smiles>  (80) 
[H]C([H])=C1C(=C([H])Oc2c([H])c([H])c3c(c2[H])C([H])([H])N(C(=O)C([H])(N([H])C(=O)C([H])(N([H])C([H])([H])[H])C([H])([H])[H])C(C([H])([H])[H])(C([H])([H])[H])C([H])([H])[H])C([H])(C(=O)N([H])C2([H])c4c([H])c([H])c([H])c([H])c4C([H])([H])C([H])([H])C2([H])[H])C3([H])[H])C(=O)N(c2oc([H])c(N([H])C(=O)N3C([H])([H])C([H])([H])C([H])([H])C([H])(n4nc(-c5c([H])c([H])c(Oc6c([H])c([H])c(F)c([H])c6F)c([H])c5[H])c(C(=O)N([H])[H])c4N([H])[H])C3([H])[H])c2[H])C1([H])[H]

>  <smiles>  (80) 
[H]C([H])=C1C(=C([H])Oc2c([H])c([H])c3c(c2[H])C([H])([H])N(C(=O)C([H])(N([H])C(=O)C([H])(N([H])C([H])([H])[H])C([H])([H])[H])C(C([H])([H])[H])(C([H])([H])[H])C([H])([H])[H])C([H])(C(=O)N([H])C2([H])c4c([H])c([H])c([H])c([H])c4C([H])([H])C([H])([H])C2([H])[H])C3([H])[H])C(=O)N(c2oc([H])c(N([H])C(=O)N3C([H])([H])C([H])([H])C([H])([H])C([H])(n4nc(-c5c([H])c([H])c(Oc6c([H])c([H])c(F)c([H])c6F)c([H])c5[H])c(C(=O)N([H])[H])c4N([H])[H])C3([H])[H])c2[H])C1([H])[H]

$$$$
80:0:0
     RDKit          3D

 96104  0  0  1  0  0  0  0  0999 V2000
  -28.9760  -20.4320   19.4300 C   0  0  0  0  0  0  0  0  0  0  0  0
  -28.3590  -22.9050   19.1730 C   0  0  0  0  0  0  0  0  0  0  0  0
  -28.9990  -21.7490   19.8020 N   0  0  0  0  0  0  0  0  0  0  0  0
  -28.2660  -20.0470   18.3580 N   0  0  0  0  0  4  0  0  0  0  0  0
  -27.7530  -22.8000   18.0950 O   0  0  0  0  0  0  0  0  0  0  0  0
  -29.5040  -21.8770   20.6640 H   0  0  0  0  0  0  0  0  0  0  0  0
  -28.1050  -19.0720   18.1610 H   0  0  0  0  0  0  0  0  0  0  0  0
  -27.8350  -20.7500   17.7680 H   0  0  0  0  0  0  0  0  0  0  0  0
  -30.7850  -18.7200   22.3350 C   0  0  0  0  0  3  0  0  0  0  0  0
  -30.1930  -19.7040   21.5200 C   0  0  0  0  0  3  0  0  0  0  0  0
  -30.8960  -17.3860   21.8850 C   0  0  0  0  0  3  0  0  0  0  0  0
  -29.8570  -18.0300   19.7720 C   0  0  0  0  0  3  0  0  0  0  0  0
  -29.6970  -19.3820   20.2310 C   0  0  0  0  0  0  0  0  0  0  0  0
  -30.4430  -17.0180   20.5960 C   0  0  0  0  0  0  0  0  0  0  0  0
  -31.1710  -14.6100   19.9790 C   0  0  0  0  0  0  0  0  0  0  0  0
  -30.9330  -12.3600   18.9630 C   0  0  0  0  0  2  0  0  0  0  0  0
  -29.9450  -12.4680   17.7790 C   0  0  0  0  0  2  0  0  0  0  0  0
  -28.4780  -12.3700   18.2570 C   0  0  0  0  0  2  0  0  0  0  0  0
  -28.1840  -13.2980   19.4620 C   0  0  0  0  0  3  0  0  0  0  0  0
  -29.2510  -13.0960   20.5600 C   0  0  0  0  0  2  0  0  0  0  0  0
  -30.5630  -13.3880   19.9490 N   0  0  0  0  0  0  0  0  0  0  0  0
  -32.3140  -14.7900   19.5480 O   0  0  0  0  0  0  0  0  0  0  0  0
  -30.3080  -15.6140   20.3200 N   0  0  0  0  0  0  0  0  0  0  0  0
  -29.4170  -15.2380   20.6100 H   0  0  0  0  0  0  0  0  0  0  0  0
  -25.8630  -14.0640   20.2660 C   0  0  0  0  0  0  0  0  0  0  0  0
  -24.7620  -13.3630   20.6760 C   0  0  0  0  0  0  0  0  0  0  0  0
  -25.1340  -11.9830   20.6250 C   0  0  0  0  0  0  0  0  0  0  0  0
  -26.8340  -13.1130   19.9870 N   0  0  0  0  0  0  0  0  0  0  0  0
  -26.4040  -11.8590   20.2640 N   0  0  0  0  0  0  0  0  0  0  0  0
  -24.3380  -10.7710   20.8430 C   0  0  0  0  0  0  0  0  0  0  0  0
  -24.7200   -9.7990   21.7940 C   0  0  0  0  0  3  0  0  0  0  0  0
  -23.9340   -8.6450   21.9930 C   0  0  0  0  0  3  0  0  0  0  0  0
  -22.7460   -8.4590   21.2450 C   0  0  0  0  0  0  0  0  0  0  0  0
  -22.3840   -9.4170   20.2820 C   0  0  0  0  0  3  0  0  0  0  0  0
  -23.1730  -10.5620   20.0800 C   0  0  0  0  0  3  0  0  0  0  0  0
  -21.9290   -7.3590   21.3570 O   0  0  0  0  0  0  0  0  0  0  0  0
  -21.8020   -6.6760   22.5390 C   0  0  0  0  0  0  0  0  0  0  0  0
  -21.3690   -7.3110   23.7250 C   0  0  0  0  0  3  0  0  0  0  0  0
  -21.1800   -6.5530   24.8990 C   0  0  0  0  0  3  0  0  0  0  0  0
  -21.4160   -5.1650   24.8890 C   0  0  0  0  0  0  0  0  0  0  0  0
  -21.8460   -4.5330   23.7090 C   0  0  0  0  0  3  0  0  0  0  0  0
  -22.0350   -5.2860   22.5380 C   0  0  0  0  0  0  0  0  0  0  0  0
  -22.4250   -4.6680   21.3970 F   0  0  0  0  0  0  0  0  0  0  0  0
  -21.2310   -4.4370   26.0140 F   0  0  0  0  0  0  0  0  0  0  0  0
  -23.4100  -13.9280   21.0010 C   0  0  0  0  0  0  0  0  0  0  0  0
  -22.6720  -13.2790   21.8990 N   0  0  0  0  0  0  0  0  0  0  0  0
  -23.0160  -14.9770   20.4920 O   0  0  0  0  0  0  0  0  0  0  0  0
  -23.0030  -12.4320   22.3340 H   0  0  0  0  0  0  0  0  0  0  0  0
  -21.7630  -13.6370   22.1510 H   0  0  0  0  0  0  0  0  0  0  0  0
  -26.1150  -15.4200   20.0890 N   0  0  0  0  0  0  0  0  0  0  0  0
  -25.4030  -16.1260   20.2310 H   0  0  0  0  0  0  0  0  0  0  0  0
  -26.9590  -15.7990   19.6790 H   0  0  0  0  0  0  0  0  0  0  0  0
  -28.4650  -24.2550   19.9270 C   0  0  0  0  0  0  0  0  0  0  0  0
  -29.1290  -24.1790   21.2980 C   0  0  0  0  0  1  0  0  0  0  0  0
  -28.0020  -25.3560   19.4290 N   0  0  0  0  0  0  0  0  0  0  0  0
  -28.1170  -26.5360   20.2440 O   0  0  0  0  0  0  0  0  0  0  0  0
  -24.5970  -31.9520   23.3710 C   0  0  0  0  0  0  0  0  0  0  0  0
  -26.9900  -27.3600   20.2390 C   0  0  0  0  0  0  0  0  0  0  0  0
  -23.3100  -30.6090   21.7500 C   0  0  0  0  0  3  0  0  0  0  0  0
  -24.6710  -29.0090   20.3080 C   0  0  0  0  0  0  0  0  0  0  0  0
  -25.8480  -30.8520   21.5070 C   0  0  0  0  0  2  0  0  0  0  0  0
  -25.8680  -29.4710   20.8670 C   0  0  0  0  0  0  0  0  0  0  0  0
  -27.0300  -28.6530   20.8330 C   0  0  0  0  0  3  0  0  0  0  0  0
  -25.7540  -26.9210   19.7030 C   0  0  0  0  0  3  0  0  0  0  0  0
  -24.6090  -27.7330   19.7290 C   0  0  0  0  0  3  0  0  0  0  0  0
  -23.4690  -29.9270   20.3700 C   0  0  0  0  0  2  0  0  0  0  0  0
  -24.6070  -31.1520   22.2660 N   0  0  0  0  0  0  0  0  0  0  0  0
  -23.5380  -32.2660   23.9270 O   0  0  0  0  0  0  0  0  0  0  0  0
  -22.6330  -29.6120   22.7210 C   0  0  0  0  0  0  0  0  0  0  0  0
  -21.3110  -29.4230   22.5670 N   0  0  0  0  0  0  0  0  0  0  0  0
  -23.2930  -29.0100   23.5720 O   0  0  0  0  0  0  0  0  0  0  0  0
  -20.8370  -29.9650   21.8560 H   0  0  0  0  0  0  0  0  0  0  0  0
  -17.9430  -28.1750   22.9470 C   0  0  0  0  0  0  0  0  0  0  0  0
  -20.4740  -28.5070   23.3450 C   0  0  0  0  0  3  0  0  0  0  0  0
  -20.6390  -27.0500   22.8580 C   0  0  0  0  0  2  0  0  0  0  0  0
  -19.6030  -26.6480   21.8020 C   0  0  0  0  0  2  0  0  0  0  0  0
  -18.1840  -26.7970   22.3590 C   0  0  0  0  0  2  0  0  0  0  0  0
  -19.0190  -28.9830   23.3960 C   0  0  0  0  0  0  0  0  0  0  0  0
  -18.7420  -30.2730   23.9030 C   0  0  0  0  0  3  0  0  0  0  0  0
  -17.4210  -30.7540   23.9650 C   0  0  0  0  0  3  0  0  0  0  0  0
  -16.3590  -29.9460   23.5310 C   0  0  0  0  0  3  0  0  0  0  0  0
  -16.6190  -28.6560   23.0310 C   0  0  0  0  0  3  0  0  0  0  0  0
  -25.9140  -32.5340   23.9710 C   0  0  0  0  0  3  0  0  0  0  0  0
  -25.6680  -33.9480   24.2820 N   0  0  0  0  0  0  0  0  0  0  0  0
  -26.0380  -34.9730   23.4990 C   0  0  0  0  0  0  0  0  0  0  0  0
  -26.6870  -34.8200   22.4590 O   0  0  0  0  0  0  0  0  0  0  0  0
  -25.0710  -34.1360   25.0720 H   0  0  0  0  0  0  0  0  0  0  0  0
  -24.3670  -36.8190   23.1540 C   0  0  0  0  0  1  0  0  0  0  0  0
  -25.6190  -36.3880   23.9370 C   0  0  0  0  0  3  0  0  0  0  0  0
  -27.8140  -37.1970   24.6810 C   0  0  0  0  0  1  0  0  0  0  0  0
  -26.6900  -37.3970   23.7710 N   0  0  0  0  0  0  0  0  0  0  0  0
  -26.3290  -38.3370   23.9150 H   0  0  0  0  0  0  0  0  0  0  0  0
  -26.4080  -31.7580   25.2540 C   0  0  1  0  0  0  0  0  0  0  0  0
  -25.3100  -31.5840   26.3290 C   0  0  0  0  0  1  0  0  0  0  0  0
  -26.9240  -30.3530   24.8700 C   0  0  0  0  0  1  0  0  0  0  0  0
  -27.6030  -32.5030   25.8900 C   0  0  0  0  0  1  0  0  0  0  0  0
  1  3  1  0
  1 13  1  0
  2  3  1  0
  2 53  1  0
  3  6  1  0
  4  1  2  0
  5  2  2  0
  7  4  1  0
  8  4  1  0
 10  9  2  0
 11  9  1  0
 12 13  2  0
 12 14  1  0
 13 10  1  0
 14 11  2  0
 15 23  1  0
 16 21  1  0
 17 18  1  0
 17 16  1  0
 19 18  1  0
 19 28  1  0
 19 20  1  0
 21 15  1  0
 21 20  1  0
 22 15  2  0
 23 14  1  0
 23 24  1  0
 25 26  2  0
 26 45  1  0
 27 26  1  0
 27 30  1  0
 28 29  1  0
 28 25  1  0
 29 27  2  0
 30 31  1  0
 31 32  2  0
 33 36  1  0
 33 32  1  0
 34 33  2  0
 35 34  1  0
 35 30  2  0
 36 37  1  0
 37 38  1  0
 38 39  2  0
 40 39  1  0
 40 44  1  0
 41 40  2  0
 42 37  2  0
 42 41  1  0
 43 42  1  0
 45 46  1  0
 46 49  1  0
 46 48  1  0
 47 45  2  0
 50 51  1  0
 50 25  1  0
 52 50  1  0
 53 54  1  0
 55 53  2  0
 55 56  1  0
 57 68  2  0
 58 56  1  0
 58 63  1  0
 59 67  1  0
 59 69  1  0
 60 66  1  0
 60 62  1  0
 61 67  1  0
 62 61  1  0
 63 62  2  0
 64 65  1  0
 64 58  2  0
 65 60  2  0
 66 59  1  0
 67 57  1  0
 69 71  2  0
 70 69  1  0
 72 70  1  0
 73 82  2  0
 73 78  1  0
 74 70  1  0
 74 78  1  0
 75 74  1  0
 76 77  1  0
 76 75  1  0
 77 73  1  0
 78 79  2  0
 79 80  1  0
 81 80  2  0
 82 81  1  0
 83 57  1  0
 83 84  1  0
 83 93  1  0
 84 87  1  0
 85 89  1  0
 85 84  1  0
 86 85  2  0
 89 88  1  0
 91 92  1  0
 91 89  1  0
 91 90  1  0
 93 96  1  1
 93 94  1  0
 95 93  1  0
M  ISO  4  15 100  23 100  55 101  56 101
M  END
>  <TORSDO>  (81) 
F 18

>  <SCORE>  (81) 
-14.046

>  <name>  (81) 
80

>  <ligand_id>  (81) 
80

>  <original_smiles>  (81) 
[H]c1c([H])c(C(N([H])C(=O)C(=NOc2c([H])c([H])c3c(c2[H])C([H])([H])N(C(=O)C([H])(N([H])C(=O)C([H])(N([H])C([H])([H])[H])C([H])([H])[H])C(C([H])([H])[H])(C([H])([H])[H])C([H])([H])[H])C([H])(C(=O)N([H])C2([H])c4c([H])c([H])c([H])c([H])c4C([H])([H])C([H])([H])C2([H])[H])C3([H])[H])C([H])([H])[H])=[N+]([H])[H])c([H])c(N([H])C(=O)N2C([H])([H])C([H])([H])C([H])([H])C([H])(n3nc(-c4c([H])c([H])c(Oc5c([H])c([H])c(F)c([H])c5F)c([H])c4[H])c(C(=O)N([H])[H])c3N([H])[H])C2([H])[H])c1[H]

>  <smiles>  (81) 
[H]c1c([H])c(C(N([H])C(=O)C(=NOc2c([H])c([H])c3c(c2[H])C([H])([H])N(C(=O)C([H])(N([H])C(=O)C([H])(N([H])C([H])([H])[H])C([H])([H])[H])C(C([H])([H])[H])(C([H])([H])[H])C([H])([H])[H])C([H])(C(=O)N([H])C2([H])c4c([H])c([H])c([H])c([H])c4C([H])([H])C([H])([H])C2([H])[H])C3([H])[H])C([H])([H])[H])=[N+]([H])[H])c([H])c(N([H])C(=O)N2C([H])([H])C([H])([H])C([H])([H])C([H])(n3nc(-c4c([H])c([H])c(Oc5c([H])c([H])c(F)c([H])c5F)c([H])c4[H])c(C(=O)N([H])[H])c3N([H])[H])C2([H])[H])c1[H]

$$$$
81:0:0
     RDKit          3D

 94103  0  0  1  0  0  0  0  0999 V2000
  -26.6410  -23.9540   20.7060 C   0  0  0  0  0  3  0  0  0  0  0  0
  -27.9740  -24.1080   20.6430 C   0  0  0  0  0  0  0  0  0  0  0  0
  -25.9410  -22.6120   20.6920 C   0  0  0  0  0  2  0  0  0  0  0  0
  -28.8750  -22.7970   20.6300 C   0  0  0  0  0  2  0  0  0  0  0  0
  -26.7960  -21.4750   20.1230 C   0  0  0  0  0  2  0  0  0  0  0  0
  -28.1830  -21.4430   20.6200 N   0  0  0  0  0  0  0  0  0  0  0  0
  -28.1440  -19.0200   19.9500 C   0  0  0  0  0  3  0  0  0  0  0  0
  -28.6670  -17.7020   19.8610 C   0  0  0  0  0  3  0  0  0  0  0  0
  -30.6340  -18.4180   21.0050 C   0  0  0  0  0  3  0  0  0  0  0  0
  -30.0870  -19.7480   21.1370 C   0  0  0  0  0  0  0  0  0  0  0  0
  -28.8140  -20.1200   20.5710 C   0  0  0  0  0  0  0  0  0  0  0  0
  -29.9520  -17.3560   20.3410 C   0  0  0  0  0  0  0  0  0  0  0  0
  -30.9160  -20.7570   21.9150 C   0  0  0  0  0  1  0  0  0  0  0  0
  -31.1640  -15.0630   20.5250 C   0  0  0  0  0  0  0  0  0  0  0  0
  -30.9540  -12.7640   19.5990 C   0  0  0  0  0  2  0  0  0  0  0  0
  -30.0650  -12.7870   18.3340 C   0  0  0  0  0  2  0  0  0  0  0  0
  -28.5750  -12.6840   18.7020 C   0  0  0  0  0  2  0  0  0  0  0  0
  -28.1640  -13.6140   19.8750 C   0  0  0  0  0  3  0  0  0  0  0  0
  -29.1780  -13.5660   21.0390 C   0  0  0  0  0  2  0  0  0  0  0  0
  -30.4940  -13.8650   20.4670 N   0  0  0  0  0  0  0  0  0  0  0  0
  -32.3950  -15.0660   20.6100 O   0  0  0  0  0  0  0  0  0  0  0  0
  -30.5770  -16.1180   19.8300 N   0  0  0  0  0  0  0  0  0  0  0  0
  -25.7510  -14.2290   20.4850 C   0  0  0  0  0  0  0  0  0  0  0  0
  -24.6640  -13.4640   20.8050 C   0  0  0  0  0  0  0  0  0  0  0  0
  -25.1210  -12.1100   20.8190 C   0  0  0  0  0  0  0  0  0  0  0  0
  -26.8020  -13.3420   20.3190 N   0  0  0  0  0  0  0  0  0  0  0  0
  -26.4270  -12.0640   20.5860 N   0  0  0  0  0  0  0  0  0  0  0  0
  -24.3820  -10.8530   20.9860 C   0  0  0  0  0  0  0  0  0  0  0  0
  -24.7400   -9.9080   21.9740 C   0  0  0  0  0  3  0  0  0  0  0  0
  -24.0010   -8.7160   22.1260 C   0  0  0  0  0  3  0  0  0  0  0  0
  -22.8900   -8.4590   21.2890 C   0  0  0  0  0  0  0  0  0  0  0  0
  -22.5520   -9.3900   20.2910 C   0  0  0  0  0  3  0  0  0  0  0  0
  -23.2910  -10.5740   20.1380 C   0  0  0  0  0  3  0  0  0  0  0  0
  -22.1270   -7.3170   21.3480 O   0  0  0  0  0  0  0  0  0  0  0  0
  -21.9320   -6.6440   22.5270 C   0  0  0  0  0  0  0  0  0  0  0  0
  -21.3570   -7.2680   23.6560 C   0  0  0  0  0  3  0  0  0  0  0  0
  -21.1120   -6.5190   24.8240 C   0  0  0  0  0  3  0  0  0  0  0  0
  -21.4290   -5.1490   24.8630 C   0  0  0  0  0  0  0  0  0  0  0  0
  -21.9960   -4.5250   23.7380 C   0  0  0  0  0  3  0  0  0  0  0  0
  -22.2430   -5.2700   22.5720 C   0  0  0  0  0  0  0  0  0  0  0  0
  -22.7690   -4.6590   21.4830 F   0  0  0  0  0  0  0  0  0  0  0  0
  -21.1850   -4.4290   25.9830 F   0  0  0  0  0  0  0  0  0  0  0  0
  -23.2560  -13.9490   20.9940 C   0  0  0  0  0  0  0  0  0  0  0  0
  -22.4890  -13.2790   21.8470 N   0  0  0  0  0  0  0  0  0  0  0  0
  -22.8430  -14.9580   20.4200 O   0  0  0  0  0  0  0  0  0  0  0  0
  -22.8350  -12.4640   22.3300 H   0  0  0  0  0  0  0  0  0  0  0  0
  -21.5410  -13.5820   22.0170 H   0  0  0  0  0  0  0  0  0  0  0  0
  -25.9390  -15.5960   20.3000 N   0  0  0  0  0  0  0  0  0  0  0  0
  -25.1870  -16.2720   20.3870 H   0  0  0  0  0  0  0  0  0  0  0  0
  -26.8340  -16.0250   20.1040 H   0  0  0  0  0  0  0  0  0  0  0  0
  -31.9080  -15.7030   17.7410 C   0  0  0  0  0  2  0  0  0  0  0  0
  -31.0120  -16.3720   18.4970 C   0  0  0  0  0  3  0  0  0  0  0  0
  -28.5800  -25.5470   20.9400 C   0  0  0  0  0  2  0  0  0  0  0  0
  -28.4030  -26.7200   20.0370 O   0  0  0  0  0  0  0  0  0  0  0  0
  -24.6870  -31.9950   23.3830 C   0  0  0  0  0  0  0  0  0  0  0  0
  -27.2910  -27.5680   20.1400 C   0  0  0  0  0  0  0  0  0  0  0  0
  -23.4860  -30.6610   21.6900 C   0  0  0  0  0  3  0  0  0  0  0  0
  -24.9350  -29.1810   20.1950 C   0  0  0  0  0  0  0  0  0  0  0  0
  -26.0230  -31.0010   21.5090 C   0  0  0  0  0  2  0  0  0  0  0  0
  -26.1040  -29.6470   20.8080 C   0  0  0  0  0  0  0  0  0  0  0  0
  -27.2920  -28.8510   20.7690 C   0  0  0  0  0  3  0  0  0  0  0  0
  -26.1090  -27.1620   19.4960 C   0  0  0  0  0  3  0  0  0  0  0  0
  -24.9380  -27.9430   19.5310 C   0  0  0  0  0  3  0  0  0  0  0  0
  -23.6940  -30.0480   20.2820 C   0  0  0  0  0  2  0  0  0  0  0  0
  -24.7520  -31.2370   22.2500 N   0  0  0  0  0  0  0  0  0  0  0  0
  -23.6020  -32.2390   23.9350 O   0  0  0  0  0  0  0  0  0  0  0  0
  -22.8400  -29.5950   22.6090 C   0  0  0  0  0  0  0  0  0  0  0  0
  -21.5210  -29.3880   22.4570 N   0  0  0  0  0  0  0  0  0  0  0  0
  -23.5250  -28.9570   23.4130 O   0  0  0  0  0  0  0  0  0  0  0  0
  -21.0300  -29.9550   21.7810 H   0  0  0  0  0  0  0  0  0  0  0  0
  -18.1690  -28.0820   22.8600 C   0  0  0  0  0  0  0  0  0  0  0  0
  -20.7150  -28.4050   23.1810 C   0  0  0  0  0  3  0  0  0  0  0  0
  -20.8660  -26.9960   22.5610 C   0  0  0  0  0  2  0  0  0  0  0  0
  -19.7900  -26.6750   21.5200 C   0  0  0  0  0  2  0  0  0  0  0  0
  -18.3940  -26.7630   22.1420 C   0  0  0  0  0  2  0  0  0  0  0  0
  -19.2590  -28.8620   23.3320 C   0  0  0  0  0  0  0  0  0  0  0  0
  -18.9940  -30.1000   23.9580 C   0  0  0  0  0  3  0  0  0  0  0  0
  -17.6730  -30.5570   24.1210 C   0  0  0  0  0  3  0  0  0  0  0  0
  -16.5980  -29.7710   23.6680 C   0  0  0  0  0  3  0  0  0  0  0  0
  -16.8460  -28.5370   23.0420 C   0  0  0  0  0  3  0  0  0  0  0  0
  -25.9660  -32.6110   24.0280 C   0  0  0  0  0  3  0  0  0  0  0  0
  -26.4680  -31.8150   25.2960 C   0  0  1  0  0  0  0  0  0  0  0  0
  -25.3610  -31.5580   26.3480 C   0  0  0  0  0  1  0  0  0  0  0  0
  -27.0550  -30.4450   24.8850 C   0  0  0  0  0  1  0  0  0  0  0  0
  -27.6150  -32.5950   25.9810 C   0  0  0  0  0  1  0  0  0  0  0  0
  -25.6590  -34.0040   24.3870 N   0  0  0  0  0  0  0  0  0  0  0  0
  -26.0110  -35.0740   23.6620 C   0  0  0  0  0  0  0  0  0  0  0  0
  -26.7020  -34.9930   22.6430 O   0  0  0  0  0  0  0  0  0  0  0  0
  -25.0590  -34.1400   25.1860 H   0  0  0  0  0  0  0  0  0  0  0  0
  -24.3120  -36.8930   23.3060 C   0  0  0  0  0  1  0  0  0  0  0  0
  -25.5220  -36.4540   24.1450 C   0  0  0  0  0  3  0  0  0  0  0  0
  -27.6370  -37.2870   25.0730 C   0  0  0  0  0  1  0  0  0  0  0  0
  -26.5690  -37.4970   24.1010 N   0  0  0  0  0  0  0  0  0  0  0  0
  -26.1680  -38.4180   24.2650 H   0  0  0  0  0  0  0  0  0  0  0  0
  2  1  2  0
  2 53  1  0
  3  1  1  0
  4  2  1  0
  5  6  1  0
  5  3  1  0
  6  4  1  0
  7 11  1  0
  8  7  2  0
  8 12  1  0
  9 10  1  0
 10 13  1  0
 11  6  1  0
 11 10  2  0
 12  9  2  0
 14 21  2  0
 15 20  1  0
 16 17  1  0
 16 15  1  0
 18 17  1  0
 18 26  1  0
 18 19  1  0
 20 14  1  0
 20 19  1  0
 22 12  1  0
 22 14  1  0
 23 24  2  0
 24 25  1  0
 24 43  1  0
 25 28  1  0
 26 23  1  0
 26 27  1  0
 27 25  2  0
 28 29  1  0
 29 30  2  0
 31 34  1  0
 31 30  1  0
 32 31  2  0
 33 32  1  0
 33 28  2  0
 34 35  1  0
 35 40  2  0
 35 36  1  0
 36 37  2  0
 37 38  1  0
 38 42  1  0
 39 38  2  0
 40 39  1  0
 41 40  1  0
 43 44  1  0
 44 47  1  0
 44 46  1  0
 45 43  2  0
 48 49  1  0
 48 23  1  0
 50 48  1  0
 51 52  2  0
 52 22  1  0
 54 56  1  0
 54 53  1  0
 55 66  2  0
 56 61  1  0
 57 65  1  0
 57 67  1  0
 58 64  1  0
 58 60  1  0
 59 65  1  0
 60 59  1  0
 61 60  2  0
 62 63  1  0
 62 56  2  0
 63 58  2  0
 64 57  1  0
 65 55  1  0
 67 69  2  0
 68 67  1  0
 70 68  1  0
 71 80  2  0
 71 76  1  0
 72 68  1  0
 72 76  1  0
 73 72  1  0
 74 75  1  0
 74 73  1  0
 75 71  1  0
 76 77  2  0
 77 78  1  0
 79 78  2  0
 80 79  1  0
 81 55  1  0
 81 86  1  0
 81 82  1  0
 82 85  1  1
 82 83  1  0
 84 82  1  0
 86 89  1  0
 87 91  1  0
 87 86  1  0
 88 87  2  0
 91 90  1  0
 93 91  1  0
 93 94  1  0
 93 92  1  0
M  ISO  4  14 100  22 100  53 101  54 101
M  END
>  <TORSDO>  (82) 
F 19

>  <SCORE>  (82) 
-13.135

>  <name>  (82) 
81

>  <ligand_id>  (82) 
81

>  <original_smiles>  (82) 
[H]C([H])=C([H])N(C(=O)N1C([H])([H])C([H])([H])C([H])([H])C([H])(n2nc(-c3c([H])c([H])c(Oc4c([H])c([H])c(F)c([H])c4F)c([H])c3[H])c(C(=O)N([H])[H])c2N([H])[H])C1([H])[H])c1c([H])c([H])c(N2C([H])([H])C(C([H])([H])Oc3c([H])c([H])c4c(c3[H])C([H])([H])N(C(=O)C([H])(N([H])C(=O)C([H])(N([H])C([H])([H])[H])C([H])([H])[H])C(C([H])([H])[H])(C([H])([H])[H])C([H])([H])[H])C([H])(C(=O)N([H])C3([H])c5c([H])c([H])c([H])c([H])c5C([H])([H])C([H])([H])C3([H])[H])C4([H])[H])=C([H])C([H])([H])C2([H])[H])c(C([H])([H])[H])c1[H]

>  <smiles>  (82) 
[H]C([H])=C([H])N(C(=O)N1C([H])([H])C([H])([H])C([H])([H])C([H])(n2nc(-c3c([H])c([H])c(Oc4c([H])c([H])c(F)c([H])c4F)c([H])c3[H])c(C(=O)N([H])[H])c2N([H])[H])C1([H])[H])c1c([H])c([H])c(N2C([H])([H])C(C([H])([H])Oc3c([H])c([H])c4c(c3[H])C([H])([H])N(C(=O)C([H])(N([H])C(=O)C([H])(N([H])C([H])([H])[H])C([H])([H])[H])C(C([H])([H])[H])(C([H])([H])[H])C([H])([H])[H])C([H])(C(=O)N([H])C3([H])c5c([H])c([H])c([H])c([H])c5C([H])([H])C([H])([H])C3([H])[H])C4([H])[H])=C([H])C([H])([H])C2([H])[H])c(C([H])([H])[H])c1[H]

$$$$
82:0:0
     RDKit          3D

 93101  0  0  1  0  0  0  0  0999 V2000
  -29.9670  -21.2930   19.4160 C   0  0  0  0  0  0  0  0  0  0  0  0
  -29.2070  -23.5610   19.9640 C   0  0  0  0  0  0  0  0  0  0  0  0
  -29.3690  -22.2260   20.1980 N   0  0  0  0  0  0  0  0  0  0  0  0
  -30.5400  -21.5580   18.3510 O   0  0  0  0  0  0  0  0  0  0  0  0
  -29.5330  -24.1310   18.9160 O   0  0  0  0  0  0  0  0  0  0  0  0
  -29.0180  -21.8810   21.0770 H   0  0  0  0  0  0  0  0  0  0  0  0
  -31.1270  -19.0360   19.5980 C   0  0  0  0  0  3  0  0  0  0  0  0
  -28.8870  -19.2000   20.4880 C   0  0  0  0  0  3  0  0  0  0  0  0
  -31.1500  -17.6470   19.8690 C   0  0  0  0  0  3  0  0  0  0  0  0
  -28.9080  -17.8040   20.7590 C   0  0  0  0  0  3  0  0  0  0  0  0
  -29.9970  -19.8400   19.8820 C   0  0  0  0  0  0  0  0  0  0  0  0
  -30.0250  -16.9920   20.4320 C   0  0  0  0  0  0  0  0  0  0  0  0
  -30.6500  -14.5410   20.1220 C   0  0  0  0  0  0  0  0  0  0  0  0
  -30.3060  -12.3910   18.9560 C   0  0  0  0  0  2  0  0  0  0  0  0
  -29.3060  -12.6270   17.8030 C   0  0  0  0  0  2  0  0  0  0  0  0
  -27.8550  -12.4790   18.3020 C   0  0  0  0  0  2  0  0  0  0  0  0
  -27.5840  -13.2830   19.6020 C   0  0  0  0  0  3  0  0  0  0  0  0
  -28.6930  -13.0290   20.6490 C   0  0  0  0  0  2  0  0  0  0  0  0
  -29.9860  -13.3520   20.0250 N   0  0  0  0  0  0  0  0  0  0  0  0
  -31.7740  -14.6960   19.6380 O   0  0  0  0  0  0  0  0  0  0  0  0
  -29.9350  -15.5650   20.6570 N   0  0  0  0  0  0  0  0  0  0  0  0
  -29.0800  -15.2590   21.0960 H   0  0  0  0  0  0  0  0  0  0  0  0
  -25.2260  -13.8840   20.4390 C   0  0  0  0  0  0  0  0  0  0  0  0
  -24.1730  -13.1090   20.8430 C   0  0  0  0  0  0  0  0  0  0  0  0
  -24.6270  -11.7560   20.7650 C   0  0  0  0  0  0  0  0  0  0  0  0
  -26.2550  -13.0040   20.1400 N   0  0  0  0  0  0  0  0  0  0  0  0
  -25.9010  -11.7180   20.3950 N   0  0  0  0  0  0  0  0  0  0  0  0
  -23.9060  -10.4930   20.9670 C   0  0  0  0  0  0  0  0  0  0  0  0
  -24.3520   -9.5260   21.8950 C   0  0  0  0  0  3  0  0  0  0  0  0
  -23.6300   -8.3280   22.0830 C   0  0  0  0  0  3  0  0  0  0  0  0
  -22.4480   -8.0880   21.3420 C   0  0  0  0  0  0  0  0  0  0  0  0
  -22.0220   -9.0430   20.4020 C   0  0  0  0  0  3  0  0  0  0  0  0
  -22.7450  -10.2320   20.2120 C   0  0  0  0  0  3  0  0  0  0  0  0
  -21.6970   -6.9410   21.4400 O   0  0  0  0  0  0  0  0  0  0  0  0
  -21.6390   -6.2170   22.6040 C   0  0  0  0  0  0  0  0  0  0  0  0
  -21.1550   -6.7780   23.8080 C   0  0  0  0  0  3  0  0  0  0  0  0
  -21.0460   -5.9770   24.9620 C   0  0  0  0  0  3  0  0  0  0  0  0
  -21.4110   -4.6170   24.9150 C   0  0  0  0  0  0  0  0  0  0  0  0
  -21.8870   -4.0580   23.7160 C   0  0  0  0  0  3  0  0  0  0  0  0
  -21.9980   -4.8550   22.5640 C   0  0  0  0  0  0  0  0  0  0  0  0
  -22.4370   -4.3050   21.4070 F   0  0  0  0  0  0  0  0  0  0  0  0
  -21.2980   -3.8460   26.0210 F   0  0  0  0  0  0  0  0  0  0  0  0
  -22.7930  -13.5850   21.1880 C   0  0  0  0  0  0  0  0  0  0  0  0
  -22.0950  -12.8660   22.0600 N   0  0  0  0  0  0  0  0  0  0  0  0
  -22.3420  -14.6320   20.7230 O   0  0  0  0  0  0  0  0  0  0  0  0
  -22.4700  -12.0180   22.4570 H   0  0  0  0  0  0  0  0  0  0  0  0
  -21.1700  -13.1680   22.3340 H   0  0  0  0  0  0  0  0  0  0  0  0
  -25.3920  -15.2570   20.2820 N   0  0  0  0  0  0  0  0  0  0  0  0
  -24.6390  -15.9150   20.4520 H   0  0  0  0  0  0  0  0  0  0  0  0
  -26.2310  -15.6980   19.9270 H   0  0  0  0  0  0  0  0  0  0  0  0
  -28.6020  -24.2530   21.1020 C   0  0  0  0  0  3  0  0  0  0  0  0
  -28.2670  -25.5720   21.1910 C   0  0  0  0  0  3  0  0  0  0  0  0
  -28.3940  -26.5880   20.2570 O   0  0  0  0  0  0  0  0  0  0  0  0
  -24.5590  -31.8610   23.2030 C   0  0  0  0  0  0  0  0  0  0  0  0
  -27.2870  -27.4130   20.1830 C   0  0  0  0  0  0  0  0  0  0  0  0
  -23.3970  -30.4530   21.5370 C   0  0  0  0  0  3  0  0  0  0  0  0
  -24.8920  -28.9240   20.1380 C   0  0  0  0  0  0  0  0  0  0  0  0
  -25.9260  -30.8230   21.3920 C   0  0  0  0  0  2  0  0  0  0  0  0
  -26.0370  -29.4500   20.7520 C   0  0  0  0  0  0  0  0  0  0  0  0
  -27.2420  -28.7020   20.7740 C   0  0  0  0  0  3  0  0  0  0  0  0
  -26.1300  -26.9120   19.5560 C   0  0  0  0  0  3  0  0  0  0  0  0
  -24.9350  -27.6540   19.5350 C   0  0  0  0  0  3  0  0  0  0  0  0
  -23.6410  -29.7750   20.1610 C   0  0  0  0  0  2  0  0  0  0  0  0
  -24.6450  -31.0600   22.1030 N   0  0  0  0  0  0  0  0  0  0  0  0
  -23.4650  -32.1270   23.7200 O   0  0  0  0  0  0  0  0  0  0  0  0
  -22.7310  -29.4290   22.4850 C   0  0  0  0  0  0  0  0  0  0  0  0
  -21.4040  -29.2590   22.3510 N   0  0  0  0  0  0  0  0  0  0  0  0
  -23.4050  -28.7890   23.2970 O   0  0  0  0  0  0  0  0  0  0  0  0
  -20.9220  -29.8290   21.6710 H   0  0  0  0  0  0  0  0  0  0  0  0
  -18.0100  -28.1240   22.8610 C   0  0  0  0  0  0  0  0  0  0  0  0
  -20.5760  -28.3190   23.1090 C   0  0  0  0  0  3  0  0  0  0  0  0
  -20.6390  -26.9010   22.4950 C   0  0  0  0  0  2  0  0  0  0  0  0
  -19.5190  -26.6300   21.4880 C   0  0  0  0  0  2  0  0  0  0  0  0
  -18.1470  -26.7880   22.1510 C   0  0  0  0  0  2  0  0  0  0  0  0
  -19.1500  -28.8500   23.2970 C   0  0  0  0  0  0  0  0  0  0  0  0
  -18.9670  -30.1030   23.9210 C   0  0  0  0  0  3  0  0  0  0  0  0
  -17.6760  -30.6300   24.1160 C   0  0  0  0  0  3  0  0  0  0  0  0
  -16.5500  -29.8990   23.6980 C   0  0  0  0  0  3  0  0  0  0  0  0
  -16.7180  -28.6490   23.0760 C   0  0  0  0  0  3  0  0  0  0  0  0
  -25.8280  -32.5020   23.8490 C   0  0  0  0  0  3  0  0  0  0  0  0
  -25.5040  -33.8970   24.1730 N   0  0  0  0  0  0  0  0  0  0  0  0
  -25.8390  -34.9530   23.4160 C   0  0  0  0  0  0  0  0  0  0  0  0
  -26.5250  -34.8530   22.3950 O   0  0  0  0  0  0  0  0  0  0  0  0
  -24.8990  -34.0480   24.9660 H   0  0  0  0  0  0  0  0  0  0  0  0
  -24.1070  -36.7330   23.0250 C   0  0  0  0  0  1  0  0  0  0  0  0
  -25.3310  -36.3360   23.8630 C   0  0  0  0  0  3  0  0  0  0  0  0
  -27.4370  -37.2390   24.7470 C   0  0  0  0  0  1  0  0  0  0  0  0
  -26.3580  -37.3980   23.7750 N   0  0  0  0  0  0  0  0  0  0  0  0
  -25.9410  -38.3150   23.9100 H   0  0  0  0  0  0  0  0  0  0  0  0
  -26.3260  -31.7320   25.1330 C   0  0  1  0  0  0  0  0  0  0  0  0
  -25.2150  -31.4810   26.1810 C   0  0  0  0  0  1  0  0  0  0  0  0
  -26.9280  -30.3610   24.7480 C   0  0  0  0  0  1  0  0  0  0  0  0
  -27.4550  -32.5360   25.8190 C   0  0  0  0  0  1  0  0  0  0  0  0
  1 11  1  0
  1  3  1  0
  2  3  1  0
  2 51  1  0
  3  6  1  0
  4  1  2  0
  5  2  2  0
  7  9  2  0
  7 11  1  0
  8 10  1  0
  9 12  1  0
 11  8  2  0
 12 21  1  0
 12 10  2  0
 13 21  1  0
 14 19  1  0
 15 16  1  0
 15 14  1  0
 17 16  1  0
 17 26  1  0
 17 18  1  0
 19 13  1  0
 19 18  1  0
 20 13  2  0
 21 22  1  0
 23 24  2  0
 24 43  1  0
 25 24  1  0
 25 28  1  0
 26 27  1  0
 26 23  1  0
 27 25  2  0
 28 29  1  0
 29 30  2  0
 31 34  1  0
 31 30  1  0
 32 31  2  0
 33 32  1  0
 33 28  2  0
 34 35  1  0
 35 36  1  0
 36 37  2  0
 38 37  1  0
 38 42  1  0
 39 38  2  0
 40 35  2  0
 40 39  1  0
 41 40  1  0
 43 44  1  0
 44 47  1  0
 44 46  1  0
 45 43  2  0
 48 23  1  0
 48 49  1  0
 50 48  1  0
 51 52  2  0
 53 52  1  0
 54 65  2  0
 55 53  1  0
 55 60  1  0
 56 64  1  0
 56 66  1  0
 57 63  1  0
 57 59  1  0
 58 64  1  0
 59 60  2  0
 59 58  1  0
 61 55  2  0
 62 61  1  0
 62 57  2  0
 63 56  1  0
 64 54  1  0
 66 68  2  0
 67 66  1  0
 69 67  1  0
 70 79  2  0
 70 75  1  0
 71 67  1  0
 71 75  1  0
 72 71  1  0
 73 74  1  0
 73 72  1  0
 74 70  1  0
 75 76  2  0
 76 77  1  0
 78 77  2  0
 79 78  1  0
 80 54  1  0
 80 81  1  0
 80 90  1  0
 81 84  1  0
 82 86  1  0
 82 81  1  0
 83 82  2  0
 86 85  1  0
 88 86  1  0
 88 89  1  0
 88 87  1  0
 90 93  1  1
 90 91  1  0
 92 90  1  0
M  ISO  4  13 100  21 100  52 101  53 101
M  END
>  <TORSDO>  (83) 
F 18

>  <SCORE>  (83) 
-14.706

>  <name>  (83) 
82

>  <ligand_id>  (83) 
82

>  <original_smiles>  (83) 
[H]C(Oc1c([H])c([H])c2c(c1[H])C([H])([H])N(C(=O)C([H])(N([H])C(=O)C([H])(N([H])C([H])([H])[H])C([H])([H])[H])C(C([H])([H])[H])(C([H])([H])[H])C([H])([H])[H])C([H])(C(=O)N([H])C1([H])c3c([H])c([H])c([H])c([H])c3C([H])([H])C([H])([H])C1([H])[H])C2([H])[H])=C([H])C(=O)N([H])C(=O)c1c([H])c([H])c(N([H])C(=O)N2C([H])([H])C([H])([H])C([H])([H])C([H])(n3nc(-c4c([H])c([H])c(Oc5c([H])c([H])c(F)c([H])c5F)c([H])c4[H])c(C(=O)N([H])[H])c3N([H])[H])C2([H])[H])c([H])c1[H]

>  <smiles>  (83) 
[H]C(Oc1c([H])c([H])c2c(c1[H])C([H])([H])N(C(=O)C([H])(N([H])C(=O)C([H])(N([H])C([H])([H])[H])C([H])([H])[H])C(C([H])([H])[H])(C([H])([H])[H])C([H])([H])[H])C([H])(C(=O)N([H])C1([H])c3c([H])c([H])c([H])c([H])c3C([H])([H])C([H])([H])C1([H])[H])C2([H])[H])=C([H])C(=O)N([H])C(=O)c1c([H])c([H])c(N([H])C(=O)N2C([H])([H])C([H])([H])C([H])([H])C([H])(n3nc(-c4c([H])c([H])c(Oc5c([H])c([H])c(F)c([H])c5F)c([H])c4[H])c(C(=O)N([H])[H])c3N([H])[H])C2([H])[H])c([H])c1[H]

$$$$
