0:0:0
     RDKit          3D

 93102  0  0  1  0  0  0  0  0999 V2000
  -28.7290  -24.2870   19.6000 C   0  0  0  0  0  0  0  0  0  0  0  0
  -28.7210  -23.1100   18.7670 C   0  0  0  0  0  0  0  0  0  0  0  0
  -28.4510  -25.5740   19.2670 C   0  0  0  0  0  3  0  0  0  0  0  0
  -29.0720  -23.4480   20.8300 C   0  0  0  0  0  2  0  0  0  0  0  0
  -29.1470  -22.3450   19.8520 N   0  0  0  0  0  0  0  0  0  0  0  0
  -28.3800  -22.9300   17.6160 O   0  0  0  0  0  0  0  0  0  0  0  0
  -28.6000  -18.5730   19.8100 C   0  0  0  0  0  3  0  0  0  0  0  0
  -30.3150  -19.0690   21.4200 C   0  0  0  0  0  3  0  0  0  0  0  0
  -28.4600  -19.9590   19.5510 C   0  0  0  0  0  3  0  0  0  0  0  0
  -30.1410  -20.4550   21.1750 C   0  0  0  0  0  3  0  0  0  0  0  0
  -29.5800  -18.0890   20.7100 C   0  0  0  0  0  0  0  0  0  0  0  0
  -29.2380  -20.9520   20.2020 C   0  0  0  0  0  0  0  0  0  0  0  0
  -30.8480  -14.6190   20.1130 C   0  0  0  0  0  0  0  0  0  0  0  0
  -30.5120  -12.4250   19.0500 C   0  0  0  0  0  2  0  0  0  0  0  0
  -29.5230  -12.5850   17.8780 C   0  0  0  0  0  2  0  0  0  0  0  0
  -28.0700  -12.4430   18.3710 C   0  0  0  0  0  2  0  0  0  0  0  0
  -27.7690  -13.2950   19.6350 C   0  0  0  0  0  3  0  0  0  0  0  0
  -28.8780  -13.1470   20.7000 C   0  0  0  0  0  2  0  0  0  0  0  0
  -30.1580  -13.4450   20.0500 N   0  0  0  0  0  0  0  0  0  0  0  0
  -32.0450  -14.6750   19.8160 O   0  0  0  0  0  0  0  0  0  0  0  0
  -29.8350  -16.6000   20.9710 C   0  0  0  0  0  0  0  0  0  0  0  0
  -30.1540  -16.2640   18.5390 C   0  0  0  0  0  1  0  0  0  0  0  0
  -30.1090  -15.7520   19.9270 N   0  0  0  0  0  0  0  0  0  0  0  0
  -29.8570  -16.2320   22.1510 O   0  0  0  0  0  0  0  0  0  0  0  0
  -25.4130  -13.8700   20.4830 C   0  0  0  0  0  0  0  0  0  0  0  0
  -24.3650  -13.0840   20.8790 C   0  0  0  0  0  0  0  0  0  0  0  0
  -24.8270  -11.7350   20.7910 C   0  0  0  0  0  0  0  0  0  0  0  0
  -26.4470  -12.9990   20.1780 N   0  0  0  0  0  0  0  0  0  0  0  0
  -26.1020  -11.7090   20.4250 N   0  0  0  0  0  0  0  0  0  0  0  0
  -24.1120  -10.4660   20.9760 C   0  0  0  0  0  0  0  0  0  0  0  0
  -24.5470   -9.5030   21.9140 C   0  0  0  0  0  3  0  0  0  0  0  0
  -23.8310   -8.2990   22.0880 C   0  0  0  0  0  3  0  0  0  0  0  0
  -22.6670   -8.0480   21.3240 C   0  0  0  0  0  0  0  0  0  0  0  0
  -22.2520   -8.9990   20.3750 C   0  0  0  0  0  3  0  0  0  0  0  0
  -22.9690  -10.1950   20.1990 C   0  0  0  0  0  3  0  0  0  0  0  0
  -21.9240   -6.8960   21.4070 O   0  0  0  0  0  0  0  0  0  0  0  0
  -21.8100   -6.1960   22.5820 C   0  0  0  0  0  0  0  0  0  0  0  0
  -21.2970   -6.7880   23.7560 C   0  0  0  0  0  3  0  0  0  0  0  0
  -21.1330   -6.0130   24.9220 C   0  0  0  0  0  3  0  0  0  0  0  0
  -21.4710   -4.6480   24.9130 C   0  0  0  0  0  0  0  0  0  0  0  0
  -21.9770   -4.0540   23.7430 C   0  0  0  0  0  3  0  0  0  0  0  0
  -22.1430   -4.8260   22.5800 C   0  0  0  0  0  0  0  0  0  0  0  0
  -22.6110   -4.2450   21.4490 F   0  0  0  0  0  0  0  0  0  0  0  0
  -21.3060   -3.9010   26.0300 F   0  0  0  0  0  0  0  0  0  0  0  0
  -22.9800  -13.5490   21.2240 C   0  0  0  0  0  0  0  0  0  0  0  0
  -22.2970  -12.8350   22.1130 N   0  0  0  0  0  0  0  0  0  0  0  0
  -22.5130  -14.5800   20.7420 O   0  0  0  0  0  0  0  0  0  0  0  0
  -22.6890  -12.0010   22.5240 H   0  0  0  0  0  0  0  0  0  0  0  0
  -21.3700  -13.1280   22.3860 H   0  0  0  0  0  0  0  0  0  0  0  0
  -25.5680  -15.2450   20.3340 N   0  0  0  0  0  0  0  0  0  0  0  0
  -24.8020  -15.8930   20.4890 H   0  0  0  0  0  0  0  0  0  0  0  0
  -26.3940  -15.6910   19.9580 H   0  0  0  0  0  0  0  0  0  0  0  0
  -28.3730  -26.6630   20.1180 O   0  0  0  0  0  0  0  0  0  0  0  0
  -24.5890  -31.8940   23.2080 C   0  0  0  0  0  0  0  0  0  0  0  0
  -27.2220  -27.4430   20.0880 C   0  0  0  0  0  0  0  0  0  0  0  0
  -23.3800  -30.5000   21.5660 C   0  0  0  0  0  3  0  0  0  0  0  0
  -24.8290  -28.9780   20.1230 C   0  0  0  0  0  0  0  0  0  0  0  0
  -25.9100  -30.8570   21.3620 C   0  0  0  0  0  2  0  0  0  0  0  0
  -25.9950  -29.4890   20.7090 C   0  0  0  0  0  0  0  0  0  0  0  0
  -27.1940  -28.7280   20.6880 C   0  0  0  0  0  3  0  0  0  0  0  0
  -26.0240  -26.9540   19.5110 C   0  0  0  0  0  3  0  0  0  0  0  0
  -24.8410  -27.7110   19.5220 C   0  0  0  0  0  3  0  0  0  0  0  0
  -23.5860  -29.8360   20.1800 C   0  0  0  0  0  2  0  0  0  0  0  0
  -24.6450  -31.0980   22.1030 N   0  0  0  0  0  0  0  0  0  0  0  0
  -23.5080  -32.1610   23.7530 O   0  0  0  0  0  0  0  0  0  0  0  0
  -22.7350  -29.4700   22.5210 C   0  0  0  0  0  0  0  0  0  0  0  0
  -21.4110  -29.2840   22.3990 N   0  0  0  0  0  0  0  0  0  0  0  0
  -23.4230  -28.8410   23.3300 O   0  0  0  0  0  0  0  0  0  0  0  0
  -20.9150  -29.8430   21.7180 H   0  0  0  0  0  0  0  0  0  0  0  0
  -18.0410  -28.0770   22.9060 C   0  0  0  0  0  0  0  0  0  0  0  0
  -20.5990  -28.3390   23.1680 C   0  0  0  0  0  3  0  0  0  0  0  0
  -20.7030  -26.9120   22.5830 C   0  0  0  0  0  2  0  0  0  0  0  0
  -19.5980  -26.5920   21.5720 C   0  0  0  0  0  2  0  0  0  0  0  0
  -18.2190  -26.7310   22.2230 C   0  0  0  0  0  2  0  0  0  0  0  0
  -19.1600  -28.8390   23.3360 C   0  0  0  0  0  0  0  0  0  0  0  0
  -18.9400  -30.0990   23.9340 C   0  0  0  0  0  3  0  0  0  0  0  0
  -17.6360  -30.5960   24.1070 C   0  0  0  0  0  3  0  0  0  0  0  0
  -16.5320  -29.8310   23.6940 C   0  0  0  0  0  3  0  0  0  0  0  0
  -16.7350  -28.5730   23.0990 C   0  0  0  0  0  3  0  0  0  0  0  0
  -25.8740  -32.5270   23.8250 C   0  0  0  0  0  3  0  0  0  0  0  0
  -25.5590  -33.9200   24.1710 N   0  0  0  0  0  0  0  0  0  0  0  0
  -25.8730  -34.9800   23.4140 C   0  0  0  0  0  0  0  0  0  0  0  0
  -26.5280  -34.8890   22.3730 O   0  0  0  0  0  0  0  0  0  0  0  0
  -24.9760  -34.0640   24.9820 H   0  0  0  0  0  0  0  0  0  0  0  0
  -24.1240  -36.7600   23.1000 C   0  0  0  0  0  1  0  0  0  0  0  0
  -25.3810  -36.3620   23.8900 C   0  0  0  0  0  3  0  0  0  0  0  0
  -27.5190  -37.2600   24.6950 C   0  0  0  0  0  1  0  0  0  0  0  0
  -26.4030  -37.4240   23.7680 N   0  0  0  0  0  0  0  0  0  0  0  0
  -25.9910  -38.3390   23.9250 H   0  0  0  0  0  0  0  0  0  0  0  0
  -26.4060  -31.7460   25.0890 C   0  0  1  0  0  0  0  0  0  0  0  0
  -25.3240  -31.4880   26.1620 C   0  0  0  0  0  1  0  0  0  0  0  0
  -26.9960  -30.3760   24.6760 C   0  0  0  0  0  1  0  0  0  0  0  0
  -27.5570  -32.5410   25.7500 C   0  0  0  0  0  1  0  0  0  0  0  0
  1  4  1  0
  2  1  1  0
  2  5  1  0
  3  1  2  0
  3 53  1  0
  5 12  1  0
  5  4  1  0
  6  2  2  0
  7 11  1  0
  9  7  2  0
  9 12  1  0
 10  8  1  0
 11 21  1  0
 11  8  2  0
 12 10  2  0
 14 19  1  0
 15 16  1  0
 15 14  1  0
 17 16  1  0
 17 28  1  0
 17 18  1  0
 19 13  1  0
 19 18  1  0
 20 13  2  0
 21 24  2  0
 22 23  1  0
 23 13  1  0
 23 21  1  0
 25 26  2  0
 26 45  1  0
 27 26  1  0
 27 30  1  0
 28 29  1  0
 28 25  1  0
 29 27  2  0
 30 31  1  0
 31 32  2  0
 33 36  1  0
 33 32  1  0
 34 33  2  0
 35 34  1  0
 35 30  2  0
 36 37  1  0
 37 38  1  0
 38 39  2  0
 40 39  1  0
 40 44  1  0
 41 40  2  0
 42 37  2  0
 42 41  1  0
 43 42  1  0
 45 46  1  0
 46 49  1  0
 46 48  1  0
 47 45  2  0
 50 25  1  0
 50 51  1  0
 52 50  1  0
 54 65  2  0
 55 53  1  0
 55 60  1  0
 56 64  1  0
 56 66  1  0
 57 63  1  0
 57 59  1  0
 58 64  1  0
 59 58  1  0
 60 59  2  0
 61 62  1  0
 61 55  2  0
 62 57  2  0
 63 56  1  0
 64 54  1  0
 66 68  2  0
 67 66  1  0
 69 67  1  0
 70 79  2  0
 70 75  1  0
 71 67  1  0
 71 75  1  0
 72 71  1  0
 73 74  1  0
 73 72  1  0
 74 70  1  0
 75 76  2  0
 76 77  1  0
 78 77  2  0
 79 78  1  0
 80 54  1  0
 80 81  1  0
 80 90  1  0
 81 84  1  0
 82 86  1  0
 82 81  1  0
 83 82  2  0
 86 85  1  0
 88 86  1  0
 88 89  1  0
 88 87  1  0
 90 93  1  1
 90 91  1  0
 92 90  1  0
M  ISO  4   3 101  13 100  23 100  53 101
M  END
>  <TORSDO>  (1) 
F 17

>  <SCORE>  (1) 
-15.128

>  <name>  (1) 
0

>  <ligand_id>  (1) 
0

>  <original_smiles>  (1) 
[H]C(Oc1c([H])c([H])c2c(c1[H])C([H])([H])N(C(=O)C([H])(N([H])C(=O)C([H])(N([H])C([H])([H])[H])C([H])([H])[H])C(C([H])([H])[H])(C([H])([H])[H])C([H])([H])[H])C([H])(C(=O)N([H])C1([H])c3c([H])c([H])c([H])c([H])c3C([H])([H])C([H])([H])C1([H])[H])C2([H])[H])=C1C(=O)N(c2c([H])c([H])c(C(=O)N(C(=O)N3C([H])([H])C([H])([H])C([H])([H])C([H])(n4nc(-c5c([H])c([H])c(Oc6c([H])c([H])c(F)c([H])c6F)c([H])c5[H])c(C(=O)N([H])[H])c4N([H])[H])C3([H])[H])C([H])([H])[H])c([H])c2[H])C1([H])[H]

>  <smiles>  (1) 
[H]C(Oc1c([H])c([H])c2c(c1[H])C([H])([H])N(C(=O)C([H])(N([H])C(=O)C([H])(N([H])C([H])([H])[H])C([H])([H])[H])C(C([H])([H])[H])(C([H])([H])[H])C([H])([H])[H])C([H])(C(=O)N([H])C1([H])c3c([H])c([H])c([H])c([H])c3C([H])([H])C([H])([H])C1([H])[H])C2([H])[H])=C1C(=O)N(c2c([H])c([H])c(C(=O)N(C(=O)N3C([H])([H])C([H])([H])C([H])([H])C([H])(n4nc(-c5c([H])c([H])c(Oc6c([H])c([H])c(F)c([H])c6F)c([H])c5[H])c(C(=O)N([H])[H])c4N([H])[H])C3([H])[H])C([H])([H])[H])c([H])c2[H])C1([H])[H]

$$$$
1:0:0
     RDKit          3D

 92 98  0  0  1  0  0  0  0  0999 V2000
  -30.0580  -22.5990   19.6430 C   0  0  0  0  0  3  0  0  0  0  0  0
  -30.2730  -24.1450   20.4200 C   0  0  0  0  0  3  0  0  0  0  0  0
  -27.6100  -22.2890   20.2800 C   0  0  0  0  0  2  0  0  0  0  0  0
  -28.9710  -21.2950   19.8360 C   0  0  0  0  0  2  0  0  0  0  0  0
  -27.4690  -23.7190   21.3680 C   0  0  0  0  0  3  0  0  0  0  0  0
  -29.0640  -24.7790   21.5950 C   0  0  0  0  0  3  0  0  0  0  0  0
  -28.6400  -23.3250   22.9780 C   0  0  0  0  0  3  0  0  0  0  0  0
  -30.1010  -25.1650   23.8970 C   0  0  0  0  0  1  0  0  0  0  0  0
  -27.3210  -23.3850   22.7120 N   0  0  0  0  0  2  0  0  0  0  0  0
  -29.1730  -24.5630   22.9570 N   0  0  0  0  0  0  0  0  0  0  0  0
  -29.2560  -22.7100   21.8880 N   0  0  0  0  0  2  0  0  0  0  0  0
  -30.2690  -22.7750   21.8610 H   0  0  0  0  0  0  0  0  0  0  0  0
  -29.0910  -19.0680   19.7720 C   0  0  0  0  0  2  0  0  0  0  0  0
  -27.8640  -18.7860   19.9060 N   0  0  0  0  0  0  0  0  0  0  0  0
  -27.3100  -19.6290   19.9850 H   0  0  0  0  0  0  0  0  0  0  0  0
  -30.0600  -16.9330   19.6430 C   0  0  0  0  0  2  0  0  0  0  0  0
  -30.3980  -14.1290   18.9060 C   0  0  0  0  0  2  0  0  0  0  0  0
  -29.5880  -13.2950   17.8210 C   0  0  0  0  0  2  0  0  0  0  0  0
  -28.2780  -12.7250   18.3710 C   0  0  0  0  0  2  0  0  0  0  0  0
  -27.6670  -13.7650   19.3220 C   0  0  0  0  0  3  0  0  0  0  0  0
  -28.6600  -14.4740   20.3180 C   0  0  0  0  0  2  0  0  0  0  0  0
  -29.6570  -15.3830   19.5900 N   0  0  0  0  0  0  0  0  0  0  0  0
  -31.3000  -16.7080   19.4700 O   0  0  0  0  0  1  0  0  0  0  0  0
  -25.3650  -14.1870   20.2470 C   0  0  0  0  0  0  0  0  0  0  0  0
  -24.3340  -13.3910   20.6510 C   0  0  0  0  0  0  0  0  0  0  0  0
  -24.8100  -12.0440   20.5620 C   0  0  0  0  0  0  0  0  0  0  0  0
  -26.4070  -13.3420   19.9290 N   0  0  0  0  0  0  0  0  0  0  0  0
  -26.0890  -12.0350   20.1710 N   0  0  0  0  0  0  0  0  0  0  0  0
  -24.0840  -10.7780   20.7710 C   0  0  0  0  0  0  0  0  0  0  0  0
  -24.5250   -9.8090   21.7010 C   0  0  0  0  0  3  0  0  0  0  0  0
  -23.7890   -8.6210   21.9050 C   0  0  0  0  0  3  0  0  0  0  0  0
  -22.5940   -8.3890   21.1820 C   0  0  0  0  0  0  0  0  0  0  0  0
  -22.1680   -9.3450   20.2440 C   0  0  0  0  0  3  0  0  0  0  0  0
  -22.9050  -10.5240   20.0380 C   0  0  0  0  0  3  0  0  0  0  0  0
  -21.8320   -7.2500   21.2950 O   0  0  0  0  0  0  0  0  0  0  0  0
  -21.7810   -6.5250   22.4600 C   0  0  0  0  0  0  0  0  0  0  0  0
  -21.3190   -7.0910   23.6690 C   0  0  0  0  0  3  0  0  0  0  0  0
  -21.2190   -6.2930   24.8260 C   0  0  0  0  0  3  0  0  0  0  0  0
  -21.5690   -4.9300   24.7760 C   0  0  0  0  0  0  0  0  0  0  0  0
  -22.0230   -4.3640   23.5710 C   0  0  0  0  0  3  0  0  0  0  0  0
  -22.1250   -5.1590   22.4170 C   0  0  0  0  0  0  0  0  0  0  0  0
  -22.5420   -4.6010   21.2530 F   0  0  0  0  0  0  0  0  0  0  0  0
  -21.4660   -4.1630   25.8860 F   0  0  0  0  0  0  0  0  0  0  0  0
  -22.9530  -13.8620   20.9980 C   0  0  0  0  0  0  0  0  0  0  0  0
  -22.2750  -13.1630   21.9000 N   0  0  0  0  0  0  0  0  0  0  0  0
  -22.4900  -14.8900   20.5060 O   0  0  0  0  0  0  0  0  0  0  0  0
  -22.6680  -12.3350   22.3220 H   0  0  0  0  0  0  0  0  0  0  0  0
  -21.3490  -13.4600   22.1740 H   0  0  0  0  0  0  0  0  0  0  0  0
  -25.4990  -15.5630   20.0870 N   0  0  0  0  0  0  0  0  0  0  0  0
  -24.7340  -16.2040   20.2680 H   0  0  0  0  0  0  0  0  0  0  0  0
  -26.3400  -16.0350   19.7780 H   0  0  0  0  0  0  0  0  0  0  0  0
  -28.2890  -24.7110   19.6710 O   0  0  0  0  0  1  0  0  0  0  0  0
  -24.5560  -31.7860   22.6430 C   0  0  0  0  0  0  0  0  0  0  0  0
  -27.4190  -26.2680   19.7760 C   0  0  0  0  0  0  0  0  0  0  0  0
  -23.4980  -30.2930   21.0130 C   0  0  0  0  0  3  0  0  0  0  0  0
  -25.0760  -28.5930   19.6770 C   0  0  0  0  0  0  0  0  0  0  0  0
  -26.1020  -30.3900   21.0060 C   0  0  0  0  0  2  0  0  0  0  0  0
  -26.2580  -28.8850   20.3670 C   0  0  0  0  0  0  0  0  0  0  0  0
  -27.3760  -27.7690   20.3790 C   0  0  0  0  0  3  0  0  0  0  0  0
  -26.1850  -26.3800   19.0150 C   0  0  0  0  0  3  0  0  0  0  0  0
  -25.1150  -27.3720   18.9770 C   0  0  0  0  0  3  0  0  0  0  0  0
  -23.8360  -29.5490   19.6780 C   0  0  0  0  0  2  0  0  0  0  0  0
  -24.7480  -30.8740   21.6050 N   0  0  0  0  0  0  0  0  0  0  0  0
  -23.4270  -32.0520   23.1010 O   0  0  0  0  0  0  0  0  0  0  0  0
  -22.7610  -29.3390   21.9980 C   0  0  0  0  0  0  0  0  0  0  0  0
  -21.4180  -29.2180   21.9250 N   0  0  0  0  0  0  0  0  0  0  0  0
  -23.4230  -28.6960   22.8140 O   0  0  0  0  0  0  0  0  0  0  0  0
  -20.9210  -29.7840   21.2510 H   0  0  0  0  0  0  0  0  0  0  0  0
  -18.0300  -28.0810   22.6760 C   0  0  0  0  0  0  0  0  0  0  0  0
  -20.6150  -28.2590   22.7040 C   0  0  0  0  0  3  0  0  0  0  0  0
  -20.6050  -26.8700   22.0240 C   0  0  0  0  0  2  0  0  0  0  0  0
  -19.4050  -26.6620   21.0950 C   0  0  0  0  0  2  0  0  0  0  0  0
  -18.0940  -26.7910   21.8760 C   0  0  0  0  0  2  0  0  0  0  0  0
  -19.2110  -28.7800   23.0500 C   0  0  0  0  0  0  0  0  0  0  0  0
  -19.0870  -29.9850   23.7750 C   0  0  0  0  0  3  0  0  0  0  0  0
  -17.8210  -30.4930   24.1190 C   0  0  0  0  0  3  0  0  0  0  0  0
  -16.6580  -29.7930   23.7530 C   0  0  0  0  0  3  0  0  0  0  0  0
  -16.7640  -28.5870   23.0390 C   0  0  0  0  0  3  0  0  0  0  0  0
  -25.7400  -32.5480   23.3180 C   0  0  0  0  0  3  0  0  0  0  0  0
  -25.2830  -33.9050   23.7130 N   0  0  0  0  0  0  0  0  0  0  0  0
  -25.6170  -35.0550   23.1100 C   0  0  0  0  0  0  0  0  0  0  0  0
  -26.3840  -35.0910   22.1450 O   0  0  0  0  0  0  0  0  0  0  0  0
  -24.6030  -33.9440   24.4580 H   0  0  0  0  0  0  0  0  0  0  0  0
  -23.8420  -36.8190   22.7690 C   0  0  0  0  0  1  0  0  0  0  0  0
  -25.0160  -36.3730   23.6550 C   0  0  0  0  0  3  0  0  0  0  0  0
  -27.0050  -37.2700   24.7920 C   0  0  0  0  0  1  0  0  0  0  0  0
  -25.9970  -37.4790   23.7560 N   0  0  0  0  0  0  0  0  0  0  0  0
  -25.5270  -38.3590   23.9460 H   0  0  0  0  0  0  0  0  0  0  0  0
  -26.2980  -31.8060   24.5970 C   0  0  1  0  0  0  0  0  0  0  0  0
  -25.2140  -31.4670   25.6490 C   0  0  0  0  0  1  0  0  0  0  0  0
  -26.9970  -30.4820   24.2210 C   0  0  0  0  0  1  0  0  0  0  0  0
  -27.3730  -32.6790   25.2850 C   0  0  0  0  0  1  0  0  0  0  0  0
  1  4  1  0
  1  2  2  0
  4  3  1  0
  5  3  1  0
  5  6  1  0
  5  9  1  0
  6  2  1  0
  6 10  1  0
  7 11  1  0
  9  7  1  0
 10  7  1  0
 10  8  1  0
 12 11  1  0
 13 14  2  0
 14 15  1  0
 17 22  1  0
 18 19  1  0
 18 17  1  0
 20 19  1  0
 20 27  1  0
 20 21  1  0
 22 16  1  0
 22 21  1  0
 23 16  1  0
 24 25  2  0
 25 44  1  0
 26 25  1  0
 26 29  1  0
 27 28  1  0
 27 24  1  0
 28 26  2  0
 29 30  1  0
 30 31  2  0
 32 35  1  0
 32 31  1  0
 33 32  2  0
 34 33  1  0
 34 29  2  0
 35 36  1  0
 36 37  1  0
 37 38  2  0
 39 38  1  0
 39 43  1  0
 40 39  2  0
 41 36  2  0
 41 40  1  0
 42 41  1  0
 44 45  1  0
 45 48  1  0
 45 47  1  0
 46 44  2  0
 49 24  1  0
 49 50  1  0
 51 49  1  0
 52 54  1  0
 53 64  2  0
 54 59  1  0
 55 63  1  0
 55 65  1  0
 56 62  1  0
 56 58  1  0
 57 63  1  0
 58 59  2  0
 58 57  1  0
 60 54  2  0
 61 60  1  0
 61 56  2  0
 62 55  1  0
 63 53  1  0
 65 67  2  0
 66 65  1  0
 68 66  1  0
 69 78  2  0
 69 74  1  0
 70 66  1  0
 70 74  1  0
 71 70  1  0
 72 73  1  0
 72 71  1  0
 73 69  1  0
 74 75  2  0
 75 76  1  0
 77 76  2  0
 78 77  1  0
 79 53  1  0
 79 80  1  0
 79 89  1  0
 80 83  1  0
 81 85  1  0
 81 80  1  0
 82 81  2  0
 85 84  1  0
 85 87  1  0
 87 88  1  0
 87 86  1  0
 89 92  1  1
 89 90  1  0
 91 89  1  0
M  ISO  4  11 101  13 100  16 100  52 101
M  END
>  <TORSDO>  (2) 
F 17

>  <SCORE>  (2) 
-13.223

>  <name>  (2) 
1

>  <ligand_id>  (2) 
1

>  <original_smiles>  (2) 
[H]N=C(C(=O)N1C([H])([H])C([H])([H])C([H])([H])C([H])(n2nc(-c3c([H])c([H])c(Oc4c([H])c([H])c(F)c([H])c4F)c([H])c3[H])c(C(=O)N([H])[H])c2N([H])[H])C1([H])[H])c1c([H])c([H])c2c(nc(N([H])Oc3c([H])c([H])c4c(c3[H])C([H])([H])N(C(=O)C([H])(N([H])C(=O)C([H])(N([H])C([H])([H])[H])C([H])([H])[H])C(C([H])([H])[H])(C([H])([H])[H])C([H])([H])[H])C([H])(C(=O)N([H])C3([H])c5c([H])c([H])c([H])c([H])c5C([H])([H])C([H])([H])C3([H])[H])C4([H])[H])n2C([H])([H])[H])c1[H]

>  <smiles>  (2) 
[H]N=C(C(=O)N1C([H])([H])C([H])([H])C([H])([H])C([H])(n2nc(-c3c([H])c([H])c(Oc4c([H])c([H])c(F)c([H])c4F)c([H])c3[H])c(C(=O)N([H])[H])c2N([H])[H])C1([H])[H])c1c([H])c([H])c2c(nc(N([H])Oc3c([H])c([H])c4c(c3[H])C([H])([H])N(C(=O)C([H])(N([H])C(=O)C([H])(N([H])C([H])([H])[H])C([H])([H])[H])C(C([H])([H])[H])(C([H])([H])[H])C([H])([H])[H])C([H])(C(=O)N([H])C3([H])c5c([H])c([H])c([H])c([H])c5C([H])([H])C([H])([H])C3([H])[H])C4([H])[H])n2C([H])([H])[H])c1[H]

$$$$
2:0:0
     RDKit          3D

 93102  0  0  1  0  0  0  0  0999 V2000
  -30.2590  -23.8130   20.5240 C   0  0  0  0  0  3  0  0  0  0  0  0
  -28.9950  -23.8230   20.1020 C   0  0  0  0  0  0  0  0  0  0  0  0
  -30.7100  -22.4360   20.6540 C   0  0  0  0  0  0  0  0  0  0  0  0
  -28.6140  -22.4060   19.9630 C   0  0  0  0  0  0  0  0  0  0  0  0
  -29.6850  -21.6220   20.2990 N   0  0  0  0  0  0  0  0  0  0  0  0
  -31.8300  -22.0700   21.0320 O   0  0  0  0  0  0  0  0  0  0  0  0
  -27.5150  -21.9780   19.5860 O   0  0  0  0  0  0  0  0  0  0  0  0
  -30.8790  -19.3910   19.8700 C   0  0  0  0  0  3  0  0  0  0  0  0
  -28.6750  -19.3370   20.8130 C   0  0  0  0  0  3  0  0  0  0  0  0
  -30.9500  -17.9600   19.9240 C   0  0  0  0  0  3  0  0  0  0  0  0
  -28.7470  -17.9130   20.8720 C   0  0  0  0  0  3  0  0  0  0  0  0
  -29.7430  -20.1360   20.3170 C   0  0  0  0  0  0  0  0  0  0  0  0
  -29.8820  -17.1760   20.4360 C   0  0  0  0  0  0  0  0  0  0  0  0
  -30.6140  -14.6920   20.0390 C   0  0  0  0  0  0  0  0  0  0  0  0
  -30.3510  -12.4820   18.9210 C   0  0  0  0  0  2  0  0  0  0  0  0
  -29.3360  -12.6440   17.7650 C   0  0  0  0  0  2  0  0  0  0  0  0
  -27.8880  -12.4780   18.2690 C   0  0  0  0  0  2  0  0  0  0  0  0
  -27.6040  -13.3030   19.5530 C   0  0  0  0  0  3  0  0  0  0  0  0
  -28.7220  -13.1020   20.6010 C   0  0  0  0  0  2  0  0  0  0  0  0
  -30.0010  -13.4660   19.9670 N   0  0  0  0  0  0  0  0  0  0  0  0
  -31.7400  -14.8720   19.5650 O   0  0  0  0  0  0  0  0  0  0  0  0
  -29.8390  -15.7110   20.5320 N   0  0  0  0  0  0  0  0  0  0  0  0
  -28.9930  -15.3570   20.9500 H   0  0  0  0  0  0  0  0  0  0  0  0
  -25.2550  -13.8930   20.4110 C   0  0  0  0  0  0  0  0  0  0  0  0
  -24.2050  -13.1150   20.8200 C   0  0  0  0  0  0  0  0  0  0  0  0
  -24.6600  -11.7630   20.7350 C   0  0  0  0  0  0  0  0  0  0  0  0
  -26.2820  -13.0150   20.1010 N   0  0  0  0  0  0  0  0  0  0  0  0
  -25.9310  -11.7280   20.3550 N   0  0  0  0  0  0  0  0  0  0  0  0
  -23.9410  -10.4990   20.9340 C   0  0  0  0  0  0  0  0  0  0  0  0
  -24.3850   -9.5360   21.8660 C   0  0  0  0  0  3  0  0  0  0  0  0
  -23.6650   -8.3370   22.0540 C   0  0  0  0  0  3  0  0  0  0  0  0
  -22.4870   -8.0910   21.3090 C   0  0  0  0  0  0  0  0  0  0  0  0
  -22.0620   -9.0430   20.3660 C   0  0  0  0  0  3  0  0  0  0  0  0
  -22.7830  -10.2340   20.1760 C   0  0  0  0  0  3  0  0  0  0  0  0
  -21.7380   -6.9440   21.4070 O   0  0  0  0  0  0  0  0  0  0  0  0
  -21.6530   -6.2370   22.5810 C   0  0  0  0  0  0  0  0  0  0  0  0
  -21.1710   -6.8230   23.7710 C   0  0  0  0  0  3  0  0  0  0  0  0
  -21.0360   -6.0420   24.9350 C   0  0  0  0  0  3  0  0  0  0  0  0
  -21.3710   -4.6750   24.9100 C   0  0  0  0  0  0  0  0  0  0  0  0
  -21.8460   -4.0880   23.7230 C   0  0  0  0  0  3  0  0  0  0  0  0
  -21.9830   -4.8670   22.5620 C   0  0  0  0  0  0  0  0  0  0  0  0
  -22.4210   -4.2920   21.4150 F   0  0  0  0  0  0  0  0  0  0  0  0
  -21.2340   -3.9220   26.0250 F   0  0  0  0  0  0  0  0  0  0  0  0
  -22.8260  -13.5900   21.1790 C   0  0  0  0  0  0  0  0  0  0  0  0
  -22.1450  -12.8800   22.0710 N   0  0  0  0  0  0  0  0  0  0  0  0
  -22.3630  -14.6260   20.7030 O   0  0  0  0  0  0  0  0  0  0  0  0
  -22.5330  -12.0420   22.4800 H   0  0  0  0  0  0  0  0  0  0  0  0
  -21.2220  -13.1800   22.3510 H   0  0  0  0  0  0  0  0  0  0  0  0
  -25.4150  -15.2680   20.2560 N   0  0  0  0  0  0  0  0  0  0  0  0
  -24.6530  -15.9190   20.4140 H   0  0  0  0  0  0  0  0  0  0  0  0
  -26.2410  -15.7130   19.8770 H   0  0  0  0  0  0  0  0  0  0  0  0
  -28.0460  -25.0200   19.7410 C   0  0  0  0  0  2  0  0  0  0  0  0
  -28.3510  -26.4440   20.0610 O   0  0  0  0  0  0  0  0  0  0  0  0
  -24.6160  -31.8090   23.1910 C   0  0  0  0  0  0  0  0  0  0  0  0
  -27.2510  -27.3320   20.0150 C   0  0  0  0  0  0  0  0  0  0  0  0
  -23.4220  -30.4480   21.5170 C   0  0  0  0  0  3  0  0  0  0  0  0
  -24.8820  -28.9520   20.0480 C   0  0  0  0  0  0  0  0  0  0  0  0
  -25.9640  -30.7790   21.3470 C   0  0  0  0  0  2  0  0  0  0  0  0
  -26.0510  -29.4200   20.6630 C   0  0  0  0  0  0  0  0  0  0  0  0
  -27.2380  -28.6210   20.6410 C   0  0  0  0  0  3  0  0  0  0  0  0
  -26.0540  -26.9420   19.3600 C   0  0  0  0  0  3  0  0  0  0  0  0
  -24.8870  -27.7200   19.3870 C   0  0  0  0  0  3  0  0  0  0  0  0
  -23.6420  -29.8180   20.1170 C   0  0  0  0  0  2  0  0  0  0  0  0
  -24.6870  -31.0270   22.0750 N   0  0  0  0  0  0  0  0  0  0  0  0
  -23.5300  -32.0650   23.7320 O   0  0  0  0  0  0  0  0  0  0  0  0
  -22.7660  -29.3980   22.4480 C   0  0  0  0  0  0  0  0  0  0  0  0
  -21.4410  -29.2140   22.3160 N   0  0  0  0  0  0  0  0  0  0  0  0
  -23.4500  -28.7570   23.2500 O   0  0  0  0  0  0  0  0  0  0  0  0
  -20.9480  -29.7850   21.6430 H   0  0  0  0  0  0  0  0  0  0  0  0
  -18.0700  -27.9960   22.8070 C   0  0  0  0  0  0  0  0  0  0  0  0
  -20.6290  -28.2530   23.0660 C   0  0  0  0  0  3  0  0  0  0  0  0
  -20.7300  -26.8380   22.4510 C   0  0  0  0  0  2  0  0  0  0  0  0
  -19.6230  -26.5400   21.4370 C   0  0  0  0  0  2  0  0  0  0  0  0
  -18.2450  -26.6670   22.0920 C   0  0  0  0  0  2  0  0  0  0  0  0
  -19.1900  -28.7470   23.2510 C   0  0  0  0  0  0  0  0  0  0  0  0
  -18.9720  -29.9930   23.8810 C   0  0  0  0  0  3  0  0  0  0  0  0
  -17.6670  -30.4860   24.0690 C   0  0  0  0  0  3  0  0  0  0  0  0
  -16.5620  -29.7310   23.6400 C   0  0  0  0  0  3  0  0  0  0  0  0
  -16.7640  -28.4880   23.0150 C   0  0  0  0  0  3  0  0  0  0  0  0
  -25.8960  -32.4350   23.8260 C   0  0  0  0  0  3  0  0  0  0  0  0
  -25.5810  -33.8270   24.1790 N   0  0  0  0  0  0  0  0  0  0  0  0
  -25.8870  -34.8910   23.4260 C   0  0  0  0  0  0  0  0  0  0  0  0
  -26.5380  -34.8060   22.3810 O   0  0  0  0  0  0  0  0  0  0  0  0
  -25.0050  -33.9670   24.9970 H   0  0  0  0  0  0  0  0  0  0  0  0
  -24.1270  -36.6630   23.1370 C   0  0  0  0  0  1  0  0  0  0  0  0
  -25.3960  -36.2700   23.9080 C   0  0  0  0  0  3  0  0  0  0  0  0
  -27.5420  -37.1770   24.6860 C   0  0  0  0  0  1  0  0  0  0  0  0
  -26.4120  -37.3370   23.7740 N   0  0  0  0  0  0  0  0  0  0  0  0
  -25.9970  -38.2500   23.9410 H   0  0  0  0  0  0  0  0  0  0  0  0
  -26.4090  -31.6440   25.0900 C   0  0  1  0  0  0  0  0  0  0  0  0
  -25.3120  -31.3840   26.1500 C   0  0  0  0  0  1  0  0  0  0  0  0
  -26.9990  -30.2750   24.6790 C   0  0  0  0  0  1  0  0  0  0  0  0
  -27.5560  -32.4290   25.7690 C   0  0  0  0  0  1  0  0  0  0  0  0
  1  3  1  0
  2  1  2  0
  3  6  2  0
  4  2  1  0
  4  5  1  0
  5 12  1  0
  5  3  1  0
  7  4  2  0
  8 10  2  0
  8 12  1  0
  9 11  1  0
 10 13  1  0
 12  9  2  0
 13 22  1  0
 13 11  2  0
 14 22  1  0
 15 20  1  0
 16 17  1  0
 16 15  1  0
 18 17  1  0
 18 27  1  0
 18 19  1  0
 20 14  1  0
 20 19  1  0
 21 14  2  0
 22 23  1  0
 24 25  2  0
 25 44  1  0
 26 25  1  0
 26 29  1  0
 27 28  1  0
 27 24  1  0
 28 26  2  0
 29 30  1  0
 30 31  2  0
 32 35  1  0
 32 31  1  0
 33 32  2  0
 34 33  1  0
 34 29  2  0
 35 36  1  0
 36 37  1  0
 37 38  2  0
 39 38  1  0
 39 43  1  0
 40 39  2  0
 41 36  2  0
 41 40  1  0
 42 41  1  0
 44 45  1  0
 45 48  1  0
 45 47  1  0
 46 44  2  0
 49 24  1  0
 49 50  1  0
 51 49  1  0
 52 53  1  0
 52  2  1  0
 54 65  2  0
 55 53  1  0
 55 60  1  0
 56 64  1  0
 56 66  1  0
 57 63  1  0
 57 59  1  0
 58 64  1  0
 59 58  1  0
 60 59  2  0
 61 62  1  0
 61 55  2  0
 62 57  2  0
 63 56  1  0
 64 54  1  0
 66 68  2  0
 67 66  1  0
 69 67  1  0
 70 79  2  0
 70 75  1  0
 71 67  1  0
 71 75  1  0
 72 71  1  0
 73 74  1  0
 73 72  1  0
 74 70  1  0
 75 76  2  0
 76 77  1  0
 78 77  2  0
 79 78  1  0
 80 54  1  0
 80 81  1  0
 80 90  1  0
 81 84  1  0
 82 86  1  0
 82 81  1  0
 83 82  2  0
 86 85  1  0
 88 86  1  0
 88 89  1  0
 88 87  1  0
 90 93  1  1
 90 91  1  0
 92 90  1  0
M  ISO  4  14 100  22 100  52 101  53 101
M  END
>  <TORSDO>  (3) 
F 18

>  <SCORE>  (3) 
-14.456

>  <name>  (3) 
2

>  <ligand_id>  (3) 
2

>  <original_smiles>  (3) 
[H]C1=C(C([H])([H])Oc2c([H])c([H])c3c(c2[H])C([H])([H])N(C(=O)C([H])(N([H])C(=O)C([H])(N([H])C([H])([H])[H])C([H])([H])[H])C(C([H])([H])[H])(C([H])([H])[H])C([H])([H])[H])C([H])(C(=O)N([H])C2([H])c4c([H])c([H])c([H])c([H])c4C([H])([H])C([H])([H])C2([H])[H])C3([H])[H])C(=O)N(c2c([H])c([H])c(N([H])C(=O)N3C([H])([H])C([H])([H])C([H])([H])C([H])(n4nc(-c5c([H])c([H])c(Oc6c([H])c([H])c(F)c([H])c6F)c([H])c5[H])c(C(=O)N([H])[H])c4N([H])[H])C3([H])[H])c([H])c2[H])C1=O

>  <smiles>  (3) 
[H]C1=C(C([H])([H])Oc2c([H])c([H])c3c(c2[H])C([H])([H])N(C(=O)C([H])(N([H])C(=O)C([H])(N([H])C([H])([H])[H])C([H])([H])[H])C(C([H])([H])[H])(C([H])([H])[H])C([H])([H])[H])C([H])(C(=O)N([H])C2([H])c4c([H])c([H])c([H])c([H])c4C([H])([H])C([H])([H])C2([H])[H])C3([H])[H])C(=O)N(c2c([H])c([H])c(N([H])C(=O)N3C([H])([H])C([H])([H])C([H])([H])C([H])(n4nc(-c5c([H])c([H])c(Oc6c([H])c([H])c(F)c([H])c6F)c([H])c5[H])c(C(=O)N([H])[H])c4N([H])[H])C3([H])[H])c([H])c2[H])C1=O

$$$$
3:0:0
     RDKit          3D

 92100  0  0  1  0  0  0  0  0999 V2000
  -28.8240  -21.1680   19.8360 C   0  0  0  0  0  0  0  0  0  0  0  0
  -28.4550  -23.6840   19.8750 C   0  0  0  0  0  0  0  0  0  0  0  0
  -28.8480  -22.4450   20.4050 N   0  0  0  0  0  0  0  0  0  0  0  0
  -28.1740  -20.9350   18.8120 O   0  0  0  0  0  0  0  0  0  0  0  0
  -28.2560  -23.8310   18.6630 O   0  0  0  0  0  0  0  0  0  0  0  0
  -29.1890  -22.4740   21.3530 H   0  0  0  0  0  0  0  0  0  0  0  0
  -31.6240  -19.0980   21.5540 C   0  0  0  0  0  3  0  0  0  0  0  0
  -30.8060  -20.1690   21.1320 C   0  0  0  0  0  3  0  0  0  0  0  0
  -31.2810  -17.7510   21.3080 C   0  0  0  0  0  3  0  0  0  0  0  0
  -29.2610  -18.5290   20.2120 C   0  0  0  0  0  3  0  0  0  0  0  0
  -29.5980  -19.9390   20.4380 C   0  0  0  0  0  0  0  0  0  0  0  0
  -30.0910  -17.3970   20.6340 C   0  0  0  0  0  0  0  0  0  0  0  0
  -30.5520  -14.8010   20.3560 C   0  0  0  0  0  0  0  0  0  0  0  0
  -30.3710  -12.5100   19.3470 C   0  0  0  0  0  2  0  0  0  0  0  0
  -29.4270  -12.5550   18.1240 C   0  0  0  0  0  2  0  0  0  0  0  0
  -27.9600  -12.3770   18.5610 C   0  0  0  0  0  2  0  0  0  0  0  0
  -27.5810  -13.2690   19.7730 C   0  0  0  0  0  3  0  0  0  0  0  0
  -28.6450  -13.2030   20.8890 C   0  0  0  0  0  2  0  0  0  0  0  0
  -29.9300  -13.5720   20.2820 N   0  0  0  0  0  0  0  0  0  0  0  0
  -31.7520  -14.8820   20.0790 O   0  0  0  0  0  0  0  0  0  0  0  0
  -29.7570  -15.9460   20.4690 N   0  0  0  0  0  0  0  0  0  0  0  0
  -28.7700  -15.7430   20.4530 H   0  0  0  0  0  0  0  0  0  0  0  0
  -25.1950  -13.8530   20.5120 C   0  0  0  0  0  0  0  0  0  0  0  0
  -24.1350  -13.0750   20.8860 C   0  0  0  0  0  0  0  0  0  0  0  0
  -24.6040  -11.7250   20.8570 C   0  0  0  0  0  0  0  0  0  0  0  0
  -26.2410  -12.9770   20.2710 N   0  0  0  0  0  0  0  0  0  0  0  0
  -25.8930  -11.6920   20.5440 N   0  0  0  0  0  0  0  0  0  0  0  0
  -23.8810  -10.4610   21.0510 C   0  0  0  0  0  0  0  0  0  0  0  0
  -24.3240   -9.4910   21.9760 C   0  0  0  0  0  3  0  0  0  0  0  0
  -23.6020   -8.2930   22.1580 C   0  0  0  0  0  3  0  0  0  0  0  0
  -22.4220   -8.0550   21.4130 C   0  0  0  0  0  0  0  0  0  0  0  0
  -21.9970   -9.0130   20.4760 C   0  0  0  0  0  3  0  0  0  0  0  0
  -22.7210  -10.2040   20.2930 C   0  0  0  0  0  3  0  0  0  0  0  0
  -21.6690   -6.9090   21.5060 O   0  0  0  0  0  0  0  0  0  0  0  0
  -21.6420   -6.1560   22.6520 C   0  0  0  0  0  0  0  0  0  0  0  0
  -21.2450   -6.7000   23.8920 C   0  0  0  0  0  3  0  0  0  0  0  0
  -21.1630   -5.8750   25.0300 C   0  0  0  0  0  3  0  0  0  0  0  0
  -21.4710   -4.5040   24.9310 C   0  0  0  0  0  0  0  0  0  0  0  0
  -21.8620   -3.9590   23.6960 C   0  0  0  0  0  3  0  0  0  0  0  0
  -21.9450   -4.7820   22.5590 C   0  0  0  0  0  0  0  0  0  0  0  0
  -22.3030   -4.2470   21.3660 F   0  0  0  0  0  0  0  0  0  0  0  0
  -21.3860   -3.7080   26.0230 F   0  0  0  0  0  0  0  0  0  0  0  0
  -22.7360  -13.5480   21.1570 C   0  0  0  0  0  0  0  0  0  0  0  0
  -22.0100  -12.8510   22.0250 N   0  0  0  0  0  0  0  0  0  0  0  0
  -22.2950  -14.5710   20.6340 O   0  0  0  0  0  0  0  0  0  0  0  0
  -22.3800  -12.0240   22.4690 H   0  0  0  0  0  0  0  0  0  0  0  0
  -21.0720  -13.1490   22.2490 H   0  0  0  0  0  0  0  0  0  0  0  0
  -25.3500  -15.2240   20.3300 N   0  0  0  0  0  0  0  0  0  0  0  0
  -24.5730  -15.8660   20.4390 H   0  0  0  0  0  0  0  0  0  0  0  0
  -26.1800  -15.6710   19.9640 H   0  0  0  0  0  0  0  0  0  0  0  0
  -28.2110  -24.9920   20.7870 C   0  0  0  0  0  2  0  0  0  0  0  0
  -28.3350  -26.3800   20.1910 O   0  0  0  0  0  0  0  0  0  0  0  0
  -24.6130  -31.8730   23.2400 C   0  0  0  0  0  0  0  0  0  0  0  0
  -27.2280  -27.2630   20.2060 C   0  0  0  0  0  0  0  0  0  0  0  0
  -23.4140  -30.4680   21.6030 C   0  0  0  0  0  3  0  0  0  0  0  0
  -24.8680  -28.9050   20.1840 C   0  0  0  0  0  0  0  0  0  0  0  0
  -25.9570  -30.7770   21.4230 C   0  0  0  0  0  2  0  0  0  0  0  0
  -26.0410  -29.3920   20.7790 C   0  0  0  0  0  0  0  0  0  0  0  0
  -27.2260  -28.5850   20.7700 C   0  0  0  0  0  3  0  0  0  0  0  0
  -26.0320  -26.8380   19.5940 C   0  0  0  0  0  3  0  0  0  0  0  0
  -24.8700  -27.6360   19.5800 C   0  0  0  0  0  3  0  0  0  0  0  0
  -23.6320  -29.7850   20.2270 C   0  0  0  0  0  2  0  0  0  0  0  0
  -24.6810  -31.0590   22.1440 N   0  0  0  0  0  0  0  0  0  0  0  0
  -23.5280  -32.1510   23.7720 O   0  0  0  0  0  0  0  0  0  0  0  0
  -22.7490  -29.4570   22.5670 C   0  0  0  0  0  0  0  0  0  0  0  0
  -21.4220  -29.2810   22.4440 N   0  0  0  0  0  0  0  0  0  0  0  0
  -23.4270  -28.8320   23.3870 O   0  0  0  0  0  0  0  0  0  0  0  0
  -20.9330  -29.8350   21.7550 H   0  0  0  0  0  0  0  0  0  0  0  0
  -18.0460  -28.0740   22.9410 C   0  0  0  0  0  0  0  0  0  0  0  0
  -20.6040  -28.3430   23.2160 C   0  0  0  0  0  3  0  0  0  0  0  0
  -20.7110  -26.9100   22.6450 C   0  0  0  0  0  2  0  0  0  0  0  0
  -19.6120  -26.5800   21.6300 C   0  0  0  0  0  2  0  0  0  0  0  0
  -18.2290  -26.7220   22.2710 C   0  0  0  0  0  2  0  0  0  0  0  0
  -19.1610  -28.8420   23.3710 C   0  0  0  0  0  0  0  0  0  0  0  0
  -18.9370  -30.1050   23.9600 C   0  0  0  0  0  3  0  0  0  0  0  0
  -17.6300  -30.6010   24.1220 C   0  0  0  0  0  3  0  0  0  0  0  0
  -16.5290  -29.8310   23.7080 C   0  0  0  0  0  3  0  0  0  0  0  0
  -16.7380  -28.5690   23.1240 C   0  0  0  0  0  3  0  0  0  0  0  0
  -25.8930  -32.5110   23.8650 C   0  0  0  0  0  3  0  0  0  0  0  0
  -25.5780  -33.9100   24.1890 N   0  0  0  0  0  0  0  0  0  0  0  0
  -25.9130  -34.9620   23.4300 C   0  0  0  0  0  0  0  0  0  0  0  0
  -26.5860  -34.8580   22.4010 O   0  0  0  0  0  0  0  0  0  0  0  0
  -24.9790  -34.0660   24.9860 H   0  0  0  0  0  0  0  0  0  0  0  0
  -24.1850  -36.7560   23.0730 C   0  0  0  0  0  1  0  0  0  0  0  0
  -25.4250  -36.3530   23.8850 C   0  0  0  0  0  3  0  0  0  0  0  0
  -27.5610  -37.2380   24.7130 C   0  0  0  0  0  1  0  0  0  0  0  0
  -26.4580  -37.4060   23.7710 N   0  0  0  0  0  0  0  0  0  0  0  0
  -26.0520  -38.3260   23.9180 H   0  0  0  0  0  0  0  0  0  0  0  0
  -26.4030  -31.7460   25.1480 C   0  0  1  0  0  0  0  0  0  0  0  0
  -25.3060  -31.5190   26.2150 C   0  0  0  0  0  1  0  0  0  0  0  0
  -26.9850  -30.3650   24.7700 C   0  0  0  0  0  1  0  0  0  0  0  0
  -27.5530  -32.5440   25.8080 C   0  0  0  0  0  1  0  0  0  0  0  0
  1  3  1  0
  1 11  1  0
  2  3  1  0
  2 51  1  0
  3  6  1  0
  4  1  2  0
  5  2  2  0
  8  7  2  0
  9  7  1  0
 10 11  2  0
 10 12  1  0
 11  8  1  0
 12  9  2  0
 13 21  1  0
 14 19  1  0
 15 16  1  0
 15 14  1  0
 17 16  1  0
 17 26  1  0
 17 18  1  0
 19 13  1  0
 19 18  1  0
 20 13  2  0
 21 12  1  0
 22 21  1  0
 23 24  2  0
 24 43  1  0
 25 24  1  0
 25 28  1  0
 26 23  1  0
 26 27  1  0
 27 25  2  0
 28 29  1  0
 29 30  2  0
 31 34  1  0
 31 30  1  0
 32 31  2  0
 33 32  1  0
 33 28  2  0
 34 35  1  0
 35 36  1  0
 36 37  2  0
 38 37  1  0
 38 42  1  0
 39 38  2  0
 40 35  2  0
 40 39  1  0
 41 40  1  0
 43 44  1  0
 44 47  1  0
 44 46  1  0
 45 43  2  0
 48 49  1  0
 48 23  1  0
 50 48  1  0
 52 54  1  0
 52 51  1  0
 53 64  2  0
 54 59  1  0
 55 63  1  0
 55 65  1  0
 56 62  1  0
 56 58  1  0
 57 63  1  0
 58 57  1  0
 59 58  2  0
 60 54  2  0
 61 60  1  0
 61 56  2  0
 62 55  1  0
 63 53  1  0
 65 67  2  0
 66 65  1  0
 68 66  1  0
 69 78  2  0
 69 74  1  0
 70 66  1  0
 70 74  1  0
 71 70  1  0
 72 73  1  0
 72 71  1  0
 73 69  1  0
 74 75  2  0
 75 76  1  0
 77 76  2  0
 78 77  1  0
 79 53  1  0
 79 80  1  0
 79 89  1  0
 80 83  1  0
 81 85  1  0
 81 80  1  0
 82 81  2  0
 85 84  1  0
 87 85  1  0
 87 88  1  0
 87 86  1  0
 89 92  1  1
 89 90  1  0
 91 89  1  0
M  ISO  4  13 100  21 100  51 101  52 101
M  END
>  <TORSDO>  (4) 
F 18

>  <SCORE>  (4) 
-14.907

>  <name>  (4) 
3

>  <ligand_id>  (4) 
3

>  <original_smiles>  (4) 
[H]c1c([H])c(C(=O)N([H])C(=O)C([H])([H])Oc2c([H])c([H])c3c(c2[H])C([H])([H])N(C(=O)C([H])(N([H])C(=O)C([H])(N([H])C([H])([H])[H])C([H])([H])[H])C(C([H])([H])[H])(C([H])([H])[H])C([H])([H])[H])C([H])(C(=O)N([H])C2([H])c4c([H])c([H])c([H])c([H])c4C([H])([H])C([H])([H])C2([H])[H])C3([H])[H])c([H])c(N([H])C(=O)N2C([H])([H])C([H])([H])C([H])([H])C([H])(n3nc(-c4c([H])c([H])c(Oc5c([H])c([H])c(F)c([H])c5F)c([H])c4[H])c(C(=O)N([H])[H])c3N([H])[H])C2([H])[H])c1[H]

>  <smiles>  (4) 
[H]c1c([H])c(C(=O)N([H])C(=O)C([H])([H])Oc2c([H])c([H])c3c(c2[H])C([H])([H])N(C(=O)C([H])(N([H])C(=O)C([H])(N([H])C([H])([H])[H])C([H])([H])[H])C(C([H])([H])[H])(C([H])([H])[H])C([H])([H])[H])C([H])(C(=O)N([H])C2([H])c4c([H])c([H])c([H])c([H])c4C([H])([H])C([H])([H])C2([H])[H])C3([H])[H])c([H])c(N([H])C(=O)N2C([H])([H])C([H])([H])C([H])([H])C([H])(n3nc(-c4c([H])c([H])c(Oc5c([H])c([H])c(F)c([H])c5F)c([H])c4[H])c(C(=O)N([H])[H])c3N([H])[H])C2([H])[H])c1[H]

$$$$
4:0:0
     RDKit          3D

 92100  0  0  1  0  0  0  0  0999 V2000
  -29.1100  -22.6890   20.1320 C   0  0  0  0  0  0  0  0  0  0  0  0
  -28.9950  -21.3160   20.4480 N   0  0  0  0  0  0  0  0  0  0  0  0
  -29.9400  -23.1020   19.3220 O   0  0  0  0  0  0  0  0  0  0  0  0
  -28.2240  -21.1140   21.0710 H   0  0  0  0  0  0  0  0  0  0  0  0
  -31.7990  -19.1390   19.0130 C   0  0  0  0  0  3  0  0  0  0  0  0
  -31.0050  -20.2410   19.3780 C   0  0  0  0  0  3  0  0  0  0  0  0
  -31.4330  -17.8160   19.3280 C   0  0  0  0  0  3  0  0  0  0  0  0
  -29.7870  -20.0850   20.0780 C   0  0  0  0  0  0  0  0  0  0  0  0
  -30.2510  -17.5080   20.0450 C   0  0  0  0  0  0  0  0  0  0  0  0
  -29.4380  -18.6850   20.4060 C   0  0  0  0  0  0  0  0  0  0  0  0
  -28.2860  -18.4660   21.0840 F   0  0  0  0  0  0  0  0  0  0  0  0
  -30.6180  -14.8620   20.0700 C   0  0  0  0  0  0  0  0  0  0  0  0
  -30.3430  -12.5880   19.0480 C   0  0  0  0  0  2  0  0  0  0  0  0
  -29.3590  -12.6630   17.8610 C   0  0  0  0  0  2  0  0  0  0  0  0
  -27.9130  -12.4750   18.3510 C   0  0  0  0  0  2  0  0  0  0  0  0
  -27.5870  -13.3460   19.5950 C   0  0  0  0  0  3  0  0  0  0  0  0
  -28.6950  -13.2730   20.6690 C   0  0  0  0  0  2  0  0  0  0  0  0
  -29.9570  -13.6460   20.0180 N   0  0  0  0  0  0  0  0  0  0  0  0
  -31.8020  -14.8770   19.7270 O   0  0  0  0  0  0  0  0  0  0  0  0
  -29.9160  -16.0560   20.3260 N   0  0  0  0  0  0  0  0  0  0  0  0
  -28.9850  -15.9120   20.6870 H   0  0  0  0  0  0  0  0  0  0  0  0
  -25.2350  -13.9120   20.4350 C   0  0  0  0  0  0  0  0  0  0  0  0
  -24.1870  -13.1290   20.8370 C   0  0  0  0  0  0  0  0  0  0  0  0
  -24.6520  -11.7800   20.7680 C   0  0  0  0  0  0  0  0  0  0  0  0
  -26.2690  -13.0400   20.1420 N   0  0  0  0  0  0  0  0  0  0  0  0
  -25.9300  -11.7510   20.4070 N   0  0  0  0  0  0  0  0  0  0  0  0
  -23.9350  -10.5130   20.9680 C   0  0  0  0  0  0  0  0  0  0  0  0
  -24.3890   -9.5450   21.8910 C   0  0  0  0  0  3  0  0  0  0  0  0
  -23.6700   -8.3450   22.0810 C   0  0  0  0  0  3  0  0  0  0  0  0
  -22.4840   -8.1030   21.3470 C   0  0  0  0  0  0  0  0  0  0  0  0
  -22.0500   -9.0590   20.4140 C   0  0  0  0  0  3  0  0  0  0  0  0
  -22.7680  -10.2510   20.2220 C   0  0  0  0  0  3  0  0  0  0  0  0
  -21.7370   -6.9540   21.4460 O   0  0  0  0  0  0  0  0  0  0  0  0
  -21.7000   -6.2170   22.6030 C   0  0  0  0  0  0  0  0  0  0  0  0
  -21.2700   -6.7730   23.8280 C   0  0  0  0  0  3  0  0  0  0  0  0
  -21.1810   -5.9630   24.9780 C   0  0  0  0  0  3  0  0  0  0  0  0
  -21.5100   -4.5960   24.9030 C   0  0  0  0  0  0  0  0  0  0  0  0
  -21.9330   -4.0390   23.6830 C   0  0  0  0  0  3  0  0  0  0  0  0
  -22.0240   -4.8470   22.5360 C   0  0  0  0  0  0  0  0  0  0  0  0
  -22.4120   -4.3000   21.3580 F   0  0  0  0  0  0  0  0  0  0  0  0
  -21.4180   -3.8150   26.0040 F   0  0  0  0  0  0  0  0  0  0  0  0
  -22.8020  -13.5990   21.1700 C   0  0  0  0  0  0  0  0  0  0  0  0
  -22.1090  -12.8870   22.0510 N   0  0  0  0  0  0  0  0  0  0  0  0
  -22.3440  -14.6330   20.6840 O   0  0  0  0  0  0  0  0  0  0  0  0
  -22.4940  -12.0520   22.4670 H   0  0  0  0  0  0  0  0  0  0  0  0
  -21.1800  -13.1840   22.3170 H   0  0  0  0  0  0  0  0  0  0  0  0
  -25.3870  -15.2860   20.2700 N   0  0  0  0  0  0  0  0  0  0  0  0
  -24.6210  -15.9340   20.4240 H   0  0  0  0  0  0  0  0  0  0  0  0
  -26.2150  -15.7350   19.9010 H   0  0  0  0  0  0  0  0  0  0  0  0
  -28.1460  -23.6220   20.8250 C   0  0  0  0  0  3  0  0  0  0  0  0
  -27.8390  -24.9990   20.8580 C   0  0  0  0  0  3  0  0  0  0  0  0
  -28.2460  -26.2500   20.2740 O   0  0  0  0  0  0  0  0  0  0  0  0
  -24.6200  -31.8800   23.2350 C   0  0  0  0  0  0  0  0  0  0  0  0
  -27.2300  -27.2480   20.1970 C   0  0  0  0  0  0  0  0  0  0  0  0
  -23.4280  -30.4780   21.5910 C   0  0  0  0  0  3  0  0  0  0  0  0
  -24.8900  -28.9300   20.1610 C   0  0  0  0  0  0  0  0  0  0  0  0
  -25.9760  -30.7780   21.4270 C   0  0  0  0  0  2  0  0  0  0  0  0
  -26.0620  -29.3940   20.7740 C   0  0  0  0  0  0  0  0  0  0  0  0
  -27.2380  -28.5640   20.7860 C   0  0  0  0  0  3  0  0  0  0  0  0
  -26.0410  -26.8720   19.5370 C   0  0  0  0  0  3  0  0  0  0  0  0
  -24.8870  -27.6790   19.5280 C   0  0  0  0  0  3  0  0  0  0  0  0
  -23.6530  -29.8100   20.2100 C   0  0  0  0  0  2  0  0  0  0  0  0
  -24.6940  -31.0640   22.1400 N   0  0  0  0  0  0  0  0  0  0  0  0
  -23.5330  -32.1560   23.7620 O   0  0  0  0  0  0  0  0  0  0  0  0
  -22.7580  -29.4630   22.5480 C   0  0  0  0  0  0  0  0  0  0  0  0
  -21.4290  -29.2960   22.4270 N   0  0  0  0  0  0  0  0  0  0  0  0
  -23.4340  -28.8300   23.3620 O   0  0  0  0  0  0  0  0  0  0  0  0
  -20.9420  -29.8590   21.7450 H   0  0  0  0  0  0  0  0  0  0  0  0
  -18.0450  -28.1150   22.9480 C   0  0  0  0  0  0  0  0  0  0  0  0
  -20.6080  -28.3580   23.1980 C   0  0  0  0  0  3  0  0  0  0  0  0
  -20.6970  -26.9300   22.6120 C   0  0  0  0  0  2  0  0  0  0  0  0
  -19.5850  -26.6200   21.6040 C   0  0  0  0  0  2  0  0  0  0  0  0
  -18.2090  -26.7690   22.2610 C   0  0  0  0  0  2  0  0  0  0  0  0
  -19.1720  -28.8680   23.3740 C   0  0  0  0  0  0  0  0  0  0  0  0
  -18.9650  -30.1270   23.9780 C   0  0  0  0  0  3  0  0  0  0  0  0
  -17.6630  -30.6330   24.1580 C   0  0  0  0  0  3  0  0  0  0  0  0
  -16.5510  -29.8770   23.7480 C   0  0  0  0  0  3  0  0  0  0  0  0
  -16.7440  -28.6190   23.1480 C   0  0  0  0  0  3  0  0  0  0  0  0
  -25.8980  -32.5170   23.8630 C   0  0  0  0  0  3  0  0  0  0  0  0
  -26.4030  -31.7550   25.1490 C   0  0  1  0  0  0  0  0  0  0  0  0
  -25.3020  -31.5280   26.2120 C   0  0  0  0  0  1  0  0  0  0  0  0
  -26.9860  -30.3720   24.7770 C   0  0  0  0  0  1  0  0  0  0  0  0
  -27.5510  -32.5510   25.8130 C   0  0  0  0  0  1  0  0  0  0  0  0
  -25.5850  -33.9180   24.1840 N   0  0  0  0  0  0  0  0  0  0  0  0
  -25.9180  -34.9680   23.4210 C   0  0  0  0  0  0  0  0  0  0  0  0
  -26.5920  -34.8600   22.3930 O   0  0  0  0  0  0  0  0  0  0  0  0
  -24.9890  -34.0760   24.9830 H   0  0  0  0  0  0  0  0  0  0  0  0
  -24.1970  -36.7660   23.0520 C   0  0  0  0  0  1  0  0  0  0  0  0
  -25.4320  -36.3600   23.8720 C   0  0  0  0  0  3  0  0  0  0  0  0
  -27.5620  -37.2450   24.7150 C   0  0  0  0  0  1  0  0  0  0  0  0
  -26.4680  -37.4100   23.7610 N   0  0  0  0  0  0  0  0  0  0  0  0
  -26.0640  -38.3320   23.9000 H   0  0  0  0  0  0  0  0  0  0  0  0
  1  2  1  0
  1 50  1  0
  2  4  1  0
  3  1  2  0
  5  7  2  0
  5  6  1  0
  6  8  2  0
  7  9  1  0
  8 10  1  0
  8  2  1  0
  9 20  1  0
  9 10  2  0
 10 11  1  0
 12 20  1  0
 13 18  1  0
 14 15  1  0
 14 13  1  0
 16 15  1  0
 16 25  1  0
 16 17  1  0
 18 12  1  0
 18 17  1  0
 19 12  2  0
 20 21  1  0
 22 23  2  0
 23 42  1  0
 24 23  1  0
 24 27  1  0
 25 26  1  0
 25 22  1  0
 26 24  2  0
 27 28  1  0
 28 29  2  0
 30 33  1  0
 30 29  1  0
 31 30  2  0
 32 31  1  0
 32 27  2  0
 33 34  1  0
 34 35  1  0
 35 36  2  0
 37 36  1  0
 37 41  1  0
 38 37  2  0
 39 34  2  0
 39 38  1  0
 40 39  1  0
 42 43  1  0
 43 46  1  0
 43 45  1  0
 44 42  2  0
 47 48  1  0
 47 22  1  0
 49 47  1  0
 50 51  2  0
 52 51  1  0
 53 64  2  0
 54 52  1  0
 54 59  1  0
 55 63  1  0
 55 65  1  0
 56 62  1  0
 56 58  1  0
 57 63  1  0
 58 59  2  0
 58 57  1  0
 60 54  2  0
 61 60  1  0
 61 56  2  0
 62 55  1  0
 63 53  1  0
 65 67  2  0
 66 65  1  0
 68 66  1  0
 69 78  2  0
 69 74  1  0
 70 66  1  0
 70 74  1  0
 71 70  1  0
 72 73  1  0
 72 71  1  0
 73 69  1  0
 74 75  2  0
 75 76  1  0
 77 76  2  0
 78 77  1  0
 79 53  1  0
 79 84  1  0
 79 80  1  0
 80 83  1  1
 80 81  1  0
 82 80  1  0
 84 87  1  0
 85 89  1  0
 85 84  1  0
 86 85  2  0
 89 88  1  0
 91 89  1  0
 91 92  1  0
 91 90  1  0
M  ISO  4  12 100  20 100  51 101  52 101
M  END
>  <TORSDO>  (5) 
F 18

>  <SCORE>  (5) 
-14.591

>  <name>  (5) 
4

>  <ligand_id>  (5) 
4

>  <original_smiles>  (5) 
[H]C(Oc1c([H])c([H])c2c(c1[H])C([H])([H])N(C(=O)C([H])(N([H])C(=O)C([H])(N([H])C([H])([H])[H])C([H])([H])[H])C(C([H])([H])[H])(C([H])([H])[H])C([H])([H])[H])C([H])(C(=O)N([H])C1([H])c3c([H])c([H])c([H])c([H])c3C([H])([H])C([H])([H])C1([H])[H])C2([H])[H])=C([H])C(=O)N([H])c1c([H])c([H])c([H])c(N([H])C(=O)N2C([H])([H])C([H])([H])C([H])([H])C([H])(n3nc(-c4c([H])c([H])c(Oc5c([H])c([H])c(F)c([H])c5F)c([H])c4[H])c(C(=O)N([H])[H])c3N([H])[H])C2([H])[H])c1F

>  <smiles>  (5) 
[H]C(Oc1c([H])c([H])c2c(c1[H])C([H])([H])N(C(=O)C([H])(N([H])C(=O)C([H])(N([H])C([H])([H])[H])C([H])([H])[H])C(C([H])([H])[H])(C([H])([H])[H])C([H])([H])[H])C([H])(C(=O)N([H])C1([H])c3c([H])c([H])c([H])c([H])c3C([H])([H])C([H])([H])C1([H])[H])C2([H])[H])=C([H])C(=O)N([H])c1c([H])c([H])c([H])c(N([H])C(=O)N2C([H])([H])C([H])([H])C([H])([H])C([H])(n3nc(-c4c([H])c([H])c(Oc5c([H])c([H])c(F)c([H])c5F)c([H])c4[H])c(C(=O)N([H])[H])c3N([H])[H])C2([H])[H])c1F

$$$$
5:0:0
     RDKit          3D

 96105  0  0  1  0  0  0  0  0999 V2000
  -30.2650  -23.8180   20.1610 C   0  0  0  0  0  3  0  0  0  0  0  0
  -28.9340  -23.8280   20.1970 C   0  0  0  0  0  0  0  0  0  0  0  0
  -30.7370  -22.4430   20.2280 C   0  0  0  0  0  0  0  0  0  0  0  0
  -28.5300  -22.4140   20.3110 C   0  0  0  0  0  0  0  0  0  0  0  0
  -29.6540  -21.6260   20.3170 N   0  0  0  0  0  0  0  0  0  0  0  0
  -31.9190  -22.0870   20.1730 O   0  0  0  0  0  0  0  0  0  0  0  0
  -27.3680  -22.0000   20.3980 O   0  0  0  0  0  0  0  0  0  0  0  0
  -30.7750  -19.4140   21.0160 C   0  0  0  0  0  3  0  0  0  0  0  0
  -30.8330  -17.9870   21.0790 C   0  0  0  0  0  3  0  0  0  0  0  0
  -28.7090  -19.2980   19.8050 C   0  0  0  0  0  3  0  0  0  0  0  0
  -29.7100  -20.1340   20.3840 C   0  0  0  0  0  0  0  0  0  0  0  0
  -29.8150  -17.1780   20.5140 C   0  0  0  0  0  0  0  0  0  0  0  0
  -28.7580  -17.8700   19.8680 C   0  0  0  0  0  0  0  0  0  0  0  0
  -30.5550  -14.6860   20.4290 C   0  0  0  0  0  0  0  0  0  0  0  0
  -30.3740  -12.4480   19.3650 C   0  0  0  0  0  2  0  0  0  0  0  0
  -29.4250  -12.5810   18.1520 C   0  0  0  0  0  2  0  0  0  0  0  0
  -27.9520  -12.4140   18.5780 C   0  0  0  0  0  2  0  0  0  0  0  0
  -27.5890  -13.2710   19.8200 C   0  0  0  0  0  3  0  0  0  0  0  0
  -28.6480  -13.1020   20.9330 C   0  0  0  0  0  2  0  0  0  0  0  0
  -29.9560  -13.4560   20.3570 N   0  0  0  0  0  0  0  0  0  0  0  0
  -31.7330  -14.8530   20.0990 O   0  0  0  0  0  0  0  0  0  0  0  0
  -29.7030  -15.7280   20.6700 N   0  0  0  0  0  0  0  0  0  0  0  0
  -28.7450  -15.4290   20.7730 H   0  0  0  0  0  0  0  0  0  0  0  0
  -25.1980  -13.8790   20.5380 C   0  0  0  0  0  0  0  0  0  0  0  0
  -24.1260  -13.1070   20.8970 C   0  0  0  0  0  0  0  0  0  0  0  0
  -24.5850  -11.7540   20.8640 C   0  0  0  0  0  0  0  0  0  0  0  0
  -26.2390  -12.9950   20.3010 N   0  0  0  0  0  0  0  0  0  0  0  0
  -25.8770  -11.7130   20.5590 N   0  0  0  0  0  0  0  0  0  0  0  0
  -23.8560  -10.4940   21.0500 C   0  0  0  0  0  0  0  0  0  0  0  0
  -24.2830   -9.5260   21.9870 C   0  0  0  0  0  3  0  0  0  0  0  0
  -23.5550   -8.3280   22.1600 C   0  0  0  0  0  3  0  0  0  0  0  0
  -22.3870   -8.0920   21.3970 C   0  0  0  0  0  0  0  0  0  0  0  0
  -21.9800   -9.0490   20.4500 C   0  0  0  0  0  3  0  0  0  0  0  0
  -22.7080  -10.2370   20.2750 C   0  0  0  0  0  3  0  0  0  0  0  0
  -21.6310   -6.9480   21.4800 O   0  0  0  0  0  0  0  0  0  0  0  0
  -21.5710   -6.2070   22.6330 C   0  0  0  0  0  0  0  0  0  0  0  0
  -21.1110   -6.7560   23.8490 C   0  0  0  0  0  3  0  0  0  0  0  0
  -20.9990   -5.9390   24.9930 C   0  0  0  0  0  3  0  0  0  0  0  0
  -21.3380   -4.5760   24.9210 C   0  0  0  0  0  0  0  0  0  0  0  0
  -21.7930   -4.0260   23.7080 C   0  0  0  0  0  3  0  0  0  0  0  0
  -21.9060   -4.8390   22.5680 C   0  0  0  0  0  0  0  0  0  0  0  0
  -22.3240   -4.3000   21.3970 F   0  0  0  0  0  0  0  0  0  0  0  0
  -21.2240   -3.7890   26.0160 F   0  0  0  0  0  0  0  0  0  0  0  0
  -22.7290  -13.5870   21.1620 C   0  0  0  0  0  0  0  0  0  0  0  0
  -21.9970  -12.8910   22.0240 N   0  0  0  0  0  0  0  0  0  0  0  0
  -22.2930  -14.6130   20.6400 O   0  0  0  0  0  0  0  0  0  0  0  0
  -22.3600  -12.0600   22.4650 H   0  0  0  0  0  0  0  0  0  0  0  0
  -21.0600  -13.1940   22.2470 H   0  0  0  0  0  0  0  0  0  0  0  0
  -25.3580  -15.2530   20.3800 N   0  0  0  0  0  0  0  0  0  0  0  0
  -24.5910  -15.8920   20.5520 H   0  0  0  0  0  0  0  0  0  0  0  0
  -26.2040  -15.7420   20.0880 H   0  0  0  0  0  0  0  0  0  0  0  0
  -27.7500  -17.1280   19.2510 N   0  0  0  0  0  0  0  0  0  0  0  0
  -27.1370  -17.6680   18.6470 H   0  0  0  0  0  0  0  0  0  0  0  0
  -28.1010  -16.3250   18.7420 H   0  0  0  0  0  0  0  0  0  0  0  0
  -27.9250  -25.0100   19.9960 C   0  0  0  0  0  2  0  0  0  0  0  0
  -28.2700  -26.4430   20.2190 O   0  0  0  0  0  0  0  0  0  0  0  0
  -24.6110  -31.8870   23.3060 C   0  0  0  0  0  0  0  0  0  0  0  0
  -27.1780  -27.3390   20.1810 C   0  0  0  0  0  0  0  0  0  0  0  0
  -23.3930  -30.5130   21.6610 C   0  0  0  0  0  3  0  0  0  0  0  0
  -24.8260  -28.9840   20.2100 C   0  0  0  0  0  0  0  0  0  0  0  0
  -25.9360  -30.8220   21.4650 C   0  0  0  0  0  2  0  0  0  0  0  0
  -26.0080  -29.4510   20.8030 C   0  0  0  0  0  0  0  0  0  0  0  0
  -27.1870  -28.6430   20.7780 C   0  0  0  0  0  3  0  0  0  0  0  0
  -25.9640  -26.9450   19.5620 C   0  0  0  0  0  3  0  0  0  0  0  0
  -24.8090  -27.7370   19.5820 C   0  0  0  0  0  3  0  0  0  0  0  0
  -23.5960  -29.8630   20.2720 C   0  0  0  0  0  2  0  0  0  0  0  0
  -24.6670  -31.0890   22.2020 N   0  0  0  0  0  0  0  0  0  0  0  0
  -23.5310  -32.1620   23.8480 O   0  0  0  0  0  0  0  0  0  0  0  0
  -22.7310  -29.4840   22.6100 C   0  0  0  0  0  0  0  0  0  0  0  0
  -21.4070  -29.2960   22.4740 N   0  0  0  0  0  0  0  0  0  0  0  0
  -23.4110  -28.8590   23.4290 O   0  0  0  0  0  0  0  0  0  0  0  0
  -20.9160  -29.8590   21.7940 H   0  0  0  0  0  0  0  0  0  0  0  0
  -18.0380  -28.0630   22.9370 C   0  0  0  0  0  0  0  0  0  0  0  0
  -20.5900  -28.3500   23.2370 C   0  0  0  0  0  3  0  0  0  0  0  0
  -20.7140  -26.9180   22.6660 C   0  0  0  0  0  2  0  0  0  0  0  0
  -19.6280  -26.5800   21.6410 C   0  0  0  0  0  2  0  0  0  0  0  0
  -18.2360  -26.7130   22.2660 C   0  0  0  0  0  2  0  0  0  0  0  0
  -19.1430  -28.8370   23.3790 C   0  0  0  0  0  0  0  0  0  0  0  0
  -18.9050  -30.0990   23.9650 C   0  0  0  0  0  3  0  0  0  0  0  0
  -17.5930  -30.5880   24.1130 C   0  0  0  0  0  3  0  0  0  0  0  0
  -16.5020  -29.8100   23.6890 C   0  0  0  0  0  3  0  0  0  0  0  0
  -16.7240  -28.5490   23.1070 C   0  0  0  0  0  3  0  0  0  0  0  0
  -25.8980  -32.5110   23.9270 C   0  0  0  0  0  3  0  0  0  0  0  0
  -26.4040  -31.7370   25.2050 C   0  0  1  0  0  0  0  0  0  0  0  0
  -25.3030  -31.5160   26.2700 C   0  0  0  0  0  1  0  0  0  0  0  0
  -26.9710  -30.3530   24.8150 C   0  0  0  0  0  1  0  0  0  0  0  0
  -27.5630  -32.5190   25.8670 C   0  0  0  0  0  1  0  0  0  0  0  0
  -25.6030  -33.9120   24.2530 N   0  0  0  0  0  0  0  0  0  0  0  0
  -25.9130  -34.9580   23.4740 C   0  0  0  0  0  0  0  0  0  0  0  0
  -26.5500  -34.8440   22.4230 O   0  0  0  0  0  0  0  0  0  0  0  0
  -25.0410  -34.0780   25.0750 H   0  0  0  0  0  0  0  0  0  0  0  0
  -24.1690  -36.7410   23.1680 C   0  0  0  0  0  1  0  0  0  0  0  0
  -25.4440  -36.3500   23.9330 C   0  0  0  0  0  3  0  0  0  0  0  0
  -27.6090  -37.2500   24.6630 C   0  0  0  0  0  1  0  0  0  0  0  0
  -26.4680  -37.4040   23.7640 N   0  0  0  0  0  0  0  0  0  0  0  0
  -26.0650  -38.3240   23.9200 H   0  0  0  0  0  0  0  0  0  0  0  0
  1  2  2  0
  1  3  1  0
  2  4  1  0
  3  5  1  0
  4  5  1  0
  4  7  2  0
  5 11  1  0
  6  3  2  0
  8  9  1  0
 10 13  2  0
 10 11  1  0
 11  8  2  0
 12 22  1  0
 12  9  2  0
 13 12  1  0
 14 22  1  0
 15 20  1  0
 16 17  1  0
 16 15  1  0
 18 17  1  0
 18 27  1  0
 18 19  1  0
 20 14  1  0
 20 19  1  0
 21 14  2  0
 22 23  1  0
 24 25  2  0
 25 44  1  0
 26 25  1  0
 26 29  1  0
 27 24  1  0
 27 28  1  0
 28 26  2  0
 29 30  1  0
 30 31  2  0
 32 35  1  0
 32 31  1  0
 33 32  2  0
 34 33  1  0
 34 29  2  0
 35 36  1  0
 36 37  1  0
 37 38  2  0
 39 38  1  0
 39 43  1  0
 40 39  2  0
 41 36  2  0
 41 40  1  0
 42 41  1  0
 44 45  1  0
 45 48  1  0
 45 47  1  0
 46 44  2  0
 49 24  1  0
 49 50  1  0
 51 49  1  0
 52 13  1  0
 53 52  1  0
 54 52  1  0
 55  2  1  0
 55 56  1  0
 57 68  2  0
 58 56  1  0
 58 63  1  0
 59 67  1  0
 59 69  1  0
 60 66  1  0
 60 62  1  0
 61 67  1  0
 62 61  1  0
 63 62  2  0
 64 65  1  0
 64 58  2  0
 65 60  2  0
 66 59  1  0
 67 57  1  0
 69 71  2  0
 70 69  1  0
 72 70  1  0
 73 82  2  0
 73 78  1  0
 74 70  1  0
 74 78  1  0
 75 74  1  0
 76 77  1  0
 76 75  1  0
 77 73  1  0
 78 79  2  0
 79 80  1  0
 81 80  2  0
 82 81  1  0
 83 57  1  0
 83 88  1  0
 83 84  1  0
 84 87  1  1
 84 85  1  0
 86 84  1  0
 88 91  1  0
 89 93  1  0
 89 88  1  0
 90 89  2  0
 93 92  1  0
 95 96  1  0
 95 93  1  0
 95 94  1  0
M  ISO  4  14 100  22 100  55 101  56 101
M  END
>  <TORSDO>  (6) 
F 19

>  <SCORE>  (6) 
-14.862

>  <name>  (6) 
5

>  <ligand_id>  (6) 
5

>  <original_smiles>  (6) 
[H]C1=C(C([H])([H])Oc2c([H])c([H])c3c(c2[H])C([H])([H])N(C(=O)C([H])(N([H])C(=O)C([H])(N([H])C([H])([H])[H])C([H])([H])[H])C(C([H])([H])[H])(C([H])([H])[H])C([H])([H])[H])C([H])(C(=O)N([H])C2([H])c4c([H])c([H])c([H])c([H])c4C([H])([H])C([H])([H])C2([H])[H])C3([H])[H])C(=O)N(c2c([H])c([H])c(N([H])C(=O)N3C([H])([H])C([H])([H])C([H])([H])C([H])(n4nc(-c5c([H])c([H])c(Oc6c([H])c([H])c(F)c([H])c6F)c([H])c5[H])c(C(=O)N([H])[H])c4N([H])[H])C3([H])[H])c(N([H])[H])c2[H])C1=O

>  <smiles>  (6) 
[H]C1=C(C([H])([H])Oc2c([H])c([H])c3c(c2[H])C([H])([H])N(C(=O)C([H])(N([H])C(=O)C([H])(N([H])C([H])([H])[H])C([H])([H])[H])C(C([H])([H])[H])(C([H])([H])[H])C([H])([H])[H])C([H])(C(=O)N([H])C2([H])c4c([H])c([H])c([H])c([H])c4C([H])([H])C([H])([H])C2([H])[H])C3([H])[H])C(=O)N(c2c([H])c([H])c(N([H])C(=O)N3C([H])([H])C([H])([H])C([H])([H])C([H])(n4nc(-c5c([H])c([H])c(Oc6c([H])c([H])c(F)c([H])c6F)c([H])c5[H])c(C(=O)N([H])[H])c4N([H])[H])C3([H])[H])c(N([H])[H])c2[H])C1=O

$$$$
6:0:0
     RDKit          3D

 94103  0  0  1  0  0  0  0  0999 V2000
  -28.7950  -23.7220   20.3470 C   0  0  0  0  0  0  0  0  0  0  0  0
  -30.1290  -23.5750   20.8640 C   0  0  0  0  0  0  0  0  0  0  0  0
  -28.3780  -22.3010   20.0560 C   0  0  0  0  0  0  0  0  0  0  0  0
  -30.9270  -24.5870   21.2420 C   0  0  0  0  0  1  0  0  0  0  0  0
  -28.0160  -24.8680   20.1150 C   0  0  0  0  0  2  0  0  0  0  0  0
  -30.5140  -22.0990   20.9380 C   0  0  0  0  0  2  0  0  0  0  0  0
  -29.3630  -21.3650   20.3820 N   0  0  0  0  0  0  0  0  0  0  0  0
  -27.2820  -21.9720   19.5900 O   0  0  0  0  0  0  0  0  0  0  0  0
  -29.6290  -18.6920   20.6110 C   0  0  0  0  0  3  0  0  0  0  0  0
  -29.6900  -19.8420   18.4680 C   0  0  0  0  0  3  0  0  0  0  0  0
  -30.0490  -17.4140   18.5780 C   0  0  0  0  0  3  0  0  0  0  0  0
  -29.5250  -19.9590   19.8670 C   0  0  0  0  0  0  0  0  0  0  0  0
  -29.8900  -17.3840   19.9830 C   0  0  0  0  0  0  0  0  0  0  0  0
  -29.9490  -18.6090   17.8390 C   0  0  0  0  0  0  0  0  0  0  0  0
  -30.1010  -18.5710   16.4940 F   0  0  0  0  0  0  0  0  0  0  0  0
  -30.6190  -14.8760   20.3160 C   0  0  0  0  0  0  0  0  0  0  0  0
  -30.4340  -12.5670   19.3600 C   0  0  0  0  0  2  0  0  0  0  0  0
  -29.5010  -12.6130   18.1290 C   0  0  0  0  0  2  0  0  0  0  0  0
  -28.0310  -12.4340   18.5550 C   0  0  0  0  0  2  0  0  0  0  0  0
  -27.6520  -13.3270   19.7640 C   0  0  0  0  0  3  0  0  0  0  0  0
  -28.7090  -13.2710   20.8890 C   0  0  0  0  0  2  0  0  0  0  0  0
  -30.0040  -13.6360   20.3000 N   0  0  0  0  0  0  0  0  0  0  0  0
  -31.7880  -14.9630   19.9290 O   0  0  0  0  0  0  0  0  0  0  0  0
  -29.8890  -16.0270   20.6350 N   0  0  0  0  0  0  0  0  0  0  0  0
  -29.0800  -15.8440   21.2080 H   0  0  0  0  0  0  0  0  0  0  0  0
  -25.2640  -13.9070   20.4950 C   0  0  0  0  0  0  0  0  0  0  0  0
  -24.2000  -13.1300   20.8630 C   0  0  0  0  0  0  0  0  0  0  0  0
  -24.6660  -11.7790   20.8290 C   0  0  0  0  0  0  0  0  0  0  0  0
  -26.3100  -13.0310   20.2570 N   0  0  0  0  0  0  0  0  0  0  0  0
  -25.9580  -11.7460   20.5190 N   0  0  0  0  0  0  0  0  0  0  0  0
  -23.9400  -10.5160   21.0180 C   0  0  0  0  0  0  0  0  0  0  0  0
  -24.3670   -9.5510   21.9560 C   0  0  0  0  0  3  0  0  0  0  0  0
  -23.6420   -8.3520   22.1310 C   0  0  0  0  0  3  0  0  0  0  0  0
  -22.4740   -8.1090   21.3700 C   0  0  0  0  0  0  0  0  0  0  0  0
  -22.0650   -9.0640   20.4220 C   0  0  0  0  0  3  0  0  0  0  0  0
  -22.7900  -10.2540   20.2430 C   0  0  0  0  0  3  0  0  0  0  0  0
  -21.7200   -6.9640   21.4580 O   0  0  0  0  0  0  0  0  0  0  0  0
  -21.6560   -6.2300   22.6160 C   0  0  0  0  0  0  0  0  0  0  0  0
  -21.1980   -6.7900   23.8280 C   0  0  0  0  0  3  0  0  0  0  0  0
  -21.0830   -5.9830   24.9780 C   0  0  0  0  0  3  0  0  0  0  0  0
  -21.4120   -4.6160   24.9140 C   0  0  0  0  0  0  0  0  0  0  0  0
  -21.8600   -4.0530   23.7060 C   0  0  0  0  0  3  0  0  0  0  0  0
  -21.9790   -4.8580   22.5590 C   0  0  0  0  0  0  0  0  0  0  0  0
  -22.3910   -4.3080   21.3920 F   0  0  0  0  0  0  0  0  0  0  0  0
  -21.2930   -3.8370   26.0150 F   0  0  0  0  0  0  0  0  0  0  0  0
  -22.8020  -13.6040   21.1340 C   0  0  0  0  0  0  0  0  0  0  0  0
  -22.0730  -12.9040   21.9940 N   0  0  0  0  0  0  0  0  0  0  0  0
  -22.3660  -14.6330   20.6180 O   0  0  0  0  0  0  0  0  0  0  0  0
  -22.4360  -12.0710   22.4330 H   0  0  0  0  0  0  0  0  0  0  0  0
  -21.1320  -13.2020   22.2150 H   0  0  0  0  0  0  0  0  0  0  0  0
  -25.4260  -15.2780   20.3170 N   0  0  0  0  0  0  0  0  0  0  0  0
  -24.6610  -15.9330   20.4310 H   0  0  0  0  0  0  0  0  0  0  0  0
  -26.2720  -15.7140   19.9730 H   0  0  0  0  0  0  0  0  0  0  0  0
  -28.2590  -26.2960   20.2350 O   0  0  0  0  0  0  0  0  0  0  0  0
  -24.6340  -31.9100   23.2330 C   0  0  0  0  0  0  0  0  0  0  0  0
  -27.1950  -27.2540   20.1630 C   0  0  0  0  0  0  0  0  0  0  0  0
  -23.4230  -30.5240   21.5930 C   0  0  0  0  0  3  0  0  0  0  0  0
  -24.8630  -28.9700   20.1540 C   0  0  0  0  0  0  0  0  0  0  0  0
  -25.9740  -30.7980   21.4200 C   0  0  0  0  0  2  0  0  0  0  0  0
  -26.0400  -29.4130   20.7680 C   0  0  0  0  0  0  0  0  0  0  0  0
  -27.2030  -28.5640   20.7740 C   0  0  0  0  0  3  0  0  0  0  0  0
  -26.0010  -26.9250   19.4730 C   0  0  0  0  0  3  0  0  0  0  0  0
  -24.8520  -27.7330   19.4970 C   0  0  0  0  0  3  0  0  0  0  0  0
  -23.6340  -29.8580   20.2090 C   0  0  0  0  0  2  0  0  0  0  0  0
  -24.6960  -31.0980   22.1360 N   0  0  0  0  0  0  0  0  0  0  0  0
  -23.5510  -32.1920   23.7670 O   0  0  0  0  0  0  0  0  0  0  0  0
  -22.7530  -29.5060   22.5500 C   0  0  0  0  0  0  0  0  0  0  0  0
  -21.4250  -29.3350   22.4270 N   0  0  0  0  0  0  0  0  0  0  0  0
  -23.4300  -28.8760   23.3680 O   0  0  0  0  0  0  0  0  0  0  0  0
  -20.9370  -29.8960   21.7430 H   0  0  0  0  0  0  0  0  0  0  0  0
  -18.0440  -28.1520   22.9460 C   0  0  0  0  0  0  0  0  0  0  0  0
  -20.6060  -28.3970   23.1980 C   0  0  0  0  0  3  0  0  0  0  0  0
  -20.6960  -26.9680   22.6150 C   0  0  0  0  0  2  0  0  0  0  0  0
  -19.5860  -26.6560   21.6060 C   0  0  0  0  0  2  0  0  0  0  0  0
  -18.2090  -26.8070   22.2610 C   0  0  0  0  0  2  0  0  0  0  0  0
  -19.1700  -28.9060   23.3730 C   0  0  0  0  0  0  0  0  0  0  0  0
  -18.9610  -30.1650   23.9740 C   0  0  0  0  0  3  0  0  0  0  0  0
  -17.6590  -30.6710   24.1520 C   0  0  0  0  0  3  0  0  0  0  0  0
  -16.5480  -29.9140   23.7430 C   0  0  0  0  0  3  0  0  0  0  0  0
  -16.7420  -28.6560   23.1440 C   0  0  0  0  0  3  0  0  0  0  0  0
  -25.9190  -32.5380   23.8530 C   0  0  0  0  0  3  0  0  0  0  0  0
  -25.6170  -33.9410   24.1770 N   0  0  0  0  0  0  0  0  0  0  0  0
  -25.9610  -34.9900   23.4180 C   0  0  0  0  0  0  0  0  0  0  0  0
  -26.6370  -34.8800   22.3910 O   0  0  0  0  0  0  0  0  0  0  0  0
  -25.0200  -34.1030   24.9740 H   0  0  0  0  0  0  0  0  0  0  0  0
  -24.2600  -36.8070   23.0430 C   0  0  0  0  0  1  0  0  0  0  0  0
  -25.4830  -36.3830   23.8730 C   0  0  0  0  0  3  0  0  0  0  0  0
  -27.6110  -37.2450   24.7420 C   0  0  0  0  0  1  0  0  0  0  0  0
  -26.5290  -37.4250   23.7790 N   0  0  0  0  0  0  0  0  0  0  0  0
  -26.1280  -38.3490   23.9230 H   0  0  0  0  0  0  0  0  0  0  0  0
  -26.4270  -31.7720   25.1360 C   0  0  1  0  0  0  0  0  0  0  0  0
  -25.3290  -31.5470   26.2020 C   0  0  0  0  0  1  0  0  0  0  0  0
  -27.0020  -30.3880   24.7580 C   0  0  0  0  0  1  0  0  0  0  0  0
  -27.5820  -32.5630   25.7950 C   0  0  0  0  0  1  0  0  0  0  0  0
  1  2  2  0
  2  6  1  0
  2  4  1  0
  3  1  1  0
  3  7  1  0
  5 54  1  0
  5  1  1  0
  7  6  1  0
  8  3  2  0
 10 12  1  0
 11 13  2  0
 12  7  1  0
 12  9  2  0
 13  9  1  0
 13 24  1  0
 14 10  2  0
 14 11  1  0
 15 14  1  0
 16 24  1  0
 17 22  1  0
 18 19  1  0
 18 17  1  0
 20 19  1  0
 20 29  1  0
 20 21  1  0
 22 16  1  0
 22 21  1  0
 23 16  2  0
 24 25  1  0
 26 27  2  0
 27 46  1  0
 28 27  1  0
 28 31  1  0
 29 26  1  0
 29 30  1  0
 30 28  2  0
 31 32  1  0
 32 33  2  0
 34 37  1  0
 34 33  1  0
 35 34  2  0
 36 35  1  0
 36 31  2  0
 37 38  1  0
 38 39  1  0
 39 40  2  0
 41 40  1  0
 41 45  1  0
 42 41  2  0
 43 38  2  0
 43 42  1  0
 44 43  1  0
 46 47  1  0
 47 50  1  0
 47 49  1  0
 48 46  2  0
 51 52  1  0
 51 26  1  0
 53 51  1  0
 55 66  2  0
 56 54  1  0
 56 61  1  0
 57 65  1  0
 57 67  1  0
 58 64  1  0
 58 60  1  0
 59 65  1  0
 60 61  2  0
 60 59  1  0
 62 63  1  0
 62 56  2  0
 63 58  2  0
 64 57  1  0
 65 55  1  0
 67 69  2  0
 68 67  1  0
 70 68  1  0
 71 80  2  0
 71 76  1  0
 72 68  1  0
 72 76  1  0
 73 72  1  0
 74 75  1  0
 74 73  1  0
 75 71  1  0
 76 77  2  0
 77 78  1  0
 79 78  2  0
 80 79  1  0
 81 55  1  0
 81 82  1  0
 81 91  1  0
 82 85  1  0
 83 87  1  0
 83 82  1  0
 84 83  2  0
 87 86  1  0
 89 87  1  0
 89 90  1  0
 89 88  1  0
 91 94  1  1
 91 92  1  0
 93 91  1  0
M  ISO  4   5 101  16 100  24 100  54 101
M  END
>  <TORSDO>  (7) 
F 17

>  <SCORE>  (7) 
-15.345

>  <name>  (7) 
6

>  <ligand_id>  (7) 
6

>  <original_smiles>  (7) 
[H]C([H])=C1C(=C([H])Oc2c([H])c([H])c3c(c2[H])C([H])([H])N(C(=O)C([H])(N([H])C(=O)C([H])(N([H])C([H])([H])[H])C([H])([H])[H])C(C([H])([H])[H])(C([H])([H])[H])C([H])([H])[H])C([H])(C(=O)N([H])C2([H])c4c([H])c([H])c([H])c([H])c4C([H])([H])C([H])([H])C2([H])[H])C3([H])[H])C(=O)N(c2c([H])c(F)c([H])c(N([H])C(=O)N3C([H])([H])C([H])([H])C([H])([H])C([H])(n4nc(-c5c([H])c([H])c(Oc6c([H])c([H])c(F)c([H])c6F)c([H])c5[H])c(C(=O)N([H])[H])c4N([H])[H])C3([H])[H])c2[H])C1([H])[H]

>  <smiles>  (7) 
[H]C([H])=C1C(=C([H])Oc2c([H])c([H])c3c(c2[H])C([H])([H])N(C(=O)C([H])(N([H])C(=O)C([H])(N([H])C([H])([H])[H])C([H])([H])[H])C(C([H])([H])[H])(C([H])([H])[H])C([H])([H])[H])C([H])(C(=O)N([H])C2([H])c4c([H])c([H])c([H])c([H])c4C([H])([H])C([H])([H])C2([H])[H])C3([H])[H])C(=O)N(c2c([H])c(F)c([H])c(N([H])C(=O)N3C([H])([H])C([H])([H])C([H])([H])C([H])(n4nc(-c5c([H])c([H])c(Oc6c([H])c([H])c(F)c([H])c6F)c([H])c5[H])c(C(=O)N([H])[H])c4N([H])[H])C3([H])[H])c2[H])C1([H])[H]

$$$$
7:0:0
     RDKit          3D

 92100  0  0  1  0  0  0  0  0999 V2000
  -28.9970  -21.0960   19.3200 C   0  0  0  0  0  0  0  0  0  0  0  0
  -28.7490  -20.6860   18.1210 N   0  0  0  0  0  4  0  0  0  0  0  0
  -28.9420  -19.7400   17.8070 H   0  0  0  0  0  0  0  0  0  0  0  0
  -28.4550  -21.3290   17.3920 H   0  0  0  0  0  0  0  0  0  0  0  0
  -30.9980  -19.1410   22.0310 C   0  0  0  0  0  3  0  0  0  0  0  0
  -30.3660  -20.1920   21.3200 C   0  0  0  0  0  3  0  0  0  0  0  0
  -30.8430  -17.7790   21.6700 C   0  0  0  0  0  3  0  0  0  0  0  0
  -29.3560  -18.4990   19.9020 C   0  0  0  0  0  3  0  0  0  0  0  0
  -29.5390  -19.9230   20.2140 C   0  0  0  0  0  0  0  0  0  0  0  0
  -30.0070  -17.3900   20.5990 C   0  0  0  0  0  0  0  0  0  0  0  0
  -30.5720  -14.7990   20.3420 C   0  0  0  0  0  0  0  0  0  0  0  0
  -30.3870  -12.5020   19.3510 C   0  0  0  0  0  2  0  0  0  0  0  0
  -29.4420  -12.5360   18.1290 C   0  0  0  0  0  2  0  0  0  0  0  0
  -27.9750  -12.3570   18.5680 C   0  0  0  0  0  2  0  0  0  0  0  0
  -27.6000  -13.2700   19.7630 C   0  0  0  0  0  3  0  0  0  0  0  0
  -28.6600  -13.2180   20.8840 C   0  0  0  0  0  2  0  0  0  0  0  0
  -29.9490  -13.5710   20.2750 N   0  0  0  0  0  0  0  0  0  0  0  0
  -31.7820  -14.8840   20.1150 O   0  0  0  0  0  0  0  0  0  0  0  0
  -29.7580  -15.9320   20.3520 N   0  0  0  0  0  0  0  0  0  0  0  0
  -28.7880  -15.6950   20.2120 H   0  0  0  0  0  0  0  0  0  0  0  0
  -25.2240  -13.8910   20.4960 C   0  0  0  0  0  0  0  0  0  0  0  0
  -24.1510  -13.1290   20.8710 C   0  0  0  0  0  0  0  0  0  0  0  0
  -24.6020  -11.7740   20.8480 C   0  0  0  0  0  0  0  0  0  0  0  0
  -26.2570  -12.9970   20.2610 N   0  0  0  0  0  0  0  0  0  0  0  0
  -25.8920  -11.7200   20.5400 N   0  0  0  0  0  0  0  0  0  0  0  0
  -23.8640  -10.5180   21.0410 C   0  0  0  0  0  0  0  0  0  0  0  0
  -24.2940   -9.5470   21.9710 C   0  0  0  0  0  3  0  0  0  0  0  0
  -23.5570   -8.3570   22.1540 C   0  0  0  0  0  3  0  0  0  0  0  0
  -22.3760   -8.1310   21.4070 C   0  0  0  0  0  0  0  0  0  0  0  0
  -21.9670   -9.0920   20.4660 C   0  0  0  0  0  3  0  0  0  0  0  0
  -22.7040  -10.2730   20.2810 C   0  0  0  0  0  3  0  0  0  0  0  0
  -21.6110   -6.9930   21.4990 O   0  0  0  0  0  0  0  0  0  0  0  0
  -21.5690   -6.2460   22.6480 C   0  0  0  0  0  0  0  0  0  0  0  0
  -21.1670   -6.8000   23.8830 C   0  0  0  0  0  3  0  0  0  0  0  0
  -21.0720   -5.9800   25.0250 C   0  0  0  0  0  3  0  0  0  0  0  0
  -21.3670   -4.6070   24.9330 C   0  0  0  0  0  0  0  0  0  0  0  0
  -21.7590   -4.0510   23.7030 C   0  0  0  0  0  3  0  0  0  0  0  0
  -21.8560   -4.8680   22.5640 C   0  0  0  0  0  0  0  0  0  0  0  0
  -22.2150   -4.3230   21.3760 F   0  0  0  0  0  0  0  0  0  0  0  0
  -21.2670   -3.8180   26.0290 F   0  0  0  0  0  0  0  0  0  0  0  0
  -22.7590  -13.6220   21.1380 C   0  0  0  0  0  0  0  0  0  0  0  0
  -22.0240  -12.9350   22.0070 N   0  0  0  0  0  0  0  0  0  0  0  0
  -22.3300  -14.6470   20.6120 O   0  0  0  0  0  0  0  0  0  0  0  0
  -22.3860  -12.1040   22.4530 H   0  0  0  0  0  0  0  0  0  0  0  0
  -21.0890  -13.2430   22.2310 H   0  0  0  0  0  0  0  0  0  0  0  0
  -25.3970  -15.2590   20.3040 N   0  0  0  0  0  0  0  0  0  0  0  0
  -24.6230  -15.9090   20.3910 H   0  0  0  0  0  0  0  0  0  0  0  0
  -26.2310  -15.6900   19.9290 H   0  0  0  0  0  0  0  0  0  0  0  0
  -28.7210  -23.5530   20.1310 C   0  0  0  0  0  3  0  0  0  0  0  0
  -28.7350  -22.4950   19.3340 N   0  0  0  0  0  0  0  0  0  0  0  0
  -28.4260  -25.0330   19.5080 C   0  0  0  0  0  2  0  0  0  0  0  0
  -28.3020  -26.3250   20.2930 O   0  0  0  0  0  0  0  0  0  0  0  0
  -24.6040  -31.8640   23.2420 C   0  0  0  0  0  0  0  0  0  0  0  0
  -27.2030  -27.2270   20.1890 C   0  0  0  0  0  0  0  0  0  0  0  0
  -23.4040  -30.4700   21.5980 C   0  0  0  0  0  3  0  0  0  0  0  0
  -24.8540  -28.9110   20.1710 C   0  0  0  0  0  0  0  0  0  0  0  0
  -25.9500  -30.7600   21.4290 C   0  0  0  0  0  2  0  0  0  0  0  0
  -26.0270  -29.3750   20.7770 C   0  0  0  0  0  0  0  0  0  0  0  0
  -27.2000  -28.5470   20.7750 C   0  0  0  0  0  3  0  0  0  0  0  0
  -25.9940  -26.8370   19.5680 C   0  0  0  0  0  3  0  0  0  0  0  0
  -24.8440  -27.6510   19.5580 C   0  0  0  0  0  3  0  0  0  0  0  0
  -23.6240  -29.7980   20.2170 C   0  0  0  0  0  2  0  0  0  0  0  0
  -24.6720  -31.0490   22.1470 N   0  0  0  0  0  0  0  0  0  0  0  0
  -23.5180  -32.1440   23.7720 O   0  0  0  0  0  0  0  0  0  0  0  0
  -22.7300  -29.4570   22.5560 C   0  0  0  0  0  0  0  0  0  0  0  0
  -21.4030  -29.2820   22.4230 N   0  0  0  0  0  0  0  0  0  0  0  0
  -23.4020  -28.8320   23.3820 O   0  0  0  0  0  0  0  0  0  0  0  0
  -20.9210  -29.8410   21.7320 H   0  0  0  0  0  0  0  0  0  0  0  0
  -18.0280  -28.0620   22.8910 C   0  0  0  0  0  0  0  0  0  0  0  0
  -20.5800  -28.3430   23.1900 C   0  0  0  0  0  3  0  0  0  0  0  0
  -20.6990  -26.9070   22.6270 C   0  0  0  0  0  2  0  0  0  0  0  0
  -19.6110  -26.5690   21.6000 C   0  0  0  0  0  2  0  0  0  0  0  0
  -18.2210  -26.7080   22.2280 C   0  0  0  0  0  2  0  0  0  0  0  0
  -19.1340  -28.8370   23.3300 C   0  0  0  0  0  0  0  0  0  0  0  0
  -18.9010  -30.1030   23.9100 C   0  0  0  0  0  3  0  0  0  0  0  0
  -17.5910  -30.5940   24.0590 C   0  0  0  0  0  3  0  0  0  0  0  0
  -16.4970  -29.8200   23.6370 C   0  0  0  0  0  3  0  0  0  0  0  0
  -16.7160  -28.5550   23.0590 C   0  0  0  0  0  3  0  0  0  0  0  0
  -25.8840  -32.4960   23.8710 C   0  0  0  0  0  3  0  0  0  0  0  0
  -26.3890  -31.7280   25.1560 C   0  0  1  0  0  0  0  0  0  0  0  0
  -25.2890  -31.5030   26.2190 C   0  0  0  0  0  1  0  0  0  0  0  0
  -26.9660  -30.3440   24.7770 C   0  0  0  0  0  1  0  0  0  0  0  0
  -27.5390  -32.5200   25.8210 C   0  0  0  0  0  1  0  0  0  0  0  0
  -25.5740  -33.8960   24.1960 N   0  0  0  0  0  0  0  0  0  0  0  0
  -25.9060  -34.9470   23.4350 C   0  0  0  0  0  0  0  0  0  0  0  0
  -26.5710  -34.8390   22.4020 O   0  0  0  0  0  0  0  0  0  0  0  0
  -24.9820  -34.0540   24.9980 H   0  0  0  0  0  0  0  0  0  0  0  0
  -24.1770  -36.7430   23.0900 C   0  0  0  0  0  1  0  0  0  0  0  0
  -25.4250  -36.3370   23.8920 C   0  0  0  0  0  3  0  0  0  0  0  0
  -27.5660  -37.2250   24.7000 C   0  0  0  0  0  1  0  0  0  0  0  0
  -26.4560  -37.3900   23.7660 N   0  0  0  0  0  0  0  0  0  0  0  0
  -26.0530  -38.3110   23.9120 H   0  0  0  0  0  0  0  0  0  0  0  0
  1 50  1  0
  1  9  1  0
  2  1  2  0
  3  2  1  0
  4  2  1  0
  6  5  2  0
  7  5  1  0
  8  9  2  0
  8 10  1  0
  9  6  1  0
 10  7  2  0
 11 19  1  0
 12 17  1  0
 13 14  1  0
 13 12  1  0
 15 14  1  0
 15 24  1  0
 15 16  1  0
 17 11  1  0
 17 16  1  0
 18 11  2  0
 19 10  1  0
 20 19  1  0
 21 22  2  0
 22 41  1  0
 23 22  1  0
 23 26  1  0
 24 21  1  0
 24 25  1  0
 25 23  2  0
 26 27  1  0
 27 28  2  0
 29 32  1  0
 29 28  1  0
 30 29  2  0
 31 30  1  0
 31 26  2  0
 32 33  1  0
 33 34  1  0
 34 35  2  0
 36 35  1  0
 36 40  1  0
 37 36  2  0
 38 33  2  0
 38 37  1  0
 39 38  1  0
 41 42  1  0
 42 45  1  0
 42 44  1  0
 43 41  2  0
 46 47  1  0
 46 21  1  0
 48 46  1  0
 50 49  2  0
 51 49  1  0
 51 52  1  0
 53 64  2  0
 54 52  1  0
 54 59  1  0
 55 63  1  0
 55 65  1  0
 56 62  1  0
 56 58  1  0
 57 63  1  0
 58 57  1  0
 59 58  2  0
 60 54  2  0
 61 60  1  0
 61 56  2  0
 62 55  1  0
 63 53  1  0
 65 67  2  0
 66 65  1  0
 68 66  1  0
 69 78  2  0
 69 74  1  0
 70 66  1  0
 70 74  1  0
 71 70  1  0
 72 73  1  0
 72 71  1  0
 73 69  1  0
 74 75  2  0
 75 76  1  0
 77 76  2  0
 78 77  1  0
 79 53  1  0
 79 84  1  0
 79 80  1  0
 80 83  1  1
 80 81  1  0
 82 80  1  0
 84 87  1  0
 85 89  1  0
 85 84  1  0
 86 85  2  0
 89 88  1  0
 91 89  1  0
 91 92  1  0
 91 90  1  0
M  ISO  4  11 100  19 100  51 101  52 101
M  END
>  <TORSDO>  (8) 
F 19

>  <SCORE>  (8) 
-14.322

>  <name>  (8) 
7

>  <ligand_id>  (8) 
7

>  <original_smiles>  (8) 
[H]C(=NC(c1c([H])c([H])c([H])c(N([H])C(=O)N2C([H])([H])C([H])([H])C([H])([H])C([H])(n3nc(-c4c([H])c([H])c(Oc5c([H])c([H])c(F)c([H])c5F)c([H])c4[H])c(C(=O)N([H])[H])c3N([H])[H])C2([H])[H])c1[H])=[N+]([H])[H])C([H])([H])Oc1c([H])c([H])c2c(c1[H])C([H])([H])N(C(=O)C([H])(N([H])C(=O)C([H])(N([H])C([H])([H])[H])C([H])([H])[H])C(C([H])([H])[H])(C([H])([H])[H])C([H])([H])[H])C([H])(C(=O)N([H])C1([H])c3c([H])c([H])c([H])c([H])c3C([H])([H])C([H])([H])C1([H])[H])C2([H])[H]

>  <smiles>  (8) 
[H]C(=NC(c1c([H])c([H])c([H])c(N([H])C(=O)N2C([H])([H])C([H])([H])C([H])([H])C([H])(n3nc(-c4c([H])c([H])c(Oc5c([H])c([H])c(F)c([H])c5F)c([H])c4[H])c(C(=O)N([H])[H])c3N([H])[H])C2([H])[H])c1[H])=[N+]([H])[H])C([H])([H])Oc1c([H])c([H])c2c(c1[H])C([H])([H])N(C(=O)C([H])(N([H])C(=O)C([H])(N([H])C([H])([H])[H])C([H])([H])[H])C(C([H])([H])[H])(C([H])([H])[H])C([H])([H])[H])C([H])(C(=O)N([H])C1([H])c3c([H])c([H])c([H])c([H])c3C([H])([H])C([H])([H])C1([H])[H])C2([H])[H]

$$$$
8:0:0
     RDKit          3D

 96105  0  0  1  0  0  0  0  0999 V2000
  -28.7520  -23.7370   20.3760 C   0  0  0  0  0  0  0  0  0  0  0  0
  -30.1490  -23.5700   20.6850 C   0  0  0  0  0  0  0  0  0  0  0  0
  -28.2710  -22.3180   20.2010 C   0  0  0  0  0  0  0  0  0  0  0  0
  -31.0210  -24.5760   20.8710 C   0  0  0  0  0  1  0  0  0  0  0  0
  -27.9630  -24.8920   20.2350 C   0  0  0  0  0  2  0  0  0  0  0  0
  -30.5110  -22.0850   20.7650 C   0  0  0  0  0  2  0  0  0  0  0  0
  -29.2800  -21.3680   20.3940 N   0  0  0  0  0  0  0  0  0  0  0  0
  -27.1100  -22.0030   19.9210 O   0  0  0  0  0  0  0  0  0  0  0  0
  -29.0430  -19.7410   18.5510 C   0  0  0  0  0  3  0  0  0  0  0  0
  -29.6530  -18.7070   20.6710 C   0  0  0  0  0  3  0  0  0  0  0  0
  -29.4260  -17.3110   18.6800 C   0  0  0  0  0  3  0  0  0  0  0  0
  -29.3130  -19.9330   19.9260 C   0  0  0  0  0  0  0  0  0  0  0  0
  -29.0940  -18.4680   17.9400 C   0  0  0  0  0  0  0  0  0  0  0  0
  -29.7120  -17.3650   20.0660 C   0  0  0  0  0  0  0  0  0  0  0  0
  -30.6050  -14.9020   20.3650 C   0  0  0  0  0  0  0  0  0  0  0  0
  -30.4290  -12.5950   19.3950 C   0  0  0  0  0  2  0  0  0  0  0  0
  -29.5030  -12.6500   18.1590 C   0  0  0  0  0  2  0  0  0  0  0  0
  -28.0320  -12.4710   18.5780 C   0  0  0  0  0  2  0  0  0  0  0  0
  -27.6490  -13.3610   19.7900 C   0  0  0  0  0  3  0  0  0  0  0  0
  -28.6990  -13.2960   20.9200 C   0  0  0  0  0  2  0  0  0  0  0  0
  -29.9980  -13.6590   20.3400 N   0  0  0  0  0  0  0  0  0  0  0  0
  -31.7650  -15.0050   19.9520 O   0  0  0  0  0  0  0  0  0  0  0  0
  -29.8840  -16.0380   20.7520 N   0  0  0  0  0  0  0  0  0  0  0  0
  -29.1210  -15.8110   21.3730 H   0  0  0  0  0  0  0  0  0  0  0  0
  -25.2580  -13.9450   20.5020 C   0  0  0  0  0  0  0  0  0  0  0  0
  -24.1910  -13.1700   20.8670 C   0  0  0  0  0  0  0  0  0  0  0  0
  -24.6560  -11.8200   20.8420 C   0  0  0  0  0  0  0  0  0  0  0  0
  -26.3040  -13.0670   20.2740 N   0  0  0  0  0  0  0  0  0  0  0  0
  -25.9500  -11.7830   20.5400 N   0  0  0  0  0  0  0  0  0  0  0  0
  -23.9280  -10.5580   21.0320 C   0  0  0  0  0  0  0  0  0  0  0  0
  -24.3590   -9.5910   21.9670 C   0  0  0  0  0  3  0  0  0  0  0  0
  -23.6340   -8.3930   22.1450 C   0  0  0  0  0  3  0  0  0  0  0  0
  -22.4610   -8.1540   21.3900 C   0  0  0  0  0  0  0  0  0  0  0  0
  -22.0490   -9.1090   20.4430 C   0  0  0  0  0  3  0  0  0  0  0  0
  -22.7750  -10.2980   20.2640 C   0  0  0  0  0  3  0  0  0  0  0  0
  -21.7050   -7.0100   21.4780 O   0  0  0  0  0  0  0  0  0  0  0  0
  -21.6570   -6.2670   22.6310 C   0  0  0  0  0  0  0  0  0  0  0  0
  -21.2260   -6.8200   23.8570 C   0  0  0  0  0  3  0  0  0  0  0  0
  -21.1230   -6.0030   25.0010 C   0  0  0  0  0  3  0  0  0  0  0  0
  -21.4430   -4.6340   24.9200 C   0  0  0  0  0  0  0  0  0  0  0  0
  -21.8650   -4.0800   23.6980 C   0  0  0  0  0  3  0  0  0  0  0  0
  -21.9700   -4.8950   22.5580 C   0  0  0  0  0  0  0  0  0  0  0  0
  -22.3570   -4.3520   21.3790 F   0  0  0  0  0  0  0  0  0  0  0  0
  -21.3380   -3.8450   26.0150 F   0  0  0  0  0  0  0  0  0  0  0  0
  -22.7920  -13.6480   21.1290 C   0  0  0  0  0  0  0  0  0  0  0  0
  -22.0590  -12.9550   21.9930 N   0  0  0  0  0  0  0  0  0  0  0  0
  -22.3580  -14.6710   20.6030 O   0  0  0  0  0  0  0  0  0  0  0  0
  -22.4200  -12.1240   22.4390 H   0  0  0  0  0  0  0  0  0  0  0  0
  -21.1210  -13.2580   22.2110 H   0  0  0  0  0  0  0  0  0  0  0  0
  -25.4250  -15.3150   20.3190 N   0  0  0  0  0  0  0  0  0  0  0  0
  -24.6620  -15.9750   20.4220 H   0  0  0  0  0  0  0  0  0  0  0  0
  -26.2820  -15.7510   19.9990 H   0  0  0  0  0  0  0  0  0  0  0  0
  -28.8040  -18.3530   16.5800 N   0  0  0  0  0  0  0  0  0  0  0  0
  -28.3330  -19.1180   16.1060 H   0  0  0  0  0  0  0  0  0  0  0  0
  -28.5810  -17.4420   16.1880 H   0  0  0  0  0  0  0  0  0  0  0  0
  -28.2390  -26.3170   20.2780 O   0  0  0  0  0  0  0  0  0  0  0  0
  -24.6060  -31.9420   23.2520 C   0  0  0  0  0  0  0  0  0  0  0  0
  -27.1780  -27.2790   20.2050 C   0  0  0  0  0  0  0  0  0  0  0  0
  -23.3980  -30.5450   21.6170 C   0  0  0  0  0  3  0  0  0  0  0  0
  -24.8440  -28.9880   20.1830 C   0  0  0  0  0  0  0  0  0  0  0  0
  -25.9480  -30.8240   21.4430 C   0  0  0  0  0  2  0  0  0  0  0  0
  -26.0190  -29.4360   20.7960 C   0  0  0  0  0  0  0  0  0  0  0  0
  -27.1860  -28.5920   20.8060 C   0  0  0  0  0  3  0  0  0  0  0  0
  -25.9900  -26.9420   19.5150 C   0  0  0  0  0  3  0  0  0  0  0  0
  -24.8380  -27.7480   19.5300 C   0  0  0  0  0  3  0  0  0  0  0  0
  -23.6130  -29.8720   20.2360 C   0  0  0  0  0  2  0  0  0  0  0  0
  -24.6700  -31.1240   22.1590 N   0  0  0  0  0  0  0  0  0  0  0  0
  -23.5220  -32.2250   23.7870 O   0  0  0  0  0  0  0  0  0  0  0  0
  -22.7310  -29.5310   22.5790 C   0  0  0  0  0  0  0  0  0  0  0  0
  -21.4050  -29.3490   22.4500 N   0  0  0  0  0  0  0  0  0  0  0  0
  -23.4060  -28.9120   23.4060 O   0  0  0  0  0  0  0  0  0  0  0  0
  -20.9160  -29.9010   21.7590 H   0  0  0  0  0  0  0  0  0  0  0  0
  -18.0340  -28.1240   22.9390 C   0  0  0  0  0  0  0  0  0  0  0  0
  -20.5880  -28.4110   23.2230 C   0  0  0  0  0  3  0  0  0  0  0  0
  -20.7070  -26.9750   22.6630 C   0  0  0  0  0  2  0  0  0  0  0  0
  -19.6160  -26.6320   21.6440 C   0  0  0  0  0  2  0  0  0  0  0  0
  -18.2290  -26.7700   22.2760 C   0  0  0  0  0  2  0  0  0  0  0  0
  -19.1420  -28.9010   23.3700 C   0  0  0  0  0  0  0  0  0  0  0  0
  -18.9050  -30.1650   23.9490 C   0  0  0  0  0  3  0  0  0  0  0  0
  -17.5940  -30.6550   24.1030 C   0  0  0  0  0  3  0  0  0  0  0  0
  -16.5010  -29.8750   23.6880 C   0  0  0  0  0  3  0  0  0  0  0  0
  -16.7210  -28.6110   23.1110 C   0  0  0  0  0  3  0  0  0  0  0  0
  -25.8900  -32.5760   23.8700 C   0  0  0  0  0  3  0  0  0  0  0  0
  -25.5830  -33.9760   24.1940 N   0  0  0  0  0  0  0  0  0  0  0  0
  -25.9080  -35.0270   23.4290 C   0  0  0  0  0  0  0  0  0  0  0  0
  -26.5690  -34.9190   22.3920 O   0  0  0  0  0  0  0  0  0  0  0  0
  -24.9960  -34.1360   25.0000 H   0  0  0  0  0  0  0  0  0  0  0  0
  -24.1770  -36.8200   23.0900 C   0  0  0  0  0  1  0  0  0  0  0  0
  -25.4270  -36.4160   23.8880 C   0  0  0  0  0  3  0  0  0  0  0  0
  -27.5690  -37.3060   24.6950 C   0  0  0  0  0  1  0  0  0  0  0  0
  -26.4590  -37.4690   23.7600 N   0  0  0  0  0  0  0  0  0  0  0  0
  -26.0540  -38.3890   23.9100 H   0  0  0  0  0  0  0  0  0  0  0  0
  -26.4030  -31.8110   25.1520 C   0  0  1  0  0  0  0  0  0  0  0  0
  -25.3070  -31.5830   26.2180 C   0  0  0  0  0  1  0  0  0  0  0  0
  -26.9840  -30.4280   24.7740 C   0  0  0  0  0  1  0  0  0  0  0  0
  -27.5570  -32.6060   25.8080 C   0  0  0  0  0  1  0  0  0  0  0  0
  1  2  2  0
  2  6  1  0
  2  4  1  0
  3  1  1  0
  3  7  1  0
  5 56  1  0
  5  1  1  0
  7  6  1  0
  8  3  2  0
  9 12  1  0
 11 14  2  0
 12  7  1  0
 12 10  2  0
 13  9  2  0
 13 11  1  0
 14 10  1  0
 14 23  1  0
 15 23  1  0
 16 21  1  0
 17 18  1  0
 17 16  1  0
 19 18  1  0
 19 28  1  0
 19 20  1  0
 21 15  1  0
 21 20  1  0
 22 15  2  0
 23 24  1  0
 25 26  2  0
 26 45  1  0
 27 26  1  0
 27 30  1  0
 28 25  1  0
 28 29  1  0
 29 27  2  0
 30 31  1  0
 31 32  2  0
 33 36  1  0
 33 32  1  0
 34 33  2  0
 35 34  1  0
 35 30  2  0
 36 37  1  0
 37 38  1  0
 38 39  2  0
 40 39  1  0
 40 44  1  0
 41 40  2  0
 42 37  2  0
 42 41  1  0
 43 42  1  0
 45 46  1  0
 46 49  1  0
 46 48  1  0
 47 45  2  0
 50 51  1  0
 50 25  1  0
 52 50  1  0
 53 13  1  0
 54 53  1  0
 55 53  1  0
 57 68  2  0
 58 56  1  0
 58 63  1  0
 59 67  1  0
 59 69  1  0
 60 66  1  0
 60 62  1  0
 61 67  1  0
 62 63  2  0
 62 61  1  0
 64 65  1  0
 64 58  2  0
 65 60  2  0
 66 59  1  0
 67 57  1  0
 69 71  2  0
 70 69  1  0
 72 70  1  0
 73 82  2  0
 73 78  1  0
 74 70  1  0
 74 78  1  0
 75 74  1  0
 76 77  1  0
 76 75  1  0
 77 73  1  0
 78 79  2  0
 79 80  1  0
 81 80  2  0
 82 81  1  0
 83 57  1  0
 83 84  1  0
 83 93  1  0
 84 87  1  0
 85 89  1  0
 85 84  1  0
 86 85  2  0
 89 88  1  0
 91 89  1  0
 91 92  1  0
 91 90  1  0
 93 96  1  1
 93 94  1  0
 95 93  1  0
M  ISO  4   5 101  15 100  23 100  56 101
M  END
>  <TORSDO>  (9) 
F 18

>  <SCORE>  (9) 
-15.285

>  <name>  (9) 
8

>  <ligand_id>  (9) 
8

>  <original_smiles>  (9) 
[H]C([H])=C1C(=C([H])Oc2c([H])c([H])c3c(c2[H])C([H])([H])N(C(=O)C([H])(N([H])C(=O)C([H])(N([H])C([H])([H])[H])C([H])([H])[H])C(C([H])([H])[H])(C([H])([H])[H])C([H])([H])[H])C([H])(C(=O)N([H])C2([H])c4c([H])c([H])c([H])c([H])c4C([H])([H])C([H])([H])C2([H])[H])C3([H])[H])C(=O)N(c2c([H])c(N([H])[H])c([H])c(N([H])C(=O)N3C([H])([H])C([H])([H])C([H])([H])C([H])(n4nc(-c5c([H])c([H])c(Oc6c([H])c([H])c(F)c([H])c6F)c([H])c5[H])c(C(=O)N([H])[H])c4N([H])[H])C3([H])[H])c2[H])C1([H])[H]

>  <smiles>  (9) 
[H]C([H])=C1C(=C([H])Oc2c([H])c([H])c3c(c2[H])C([H])([H])N(C(=O)C([H])(N([H])C(=O)C([H])(N([H])C([H])([H])[H])C([H])([H])[H])C(C([H])([H])[H])(C([H])([H])[H])C([H])([H])[H])C([H])(C(=O)N([H])C2([H])c4c([H])c([H])c([H])c([H])c4C([H])([H])C([H])([H])C2([H])[H])C3([H])[H])C(=O)N(c2c([H])c(N([H])[H])c([H])c(N([H])C(=O)N3C([H])([H])C([H])([H])C([H])([H])C([H])(n4nc(-c5c([H])c([H])c(Oc6c([H])c([H])c(F)c([H])c6F)c([H])c5[H])c(C(=O)N([H])[H])c4N([H])[H])C3([H])[H])c2[H])C1([H])[H]

$$$$
9:0:0
     RDKit          3D

 96105  0  0  1  0  0  0  0  0999 V2000
  -28.7560  -23.4640   19.4990 C   0  0  0  0  0  3  0  0  0  0  0  0
  -29.0290  -24.1780   20.6180 C   0  0  0  0  0  0  0  0  0  0  0  0
  -29.7680  -23.4690   21.7000 C   0  0  0  0  0  0  0  0  0  0  0  0
  -29.0980  -21.9770   19.2640 C   0  0  0  0  0  2  0  0  0  0  0  0
  -30.4330  -22.1090   21.3770 C   0  0  0  0  0  2  0  0  0  0  0  0
  -29.6610  -21.2880   20.4400 N   0  0  0  0  0  0  0  0  0  0  0  0
  -29.8790  -23.9170   22.8430 O   0  0  0  0  0  0  0  0  0  0  0  0
  -30.9640  -19.2790   21.1030 C   0  0  0  0  0  3  0  0  0  0  0  0
  -31.1340  -17.8680   21.1870 C   0  0  0  0  0  3  0  0  0  0  0  0
  -29.0620  -17.5780   19.9840 C   0  0  0  0  0  3  0  0  0  0  0  0
  -28.8950  -18.9830   19.8790 C   0  0  0  0  0  0  0  0  0  0  0  0
  -29.8490  -19.8720   20.4520 C   0  0  0  0  0  0  0  0  0  0  0  0
  -30.1720  -16.9880   20.6320 C   0  0  0  0  0  0  0  0  0  0  0  0
  -30.9580  -14.5900   20.1540 C   0  0  0  0  0  0  0  0  0  0  0  0
  -30.6640  -12.4480   18.9420 C   0  0  0  0  0  2  0  0  0  0  0  0
  -29.6590  -12.6820   17.7910 C   0  0  0  0  0  2  0  0  0  0  0  0
  -28.2010  -12.5380   18.2790 C   0  0  0  0  0  2  0  0  0  0  0  0
  -27.9290  -13.3260   19.5870 C   0  0  0  0  0  3  0  0  0  0  0  0
  -29.0300  -13.0340   20.6320 C   0  0  0  0  0  2  0  0  0  0  0  0
  -30.3280  -13.3840   20.0280 N   0  0  0  0  0  0  0  0  0  0  0  0
  -32.0730  -14.8110   19.6710 O   0  0  0  0  0  0  0  0  0  0  0  0
  -30.1920  -15.5480   20.7390 N   0  0  0  0  0  0  0  0  0  0  0  0
  -29.3400  -15.1520   21.1060 H   0  0  0  0  0  0  0  0  0  0  0  0
  -25.5700  -13.9470   20.4070 C   0  0  0  0  0  0  0  0  0  0  0  0
  -24.5100  -13.1800   20.8080 C   0  0  0  0  0  0  0  0  0  0  0  0
  -24.9510  -11.8240   20.7250 C   0  0  0  0  0  0  0  0  0  0  0  0
  -26.5930  -13.0580   20.1130 N   0  0  0  0  0  0  0  0  0  0  0  0
  -26.2270  -11.7750   20.3610 N   0  0  0  0  0  0  0  0  0  0  0  0
  -24.2170  -10.5660   20.9140 C   0  0  0  0  0  0  0  0  0  0  0  0
  -24.6100   -9.6220   21.8880 C   0  0  0  0  0  3  0  0  0  0  0  0
  -23.8770   -8.4280   22.0630 C   0  0  0  0  0  3  0  0  0  0  0  0
  -22.7390   -8.1700   21.2640 C   0  0  0  0  0  0  0  0  0  0  0  0
  -22.3660   -9.1030   20.2800 C   0  0  0  0  0  3  0  0  0  0  0  0
  -23.0990  -10.2890   20.1030 C   0  0  0  0  0  3  0  0  0  0  0  0
  -21.9820   -7.0270   21.3470 O   0  0  0  0  0  0  0  0  0  0  0  0
  -21.7790   -6.3840   22.5420 C   0  0  0  0  0  0  0  0  0  0  0  0
  -21.1810   -7.0310   23.6450 C   0  0  0  0  0  3  0  0  0  0  0  0
  -20.9270   -6.3120   24.8300 C   0  0  0  0  0  3  0  0  0  0  0  0
  -21.2610   -4.9470   24.9120 C   0  0  0  0  0  0  0  0  0  0  0  0
  -21.8520   -4.3000   23.8120 C   0  0  0  0  0  3  0  0  0  0  0  0
  -22.1070   -5.0150   22.6300 C   0  0  0  0  0  0  0  0  0  0  0  0
  -22.6570   -4.3810   21.5650 F   0  0  0  0  0  0  0  0  0  0  0  0
  -21.0110   -4.2540   26.0470 F   0  0  0  0  0  0  0  0  0  0  0  0
  -23.1300  -13.6670   21.1480 C   0  0  0  0  0  0  0  0  0  0  0  0
  -22.4430  -12.9800   22.0520 N   0  0  0  0  0  0  0  0  0  0  0  0
  -22.6720  -14.6920   20.6450 O   0  0  0  0  0  0  0  0  0  0  0  0
  -22.8260  -12.1490   22.4800 H   0  0  0  0  0  0  0  0  0  0  0  0
  -21.5200  -13.2890   22.3230 H   0  0  0  0  0  0  0  0  0  0  0  0
  -25.7440  -15.3180   20.2450 N   0  0  0  0  0  0  0  0  0  0  0  0
  -24.9730  -15.9670   20.3640 H   0  0  0  0  0  0  0  0  0  0  0  0
  -26.5340  -15.7270   19.7660 H   0  0  0  0  0  0  0  0  0  0  0  0
  -27.6810  -19.4700   19.2130 C   0  0  0  0  0  0  0  0  0  0  0  0
  -26.7510  -19.8940   19.8910 O   0  0  0  0  0  0  0  0  0  0  0  0
  -27.6020  -19.4310   17.8720 F   0  0  0  0  0  0  0  0  0  0  0  0
  -28.5720  -25.6320   20.9200 C   0  0  0  0  0  2  0  0  0  0  0  0
  -28.4100  -26.5330   19.7970 O   0  0  0  0  0  0  0  0  0  0  0  0
  -24.5170  -31.6490   23.0040 C   0  0  0  0  0  0  0  0  0  0  0  0
  -27.2590  -27.3020   19.8380 C   0  0  0  0  0  0  0  0  0  0  0  0
  -23.3410  -30.2390   21.3470 C   0  0  0  0  0  3  0  0  0  0  0  0
  -24.8300  -28.7630   19.8860 C   0  0  0  0  0  0  0  0  0  0  0  0
  -25.8570  -30.6640   21.1400 C   0  0  0  0  0  2  0  0  0  0  0  0
  -25.9800  -29.3040   20.4790 C   0  0  0  0  0  0  0  0  0  0  0  0
  -27.2000  -28.5800   20.4530 C   0  0  0  0  0  3  0  0  0  0  0  0
  -26.0940  -26.7860   19.2370 C   0  0  0  0  0  3  0  0  0  0  0  0
  -24.8830  -27.5040   19.2630 C   0  0  0  0  0  3  0  0  0  0  0  0
  -23.5620  -29.5890   19.9550 C   0  0  0  0  0  2  0  0  0  0  0  0
  -24.5910  -30.8660   21.8890 N   0  0  0  0  0  0  0  0  0  0  0  0
  -23.4320  -31.8810   23.5550 O   0  0  0  0  0  0  0  0  0  0  0  0
  -22.7250  -29.1850   22.2960 C   0  0  0  0  0  0  0  0  0  0  0  0
  -21.4010  -28.9820   22.1900 N   0  0  0  0  0  0  0  0  0  0  0  0
  -23.4340  -28.5540   23.0850 O   0  0  0  0  0  0  0  0  0  0  0  0
  -20.8890  -29.5450   21.5240 H   0  0  0  0  0  0  0  0  0  0  0  0
  -18.0540  -27.7350   22.7470 C   0  0  0  0  0  0  0  0  0  0  0  0
  -20.6170  -28.0120   22.9530 C   0  0  0  0  0  3  0  0  0  0  0  0
  -20.7160  -26.6020   22.3270 C   0  0  0  0  0  2  0  0  0  0  0  0
  -19.5890  -26.2990   21.3350 C   0  0  0  0  0  2  0  0  0  0  0  0
  -18.2250  -26.4090   22.0230 C   0  0  0  0  0  2  0  0  0  0  0  0
  -19.1770  -28.4940   23.1690 C   0  0  0  0  0  0  0  0  0  0  0  0
  -18.9640  -29.7360   23.8070 C   0  0  0  0  0  3  0  0  0  0  0  0
  -17.6590  -30.2170   24.0250 C   0  0  0  0  0  3  0  0  0  0  0  0
  -16.5510  -29.4550   23.6180 C   0  0  0  0  0  3  0  0  0  0  0  0
  -16.7500  -28.2140   22.9860 C   0  0  0  0  0  3  0  0  0  0  0  0
  -25.7890  -32.3060   23.6250 C   0  0  0  0  0  3  0  0  0  0  0  0
  -26.3700  -31.5000   24.8500 C   0  0  1  0  0  0  0  0  0  0  0  0
  -25.3170  -31.1640   25.9300 C   0  0  0  0  0  1  0  0  0  0  0  0
  -27.0040  -30.1710   24.3780 C   0  0  0  0  0  1  0  0  0  0  0  0
  -27.5020  -32.3130   25.5220 C   0  0  0  0  0  1  0  0  0  0  0  0
  -25.4280  -33.6730   24.0270 N   0  0  0  0  0  0  0  0  0  0  0  0
  -25.7030  -34.7740   23.3150 C   0  0  0  0  0  0  0  0  0  0  0  0
  -26.3590  -34.7480   22.2690 O   0  0  0  0  0  0  0  0  0  0  0  0
  -24.8400  -33.7640   24.8430 H   0  0  0  0  0  0  0  0  0  0  0  0
  -23.8950  -36.5060   23.0740 C   0  0  0  0  0  1  0  0  0  0  0  0
  -25.1660  -36.1170   23.8450 C   0  0  0  0  0  3  0  0  0  0  0  0
  -27.2720  -37.0540   24.6910 C   0  0  0  0  0  1  0  0  0  0  0  0
  -26.1520  -37.2170   23.7680 N   0  0  0  0  0  0  0  0  0  0  0  0
  -25.7080  -38.1110   23.9610 H   0  0  0  0  0  0  0  0  0  0  0  0
  1  2  2  0
  2 55  1  0
  2  3  1  0
  3  7  2  0
  4  1  1  0
  4  6  1  0
  5  3  1  0
  6 12  1  0
  6  5  1  0
  8  9  1  0
 10 13  1  0
 11 10  2  0
 11 12  1  0
 12  8  2  0
 13 22  1  0
 13  9  2  0
 14 22  1  0
 15 20  1  0
 16 17  1  0
 16 15  1  0
 18 17  1  0
 18 27  1  0
 18 19  1  0
 20 14  1  0
 20 19  1  0
 21 14  2  0
 22 23  1  0
 24 25  2  0
 25 44  1  0
 26 25  1  0
 26 29  1  0
 27 28  1  0
 27 24  1  0
 28 26  2  0
 29 30  1  0
 30 31  2  0
 32 35  1  0
 32 31  1  0
 33 32  2  0
 34 33  1  0
 34 29  2  0
 35 36  1  0
 36 41  2  0
 36 37  1  0
 37 38  2  0
 38 39  1  0
 39 43  1  0
 40 39  2  0
 41 40  1  0
 42 41  1  0
 44 45  1  0
 45 48  1  0
 45 47  1  0
 46 44  2  0
 49 50  1  0
 49 24  1  0
 51 49  1  0
 52 11  1  0
 52 53  2  0
 54 52  1  0
 56 58  1  0
 56 55  1  0
 57 68  2  0
 58 63  1  0
 59 67  1  0
 59 69  1  0
 60 66  1  0
 60 62  1  0
 61 67  1  0
 62 61  1  0
 63 62  2  0
 64 65  1  0
 64 58  2  0
 65 60  2  0
 66 59  1  0
 67 57  1  0
 69 71  2  0
 70 69  1  0
 72 70  1  0
 73 82  2  0
 73 78  1  0
 74 70  1  0
 74 78  1  0
 75 74  1  0
 76 77  1  0
 76 75  1  0
 77 73  1  0
 78 79  2  0
 79 80  1  0
 81 80  2  0
 82 81  1  0
 83 57  1  0
 83 88  1  0
 83 84  1  0
 84 87  1  1
 84 85  1  0
 86 84  1  0
 88 91  1  0
 89 93  1  0
 89 88  1  0
 90 89  2  0
 93 92  1  0
 95 93  1  0
 95 96  1  0
 95 94  1  0
M  ISO  4  14 100  22 100  55 101  56 101
M  END
>  <TORSDO>  (10) 
F 19

>  <SCORE>  (10) 
-13.685

>  <name>  (10) 
9

>  <ligand_id>  (10) 
9

>  <original_smiles>  (10) 
[H]C1=C(C([H])([H])Oc2c([H])c([H])c3c(c2[H])C([H])([H])N(C(=O)C([H])(N([H])C(=O)C([H])(N([H])C([H])([H])[H])C([H])([H])[H])C(C([H])([H])[H])(C([H])([H])[H])C([H])([H])[H])C([H])(C(=O)N([H])C2([H])c4c([H])c([H])c([H])c([H])c4C([H])([H])C([H])([H])C2([H])[H])C3([H])[H])C(=O)C([H])([H])N(c2c([H])c([H])c(N([H])C(=O)N3C([H])([H])C([H])([H])C([H])([H])C([H])(n4nc(-c5c([H])c([H])c(Oc6c([H])c([H])c(F)c([H])c6F)c([H])c5[H])c(C(=O)N([H])[H])c4N([H])[H])C3([H])[H])c([H])c2C(=O)F)C1([H])[H]

>  <smiles>  (10) 
[H]C1=C(C([H])([H])Oc2c([H])c([H])c3c(c2[H])C([H])([H])N(C(=O)C([H])(N([H])C(=O)C([H])(N([H])C([H])([H])[H])C([H])([H])[H])C(C([H])([H])[H])(C([H])([H])[H])C([H])([H])[H])C([H])(C(=O)N([H])C2([H])c4c([H])c([H])c([H])c([H])c4C([H])([H])C([H])([H])C2([H])[H])C3([H])[H])C(=O)C([H])([H])N(c2c([H])c([H])c(N([H])C(=O)N3C([H])([H])C([H])([H])C([H])([H])C([H])(n4nc(-c5c([H])c([H])c(Oc6c([H])c([H])c(F)c([H])c6F)c([H])c5[H])c(C(=O)N([H])[H])c4N([H])[H])C3([H])[H])c([H])c2C(=O)F)C1([H])[H]

$$$$
10:0:0
     RDKit          3D

 95103  0  0  1  0  0  0  0  0999 V2000
  -29.5810  -20.6170   20.3700 C   0  0  0  0  0  0  0  0  0  0  0  0
  -29.1400  -21.6550   21.1150 N   0  0  0  0  0  0  0  0  0  0  0  0
  -29.5090  -20.5900   19.1400 O   0  0  0  0  0  0  0  0  0  0  0  0
  -29.2940  -21.5510   22.1090 H   0  0  0  0  0  0  0  0  0  0  0  0
  -31.5330  -18.3870   22.8180 C   0  0  0  0  0  3  0  0  0  0  0  0
  -31.0050  -19.5320   22.1840 C   0  0  0  0  0  3  0  0  0  0  0  0
  -31.1640  -17.0940   22.3940 C   0  0  0  0  0  3  0  0  0  0  0  0
  -29.7230  -18.0830   20.6970 C   0  0  0  0  0  3  0  0  0  0  0  0
  -30.0980  -19.3970   21.1070 C   0  0  0  0  0  0  0  0  0  0  0  0
  -30.2540  -16.9250   21.3290 C   0  0  0  0  0  0  0  0  0  0  0  0
  -30.5150  -14.6180   20.3910 C   0  0  0  0  0  0  0  0  0  0  0  0
  -30.2190  -12.5040   19.1310 C   0  0  0  0  0  2  0  0  0  0  0  0
  -29.2370  -12.7190   17.9610 C   0  0  0  0  0  2  0  0  0  0  0  0
  -27.7780  -12.5340   18.4210 C   0  0  0  0  0  2  0  0  0  0  0  0
  -27.4560  -13.3110   19.7250 C   0  0  0  0  0  3  0  0  0  0  0  0
  -28.5470  -13.0800   20.7930 C   0  0  0  0  0  2  0  0  0  0  0  0
  -29.8480  -13.4440   20.2020 N   0  0  0  0  0  0  0  0  0  0  0  0
  -31.6380  -14.8220   19.9200 O   0  0  0  0  0  0  0  0  0  0  0  0
  -29.8000  -15.6140   20.9610 N   0  0  0  0  0  0  0  0  0  0  0  0
  -28.8310  -15.4040   21.1380 H   0  0  0  0  0  0  0  0  0  0  0  0
  -25.0560  -13.8370   20.4940 C   0  0  0  0  0  0  0  0  0  0  0  0
  -24.0170  -13.0320   20.8770 C   0  0  0  0  0  0  0  0  0  0  0  0
  -24.5150  -11.6940   20.8240 C   0  0  0  0  0  0  0  0  0  0  0  0
  -26.1210  -12.9900   20.2290 N   0  0  0  0  0  0  0  0  0  0  0  0
  -25.8010  -11.6960   20.4890 N   0  0  0  0  0  0  0  0  0  0  0  0
  -23.8290  -10.4100   21.0200 C   0  0  0  0  0  0  0  0  0  0  0  0
  -24.2970   -9.4600   21.9540 C   0  0  0  0  0  3  0  0  0  0  0  0
  -23.6130   -8.2380   22.1360 C   0  0  0  0  0  3  0  0  0  0  0  0
  -22.4460   -7.9580   21.3860 C   0  0  0  0  0  0  0  0  0  0  0  0
  -21.9990   -8.9000   20.4410 C   0  0  0  0  0  3  0  0  0  0  0  0
  -22.6820  -10.1130   20.2580 C   0  0  0  0  0  3  0  0  0  0  0  0
  -21.7310   -6.7900   21.4780 O   0  0  0  0  0  0  0  0  0  0  0  0
  -21.7080   -6.0470   22.6320 C   0  0  0  0  0  0  0  0  0  0  0  0
  -21.2460   -6.5870   23.8520 C   0  0  0  0  0  3  0  0  0  0  0  0
  -21.1720   -5.7710   24.9980 C   0  0  0  0  0  3  0  0  0  0  0  0
  -21.5490   -4.4180   24.9250 C   0  0  0  0  0  0  0  0  0  0  0  0
  -22.0060   -3.8770   23.7100 C   0  0  0  0  0  3  0  0  0  0  0  0
  -22.0820   -4.6900   22.5660 C   0  0  0  0  0  0  0  0  0  0  0  0
  -22.5020   -4.1620   21.3910 F   0  0  0  0  0  0  0  0  0  0  0  0
  -21.4720   -3.6300   26.0240 F   0  0  0  0  0  0  0  0  0  0  0  0
  -22.6110  -13.4660   21.1790 C   0  0  0  0  0  0  0  0  0  0  0  0
  -21.9180  -12.7430   22.0530 N   0  0  0  0  0  0  0  0  0  0  0  0
  -22.1350  -14.4820   20.6760 O   0  0  0  0  0  0  0  0  0  0  0  0
  -22.3170  -11.9240   22.4890 H   0  0  0  0  0  0  0  0  0  0  0  0
  -20.9760  -13.0140   22.2910 H   0  0  0  0  0  0  0  0  0  0  0  0
  -25.1770  -15.2150   20.3310 N   0  0  0  0  0  0  0  0  0  0  0  0
  -24.3910  -15.8400   20.4770 H   0  0  0  0  0  0  0  0  0  0  0  0
  -26.0010  -15.6920   19.9890 H   0  0  0  0  0  0  0  0  0  0  0  0
  -27.3060  -22.5250   19.5780 C   0  0  0  0  0  1  0  0  0  0  0  0
  -28.2920  -22.8270   20.7290 C   0  0  0  0  0  3  0  0  0  0  0  0
  -28.9990  -24.2250   20.5850 C   0  0  0  0  0  0  0  0  0  0  0  0
  -30.1530  -24.3520   20.1560 O   0  0  0  0  0  0  0  0  0  0  0  0
  -28.1610  -25.4950   21.0190 C   0  0  0  0  0  0  0  0  0  0  0  0
  -27.4060  -25.4240   22.0000 O   0  0  0  0  0  0  0  0  0  0  0  0
  -28.2630  -26.6220   20.1910 O   0  0  0  0  0  0  0  0  0  0  0  0
  -24.5250  -31.9290   23.2350 C   0  0  0  0  0  0  0  0  0  0  0  0
  -27.1670  -27.4740   20.1500 C   0  0  0  0  0  0  0  0  0  0  0  0
  -23.3260  -30.5340   21.5850 C   0  0  0  0  0  3  0  0  0  0  0  0
  -24.7860  -29.0170   20.1430 C   0  0  0  0  0  0  0  0  0  0  0  0
  -25.8540  -30.8960   21.3910 C   0  0  0  0  0  2  0  0  0  0  0  0
  -25.9470  -29.5260   20.7410 C   0  0  0  0  0  0  0  0  0  0  0  0
  -27.1450  -28.7640   20.7400 C   0  0  0  0  0  3  0  0  0  0  0  0
  -25.9970  -27.0070   19.5110 C   0  0  0  0  0  3  0  0  0  0  0  0
  -24.8080  -27.7590   19.5160 C   0  0  0  0  0  3  0  0  0  0  0  0
  -23.5380  -29.8690   20.1990 C   0  0  0  0  0  2  0  0  0  0  0  0
  -24.5860  -31.1350   22.1280 N   0  0  0  0  0  0  0  0  0  0  0  0
  -23.4420  -32.1950   23.7770 O   0  0  0  0  0  0  0  0  0  0  0  0
  -22.6780  -29.5050   22.5400 C   0  0  0  0  0  0  0  0  0  0  0  0
  -21.3520  -29.3190   22.4160 N   0  0  0  0  0  0  0  0  0  0  0  0
  -23.3630  -28.8750   23.3510 O   0  0  0  0  0  0  0  0  0  0  0  0
  -20.8580  -29.8790   21.7350 H   0  0  0  0  0  0  0  0  0  0  0  0
  -17.9800  -28.1100   22.9180 C   0  0  0  0  0  0  0  0  0  0  0  0
  -20.5400  -28.3740   23.1830 C   0  0  0  0  0  3  0  0  0  0  0  0
  -20.6440  -26.9470   22.5940 C   0  0  0  0  0  2  0  0  0  0  0  0
  -19.5390  -26.6290   21.5820 C   0  0  0  0  0  2  0  0  0  0  0  0
  -18.1600  -26.7660   22.2320 C   0  0  0  0  0  2  0  0  0  0  0  0
  -19.0990  -28.8710   23.3520 C   0  0  0  0  0  0  0  0  0  0  0  0
  -18.8780  -30.1290   23.9540 C   0  0  0  0  0  3  0  0  0  0  0  0
  -17.5720  -30.6260   24.1260 C   0  0  0  0  0  3  0  0  0  0  0  0
  -16.4700  -29.8630   23.7100 C   0  0  0  0  0  3  0  0  0  0  0  0
  -16.6740  -28.6060   23.1130 C   0  0  0  0  0  3  0  0  0  0  0  0
  -25.8070  -32.5640   23.8570 C   0  0  0  0  0  3  0  0  0  0  0  0
  -26.3220  -31.7970   25.1360 C   0  0  1  0  0  0  0  0  0  0  0  0
  -25.2270  -31.5610   26.2010 C   0  0  0  0  0  1  0  0  0  0  0  0
  -26.9040  -30.4180   24.7470 C   0  0  0  0  0  1  0  0  0  0  0  0
  -27.4740  -32.5910   25.7970 C   0  0  0  0  0  1  0  0  0  0  0  0
  -25.5000  -33.9640   24.1810 N   0  0  0  0  0  0  0  0  0  0  0  0
  -25.8400  -35.0130   23.4210 C   0  0  0  0  0  0  0  0  0  0  0  0
  -26.5190  -34.9020   22.3950 O   0  0  0  0  0  0  0  0  0  0  0  0
  -24.9000  -34.1230   24.9780 H   0  0  0  0  0  0  0  0  0  0  0  0
  -24.1280  -36.8130   23.0340 C   0  0  0  0  0  1  0  0  0  0  0  0
  -25.3520  -36.4040   23.8680 C   0  0  0  0  0  3  0  0  0  0  0  0
  -27.4740  -37.2810   24.7340 C   0  0  0  0  0  1  0  0  0  0  0  0
  -26.3910  -37.4510   23.7710 N   0  0  0  0  0  0  0  0  0  0  0  0
  -25.9870  -38.3740   23.9090 H   0  0  0  0  0  0  0  0  0  0  0  0
  1  9  1  0
  1  2  1  0
  2  4  1  0
  3  1  2  0
  6  5  2  0
  7  5  1  0
  8  9  2  0
  8 10  1  0
  9  6  1  0
 10  7  2  0
 11 19  1  0
 12 17  1  0
 13 14  1  0
 13 12  1  0
 15 14  1  0
 15 24  1  0
 15 16  1  0
 17 11  1  0
 17 16  1  0
 18 11  2  0
 19 20  1  0
 19 10  1  0
 21 22  2  0
 22 41  1  0
 23 22  1  0
 23 26  1  0
 24 25  1  0
 24 21  1  0
 25 23  2  0
 26 27  1  0
 27 28  2  0
 29 32  1  0
 29 28  1  0
 30 29  2  0
 31 30  1  0
 31 26  2  0
 32 33  1  0
 33 34  1  0
 34 35  2  0
 36 35  1  0
 36 40  1  0
 37 36  2  0
 38 33  2  0
 38 37  1  0
 39 38  1  0
 41 42  1  0
 42 45  1  0
 42 44  1  0
 43 41  2  0
 46 47  1  0
 46 21  1  0
 48 46  1  0
 50 49  1  0
 50  2  1  0
 51 50  1  0
 51 53  1  0
 52 51  2  0
 53 54  2  0
 55 53  1  0
 56 67  2  0
 57 55  1  0
 57 62  1  0
 58 66  1  0
 58 68  1  0
 59 65  1  0
 59 61  1  0
 60 66  1  0
 61 60  1  0
 62 61  2  0
 63 64  1  0
 63 57  2  0
 64 59  2  0
 65 58  1  0
 66 56  1  0
 68 70  2  0
 69 68  1  0
 71 69  1  0
 72 81  2  0
 72 77  1  0
 73 69  1  0
 73 77  1  0
 74 73  1  0
 75 76  1  0
 75 74  1  0
 76 72  1  0
 77 78  2  0
 78 79  1  0
 80 79  2  0
 81 80  1  0
 82 56  1  0
 82 87  1  0
 82 83  1  0
 83 86  1  1
 83 84  1  0
 85 83  1  0
 87 90  1  0
 88 92  1  0
 88 87  1  0
 89 88  2  0
 92 91  1  0
 94 92  1  0
 94 95  1  0
 94 93  1  0
M  ISO  4  11 100  19 100  53 101  55 101
M  END
>  <TORSDO>  (11) 
F 20

>  <SCORE>  (11) 
-13.659

>  <name>  (11) 
10

>  <ligand_id>  (11) 
10

>  <original_smiles>  (11) 
[H]c1c([H])c(C(=O)N([H])C([H])(C(=O)C(=O)Oc2c([H])c([H])c3c(c2[H])C([H])([H])N(C(=O)C([H])(N([H])C(=O)C([H])(N([H])C([H])([H])[H])C([H])([H])[H])C(C([H])([H])[H])(C([H])([H])[H])C([H])([H])[H])C([H])(C(=O)N([H])C2([H])c4c([H])c([H])c([H])c([H])c4C([H])([H])C([H])([H])C2([H])[H])C3([H])[H])C([H])([H])[H])c([H])c(N([H])C(=O)N2C([H])([H])C([H])([H])C([H])([H])C([H])(n3nc(-c4c([H])c([H])c(Oc5c([H])c([H])c(F)c([H])c5F)c([H])c4[H])c(C(=O)N([H])[H])c3N([H])[H])C2([H])[H])c1[H]

>  <smiles>  (11) 
[H]c1c([H])c(C(=O)N([H])C([H])(C(=O)C(=O)Oc2c([H])c([H])c3c(c2[H])C([H])([H])N(C(=O)C([H])(N([H])C(=O)C([H])(N([H])C([H])([H])[H])C([H])([H])[H])C(C([H])([H])[H])(C([H])([H])[H])C([H])([H])[H])C([H])(C(=O)N([H])C2([H])c4c([H])c([H])c([H])c([H])c4C([H])([H])C([H])([H])C2([H])[H])C3([H])[H])C([H])([H])[H])c([H])c(N([H])C(=O)N2C([H])([H])C([H])([H])C([H])([H])C([H])(n3nc(-c4c([H])c([H])c(Oc5c([H])c([H])c(F)c([H])c5F)c([H])c4[H])c(C(=O)N([H])[H])c3N([H])[H])C2([H])[H])c1[H]

$$$$
11:0:0
     RDKit          3D

 93101  0  0  1  0  0  0  0  0999 V2000
  -28.5690  -22.9200   20.6860 C   0  0  0  0  0  0  0  0  0  0  0  0
  -29.1830  -21.9110   20.0090 N   0  0  0  0  0  0  0  0  0  0  0  0
  -27.7380  -22.7010   21.5720 O   0  0  0  0  0  0  0  0  0  0  0  0
  -29.9500  -22.1880   19.4110 H   0  0  0  0  0  0  0  0  0  0  0  0
  -27.2590  -18.6450   19.9550 C   0  0  0  0  0  3  0  0  0  0  0  0
  -28.2970  -17.6960   20.0400 C   0  0  0  0  0  3  0  0  0  0  0  0
  -27.5440  -20.0250   19.9490 C   0  0  0  0  0  3  0  0  0  0  0  0
  -29.9150  -19.5210   20.0930 C   0  0  0  0  0  3  0  0  0  0  0  0
  -29.6450  -18.1150   20.1000 C   0  0  0  0  0  0  0  0  0  0  0  0
  -28.8750  -20.4960   20.0360 C   0  0  0  0  0  0  0  0  0  0  0  0
  -31.2830  -14.7220   20.4850 C   0  0  0  0  0  0  0  0  0  0  0  0
  -31.2050  -12.3060   19.9680 C   0  0  0  0  0  2  0  0  0  0  0  0
  -30.3750  -12.1000   18.6840 C   0  0  0  0  0  2  0  0  0  0  0  0
  -28.8790  -11.9570   19.0270 C   0  0  0  0  0  2  0  0  0  0  0  0
  -28.3750  -13.0700   19.9850 C   0  0  0  0  0  3  0  0  0  0  0  0
  -29.3340  -13.2620   21.1810 C   0  0  0  0  0  2  0  0  0  0  0  0
  -30.6790  -13.5070   20.6430 N   0  0  0  0  0  0  0  0  0  0  0  0
  -32.4740  -14.7930   20.1720 O   0  0  0  0  0  0  0  0  0  0  0  0
  -30.7770  -17.1040   20.2320 C   0  0  0  0  0  0  0  0  0  0  0  0
  -30.4570  -15.8040   20.4940 N   0  0  0  0  0  0  0  0  0  0  0  0
  -31.9310  -17.5130   20.0590 O   0  0  0  0  0  0  0  0  0  0  0  0
  -29.4850  -15.6170   20.6550 H   0  0  0  0  0  0  0  0  0  0  0  0
  -25.9730  -13.7250   20.6230 C   0  0  0  0  0  0  0  0  0  0  0  0
  -24.8770  -12.9750   20.9530 C   0  0  0  0  0  0  0  0  0  0  0  0
  -25.3090  -11.6130   20.9330 C   0  0  0  0  0  0  0  0  0  0  0  0
  -27.0040  -12.8220   20.4210 N   0  0  0  0  0  0  0  0  0  0  0  0
  -26.6080  -11.5460   20.6680 N   0  0  0  0  0  0  0  0  0  0  0  0
  -24.5480  -10.3680   21.0920 C   0  0  0  0  0  0  0  0  0  0  0  0
  -24.8710   -9.4280   22.0960 C   0  0  0  0  0  3  0  0  0  0  0  0
  -24.1140   -8.2460   22.2420 C   0  0  0  0  0  3  0  0  0  0  0  0
  -23.0190   -7.9950   21.3810 C   0  0  0  0  0  0  0  0  0  0  0  0
  -22.7160   -8.9220   20.3690 C   0  0  0  0  0  3  0  0  0  0  0  0
  -23.4740  -10.0960   20.2220 C   0  0  0  0  0  3  0  0  0  0  0  0
  -22.2420   -6.8630   21.4320 O   0  0  0  0  0  0  0  0  0  0  0  0
  -21.9780   -6.2240   22.6170 C   0  0  0  0  0  0  0  0  0  0  0  0
  -21.3490   -6.8830   23.6960 C   0  0  0  0  0  3  0  0  0  0  0  0
  -21.0340   -6.1700   24.8690 C   0  0  0  0  0  3  0  0  0  0  0  0
  -21.3360   -4.7990   24.9630 C   0  0  0  0  0  0  0  0  0  0  0  0
  -21.9580   -4.1390   23.8880 C   0  0  0  0  0  3  0  0  0  0  0  0
  -22.2750   -4.8500   22.7170 C   0  0  0  0  0  0  0  0  0  0  0  0
  -22.8550   -4.2050   21.6760 F   0  0  0  0  0  0  0  0  0  0  0  0
  -21.0260   -4.1110   26.0870 F   0  0  0  0  0  0  0  0  0  0  0  0
  -23.4820  -13.4830   21.1780 C   0  0  0  0  0  0  0  0  0  0  0  0
  -22.7140  -12.8080   22.0260 N   0  0  0  0  0  0  0  0  0  0  0  0
  -23.0820  -14.5120   20.6360 O   0  0  0  0  0  0  0  0  0  0  0  0
  -23.0500  -11.9750   22.4870 H   0  0  0  0  0  0  0  0  0  0  0  0
  -21.7770  -13.1320   22.2190 H   0  0  0  0  0  0  0  0  0  0  0  0
  -26.1740  -15.0920   20.4520 N   0  0  0  0  0  0  0  0  0  0  0  0
  -25.4070  -15.7520   20.5130 H   0  0  0  0  0  0  0  0  0  0  0  0
  -27.0220  -15.5090   20.0890 H   0  0  0  0  0  0  0  0  0  0  0  0
  -28.9920  -24.2780   20.3030 C   0  0  0  0  0  3  0  0  0  0  0  0
  -28.3470  -25.3640   20.8100 C   0  0  0  0  0  3  0  0  0  0  0  0
  -28.6200  -26.6960   20.5200 O   0  0  0  0  0  0  0  0  0  0  0  0
  -24.7830  -31.9800   23.4610 C   0  0  0  0  0  0  0  0  0  0  0  0
  -27.5100  -27.5210   20.4530 C   0  0  0  0  0  0  0  0  0  0  0  0
  -23.6380  -30.6060   21.7550 C   0  0  0  0  0  3  0  0  0  0  0  0
  -25.1400  -29.0740   20.3700 C   0  0  0  0  0  0  0  0  0  0  0  0
  -26.1750  -30.9410   21.6690 C   0  0  0  0  0  2  0  0  0  0  0  0
  -26.2790  -29.5740   21.0150 C   0  0  0  0  0  0  0  0  0  0  0  0
  -27.4730  -28.8060   21.0510 C   0  0  0  0  0  3  0  0  0  0  0  0
  -26.3560  -27.0500   19.7920 C   0  0  0  0  0  3  0  0  0  0  0  0
  -25.1750  -27.8130   19.7520 C   0  0  0  0  0  3  0  0  0  0  0  0
  -23.9000  -29.9410   20.3770 C   0  0  0  0  0  2  0  0  0  0  0  0
  -24.8810  -31.1900   22.3540 N   0  0  0  0  0  0  0  0  0  0  0  0
  -23.6810  -32.2540   23.9580 O   0  0  0  0  0  0  0  0  0  0  0  0
  -22.9370  -29.5790   22.6760 C   0  0  0  0  0  0  0  0  0  0  0  0
  -21.6160  -29.4170   22.4990 N   0  0  0  0  0  0  0  0  0  0  0  0
  -23.5830  -28.9340   23.5060 O   0  0  0  0  0  0  0  0  0  0  0  0
  -21.1570  -29.9890   21.8050 H   0  0  0  0  0  0  0  0  0  0  0  0
  -18.2100  -28.2660   22.8710 C   0  0  0  0  0  0  0  0  0  0  0  0
  -20.7620  -28.4750   23.2250 C   0  0  0  0  0  3  0  0  0  0  0  0
  -20.8580  -27.0560   22.6200 C   0  0  0  0  0  2  0  0  0  0  0  0
  -19.7810  -26.7730   21.5670 C   0  0  0  0  0  2  0  0  0  0  0  0
  -18.3840  -26.9280   22.1740 C   0  0  0  0  0  2  0  0  0  0  0  0
  -19.3280  -29.0000   23.3510 C   0  0  0  0  0  0  0  0  0  0  0  0
  -19.1120  -30.2550   23.9600 C   0  0  0  0  0  3  0  0  0  0  0  0
  -17.8120  -30.7760   24.0960 C   0  0  0  0  0  3  0  0  0  0  0  0
  -16.7080  -30.0390   23.6330 C   0  0  0  0  0  3  0  0  0  0  0  0
  -16.9080  -28.7850   23.0270 C   0  0  0  0  0  3  0  0  0  0  0  0
  -26.0450  -32.5950   24.1410 C   0  0  0  0  0  3  0  0  0  0  0  0
  -26.4790  -31.8330   25.4530 C   0  0  1  0  0  0  0  0  0  0  0  0
  -25.3200  -31.6080   26.4530 C   0  0  0  0  0  1  0  0  0  0  0  0
  -27.0780  -30.4500   25.1080 C   0  0  0  0  0  1  0  0  0  0  0  0
  -27.5900  -32.6280   26.1780 C   0  0  0  0  0  1  0  0  0  0  0  0
  -25.7480  -34.0040   24.4340 N   0  0  0  0  0  0  0  0  0  0  0  0
  -26.1120  -35.0350   23.6580 C   0  0  0  0  0  0  0  0  0  0  0  0
  -26.8040  -34.9000   22.6460 O   0  0  0  0  0  0  0  0  0  0  0  0
  -25.1370  -34.1850   25.2160 H   0  0  0  0  0  0  0  0  0  0  0  0
  -24.4070  -36.8340   23.2330 C   0  0  0  0  0  1  0  0  0  0  0  0
  -25.6320  -36.4400   24.0740 C   0  0  0  0  0  3  0  0  0  0  0  0
  -27.7630  -37.3240   24.9130 C   0  0  0  0  0  1  0  0  0  0  0  0
  -26.6780  -37.4780   23.9490 N   0  0  0  0  0  0  0  0  0  0  0  0
  -26.2800  -38.4060   24.0650 H   0  0  0  0  0  0  0  0  0  0  0  0
  1  3  2  0
  2 10  1  0
  2  1  1  0
  4  2  1  0
  5  6  1  0
  6  9  2  0
  7  5  2  0
  7 10  1  0
  8  9  1  0
  9 19  1  0
 10  8  2  0
 11 20  1  0
 11 17  1  0
 12 17  1  0
 13 14  1  0
 13 12  1  0
 15 14  1  0
 15 26  1  0
 15 16  1  0
 17 16  1  0
 18 11  2  0
 19 20  1  0
 20 22  1  0
 21 19  2  0
 23 24  2  0
 24 43  1  0
 25 24  1  0
 25 28  1  0
 26 23  1  0
 26 27  1  0
 27 25  2  0
 28 29  1  0
 29 30  2  0
 31 34  1  0
 31 30  1  0
 32 31  2  0
 33 32  1  0
 33 28  2  0
 34 35  1  0
 35 40  2  0
 35 36  1  0
 36 37  2  0
 37 38  1  0
 38 42  1  0
 39 38  2  0
 40 39  1  0
 41 40  1  0
 43 44  1  0
 44 47  1  0
 44 46  1  0
 45 43  2  0
 48 49  1  0
 48 23  1  0
 50 48  1  0
 51  1  1  0
 51 52  2  0
 53 52  1  0
 54 65  2  0
 55 53  1  0
 55 60  1  0
 56 64  1  0
 56 66  1  0
 57 63  1  0
 57 59  1  0
 58 64  1  0
 59 60  2  0
 59 58  1  0
 61 55  2  0
 62 61  1  0
 62 57  2  0
 63 56  1  0
 64 54  1  0
 66 68  2  0
 67 66  1  0
 69 67  1  0
 70 79  2  0
 70 75  1  0
 71 67  1  0
 71 75  1  0
 72 71  1  0
 73 74  1  0
 73 72  1  0
 74 70  1  0
 75 76  2  0
 76 77  1  0
 78 77  2  0
 79 78  1  0
 80 54  1  0
 80 85  1  0
 80 81  1  0
 81 84  1  1
 81 82  1  0
 83 81  1  0
 85 88  1  0
 86 90  1  0
 86 85  1  0
 87 86  2  0
 90 89  1  0
 92 93  1  0
 92 90  1  0
 92 91  1  0
M  ISO  4  11 100  20 100  52 101  53 101
M  END
>  <TORSDO>  (12) 
F 18

>  <SCORE>  (12) 
-13.495

>  <name>  (12) 
11

>  <ligand_id>  (12) 
11

>  <original_smiles>  (12) 
[H]C(Oc1c([H])c([H])c2c(c1[H])C([H])([H])N(C(=O)C([H])(N([H])C(=O)C([H])(N([H])C([H])([H])[H])C([H])([H])[H])C(C([H])([H])[H])(C([H])([H])[H])C([H])([H])[H])C([H])(C(=O)N([H])C1([H])c3c([H])c([H])c([H])c([H])c3C([H])([H])C([H])([H])C1([H])[H])C2([H])[H])=C([H])C(=O)N([H])c1c([H])c([H])c([H])c(C(=O)N([H])C(=O)N2C([H])([H])C([H])([H])C([H])([H])C([H])(n3nc(-c4c([H])c([H])c(Oc5c([H])c([H])c(F)c([H])c5F)c([H])c4[H])c(C(=O)N([H])[H])c3N([H])[H])C2([H])[H])c1[H]

>  <smiles>  (12) 
[H]C(Oc1c([H])c([H])c2c(c1[H])C([H])([H])N(C(=O)C([H])(N([H])C(=O)C([H])(N([H])C([H])([H])[H])C([H])([H])[H])C(C([H])([H])[H])(C([H])([H])[H])C([H])([H])[H])C([H])(C(=O)N([H])C1([H])c3c([H])c([H])c([H])c([H])c3C([H])([H])C([H])([H])C1([H])[H])C2([H])[H])=C([H])C(=O)N([H])c1c([H])c([H])c([H])c(C(=O)N([H])C(=O)N2C([H])([H])C([H])([H])C([H])([H])C([H])(n3nc(-c4c([H])c([H])c(Oc5c([H])c([H])c(F)c([H])c5F)c([H])c4[H])c(C(=O)N([H])[H])c3N([H])[H])C2([H])[H])c1[H]

$$$$
12:0:0
     RDKit          3D

 95104  0  0  1  0  0  0  0  0999 V2000
  -29.7630  -18.9360   21.4780 C   0  0  0  0  0  3  0  0  0  0  0  0
  -29.5370  -20.3100   21.7190 C   0  0  0  0  0  3  0  0  0  0  0  0
  -30.0450  -20.8120   19.4340 C   0  0  0  0  0  3  0  0  0  0  0  0
  -30.1820  -18.4840   20.2110 C   0  0  0  0  0  0  0  0  0  0  0  0
  -30.2730  -19.4410   19.1650 C   0  0  0  0  0  0  0  0  0  0  0  0
  -29.6900  -21.3010   20.7140 C   0  0  0  0  0  0  0  0  0  0  0  0
  -29.3190  -24.6690   21.1560 C   0  0  0  0  0  0  0  0  0  0  0  0
  -29.3240  -23.5500   22.0660 C   0  0  0  0  0  0  0  0  0  0  0  0
  -29.0920  -25.9810   21.3910 C   0  0  0  0  0  3  0  0  0  0  0  0
  -29.6090  -23.7620   19.9730 C   0  0  0  0  0  2  0  0  0  0  0  0
  -29.4890  -22.6940   20.9800 N   0  0  0  0  0  0  0  0  0  0  0  0
  -29.2380  -23.4770   23.2730 O   0  0  0  0  0  0  0  0  0  0  0  0
  -29.0810  -26.9790   20.4410 O   0  0  0  0  0  0  0  0  0  0  0  0
  -24.7100  -31.8690   23.2430 C   0  0  0  0  0  0  0  0  0  0  0  0
  -27.8960  -27.6700   20.3510 C   0  0  0  0  0  0  0  0  0  0  0  0
  -23.7310  -30.3850   21.5220 C   0  0  0  0  0  3  0  0  0  0  0  0
  -25.3980  -28.9800   20.1920 C   0  0  0  0  0  0  0  0  0  0  0  0
  -26.2290  -30.9470   21.4940 C   0  0  0  0  0  2  0  0  0  0  0  0
  -26.4670  -29.5920   20.8600 C   0  0  0  0  0  0  0  0  0  0  0  0
  -27.7230  -28.9460   20.9370 C   0  0  0  0  0  3  0  0  0  0  0  0
  -26.8130  -27.0700   19.6790 C   0  0  0  0  0  3  0  0  0  0  0  0
  -25.5670  -27.7180   19.5950 C   0  0  0  0  0  3  0  0  0  0  0  0
  -24.0840  -29.7300   20.1590 C   0  0  0  0  0  2  0  0  0  0  0  0
  -24.9030  -31.0830   22.1460 N   0  0  0  0  0  0  0  0  0  0  0  0
  -23.5780  -32.0500   23.7100 O   0  0  0  0  0  0  0  0  0  0  0  0
  -23.1000  -29.3100   22.4370 C   0  0  0  0  0  0  0  0  0  0  0  0
  -21.7930  -29.0600   22.2550 N   0  0  0  0  0  0  0  0  0  0  0  0
  -23.7860  -28.7040   23.2640 O   0  0  0  0  0  0  0  0  0  0  0  0
  -21.3030  -29.6040   21.5590 H   0  0  0  0  0  0  0  0  0  0  0  0
  -18.4550  -27.7400   22.6550 C   0  0  0  0  0  0  0  0  0  0  0  0
  -20.9990  -28.0650   22.9720 C   0  0  0  0  0  3  0  0  0  0  0  0
  -21.1550  -26.6650   22.3340 C   0  0  0  0  0  2  0  0  0  0  0  0
  -20.0770  -26.3540   21.2910 C   0  0  0  0  0  2  0  0  0  0  0  0
  -18.6830  -26.4260   21.9220 C   0  0  0  0  0  2  0  0  0  0  0  0
  -19.5440  -28.5160   23.1330 C   0  0  0  0  0  0  0  0  0  0  0  0
  -19.2780  -29.7440   23.7760 C   0  0  0  0  0  3  0  0  0  0  0  0
  -17.9570  -30.1980   23.9430 C   0  0  0  0  0  3  0  0  0  0  0  0
  -16.8820  -29.4190   23.4820 C   0  0  0  0  0  3  0  0  0  0  0  0
  -17.1320  -28.1910   22.8440 C   0  0  0  0  0  3  0  0  0  0  0  0
  -25.8980  -32.5950   23.9490 C   0  0  0  0  0  3  0  0  0  0  0  0
  -26.3730  -31.8730   25.2680 C   0  0  1  0  0  0  0  0  0  0  0  0
  -25.2200  -31.5250   26.2370 C   0  0  0  0  0  1  0  0  0  0  0  0
  -27.1220  -30.5620   24.9350 C   0  0  0  0  0  1  0  0  0  0  0  0
  -27.3760  -32.7750   26.0260 C   0  0  0  0  0  1  0  0  0  0  0  0
  -25.4670  -33.9690   24.2350 N   0  0  0  0  0  0  0  0  0  0  0  0
  -25.7620  -35.0310   23.4750 C   0  0  0  0  0  0  0  0  0  0  0  0
  -26.4960  -34.9660   22.4840 O   0  0  0  0  0  0  0  0  0  0  0  0
  -24.8160  -34.0880   24.9970 H   0  0  0  0  0  0  0  0  0  0  0  0
  -23.9190  -36.6760   23.0020 C   0  0  0  0  0  1  0  0  0  0  0  0
  -25.1460  -36.3840   23.8800 C   0  0  0  0  0  3  0  0  0  0  0  0
  -27.1630  -37.4480   24.7900 C   0  0  0  0  0  1  0  0  0  0  0  0
  -26.0980  -37.5150   23.7930 N   0  0  0  0  0  0  0  0  0  0  0  0
  -25.6120  -38.4010   23.9060 H   0  0  0  0  0  0  0  0  0  0  0  0
  -29.8050  -18.8410   16.9620 C   0  0  0  0  0  0  0  0  0  0  0  0
  -30.2610  -18.4730   15.5660 C   0  0  0  0  0  1  0  0  0  0  0  0
  -28.2950  -18.8780   17.1500 C   0  0  0  0  0  1  0  0  0  0  0  0
  -30.6700  -19.0900   17.8690 N   0  0  0  0  0  0  0  0  0  0  0  0
  -30.5950  -17.0740   19.9830 C   0  0  0  0  0  3  0  0  0  0  0  0
  -30.3190  -15.9430   20.6800 C   0  0  0  0  0  3  0  0  0  0  0  0
  -31.0390  -14.7330   20.2760 C   0  0  0  0  0  0  0  0  0  0  0  0
  -30.7000  -12.5310   19.2490 C   0  0  0  0  0  2  0  0  0  0  0  0
  -29.7720  -12.7360   18.0330 C   0  0  0  0  0  2  0  0  0  0  0  0
  -28.2990  -12.6180   18.4670 C   0  0  0  0  0  2  0  0  0  0  0  0
  -27.9660  -13.4890   19.7100 C   0  0  0  0  0  3  0  0  0  0  0  0
  -29.0220  -13.3020   20.8210 C   0  0  0  0  0  2  0  0  0  0  0  0
  -30.3470  -13.5600   20.2430 N   0  0  0  0  0  0  0  0  0  0  0  0
  -32.1860  -14.8120   19.8280 O   0  0  0  0  0  0  0  0  0  0  0  0
  -25.5920  -14.1250   20.4690 C   0  0  0  0  0  0  0  0  0  0  0  0
  -24.5140  -13.3670   20.8360 C   0  0  0  0  0  0  0  0  0  0  0  0
  -24.9470  -12.0070   20.7700 C   0  0  0  0  0  0  0  0  0  0  0  0
  -26.6160  -13.2290   20.2020 N   0  0  0  0  0  0  0  0  0  0  0  0
  -26.2320  -11.9480   20.4430 N   0  0  0  0  0  0  0  0  0  0  0  0
  -24.1970  -10.7560   20.9480 C   0  0  0  0  0  0  0  0  0  0  0  0
  -24.5940   -9.7860   21.8940 C   0  0  0  0  0  3  0  0  0  0  0  0
  -23.8490   -8.5990   22.0590 C   0  0  0  0  0  3  0  0  0  0  0  0
  -22.6910   -8.3730   21.2770 C   0  0  0  0  0  0  0  0  0  0  0  0
  -22.3110   -9.3320   20.3220 C   0  0  0  0  0  3  0  0  0  0  0  0
  -23.0570  -10.5110   20.1560 C   0  0  0  0  0  3  0  0  0  0  0  0
  -21.9210   -7.2370   21.3510 O   0  0  0  0  0  0  0  0  0  0  0  0
  -21.7950   -6.5260   22.5170 C   0  0  0  0  0  0  0  0  0  0  0  0
  -21.2870   -7.1130   23.6960 C   0  0  0  0  0  3  0  0  0  0  0  0
  -21.1080   -6.3280   24.8520 C   0  0  0  0  0  3  0  0  0  0  0  0
  -21.4260   -4.9580   24.8310 C   0  0  0  0  0  0  0  0  0  0  0  0
  -21.9250   -4.3690   23.6560 C   0  0  0  0  0  3  0  0  0  0  0  0
  -22.1070   -5.1510   22.5020 C   0  0  0  0  0  0  0  0  0  0  0  0
  -22.5700   -4.5760   21.3660 F   0  0  0  0  0  0  0  0  0  0  0  0
  -21.2450   -4.2010   25.9380 F   0  0  0  0  0  0  0  0  0  0  0  0
  -23.1330  -13.8670   21.1430 C   0  0  0  0  0  0  0  0  0  0  0  0
  -22.4130  -13.1820   22.0240 N   0  0  0  0  0  0  0  0  0  0  0  0
  -22.7010  -14.9010   20.6360 O   0  0  0  0  0  0  0  0  0  0  0  0
  -22.7760  -12.3440   22.4570 H   0  0  0  0  0  0  0  0  0  0  0  0
  -21.4890  -13.5020   22.2740 H   0  0  0  0  0  0  0  0  0  0  0  0
  -25.7850  -15.4950   20.3220 N   0  0  0  0  0  0  0  0  0  0  0  0
  -25.0380  -16.1660   20.4670 H   0  0  0  0  0  0  0  0  0  0  0  0
  -26.6560  -15.9220   20.0370 H   0  0  0  0  0  0  0  0  0  0  0  0
  1  2  1  0
  3  6  1  0
  4  1  2  0
  5  3  2  0
  5  4  1  0
  6 11  1  0
  6  2  2  0
  7  9  2  0
  7  8  1  0
  8 12  2  0
 10 11  1  0
 10  7  1  0
 11  8  1  0
 13  9  1  0
 14 25  2  0
 15 13  1  0
 15 20  1  0
 16 24  1  0
 16 26  1  0
 17 19  1  0
 18 24  1  0
 19 20  2  0
 19 18  1  0
 21 15  2  0
 22 21  1  0
 22 17  2  0
 23 17  1  0
 23 16  1  0
 24 14  1  0
 26 28  2  0
 27 26  1  0
 29 27  1  0
 30 39  2  0
 30 35  1  0
 31 27  1  0
 31 35  1  0
 32 31  1  0
 33 34  1  0
 33 32  1  0
 34 30  1  0
 35 36  2  0
 36 37  1  0
 38 37  2  0
 39 38  1  0
 40 14  1  0
 40 45  1  0
 40 41  1  0
 41 44  1  1
 41 42  1  0
 43 41  1  0
 45 48  1  0
 46 50  1  0
 46 45  1  0
 47 46  2  0
 50 49  1  0
 52 50  1  0
 52 53  1  0
 52 51  1  0
 54 56  1  0
 54 57  2  0
 55 54  1  0
 57  5  1  0
 58  4  1  0
 58 59  2  0
 60 59  1  0
 61 66  1  0
 62 63  1  0
 62 61  1  0
 64 63  1  0
 64 71  1  0
 64 65  1  0
 66 60  1  0
 66 65  1  0
 67 60  2  0
 68 69  2  0
 69 88  1  0
 70 69  1  0
 70 73  1  0
 71 72  1  0
 71 68  1  0
 72 70  2  0
 73 74  1  0
 74 75  2  0
 76 79  1  0
 76 75  1  0
 77 76  2  0
 78 77  1  0
 78 73  2  0
 79 80  1  0
 80 81  1  0
 81 82  2  0
 83 82  1  0
 83 87  1  0
 84 83  2  0
 85 80  2  0
 85 84  1  0
 86 85  1  0
 88 89  1  0
 89 92  1  0
 89 91  1  0
 90 88  2  0
 93 94  1  0
 93 68  1  0
 95 93  1  0
M  ISO  4   9 101  13 101  59 100  60 100
M  END
>  <TORSDO>  (13) 
F 19

>  <SCORE>  (13) 
-13.366

>  <name>  (13) 
12

>  <ligand_id>  (13) 
12

>  <original_smiles>  (13) 
[H]C(Oc1c([H])c([H])c2c(c1[H])C([H])([H])N(C(=O)C([H])(N([H])C(=O)C([H])(N([H])C([H])([H])[H])C([H])([H])[H])C(C([H])([H])[H])(C([H])([H])[H])C([H])([H])[H])C([H])(C(=O)N([H])C1([H])c3c([H])c([H])c([H])c([H])c3C([H])([H])C([H])([H])C1([H])[H])C2([H])[H])=C1C(=O)N(c2c([H])c([H])c(C([H])=C([H])C(=O)N3C([H])([H])C([H])([H])C([H])([H])C([H])(n4nc(-c5c([H])c([H])c(Oc6c([H])c([H])c(F)c([H])c6F)c([H])c5[H])c(C(=O)N([H])[H])c4N([H])[H])C3([H])[H])c(N=C(C([H])([H])[H])C([H])([H])[H])c2[H])C1([H])[H]

>  <smiles>  (13) 
[H]C(Oc1c([H])c([H])c2c(c1[H])C([H])([H])N(C(=O)C([H])(N([H])C(=O)C([H])(N([H])C([H])([H])[H])C([H])([H])[H])C(C([H])([H])[H])(C([H])([H])[H])C([H])([H])[H])C([H])(C(=O)N([H])C1([H])c3c([H])c([H])c([H])c([H])c3C([H])([H])C([H])([H])C1([H])[H])C2([H])[H])=C1C(=O)N(c2c([H])c([H])c(C([H])=C([H])C(=O)N3C([H])([H])C([H])([H])C([H])([H])C([H])(n4nc(-c5c([H])c([H])c(Oc6c([H])c([H])c(F)c([H])c6F)c([H])c5[H])c(C(=O)N([H])[H])c4N([H])[H])C3([H])[H])c(N=C(C([H])([H])[H])C([H])([H])[H])c2[H])C1([H])[H]

$$$$
13:0:0
     RDKit          3D

 94103  0  0  1  0  0  0  0  0999 V2000
  -29.8310  -24.4440   21.5820 C   0  0  0  0  0  3  0  0  0  0  0  0
  -30.5010  -23.5010   22.2640 C   0  0  0  0  0  3  0  0  0  0  0  0
  -28.9950  -24.1260   20.4580 C   0  0  0  0  0  0  0  0  0  0  0  0
  -30.4770  -22.0690   21.9730 C   0  0  0  0  0  0  0  0  0  0  0  0
  -28.3220  -25.1410   19.8170 C   0  0  0  0  0  3  0  0  0  0  0  0
  -28.9390  -22.6060   20.0630 C   0  0  0  0  0  2  0  0  0  0  0  0
  -29.7930  -21.6370   20.8630 N   0  0  0  0  0  0  0  0  0  0  0  0
  -31.0640  -21.2880   22.7310 O   0  0  0  0  0  0  0  0  0  0  0  0
  -31.0200  -19.4170   20.5230 C   0  0  0  0  0  3  0  0  0  0  0  0
  -31.0490  -17.9880   20.4560 C   0  0  0  0  0  3  0  0  0  0  0  0
  -28.6210  -19.4040   20.4780 C   0  0  0  0  0  3  0  0  0  0  0  0
  -29.8080  -20.1770   20.5810 C   0  0  0  0  0  0  0  0  0  0  0  0
  -29.8540  -17.2230   20.4350 C   0  0  0  0  0  0  0  0  0  0  0  0
  -28.6460  -17.9760   20.4190 C   0  0  0  0  0  0  0  0  0  0  0  0
  -27.4730  -17.3000   20.3720 F   0  0  0  0  0  0  0  0  0  0  0  0
  -30.5660  -14.7160   20.1400 C   0  0  0  0  0  0  0  0  0  0  0  0
  -30.3230  -12.4900   19.0470 C   0  0  0  0  0  2  0  0  0  0  0  0
  -29.3280  -12.6380   17.8740 C   0  0  0  0  0  2  0  0  0  0  0  0
  -27.8730  -12.4720   18.3560 C   0  0  0  0  0  2  0  0  0  0  0  0
  -27.5640  -13.3130   19.6230 C   0  0  0  0  0  3  0  0  0  0  0  0
  -28.6670  -13.1350   20.6920 C   0  0  0  0  0  2  0  0  0  0  0  0
  -29.9530  -13.4900   20.0690 N   0  0  0  0  0  0  0  0  0  0  0  0
  -31.7230  -14.8770   19.7410 O   0  0  0  0  0  0  0  0  0  0  0  0
  -29.7450  -15.7600   20.4800 N   0  0  0  0  0  0  0  0  0  0  0  0
  -28.8170  -15.4500   20.7240 H   0  0  0  0  0  0  0  0  0  0  0  0
  -25.1980  -13.9060   20.4350 C   0  0  0  0  0  0  0  0  0  0  0  0
  -24.1440  -13.1280   20.8310 C   0  0  0  0  0  0  0  0  0  0  0  0
  -24.6040  -11.7790   20.7680 C   0  0  0  0  0  0  0  0  0  0  0  0
  -26.2340  -13.0280   20.1560 N   0  0  0  0  0  0  0  0  0  0  0  0
  -25.8830  -11.7410   20.4160 N   0  0  0  0  0  0  0  0  0  0  0  0
  -23.8820  -10.5150   20.9690 C   0  0  0  0  0  0  0  0  0  0  0  0
  -24.3280   -9.5480   21.8970 C   0  0  0  0  0  3  0  0  0  0  0  0
  -23.6060   -8.3500   22.0850 C   0  0  0  0  0  3  0  0  0  0  0  0
  -22.4230   -8.1110   21.3460 C   0  0  0  0  0  0  0  0  0  0  0  0
  -21.9960   -9.0660   20.4080 C   0  0  0  0  0  3  0  0  0  0  0  0
  -22.7190  -10.2560   20.2170 C   0  0  0  0  0  3  0  0  0  0  0  0
  -21.6710   -6.9650   21.4430 O   0  0  0  0  0  0  0  0  0  0  0  0
  -21.6180   -6.2360   22.6040 C   0  0  0  0  0  0  0  0  0  0  0  0
  -21.1730   -6.8020   23.8180 C   0  0  0  0  0  3  0  0  0  0  0  0
  -21.0670   -5.9990   24.9720 C   0  0  0  0  0  3  0  0  0  0  0  0
  -21.3950   -4.6320   24.9110 C   0  0  0  0  0  0  0  0  0  0  0  0
  -21.8340   -4.0660   23.7010 C   0  0  0  0  0  3  0  0  0  0  0  0
  -21.9410   -4.8660   22.5510 C   0  0  0  0  0  0  0  0  0  0  0  0
  -22.3440   -4.3100   21.3820 F   0  0  0  0  0  0  0  0  0  0  0  0
  -21.2860   -3.8590   26.0180 F   0  0  0  0  0  0  0  0  0  0  0  0
  -22.7580  -13.6050   21.1590 C   0  0  0  0  0  0  0  0  0  0  0  0
  -22.0620  -12.9020   22.0440 N   0  0  0  0  0  0  0  0  0  0  0  0
  -22.3020  -14.6360   20.6650 O   0  0  0  0  0  0  0  0  0  0  0  0
  -22.4440  -12.0680   22.4660 H   0  0  0  0  0  0  0  0  0  0  0  0
  -21.1330  -13.2020   22.3050 H   0  0  0  0  0  0  0  0  0  0  0  0
  -25.3520  -15.2790   20.2760 N   0  0  0  0  0  0  0  0  0  0  0  0
  -24.5900  -15.9210   20.4590 H   0  0  0  0  0  0  0  0  0  0  0  0
  -26.2090  -15.7600   20.0270 H   0  0  0  0  0  0  0  0  0  0  0  0
  -28.3790  -26.5280   20.1080 O   0  0  0  0  0  0  0  0  0  0  0  0
  -24.6620  -31.8860   23.2240 C   0  0  0  0  0  0  0  0  0  0  0  0
  -27.2380  -27.3540   20.0820 C   0  0  0  0  0  0  0  0  0  0  0  0
  -23.4350  -30.5020   21.5890 C   0  0  0  0  0  3  0  0  0  0  0  0
  -24.8640  -28.9660   20.1280 C   0  0  0  0  0  0  0  0  0  0  0  0
  -25.9710  -30.8230   21.3710 C   0  0  0  0  0  2  0  0  0  0  0  0
  -26.0410  -29.4490   20.7110 C   0  0  0  0  0  0  0  0  0  0  0  0
  -27.2260  -28.6540   20.6810 C   0  0  0  0  0  3  0  0  0  0  0  0
  -26.0310  -26.9260   19.4800 C   0  0  0  0  0  3  0  0  0  0  0  0
  -24.8620  -27.7090   19.5060 C   0  0  0  0  0  3  0  0  0  0  0  0
  -23.6270  -29.8390   20.2000 C   0  0  0  0  0  2  0  0  0  0  0  0
  -24.7090  -31.0870   22.1180 N   0  0  0  0  0  0  0  0  0  0  0  0
  -23.5860  -32.1590   23.7760 O   0  0  0  0  0  0  0  0  0  0  0  0
  -22.7860  -29.4780   22.5490 C   0  0  0  0  0  0  0  0  0  0  0  0
  -21.4590  -29.2950   22.4340 N   0  0  0  0  0  0  0  0  0  0  0  0
  -23.4740  -28.8510   23.3580 O   0  0  0  0  0  0  0  0  0  0  0  0
  -20.9640  -29.8520   21.7520 H   0  0  0  0  0  0  0  0  0  0  0  0
  -18.0920  -28.0770   22.9500 C   0  0  0  0  0  0  0  0  0  0  0  0
  -20.6510  -28.3520   23.2060 C   0  0  0  0  0  3  0  0  0  0  0  0
  -20.7580  -26.9220   22.6270 C   0  0  0  0  0  2  0  0  0  0  0  0
  -19.6520  -26.5960   21.6180 C   0  0  0  0  0  2  0  0  0  0  0  0
  -18.2720  -26.7310   22.2710 C   0  0  0  0  0  2  0  0  0  0  0  0
  -19.2090  -28.8450   23.3750 C   0  0  0  0  0  0  0  0  0  0  0  0
  -18.9850  -30.1040   23.9730 C   0  0  0  0  0  3  0  0  0  0  0  0
  -17.6800  -30.5970   24.1480 C   0  0  0  0  0  3  0  0  0  0  0  0
  -16.5760  -29.8260   23.7390 C   0  0  0  0  0  3  0  0  0  0  0  0
  -16.7840  -28.5680   23.1460 C   0  0  0  0  0  3  0  0  0  0  0  0
  -25.9550  -32.5130   23.8320 C   0  0  0  0  0  3  0  0  0  0  0  0
  -25.6450  -33.9040   24.1940 N   0  0  0  0  0  0  0  0  0  0  0  0
  -25.9330  -34.9700   23.4360 C   0  0  0  0  0  0  0  0  0  0  0  0
  -26.5560  -34.8870   22.3740 O   0  0  0  0  0  0  0  0  0  0  0  0
  -25.0840  -34.0410   25.0230 H   0  0  0  0  0  0  0  0  0  0  0  0
  -24.1600  -36.7410   23.2010 C   0  0  0  0  0  1  0  0  0  0  0  0
  -25.4530  -36.3480   23.9350 C   0  0  0  0  0  3  0  0  0  0  0  0
  -27.6170  -37.2600   24.6490 C   0  0  0  0  0  1  0  0  0  0  0  0
  -26.4610  -37.4170   23.7700 N   0  0  0  0  0  0  0  0  0  0  0  0
  -26.0500  -38.3300   23.9460 H   0  0  0  0  0  0  0  0  0  0  0  0
  -26.4970  -31.7200   25.0850 C   0  0  1  0  0  0  0  0  0  0  0  0
  -25.4250  -31.4570   26.1670 C   0  0  0  0  0  1  0  0  0  0  0  0
  -27.0810  -30.3530   24.6590 C   0  0  0  0  0  1  0  0  0  0  0  0
  -27.6560  -32.5080   25.7410 C   0  0  0  0  0  1  0  0  0  0  0  0
  1  2  2  0
  3  1  1  0
  4  2  1  0
  4  8  2  0
  5 54  1  0
  5  3  2  0
  6  3  1  0
  6  7  1  0
  7  4  1  0
  9 12  1  0
 10  9  2  0
 11 12  2  0
 12  7  1  0
 13 10  1  0
 13 24  1  0
 14 13  2  0
 14 11  1  0
 15 14  1  0
 16 24  1  0
 17 22  1  0
 18 19  1  0
 18 17  1  0
 20 19  1  0
 20 29  1  0
 20 21  1  0
 22 16  1  0
 22 21  1  0
 23 16  2  0
 24 25  1  0
 26 27  2  0
 27 46  1  0
 28 27  1  0
 28 31  1  0
 29 30  1  0
 29 26  1  0
 30 28  2  0
 31 32  1  0
 32 33  2  0
 34 37  1  0
 34 33  1  0
 35 34  2  0
 36 35  1  0
 36 31  2  0
 37 38  1  0
 38 39  1  0
 39 40  2  0
 41 40  1  0
 41 45  1  0
 42 41  2  0
 43 38  2  0
 43 42  1  0
 44 43  1  0
 46 47  1  0
 47 50  1  0
 47 49  1  0
 48 46  2  0
 51 26  1  0
 51 52  1  0
 53 51  1  0
 55 66  2  0
 56 54  1  0
 56 61  1  0
 57 65  1  0
 57 67  1  0
 58 64  1  0
 58 60  1  0
 59 65  1  0
 60 59  1  0
 61 60  2  0
 62 63  1  0
 62 56  2  0
 63 58  2  0
 64 57  1  0
 65 55  1  0
 67 69  2  0
 68 67  1  0
 70 68  1  0
 71 80  2  0
 71 76  1  0
 72 68  1  0
 72 76  1  0
 73 72  1  0
 74 75  1  0
 74 73  1  0
 75 71  1  0
 76 77  2  0
 77 78  1  0
 79 78  2  0
 80 79  1  0
 81 55  1  0
 81 82  1  0
 81 91  1  0
 82 85  1  0
 83 87  1  0
 83 82  1  0
 84 83  2  0
 87 86  1  0
 89 87  1  0
 89 90  1  0
 89 88  1  0
 91 94  1  1
 91 92  1  0
 93 91  1  0
M  ISO  4   5 101  16 100  24 100  54 101
M  END
>  <TORSDO>  (14) 
F 17

>  <SCORE>  (14) 
-15.551

>  <name>  (14) 
13

>  <ligand_id>  (14) 
13

>  <original_smiles>  (14) 
[H]C(Oc1c([H])c([H])c2c(c1[H])C([H])([H])N(C(=O)C([H])(N([H])C(=O)C([H])(N([H])C([H])([H])[H])C([H])([H])[H])C(C([H])([H])[H])(C([H])([H])[H])C([H])([H])[H])C([H])(C(=O)N([H])C1([H])c3c([H])c([H])c([H])c([H])c3C([H])([H])C([H])([H])C1([H])[H])C2([H])[H])=C1C([H])=C([H])C(=O)N(c2c([H])c([H])c(N([H])C(=O)N3C([H])([H])C([H])([H])C([H])([H])C([H])(n4nc(-c5c([H])c([H])c(Oc6c([H])c([H])c(F)c([H])c6F)c([H])c5[H])c(C(=O)N([H])[H])c4N([H])[H])C3([H])[H])c(F)c2[H])C1([H])[H]

>  <smiles>  (14) 
[H]C(Oc1c([H])c([H])c2c(c1[H])C([H])([H])N(C(=O)C([H])(N([H])C(=O)C([H])(N([H])C([H])([H])[H])C([H])([H])[H])C(C([H])([H])[H])(C([H])([H])[H])C([H])([H])[H])C([H])(C(=O)N([H])C1([H])c3c([H])c([H])c([H])c([H])c3C([H])([H])C([H])([H])C1([H])[H])C2([H])[H])=C1C([H])=C([H])C(=O)N(c2c([H])c([H])c(N([H])C(=O)N3C([H])([H])C([H])([H])C([H])([H])C([H])(n4nc(-c5c([H])c([H])c(Oc6c([H])c([H])c(F)c([H])c6F)c([H])c5[H])c(C(=O)N([H])[H])c4N([H])[H])C3([H])[H])c(F)c2[H])C1([H])[H]

$$$$
14:0:0
     RDKit          3D

 92101  0  0  1  0  0  0  0  0999 V2000
  -28.6590  -23.7020   20.0630 C   0  0  0  0  0  0  0  0  0  0  0  0
  -28.4620  -22.4000   19.4000 C   0  0  0  0  0  0  0  0  0  0  0  0
  -28.1670  -24.9700   19.7030 C   0  0  0  0  0  3  0  0  0  0  0  0
  -29.5550  -22.9720   21.0960 C   0  0  0  0  0  2  0  0  0  0  0  0
  -29.1840  -21.6910   20.3970 N   0  0  0  0  0  0  0  0  0  0  0  0
  -27.9530  -22.1280   18.3320 O   0  0  0  0  0  0  0  0  0  0  0  0
  -32.1300  -19.2930   20.9510 C   0  0  0  0  0  3  0  0  0  0  0  0
  -31.6150  -17.9870   20.8580 C   0  0  0  0  0  3  0  0  0  0  0  0
  -31.3130  -20.4340   20.8010 C   0  0  0  0  0  3  0  0  0  0  0  0
  -29.4510  -18.9880   20.4310 C   0  0  0  0  0  3  0  0  0  0  0  0
  -30.2500  -17.7540   20.5960 C   0  0  0  0  0  0  0  0  0  0  0  0
  -29.9240  -20.3800   20.5300 C   0  0  0  0  0  0  0  0  0  0  0  0
  -29.6820  -16.2720   20.6140 C   0  0  0  0  0  0  0  0  0  0  0  0
  -28.4440  -16.1950   20.8640 N   0  0  0  0  0  0  0  0  0  0  0  0
  -28.1590  -15.2250   20.8760 H   0  0  0  0  0  0  0  0  0  0  0  0
  -30.5580  -14.9000   20.3170 C   0  0  0  0  0  0  0  0  0  0  0  0
  -30.3980  -12.6000   19.3000 C   0  0  0  0  0  2  0  0  0  0  0  0
  -29.4390  -12.6280   18.0850 C   0  0  0  0  0  2  0  0  0  0  0  0
  -27.9770  -12.4120   18.5280 C   0  0  0  0  0  2  0  0  0  0  0  0
  -27.6000  -13.2870   19.7490 C   0  0  0  0  0  3  0  0  0  0  0  0
  -28.6790  -13.2020   20.8540 C   0  0  0  0  0  2  0  0  0  0  0  0
  -29.9510  -13.6450   20.2620 N   0  0  0  0  0  0  0  0  0  0  0  0
  -31.7410  -14.9780   19.9680 O   0  0  0  0  0  0  0  0  0  0  0  0
  -25.2240  -13.8640   20.5180 C   0  0  0  0  0  0  0  0  0  0  0  0
  -24.1670  -13.0810   20.8940 C   0  0  0  0  0  0  0  0  0  0  0  0
  -24.6400  -11.7340   20.8510 C   0  0  0  0  0  0  0  0  0  0  0  0
  -26.2680  -12.9900   20.2610 N   0  0  0  0  0  0  0  0  0  0  0  0
  -25.9270  -11.7050   20.5260 N   0  0  0  0  0  0  0  0  0  0  0  0
  -23.9260  -10.4660   21.0440 C   0  0  0  0  0  0  0  0  0  0  0  0
  -24.3760   -9.4990   21.9680 C   0  0  0  0  0  3  0  0  0  0  0  0
  -23.6610   -8.2940   22.1480 C   0  0  0  0  0  3  0  0  0  0  0  0
  -22.4820   -8.0500   21.4030 C   0  0  0  0  0  0  0  0  0  0  0  0
  -22.0520   -9.0080   20.4680 C   0  0  0  0  0  3  0  0  0  0  0  0
  -22.7670  -10.2030   20.2860 C   0  0  0  0  0  3  0  0  0  0  0  0
  -21.7370   -6.9010   21.4930 O   0  0  0  0  0  0  0  0  0  0  0  0
  -21.7020   -6.1540   22.6440 C   0  0  0  0  0  0  0  0  0  0  0  0
  -21.2640   -6.6970   23.8710 C   0  0  0  0  0  3  0  0  0  0  0  0
  -21.1760   -5.8750   25.0120 C   0  0  0  0  0  3  0  0  0  0  0  0
  -21.5190   -4.5120   24.9270 C   0  0  0  0  0  0  0  0  0  0  0  0
  -21.9510   -3.9700   23.7040 C   0  0  0  0  0  3  0  0  0  0  0  0
  -22.0390   -4.7880   22.5650 C   0  0  0  0  0  0  0  0  0  0  0  0
  -22.4370   -4.2550   21.3850 F   0  0  0  0  0  0  0  0  0  0  0  0
  -21.4270   -3.7200   26.0210 F   0  0  0  0  0  0  0  0  0  0  0  0
  -22.7700  -13.5480   21.1870 C   0  0  0  0  0  0  0  0  0  0  0  0
  -22.0620  -12.8460   22.0640 N   0  0  0  0  0  0  0  0  0  0  0  0
  -22.3170  -14.5700   20.6730 O   0  0  0  0  0  0  0  0  0  0  0  0
  -22.4430  -12.0200   22.5010 H   0  0  0  0  0  0  0  0  0  0  0  0
  -21.1250  -13.1400   22.3040 H   0  0  0  0  0  0  0  0  0  0  0  0
  -25.3760  -15.2390   20.3580 N   0  0  0  0  0  0  0  0  0  0  0  0
  -24.6150  -15.8850   20.5370 H   0  0  0  0  0  0  0  0  0  0  0  0
  -26.2550  -15.7130   20.1720 H   0  0  0  0  0  0  0  0  0  0  0  0
  -28.2870  -26.3140   20.2190 O   0  0  0  0  0  0  0  0  0  0  0  0
  -24.6310  -31.8940   23.2400 C   0  0  0  0  0  0  0  0  0  0  0  0
  -27.2060  -27.2540   20.1510 C   0  0  0  0  0  0  0  0  0  0  0  0
  -23.4210  -30.5100   21.5980 C   0  0  0  0  0  3  0  0  0  0  0  0
  -24.8620  -28.9580   20.1580 C   0  0  0  0  0  0  0  0  0  0  0  0
  -25.9720  -30.7920   21.4200 C   0  0  0  0  0  2  0  0  0  0  0  0
  -26.0430  -29.4100   20.7590 C   0  0  0  0  0  0  0  0  0  0  0  0
  -27.2140  -28.5710   20.7470 C   0  0  0  0  0  3  0  0  0  0  0  0
  -25.9860  -26.8870   19.5310 C   0  0  0  0  0  3  0  0  0  0  0  0
  -24.8430  -27.7060   19.5330 C   0  0  0  0  0  3  0  0  0  0  0  0
  -23.6330  -29.8460   20.2140 C   0  0  0  0  0  2  0  0  0  0  0  0
  -24.6950  -31.0850   22.1410 N   0  0  0  0  0  0  0  0  0  0  0  0
  -23.5480  -32.1750   23.7750 O   0  0  0  0  0  0  0  0  0  0  0  0
  -22.7510  -29.4930   22.5540 C   0  0  0  0  0  0  0  0  0  0  0  0
  -21.4240  -29.3170   22.4260 N   0  0  0  0  0  0  0  0  0  0  0  0
  -23.4260  -28.8650   23.3740 O   0  0  0  0  0  0  0  0  0  0  0  0
  -20.9370  -29.8750   21.7390 H   0  0  0  0  0  0  0  0  0  0  0  0
  -18.0450  -28.1150   22.9240 C   0  0  0  0  0  0  0  0  0  0  0  0
  -20.6040  -28.3770   23.1940 C   0  0  0  0  0  3  0  0  0  0  0  0
  -20.7060  -26.9460   22.6160 C   0  0  0  0  0  2  0  0  0  0  0  0
  -19.6050  -26.6250   21.6010 C   0  0  0  0  0  2  0  0  0  0  0  0
  -18.2240  -26.7670   22.2450 C   0  0  0  0  0  2  0  0  0  0  0  0
  -19.1630  -28.8780   23.3560 C   0  0  0  0  0  0  0  0  0  0  0  0
  -18.9420  -30.1370   23.9520 C   0  0  0  0  0  3  0  0  0  0  0  0
  -17.6360  -30.6360   24.1200 C   0  0  0  0  0  3  0  0  0  0  0  0
  -16.5330  -29.8710   23.7040 C   0  0  0  0  0  3  0  0  0  0  0  0
  -16.7380  -28.6120   23.1110 C   0  0  0  0  0  3  0  0  0  0  0  0
  -25.9140  -32.5230   23.8630 C   0  0  0  0  0  3  0  0  0  0  0  0
  -25.6070  -33.9210   24.2000 N   0  0  0  0  0  0  0  0  0  0  0  0
  -25.9230  -34.9760   23.4370 C   0  0  0  0  0  0  0  0  0  0  0  0
  -26.5710  -34.8750   22.3920 O   0  0  0  0  0  0  0  0  0  0  0  0
  -25.0280  -34.0720   25.0120 H   0  0  0  0  0  0  0  0  0  0  0  0
  -24.1820  -36.7670   23.1310 C   0  0  0  0  0  1  0  0  0  0  0  0
  -25.4460  -36.3650   23.9070 C   0  0  0  0  0  3  0  0  0  0  0  0
  -27.5980  -37.2590   24.6810 C   0  0  0  0  0  1  0  0  0  0  0  0
  -26.4730  -37.4200   23.7640 N   0  0  0  0  0  0  0  0  0  0  0  0
  -26.0670  -38.3400   23.9160 H   0  0  0  0  0  0  0  0  0  0  0  0
  -26.4260  -31.7470   25.1390 C   0  0  1  0  0  0  0  0  0  0  0  0
  -25.3320  -31.5130   26.2070 C   0  0  0  0  0  1  0  0  0  0  0  0
  -27.0040  -30.3670   24.7490 C   0  0  0  0  0  1  0  0  0  0  0  0
  -27.5800  -32.5360   25.8020 C   0  0  0  0  0  1  0  0  0  0  0  0
  1  4  1  0
  2  1  1  0
  2  5  1  0
  3  1  2  0
  3 52  1  0
  5 12  1  0
  5  4  1  0
  6  2  2  0
  8  7  1  0
  9  7  2  0
 10 12  2  0
 10 11  1  0
 11 13  1  0
 11  8  2  0
 12  9  1  0
 13 14  2  0
 14 15  1  0
 16 13  1  0
 17 22  1  0
 18 19  1  0
 18 17  1  0
 20 19  1  0
 20 27  1  0
 20 21  1  0
 22 16  1  0
 22 21  1  0
 23 16  2  0
 24 25  2  0
 25 44  1  0
 26 25  1  0
 26 29  1  0
 27 24  1  0
 27 28  1  0
 28 26  2  0
 29 30  1  0
 30 31  2  0
 32 35  1  0
 32 31  1  0
 33 32  2  0
 34 33  1  0
 34 29  2  0
 35 36  1  0
 36 37  1  0
 37 38  2  0
 39 38  1  0
 39 43  1  0
 40 39  2  0
 41 36  2  0
 41 40  1  0
 42 41  1  0
 44 45  1  0
 45 48  1  0
 45 47  1  0
 46 44  2  0
 49 24  1  0
 49 50  1  0
 51 49  1  0
 53 64  2  0
 54 52  1  0
 54 59  1  0
 55 63  1  0
 55 65  1  0
 56 62  1  0
 56 58  1  0
 57 63  1  0
 58 57  1  0
 59 58  2  0
 60 61  1  0
 60 54  2  0
 61 56  2  0
 62 55  1  0
 63 53  1  0
 65 67  2  0
 66 65  1  0
 68 66  1  0
 69 78  2  0
 69 74  1  0
 70 66  1  0
 70 74  1  0
 71 70  1  0
 72 73  1  0
 72 71  1  0
 73 69  1  0
 74 75  2  0
 75 76  1  0
 77 76  2  0
 78 77  1  0
 79 53  1  0
 79 80  1  0
 79 89  1  0
 80 83  1  0
 81 85  1  0
 81 80  1  0
 82 81  2  0
 85 84  1  0
 87 85  1  0
 87 88  1  0
 87 86  1  0
 89 92  1  1
 89 90  1  0
 91 89  1  0
M  ISO  4   3 101  13 100  16 100  52 101
M  END
>  <TORSDO>  (15) 
F 18

>  <SCORE>  (15) 
-14.920

>  <name>  (15) 
14

>  <ligand_id>  (15) 
14

>  <original_smiles>  (15) 
[H]N=C(C(=O)N1C([H])([H])C([H])([H])C([H])([H])C([H])(n2nc(-c3c([H])c([H])c(Oc4c([H])c([H])c(F)c([H])c4F)c([H])c3[H])c(C(=O)N([H])[H])c2N([H])[H])C1([H])[H])c1c([H])c([H])c([H])c(N2C(=O)C(=C([H])Oc3c([H])c([H])c4c(c3[H])C([H])([H])N(C(=O)C([H])(N([H])C(=O)C([H])(N([H])C([H])([H])[H])C([H])([H])[H])C(C([H])([H])[H])(C([H])([H])[H])C([H])([H])[H])C([H])(C(=O)N([H])C3([H])c5c([H])c([H])c([H])c([H])c5C([H])([H])C([H])([H])C3([H])[H])C4([H])[H])C2([H])[H])c1[H]

>  <smiles>  (15) 
[H]N=C(C(=O)N1C([H])([H])C([H])([H])C([H])([H])C([H])(n2nc(-c3c([H])c([H])c(Oc4c([H])c([H])c(F)c([H])c4F)c([H])c3[H])c(C(=O)N([H])[H])c2N([H])[H])C1([H])[H])c1c([H])c([H])c([H])c(N2C(=O)C(=C([H])Oc3c([H])c([H])c4c(c3[H])C([H])([H])N(C(=O)C([H])(N([H])C(=O)C([H])(N([H])C([H])([H])[H])C([H])([H])[H])C(C([H])([H])[H])(C([H])([H])[H])C([H])([H])[H])C([H])(C(=O)N([H])C3([H])c5c([H])c([H])c([H])c([H])c5C([H])([H])C([H])([H])C3([H])[H])C4([H])[H])C2([H])[H])c1[H]

$$$$
15:0:0
     RDKit          3D

 91100  0  0  1  0  0  0  0  0999 V2000
  -28.5110  -23.7990   20.4680 C   0  0  0  0  0  0  0  0  0  0  0  0
  -28.0130  -22.5840   21.1040 C   0  0  0  0  0  0  0  0  0  0  0  0
  -28.0210  -25.0950   20.6360 C   0  0  0  0  0  3  0  0  0  0  0  0
  -29.5720  -22.9310   19.7250 C   0  0  0  0  0  2  0  0  0  0  0  0
  -28.9690  -21.7740   20.4560 N   0  0  0  0  0  0  0  0  0  0  0  0
  -27.0990  -22.4150   21.8830 O   0  0  0  0  0  0  0  0  0  0  0  0
  -28.5080  -19.3680   21.0940 C   0  0  0  0  0  3  0  0  0  0  0  0
  -30.3780  -19.6550   19.7010 C   0  0  0  0  0  3  0  0  0  0  0  0
  -28.7190  -17.9550   21.1100 C   0  0  0  0  0  3  0  0  0  0  0  0
  -30.6160  -18.2250   19.7090 C   0  0  0  0  0  3  0  0  0  0  0  0
  -29.3070  -20.3190   20.3910 C   0  0  0  0  0  0  0  0  0  0  0  0
  -29.7800  -17.3120   20.4200 C   0  0  0  0  0  0  0  0  0  0  0  0
  -30.6570  -14.8130   20.0010 C   0  0  0  0  0  0  0  0  0  0  0  0
  -30.4620  -12.5560   18.9300 C   0  0  0  0  0  2  0  0  0  0  0  0
  -29.4400  -12.6530   17.7730 C   0  0  0  0  0  2  0  0  0  0  0  0
  -27.9980  -12.4580   18.2880 C   0  0  0  0  0  2  0  0  0  0  0  0
  -27.7000  -13.3050   19.5530 C   0  0  0  0  0  3  0  0  0  0  0  0
  -28.8270  -13.1590   20.6010 C   0  0  0  0  0  2  0  0  0  0  0  0
  -30.0860  -13.5580   19.9540 N   0  0  0  0  0  0  0  0  0  0  0  0
  -31.7810  -15.0070   19.5300 O   0  0  0  0  0  0  0  0  0  0  0  0
  -29.8440  -15.8270   20.4830 N   0  0  0  0  0  0  0  0  0  0  0  0
  -29.0310  -15.4240   20.9240 H   0  0  0  0  0  0  0  0  0  0  0  0
  -25.3600  -13.8760   20.4420 C   0  0  0  0  0  0  0  0  0  0  0  0
  -24.3180  -13.0920   20.8540 C   0  0  0  0  0  0  0  0  0  0  0  0
  -24.7750  -11.7420   20.7490 C   0  0  0  0  0  0  0  0  0  0  0  0
  -26.3850  -13.0050   20.1130 N   0  0  0  0  0  0  0  0  0  0  0  0
  -26.0430  -11.7140   20.3570 N   0  0  0  0  0  0  0  0  0  0  0  0
  -24.0600  -10.4730   20.9440 C   0  0  0  0  0  0  0  0  0  0  0  0
  -24.5080   -9.5080   21.8710 C   0  0  0  0  0  3  0  0  0  0  0  0
  -23.7920   -8.3040   22.0530 C   0  0  0  0  0  3  0  0  0  0  0  0
  -22.6140   -8.0580   21.3070 C   0  0  0  0  0  0  0  0  0  0  0  0
  -22.1860   -9.0140   20.3690 C   0  0  0  0  0  3  0  0  0  0  0  0
  -22.9020  -10.2080   20.1850 C   0  0  0  0  0  3  0  0  0  0  0  0
  -21.8700   -6.9080   21.3990 O   0  0  0  0  0  0  0  0  0  0  0  0
  -21.7770   -6.2020   22.5720 C   0  0  0  0  0  0  0  0  0  0  0  0
  -21.2940   -6.7920   23.7600 C   0  0  0  0  0  3  0  0  0  0  0  0
  -21.1510   -6.0110   24.9260 C   0  0  0  0  0  3  0  0  0  0  0  0
  -21.4780   -4.6430   24.9030 C   0  0  0  0  0  0  0  0  0  0  0  0
  -21.9540   -4.0530   23.7180 C   0  0  0  0  0  3  0  0  0  0  0  0
  -22.1000   -4.8290   22.5560 C   0  0  0  0  0  0  0  0  0  0  0  0
  -22.5390   -4.2510   21.4120 F   0  0  0  0  0  0  0  0  0  0  0  0
  -21.3330   -3.8910   26.0190 F   0  0  0  0  0  0  0  0  0  0  0  0
  -22.9410  -13.5590   21.2300 C   0  0  0  0  0  0  0  0  0  0  0  0
  -22.2700  -12.8360   22.1200 N   0  0  0  0  0  0  0  0  0  0  0  0
  -22.4720  -14.5980   20.7700 O   0  0  0  0  0  0  0  0  0  0  0  0
  -22.6640  -11.9940   22.5130 H   0  0  0  0  0  0  0  0  0  0  0  0
  -21.3490  -13.1290   22.4130 H   0  0  0  0  0  0  0  0  0  0  0  0
  -25.5150  -15.2530   20.2980 N   0  0  0  0  0  0  0  0  0  0  0  0
  -24.7520  -15.8990   20.4690 H   0  0  0  0  0  0  0  0  0  0  0  0
  -26.3280  -15.7000   19.8940 H   0  0  0  0  0  0  0  0  0  0  0  0
  -28.3410  -26.3870   20.1200 O   0  0  0  0  0  0  0  0  0  0  0  0
  -24.6780  -31.8800   23.1900 C   0  0  0  0  0  0  0  0  0  0  0  0
  -27.2810  -27.3220   20.0840 C   0  0  0  0  0  0  0  0  0  0  0  0
  -23.4700  -30.4900   21.5480 C   0  0  0  0  0  3  0  0  0  0  0  0
  -24.9190  -28.9560   20.0960 C   0  0  0  0  0  0  0  0  0  0  0  0
  -26.0100  -30.8090   21.3540 C   0  0  0  0  0  2  0  0  0  0  0  0
  -26.0920  -29.4330   20.6940 C   0  0  0  0  0  0  0  0  0  0  0  0
  -27.2790  -28.6280   20.6800 C   0  0  0  0  0  3  0  0  0  0  0  0
  -26.0860  -26.9160   19.4500 C   0  0  0  0  0  3  0  0  0  0  0  0
  -24.9200  -27.7040   19.4620 C   0  0  0  0  0  3  0  0  0  0  0  0
  -23.6790  -29.8280   20.1610 C   0  0  0  0  0  2  0  0  0  0  0  0
  -24.7390  -31.0780   22.0870 N   0  0  0  0  0  0  0  0  0  0  0  0
  -23.5970  -32.1500   23.7330 O   0  0  0  0  0  0  0  0  0  0  0  0
  -22.8140  -29.4650   22.5060 C   0  0  0  0  0  0  0  0  0  0  0  0
  -21.4870  -29.2850   22.3870 N   0  0  0  0  0  0  0  0  0  0  0  0
  -23.4990  -28.8360   23.3160 O   0  0  0  0  0  0  0  0  0  0  0  0
  -20.9920  -29.8440   21.7070 H   0  0  0  0  0  0  0  0  0  0  0  0
  -18.1180  -28.0670   22.9030 C   0  0  0  0  0  0  0  0  0  0  0  0
  -20.6770  -28.3380   23.1560 C   0  0  0  0  0  3  0  0  0  0  0  0
  -20.7820  -26.9110   22.5720 C   0  0  0  0  0  2  0  0  0  0  0  0
  -19.6740  -26.5890   21.5620 C   0  0  0  0  0  2  0  0  0  0  0  0
  -18.2970  -26.7230   22.2160 C   0  0  0  0  0  2  0  0  0  0  0  0
  -19.2360  -28.8320   23.3300 C   0  0  0  0  0  0  0  0  0  0  0  0
  -19.0150  -30.0900   23.9330 C   0  0  0  0  0  3  0  0  0  0  0  0
  -17.7090  -30.5830   24.1110 C   0  0  0  0  0  3  0  0  0  0  0  0
  -16.6050  -29.8150   23.6990 C   0  0  0  0  0  3  0  0  0  0  0  0
  -16.8110  -28.5590   23.1000 C   0  0  0  0  0  3  0  0  0  0  0  0
  -25.9610  -32.5140   23.8090 C   0  0  0  0  0  3  0  0  0  0  0  0
  -25.6480  -33.9090   24.1520 N   0  0  0  0  0  0  0  0  0  0  0  0
  -25.9720  -34.9700   23.4020 C   0  0  0  0  0  0  0  0  0  0  0  0
  -26.6350  -34.8790   22.3660 O   0  0  0  0  0  0  0  0  0  0  0  0
  -25.0570  -34.0530   24.9580 H   0  0  0  0  0  0  0  0  0  0  0  0
  -24.2380  -36.7640   23.0750 C   0  0  0  0  0  1  0  0  0  0  0  0
  -25.4850  -36.3530   23.8750 C   0  0  0  0  0  3  0  0  0  0  0  0
  -27.6210  -37.2360   24.7050 C   0  0  0  0  0  1  0  0  0  0  0  0
  -26.5140  -37.4100   23.7680 N   0  0  0  0  0  0  0  0  0  0  0  0
  -26.1070  -38.3280   23.9230 H   0  0  0  0  0  0  0  0  0  0  0  0
  -26.4880  -31.7360   25.0770 C   0  0  1  0  0  0  0  0  0  0  0  0
  -25.4020  -31.4890   26.1510 C   0  0  0  0  0  1  0  0  0  0  0  0
  -27.0730  -30.3620   24.6750 C   0  0  0  0  0  1  0  0  0  0  0  0
  -27.6400  -32.5300   25.7370 C   0  0  0  0  0  1  0  0  0  0  0  0
  1  3  2  0
  1  2  1  0
  2  6  2  0
  4  5  1  0
  4  1  1  0
  5  2  1  0
  7  9  1  0
  8 10  2  0
  8 11  1  0
 10 12  1  0
 11  5  1  0
 11  7  2  0
 12 21  1  0
 12  9  2  0
 13 21  1  0
 14 19  1  0
 15 16  1  0
 15 14  1  0
 17 16  1  0
 17 26  1  0
 17 18  1  0
 19 13  1  0
 19 18  1  0
 20 13  2  0
 21 22  1  0
 23 24  2  0
 24 43  1  0
 25 24  1  0
 25 28  1  0
 26 27  1  0
 26 23  1  0
 27 25  2  0
 28 29  1  0
 29 30  2  0
 31 34  1  0
 31 30  1  0
 32 31  2  0
 33 32  1  0
 33 28  2  0
 34 35  1  0
 35 36  1  0
 36 37  2  0
 38 37  1  0
 38 42  1  0
 39 38  2  0
 40 35  2  0
 40 39  1  0
 41 40  1  0
 43 44  1  0
 44 47  1  0
 44 46  1  0
 45 43  2  0
 48 23  1  0
 48 49  1  0
 50 48  1  0
 51  3  1  0
 52 63  2  0
 53 51  1  0
 53 58  1  0
 54 62  1  0
 54 64  1  0
 55 61  1  0
 55 57  1  0
 56 62  1  0
 57 56  1  0
 58 57  2  0
 59 60  1  0
 59 53  2  0
 60 55  2  0
 61 54  1  0
 62 52  1  0
 64 66  2  0
 65 64  1  0
 67 65  1  0
 68 77  2  0
 68 73  1  0
 69 65  1  0
 69 73  1  0
 70 69  1  0
 71 72  1  0
 71 70  1  0
 72 68  1  0
 73 74  2  0
 74 75  1  0
 76 75  2  0
 77 76  1  0
 78 52  1  0
 78 79  1  0
 78 88  1  0
 79 82  1  0
 80 84  1  0
 80 79  1  0
 81 80  2  0
 84 83  1  0
 86 84  1  0
 86 87  1  0
 86 85  1  0
 88 91  1  1
 88 89  1  0
 90 88  1  0
M  ISO  4   3 101  13 100  21 100  51 101
M  END
>  <TORSDO>  (16) 
F 17

>  <SCORE>  (16) 
-13.947

>  <name>  (16) 
15

>  <ligand_id>  (16) 
15

>  <original_smiles>  (16) 
[H]C(Oc1c([H])c([H])c2c(c1[H])C([H])([H])N(C(=O)C([H])(N([H])C(=O)C([H])(N([H])C([H])([H])[H])C([H])([H])[H])C(C([H])([H])[H])(C([H])([H])[H])C([H])([H])[H])C([H])(C(=O)N([H])C1([H])c3c([H])c([H])c([H])c([H])c3C([H])([H])C([H])([H])C1([H])[H])C2([H])[H])=C1C(=O)N(c2c([H])c([H])c(N([H])C(=O)N3C([H])([H])C([H])([H])C([H])([H])C([H])(n4nc(-c5c([H])c([H])c(Oc6c([H])c([H])c(F)c([H])c6F)c([H])c5[H])c(C(=O)N([H])[H])c4N([H])[H])C3([H])[H])c([H])c2[H])C1([H])[H]

>  <smiles>  (16) 
[H]C(Oc1c([H])c([H])c2c(c1[H])C([H])([H])N(C(=O)C([H])(N([H])C(=O)C([H])(N([H])C([H])([H])[H])C([H])([H])[H])C(C([H])([H])[H])(C([H])([H])[H])C([H])([H])[H])C([H])(C(=O)N([H])C1([H])c3c([H])c([H])c([H])c([H])c3C([H])([H])C([H])([H])C1([H])[H])C2([H])[H])=C1C(=O)N(c2c([H])c([H])c(N([H])C(=O)N3C([H])([H])C([H])([H])C([H])([H])C([H])(n4nc(-c5c([H])c([H])c(Oc6c([H])c([H])c(F)c([H])c6F)c([H])c5[H])c(C(=O)N([H])[H])c4N([H])[H])C3([H])[H])c([H])c2[H])C1([H])[H]

$$$$
16:0:0
     RDKit          3D

 95104  0  0  1  0  0  0  0  0999 V2000
  -29.0090  -24.1080   20.6350 C   0  0  0  0  0  0  0  0  0  0  0  0
  -29.9060  -24.4620   21.7300 C   0  0  0  0  0  0  0  0  0  0  0  0
  -28.8980  -22.6270   20.2890 C   0  0  0  0  0  0  0  0  0  0  0  0
  -30.5990  -25.6160   21.7760 C   0  0  0  0  0  2  0  0  0  0  0  0
  -28.2830  -25.0750   19.9550 C   0  0  0  0  0  3  0  0  0  0  0  0
  -30.1120  -23.4230   22.7960 C   0  0  0  0  0  2  0  0  0  0  0  0
  -30.5530  -22.1410   22.0920 C   0  0  0  0  0  2  0  0  0  0  0  0
  -29.6380  -21.6860   21.0210 N   0  0  0  0  0  0  0  0  0  0  0  0
  -28.1650  -22.2410   19.3710 O   0  0  0  0  0  0  0  0  0  0  0  0
  -28.5230  -19.4100   20.5560 C   0  0  0  0  0  3  0  0  0  0  0  0
  -28.5860  -17.9890   20.4000 C   0  0  0  0  0  3  0  0  0  0  0  0
  -30.9570  -18.0360   20.7220 C   0  0  0  0  0  3  0  0  0  0  0  0
  -29.6790  -20.2100   20.7870 C   0  0  0  0  0  0  0  0  0  0  0  0
  -29.8040  -17.2480   20.4710 C   0  0  0  0  0  0  0  0  0  0  0  0
  -30.9000  -19.4590   20.8660 C   0  0  0  0  0  0  0  0  0  0  0  0
  -32.0790  -20.0990   21.0440 F   0  0  0  0  0  0  0  0  0  0  0  0
  -30.5990  -14.7730   20.4800 C   0  0  0  0  0  0  0  0  0  0  0  0
  -30.4470  -12.4460   19.6070 C   0  0  0  0  0  2  0  0  0  0  0  0
  -29.5500  -12.4130   18.3480 C   0  0  0  0  0  2  0  0  0  0  0  0
  -28.0530  -12.3250   18.7210 C   0  0  0  0  0  2  0  0  0  0  0  0
  -27.6330  -13.2460   19.9020 C   0  0  0  0  0  3  0  0  0  0  0  0
  -28.6620  -13.2290   21.0500 C   0  0  0  0  0  2  0  0  0  0  0  0
  -29.9700  -13.5490   20.4640 N   0  0  0  0  0  0  0  0  0  0  0  0
  -31.8290  -14.8310   20.4020 O   0  0  0  0  0  0  0  0  0  0  0  0
  -29.7130  -15.8390   18.5250 C   0  0  0  0  0  1  0  0  0  0  0  0
  -29.8550  -15.8510   19.9960 N   0  0  0  0  0  0  0  0  0  0  0  0
  -25.2220  -13.8480   20.5310 C   0  0  0  0  0  0  0  0  0  0  0  0
  -24.1430  -13.0780   20.8690 C   0  0  0  0  0  0  0  0  0  0  0  0
  -24.6120  -11.7290   20.8820 C   0  0  0  0  0  0  0  0  0  0  0  0
  -26.2760  -12.9660   20.3560 N   0  0  0  0  0  0  0  0  0  0  0  0
  -25.9150  -11.6890   20.6330 N   0  0  0  0  0  0  0  0  0  0  0  0
  -23.8830  -10.4670   21.0600 C   0  0  0  0  0  0  0  0  0  0  0  0
  -24.2900   -9.5080   22.0140 C   0  0  0  0  0  3  0  0  0  0  0  0
  -23.5610   -8.3110   22.1810 C   0  0  0  0  0  3  0  0  0  0  0  0
  -22.4120   -8.0650   21.3940 C   0  0  0  0  0  0  0  0  0  0  0  0
  -22.0250   -9.0120   20.4280 C   0  0  0  0  0  3  0  0  0  0  0  0
  -22.7550  -10.2000   20.2600 C   0  0  0  0  0  3  0  0  0  0  0  0
  -21.6560   -6.9200   21.4700 O   0  0  0  0  0  0  0  0  0  0  0  0
  -21.5770   -6.1860   22.6260 C   0  0  0  0  0  0  0  0  0  0  0  0
  -21.1210   -6.7500   23.8370 C   0  0  0  0  0  3  0  0  0  0  0  0
  -20.9910   -5.9430   24.9860 C   0  0  0  0  0  3  0  0  0  0  0  0
  -21.3080   -4.5720   24.9220 C   0  0  0  0  0  0  0  0  0  0  0  0
  -21.7570   -4.0070   23.7150 C   0  0  0  0  0  3  0  0  0  0  0  0
  -21.8890   -4.8130   22.5700 C   0  0  0  0  0  0  0  0  0  0  0  0
  -22.3040   -4.2600   21.4040 F   0  0  0  0  0  0  0  0  0  0  0  0
  -21.1760   -3.7940   26.0220 F   0  0  0  0  0  0  0  0  0  0  0  0
  -22.7340  -13.5540   21.0720 C   0  0  0  0  0  0  0  0  0  0  0  0
  -21.9730  -12.8710   21.9190 N   0  0  0  0  0  0  0  0  0  0  0  0
  -22.3160  -14.5690   20.5160 O   0  0  0  0  0  0  0  0  0  0  0  0
  -22.3230  -12.0510   22.3930 H   0  0  0  0  0  0  0  0  0  0  0  0
  -21.0250  -13.1710   22.0980 H   0  0  0  0  0  0  0  0  0  0  0  0
  -25.3880  -15.2160   20.3330 N   0  0  0  0  0  0  0  0  0  0  0  0
  -24.6160  -15.8700   20.3900 H   0  0  0  0  0  0  0  0  0  0  0  0
  -26.2550  -15.6460   20.0370 H   0  0  0  0  0  0  0  0  0  0  0  0
  -28.3350  -26.4870   20.1270 O   0  0  0  0  0  0  0  0  0  0  0  0
  -24.5900  -31.8740   23.1590 C   0  0  0  0  0  0  0  0  0  0  0  0
  -27.1980  -27.3190   20.0720 C   0  0  0  0  0  0  0  0  0  0  0  0
  -23.3850  -30.4880   21.5090 C   0  0  0  0  0  3  0  0  0  0  0  0
  -24.8340  -28.9460   20.0700 C   0  0  0  0  0  0  0  0  0  0  0  0
  -25.9260  -30.8010   21.3310 C   0  0  0  0  0  2  0  0  0  0  0  0
  -26.0020  -29.4250   20.6740 C   0  0  0  0  0  0  0  0  0  0  0  0
  -27.1830  -28.6220   20.6670 C   0  0  0  0  0  3  0  0  0  0  0  0
  -26.0050  -26.8970   19.4420 C   0  0  0  0  0  3  0  0  0  0  0  0
  -24.8390  -27.6890   19.4450 C   0  0  0  0  0  3  0  0  0  0  0  0
  -23.5990  -29.8220   20.1230 C   0  0  0  0  0  2  0  0  0  0  0  0
  -24.6530  -31.0710   22.0550 N   0  0  0  0  0  0  0  0  0  0  0  0
  -23.5060  -32.1500   23.6960 O   0  0  0  0  0  0  0  0  0  0  0  0
  -22.7200  -29.4660   22.4620 C   0  0  0  0  0  0  0  0  0  0  0  0
  -21.3940  -29.2900   22.3320 N   0  0  0  0  0  0  0  0  0  0  0  0
  -23.3980  -28.8340   23.2770 O   0  0  0  0  0  0  0  0  0  0  0  0
  -20.9080  -29.8510   21.6460 H   0  0  0  0  0  0  0  0  0  0  0  0
  -18.0160  -28.0880   22.8150 C   0  0  0  0  0  0  0  0  0  0  0  0
  -20.5730  -28.3490   23.0940 C   0  0  0  0  0  3  0  0  0  0  0  0
  -20.6790  -26.9200   22.5140 C   0  0  0  0  0  2  0  0  0  0  0  0
  -19.5810  -26.6000   21.4930 C   0  0  0  0  0  2  0  0  0  0  0  0
  -18.1970  -26.7410   22.1330 C   0  0  0  0  0  2  0  0  0  0  0  0
  -19.1330  -28.8490   23.2520 C   0  0  0  0  0  0  0  0  0  0  0  0
  -18.9100  -30.1090   23.8480 C   0  0  0  0  0  3  0  0  0  0  0  0
  -17.6040  -30.6080   24.0110 C   0  0  0  0  0  3  0  0  0  0  0  0
  -16.5020  -29.8440   23.5900 C   0  0  0  0  0  3  0  0  0  0  0  0
  -16.7090  -28.5840   22.9970 C   0  0  0  0  0  3  0  0  0  0  0  0
  -25.8740  -32.5000   23.7850 C   0  0  0  0  0  3  0  0  0  0  0  0
  -25.5660  -33.8950   24.1320 N   0  0  0  0  0  0  0  0  0  0  0  0
  -25.9010  -34.9560   23.3870 C   0  0  0  0  0  0  0  0  0  0  0  0
  -26.5730  -34.8640   22.3560 O   0  0  0  0  0  0  0  0  0  0  0  0
  -24.9700  -34.0410   24.9330 H   0  0  0  0  0  0  0  0  0  0  0  0
  -24.1820  -36.7600   23.0420 C   0  0  0  0  0  1  0  0  0  0  0  0
  -25.4150  -36.3400   23.8590 C   0  0  0  0  0  3  0  0  0  0  0  0
  -27.5440  -37.2060   24.7220 C   0  0  0  0  0  1  0  0  0  0  0  0
  -26.4520  -37.3910   23.7700 N   0  0  0  0  0  0  0  0  0  0  0  0
  -26.0480  -38.3100   23.9240 H   0  0  0  0  0  0  0  0  0  0  0  0
  -26.3920  -31.7160   25.0540 C   0  0  1  0  0  0  0  0  0  0  0  0
  -25.3010  -31.4710   26.1230 C   0  0  0  0  0  1  0  0  0  0  0  0
  -26.9710  -30.3400   24.6510 C   0  0  0  0  0  1  0  0  0  0  0  0
  -27.5450  -32.5020   25.7210 C   0  0  0  0  0  1  0  0  0  0  0  0
  1  2  1  0
  2  4  2  0
  2  6  1  0
  3  1  1  0
  3  8  1  0
  5 55  1  0
  5  1  2  0
  7  6  1  0
  8  7  1  0
  9  3  2  0
 10 13  1  0
 11 14  1  0
 11 10  2  0
 12 15  1  0
 13 15  2  0
 13  8  1  0
 14 12  2  0
 15 16  1  0
 18 23  1  0
 19 20  1  0
 19 18  1  0
 21 20  1  0
 21 30  1  0
 21 22  1  0
 23 17  1  0
 23 22  1  0
 24 17  2  0
 25 26  1  0
 26 14  1  0
 26 17  1  0
 27 28  2  0
 28 29  1  0
 28 47  1  0
 29 32  1  0
 30 27  1  0
 30 31  1  0
 31 29  2  0
 32 33  1  0
 33 34  2  0
 35 38  1  0
 35 34  1  0
 36 35  2  0
 37 36  1  0
 37 32  2  0
 38 39  1  0
 39 40  1  0
 40 41  2  0
 42 41  1  0
 42 46  1  0
 43 42  2  0
 44 39  2  0
 44 43  1  0
 45 44  1  0
 47 48  1  0
 48 51  1  0
 48 50  1  0
 49 47  2  0
 52 53  1  0
 52 27  1  0
 54 52  1  0
 56 67  2  0
 57 55  1  0
 57 62  1  0
 58 66  1  0
 58 68  1  0
 59 65  1  0
 59 61  1  0
 60 66  1  0
 61 60  1  0
 62 61  2  0
 63 64  1  0
 63 57  2  0
 64 59  2  0
 65 58  1  0
 66 56  1  0
 68 70  2  0
 69 68  1  0
 71 69  1  0
 72 81  2  0
 72 77  1  0
 73 69  1  0
 73 77  1  0
 74 73  1  0
 75 76  1  0
 75 74  1  0
 76 72  1  0
 77 78  2  0
 78 79  1  0
 80 79  2  0
 81 80  1  0
 82 56  1  0
 82 83  1  0
 82 92  1  0
 83 86  1  0
 84 88  1  0
 84 83  1  0
 85 84  2  0
 88 87  1  0
 90 88  1  0
 90 91  1  0
 90 89  1  0
 92 95  1  1
 92 93  1  0
 94 92  1  0
M  ISO  4   5 101  17 100  26 100  55 101
M  END
>  <TORSDO>  (17) 
F 17

>  <SCORE>  (17) 
-15.079

>  <name>  (17) 
16

>  <ligand_id>  (17) 
16

>  <original_smiles>  (17) 
[H]C([H])=C1C(=C([H])Oc2c([H])c([H])c3c(c2[H])C([H])([H])N(C(=O)C([H])(N([H])C(=O)C([H])(N([H])C([H])([H])[H])C([H])([H])[H])C(C([H])([H])[H])(C([H])([H])[H])C([H])([H])[H])C([H])(C(=O)N([H])C2([H])c4c([H])c([H])c([H])c([H])c4C([H])([H])C([H])([H])C2([H])[H])C3([H])[H])C(=O)N(c2c([H])c([H])c(N(C(=O)N3C([H])([H])C([H])([H])C([H])([H])C([H])(n4nc(-c5c([H])c([H])c(Oc6c([H])c([H])c(F)c([H])c6F)c([H])c5[H])c(C(=O)N([H])[H])c4N([H])[H])C3([H])[H])C([H])([H])[H])c([H])c2F)C([H])([H])C1([H])[H]

>  <smiles>  (17) 
[H]C([H])=C1C(=C([H])Oc2c([H])c([H])c3c(c2[H])C([H])([H])N(C(=O)C([H])(N([H])C(=O)C([H])(N([H])C([H])([H])[H])C([H])([H])[H])C(C([H])([H])[H])(C([H])([H])[H])C([H])([H])[H])C([H])(C(=O)N([H])C2([H])c4c([H])c([H])c([H])c([H])c4C([H])([H])C([H])([H])C2([H])[H])C3([H])[H])C(=O)N(c2c([H])c([H])c(N(C(=O)N3C([H])([H])C([H])([H])C([H])([H])C([H])(n4nc(-c5c([H])c([H])c(Oc6c([H])c([H])c(F)c([H])c6F)c([H])c5[H])c(C(=O)N([H])[H])c4N([H])[H])C3([H])[H])C([H])([H])[H])c([H])c2F)C([H])([H])C1([H])[H]

$$$$
17:0:0
     RDKit          3D

 94103  0  0  1  0  0  0  0  0999 V2000
  -29.6120  -23.7130   19.0270 C   0  0  0  0  0  3  0  0  0  0  0  0
  -28.8660  -23.8210   20.1250 C   0  0  0  0  0  0  0  0  0  0  0  0
  -30.0220  -22.3320   18.8520 C   0  0  0  0  0  0  0  0  0  0  0  0
  -28.8090  -22.4610   20.6950 C   0  0  0  0  0  0  0  0  0  0  0  0
  -29.5340  -21.6110   19.8960 N   0  0  0  0  0  0  0  0  0  0  0  0
  -30.6750  -21.8890   17.8980 O   0  0  0  0  0  0  0  0  0  0  0  0
  -28.2140  -22.1330   21.7300 O   0  0  0  0  0  0  0  0  0  0  0  0
  -31.2580  -18.1160   19.9260 C   0  0  0  0  0  3  0  0  0  0  0  0
  -29.1030  -17.9000   20.9400 C   0  0  0  0  0  3  0  0  0  0  0  0
  -30.9980  -19.5080   19.7140 C   0  0  0  0  0  3  0  0  0  0  0  0
  -28.8350  -19.2840   20.7110 C   0  0  0  0  0  3  0  0  0  0  0  0
  -30.3250  -17.2620   20.5730 C   0  0  0  0  0  0  0  0  0  0  0  0
  -29.7840  -20.1540   20.1050 C   0  0  0  0  0  0  0  0  0  0  0  0
  -30.6030  -15.8130   21.0380 C   0  0  0  0  0  0  0  0  0  0  0  0
  -30.4400  -15.5670   22.2710 N   0  0  0  0  0  0  0  0  0  0  0  0
  -30.1490  -16.4050   22.7600 H   0  0  0  0  0  0  0  0  0  0  0  0
  -31.1200  -14.6820   20.0650 C   0  0  0  0  0  0  0  0  0  0  0  0
  -30.7410  -12.5040   18.9040 C   0  0  0  0  0  2  0  0  0  0  0  0
  -29.7410  -12.7060   17.7440 C   0  0  0  0  0  2  0  0  0  0  0  0
  -28.2910  -12.5510   18.2420 C   0  0  0  0  0  2  0  0  0  0  0  0
  -28.0270  -13.3740   19.5290 C   0  0  0  0  0  3  0  0  0  0  0  0
  -29.1350  -13.1390   20.5790 C   0  0  0  0  0  2  0  0  0  0  0  0
  -30.4300  -13.4900   19.9650 N   0  0  0  0  0  0  0  0  0  0  0  0
  -32.1650  -14.8580   19.4300 O   0  0  0  0  0  0  0  0  0  0  0  0
  -25.6980  -14.0070   20.4060 C   0  0  0  0  0  0  0  0  0  0  0  0
  -24.6300  -13.2470   20.8060 C   0  0  0  0  0  0  0  0  0  0  0  0
  -25.0490  -11.8870   20.6930 C   0  0  0  0  0  0  0  0  0  0  0  0
  -26.7000  -13.1090   20.0770 N   0  0  0  0  0  0  0  0  0  0  0  0
  -26.3180  -11.8250   20.3090 N   0  0  0  0  0  0  0  0  0  0  0  0
  -24.2980  -10.6380   20.8790 C   0  0  0  0  0  0  0  0  0  0  0  0
  -24.6910   -9.6730   21.8330 C   0  0  0  0  0  3  0  0  0  0  0  0
  -23.9430   -8.4890   22.0050 C   0  0  0  0  0  3  0  0  0  0  0  0
  -22.7870   -8.2600   21.2220 C   0  0  0  0  0  0  0  0  0  0  0  0
  -22.4120   -9.2120   20.2580 C   0  0  0  0  0  3  0  0  0  0  0  0
  -23.1610  -10.3890   20.0840 C   0  0  0  0  0  3  0  0  0  0  0  0
  -22.0140   -7.1270   21.2990 O   0  0  0  0  0  0  0  0  0  0  0  0
  -21.8400   -6.4550   22.4820 C   0  0  0  0  0  0  0  0  0  0  0  0
  -21.3030   -7.0860   23.6250 C   0  0  0  0  0  3  0  0  0  0  0  0
  -21.0750   -6.3400   24.8000 C   0  0  0  0  0  3  0  0  0  0  0  0
  -21.3770   -4.9650   24.8310 C   0  0  0  0  0  0  0  0  0  0  0  0
  -21.9050   -4.3340   23.6920 C   0  0  0  0  0  3  0  0  0  0  0  0
  -22.1350   -5.0760   22.5200 C   0  0  0  0  0  0  0  0  0  0  0  0
  -22.6260   -4.4590   21.4180 F   0  0  0  0  0  0  0  0  0  0  0  0
  -21.1510   -4.2480   25.9560 F   0  0  0  0  0  0  0  0  0  0  0  0
  -23.2680  -13.7520   21.1830 C   0  0  0  0  0  0  0  0  0  0  0  0
  -22.5780  -13.0440   22.0710 N   0  0  0  0  0  0  0  0  0  0  0  0
  -22.8270  -14.8050   20.7280 O   0  0  0  0  0  0  0  0  0  0  0  0
  -22.9470  -12.1890   22.4580 H   0  0  0  0  0  0  0  0  0  0  0  0
  -21.6670  -13.3650   22.3710 H   0  0  0  0  0  0  0  0  0  0  0  0
  -25.8920  -15.3800   20.2800 N   0  0  0  0  0  0  0  0  0  0  0  0
  -25.1480  -16.0480   20.4520 H   0  0  0  0  0  0  0  0  0  0  0  0
  -26.7410  -15.8130   19.9370 H   0  0  0  0  0  0  0  0  0  0  0  0
  -28.1780  -25.0930   20.7410 C   0  0  0  0  0  2  0  0  0  0  0  0
  -28.3960  -26.4310   20.1400 O   0  0  0  0  0  0  0  0  0  0  0  0
  -24.6360  -31.8140   23.1730 C   0  0  0  0  0  0  0  0  0  0  0  0
  -27.2820  -27.2810   20.1220 C   0  0  0  0  0  0  0  0  0  0  0  0
  -23.4390  -30.4000   21.5400 C   0  0  0  0  0  3  0  0  0  0  0  0
  -24.8990  -28.8570   20.1160 C   0  0  0  0  0  0  0  0  0  0  0  0
  -25.9740  -30.7440   21.3460 C   0  0  0  0  0  2  0  0  0  0  0  0
  -26.0660  -29.3650   20.7030 C   0  0  0  0  0  0  0  0  0  0  0  0
  -27.2630  -28.5890   20.6940 C   0  0  0  0  0  3  0  0  0  0  0  0
  -26.0970  -26.8210   19.5120 C   0  0  0  0  0  3  0  0  0  0  0  0
  -24.9140  -27.5880   19.5130 C   0  0  0  0  0  3  0  0  0  0  0  0
  -23.6550  -29.7200   20.1620 C   0  0  0  0  0  2  0  0  0  0  0  0
  -24.7010  -31.0040   22.0760 N   0  0  0  0  0  0  0  0  0  0  0  0
  -23.5510  -32.0830   23.7120 O   0  0  0  0  0  0  0  0  0  0  0  0
  -22.7860  -29.3820   22.5070 C   0  0  0  0  0  0  0  0  0  0  0  0
  -21.4600  -29.2060   22.3940 N   0  0  0  0  0  0  0  0  0  0  0  0
  -23.4740  -28.7520   23.3150 O   0  0  0  0  0  0  0  0  0  0  0  0
  -20.9640  -29.7680   21.7140 H   0  0  0  0  0  0  0  0  0  0  0  0
  -18.0880  -27.9990   22.9170 C   0  0  0  0  0  0  0  0  0  0  0  0
  -20.6490  -28.2650   23.1690 C   0  0  0  0  0  3  0  0  0  0  0  0
  -20.7510  -26.8340   22.5940 C   0  0  0  0  0  2  0  0  0  0  0  0
  -19.6430  -26.5060   21.5880 C   0  0  0  0  0  2  0  0  0  0  0  0
  -18.2630  -26.6500   22.2410 C   0  0  0  0  0  2  0  0  0  0  0  0
  -19.2090  -28.7650   23.3370 C   0  0  0  0  0  0  0  0  0  0  0  0
  -18.9920  -30.0250   23.9330 C   0  0  0  0  0  3  0  0  0  0  0  0
  -17.6870  -30.5250   24.1080 C   0  0  0  0  0  3  0  0  0  0  0  0
  -16.5810  -29.7580   23.7030 C   0  0  0  0  0  3  0  0  0  0  0  0
  -16.7830  -28.4970   23.1140 C   0  0  0  0  0  3  0  0  0  0  0  0
  -25.9160  -32.4580   23.7910 C   0  0  0  0  0  3  0  0  0  0  0  0
  -26.4530  -31.6850   25.0570 C   0  0  1  0  0  0  0  0  0  0  0  0
  -25.3710  -31.4190   26.1320 C   0  0  0  0  0  1  0  0  0  0  0  0
  -27.0580  -30.3210   24.6500 C   0  0  0  0  0  1  0  0  0  0  0  0
  -27.5960  -32.4940   25.7160 C   0  0  0  0  0  1  0  0  0  0  0  0
  -25.5910  -33.8490   24.1340 N   0  0  0  0  0  0  0  0  0  0  0  0
  -25.9170  -34.9130   23.3890 C   0  0  0  0  0  0  0  0  0  0  0  0
  -26.5900  -34.8260   22.3570 O   0  0  0  0  0  0  0  0  0  0  0  0
  -25.0010  -33.9920   24.9410 H   0  0  0  0  0  0  0  0  0  0  0  0
  -24.1810  -36.6980   23.0420 C   0  0  0  0  0  1  0  0  0  0  0  0
  -25.4180  -36.2930   23.8600 C   0  0  0  0  0  3  0  0  0  0  0  0
  -27.5370  -37.1780   24.7250 C   0  0  0  0  0  1  0  0  0  0  0  0
  -26.4440  -37.3540   23.7720 N   0  0  0  0  0  0  0  0  0  0  0  0
  -26.0320  -38.2700   23.9310 H   0  0  0  0  0  0  0  0  0  0  0  0
  1  2  2  0
  2  4  1  0
  2 53  1  0
  3  1  1  0
  3  5  1  0
  4  7  2  0
  5 13  1  0
  5  4  1  0
  6  3  2  0
  8 12  1  0
 10  8  2  0
 10 13  1  0
 11  9  1  0
 12  9  2  0
 12 14  1  0
 13 11  2  0
 14 15  2  0
 15 16  1  0
 17 14  1  0
 18 23  1  0
 19 20  1  0
 19 18  1  0
 21 20  1  0
 21 28  1  0
 21 22  1  0
 23 17  1  0
 23 22  1  0
 24 17  2  0
 25 26  2  0
 26 45  1  0
 27 26  1  0
 27 30  1  0
 28 29  1  0
 28 25  1  0
 29 27  2  0
 30 31  1  0
 31 32  2  0
 33 36  1  0
 33 32  1  0
 34 33  2  0
 35 34  1  0
 35 30  2  0
 36 37  1  0
 37 42  2  0
 37 38  1  0
 38 39  2  0
 39 40  1  0
 40 44  1  0
 41 40  2  0
 42 41  1  0
 43 42  1  0
 45 46  1  0
 46 49  1  0
 46 48  1  0
 47 45  2  0
 50 25  1  0
 50 51  1  0
 52 50  1  0
 54 53  1  0
 55 66  2  0
 56 54  1  0
 56 61  1  0
 57 65  1  0
 57 67  1  0
 58 64  1  0
 58 60  1  0
 59 65  1  0
 60 59  1  0
 61 60  2  0
 62 63  1  0
 62 56  2  0
 63 58  2  0
 64 57  1  0
 65 55  1  0
 67 69  2  0
 68 67  1  0
 70 68  1  0
 71 80  2  0
 71 76  1  0
 72 68  1  0
 72 76  1  0
 73 72  1  0
 74 75  1  0
 74 73  1  0
 75 71  1  0
 76 77  2  0
 77 78  1  0
 79 78  2  0
 80 79  1  0
 81 55  1  0
 81 86  1  0
 81 82  1  0
 82 85  1  1
 82 83  1  0
 84 82  1  0
 86 89  1  0
 87 91  1  0
 87 86  1  0
 88 87  2  0
 91 90  1  0
 93 91  1  0
 93 94  1  0
 93 92  1  0
M  ISO  4  14 100  17 100  53 101  54 101
M  END
>  <TORSDO>  (18) 
F 19

>  <SCORE>  (18) 
-13.799

>  <name>  (18) 
17

>  <ligand_id>  (18) 
17

>  <original_smiles>  (18) 
[H]N=C(C(=O)N1C([H])([H])C([H])([H])C([H])([H])C([H])(n2nc(-c3c([H])c([H])c(Oc4c([H])c([H])c(F)c([H])c4F)c([H])c3[H])c(C(=O)N([H])[H])c2N([H])[H])C1([H])[H])c1c([H])c([H])c(N2C(=O)C([H])=C(C([H])([H])Oc3c([H])c([H])c4c(c3[H])C([H])([H])N(C(=O)C([H])(N([H])C(=O)C([H])(N([H])C([H])([H])[H])C([H])([H])[H])C(C([H])([H])[H])(C([H])([H])[H])C([H])([H])[H])C([H])(C(=O)N([H])C3([H])c5c([H])c([H])c([H])c([H])c5C([H])([H])C([H])([H])C3([H])[H])C4([H])[H])C2=O)c([H])c1[H]

>  <smiles>  (18) 
[H]N=C(C(=O)N1C([H])([H])C([H])([H])C([H])([H])C([H])(n2nc(-c3c([H])c([H])c(Oc4c([H])c([H])c(F)c([H])c4F)c([H])c3[H])c(C(=O)N([H])[H])c2N([H])[H])C1([H])[H])c1c([H])c([H])c(N2C(=O)C([H])=C(C([H])([H])Oc3c([H])c([H])c4c(c3[H])C([H])([H])N(C(=O)C([H])(N([H])C(=O)C([H])(N([H])C([H])([H])[H])C([H])([H])[H])C(C([H])([H])[H])(C([H])([H])[H])C([H])([H])[H])C([H])(C(=O)N([H])C3([H])c5c([H])c([H])c([H])c([H])c5C([H])([H])C([H])([H])C3([H])[H])C4([H])[H])C2=O)c([H])c1[H]

$$$$
18:0:0
     RDKit          3D

 93102  0  0  1  0  0  0  0  0999 V2000
  -28.7770  -23.7910   20.1480 C   0  0  0  0  0  0  0  0  0  0  0  0
  -28.9130  -22.4900   19.4000 C   0  0  0  0  0  0  0  0  0  0  0  0
  -29.6150  -21.9630   21.4440 C   0  0  0  0  0  0  0  0  0  0  0  0
  -28.3170  -25.0190   19.6410 C   0  0  0  0  0  3  0  0  0  0  0  0
  -29.2610  -23.4580   21.5330 C   0  0  0  0  0  2  0  0  0  0  0  0
  -29.3910  -21.4540   20.2100 N   0  0  0  0  0  0  0  0  0  0  0  0
  -28.6420  -22.3380   18.2030 O   0  0  0  0  0  0  0  0  0  0  0  0
  -30.0640  -21.3380   22.4120 O   0  0  0  0  0  0  0  0  0  0  0  0
  -31.3680  -18.8500   18.2450 C   0  0  0  0  0  3  0  0  0  0  0  0
  -30.7810  -20.0460   18.7030 C   0  0  0  0  0  3  0  0  0  0  0  0
  -31.0740  -17.6040   18.8310 C   0  0  0  0  0  3  0  0  0  0  0  0
  -29.6010  -18.7520   20.3920 C   0  0  0  0  0  3  0  0  0  0  0  0
  -29.8740  -20.0750   19.7890 C   0  0  0  0  0  0  0  0  0  0  0  0
  -30.1910  -17.4760   19.9310 C   0  0  0  0  0  0  0  0  0  0  0  0
  -30.6110  -14.8710   20.2560 C   0  0  0  0  0  0  0  0  0  0  0  0
  -30.3670  -12.5690   19.2980 C   0  0  0  0  0  2  0  0  0  0  0  0
  -29.4260  -12.6190   18.0770 C   0  0  0  0  0  2  0  0  0  0  0  0
  -27.9610  -12.4450   18.5160 C   0  0  0  0  0  2  0  0  0  0  0  0
  -27.5920  -13.3370   19.7330 C   0  0  0  0  0  3  0  0  0  0  0  0
  -28.6650  -13.3050   20.8450 C   0  0  0  0  0  2  0  0  0  0  0  0
  -29.9510  -13.6520   20.2280 N   0  0  0  0  0  0  0  0  0  0  0  0
  -31.8060  -14.8820   19.9520 O   0  0  0  0  0  0  0  0  0  0  0  0
  -29.9100  -16.0800   20.4430 N   0  0  0  0  0  0  0  0  0  0  0  0
  -29.0050  -15.9620   20.8720 H   0  0  0  0  0  0  0  0  0  0  0  0
  -25.2130  -13.9190   20.4790 C   0  0  0  0  0  0  0  0  0  0  0  0
  -24.1480  -13.1460   20.8530 C   0  0  0  0  0  0  0  0  0  0  0  0
  -24.6110  -11.7940   20.8260 C   0  0  0  0  0  0  0  0  0  0  0  0
  -26.2550  -13.0400   20.2400 N   0  0  0  0  0  0  0  0  0  0  0  0
  -25.9020  -11.7560   20.5140 N   0  0  0  0  0  0  0  0  0  0  0  0
  -23.8820  -10.5330   21.0220 C   0  0  0  0  0  0  0  0  0  0  0  0
  -24.3160   -9.5660   21.9540 C   0  0  0  0  0  3  0  0  0  0  0  0
  -23.5860   -8.3720   22.1390 C   0  0  0  0  0  3  0  0  0  0  0  0
  -22.4080   -8.1370   21.3890 C   0  0  0  0  0  0  0  0  0  0  0  0
  -21.9920   -9.0940   20.4470 C   0  0  0  0  0  3  0  0  0  0  0  0
  -22.7240  -10.2790   20.2610 C   0  0  0  0  0  3  0  0  0  0  0  0
  -21.6510   -6.9940   21.4820 O   0  0  0  0  0  0  0  0  0  0  0  0
  -21.6050   -6.2490   22.6340 C   0  0  0  0  0  0  0  0  0  0  0  0
  -21.1890   -6.8040   23.8640 C   0  0  0  0  0  3  0  0  0  0  0  0
  -21.0920   -5.9900   25.0090 C   0  0  0  0  0  3  0  0  0  0  0  0
  -21.3990   -4.6170   24.9240 C   0  0  0  0  0  0  0  0  0  0  0  0
  -21.8090   -4.0600   23.7000 C   0  0  0  0  0  3  0  0  0  0  0  0
  -21.9070   -4.8740   22.5570 C   0  0  0  0  0  0  0  0  0  0  0  0
  -22.2820   -4.3290   21.3740 F   0  0  0  0  0  0  0  0  0  0  0  0
  -21.2980   -3.8310   26.0220 F   0  0  0  0  0  0  0  0  0  0  0  0
  -22.7530  -13.6270   21.1280 C   0  0  0  0  0  0  0  0  0  0  0  0
  -22.0250  -12.9360   21.9970 N   0  0  0  0  0  0  0  0  0  0  0  0
  -22.3150  -14.6530   20.6080 O   0  0  0  0  0  0  0  0  0  0  0  0
  -22.3920  -12.1070   22.4410 H   0  0  0  0  0  0  0  0  0  0  0  0
  -21.0890  -13.2420   22.2240 H   0  0  0  0  0  0  0  0  0  0  0  0
  -25.3810  -15.2900   20.2970 N   0  0  0  0  0  0  0  0  0  0  0  0
  -24.6210  -15.9560   20.4000 H   0  0  0  0  0  0  0  0  0  0  0  0
  -26.2290  -15.7120   19.9420 H   0  0  0  0  0  0  0  0  0  0  0  0
  -28.2960  -26.3380   20.2270 O   0  0  0  0  0  0  0  0  0  0  0  0
  -24.6120  -31.8760   23.2360 C   0  0  0  0  0  0  0  0  0  0  0  0
  -27.2000  -27.2490   20.1400 C   0  0  0  0  0  0  0  0  0  0  0  0
  -23.3980  -30.4830   21.6000 C   0  0  0  0  0  3  0  0  0  0  0  0
  -24.8400  -28.9230   20.1570 C   0  0  0  0  0  0  0  0  0  0  0  0
  -25.9440  -30.7790   21.4040 C   0  0  0  0  0  2  0  0  0  0  0  0
  -26.0180  -29.3930   20.7500 C   0  0  0  0  0  0  0  0  0  0  0  0
  -27.1970  -28.5690   20.7290 C   0  0  0  0  0  3  0  0  0  0  0  0
  -25.9870  -26.8520   19.5310 C   0  0  0  0  0  3  0  0  0  0  0  0
  -24.8300  -27.6610   19.5440 C   0  0  0  0  0  3  0  0  0  0  0  0
  -23.6040  -29.8050   20.2190 C   0  0  0  0  0  2  0  0  0  0  0  0
  -24.6720  -31.0640   22.1350 N   0  0  0  0  0  0  0  0  0  0  0  0
  -23.5300  -32.1550   23.7740 O   0  0  0  0  0  0  0  0  0  0  0  0
  -22.7310  -29.4730   22.5620 C   0  0  0  0  0  0  0  0  0  0  0  0
  -21.4060  -29.2890   22.4340 N   0  0  0  0  0  0  0  0  0  0  0  0
  -23.4090  -28.8530   23.3870 O   0  0  0  0  0  0  0  0  0  0  0  0
  -20.9160  -29.8370   21.7400 H   0  0  0  0  0  0  0  0  0  0  0  0
  -18.0380  -28.0590   22.9180 C   0  0  0  0  0  0  0  0  0  0  0  0
  -20.5900  -28.3490   23.2060 C   0  0  0  0  0  3  0  0  0  0  0  0
  -20.7120  -26.9140   22.6460 C   0  0  0  0  0  2  0  0  0  0  0  0
  -19.6250  -26.5710   21.6240 C   0  0  0  0  0  2  0  0  0  0  0  0
  -18.2360  -26.7070   22.2550 C   0  0  0  0  0  2  0  0  0  0  0  0
  -19.1440  -28.8380   23.3510 C   0  0  0  0  0  0  0  0  0  0  0  0
  -18.9050  -30.0990   23.9360 C   0  0  0  0  0  3  0  0  0  0  0  0
  -17.5940  -30.5880   24.0880 C   0  0  0  0  0  3  0  0  0  0  0  0
  -16.5020  -29.8070   23.6710 C   0  0  0  0  0  3  0  0  0  0  0  0
  -16.7250  -28.5440   23.0920 C   0  0  0  0  0  3  0  0  0  0  0  0
  -25.8960  -32.5080   23.8560 C   0  0  0  0  0  3  0  0  0  0  0  0
  -25.5860  -33.9040   24.1930 N   0  0  0  0  0  0  0  0  0  0  0  0
  -25.9100  -34.9590   23.4350 C   0  0  0  0  0  0  0  0  0  0  0  0
  -26.5650  -34.8590   22.3950 O   0  0  0  0  0  0  0  0  0  0  0  0
  -24.9980  -34.0550   25.0000 H   0  0  0  0  0  0  0  0  0  0  0  0
  -24.1760  -36.7530   23.1140 C   0  0  0  0  0  1  0  0  0  0  0  0
  -25.4300  -36.3480   23.9040 C   0  0  0  0  0  3  0  0  0  0  0  0
  -27.5780  -37.2350   24.6970 C   0  0  0  0  0  1  0  0  0  0  0  0
  -26.4600  -37.4020   23.7740 N   0  0  0  0  0  0  0  0  0  0  0  0
  -26.0560  -38.3210   23.9260 H   0  0  0  0  0  0  0  0  0  0  0  0
  -26.4140  -31.7310   25.1300 C   0  0  1  0  0  0  0  0  0  0  0  0
  -25.3250  -31.4990   26.2020 C   0  0  0  0  0  1  0  0  0  0  0  0
  -26.9880  -30.3490   24.7380 C   0  0  0  0  0  1  0  0  0  0  0  0
  -27.5710  -32.5200   25.7860 C   0  0  0  0  0  1  0  0  0  0  0  0
  1  5  1  0
  2  1  1  0
  2  6  1  0
  3  5  1  0
  3  8  2  0
  4  1  2  0
  4 53  1  0
  6  3  1  0
  7  2  2  0
  9 10  2  0
  9 11  1  0
 10 13  1  0
 11 14  2  0
 13  6  1  0
 13 12  2  0
 14 12  1  0
 14 23  1  0
 15 23  1  0
 16 21  1  0
 17 18  1  0
 17 16  1  0
 19 18  1  0
 19 28  1  0
 19 20  1  0
 21 15  1  0
 21 20  1  0
 22 15  2  0
 23 24  1  0
 25 26  2  0
 26 45  1  0
 27 26  1  0
 27 30  1  0
 28 25  1  0
 28 29  1  0
 29 27  2  0
 30 31  1  0
 31 32  2  0
 33 36  1  0
 33 32  1  0
 34 33  2  0
 35 34  1  0
 35 30  2  0
 36 37  1  0
 37 38  1  0
 38 39  2  0
 40 39  1  0
 40 44  1  0
 41 40  2  0
 42 37  2  0
 42 41  1  0
 43 42  1  0
 45 46  1  0
 46 49  1  0
 46 48  1  0
 47 45  2  0
 50 51  1  0
 50 25  1  0
 52 50  1  0
 54 65  2  0
 55 53  1  0
 55 60  1  0
 56 64  1  0
 56 66  1  0
 57 63  1  0
 57 59  1  0
 58 64  1  0
 59 58  1  0
 60 59  2  0
 61 62  1  0
 61 55  2  0
 62 57  2  0
 63 56  1  0
 64 54  1  0
 66 68  2  0
 67 66  1  0
 69 67  1  0
 70 79  2  0
 70 75  1  0
 71 67  1  0
 71 75  1  0
 72 71  1  0
 73 74  1  0
 73 72  1  0
 74 70  1  0
 75 76  2  0
 76 77  1  0
 78 77  2  0
 79 78  1  0
 80 54  1  0
 80 81  1  0
 80 90  1  0
 81 84  1  0
 82 86  1  0
 82 81  1  0
 83 82  2  0
 86 85  1  0
 88 86  1  0
 88 89  1  0
 88 87  1  0
 90 93  1  1
 90 91  1  0
 92 90  1  0
M  ISO  4   4 101  15 100  23 100  53 101
M  END
>  <TORSDO>  (19) 
F 17

>  <SCORE>  (19) 
-15.332

>  <name>  (19) 
18

>  <ligand_id>  (19) 
18

>  <original_smiles>  (19) 
[H]C(Oc1c([H])c([H])c2c(c1[H])C([H])([H])N(C(=O)C([H])(N([H])C(=O)C([H])(N([H])C([H])([H])[H])C([H])([H])[H])C(C([H])([H])[H])(C([H])([H])[H])C([H])([H])[H])C([H])(C(=O)N([H])C1([H])c3c([H])c([H])c([H])c([H])c3C([H])([H])C([H])([H])C1([H])[H])C2([H])[H])=C1C(=O)N(c2c([H])c([H])c([H])c(N([H])C(=O)N3C([H])([H])C([H])([H])C([H])([H])C([H])(n4nc(-c5c([H])c([H])c(Oc6c([H])c([H])c(F)c([H])c6F)c([H])c5[H])c(C(=O)N([H])[H])c4N([H])[H])C3([H])[H])c2[H])C(=O)C1([H])[H]

>  <smiles>  (19) 
[H]C(Oc1c([H])c([H])c2c(c1[H])C([H])([H])N(C(=O)C([H])(N([H])C(=O)C([H])(N([H])C([H])([H])[H])C([H])([H])[H])C(C([H])([H])[H])(C([H])([H])[H])C([H])([H])[H])C([H])(C(=O)N([H])C1([H])c3c([H])c([H])c([H])c([H])c3C([H])([H])C([H])([H])C1([H])[H])C2([H])[H])=C1C(=O)N(c2c([H])c([H])c([H])c(N([H])C(=O)N3C([H])([H])C([H])([H])C([H])([H])C([H])(n4nc(-c5c([H])c([H])c(Oc6c([H])c([H])c(F)c([H])c6F)c([H])c5[H])c(C(=O)N([H])[H])c4N([H])[H])C3([H])[H])c2[H])C(=O)C1([H])[H]

$$$$
19:0:0
     RDKit          3D

 92100  0  0  1  0  0  0  0  0999 V2000
  -29.0210  -22.5950   20.1960 C   0  0  0  0  0  0  0  0  0  0  0  0
  -28.8350  -21.2280   20.5390 N   0  0  0  0  0  0  0  0  0  0  0  0
  -29.8700  -22.9210   19.3650 O   0  0  0  0  0  0  0  0  0  0  0  0
  -28.0620  -21.1580   21.1870 H   0  0  0  0  0  0  0  0  0  0  0  0
  -29.0000  -18.6710   20.6510 C   0  0  0  0  0  3  0  0  0  0  0  0
  -30.9210  -18.3130   19.5480 C   0  0  0  0  0  3  0  0  0  0  0  0
  -29.9340  -17.6130   20.2090 C   0  0  0  0  0  0  0  0  0  0  0  0
  -29.4360  -19.9550   20.2620 C   0  0  0  0  0  0  0  0  0  0  0  0
  -30.6190  -19.6940   19.5820 N   0  0  0  0  0  0  0  0  0  0  0  0
  -31.2060  -20.4100   19.1670 H   0  0  0  0  0  0  0  0  0  0  0  0
  -30.6070  -14.9800   20.0630 C   0  0  0  0  0  0  0  0  0  0  0  0
  -30.4420  -12.6570   19.0800 C   0  0  0  0  0  2  0  0  0  0  0  0
  -29.4510  -12.6670   17.8930 C   0  0  0  0  0  2  0  0  0  0  0  0
  -28.0100  -12.4490   18.3870 C   0  0  0  0  0  2  0  0  0  0  0  0
  -27.6630  -13.3460   19.6040 C   0  0  0  0  0  3  0  0  0  0  0  0
  -28.7670  -13.3100   20.6820 C   0  0  0  0  0  2  0  0  0  0  0  0
  -30.0230  -13.7190   20.0350 N   0  0  0  0  0  0  0  0  0  0  0  0
  -31.7740  -15.0870   19.6690 O   0  0  0  0  0  0  0  0  0  0  0  0
  -29.8170  -16.1050   20.3920 N   0  0  0  0  0  0  0  0  0  0  0  0
  -28.9330  -15.8190   20.7840 H   0  0  0  0  0  0  0  0  0  0  0  0
  -25.3110  -13.9010   20.4540 C   0  0  0  0  0  0  0  0  0  0  0  0
  -24.2680  -13.1120   20.8550 C   0  0  0  0  0  0  0  0  0  0  0  0
  -24.7390  -11.7650   20.7800 C   0  0  0  0  0  0  0  0  0  0  0  0
  -26.3480  -13.0330   20.1540 N   0  0  0  0  0  0  0  0  0  0  0  0
  -26.0150  -11.7430   20.4150 N   0  0  0  0  0  0  0  0  0  0  0  0
  -24.0290  -10.4950   20.9780 C   0  0  0  0  0  0  0  0  0  0  0  0
  -24.4790   -9.5340   21.9120 C   0  0  0  0  0  3  0  0  0  0  0  0
  -23.7690   -8.3300   22.1000 C   0  0  0  0  0  3  0  0  0  0  0  0
  -22.5940   -8.0750   21.3540 C   0  0  0  0  0  0  0  0  0  0  0  0
  -22.1620   -9.0230   20.4090 C   0  0  0  0  0  3  0  0  0  0  0  0
  -22.8730  -10.2200   20.2210 C   0  0  0  0  0  3  0  0  0  0  0  0
  -21.8540   -6.9210   21.4490 O   0  0  0  0  0  0  0  0  0  0  0  0
  -21.7870   -6.2030   22.6160 C   0  0  0  0  0  0  0  0  0  0  0  0
  -21.2890   -6.7670   23.8100 C   0  0  0  0  0  3  0  0  0  0  0  0
  -21.1720   -5.9740   24.9700 C   0  0  0  0  0  3  0  0  0  0  0  0
  -21.5460   -4.6180   24.9350 C   0  0  0  0  0  0  0  0  0  0  0  0
  -22.0380   -4.0530   23.7450 C   0  0  0  0  0  3  0  0  0  0  0  0
  -22.1560   -4.8430   22.5890 C   0  0  0  0  0  0  0  0  0  0  0  0
  -22.6090   -4.2870   21.4400 F   0  0  0  0  0  0  0  0  0  0  0  0
  -21.4280   -3.8530   26.0470 F   0  0  0  0  0  0  0  0  0  0  0  0
  -22.8810  -13.5730   21.1930 C   0  0  0  0  0  0  0  0  0  0  0  0
  -22.1940  -12.8520   22.0720 N   0  0  0  0  0  0  0  0  0  0  0  0
  -22.4160  -14.6070   20.7130 O   0  0  0  0  0  0  0  0  0  0  0  0
  -22.5800  -12.0120   22.4780 H   0  0  0  0  0  0  0  0  0  0  0  0
  -21.2660  -13.1450   22.3440 H   0  0  0  0  0  0  0  0  0  0  0  0
  -25.4620  -15.2760   20.2940 N   0  0  0  0  0  0  0  0  0  0  0  0
  -24.7040  -15.9300   20.4580 H   0  0  0  0  0  0  0  0  0  0  0  0
  -26.2940  -15.7250   19.9340 H   0  0  0  0  0  0  0  0  0  0  0  0
  -27.8600  -25.0120   20.8660 C   0  0  0  0  0  3  0  0  0  0  0  0
  -28.1100  -23.6080   20.9220 C   0  0  0  0  0  0  0  0  0  0  0  0
  -27.2560  -22.9100   21.9900 C   0  0  0  0  0  1  0  0  0  0  0  0
  -28.2400  -26.2410   20.2030 O   0  0  0  0  0  0  0  0  0  0  0  0
  -24.6280  -31.9040   23.2130 C   0  0  0  0  0  0  0  0  0  0  0  0
  -27.2310  -27.2590   20.1460 C   0  0  0  0  0  0  0  0  0  0  0  0
  -23.4340  -30.5180   21.5610 C   0  0  0  0  0  3  0  0  0  0  0  0
  -24.8930  -28.9660   20.1250 C   0  0  0  0  0  0  0  0  0  0  0  0
  -25.9850  -30.8020   21.4020 C   0  0  0  0  0  2  0  0  0  0  0  0
  -26.0680  -29.4190   20.7410 C   0  0  0  0  0  0  0  0  0  0  0  0
  -27.2410  -28.5790   20.7410 C   0  0  0  0  0  3  0  0  0  0  0  0
  -26.0360  -26.9020   19.4880 C   0  0  0  0  0  3  0  0  0  0  0  0
  -24.8870  -27.7190   19.4830 C   0  0  0  0  0  3  0  0  0  0  0  0
  -23.6590  -29.8510   20.1780 C   0  0  0  0  0  2  0  0  0  0  0  0
  -24.7010  -31.0950   22.1150 N   0  0  0  0  0  0  0  0  0  0  0  0
  -23.5400  -32.1810   23.7420 O   0  0  0  0  0  0  0  0  0  0  0  0
  -22.7570  -29.5020   22.5140 C   0  0  0  0  0  0  0  0  0  0  0  0
  -21.4260  -29.3390   22.3920 N   0  0  0  0  0  0  0  0  0  0  0  0
  -23.4300  -28.8620   23.3250 O   0  0  0  0  0  0  0  0  0  0  0  0
  -20.9410  -29.9030   21.7090 H   0  0  0  0  0  0  0  0  0  0  0  0
  -18.0390  -28.1720   22.9180 C   0  0  0  0  0  0  0  0  0  0  0  0
  -20.6040  -28.3980   23.1560 C   0  0  0  0  0  3  0  0  0  0  0  0
  -20.6810  -26.9750   22.5570 C   0  0  0  0  0  2  0  0  0  0  0  0
  -19.5630  -26.6820   21.5510 C   0  0  0  0  0  2  0  0  0  0  0  0
  -18.1900  -26.8330   22.2140 C   0  0  0  0  0  2  0  0  0  0  0  0
  -19.1720  -28.9120   23.3460 C   0  0  0  0  0  0  0  0  0  0  0  0
  -18.9760  -30.1650   23.9670 C   0  0  0  0  0  3  0  0  0  0  0  0
  -17.6800  -30.6780   24.1610 C   0  0  0  0  0  3  0  0  0  0  0  0
  -16.5610  -29.9340   23.7480 C   0  0  0  0  0  3  0  0  0  0  0  0
  -16.7410  -28.6820   23.1330 C   0  0  0  0  0  3  0  0  0  0  0  0
  -25.9050  -32.5360   23.8460 C   0  0  0  0  0  3  0  0  0  0  0  0
  -26.4010  -31.7730   25.1360 C   0  0  1  0  0  0  0  0  0  0  0  0
  -25.2930  -31.5510   26.1920 C   0  0  0  0  0  1  0  0  0  0  0  0
  -26.9820  -30.3880   24.7680 C   0  0  0  0  0  1  0  0  0  0  0  0
  -27.5480  -32.5670   25.8060 C   0  0  0  0  0  1  0  0  0  0  0  0
  -25.5990  -33.9390   24.1650 N   0  0  0  0  0  0  0  0  0  0  0  0
  -25.9370  -34.9870   23.4020 C   0  0  0  0  0  0  0  0  0  0  0  0
  -26.6070  -34.8740   22.3730 O   0  0  0  0  0  0  0  0  0  0  0  0
  -25.0060  -34.1010   24.9660 H   0  0  0  0  0  0  0  0  0  0  0  0
  -24.2230  -36.7920   23.0370 C   0  0  0  0  0  1  0  0  0  0  0  0
  -25.4590  -36.3820   23.8530 C   0  0  0  0  0  3  0  0  0  0  0  0
  -27.5930  -37.2630   24.6890 C   0  0  0  0  0  1  0  0  0  0  0  0
  -26.4980  -37.4270   23.7360 N   0  0  0  0  0  0  0  0  0  0  0  0
  -26.0970  -38.3510   23.8710 H   0  0  0  0  0  0  0  0  0  0  0  0
  1  2  1  0
  1 50  1  0
  2  4  1  0
  3  1  2  0
  6  9  1  0
  6  7  2  0
  7 19  1  0
  7  5  1  0
  8  2  1  0
  8  5  2  0
  9  8  1  0
 10  9  1  0
 11 19  1  0
 12 17  1  0
 13 14  1  0
 13 12  1  0
 15 14  1  0
 15 24  1  0
 15 16  1  0
 17 11  1  0
 17 16  1  0
 18 11  2  0
 19 20  1  0
 21 22  2  0
 22 41  1  0
 23 22  1  0
 23 26  1  0
 24 25  1  0
 24 21  1  0
 25 23  2  0
 26 27  1  0
 27 28  2  0
 29 32  1  0
 29 28  1  0
 30 29  2  0
 31 30  1  0
 31 26  2  0
 32 33  1  0
 33 34  1  0
 34 35  2  0
 36 35  1  0
 36 40  1  0
 37 36  2  0
 38 33  2  0
 38 37  1  0
 39 38  1  0
 41 42  1  0
 42 45  1  0
 42 44  1  0
 43 41  2  0
 46 21  1  0
 46 47  1  0
 48 46  1  0
 49 50  2  0
 50 51  1  0
 52 49  1  0
 53 64  2  0
 54 52  1  0
 54 59  1  0
 55 63  1  0
 55 65  1  0
 56 62  1  0
 56 58  1  0
 57 63  1  0
 58 57  1  0
 59 58  2  0
 60 54  2  0
 61 60  1  0
 61 56  2  0
 62 55  1  0
 63 53  1  0
 65 67  2  0
 66 65  1  0
 68 66  1  0
 69 78  2  0
 69 74  1  0
 70 66  1  0
 70 74  1  0
 71 70  1  0
 72 73  1  0
 72 71  1  0
 73 69  1  0
 74 75  2  0
 75 76  1  0
 77 76  2  0
 78 77  1  0
 79 53  1  0
 79 84  1  0
 79 80  1  0
 80 83  1  1
 80 81  1  0
 82 80  1  0
 84 87  1  0
 85 89  1  0
 85 84  1  0
 86 85  2  0
 89 88  1  0
 91 89  1  0
 91 92  1  0
 91 90  1  0
M  ISO  4  11 100  19 100  49 101  52 101
M  END
>  <TORSDO>  (20) 
F 18

>  <SCORE>  (20) 
-14.386

>  <name>  (20) 
19

>  <ligand_id>  (20) 
19

>  <original_smiles>  (20) 
[H]C(Oc1c([H])c([H])c2c(c1[H])C([H])([H])N(C(=O)C([H])(N([H])C(=O)C([H])(N([H])C([H])([H])[H])C([H])([H])[H])C(C([H])([H])[H])(C([H])([H])[H])C([H])([H])[H])C([H])(C(=O)N([H])C1([H])c3c([H])c([H])c([H])c([H])c3C([H])([H])C([H])([H])C1([H])[H])C2([H])[H])=C(C(=O)N([H])c1c([H])c(N([H])C(=O)N2C([H])([H])C([H])([H])C([H])([H])C([H])(n3nc(-c4c([H])c([H])c(Oc5c([H])c([H])c(F)c([H])c5F)c([H])c4[H])c(C(=O)N([H])[H])c3N([H])[H])C2([H])[H])c([H])n1[H])C([H])([H])[H]

>  <smiles>  (20) 
[H]C(Oc1c([H])c([H])c2c(c1[H])C([H])([H])N(C(=O)C([H])(N([H])C(=O)C([H])(N([H])C([H])([H])[H])C([H])([H])[H])C(C([H])([H])[H])(C([H])([H])[H])C([H])([H])[H])C([H])(C(=O)N([H])C1([H])c3c([H])c([H])c([H])c([H])c3C([H])([H])C([H])([H])C1([H])[H])C2([H])[H])=C(C(=O)N([H])c1c([H])c(N([H])C(=O)N2C([H])([H])C([H])([H])C([H])([H])C([H])(n3nc(-c4c([H])c([H])c(Oc5c([H])c([H])c(F)c([H])c5F)c([H])c4[H])c(C(=O)N([H])[H])c3N([H])[H])C2([H])[H])c([H])n1[H])C([H])([H])[H]

$$$$
20:0:0
     RDKit          3D

 94103  0  0  1  0  0  0  0  0999 V2000
  -29.7770  -22.3680   18.0240 C   0  0  0  0  0  0  0  0  0  0  0  0
  -28.8270  -23.2210   20.1840 C   0  0  0  0  0  0  0  0  0  0  0  0
  -30.7330  -21.7050   17.3280 C   0  0  0  0  0  2  0  0  0  0  0  0
  -28.0410  -24.4280   20.4870 C   0  0  0  0  0  0  0  0  0  0  0  0
  -30.0560  -23.2760   19.2500 C   0  0  0  0  0  2  0  0  0  0  0  0
  -28.2800  -22.1240   17.7970 C   0  0  0  0  0  2  0  0  0  0  0  0
  -27.6210  -21.4990   19.0760 C   0  0  0  0  0  2  0  0  0  0  0  0
  -26.7030  -24.1650   21.1520 C   0  0  0  0  0  1  0  0  0  0  0  0
  -28.4540  -21.7440   20.2750 N   0  0  0  0  0  0  0  0  0  0  0  0
  -31.5160  -19.5520   21.1080 C   0  0  0  0  0  3  0  0  0  0  0  0
  -30.5700  -20.6110   21.0670 C   0  0  0  0  0  3  0  0  0  0  0  0
  -31.2010  -18.2040   20.8340 C   0  0  0  0  0  3  0  0  0  0  0  0
  -28.9340  -18.9740   20.4300 C   0  0  0  0  0  3  0  0  0  0  0  0
  -29.2530  -20.4600   20.5700 C   0  0  0  0  0  0  0  0  0  0  0  0
  -29.8760  -17.7910   20.5640 C   0  0  0  0  0  0  0  0  0  0  0  0
  -30.4350  -15.0590   20.3390 C   0  0  0  0  0  0  0  0  0  0  0  0
  -30.3880  -12.6990   19.3560 C   0  0  0  0  0  2  0  0  0  0  0  0
  -29.4360  -12.5940   18.1410 C   0  0  0  0  0  2  0  0  0  0  0  0
  -27.9830  -12.3520   18.5890 C   0  0  0  0  0  2  0  0  0  0  0  0
  -27.5710  -13.2760   19.7630 C   0  0  0  0  0  3  0  0  0  0  0  0
  -28.6300  -13.3150   20.8800 C   0  0  0  0  0  2  0  0  0  0  0  0
  -29.8760  -13.7760   20.2580 N   0  0  0  0  0  0  0  0  0  0  0  0
  -31.6430  -15.1200   20.0680 O   0  0  0  0  0  0  0  0  0  0  0  0
  -29.6210  -16.2450   20.4960 N   0  0  0  0  0  0  0  0  0  0  0  0
  -28.6480  -15.9940   20.6140 H   0  0  0  0  0  0  0  0  0  0  0  0
  -25.2020  -13.8350   20.5420 C   0  0  0  0  0  0  0  0  0  0  0  0
  -24.1490  -13.0500   20.9080 C   0  0  0  0  0  0  0  0  0  0  0  0
  -24.6170  -11.7010   20.8570 C   0  0  0  0  0  0  0  0  0  0  0  0
  -26.2440  -12.9640   20.2750 N   0  0  0  0  0  0  0  0  0  0  0  0
  -25.9050  -11.6750   20.5320 N   0  0  0  0  0  0  0  0  0  0  0  0
  -23.9020  -10.4340   21.0480 C   0  0  0  0  0  0  0  0  0  0  0  0
  -24.3450   -9.4670   21.9740 C   0  0  0  0  0  3  0  0  0  0  0  0
  -23.6300   -8.2650   22.1520 C   0  0  0  0  0  3  0  0  0  0  0  0
  -22.4530   -8.0220   21.4030 C   0  0  0  0  0  0  0  0  0  0  0  0
  -22.0260   -8.9820   20.4680 C   0  0  0  0  0  3  0  0  0  0  0  0
  -22.7430  -10.1770   20.2890 C   0  0  0  0  0  3  0  0  0  0  0  0
  -21.7060   -6.8740   21.4920 O   0  0  0  0  0  0  0  0  0  0  0  0
  -21.6640   -6.1300   22.6430 C   0  0  0  0  0  0  0  0  0  0  0  0
  -21.2170   -6.6730   23.8680 C   0  0  0  0  0  3  0  0  0  0  0  0
  -21.1240   -5.8520   25.0100 C   0  0  0  0  0  3  0  0  0  0  0  0
  -21.4660   -4.4900   24.9280 C   0  0  0  0  0  0  0  0  0  0  0  0
  -21.9060   -3.9460   23.7080 C   0  0  0  0  0  3  0  0  0  0  0  0
  -22.0010   -4.7620   22.5690 C   0  0  0  0  0  0  0  0  0  0  0  0
  -22.4060   -4.2290   21.3910 F   0  0  0  0  0  0  0  0  0  0  0  0
  -21.3690   -3.7000   26.0220 F   0  0  0  0  0  0  0  0  0  0  0  0
  -22.7520  -13.5200   21.1970 C   0  0  0  0  0  0  0  0  0  0  0  0
  -22.0390  -12.8190   22.0710 N   0  0  0  0  0  0  0  0  0  0  0  0
  -22.3020  -14.5420   20.6830 O   0  0  0  0  0  0  0  0  0  0  0  0
  -22.4180  -11.9900   22.5070 H   0  0  0  0  0  0  0  0  0  0  0  0
  -21.1010  -13.1130   22.3080 H   0  0  0  0  0  0  0  0  0  0  0  0
  -25.3560  -15.2100   20.4000 N   0  0  0  0  0  0  0  0  0  0  0  0
  -24.5960  -15.8470   20.6120 H   0  0  0  0  0  0  0  0  0  0  0  0
  -26.2130  -15.6860   20.1560 H   0  0  0  0  0  0  0  0  0  0  0  0
  -28.2510  -25.9220   20.2730 O   0  0  0  0  0  0  0  0  0  0  0  0
  -24.6580  -31.8560   23.2500 C   0  0  0  0  0  0  0  0  0  0  0  0
  -27.2210  -26.9930   20.2460 C   0  0  0  0  0  0  0  0  0  0  0  0
  -23.4660  -30.4680   21.6040 C   0  0  0  0  0  3  0  0  0  0  0  0
  -24.9110  -28.8450   20.2040 C   0  0  0  0  0  0  0  0  0  0  0  0
  -26.0290  -30.6600   21.4770 C   0  0  0  0  0  2  0  0  0  0  0  0
  -26.0930  -29.2500   20.8340 C   0  0  0  0  0  0  0  0  0  0  0  0
  -27.2400  -28.3460   20.8360 C   0  0  0  0  0  3  0  0  0  0  0  0
  -26.0140  -26.7390   19.5500 C   0  0  0  0  0  3  0  0  0  0  0  0
  -24.8890  -27.6040   19.5460 C   0  0  0  0  0  3  0  0  0  0  0  0
  -23.6950  -29.7650   20.2380 C   0  0  0  0  0  2  0  0  0  0  0  0
  -24.7400  -31.0260   22.1610 N   0  0  0  0  0  0  0  0  0  0  0  0
  -23.5710  -32.1570   23.7650 O   0  0  0  0  0  0  0  0  0  0  0  0
  -22.7630  -29.4850   22.5730 C   0  0  0  0  0  0  0  0  0  0  0  0
  -21.4340  -29.3240   22.4410 N   0  0  0  0  0  0  0  0  0  0  0  0
  -23.4190  -28.8650   23.4130 O   0  0  0  0  0  0  0  0  0  0  0  0
  -20.9620  -29.8720   21.7370 H   0  0  0  0  0  0  0  0  0  0  0  0
  -18.0390  -28.1470   22.9500 C   0  0  0  0  0  0  0  0  0  0  0  0
  -20.6000  -28.3970   23.2150 C   0  0  0  0  0  3  0  0  0  0  0  0
  -20.6920  -26.9630   22.6460 C   0  0  0  0  0  2  0  0  0  0  0  0
  -19.5860  -26.6500   21.6280 C   0  0  0  0  0  2  0  0  0  0  0  0
  -18.2040  -26.8010   22.2680 C   0  0  0  0  0  2  0  0  0  0  0  0
  -19.1600  -28.9070   23.3770 C   0  0  0  0  0  0  0  0  0  0  0  0
  -18.9430  -30.1660   23.9760 C   0  0  0  0  0  3  0  0  0  0  0  0
  -17.6390  -30.6680   24.1470 C   0  0  0  0  0  3  0  0  0  0  0  0
  -16.5350  -29.9100   23.7210 C   0  0  0  0  0  3  0  0  0  0  0  0
  -16.7330  -28.6500   23.1290 C   0  0  0  0  0  3  0  0  0  0  0  0
  -25.9340  -32.4890   23.8870 C   0  0  0  0  0  3  0  0  0  0  0  0
  -25.6260  -33.8910   24.2200 N   0  0  0  0  0  0  0  0  0  0  0  0
  -25.9420  -34.9470   23.4620 C   0  0  0  0  0  0  0  0  0  0  0  0
  -26.5950  -34.8450   22.4160 O   0  0  0  0  0  0  0  0  0  0  0  0
  -25.0450  -34.0400   25.0340 H   0  0  0  0  0  0  0  0  0  0  0  0
  -24.1960  -36.7340   23.1570 C   0  0  0  0  0  1  0  0  0  0  0  0
  -25.4660  -36.3380   23.9290 C   0  0  0  0  0  3  0  0  0  0  0  0
  -27.6230  -37.2380   24.6860 C   0  0  0  0  0  1  0  0  0  0  0  0
  -26.4910  -37.3960   23.7760 N   0  0  0  0  0  0  0  0  0  0  0  0
  -26.0840  -38.3170   23.9230 H   0  0  0  0  0  0  0  0  0  0  0  0
  -26.4160  -31.7260   25.1830 C   0  0  1  0  0  0  0  0  0  0  0  0
  -25.3030  -31.5180   26.2390 C   0  0  0  0  0  1  0  0  0  0  0  0
  -26.9900  -30.3400   24.8220 C   0  0  0  0  0  1  0  0  0  0  0  0
  -27.5660  -32.5170   25.8560 C   0  0  0  0  0  1  0  0  0  0  0  0
  1  5  1  0
  2  9  1  0
  2  4  2  0
  3  1  2  0
  4  8  1  0
  5  2  1  0
  6  1  1  0
  6  7  1  0
  7  9  1  0
  9 14  1  0
 11 10  1  0
 12 10  2  0
 13 15  2  0
 13 14  1  0
 14 11  2  0
 15 12  1  0
 16 24  1  0
 17 22  1  0
 18 19  1  0
 18 17  1  0
 20 19  1  0
 20 29  1  0
 20 21  1  0
 22 16  1  0
 22 21  1  0
 23 16  2  0
 24 15  1  0
 24 25  1  0
 26 27  2  0
 27 46  1  0
 28 27  1  0
 28 31  1  0
 29 30  1  0
 29 26  1  0
 30 28  2  0
 31 32  1  0
 32 33  2  0
 34 37  1  0
 34 33  1  0
 35 34  2  0
 36 35  1  0
 36 31  2  0
 37 38  1  0
 38 39  1  0
 39 40  2  0
 41 40  1  0
 41 45  1  0
 42 41  2  0
 43 38  2  0
 43 42  1  0
 44 43  1  0
 46 47  1  0
 47 50  1  0
 47 49  1  0
 48 46  2  0
 51 26  1  0
 51 52  1  0
 53 51  1  0
 54  4  1  0
 55 66  2  0
 56 54  1  0
 56 61  1  0
 57 65  1  0
 57 67  1  0
 58 64  1  0
 58 60  1  0
 59 65  1  0
 60 61  2  0
 60 59  1  0
 62 56  2  0
 63 62  1  0
 63 58  2  0
 64 57  1  0
 65 55  1  0
 67 69  2  0
 68 67  1  0
 70 68  1  0
 71 80  2  0
 71 76  1  0
 72 68  1  0
 72 76  1  0
 73 72  1  0
 74 75  1  0
 74 73  1  0
 75 71  1  0
 76 77  2  0
 77 78  1  0
 79 78  2  0
 80 79  1  0
 81 55  1  0
 81 82  1  0
 81 91  1  0
 82 85  1  0
 83 87  1  0
 83 82  1  0
 84 83  2  0
 87 86  1  0
 89 90  1  0
 89 87  1  0
 89 88  1  0
 91 94  1  1
 91 92  1  0
 93 91  1  0
M  ISO  4   4 101  16 100  24 100  54 101
M  END
>  <TORSDO>  (21) 
F 17

>  <SCORE>  (21) 
-15.479

>  <name>  (21) 
20

>  <ligand_id>  (21) 
20

>  <original_smiles>  (21) 
[H]C([H])=C1C([H])([H])C(=C(Oc2c([H])c([H])c3c(c2[H])C([H])([H])N(C(=O)C([H])(N([H])C(=O)C([H])(N([H])C([H])([H])[H])C([H])([H])[H])C(C([H])([H])[H])(C([H])([H])[H])C([H])([H])[H])C([H])(C(=O)N([H])C2([H])c4c([H])c([H])c([H])c([H])c4C([H])([H])C([H])([H])C2([H])[H])C3([H])[H])C([H])([H])[H])N(c2c([H])c([H])c([H])c(N([H])C(=O)N3C([H])([H])C([H])([H])C([H])([H])C([H])(n4nc(-c5c([H])c([H])c(Oc6c([H])c([H])c(F)c([H])c6F)c([H])c5[H])c(C(=O)N([H])[H])c4N([H])[H])C3([H])[H])c2[H])C([H])([H])C1([H])[H]

>  <smiles>  (21) 
[H]C([H])=C1C([H])([H])C(=C(Oc2c([H])c([H])c3c(c2[H])C([H])([H])N(C(=O)C([H])(N([H])C(=O)C([H])(N([H])C([H])([H])[H])C([H])([H])[H])C(C([H])([H])[H])(C([H])([H])[H])C([H])([H])[H])C([H])(C(=O)N([H])C2([H])c4c([H])c([H])c([H])c([H])c4C([H])([H])C([H])([H])C2([H])[H])C3([H])[H])C([H])([H])[H])N(c2c([H])c([H])c([H])c(N([H])C(=O)N3C([H])([H])C([H])([H])C([H])([H])C([H])(n4nc(-c5c([H])c([H])c(Oc6c([H])c([H])c(F)c([H])c6F)c([H])c5[H])c(C(=O)N([H])[H])c4N([H])[H])C3([H])[H])c2[H])C([H])([H])C1([H])[H]

$$$$
21:0:0
     RDKit          3D

 94102  0  0  1  0  0  0  0  0999 V2000
  -28.8380  -22.5430   20.8650 C   0  0  0  0  0  0  0  0  0  0  0  0
  -29.4370  -21.3880   20.3400 N   0  0  0  0  0  0  0  0  0  0  0  0
  -28.2610  -22.4680   21.9500 O   0  0  0  0  0  0  0  0  0  0  0  0
  -29.6420  -21.4270   19.3520 H   0  0  0  0  0  0  0  0  0  0  0  0
  -30.8320  -19.0200   23.0070 C   0  0  0  0  0  3  0  0  0  0  0  0
  -30.3500  -20.1690   22.3380 C   0  0  0  0  0  3  0  0  0  0  0  0
  -30.8270  -17.7410   22.4100 C   0  0  0  0  0  3  0  0  0  0  0  0
  -29.8680  -18.7690   20.4240 C   0  0  0  0  0  3  0  0  0  0  0  0
  -29.8430  -20.1070   21.0190 C   0  0  0  0  0  0  0  0  0  0  0  0
  -30.3510  -17.5450   21.0970 C   0  0  0  0  0  0  0  0  0  0  0  0
  -31.0560  -14.9990   20.9540 C   0  0  0  0  0  0  0  0  0  0  0  0
  -30.9850  -12.5980   20.2180 C   0  0  0  0  0  2  0  0  0  0  0  0
  -30.1930  -12.4460   18.9010 C   0  0  0  0  0  2  0  0  0  0  0  0
  -28.6830  -12.3160   19.1740 C   0  0  0  0  0  2  0  0  0  0  0  0
  -28.1570  -13.3380   20.2180 C   0  0  0  0  0  3  0  0  0  0  0  0
  -29.0860  -13.4480   21.4450 C   0  0  0  0  0  2  0  0  0  0  0  0
  -30.4280  -13.7650   20.9420 N   0  0  0  0  0  0  0  0  0  0  0  0
  -32.2910  -15.0250   20.9730 O   0  0  0  0  0  0  0  0  0  0  0  0
  -30.3510  -16.1510   20.5210 N   0  0  0  0  0  0  0  0  0  0  0  0
  -25.7230  -13.9870   20.6790 C   0  0  0  0  0  0  0  0  0  0  0  0
  -24.6130  -13.2390   20.9570 C   0  0  0  0  0  0  0  0  0  0  0  0
  -25.0560  -11.8820   21.0270 C   0  0  0  0  0  0  0  0  0  0  0  0
  -26.7710  -13.0850   20.5890 N   0  0  0  0  0  0  0  0  0  0  0  0
  -26.3720  -11.8180   20.8660 N   0  0  0  0  0  0  0  0  0  0  0  0
  -24.2960  -10.6350   21.1750 C   0  0  0  0  0  0  0  0  0  0  0  0
  -24.6380   -9.6740   22.1520 C   0  0  0  0  0  3  0  0  0  0  0  0
  -23.8800   -8.4910   22.2870 C   0  0  0  0  0  3  0  0  0  0  0  0
  -22.7670   -8.2630   21.4460 C   0  0  0  0  0  0  0  0  0  0  0  0
  -22.4450   -9.2110   20.4580 C   0  0  0  0  0  3  0  0  0  0  0  0
  -23.2040  -10.3840   20.3210 C   0  0  0  0  0  3  0  0  0  0  0  0
  -21.9870   -7.1330   21.4900 O   0  0  0  0  0  0  0  0  0  0  0  0
  -21.8500   -6.3980   22.6400 C   0  0  0  0  0  0  0  0  0  0  0  0
  -21.3620   -6.9670   23.8360 C   0  0  0  0  0  3  0  0  0  0  0  0
  -21.1730   -6.1600   24.9760 C   0  0  0  0  0  3  0  0  0  0  0  0
  -21.4620   -4.7830   24.9190 C   0  0  0  0  0  0  0  0  0  0  0  0
  -21.9430   -4.2120   23.7270 C   0  0  0  0  0  3  0  0  0  0  0  0
  -22.1340   -5.0180   22.5910 C   0  0  0  0  0  0  0  0  0  0  0  0
  -22.5780   -4.4600   21.4390 F   0  0  0  0  0  0  0  0  0  0  0  0
  -21.2730   -4.0050   26.0090 F   0  0  0  0  0  0  0  0  0  0  0  0
  -23.2010  -13.7400   21.0540 C   0  0  0  0  0  0  0  0  0  0  0  0
  -22.3750  -13.0950   21.8710 N   0  0  0  0  0  0  0  0  0  0  0  0
  -22.8350  -14.7420   20.4390 O   0  0  0  0  0  0  0  0  0  0  0  0
  -22.6810  -12.2870   22.3930 H   0  0  0  0  0  0  0  0  0  0  0  0
  -21.4230  -13.4150   21.9780 H   0  0  0  0  0  0  0  0  0  0  0  0
  -25.9240  -15.3460   20.4640 N   0  0  0  0  0  0  0  0  0  0  0  0
  -25.1550  -16.0060   20.4330 H   0  0  0  0  0  0  0  0  0  0  0  0
  -26.8120  -15.7600   20.2130 H   0  0  0  0  0  0  0  0  0  0  0  0
  -30.6520  -15.9350   18.1000 C   0  0  0  0  0  2  0  0  0  0  0  0
  -29.8970  -16.1610   19.1920 C   0  0  0  0  0  3  0  0  0  0  0  0
  -28.2460  -25.0380   20.5090 C   0  0  0  0  0  3  0  0  0  0  0  0
  -28.8890  -23.8650   20.0960 C   0  0  0  0  0  0  0  0  0  0  0  0
  -29.6440  -23.9100   18.9880 O   0  0  0  0  0  0  0  0  0  0  0  0
  -30.1690  -23.1200   18.9720 H   0  0  0  0  0  0  0  0  0  0  0  0
  -28.3270  -26.3640   19.9620 O   0  0  0  0  0  0  0  0  0  0  0  0
  -24.6280  -31.8210   23.1190 C   0  0  0  0  0  0  0  0  0  0  0  0
  -27.2220  -27.2490   20.0070 C   0  0  0  0  0  0  0  0  0  0  0  0
  -23.4090  -30.4180   21.4960 C   0  0  0  0  0  3  0  0  0  0  0  0
  -24.8500  -28.8800   20.0370 C   0  0  0  0  0  0  0  0  0  0  0  0
  -25.9450  -30.7490   21.2690 C   0  0  0  0  0  2  0  0  0  0  0  0
  -26.0280  -29.3680   20.6160 C   0  0  0  0  0  0  0  0  0  0  0  0
  -27.2200  -28.5690   20.5810 C   0  0  0  0  0  3  0  0  0  0  0  0
  -26.0190  -26.8270   19.4050 C   0  0  0  0  0  3  0  0  0  0  0  0
  -24.8510  -27.6190   19.4170 C   0  0  0  0  0  3  0  0  0  0  0  0
  -23.6060  -29.7490   20.1100 C   0  0  0  0  0  2  0  0  0  0  0  0
  -24.6800  -31.0150   22.0170 N   0  0  0  0  0  0  0  0  0  0  0  0
  -23.5490  -32.0860   23.6720 O   0  0  0  0  0  0  0  0  0  0  0  0
  -22.7700  -29.3930   22.4650 C   0  0  0  0  0  0  0  0  0  0  0  0
  -21.4420  -29.2120   22.3680 N   0  0  0  0  0  0  0  0  0  0  0  0
  -23.4700  -28.7640   23.2610 O   0  0  0  0  0  0  0  0  0  0  0  0
  -20.9350  -29.7690   21.6940 H   0  0  0  0  0  0  0  0  0  0  0  0
  -18.0840  -27.9810   22.9310 C   0  0  0  0  0  0  0  0  0  0  0  0
  -20.6440  -28.2650   23.1530 C   0  0  0  0  0  3  0  0  0  0  0  0
  -20.7480  -26.8370   22.5700 C   0  0  0  0  0  2  0  0  0  0  0  0
  -19.6300  -26.5080   21.5750 C   0  0  0  0  0  2  0  0  0  0  0  0
  -18.2600  -26.6370   22.2470 C   0  0  0  0  0  2  0  0  0  0  0  0
  -19.2020  -28.7530   23.3420 C   0  0  0  0  0  0  0  0  0  0  0  0
  -18.9810  -30.0120   23.9440 C   0  0  0  0  0  3  0  0  0  0  0  0
  -17.6730  -30.4960   24.1400 C   0  0  0  0  0  3  0  0  0  0  0  0
  -16.5700  -29.7200   23.7430 C   0  0  0  0  0  3  0  0  0  0  0  0
  -16.7770  -28.4640   23.1450 C   0  0  0  0  0  3  0  0  0  0  0  0
  -25.9120  -32.4650   23.7220 C   0  0  0  0  0  3  0  0  0  0  0  0
  -26.4750  -31.6780   24.9700 C   0  0  1  0  0  0  0  0  0  0  0  0
  -25.4150  -31.4020   26.0610 C   0  0  0  0  0  1  0  0  0  0  0  0
  -27.0670  -30.3180   24.5360 C   0  0  0  0  0  1  0  0  0  0  0  0
  -27.6340  -32.4760   25.6130 C   0  0  0  0  0  1  0  0  0  0  0  0
  -25.5830  -33.8510   24.0930 N   0  0  0  0  0  0  0  0  0  0  0  0
  -25.8950  -34.9290   23.3640 C   0  0  0  0  0  0  0  0  0  0  0  0
  -26.5570  -34.8660   22.3250 O   0  0  0  0  0  0  0  0  0  0  0  0
  -24.9920  -33.9740   24.9020 H   0  0  0  0  0  0  0  0  0  0  0  0
  -24.1420  -36.7110   23.0740 C   0  0  0  0  0  1  0  0  0  0  0  0
  -25.3940  -36.2980   23.8650 C   0  0  0  0  0  3  0  0  0  0  0  0
  -27.5230  -37.1830   24.7090 C   0  0  0  0  0  1  0  0  0  0  0  0
  -26.4130  -37.3670   23.7780 N   0  0  0  0  0  0  0  0  0  0  0  0
  -25.9970  -38.2780   23.9590 H   0  0  0  0  0  0  0  0  0  0  0  0
  1  3  2  0
  2  1  1  0
  2  9  1  0
  4  2  1  0
  6  5  2  0
  7  5  1  0
  8  9  2  0
  8 10  1  0
  9  6  1  0
 10  7  2  0
 11 18  2  0
 12 17  1  0
 13 14  1  0
 13 12  1  0
 15 14  1  0
 15 23  1  0
 15 16  1  0
 17 11  1  0
 17 16  1  0
 19 11  1  0
 19 10  1  0
 20 21  2  0
 21 22  1  0
 21 40  1  0
 22 25  1  0
 23 20  1  0
 23 24  1  0
 24 22  2  0
 25 26  1  0
 26 27  2  0
 28 31  1  0
 28 27  1  0
 29 28  2  0
 30 29  1  0
 30 25  2  0
 31 32  1  0
 32 33  1  0
 33 34  2  0
 35 34  1  0
 35 39  1  0
 36 35  2  0
 37 32  2  0
 37 36  1  0
 38 37  1  0
 40 41  1  0
 41 44  1  0
 41 43  1  0
 42 40  2  0
 45 20  1  0
 46 45  1  0
 47 45  1  0
 48 49  2  0
 49 19  1  0
 51 50  2  0
 51  1  1  0
 52 51  1  0
 53 52  1  0
 54 56  1  0
 54 50  1  0
 55 66  2  0
 56 61  1  0
 57 65  1  0
 57 67  1  0
 58 64  1  0
 58 60  1  0
 59 65  1  0
 60 59  1  0
 61 60  2  0
 62 63  1  0
 62 56  2  0
 63 58  2  0
 64 57  1  0
 65 55  1  0
 67 69  2  0
 68 67  1  0
 70 68  1  0
 71 80  2  0
 71 76  1  0
 72 68  1  0
 72 76  1  0
 73 72  1  0
 74 75  1  0
 74 73  1  0
 75 71  1  0
 76 77  2  0
 77 78  1  0
 79 78  2  0
 80 79  1  0
 81 55  1  0
 81 86  1  0
 81 82  1  0
 82 85  1  1
 82 83  1  0
 84 82  1  0
 86 89  1  0
 87 91  1  0
 87 86  1  0
 88 87  2  0
 91 90  1  0
 93 91  1  0
 93 94  1  0
 93 92  1  0
M  ISO  4  11 100  19 100  50 101  54 101
M  END
>  <TORSDO>  (22) 
F 20

>  <SCORE>  (22) 
-12.654

>  <name>  (22) 
21

>  <ligand_id>  (22) 
21

>  <original_smiles>  (22) 
[H]OC(C(=O)N([H])c1c([H])c([H])c([H])c(N(C(=O)N2C([H])([H])C([H])([H])C([H])([H])C([H])(n3nc(-c4c([H])c([H])c(Oc5c([H])c([H])c(F)c([H])c5F)c([H])c4[H])c(C(=O)N([H])[H])c3N([H])[H])C2([H])[H])C([H])=C([H])[H])c1[H])=C([H])Oc1c([H])c([H])c2c(c1[H])C([H])([H])N(C(=O)C([H])(N([H])C(=O)C([H])(N([H])C([H])([H])[H])C([H])([H])[H])C(C([H])([H])[H])(C([H])([H])[H])C([H])([H])[H])C([H])(C(=O)N([H])C1([H])c3c([H])c([H])c([H])c([H])c3C([H])([H])C([H])([H])C1([H])[H])C2([H])[H]

>  <smiles>  (22) 
[H]OC(C(=O)N([H])c1c([H])c([H])c([H])c(N(C(=O)N2C([H])([H])C([H])([H])C([H])([H])C([H])(n3nc(-c4c([H])c([H])c(Oc5c([H])c([H])c(F)c([H])c5F)c([H])c4[H])c(C(=O)N([H])[H])c3N([H])[H])C2([H])[H])C([H])=C([H])[H])c1[H])=C([H])Oc1c([H])c([H])c2c(c1[H])C([H])([H])N(C(=O)C([H])(N([H])C(=O)C([H])(N([H])C([H])([H])[H])C([H])([H])[H])C(C([H])([H])[H])(C([H])([H])[H])C([H])([H])[H])C([H])(C(=O)N([H])C1([H])c3c([H])c([H])c([H])c([H])c3C([H])([H])C([H])([H])C1([H])[H])C2([H])[H]

$$$$
22:0:0
     RDKit          3D

 93102  0  0  1  0  0  0  0  0999 V2000
  -27.9980  -23.2730   21.0590 C   0  0  0  0  0  3  0  0  0  0  0  0
  -28.6750  -23.8200   20.0410 C   0  0  0  0  0  0  0  0  0  0  0  0
  -28.3500  -21.8590   21.2140 C   0  0  0  0  0  0  0  0  0  0  0  0
  -29.4790  -22.6840   19.5130 C   0  0  0  0  0  0  0  0  0  0  0  0
  -29.2480  -21.5350   20.2540 N   0  0  0  0  0  0  0  0  0  0  0  0
  -27.9060  -21.0810   22.0650 O   0  0  0  0  0  0  0  0  0  0  0  0
  -30.2270  -22.7350   18.5300 O   0  0  0  0  0  0  0  0  0  0  0  0
  -32.3220  -19.3120   20.1680 C   0  0  0  0  0  3  0  0  0  0  0  0
  -31.4430  -20.4060   20.1480 C   0  0  0  0  0  3  0  0  0  0  0  0
  -31.8540  -17.9900   20.2420 C   0  0  0  0  0  3  0  0  0  0  0  0
  -29.5800  -18.8460   20.2910 C   0  0  0  0  0  3  0  0  0  0  0  0
  -30.0400  -20.2460   20.2140 C   0  0  0  0  0  0  0  0  0  0  0  0
  -30.4740  -17.6730   20.2850 C   0  0  0  0  0  0  0  0  0  0  0  0
  -30.7840  -15.0350   20.1030 C   0  0  0  0  0  0  0  0  0  0  0  0
  -30.5330  -12.7510   19.1010 C   0  0  0  0  0  2  0  0  0  0  0  0
  -29.5550  -12.8070   17.9080 C   0  0  0  0  0  2  0  0  0  0  0  0
  -28.1070  -12.6140   18.3940 C   0  0  0  0  0  2  0  0  0  0  0  0
  -27.7690  -13.4970   19.6260 C   0  0  0  0  0  3  0  0  0  0  0  0
  -28.8710  -13.4460   20.7050 C   0  0  0  0  0  2  0  0  0  0  0  0
  -30.1320  -13.8170   20.0550 N   0  0  0  0  0  0  0  0  0  0  0  0
  -31.9610  -15.0600   19.7380 O   0  0  0  0  0  0  0  0  0  0  0  0
  -30.0660  -16.2190   20.3440 N   0  0  0  0  0  0  0  0  0  0  0  0
  -29.0900  -16.0600   20.5460 H   0  0  0  0  0  0  0  0  0  0  0  0
  -25.4180  -14.0540   20.4810 C   0  0  0  0  0  0  0  0  0  0  0  0
  -24.3710  -13.2650   20.8720 C   0  0  0  0  0  0  0  0  0  0  0  0
  -24.8340  -11.9170   20.7790 C   0  0  0  0  0  0  0  0  0  0  0  0
  -26.4510  -13.1850   20.1700 N   0  0  0  0  0  0  0  0  0  0  0  0
  -26.1110  -11.8920   20.4140 N   0  0  0  0  0  0  0  0  0  0  0  0
  -24.1170  -10.6470   20.9590 C   0  0  0  0  0  0  0  0  0  0  0  0
  -24.5490   -9.6800   21.8940 C   0  0  0  0  0  3  0  0  0  0  0  0
  -23.8310   -8.4770   22.0640 C   0  0  0  0  0  3  0  0  0  0  0  0
  -22.6660   -8.2320   21.2970 C   0  0  0  0  0  0  0  0  0  0  0  0
  -22.2540   -9.1880   20.3520 C   0  0  0  0  0  3  0  0  0  0  0  0
  -22.9730  -10.3820   20.1810 C   0  0  0  0  0  3  0  0  0  0  0  0
  -21.9190   -7.0810   21.3760 O   0  0  0  0  0  0  0  0  0  0  0  0
  -21.8130   -6.3700   22.5440 C   0  0  0  0  0  0  0  0  0  0  0  0
  -21.2670   -6.9390   23.7160 C   0  0  0  0  0  3  0  0  0  0  0  0
  -21.1130   -6.1510   24.8740 C   0  0  0  0  0  3  0  0  0  0  0  0
  -21.4940   -4.7970   24.8620 C   0  0  0  0  0  0  0  0  0  0  0  0
  -22.0340   -4.2280   23.6950 C   0  0  0  0  0  3  0  0  0  0  0  0
  -22.1890   -5.0120   22.5390 C   0  0  0  0  0  0  0  0  0  0  0  0
  -22.6900   -4.4530   21.4110 F   0  0  0  0  0  0  0  0  0  0  0  0
  -21.3390   -4.0380   25.9730 F   0  0  0  0  0  0  0  0  0  0  0  0
  -22.9860  -13.7310   21.2170 C   0  0  0  0  0  0  0  0  0  0  0  0
  -22.2960  -13.0060   22.0910 N   0  0  0  0  0  0  0  0  0  0  0  0
  -22.5280  -14.7700   20.7470 O   0  0  0  0  0  0  0  0  0  0  0  0
  -22.6820  -12.1650   22.4920 H   0  0  0  0  0  0  0  0  0  0  0  0
  -21.3690  -13.2990   22.3630 H   0  0  0  0  0  0  0  0  0  0  0  0
  -25.5710  -15.4290   20.3380 N   0  0  0  0  0  0  0  0  0  0  0  0
  -24.8040  -16.0740   20.4960 H   0  0  0  0  0  0  0  0  0  0  0  0
  -26.3920  -15.8800   19.9550 H   0  0  0  0  0  0  0  0  0  0  0  0
  -28.5500  -25.2810   19.3780 C   0  0  0  0  0  2  0  0  0  0  0  0
  -28.4080  -26.5740   20.1490 O   0  0  0  0  0  0  0  0  0  0  0  0
  -24.6300  -31.9660   23.2260 C   0  0  0  0  0  0  0  0  0  0  0  0
  -27.2870  -27.4440   20.0700 C   0  0  0  0  0  0  0  0  0  0  0  0
  -23.4390  -30.5740   21.5730 C   0  0  0  0  0  3  0  0  0  0  0  0
  -24.9030  -29.0680   20.1040 C   0  0  0  0  0  0  0  0  0  0  0  0
  -25.9760  -30.9210   21.3800 C   0  0  0  0  0  2  0  0  0  0  0  0
  -26.0720  -29.5500   20.7050 C   0  0  0  0  0  0  0  0  0  0  0  0
  -27.2610  -28.7490   20.6790 C   0  0  0  0  0  3  0  0  0  0  0  0
  -26.0860  -27.0300   19.4510 C   0  0  0  0  0  3  0  0  0  0  0  0
  -24.9170  -27.8170   19.4680 C   0  0  0  0  0  3  0  0  0  0  0  0
  -23.6540  -29.9260   20.1790 C   0  0  0  0  0  2  0  0  0  0  0  0
  -24.7020  -31.1730   22.1160 N   0  0  0  0  0  0  0  0  0  0  0  0
  -23.5450  -32.2170   23.7720 O   0  0  0  0  0  0  0  0  0  0  0  0
  -22.7980  -29.5320   22.5220 C   0  0  0  0  0  0  0  0  0  0  0  0
  -21.4740  -29.3330   22.4030 N   0  0  0  0  0  0  0  0  0  0  0  0
  -23.4930  -28.9070   23.3280 O   0  0  0  0  0  0  0  0  0  0  0  0
  -20.9710  -29.8920   21.7290 H   0  0  0  0  0  0  0  0  0  0  0  0
  -18.1220  -28.0670   22.9140 C   0  0  0  0  0  0  0  0  0  0  0  0
  -20.6780  -28.3690   23.1650 C   0  0  0  0  0  3  0  0  0  0  0  0
  -20.8000  -26.9500   22.5650 C   0  0  0  0  0  2  0  0  0  0  0  0
  -19.6950  -26.6240   21.5550 C   0  0  0  0  0  2  0  0  0  0  0  0
  -18.3160  -26.7330   22.2130 C   0  0  0  0  0  2  0  0  0  0  0  0
  -19.2310  -28.8420   23.3480 C   0  0  0  0  0  0  0  0  0  0  0  0
  -18.9940  -30.0900   23.9640 C   0  0  0  0  0  3  0  0  0  0  0  0
  -17.6820  -30.5640   24.1510 C   0  0  0  0  0  3  0  0  0  0  0  0
  -16.5880  -29.7860   23.7340 C   0  0  0  0  0  3  0  0  0  0  0  0
  -16.8090  -28.5390   23.1210 C   0  0  0  0  0  3  0  0  0  0  0  0
  -25.9040  -32.6120   23.8500 C   0  0  0  0  0  3  0  0  0  0  0  0
  -25.5820  -34.0100   24.1750 N   0  0  0  0  0  0  0  0  0  0  0  0
  -25.9090  -35.0660   23.4180 C   0  0  0  0  0  0  0  0  0  0  0  0
  -26.5850  -34.9660   22.3910 O   0  0  0  0  0  0  0  0  0  0  0  0
  -24.9810  -34.1600   24.9720 H   0  0  0  0  0  0  0  0  0  0  0  0
  -24.1800  -36.8550   23.0450 C   0  0  0  0  0  1  0  0  0  0  0  0
  -25.4110  -36.4520   23.8730 C   0  0  0  0  0  3  0  0  0  0  0  0
  -27.5250  -37.3480   24.7450 C   0  0  0  0  0  1  0  0  0  0  0  0
  -26.4420  -37.5090   23.7780 N   0  0  0  0  0  0  0  0  0  0  0  0
  -26.0290  -38.4270   23.9140 H   0  0  0  0  0  0  0  0  0  0  0  0
  -26.4220  -31.8530   25.1320 C   0  0  1  0  0  0  0  0  0  0  0  0
  -25.3250  -31.6030   26.1940 C   0  0  0  0  0  1  0  0  0  0  0  0
  -27.0280  -30.4830   24.7520 C   0  0  0  0  0  1  0  0  0  0  0  0
  -27.5560  -32.6660   25.8010 C   0  0  0  0  0  1  0  0  0  0  0  0
  1  3  1  0
  2  1  2  0
  3  6  2  0
  4  2  1  0
  4  5  1  0
  5  3  1  0
  7  4  2  0
  8 10  1  0
  9  8  2  0
  9 12  1  0
 10 13  2  0
 12  5  1  0
 12 11  2  0
 13 11  1  0
 13 22  1  0
 14 22  1  0
 15 20  1  0
 16 17  1  0
 16 15  1  0
 18 17  1  0
 18 27  1  0
 18 19  1  0
 20 14  1  0
 20 19  1  0
 21 14  2  0
 22 23  1  0
 24 25  2  0
 25 44  1  0
 26 25  1  0
 26 29  1  0
 27 28  1  0
 27 24  1  0
 28 26  2  0
 29 30  1  0
 30 31  2  0
 32 35  1  0
 32 31  1  0
 33 32  2  0
 34 33  1  0
 34 29  2  0
 35 36  1  0
 36 37  1  0
 37 38  2  0
 39 38  1  0
 39 43  1  0
 40 39  2  0
 41 36  2  0
 41 40  1  0
 42 41  1  0
 44 45  1  0
 45 48  1  0
 45 47  1  0
 46 44  2  0
 49 24  1  0
 49 50  1  0
 51 49  1  0
 52  2  1  0
 52 53  1  0
 54 65  2  0
 55 53  1  0
 55 60  1  0
 56 64  1  0
 56 66  1  0
 57 63  1  0
 57 59  1  0
 58 64  1  0
 59 58  1  0
 60 59  2  0
 61 62  1  0
 61 55  2  0
 62 57  2  0
 63 56  1  0
 64 54  1  0
 66 68  2  0
 67 66  1  0
 69 67  1  0
 70 79  2  0
 70 75  1  0
 71 67  1  0
 71 75  1  0
 72 71  1  0
 73 74  1  0
 73 72  1  0
 74 70  1  0
 75 76  2  0
 76 77  1  0
 78 77  2  0
 79 78  1  0
 80 54  1  0
 80 81  1  0
 80 90  1  0
 81 84  1  0
 82 86  1  0
 82 81  1  0
 83 82  2  0
 86 85  1  0
 88 86  1  0
 88 89  1  0
 88 87  1  0
 90 93  1  1
 90 91  1  0
 92 90  1  0
M  ISO  4  14 100  22 100  52 101  53 101
M  END
>  <TORSDO>  (23) 
F 18

>  <SCORE>  (23) 
-14.060

>  <name>  (23) 
22

>  <ligand_id>  (23) 
22

>  <original_smiles>  (23) 
[H]C1=C(C([H])([H])Oc2c([H])c([H])c3c(c2[H])C([H])([H])N(C(=O)C([H])(N([H])C(=O)C([H])(N([H])C([H])([H])[H])C([H])([H])[H])C(C([H])([H])[H])(C([H])([H])[H])C([H])([H])[H])C([H])(C(=O)N([H])C2([H])c4c([H])c([H])c([H])c([H])c4C([H])([H])C([H])([H])C2([H])[H])C3([H])[H])C(=O)N(c2c([H])c([H])c([H])c(N([H])C(=O)N3C([H])([H])C([H])([H])C([H])([H])C([H])(n4nc(-c5c([H])c([H])c(Oc6c([H])c([H])c(F)c([H])c6F)c([H])c5[H])c(C(=O)N([H])[H])c4N([H])[H])C3([H])[H])c2[H])C1=O

>  <smiles>  (23) 
[H]C1=C(C([H])([H])Oc2c([H])c([H])c3c(c2[H])C([H])([H])N(C(=O)C([H])(N([H])C(=O)C([H])(N([H])C([H])([H])[H])C([H])([H])[H])C(C([H])([H])[H])(C([H])([H])[H])C([H])([H])[H])C([H])(C(=O)N([H])C2([H])c4c([H])c([H])c([H])c([H])c4C([H])([H])C([H])([H])C2([H])[H])C3([H])[H])C(=O)N(c2c([H])c([H])c([H])c(N([H])C(=O)N3C([H])([H])C([H])([H])C([H])([H])C([H])(n4nc(-c5c([H])c([H])c(Oc6c([H])c([H])c(F)c([H])c6F)c([H])c5[H])c(C(=O)N([H])[H])c4N([H])[H])C3([H])[H])c2[H])C1=O

$$$$
23:0:0
     RDKit          3D

 93102  0  0  1  0  0  0  0  0999 V2000
  -28.9100  -23.9800   20.1980 C   0  0  0  0  0  0  0  0  0  0  0  0
  -30.2120  -23.8990   19.6010 C   0  0  0  0  0  0  0  0  0  0  0  0
  -28.5400  -22.5700   20.5170 C   0  0  0  0  0  0  0  0  0  0  0  0
  -30.9600  -24.9410   19.1960 C   0  0  0  0  0  2  0  0  0  0  0  0
  -28.1150  -25.0870   20.4450 C   0  0  0  0  0  3  0  0  0  0  0  0
  -30.6410  -22.4510   19.5150 C   0  0  0  0  0  2  0  0  0  0  0  0
  -29.5390  -21.6880   20.1290 N   0  0  0  0  0  0  0  0  0  0  0  0
  -27.4800  -22.2310   21.0530 O   0  0  0  0  0  0  0  0  0  0  0  0
  -28.6300  -19.3790   20.8520 C   0  0  0  0  0  3  0  0  0  0  0  0
  -30.7300  -19.4610   19.7180 C   0  0  0  0  0  3  0  0  0  0  0  0
  -28.7430  -17.9550   20.9310 C   0  0  0  0  0  3  0  0  0  0  0  0
  -30.8460  -18.0320   19.7950 C   0  0  0  0  0  3  0  0  0  0  0  0
  -29.6180  -20.2000   20.2360 C   0  0  0  0  0  0  0  0  0  0  0  0
  -29.8470  -17.2260   20.4060 C   0  0  0  0  0  0  0  0  0  0  0  0
  -30.6310  -14.7350   20.0310 C   0  0  0  0  0  0  0  0  0  0  0  0
  -30.3970  -12.5070   18.9320 C   0  0  0  0  0  2  0  0  0  0  0  0
  -29.3770  -12.6460   17.7780 C   0  0  0  0  0  2  0  0  0  0  0  0
  -27.9340  -12.4630   18.2900 C   0  0  0  0  0  2  0  0  0  0  0  0
  -27.6450  -13.2930   19.5690 C   0  0  0  0  0  3  0  0  0  0  0  0
  -28.7710  -13.1160   20.6130 C   0  0  0  0  0  2  0  0  0  0  0  0
  -30.0380  -13.4960   19.9700 N   0  0  0  0  0  0  0  0  0  0  0  0
  -31.7570  -14.9220   19.5570 O   0  0  0  0  0  0  0  0  0  0  0  0
  -29.8400  -15.7550   20.5130 N   0  0  0  0  0  0  0  0  0  0  0  0
  -29.0020  -15.3880   20.9370 H   0  0  0  0  0  0  0  0  0  0  0  0
  -25.3040  -13.8690   20.4580 C   0  0  0  0  0  0  0  0  0  0  0  0
  -24.2610  -13.0850   20.8680 C   0  0  0  0  0  0  0  0  0  0  0  0
  -24.7150  -11.7350   20.7610 C   0  0  0  0  0  0  0  0  0  0  0  0
  -26.3290  -12.9960   20.1270 N   0  0  0  0  0  0  0  0  0  0  0  0
  -25.9830  -11.7050   20.3680 N   0  0  0  0  0  0  0  0  0  0  0  0
  -23.9990  -10.4680   20.9530 C   0  0  0  0  0  0  0  0  0  0  0  0
  -24.4480   -9.4970   21.8760 C   0  0  0  0  0  3  0  0  0  0  0  0
  -23.7320   -8.2950   22.0580 C   0  0  0  0  0  3  0  0  0  0  0  0
  -22.5510   -8.0530   21.3150 C   0  0  0  0  0  0  0  0  0  0  0  0
  -22.1200   -9.0130   20.3810 C   0  0  0  0  0  3  0  0  0  0  0  0
  -22.8380  -10.2060   20.1980 C   0  0  0  0  0  3  0  0  0  0  0  0
  -21.8050   -6.9030   21.4050 O   0  0  0  0  0  0  0  0  0  0  0  0
  -21.7210   -6.1900   22.5740 C   0  0  0  0  0  0  0  0  0  0  0  0
  -21.2400   -6.7720   23.7680 C   0  0  0  0  0  3  0  0  0  0  0  0
  -21.1020   -5.9850   24.9290 C   0  0  0  0  0  3  0  0  0  0  0  0
  -21.4350   -4.6170   24.8970 C   0  0  0  0  0  0  0  0  0  0  0  0
  -21.9090   -4.0350   23.7070 C   0  0  0  0  0  3  0  0  0  0  0  0
  -22.0470   -4.8200   22.5490 C   0  0  0  0  0  0  0  0  0  0  0  0
  -22.4840   -4.2500   21.4000 F   0  0  0  0  0  0  0  0  0  0  0  0
  -21.2970   -3.8590   26.0090 F   0  0  0  0  0  0  0  0  0  0  0  0
  -22.8840  -13.5540   21.2440 C   0  0  0  0  0  0  0  0  0  0  0  0
  -22.2110  -12.8320   22.1330 N   0  0  0  0  0  0  0  0  0  0  0  0
  -22.4160  -14.5960   20.7850 O   0  0  0  0  0  0  0  0  0  0  0  0
  -22.6040  -11.9890   22.5260 H   0  0  0  0  0  0  0  0  0  0  0  0
  -21.2920  -13.1280   22.4270 H   0  0  0  0  0  0  0  0  0  0  0  0
  -25.4610  -15.2440   20.3170 N   0  0  0  0  0  0  0  0  0  0  0  0
  -24.7010  -15.8930   20.4890 H   0  0  0  0  0  0  0  0  0  0  0  0
  -26.2770  -15.6920   19.9150 H   0  0  0  0  0  0  0  0  0  0  0  0
  -28.3530  -26.4630   20.1800 O   0  0  0  0  0  0  0  0  0  0  0  0
  -24.6360  -31.8860   23.2280 C   0  0  0  0  0  0  0  0  0  0  0  0
  -27.2520  -27.3390   20.1520 C   0  0  0  0  0  0  0  0  0  0  0  0
  -23.4320  -30.4890   21.5870 C   0  0  0  0  0  3  0  0  0  0  0  0
  -24.8840  -28.9490   20.1490 C   0  0  0  0  0  0  0  0  0  0  0  0
  -25.9700  -30.8130   21.3980 C   0  0  0  0  0  2  0  0  0  0  0  0
  -26.0530  -29.4360   20.7490 C   0  0  0  0  0  0  0  0  0  0  0  0
  -27.2400  -28.6420   20.7450 C   0  0  0  0  0  3  0  0  0  0  0  0
  -26.0650  -26.9130   19.5180 C   0  0  0  0  0  3  0  0  0  0  0  0
  -24.8920  -27.6920   19.5250 C   0  0  0  0  0  3  0  0  0  0  0  0
  -23.6440  -29.8190   20.2040 C   0  0  0  0  0  2  0  0  0  0  0  0
  -24.6980  -31.0810   22.1270 N   0  0  0  0  0  0  0  0  0  0  0  0
  -23.5540  -32.1590   23.7680 O   0  0  0  0  0  0  0  0  0  0  0  0
  -22.7750  -29.4680   22.5460 C   0  0  0  0  0  0  0  0  0  0  0  0
  -21.4510  -29.2780   22.4130 N   0  0  0  0  0  0  0  0  0  0  0  0
  -23.4550  -28.8490   23.3680 O   0  0  0  0  0  0  0  0  0  0  0  0
  -20.9600  -29.8300   21.7220 H   0  0  0  0  0  0  0  0  0  0  0  0
  -18.0820  -28.0490   22.8970 C   0  0  0  0  0  0  0  0  0  0  0  0
  -20.6360  -28.3340   23.1810 C   0  0  0  0  0  3  0  0  0  0  0  0
  -20.7560  -26.9020   22.6100 C   0  0  0  0  0  2  0  0  0  0  0  0
  -19.6630  -26.5660   21.5900 C   0  0  0  0  0  2  0  0  0  0  0  0
  -18.2760  -26.6990   22.2260 C   0  0  0  0  0  2  0  0  0  0  0  0
  -19.1910  -28.8230   23.3320 C   0  0  0  0  0  0  0  0  0  0  0  0
  -18.9550  -30.0860   23.9180 C   0  0  0  0  0  3  0  0  0  0  0  0
  -17.6450  -30.5740   24.0760 C   0  0  0  0  0  3  0  0  0  0  0  0
  -16.5510  -29.7960   23.6580 C   0  0  0  0  0  3  0  0  0  0  0  0
  -16.7710  -28.5360   23.0740 C   0  0  0  0  0  3  0  0  0  0  0  0
  -25.9190  -32.5200   23.8490 C   0  0  0  0  0  3  0  0  0  0  0  0
  -25.6050  -33.9150   24.1890 N   0  0  0  0  0  0  0  0  0  0  0  0
  -25.9180  -34.9730   23.4280 C   0  0  0  0  0  0  0  0  0  0  0  0
  -26.5700  -34.8770   22.3850 O   0  0  0  0  0  0  0  0  0  0  0  0
  -25.0230  -34.0630   25.0000 H   0  0  0  0  0  0  0  0  0  0  0  0
  -24.1680  -36.7540   23.1180 C   0  0  0  0  0  1  0  0  0  0  0  0
  -25.4300  -36.3570   23.9000 C   0  0  0  0  0  3  0  0  0  0  0  0
  -27.5760  -37.2580   24.6830 C   0  0  0  0  0  1  0  0  0  0  0  0
  -26.4510  -37.4190   23.7640 N   0  0  0  0  0  0  0  0  0  0  0  0
  -26.0410  -38.3350   23.9220 H   0  0  0  0  0  0  0  0  0  0  0  0
  -26.4420  -31.7440   25.1200 C   0  0  1  0  0  0  0  0  0  0  0  0
  -25.3530  -31.4980   26.1910 C   0  0  0  0  0  1  0  0  0  0  0  0
  -27.0300  -30.3710   24.7220 C   0  0  0  0  0  1  0  0  0  0  0  0
  -27.5920  -32.5390   25.7830 C   0  0  0  0  0  1  0  0  0  0  0  0
  1  5  2  0
  1  3  1  0
  2  1  1  0
  3  8  2  0
  4  2  2  0
  6  2  1  0
  6  7  1  0
  7 13  1  0
  7  3  1  0
  9 11  1  0
 10 12  2  0
 10 13  1  0
 12 14  1  0
 13  9  2  0
 14 23  1  0
 14 11  2  0
 15 23  1  0
 16 21  1  0
 17 18  1  0
 17 16  1  0
 19 18  1  0
 19 28  1  0
 19 20  1  0
 21 15  1  0
 21 20  1  0
 22 15  2  0
 23 24  1  0
 25 26  2  0
 26 45  1  0
 27 26  1  0
 27 30  1  0
 28 29  1  0
 28 25  1  0
 29 27  2  0
 30 31  1  0
 31 32  2  0
 33 36  1  0
 33 32  1  0
 34 33  2  0
 35 34  1  0
 35 30  2  0
 36 37  1  0
 37 38  1  0
 38 39  2  0
 40 39  1  0
 40 44  1  0
 41 40  2  0
 42 37  2  0
 42 41  1  0
 43 42  1  0
 45 46  1  0
 46 49  1  0
 46 48  1  0
 47 45  2  0
 50 25  1  0
 50 51  1  0
 52 50  1  0
 53  5  1  0
 54 65  2  0
 55 53  1  0
 55 60  1  0
 56 64  1  0
 56 66  1  0
 57 63  1  0
 57 59  1  0
 58 64  1  0
 59 58  1  0
 60 59  2  0
 61 62  1  0
 61 55  2  0
 62 57  2  0
 63 56  1  0
 64 54  1  0
 66 68  2  0
 67 66  1  0
 69 67  1  0
 70 79  2  0
 70 75  1  0
 71 67  1  0
 71 75  1  0
 72 71  1  0
 73 74  1  0
 73 72  1  0
 74 70  1  0
 75 76  2  0
 76 77  1  0
 78 77  2  0
 79 78  1  0
 80 54  1  0
 80 81  1  0
 80 90  1  0
 81 84  1  0
 82 86  1  0
 82 81  1  0
 83 82  2  0
 86 85  1  0
 88 86  1  0
 88 89  1  0
 88 87  1  0
 90 93  1  1
 90 91  1  0
 92 90  1  0
M  ISO  4   5 101  15 100  23 100  53 101
M  END
>  <TORSDO>  (24) 
F 17

>  <SCORE>  (24) 
-14.716

>  <name>  (24) 
23

>  <ligand_id>  (24) 
23

>  <original_smiles>  (24) 
[H]C([H])=C1C(=C([H])Oc2c([H])c([H])c3c(c2[H])C([H])([H])N(C(=O)C([H])(N([H])C(=O)C([H])(N([H])C([H])([H])[H])C([H])([H])[H])C(C([H])([H])[H])(C([H])([H])[H])C([H])([H])[H])C([H])(C(=O)N([H])C2([H])c4c([H])c([H])c([H])c([H])c4C([H])([H])C([H])([H])C2([H])[H])C3([H])[H])C(=O)N(c2c([H])c([H])c(N([H])C(=O)N3C([H])([H])C([H])([H])C([H])([H])C([H])(n4nc(-c5c([H])c([H])c(Oc6c([H])c([H])c(F)c([H])c6F)c([H])c5[H])c(C(=O)N([H])[H])c4N([H])[H])C3([H])[H])c([H])c2[H])C1([H])[H]

>  <smiles>  (24) 
[H]C([H])=C1C(=C([H])Oc2c([H])c([H])c3c(c2[H])C([H])([H])N(C(=O)C([H])(N([H])C(=O)C([H])(N([H])C([H])([H])[H])C([H])([H])[H])C(C([H])([H])[H])(C([H])([H])[H])C([H])([H])[H])C([H])(C(=O)N([H])C2([H])c4c([H])c([H])c([H])c([H])c4C([H])([H])C([H])([H])C2([H])[H])C3([H])[H])C(=O)N(c2c([H])c([H])c(N([H])C(=O)N3C([H])([H])C([H])([H])C([H])([H])C([H])(n4nc(-c5c([H])c([H])c(Oc6c([H])c([H])c(F)c([H])c6F)c([H])c5[H])c(C(=O)N([H])[H])c4N([H])[H])C3([H])[H])c([H])c2[H])C1([H])[H]

$$$$
24:0:0
     RDKit          3D

 96100  0  0  1  0  0  0  0  0999 V2000
  -28.2610  -20.8780   20.0170 C   0  0  0  0  0  3  0  0  0  0  0  0
  -29.1670  -20.2950   21.0780 C   0  0  0  0  0  0  0  0  0  0  0  0
  -28.0460  -19.0500   19.7030 C   0  0  0  0  0  0  0  0  0  0  0  0
  -29.8340  -21.1410   21.8830 C   0  0  0  0  0  2  0  0  0  0  0  0
  -27.8050  -22.5240   19.5630 C   0  0  0  0  0  1  0  0  0  0  0  0
  -29.3310  -18.6460   21.3270 C   0  0  0  0  0  3  0  0  0  0  0  0
  -28.6650  -17.6310   20.3750 N   0  0  0  0  0  0  0  0  0  0  0  0
  -27.2610  -18.7910   18.7870 O   0  0  0  0  0  0  0  0  0  0  0  0
  -28.2590  -11.8530   19.1710 C   0  0  0  0  0  3  0  0  0  0  0  0
  -28.7830  -13.2920   18.0410 C   0  0  0  0  0  3  0  0  0  0  0  0
  -28.2810  -14.0470   21.6390 C   0  0  0  0  0 15  0  0  0  0  0  0
  -28.7790  -15.5780   20.3830 C   0  0  0  0  0  1  0  0  0  0  0  0
  -27.8330  -12.1160   21.0720 C   0  0  0  0  0  1  0  0  0  0  0  0
  -29.1670  -14.9770   18.7540 C   0  0  0  0  0  0  0  0  0  0  0  0
  -31.8550  -15.2770   19.0300 C   0  0  0  0  0  0  0  0  0  0  0  0
  -32.6610  -13.0770   19.0900 C   0  0  0  0  0  2  0  0  0  0  0  0
  -31.6060  -12.2950   18.3180 C   0  0  0  0  0  2  0  0  0  0  0  0
  -30.6960  -12.0100   19.5660 C   0  0  0  0  0  2  0  0  0  0  0  0
  -29.7650  -13.3020   20.2970 C   0  0  0  0  0  2  0  0  0  0  0  0
  -30.9760  -14.0290   20.9100 C   0  0  0  0  0  2  0  0  0  0  0  0
  -32.0400  -14.2370   19.8420 N   0  0  0  0  0  0  0  0  0  0  0  0
  -32.9110  -15.7880   18.6410 O   0  0  0  0  0  0  0  0  0  0  0  0
  -30.5590  -15.5180   18.4620 N   0  0  0  0  0  4  0  0  0  0  0  0
  -30.5790  -16.2490   17.7650 H   0  0  0  0  0  0  0  0  0  0  0  0
  -26.1980  -14.5580   20.1540 C   0  0  1  0  0  0  0  0  0  0  0  0
  -25.4730  -13.5740   20.7530 C   0  0  0  0  0  3  0  0  0  0  0  0
  -25.7130  -12.4370   19.9120 C   0  0  0  0  0  3  0  0  0  0  0  0
  -27.2620  -13.9050   19.6520 N   0  0  0  0  0  2  0  0  0  0  0  0
  -26.3090  -13.0940   19.0100 N   0  0  0  0  0  0  0  0  0  0  0  0
  -25.9550  -10.9390   20.0190 C   0  0  0  0  0  3  0  0  0  0  0  0
  -26.7760   -9.6410   21.5810 C   0  0  0  0  0  2  0  0  0  0  0  0
  -25.4040   -8.5960   22.6040 C   0  0  0  0  0  1  0  0  0  0  0  0
  -23.5790   -8.6170   22.0690 C   0  0  0  0  0  3  0  0  0  0  0  0
  -22.9780   -9.8240   20.8060 C   0  0  0  0  0  3  0  0  0  0  0  0
  -24.0770  -10.8970   19.7820 C   0  0  0  0  0  3  0  0  0  0  0  0
  -23.1830   -7.3590   21.4670 O   0  0  0  0  0  0  0  0  0  0  0  0
  -22.3060   -6.4610   22.0450 C   0  0  0  0  0  0  0  0  0  0  0  0
  -21.1800   -7.0170   22.6650 C   0  0  0  0  0  3  0  0  0  0  0  0
  -20.3400   -6.2310   23.4630 C   0  0  0  0  0  3  0  0  0  0  0  0
  -20.5970   -4.8610   23.6220 C   0  0  0  0  0  0  0  0  0  0  0  0
  -21.6440   -4.2550   22.9040 C   0  0  0  0  0  3  0  0  0  0  0  0
  -22.4900   -5.0380   22.0880 C   0  0  0  0  0  0  0  0  0  0  0  0
  -23.4750   -4.4020   21.3990 F   0  0  0  0  0  0  0  0  0  0  0  0
  -19.8270   -4.1400   24.4700 F   0  0  0  0  0  0  0  0  0  0  0  0
  -24.2790  -13.9140   21.4950 C   0  0  0  0  0  0  0  0  0  0  0  0
  -24.0720  -13.3710   22.6830 N   0  0  0  0  0  0  0  0  0  0  0  0
  -23.5260  -14.7050   20.9560 O   0  0  0  0  0  0  0  0  0  0  0  0
  -24.7560  -12.7620   23.1150 H   0  0  0  0  0  0  0  0  0  0  0  0
  -23.2400  -13.6130   23.2020 H   0  0  0  0  0  0  0  0  0  0  0  0
  -26.1340  -15.9180   20.0350 N   0  0  0  0  0  0  0  0  0  0  0  0
  -25.3380  -16.4530   20.3610 H   0  0  0  0  0  0  0  0  0  0  0  0
  -26.8130  -16.4600   19.5150 H   0  0  0  0  0  0  0  0  0  0  0  0
  -26.4560  -10.7570   21.8280 N   0  0  0  0  0  0  0  0  0  0  0  0
  -25.7630   -9.0150   20.8040 O   0  0  0  0  0  1  0  0  0  0  0  0
  -26.1550  -11.1760   22.9630 O   0  0  0  0  0  1  0  0  0  0  0  0
  -27.9490  -24.4050   19.5410 O   0  0  0  0  0  1  0  0  0  0  0  0
  -24.7500  -31.4750   22.4730 C   0  0  0  0  0  0  0  0  0  0  0  0
  -27.1810  -25.9690   19.3990 C   0  0  0  0  0  0  0  0  0  0  0  0
  -23.5780  -29.9810   20.9260 C   0  0  0  0  0  3  0  0  0  0  0  0
  -25.0120  -28.3720   19.3700 C   0  0  0  0  0  0  0  0  0  0  0  0
  -26.1450  -30.1290   20.6740 C   0  0  0  0  0  2  0  0  0  0  0  0
  -26.2220  -28.6320   20.0140 C   0  0  0  0  0  0  0  0  0  0  0  0
  -27.2660  -27.4690   19.9920 C   0  0  0  0  0  3  0  0  0  0  0  0
  -26.0080  -26.1490   18.5900 C   0  0  0  0  0  3  0  0  0  0  0  0
  -24.9960  -27.1900   18.5990 C   0  0  0  0  0  3  0  0  0  0  0  0
  -23.7830  -29.3180   19.5210 C   0  0  0  0  0  2  0  0  0  0  0  0
  -24.8590  -30.5910   21.4020 N   0  0  0  0  0  0  0  0  0  0  0  0
  -23.6660  -31.6850   23.0520 O   0  0  0  0  0  0  0  0  0  0  0  0
  -23.0170  -28.9520   21.9460 C   0  0  0  0  0  0  0  0  0  0  0  0
  -21.7010  -28.6560   21.9190 N   0  0  0  0  0  0  0  0  0  0  0  0
  -23.7870  -28.4170   22.7480 O   0  0  0  0  0  0  0  0  0  0  0  0
  -21.1150  -29.1440   21.2550 H   0  0  0  0  0  0  0  0  0  0  0  0
  -18.5640  -26.9210   22.5750 C   0  0  0  0  0  0  0  0  0  0  0  0
  -21.0510  -27.6250   22.7450 C   0  0  0  0  0  3  0  0  0  0  0  0
  -21.3720  -26.2090   22.2130 C   0  0  0  0  0  2  0  0  0  0  0  0
  -20.3180  -25.6760   21.2380 C   0  0  0  0  0  2  0  0  0  0  0  0
  -18.9480  -25.6040   21.9180 C   0  0  0  0  0  2  0  0  0  0  0  0
  -19.5500  -27.8760   22.9470 C   0  0  0  0  0  0  0  0  0  0  0  0
  -19.1350  -29.0930   23.5330 C   0  0  0  0  0  3  0  0  0  0  0  0
  -17.7700  -29.3640   23.7420 C   0  0  0  0  0  3  0  0  0  0  0  0
  -16.8000  -28.4140   23.3790 C   0  0  0  0  0  3  0  0  0  0  0  0
  -17.1980  -27.1930   22.8050 C   0  0  0  0  0  3  0  0  0  0  0  0
  -25.9690  -32.2770   23.0330 C   0  0  0  0  0  3  0  0  0  0  0  0
  -25.4740  -33.5420   23.6330 N   0  0  0  0  0  0  0  0  0  0  0  0
  -25.6590  -34.7760   23.1400 C   0  0  0  0  0  0  0  0  0  0  0  0
  -26.3040  -34.9810   22.1100 O   0  0  0  0  0  0  0  0  0  0  0  0
  -24.8830  -33.4460   24.4460 H   0  0  0  0  0  0  0  0  0  0  0  0
  -23.7380  -36.4190   23.1920 C   0  0  0  0  0  1  0  0  0  0  0  0
  -25.0290  -35.9700   23.8970 C   0  0  0  0  0  3  0  0  0  0  0  0
  -27.0730  -36.8810   24.9230 C   0  0  0  0  0  1  0  0  0  0  0  0
  -25.9350  -37.1350   24.0420 N   0  0  0  0  0  0  0  0  0  0  0  0
  -25.4280  -37.9370   24.4050 H   0  0  0  0  0  0  0  0  0  0  0  0
  -26.7790  -31.4780   24.1310 C   0  0  1  0  0  0  0  0  0  0  0  0
  -25.9050  -30.9350   25.2900 C   0  0  0  0  0  1  0  0  0  0  0  0
  -27.5250  -30.2760   23.5170 C   0  0  0  0  0  1  0  0  0  0  0  0
  -27.8680  -32.3890   24.7450 C   0  0  0  0  0  1  0  0  0  0  0  0
  1  5  1  0
  1  2  1  0
  2  6  1  0
  2  4  2  0
  3  1  1  0
  3  7  1  0
  7  6  2  0
  8  3  2  0
  9 13  1  0
 10 14  1  0
 10  9  2  0
 14 12  1  0
 15 21  1  0
 16 21  1  0
 17 16  1  0
 17 18  1  0
 18 19  1  0
 19 20  1  0
 21 20  1  0
 22 15  2  0
 23 14  2  3
 23 15  1  0
 24 23  1  0
 25 50  1  6
 25 26  1  0
 26 45  1  0
 27 30  1  0
 27 26  1  0
 28 25  1  0
 29 28  1  0
 29 27  1  0
 29 25  1  0
 30 35  1  0
 30 53  1  0
 31 53  1  0
 33 32  1  0
 34 33  1  0
 35 34  2  0
 36 37  1  0
 36 33  1  0
 37 42  2  0
 37 38  1  0
 38 39  2  0
 39 40  1  0
 40 44  1  0
 41 40  2  0
 42 41  1  0
 43 42  1  0
 45 46  1  0
 46 48  1  0
 46 49  1  0
 47 45  2  0
 50 51  1  0
 52 50  1  0
 53 55  1  0
 54 31  1  0
 57 68  2  0
 58 56  1  0
 58 63  1  0
 59 67  1  0
 59 69  1  0
 60 66  1  0
 60 62  1  0
 61 67  1  0
 62 61  1  0
 63 62  2  0
 64 65  1  0
 64 58  2  0
 65 60  2  0
 66 59  1  0
 67 57  1  0
 69 71  2  0
 70 69  1  0
 72 70  1  0
 73 82  2  0
 73 78  1  0
 74 70  1  0
 74 78  1  0
 75 74  1  0
 76 77  1  0
 76 75  1  0
 77 73  1  0
 78 79  2  0
 79 80  1  0
 81 80  2  0
 82 81  1  0
 83 57  1  0
 83 84  1  0
 83 93  1  0
 84 87  1  0
 85 84  1  0
 85 89  1  0
 86 85  2  0
 89 88  1  0
 89 91  1  0
 91 92  1  0
 91 90  1  0
 93 96  1  1
 93 94  1  0
 95 93  1  0
M  ISO  4   5 101  15 100  23 100  56 101
M  END
>  <TORSDO>  (25) 
F 18

>  <SCORE>  (25) 
-10.310

>  <name>  (25) 
24

>  <ligand_id>  (25) 
24

>  <original_smiles>  (25) 
[H]C([H])=C1C(=C([H])Oc2c([H])c([H])c3c(c2[H])C([H])([H])N(C(=O)C([H])(N([H])C(=O)C([H])(N([H])C([H])([H])[H])C([H])([H])[H])C(C([H])([H])[H])(C([H])([H])[H])C([H])([H])[H])C([H])(C(=O)N([H])C2([H])c4c([H])c([H])c([H])c([H])c4C([H])([H])C([H])([H])C2([H])[H])C3([H])[H])C(=O)N(c2c([H])c([N+](=O)[O-])c([H])c([H])c2N([H])C(=O)N2C([H])([H])C([H])([H])C([H])([H])C([H])(n3nc(-c4c([H])c([H])c(Oc5c([H])c([H])c(F)c([H])c5F)c([H])c4[H])c(C(=O)N([H])[H])c3N([H])[H])C2([H])[H])C1([H])[H]

>  <smiles>  (25) 
[H]C([H])=C1C(=C([H])Oc2c([H])c([H])c3c(c2[H])C([H])([H])N(C(=O)C([H])(N([H])C(=O)C([H])(N([H])C([H])([H])[H])C([H])([H])[H])C(C([H])([H])[H])(C([H])([H])[H])C([H])([H])[H])C([H])(C(=O)N([H])C2([H])c4c([H])c([H])c([H])c([H])c4C([H])([H])C([H])([H])C2([H])[H])C3([H])[H])C(=O)N(c2c([H])c([N+](=O)[O-])c([H])c([H])c2N([H])C(=O)N2C([H])([H])C([H])([H])C([H])([H])C([H])(n3nc(-c4c([H])c([H])c(Oc5c([H])c([H])c(F)c([H])c5F)c([H])c4[H])c(C(=O)N([H])[H])c3N([H])[H])C2([H])[H])C1([H])[H]

$$$$
25:0:0
     RDKit          3D

 92101  0  0  1  0  0  0  0  0999 V2000
  -28.6410  -23.7890   20.3480 C   0  0  0  0  0  0  0  0  0  0  0  0
  -28.2750  -22.5410   20.9960 C   0  0  0  0  0  0  0  0  0  0  0  0
  -29.5450  -22.9960   19.5130 C   0  0  0  0  0  0  0  0  0  0  0  0
  -28.1870  -25.0940   20.5820 C   0  0  0  0  0  3  0  0  0  0  0  0
  -29.1590  -21.7730   20.1830 N   0  0  0  0  0  0  0  0  0  0  0  0
  -27.4910  -22.3230   21.9000 O   0  0  0  0  0  0  0  0  0  0  0  0
  -30.3020  -23.3190   18.6180 O   0  0  0  0  0  0  0  0  0  0  0  0
  -29.1290  -19.4420   21.2300 C   0  0  0  0  0  3  0  0  0  0  0  0
  -30.1480  -19.5360   19.1280 C   0  0  0  0  0  3  0  0  0  0  0  0
  -29.4010  -18.0390   21.3080 C   0  0  0  0  0  3  0  0  0  0  0  0
  -30.4230  -18.1100   19.1820 C   0  0  0  0  0  3  0  0  0  0  0  0
  -29.4860  -20.3050   20.1500 C   0  0  0  0  0  0  0  0  0  0  0  0
  -30.0780  -17.2860   20.3000 C   0  0  0  0  0  0  0  0  0  0  0  0
  -30.8450  -14.8300   19.6440 C   0  0  0  0  0  0  0  0  0  0  0  0
  -30.4950  -12.6100   18.5030 C   0  0  0  0  0  2  0  0  0  0  0  0
  -29.4040  -12.7130   17.4130 C   0  0  0  0  0  2  0  0  0  0  0  0
  -28.0010  -12.5080   18.0150 C   0  0  0  0  0  2  0  0  0  0  0  0
  -27.7870  -13.3450   19.3010 C   0  0  0  0  0  3  0  0  0  0  0  0
  -28.9720  -13.1910   20.2720 C   0  0  0  0  0  2  0  0  0  0  0  0
  -30.1970  -13.6060   19.5650 N   0  0  0  0  0  0  0  0  0  0  0  0
  -31.8590  -15.0180   18.9630 O   0  0  0  0  0  0  0  0  0  0  0  0
  -30.5500  -15.4410   21.9300 C   0  0  0  0  0  1  0  0  0  0  0  0
  -30.3710  -15.8180   20.5140 N   0  0  0  0  0  0  0  0  0  0  0  0
  -25.5420  -13.9140   20.4080 C   0  0  0  0  0  0  0  0  0  0  0  0
  -24.5150  -13.1290   20.8570 C   0  0  0  0  0  0  0  0  0  0  0  0
  -24.9280  -11.7780   20.6450 C   0  0  0  0  0  0  0  0  0  0  0  0
  -26.5140  -13.0400   19.9480 N   0  0  0  0  0  0  0  0  0  0  0  0
  -26.1610  -11.7450   20.1510 N   0  0  0  0  0  0  0  0  0  0  0  0
  -24.1980  -10.5170   20.8290 C   0  0  0  0  0  0  0  0  0  0  0  0
  -24.6780   -9.5020   21.6860 C   0  0  0  0  0  3  0  0  0  0  0  0
  -23.9480   -8.3070   21.8590 C   0  0  0  0  0  3  0  0  0  0  0  0
  -22.7220   -8.1180   21.1770 C   0  0  0  0  0  0  0  0  0  0  0  0
  -22.2610   -9.1210   20.3070 C   0  0  0  0  0  3  0  0  0  0  0  0
  -22.9920  -10.3080   20.1310 C   0  0  0  0  0  3  0  0  0  0  0  0
  -21.9580   -6.9790   21.2630 O   0  0  0  0  0  0  0  0  0  0  0  0
  -21.9210   -6.2240   22.4070 C   0  0  0  0  0  0  0  0  0  0  0  0
  -21.5130   -6.7650   23.6460 C   0  0  0  0  0  3  0  0  0  0  0  0
  -21.4220   -5.9360   24.7820 C   0  0  0  0  0  3  0  0  0  0  0  0
  -21.7290   -4.5670   24.6810 C   0  0  0  0  0  0  0  0  0  0  0  0
  -22.1300   -4.0240   23.4470 C   0  0  0  0  0  3  0  0  0  0  0  0
  -22.2230   -4.8500   22.3140 C   0  0  0  0  0  0  0  0  0  0  0  0
  -22.5890   -4.3170   21.1220 F   0  0  0  0  0  0  0  0  0  0  0  0
  -21.6350   -3.7680   25.7690 F   0  0  0  0  0  0  0  0  0  0  0  0
  -23.1850  -13.6050   21.3660 C   0  0  0  0  0  0  0  0  0  0  0  0
  -22.5770  -12.8620   22.2840 N   0  0  0  0  0  0  0  0  0  0  0  0
  -22.6980  -14.6690   20.9830 O   0  0  0  0  0  0  0  0  0  0  0  0
  -22.9870  -12.0010   22.6140 H   0  0  0  0  0  0  0  0  0  0  0  0
  -21.6910  -13.1600   22.6660 H   0  0  0  0  0  0  0  0  0  0  0  0
  -25.7230  -15.2910   20.3310 N   0  0  0  0  0  0  0  0  0  0  0  0
  -25.0070  -15.9500   20.6180 H   0  0  0  0  0  0  0  0  0  0  0  0
  -26.5460  -15.7420   19.9500 H   0  0  0  0  0  0  0  0  0  0  0  0
  -28.4700  -26.3940   20.0590 O   0  0  0  0  0  0  0  0  0  0  0  0
  -24.7900  -31.8860   23.1500 C   0  0  0  0  0  0  0  0  0  0  0  0
  -27.4040  -27.3260   20.0460 C   0  0  0  0  0  0  0  0  0  0  0  0
  -23.5870  -30.4940   21.5070 C   0  0  0  0  0  3  0  0  0  0  0  0
  -25.0400  -28.9610   20.0580 C   0  0  0  0  0  0  0  0  0  0  0  0
  -26.1280  -30.8170   21.3150 C   0  0  0  0  0  2  0  0  0  0  0  0
  -26.2140  -29.4400   20.6560 C   0  0  0  0  0  0  0  0  0  0  0  0
  -27.4020  -28.6350   20.6400 C   0  0  0  0  0  3  0  0  0  0  0  0
  -26.2090  -26.9170   19.4190 C   0  0  0  0  0  3  0  0  0  0  0  0
  -25.0420  -27.7060   19.4280 C   0  0  0  0  0  3  0  0  0  0  0  0
  -23.8000  -29.8320   20.1200 C   0  0  0  0  0  2  0  0  0  0  0  0
  -24.8540  -31.0840   22.0470 N   0  0  0  0  0  0  0  0  0  0  0  0
  -23.7070  -32.1540   23.6930 O   0  0  0  0  0  0  0  0  0  0  0  0
  -22.9330  -29.4680   22.4640 C   0  0  0  0  0  0  0  0  0  0  0  0
  -21.6050  -29.2910   22.3490 N   0  0  0  0  0  0  0  0  0  0  0  0
  -23.6190  -28.8350   23.2690 O   0  0  0  0  0  0  0  0  0  0  0  0
  -21.1080  -29.8530   21.6720 H   0  0  0  0  0  0  0  0  0  0  0  0
  -18.2410  -28.0500   22.8450 C   0  0  0  0  0  0  0  0  0  0  0  0
  -20.7950  -28.3420   23.1190 C   0  0  0  0  0  3  0  0  0  0  0  0
  -20.9160  -26.9120   22.5430 C   0  0  0  0  0  2  0  0  0  0  0  0
  -19.8200  -26.5750   21.5270 C   0  0  0  0  0  2  0  0  0  0  0  0
  -18.4350  -26.7030   22.1690 C   0  0  0  0  0  2  0  0  0  0  0  0
  -19.3490  -28.8260   23.2770 C   0  0  0  0  0  0  0  0  0  0  0  0
  -19.1130  -30.0850   23.8700 C   0  0  0  0  0  3  0  0  0  0  0  0
  -17.8010  -30.5700   24.0350 C   0  0  0  0  0  3  0  0  0  0  0  0
  -16.7080  -29.7910   23.6190 C   0  0  0  0  0  3  0  0  0  0  0  0
  -16.9280  -28.5320   23.0300 C   0  0  0  0  0  3  0  0  0  0  0  0
  -26.0710  -32.5240   23.7710 C   0  0  0  0  0  3  0  0  0  0  0  0
  -25.7450  -33.9080   24.1430 N   0  0  0  0  0  0  0  0  0  0  0  0
  -26.0630  -34.9880   23.4160 C   0  0  0  0  0  0  0  0  0  0  0  0
  -26.7300  -34.9240   22.3800 O   0  0  0  0  0  0  0  0  0  0  0  0
  -25.1510  -34.0320   24.9500 H   0  0  0  0  0  0  0  0  0  0  0  0
  -24.3250  -36.7810   23.1110 C   0  0  0  0  0  1  0  0  0  0  0  0
  -25.5630  -36.3570   23.9170 C   0  0  0  0  0  3  0  0  0  0  0  0
  -27.6860  -37.2270   24.7920 C   0  0  0  0  0  1  0  0  0  0  0  0
  -26.5880  -37.4210   23.8470 N   0  0  0  0  0  0  0  0  0  0  0  0
  -26.1750  -38.3330   24.0230 H   0  0  0  0  0  0  0  0  0  0  0  0
  -26.6170  -31.7290   25.0210 C   0  0  1  0  0  0  0  0  0  0  0  0
  -25.5400  -31.4440   26.0940 C   0  0  0  0  0  1  0  0  0  0  0  0
  -27.2200  -30.3730   24.5880 C   0  0  0  0  0  1  0  0  0  0  0  0
  -27.7590  -32.5270   25.6910 C   0  0  0  0  0  1  0  0  0  0  0  0
  1  4  2  0
  1  2  1  0
  2  6  2  0
  3  5  1  0
  3  1  1  0
  5  2  1  0
  7  3  2  0
  8 10  1  0
  9 11  2  0
  9 12  1  0
 11 13  1  0
 12  5  1  0
 12  8  2  0
 13 23  1  0
 13 10  2  0
 14 23  1  0
 15 20  1  0
 16 17  1  0
 16 15  1  0
 18 17  1  0
 18 27  1  0
 18 19  1  0
 20 14  1  0
 20 19  1  0
 21 14  2  0
 23 22  1  0
 24 25  2  0
 25 44  1  0
 26 29  1  0
 26 25  1  0
 27 28  1  0
 27 24  1  0
 28 26  2  0
 29 30  1  0
 30 31  2  0
 32 35  1  0
 32 31  1  0
 33 32  2  0
 34 33  1  0
 34 29  2  0
 35 36  1  0
 36 37  1  0
 37 38  2  0
 39 38  1  0
 39 43  1  0
 40 39  2  0
 41 36  2  0
 41 40  1  0
 42 41  1  0
 44 45  1  0
 45 47  1  0
 45 48  1  0
 46 44  2  0
 49 24  1  0
 49 50  1  0
 51 49  1  0
 52  4  1  0
 53 64  2  0
 54 52  1  0
 54 59  1  0
 55 63  1  0
 55 65  1  0
 56 62  1  0
 56 58  1  0
 57 63  1  0
 58 57  1  0
 59 58  2  0
 60 61  1  0
 60 54  2  0
 61 56  2  0
 62 55  1  0
 63 53  1  0
 65 67  2  0
 66 65  1  0
 68 66  1  0
 69 78  2  0
 69 74  1  0
 70 66  1  0
 70 74  1  0
 71 70  1  0
 72 73  1  0
 72 71  1  0
 73 69  1  0
 74 75  2  0
 75 76  1  0
 77 76  2  0
 78 77  1  0
 79 53  1  0
 79 80  1  0
 79 89  1  0
 80 83  1  0
 81 85  1  0
 81 80  1  0
 82 81  2  0
 85 84  1  0
 87 85  1  0
 87 88  1  0
 87 86  1  0
 89 92  1  1
 89 90  1  0
 91 89  1  0
M  ISO  4   4 101  14 100  23 100  52 101
M  END
>  <TORSDO>  (26) 
F 17

>  <SCORE>  (26) 
-13.055

>  <name>  (26) 
25

>  <ligand_id>  (26) 
25

>  <original_smiles>  (26) 
[H]C(Oc1c([H])c([H])c2c(c1[H])C([H])([H])N(C(=O)C([H])(N([H])C(=O)C([H])(N([H])C([H])([H])[H])C([H])([H])[H])C(C([H])([H])[H])(C([H])([H])[H])C([H])([H])[H])C([H])(C(=O)N([H])C1([H])c3c([H])c([H])c([H])c([H])c3C([H])([H])C([H])([H])C1([H])[H])C2([H])[H])=C1C(=O)N(c2c([H])c([H])c(N(C(=O)N3C([H])([H])C([H])([H])C([H])([H])C([H])(n4nc(-c5c([H])c([H])c(Oc6c([H])c([H])c(F)c([H])c6F)c([H])c5[H])c(C(=O)N([H])[H])c4N([H])[H])C3([H])[H])C([H])([H])[H])c([H])c2[H])C1=O

>  <smiles>  (26) 
[H]C(Oc1c([H])c([H])c2c(c1[H])C([H])([H])N(C(=O)C([H])(N([H])C(=O)C([H])(N([H])C([H])([H])[H])C([H])([H])[H])C(C([H])([H])[H])(C([H])([H])[H])C([H])([H])[H])C([H])(C(=O)N([H])C1([H])c3c([H])c([H])c([H])c([H])c3C([H])([H])C([H])([H])C1([H])[H])C2([H])[H])=C1C(=O)N(c2c([H])c([H])c(N(C(=O)N3C([H])([H])C([H])([H])C([H])([H])C([H])(n4nc(-c5c([H])c([H])c(Oc6c([H])c([H])c(F)c([H])c6F)c([H])c5[H])c(C(=O)N([H])[H])c4N([H])[H])C3([H])[H])C([H])([H])[H])c([H])c2[H])C1=O

$$$$
26:0:0
     RDKit          3D

 93101  0  0  1  0  0  0  0  0999 V2000
  -30.0000  -22.9010   22.3790 C   0  0  0  0  0  3  0  0  0  0  0  0
  -29.9800  -21.5870   21.8390 C   0  0  0  0  0  3  0  0  0  0  0  0
  -29.4110  -24.0040   21.7150 C   0  0  0  0  0  3  0  0  0  0  0  0
  -28.7410  -22.4830   19.9560 C   0  0  0  0  0  3  0  0  0  0  0  0
  -29.3540  -21.3210   20.5950 C   0  0  0  0  0  0  0  0  0  0  0  0
  -28.7550  -23.8450   20.4810 C   0  0  0  0  0  0  0  0  0  0  0  0
  -30.4680  -14.8620   20.3740 C   0  0  0  0  0  0  0  0  0  0  0  0
  -30.3940  -12.5600   19.3330 C   0  0  0  0  0  2  0  0  0  0  0  0
  -29.4510  -12.5940   18.1020 C   0  0  0  0  0  2  0  0  0  0  0  0
  -27.9790  -12.3910   18.5190 C   0  0  0  0  0  2  0  0  0  0  0  0
  -27.5830  -13.2800   19.7250 C   0  0  0  0  0  3  0  0  0  0  0  0
  -28.6320  -13.1790   20.8590 C   0  0  0  0  0  2  0  0  0  0  0  0
  -29.9360  -13.5850   20.3020 N   0  0  0  0  0  0  0  0  0  0  0  0
  -31.6370  -15.0950   20.0320 O   0  0  0  0  0  0  0  0  0  0  0  0
  -29.1620  -19.8600   20.0460 C   0  0  0  0  0  0  0  0  0  0  0  0
  -29.1580  -17.3390   20.5680 C   0  0  0  0  0  3  0  0  0  0  0  0
  -27.6610  -17.4730   20.7490 C   0  0  0  0  0  1  0  0  0  0  0  0
  -29.8450  -18.5770   20.4940 N   0  0  0  0  0  0  0  0  0  0  0  0
  -29.4450  -15.9450   20.6100 N   0  0  0  0  0  0  0  0  0  0  0  0
  -28.3080  -19.7290   19.1620 O   0  0  0  0  0  0  0  0  0  0  0  0
  -30.7360  -18.6140   20.9650 H   0  0  0  0  0  0  0  0  0  0  0  0
  -28.5490  -15.5390   20.8210 H   0  0  0  0  0  0  0  0  0  0  0  0
  -25.1800  -13.8790   20.4050 C   0  0  0  0  0  0  0  0  0  0  0  0
  -24.1140  -13.1090   20.7910 C   0  0  0  0  0  0  0  0  0  0  0  0
  -24.5840  -11.7630   20.7930 C   0  0  0  0  0  0  0  0  0  0  0  0
  -26.2300  -12.9970   20.1980 N   0  0  0  0  0  0  0  0  0  0  0  0
  -25.8770  -11.7210   20.4920 N   0  0  0  0  0  0  0  0  0  0  0  0
  -23.8620  -10.5020   20.9960 C   0  0  0  0  0  0  0  0  0  0  0  0
  -24.3010   -9.5450   21.9360 C   0  0  0  0  0  3  0  0  0  0  0  0
  -23.5780   -8.3480   22.1260 C   0  0  0  0  0  3  0  0  0  0  0  0
  -22.4040   -8.1020   21.3770 C   0  0  0  0  0  0  0  0  0  0  0  0
  -21.9860   -9.0480   20.4230 C   0  0  0  0  0  3  0  0  0  0  0  0
  -22.7100  -10.2370   20.2300 C   0  0  0  0  0  3  0  0  0  0  0  0
  -21.6520   -6.9570   21.4750 O   0  0  0  0  0  0  0  0  0  0  0  0
  -21.6190   -6.2160   22.6290 C   0  0  0  0  0  0  0  0  0  0  0  0
  -21.2210   -6.7750   23.8630 C   0  0  0  0  0  3  0  0  0  0  0  0
  -21.1340   -5.9610   25.0090 C   0  0  0  0  0  3  0  0  0  0  0  0
  -21.4350   -4.5880   24.9240 C   0  0  0  0  0  0  0  0  0  0  0  0
  -21.8250   -4.0290   23.6950 C   0  0  0  0  0  3  0  0  0  0  0  0
  -21.9150   -4.8400   22.5510 C   0  0  0  0  0  0  0  0  0  0  0  0
  -22.2720   -4.2900   21.3650 F   0  0  0  0  0  0  0  0  0  0  0  0
  -21.3450   -3.8040   26.0240 F   0  0  0  0  0  0  0  0  0  0  0  0
  -22.7120  -13.5890   21.0280 C   0  0  0  0  0  0  0  0  0  0  0  0
  -21.9750  -12.9090   21.9000 N   0  0  0  0  0  0  0  0  0  0  0  0
  -22.2780  -14.5980   20.4760 O   0  0  0  0  0  0  0  0  0  0  0  0
  -22.3440  -12.0940   22.3630 H   0  0  0  0  0  0  0  0  0  0  0  0
  -21.0300  -13.2030   22.1000 H   0  0  0  0  0  0  0  0  0  0  0  0
  -25.3270  -15.2400   20.1770 N   0  0  0  0  0  0  0  0  0  0  0  0
  -24.4540  -15.7590   20.1890 H   0  0  0  0  0  0  0  0  0  0  0  0
  -25.8890  -15.5010   19.3760 H   0  0  0  0  0  0  0  0  0  0  0  0
  -28.1030  -24.9730   19.8390 N   0  0  0  0  0  0  0  0  0  0  0  0
  -27.9570  -24.9130   18.8360 H   0  0  0  0  0  0  0  0  0  0  0  0
  -28.3500  -26.4260   20.2190 O   0  0  0  0  0  0  0  0  0  0  0  0
  -24.6330  -31.9150   23.2400 C   0  0  0  0  0  0  0  0  0  0  0  0
  -27.2260  -27.2960   20.1890 C   0  0  0  0  0  0  0  0  0  0  0  0
  -23.4220  -30.5180   21.6020 C   0  0  0  0  0  3  0  0  0  0  0  0
  -24.8680  -28.9550   20.1760 C   0  0  0  0  0  0  0  0  0  0  0  0
  -25.9650  -30.8210   21.4160 C   0  0  0  0  0  2  0  0  0  0  0  0
  -26.0420  -29.4340   20.7720 C   0  0  0  0  0  0  0  0  0  0  0  0
  -27.2180  -28.6130   20.7730 C   0  0  0  0  0  3  0  0  0  0  0  0
  -26.0240  -26.8930   19.5620 C   0  0  0  0  0  3  0  0  0  0  0  0
  -24.8620  -27.6900   19.5680 C   0  0  0  0  0  3  0  0  0  0  0  0
  -23.6360  -29.8390   20.2240 C   0  0  0  0  0  2  0  0  0  0  0  0
  -24.6930  -31.1010   22.1430 N   0  0  0  0  0  0  0  0  0  0  0  0
  -23.5500  -32.1960   23.7780 O   0  0  0  0  0  0  0  0  0  0  0  0
  -22.7530  -29.5060   22.5660 C   0  0  0  0  0  0  0  0  0  0  0  0
  -21.4260  -29.3310   22.4430 N   0  0  0  0  0  0  0  0  0  0  0  0
  -23.4330  -28.8830   23.3850 O   0  0  0  0  0  0  0  0  0  0  0  0
  -20.9320  -29.8670   21.7420 H   0  0  0  0  0  0  0  0  0  0  0  0
  -18.0540  -28.1360   22.9730 C   0  0  0  0  0  0  0  0  0  0  0  0
  -20.6120  -28.3980   23.2250 C   0  0  0  0  0  3  0  0  0  0  0  0
  -20.7110  -26.9640   22.6600 C   0  0  0  0  0  2  0  0  0  0  0  0
  -19.6020  -26.6290   21.6570 C   0  0  0  0  0  2  0  0  0  0  0  0
  -18.2260  -26.7800   22.3070 C   0  0  0  0  0  2  0  0  0  0  0  0
  -19.1730  -28.9010   23.3930 C   0  0  0  0  0  0  0  0  0  0  0  0
  -18.9540  -30.1660   23.9820 C   0  0  0  0  0  3  0  0  0  0  0  0
  -17.6490  -30.6670   24.1510 C   0  0  0  0  0  3  0  0  0  0  0  0
  -16.5460  -29.8980   23.7460 C   0  0  0  0  0  3  0  0  0  0  0  0
  -16.7490  -28.6340   23.1630 C   0  0  0  0  0  3  0  0  0  0  0  0
  -25.9160  -32.5480   23.8580 C   0  0  0  0  0  3  0  0  0  0  0  0
  -25.6080  -33.9460   24.1960 N   0  0  0  0  0  0  0  0  0  0  0  0
  -25.9280  -35.0010   23.4350 C   0  0  0  0  0  0  0  0  0  0  0  0
  -26.5800  -34.9030   22.3920 O   0  0  0  0  0  0  0  0  0  0  0  0
  -25.0240  -34.0990   25.0060 H   0  0  0  0  0  0  0  0  0  0  0  0
  -24.1860  -36.7880   23.1240 C   0  0  0  0  0  1  0  0  0  0  0  0
  -25.4460  -36.3860   23.9060 C   0  0  0  0  0  3  0  0  0  0  0  0
  -27.5960  -37.2780   24.6870 C   0  0  0  0  0  1  0  0  0  0  0  0
  -26.4710  -37.4420   23.7700 N   0  0  0  0  0  0  0  0  0  0  0  0
  -26.0640  -38.3590   23.9320 H   0  0  0  0  0  0  0  0  0  0  0  0
  -26.4440  -31.7730   25.1280 C   0  0  1  0  0  0  0  0  0  0  0  0
  -25.3590  -31.5350   26.2050 C   0  0  0  0  0  1  0  0  0  0  0  0
  -27.0240  -30.3950   24.7290 C   0  0  0  0  0  1  0  0  0  0  0  0
  -27.5970  -32.5670   25.7870 C   0  0  0  0  0  1  0  0  0  0  0  0
  2  1  1  0
  3  1  2  0
  4  6  2  0
  4  5  1  0
  5  2  2  0
  6  3  1  0
  7 19  1  0
  8 13  1  0
  9 10  1  0
  9  8  1  0
 11 10  1  0
 11 26  1  0
 11 12  1  0
 13  7  1  0
 13 12  1  0
 14  7  2  0
 15 18  1  0
 15  5  1  0
 16 19  1  0
 16 17  1  0
 18 16  1  0
 18 21  1  0
 19 22  1  0
 20 15  2  0
 23 24  2  0
 24 25  1  0
 24 43  1  0
 25 28  1  0
 26 23  1  0
 26 27  1  0
 27 25  2  0
 28 29  1  0
 29 30  2  0
 31 34  1  0
 31 30  1  0
 32 31  2  0
 33 32  1  0
 33 28  2  0
 34 35  1  0
 35 36  1  0
 36 37  2  0
 38 37  1  0
 38 42  1  0
 39 38  2  0
 40 35  2  0
 40 39  1  0
 41 40  1  0
 43 44  1  0
 44 47  1  0
 44 46  1  0
 45 43  2  0
 48 49  1  0
 48 23  1  0
 50 48  1  0
 51 53  1  0
 51  6  1  0
 52 51  1  0
 54 65  2  0
 55 53  1  0
 55 60  1  0
 56 64  1  0
 56 66  1  0
 57 63  1  0
 57 59  1  0
 58 64  1  0
 59 60  2  0
 59 58  1  0
 61 62  1  0
 61 55  2  0
 62 57  2  0
 63 56  1  0
 64 54  1  0
 66 68  2  0
 67 66  1  0
 69 67  1  0
 70 79  2  0
 70 75  1  0
 71 67  1  0
 71 75  1  0
 72 71  1  0
 73 74  1  0
 73 72  1  0
 74 70  1  0
 75 76  2  0
 76 77  1  0
 78 77  2  0
 79 78  1  0
 80 54  1  0
 80 81  1  0
 80 90  1  0
 81 84  1  0
 82 86  1  0
 82 81  1  0
 83 82  2  0
 86 85  1  0
 88 86  1  0
 88 89  1  0
 88 87  1  0
 90 93  1  1
 90 91  1  0
 92 90  1  0
M  ISO  4   7 100  19 100  51 101  53 101
M  END
>  <TORSDO>  (27) 
F 17

>  <SCORE>  (27) 
-14.916

>  <name>  (27) 
26

>  <ligand_id>  (27) 
26

>  <original_smiles>  (27) 
[H]c1c([H])c(C(=O)N([H])C(=[N+]([H])C(=O)N2C([H])([H])C([H])([H])C([H])([H])C([H])(n3nc(-c4c([H])c([H])c(Oc5c([H])c([H])c(F)c([H])c5F)c([H])c4[H])c(C(=O)N([H])[H])c3N([H])[H])C2([H])[H])C([H])([H])[H])c([H])c(N([H])Oc2c([H])c([H])c3c(c2[H])C([H])([H])N(C(=O)C([H])(N([H])C(=O)C([H])(N([H])C([H])([H])[H])C([H])([H])[H])C(C([H])([H])[H])(C([H])([H])[H])C([H])([H])[H])C([H])(C(=O)N([H])C2([H])c4c([H])c([H])c([H])c([H])c4C([H])([H])C([H])([H])C2([H])[H])C3([H])[H])c1[H]

>  <smiles>  (27) 
[H]c1c([H])c(C(=O)N([H])C(=[N+]([H])C(=O)N2C([H])([H])C([H])([H])C([H])([H])C([H])(n3nc(-c4c([H])c([H])c(Oc5c([H])c([H])c(F)c([H])c5F)c([H])c4[H])c(C(=O)N([H])[H])c3N([H])[H])C2([H])[H])C([H])([H])[H])c([H])c(N([H])Oc2c([H])c([H])c3c(c2[H])C([H])([H])N(C(=O)C([H])(N([H])C(=O)C([H])(N([H])C([H])([H])[H])C([H])([H])[H])C(C([H])([H])[H])(C([H])([H])[H])C([H])([H])[H])C([H])(C(=O)N([H])C2([H])c4c([H])c([H])c([H])c([H])c4C([H])([H])C([H])([H])C2([H])[H])C3([H])[H])c1[H]

$$$$
27:0:0
     RDKit          3D

 94103  0  0  1  0  0  0  0  0999 V2000
  -28.7750  -24.0290   19.1210 C   0  0  0  0  0  0  0  0  0  0  0  0
  -28.9900  -23.4010   17.8350 C   0  0  0  0  0  0  0  0  0  0  0  0
  -28.9560  -22.8920   20.0970 C   0  0  0  0  0  0  0  0  0  0  0  0
  -28.7270  -23.9280   16.6230 C   0  0  0  0  0  2  0  0  0  0  0  0
  -28.4890  -25.4000   19.2100 C   0  0  0  0  0  3  0  0  0  0  0  0
  -29.4950  -22.0010   18.0010 C   0  0  0  0  0  2  0  0  0  0  0  0
  -29.3400  -21.7200   19.4280 N   0  0  0  0  0  0  0  0  0  0  0  0
  -28.7950  -22.9580   21.3200 O   0  0  0  0  0  0  0  0  0  0  0  0
  -28.6410  -19.5450   20.6360 C   0  0  0  0  0  3  0  0  0  0  0  0
  -28.7630  -18.1230   20.8250 C   0  0  0  0  0  3  0  0  0  0  0  0
  -30.7710  -18.0910   19.5420 C   0  0  0  0  0  3  0  0  0  0  0  0
  -29.5620  -20.2980   19.8550 C   0  0  0  0  0  0  0  0  0  0  0  0
  -29.8150  -17.3280   20.2710 C   0  0  0  0  0  0  0  0  0  0  0  0
  -30.6480  -19.5120   19.3410 C   0  0  0  0  0  0  0  0  0  0  0  0
  -31.6120  -20.1170   18.6070 F   0  0  0  0  0  0  0  0  0  0  0  0
  -30.5830  -14.7850   20.0010 C   0  0  0  0  0  0  0  0  0  0  0  0
  -30.3460  -12.5320   18.9350 C   0  0  0  0  0  2  0  0  0  0  0  0
  -29.3280  -12.6500   17.7770 C   0  0  0  0  0  2  0  0  0  0  0  0
  -27.8850  -12.4720   18.2920 C   0  0  0  0  0  2  0  0  0  0  0  0
  -27.5980  -13.3140   19.5630 C   0  0  0  0  0  3  0  0  0  0  0  0
  -28.7240  -13.1620   20.6090 C   0  0  0  0  0  2  0  0  0  0  0  0
  -29.9870  -13.5430   19.9570 N   0  0  0  0  0  0  0  0  0  0  0  0
  -31.7210  -14.9410   19.5450 O   0  0  0  0  0  0  0  0  0  0  0  0
  -29.8000  -15.8440   20.4400 N   0  0  0  0  0  0  0  0  0  0  0  0
  -28.9610  -15.5030   20.8850 H   0  0  0  0  0  0  0  0  0  0  0  0
  -25.2600  -13.9010   20.4470 C   0  0  0  0  0  0  0  0  0  0  0  0
  -24.2140  -13.1220   20.8640 C   0  0  0  0  0  0  0  0  0  0  0  0
  -24.6660  -11.7710   20.7680 C   0  0  0  0  0  0  0  0  0  0  0  0
  -26.2820  -13.0220   20.1240 N   0  0  0  0  0  0  0  0  0  0  0  0
  -25.9340  -11.7340   20.3780 N   0  0  0  0  0  0  0  0  0  0  0  0
  -23.9440  -10.5070   20.9710 C   0  0  0  0  0  0  0  0  0  0  0  0
  -24.4050   -9.5300   21.8800 C   0  0  0  0  0  3  0  0  0  0  0  0
  -23.6830   -8.3320   22.0720 C   0  0  0  0  0  3  0  0  0  0  0  0
  -22.4860   -8.1020   21.3520 C   0  0  0  0  0  0  0  0  0  0  0  0
  -22.0440   -9.0680   20.4310 C   0  0  0  0  0  3  0  0  0  0  0  0
  -22.7660  -10.2580   20.2390 C   0  0  0  0  0  3  0  0  0  0  0  0
  -21.7330   -6.9570   21.4530 O   0  0  0  0  0  0  0  0  0  0  0  0
  -21.6920   -6.2220   22.6120 C   0  0  0  0  0  0  0  0  0  0  0  0
  -21.2620   -6.7830   23.8340 C   0  0  0  0  0  3  0  0  0  0  0  0
  -21.1680   -5.9740   24.9840 C   0  0  0  0  0  3  0  0  0  0  0  0
  -21.4960   -4.6060   24.9130 C   0  0  0  0  0  0  0  0  0  0  0  0
  -21.9200   -4.0460   23.6950 C   0  0  0  0  0  3  0  0  0  0  0  0
  -22.0150   -4.8520   22.5470 C   0  0  0  0  0  0  0  0  0  0  0  0
  -22.4040   -4.3020   21.3720 F   0  0  0  0  0  0  0  0  0  0  0  0
  -21.3990   -3.8280   26.0170 F   0  0  0  0  0  0  0  0  0  0  0  0
  -22.8400  -13.5990   21.2330 C   0  0  0  0  0  0  0  0  0  0  0  0
  -22.1620  -12.8850   22.1250 N   0  0  0  0  0  0  0  0  0  0  0  0
  -22.3770  -14.6400   20.7670 O   0  0  0  0  0  0  0  0  0  0  0  0
  -22.5500  -12.0430   22.5240 H   0  0  0  0  0  0  0  0  0  0  0  0
  -21.2420  -13.1860   22.4150 H   0  0  0  0  0  0  0  0  0  0  0  0
  -25.4230  -15.2740   20.2950 N   0  0  0  0  0  0  0  0  0  0  0  0
  -24.6650  -15.9280   20.4620 H   0  0  0  0  0  0  0  0  0  0  0  0
  -26.2390  -15.7140   19.8900 H   0  0  0  0  0  0  0  0  0  0  0  0
  -28.2830  -26.3560   20.2330 O   0  0  0  0  0  0  0  0  0  0  0  0
  -24.6100  -31.8720   23.2220 C   0  0  0  0  0  0  0  0  0  0  0  0
  -27.2160  -27.2850   20.1380 C   0  0  0  0  0  0  0  0  0  0  0  0
  -23.4070  -30.4820   21.5760 C   0  0  0  0  0  3  0  0  0  0  0  0
  -24.8580  -28.9350   20.1370 C   0  0  0  0  0  0  0  0  0  0  0  0
  -25.9520  -30.7850   21.4010 C   0  0  0  0  0  2  0  0  0  0  0  0
  -26.0310  -29.4080   20.7420 C   0  0  0  0  0  0  0  0  0  0  0  0
  -27.2110  -28.5920   20.7370 C   0  0  0  0  0  3  0  0  0  0  0  0
  -26.0130  -26.8780   19.5170 C   0  0  0  0  0  3  0  0  0  0  0  0
  -24.8540  -27.6770   19.5160 C   0  0  0  0  0  3  0  0  0  0  0  0
  -23.6230  -29.8150   20.1920 C   0  0  0  0  0  2  0  0  0  0  0  0
  -24.6750  -31.0650   22.1220 N   0  0  0  0  0  0  0  0  0  0  0  0
  -23.5250  -32.1490   23.7560 O   0  0  0  0  0  0  0  0  0  0  0  0
  -22.7400  -29.4630   22.5320 C   0  0  0  0  0  0  0  0  0  0  0  0
  -21.4110  -29.2960   22.4120 N   0  0  0  0  0  0  0  0  0  0  0  0
  -23.4170  -28.8260   23.3430 O   0  0  0  0  0  0  0  0  0  0  0  0
  -20.9230  -29.8620   21.7310 H   0  0  0  0  0  0  0  0  0  0  0  0
  -18.0270  -28.1200   22.9280 C   0  0  0  0  0  0  0  0  0  0  0  0
  -20.5890  -28.3590   23.1810 C   0  0  0  0  0  3  0  0  0  0  0  0
  -20.6760  -26.9320   22.5930 C   0  0  0  0  0  2  0  0  0  0  0  0
  -19.5640  -26.6260   21.5850 C   0  0  0  0  0  2  0  0  0  0  0  0
  -18.1890  -26.7760   22.2390 C   0  0  0  0  0  2  0  0  0  0  0  0
  -19.1550  -28.8710   23.3560 C   0  0  0  0  0  0  0  0  0  0  0  0
  -18.9490  -30.1290   23.9610 C   0  0  0  0  0  3  0  0  0  0  0  0
  -17.6490  -30.6380   24.1420 C   0  0  0  0  0  3  0  0  0  0  0  0
  -16.5360  -29.8850   23.7290 C   0  0  0  0  0  3  0  0  0  0  0  0
  -16.7260  -28.6280   23.1280 C   0  0  0  0  0  3  0  0  0  0  0  0
  -25.8900  -32.5030   23.8480 C   0  0  0  0  0  3  0  0  0  0  0  0
  -25.5790  -33.8980   24.1880 N   0  0  0  0  0  0  0  0  0  0  0  0
  -25.8950  -34.9580   23.4300 C   0  0  0  0  0  0  0  0  0  0  0  0
  -26.5490  -34.8610   22.3880 O   0  0  0  0  0  0  0  0  0  0  0  0
  -24.9950  -34.0460   24.9980 H   0  0  0  0  0  0  0  0  0  0  0  0
  -24.1500  -36.7430   23.1200 C   0  0  0  0  0  1  0  0  0  0  0  0
  -25.4100  -36.3420   23.9030 C   0  0  0  0  0  3  0  0  0  0  0  0
  -27.5550  -37.2380   24.6950 C   0  0  0  0  0  1  0  0  0  0  0  0
  -26.4350  -37.4010   23.7720 N   0  0  0  0  0  0  0  0  0  0  0  0
  -26.0260  -38.3190   23.9280 H   0  0  0  0  0  0  0  0  0  0  0  0
  -26.4060  -31.7250   25.1210 C   0  0  1  0  0  0  0  0  0  0  0  0
  -25.3130  -31.4820   26.1870 C   0  0  0  0  0  1  0  0  0  0  0  0
  -26.9910  -30.3490   24.7240 C   0  0  0  0  0  1  0  0  0  0  0  0
  -27.5560  -32.5170   25.7870 C   0  0  0  0  0  1  0  0  0  0  0  0
  1  5  2  0
  1  3  1  0
  2  6  1  0
  2  1  1  0
  3  8  2  0
  4  2  2  0
  5 54  1  0
  6  7  1  0
  7 12  1  0
  7  3  1  0
  9 10  1  0
 11 13  1  0
 12  9  2  0
 13 24  1  0
 13 10  2  0
 14 11  2  0
 14 12  1  0
 15 14  1  0
 16 24  1  0
 17 22  1  0
 18 19  1  0
 18 17  1  0
 20 19  1  0
 20 29  1  0
 20 21  1  0
 22 16  1  0
 22 21  1  0
 23 16  2  0
 24 25  1  0
 26 27  2  0
 27 46  1  0
 28 27  1  0
 28 31  1  0
 29 30  1  0
 29 26  1  0
 30 28  2  0
 31 32  1  0
 32 33  2  0
 34 37  1  0
 34 33  1  0
 35 34  2  0
 36 35  1  0
 36 31  2  0
 37 38  1  0
 38 39  1  0
 39 40  2  0
 41 40  1  0
 41 45  1  0
 42 41  2  0
 43 38  2  0
 43 42  1  0
 44 43  1  0
 46 47  1  0
 47 50  1  0
 47 49  1  0
 48 46  2  0
 51 26  1  0
 51 52  1  0
 53 51  1  0
 55 66  2  0
 56 54  1  0
 56 61  1  0
 57 65  1  0
 57 67  1  0
 58 64  1  0
 58 60  1  0
 59 65  1  0
 60 59  1  0
 61 60  2  0
 62 56  2  0
 63 62  1  0
 63 58  2  0
 64 57  1  0
 65 55  1  0
 67 69  2  0
 68 67  1  0
 70 68  1  0
 71 80  2  0
 71 76  1  0
 72 68  1  0
 72 76  1  0
 73 72  1  0
 74 75  1  0
 74 73  1  0
 75 71  1  0
 76 77  2  0
 77 78  1  0
 79 78  2  0
 80 79  1  0
 81 55  1  0
 81 82  1  0
 81 91  1  0
 82 85  1  0
 83 87  1  0
 83 82  1  0
 84 83  2  0
 87 86  1  0
 89 87  1  0
 89 90  1  0
 89 88  1  0
 91 94  1  1
 91 92  1  0
 93 91  1  0
M  ISO  4   5 101  16 100  24 100  54 101
M  END
>  <TORSDO>  (28) 
F 17

>  <SCORE>  (28) 
-14.887

>  <name>  (28) 
27

>  <ligand_id>  (28) 
27

>  <original_smiles>  (28) 
[H]C([H])=C1C(=C([H])Oc2c([H])c([H])c3c(c2[H])C([H])([H])N(C(=O)C([H])(N([H])C(=O)C([H])(N([H])C([H])([H])[H])C([H])([H])[H])C(C([H])([H])[H])(C([H])([H])[H])C([H])([H])[H])C([H])(C(=O)N([H])C2([H])c4c([H])c([H])c([H])c([H])c4C([H])([H])C([H])([H])C2([H])[H])C3([H])[H])C(=O)N(c2c([H])c([H])c(N([H])C(=O)N3C([H])([H])C([H])([H])C([H])([H])C([H])(n4nc(-c5c([H])c([H])c(Oc6c([H])c([H])c(F)c([H])c6F)c([H])c5[H])c(C(=O)N([H])[H])c4N([H])[H])C3([H])[H])c([H])c2F)C1([H])[H]

>  <smiles>  (28) 
[H]C([H])=C1C(=C([H])Oc2c([H])c([H])c3c(c2[H])C([H])([H])N(C(=O)C([H])(N([H])C(=O)C([H])(N([H])C([H])([H])[H])C([H])([H])[H])C(C([H])([H])[H])(C([H])([H])[H])C([H])([H])[H])C([H])(C(=O)N([H])C2([H])c4c([H])c([H])c([H])c([H])c4C([H])([H])C([H])([H])C2([H])[H])C3([H])[H])C(=O)N(c2c([H])c([H])c(N([H])C(=O)N3C([H])([H])C([H])([H])C([H])([H])C([H])(n4nc(-c5c([H])c([H])c(Oc6c([H])c([H])c(F)c([H])c6F)c([H])c5[H])c(C(=O)N([H])[H])c4N([H])[H])C3([H])[H])c([H])c2F)C1([H])[H]

$$$$
28:0:0
     RDKit          3D

 93102  0  0  1  0  0  0  0  0999 V2000
  -27.9980  -23.2730   21.0590 C   0  0  0  0  0  3  0  0  0  0  0  0
  -28.6750  -23.8200   20.0410 C   0  0  0  0  0  0  0  0  0  0  0  0
  -28.3500  -21.8590   21.2140 C   0  0  0  0  0  0  0  0  0  0  0  0
  -29.4790  -22.6840   19.5130 C   0  0  0  0  0  0  0  0  0  0  0  0
  -29.2480  -21.5350   20.2540 N   0  0  0  0  0  0  0  0  0  0  0  0
  -27.9060  -21.0810   22.0650 O   0  0  0  0  0  0  0  0  0  0  0  0
  -30.2270  -22.7350   18.5300 O   0  0  0  0  0  0  0  0  0  0  0  0
  -32.3220  -19.3120   20.1680 C   0  0  0  0  0  3  0  0  0  0  0  0
  -31.4430  -20.4060   20.1480 C   0  0  0  0  0  3  0  0  0  0  0  0
  -31.8540  -17.9900   20.2420 C   0  0  0  0  0  3  0  0  0  0  0  0
  -29.5800  -18.8460   20.2910 C   0  0  0  0  0  3  0  0  0  0  0  0
  -30.0400  -20.2460   20.2140 C   0  0  0  0  0  0  0  0  0  0  0  0
  -30.4740  -17.6730   20.2850 C   0  0  0  0  0  0  0  0  0  0  0  0
  -30.7840  -15.0350   20.1030 C   0  0  0  0  0  0  0  0  0  0  0  0
  -30.5330  -12.7510   19.1010 C   0  0  0  0  0  2  0  0  0  0  0  0
  -29.5550  -12.8070   17.9080 C   0  0  0  0  0  2  0  0  0  0  0  0
  -28.1070  -12.6140   18.3940 C   0  0  0  0  0  2  0  0  0  0  0  0
  -27.7690  -13.4970   19.6260 C   0  0  0  0  0  3  0  0  0  0  0  0
  -28.8710  -13.4460   20.7050 C   0  0  0  0  0  2  0  0  0  0  0  0
  -30.1320  -13.8170   20.0550 N   0  0  0  0  0  0  0  0  0  0  0  0
  -31.9610  -15.0600   19.7380 O   0  0  0  0  0  0  0  0  0  0  0  0
  -30.0660  -16.2190   20.3440 N   0  0  0  0  0  0  0  0  0  0  0  0
  -29.0900  -16.0600   20.5460 H   0  0  0  0  0  0  0  0  0  0  0  0
  -25.4180  -14.0540   20.4810 C   0  0  0  0  0  0  0  0  0  0  0  0
  -24.3710  -13.2650   20.8720 C   0  0  0  0  0  0  0  0  0  0  0  0
  -24.8340  -11.9170   20.7790 C   0  0  0  0  0  0  0  0  0  0  0  0
  -26.4510  -13.1850   20.1700 N   0  0  0  0  0  0  0  0  0  0  0  0
  -26.1110  -11.8920   20.4140 N   0  0  0  0  0  0  0  0  0  0  0  0
  -24.1170  -10.6470   20.9590 C   0  0  0  0  0  0  0  0  0  0  0  0
  -24.5490   -9.6800   21.8940 C   0  0  0  0  0  3  0  0  0  0  0  0
  -23.8310   -8.4770   22.0640 C   0  0  0  0  0  3  0  0  0  0  0  0
  -22.6660   -8.2320   21.2970 C   0  0  0  0  0  0  0  0  0  0  0  0
  -22.2540   -9.1880   20.3520 C   0  0  0  0  0  3  0  0  0  0  0  0
  -22.9730  -10.3820   20.1810 C   0  0  0  0  0  3  0  0  0  0  0  0
  -21.9190   -7.0810   21.3760 O   0  0  0  0  0  0  0  0  0  0  0  0
  -21.8130   -6.3700   22.5440 C   0  0  0  0  0  0  0  0  0  0  0  0
  -21.2670   -6.9390   23.7160 C   0  0  0  0  0  3  0  0  0  0  0  0
  -21.1130   -6.1510   24.8740 C   0  0  0  0  0  3  0  0  0  0  0  0
  -21.4940   -4.7970   24.8620 C   0  0  0  0  0  0  0  0  0  0  0  0
  -22.0340   -4.2280   23.6950 C   0  0  0  0  0  3  0  0  0  0  0  0
  -22.1890   -5.0120   22.5390 C   0  0  0  0  0  0  0  0  0  0  0  0
  -22.6900   -4.4530   21.4110 F   0  0  0  0  0  0  0  0  0  0  0  0
  -21.3390   -4.0380   25.9730 F   0  0  0  0  0  0  0  0  0  0  0  0
  -22.9860  -13.7310   21.2170 C   0  0  0  0  0  0  0  0  0  0  0  0
  -22.2960  -13.0060   22.0910 N   0  0  0  0  0  0  0  0  0  0  0  0
  -22.5280  -14.7700   20.7470 O   0  0  0  0  0  0  0  0  0  0  0  0
  -22.6820  -12.1650   22.4920 H   0  0  0  0  0  0  0  0  0  0  0  0
  -21.3690  -13.2990   22.3630 H   0  0  0  0  0  0  0  0  0  0  0  0
  -25.5710  -15.4290   20.3380 N   0  0  0  0  0  0  0  0  0  0  0  0
  -24.8040  -16.0740   20.4960 H   0  0  0  0  0  0  0  0  0  0  0  0
  -26.3920  -15.8800   19.9550 H   0  0  0  0  0  0  0  0  0  0  0  0
  -28.5500  -25.2810   19.3780 C   0  0  0  0  0  2  0  0  0  0  0  0
  -28.4080  -26.5740   20.1490 O   0  0  0  0  0  0  0  0  0  0  0  0
  -24.6300  -31.9660   23.2260 C   0  0  0  0  0  0  0  0  0  0  0  0
  -27.2870  -27.4440   20.0700 C   0  0  0  0  0  0  0  0  0  0  0  0
  -23.4390  -30.5740   21.5730 C   0  0  0  0  0  3  0  0  0  0  0  0
  -24.9030  -29.0680   20.1040 C   0  0  0  0  0  0  0  0  0  0  0  0
  -25.9760  -30.9210   21.3800 C   0  0  0  0  0  2  0  0  0  0  0  0
  -26.0720  -29.5500   20.7050 C   0  0  0  0  0  0  0  0  0  0  0  0
  -27.2610  -28.7490   20.6790 C   0  0  0  0  0  3  0  0  0  0  0  0
  -26.0860  -27.0300   19.4510 C   0  0  0  0  0  3  0  0  0  0  0  0
  -24.9170  -27.8170   19.4680 C   0  0  0  0  0  3  0  0  0  0  0  0
  -23.6540  -29.9260   20.1790 C   0  0  0  0  0  2  0  0  0  0  0  0
  -24.7020  -31.1730   22.1160 N   0  0  0  0  0  0  0  0  0  0  0  0
  -23.5450  -32.2170   23.7720 O   0  0  0  0  0  0  0  0  0  0  0  0
  -22.7980  -29.5320   22.5220 C   0  0  0  0  0  0  0  0  0  0  0  0
  -21.4740  -29.3330   22.4030 N   0  0  0  0  0  0  0  0  0  0  0  0
  -23.4930  -28.9070   23.3280 O   0  0  0  0  0  0  0  0  0  0  0  0
  -20.9710  -29.8920   21.7290 H   0  0  0  0  0  0  0  0  0  0  0  0
  -18.1220  -28.0670   22.9140 C   0  0  0  0  0  0  0  0  0  0  0  0
  -20.6780  -28.3690   23.1650 C   0  0  0  0  0  3  0  0  0  0  0  0
  -20.8000  -26.9500   22.5650 C   0  0  0  0  0  2  0  0  0  0  0  0
  -19.6950  -26.6240   21.5550 C   0  0  0  0  0  2  0  0  0  0  0  0
  -18.3160  -26.7330   22.2130 C   0  0  0  0  0  2  0  0  0  0  0  0
  -19.2310  -28.8420   23.3480 C   0  0  0  0  0  0  0  0  0  0  0  0
  -18.9940  -30.0900   23.9640 C   0  0  0  0  0  3  0  0  0  0  0  0
  -17.6820  -30.5640   24.1510 C   0  0  0  0  0  3  0  0  0  0  0  0
  -16.5880  -29.7860   23.7340 C   0  0  0  0  0  3  0  0  0  0  0  0
  -16.8090  -28.5390   23.1210 C   0  0  0  0  0  3  0  0  0  0  0  0
  -25.9040  -32.6120   23.8500 C   0  0  0  0  0  3  0  0  0  0  0  0
  -25.5820  -34.0100   24.1750 N   0  0  0  0  0  0  0  0  0  0  0  0
  -25.9090  -35.0660   23.4180 C   0  0  0  0  0  0  0  0  0  0  0  0
  -26.5850  -34.9660   22.3910 O   0  0  0  0  0  0  0  0  0  0  0  0
  -24.9810  -34.1600   24.9720 H   0  0  0  0  0  0  0  0  0  0  0  0
  -24.1800  -36.8550   23.0450 C   0  0  0  0  0  1  0  0  0  0  0  0
  -25.4110  -36.4520   23.8730 C   0  0  0  0  0  3  0  0  0  0  0  0
  -27.5250  -37.3480   24.7450 C   0  0  0  0  0  1  0  0  0  0  0  0
  -26.4420  -37.5090   23.7780 N   0  0  0  0  0  0  0  0  0  0  0  0
  -26.0290  -38.4270   23.9140 H   0  0  0  0  0  0  0  0  0  0  0  0
  -26.4220  -31.8530   25.1320 C   0  0  1  0  0  0  0  0  0  0  0  0
  -25.3250  -31.6030   26.1940 C   0  0  0  0  0  1  0  0  0  0  0  0
  -27.0280  -30.4830   24.7520 C   0  0  0  0  0  1  0  0  0  0  0  0
  -27.5560  -32.6660   25.8010 C   0  0  0  0  0  1  0  0  0  0  0  0
  1  3  1  0
  2  1  2  0
  3  6  2  0
  4  2  1  0
  4  5  1  0
  5  3  1  0
  7  4  2  0
  8 10  1  0
  9  8  2  0
  9 12  1  0
 10 13  2  0
 12  5  1  0
 12 11  2  0
 13 11  1  0
 13 22  1  0
 14 22  1  0
 15 20  1  0
 16 17  1  0
 16 15  1  0
 18 17  1  0
 18 27  1  0
 18 19  1  0
 20 14  1  0
 20 19  1  0
 21 14  2  0
 22 23  1  0
 24 25  2  0
 25 44  1  0
 26 25  1  0
 26 29  1  0
 27 28  1  0
 27 24  1  0
 28 26  2  0
 29 30  1  0
 30 31  2  0
 32 35  1  0
 32 31  1  0
 33 32  2  0
 34 33  1  0
 34 29  2  0
 35 36  1  0
 36 37  1  0
 37 38  2  0
 39 38  1  0
 39 43  1  0
 40 39  2  0
 41 36  2  0
 41 40  1  0
 42 41  1  0
 44 45  1  0
 45 48  1  0
 45 47  1  0
 46 44  2  0
 49 24  1  0
 49 50  1  0
 51 49  1  0
 52  2  1  0
 52 53  1  0
 54 65  2  0
 55 53  1  0
 55 60  1  0
 56 64  1  0
 56 66  1  0
 57 63  1  0
 57 59  1  0
 58 64  1  0
 59 58  1  0
 60 59  2  0
 61 62  1  0
 61 55  2  0
 62 57  2  0
 63 56  1  0
 64 54  1  0
 66 68  2  0
 67 66  1  0
 69 67  1  0
 70 79  2  0
 70 75  1  0
 71 67  1  0
 71 75  1  0
 72 71  1  0
 73 74  1  0
 73 72  1  0
 74 70  1  0
 75 76  2  0
 76 77  1  0
 78 77  2  0
 79 78  1  0
 80 54  1  0
 80 81  1  0
 80 90  1  0
 81 84  1  0
 82 86  1  0
 82 81  1  0
 83 82  2  0
 86 85  1  0
 88 86  1  0
 88 89  1  0
 88 87  1  0
 90 93  1  1
 90 91  1  0
 92 90  1  0
M  ISO  4  14 100  22 100  52 101  53 101
M  END
>  <TORSDO>  (29) 
F 18

>  <SCORE>  (29) 
-14.060

>  <name>  (29) 
28

>  <ligand_id>  (29) 
28

>  <original_smiles>  (29) 
[H]C1=C(C([H])([H])Oc2c([H])c([H])c3c(c2[H])C([H])([H])N(C(=O)C([H])(N([H])C(=O)C([H])(N([H])C([H])([H])[H])C([H])([H])[H])C(C([H])([H])[H])(C([H])([H])[H])C([H])([H])[H])C([H])(C(=O)N([H])C2([H])c4c([H])c([H])c([H])c([H])c4C([H])([H])C([H])([H])C2([H])[H])C3([H])[H])C(=O)N(c2c([H])c([H])c([H])c(N([H])C(=O)N3C([H])([H])C([H])([H])C([H])([H])C([H])(n4nc(-c5c([H])c([H])c(Oc6c([H])c([H])c(F)c([H])c6F)c([H])c5[H])c(C(=O)N([H])[H])c4N([H])[H])C3([H])[H])c2[H])C1=O

>  <smiles>  (29) 
[H]C1=C(C([H])([H])Oc2c([H])c([H])c3c(c2[H])C([H])([H])N(C(=O)C([H])(N([H])C(=O)C([H])(N([H])C([H])([H])[H])C([H])([H])[H])C(C([H])([H])[H])(C([H])([H])[H])C([H])([H])[H])C([H])(C(=O)N([H])C2([H])c4c([H])c([H])c([H])c([H])c4C([H])([H])C([H])([H])C2([H])[H])C3([H])[H])C(=O)N(c2c([H])c([H])c([H])c(N([H])C(=O)N3C([H])([H])C([H])([H])C([H])([H])C([H])(n4nc(-c5c([H])c([H])c(Oc6c([H])c([H])c(F)c([H])c6F)c([H])c5[H])c(C(=O)N([H])[H])c4N([H])[H])C3([H])[H])c2[H])C1=O

$$$$
29:0:0
     RDKit          3D

 95103  0  0  1  0  0  0  0  0999 V2000
  -29.4120  -20.7700   21.0810 C   0  0  0  0  0  0  0  0  0  0  0  0
  -29.4660  -21.9750   20.4730 N   0  0  0  0  0  0  0  0  0  0  0  0
  -29.2700  -20.6710   22.3020 O   0  0  0  0  0  0  0  0  0  0  0  0
  -29.5420  -21.9620   19.4620 H   0  0  0  0  0  0  0  0  0  0  0  0
  -29.9460  -17.1740   18.6620 C   0  0  0  0  0  3  0  0  0  0  0  0
  -29.7580  -18.4220   18.0450 C   0  0  0  0  0  3  0  0  0  0  0  0
  -29.7630  -18.2410   20.8410 C   0  0  0  0  0  3  0  0  0  0  0  0
  -29.5920  -19.5220   20.2290 C   0  0  0  0  0  0  0  0  0  0  0  0
  -29.9510  -17.0610   20.0700 C   0  0  0  0  0  0  0  0  0  0  0  0
  -29.5770  -19.5840   18.8120 C   0  0  0  0  0  0  0  0  0  0  0  0
  -29.3930  -20.7550   18.1540 F   0  0  0  0  0  0  0  0  0  0  0  0
  -30.7660  -14.7250   20.1710 C   0  0  0  0  0  0  0  0  0  0  0  0
  -30.4680  -12.5400   19.0850 C   0  0  0  0  0  2  0  0  0  0  0  0
  -29.4870  -12.7240   17.9080 C   0  0  0  0  0  2  0  0  0  0  0  0
  -28.0310  -12.5580   18.3840 C   0  0  0  0  0  2  0  0  0  0  0  0
  -27.7230  -13.3980   19.6550 C   0  0  0  0  0  3  0  0  0  0  0  0
  -28.8200  -13.2200   20.7310 C   0  0  0  0  0  2  0  0  0  0  0  0
  -30.1200  -13.5280   20.1180 N   0  0  0  0  0  0  0  0  0  0  0  0
  -31.8710  -14.9050   19.6520 O   0  0  0  0  0  0  0  0  0  0  0  0
  -30.0670  -15.7650   20.6830 N   0  0  0  0  0  0  0  0  0  0  0  0
  -29.3360  -15.5240   21.3350 H   0  0  0  0  0  0  0  0  0  0  0  0
  -25.3590  -13.9750   20.4920 C   0  0  0  0  0  0  0  0  0  0  0  0
  -24.3100  -13.1880   20.8890 C   0  0  0  0  0  0  0  0  0  0  0  0
  -24.7720  -11.8390   20.7990 C   0  0  0  0  0  0  0  0  0  0  0  0
  -26.3930  -13.1040   20.1850 N   0  0  0  0  0  0  0  0  0  0  0  0
  -26.0460  -11.8130   20.4260 N   0  0  0  0  0  0  0  0  0  0  0  0
  -24.0580  -10.5700   20.9900 C   0  0  0  0  0  0  0  0  0  0  0  0
  -24.5060   -9.6040   21.9180 C   0  0  0  0  0  3  0  0  0  0  0  0
  -23.7940   -8.4000   22.0970 C   0  0  0  0  0  3  0  0  0  0  0  0
  -22.6180   -8.1520   21.3510 C   0  0  0  0  0  0  0  0  0  0  0  0
  -22.1890   -9.1070   20.4130 C   0  0  0  0  0  3  0  0  0  0  0  0
  -22.9010  -10.3030   20.2310 C   0  0  0  0  0  3  0  0  0  0  0  0
  -21.8770   -6.9980   21.4380 O   0  0  0  0  0  0  0  0  0  0  0  0
  -21.8070   -6.2730   22.6010 C   0  0  0  0  0  0  0  0  0  0  0  0
  -21.2690   -6.8190   23.7870 C   0  0  0  0  0  3  0  0  0  0  0  0
  -21.1540   -6.0170   24.9400 C   0  0  0  0  0  3  0  0  0  0  0  0
  -21.5660   -4.6720   24.9070 C   0  0  0  0  0  0  0  0  0  0  0  0
  -22.0970   -4.1260   23.7250 C   0  0  0  0  0  3  0  0  0  0  0  0
  -22.2150   -4.9250   22.5740 C   0  0  0  0  0  0  0  0  0  0  0  0
  -22.7090   -4.3880   21.4320 F   0  0  0  0  0  0  0  0  0  0  0  0
  -21.4460   -3.8980   26.0130 F   0  0  0  0  0  0  0  0  0  0  0  0
  -22.9280  -13.6540   21.2410 C   0  0  0  0  0  0  0  0  0  0  0  0
  -22.2390  -12.9290   22.1170 N   0  0  0  0  0  0  0  0  0  0  0  0
  -22.4670  -14.6950   20.7770 O   0  0  0  0  0  0  0  0  0  0  0  0
  -22.6270  -12.0890   22.5180 H   0  0  0  0  0  0  0  0  0  0  0  0
  -21.3120  -13.2230   22.3910 H   0  0  0  0  0  0  0  0  0  0  0  0
  -25.5120  -15.3490   20.3490 N   0  0  0  0  0  0  0  0  0  0  0  0
  -24.7470  -15.9950   20.5190 H   0  0  0  0  0  0  0  0  0  0  0  0
  -26.3460  -15.8050   20.0010 H   0  0  0  0  0  0  0  0  0  0  0  0
  -30.7700  -23.7040   21.6650 C   0  0  0  0  0  1  0  0  0  0  0  0
  -29.3870  -23.3100   21.1070 C   0  0  0  0  0  3  0  0  0  0  0  0
  -28.8010  -24.4080   20.1660 C   0  0  0  0  0  0  0  0  0  0  0  0
  -28.8560  -24.3150   18.9350 O   0  0  0  0  0  0  0  0  0  0  0  0
  -28.1530  -25.6540   20.8230 C   0  0  0  0  0  2  0  0  0  0  0  0
  -28.2180  -26.8310   19.9830 O   0  0  0  0  0  0  0  0  0  0  0  0
  -24.4890  -31.9690   23.2300 C   0  0  0  0  0  0  0  0  0  0  0  0
  -27.0720  -27.5950   20.0070 C   0  0  0  0  0  0  0  0  0  0  0  0
  -23.2500  -30.5970   21.5880 C   0  0  0  0  0  3  0  0  0  0  0  0
  -24.6770  -29.0960   20.0960 C   0  0  0  0  0  0  0  0  0  0  0  0
  -25.7680  -30.9750   21.3340 C   0  0  0  0  0  2  0  0  0  0  0  0
  -25.8480  -29.6160   20.6630 C   0  0  0  0  0  0  0  0  0  0  0  0
  -27.0520  -28.8750   20.6120 C   0  0  0  0  0  3  0  0  0  0  0  0
  -25.8890  -27.0940   19.4230 C   0  0  0  0  0  3  0  0  0  0  0  0
  -24.6930  -27.8360   19.4710 C   0  0  0  0  0  3  0  0  0  0  0  0
  -23.4300  -29.9460   20.1900 C   0  0  0  0  0  2  0  0  0  0  0  0
  -24.5220  -31.1930   22.1100 N   0  0  0  0  0  0  0  0  0  0  0  0
  -23.4200  -32.2230   23.8040 O   0  0  0  0  0  0  0  0  0  0  0  0
  -22.6240  -29.5540   22.5420 C   0  0  0  0  0  0  0  0  0  0  0  0
  -21.3000  -29.3530   22.4290 N   0  0  0  0  0  0  0  0  0  0  0  0
  -23.3280  -28.9270   23.3380 O   0  0  0  0  0  0  0  0  0  0  0  0
  -20.7900  -29.9070   21.7550 H   0  0  0  0  0  0  0  0  0  0  0  0
  -17.9580  -28.0840   22.9430 C   0  0  0  0  0  0  0  0  0  0  0  0
  -20.5120  -28.3880   23.1990 C   0  0  0  0  0  3  0  0  0  0  0  0
  -20.6370  -26.9660   22.6060 C   0  0  0  0  0  2  0  0  0  0  0  0
  -19.5330  -26.6340   21.5960 C   0  0  0  0  0  2  0  0  0  0  0  0
  -18.1550  -26.7470   22.2520 C   0  0  0  0  0  2  0  0  0  0  0  0
  -19.0650  -28.8620   23.3750 C   0  0  0  0  0  0  0  0  0  0  0  0
  -18.8250  -30.1170   23.9790 C   0  0  0  0  0  3  0  0  0  0  0  0
  -17.5120  -30.5930   24.1560 C   0  0  0  0  0  3  0  0  0  0  0  0
  -16.4200  -29.8100   23.7430 C   0  0  0  0  0  3  0  0  0  0  0  0
  -16.6440  -28.5580   23.1420 C   0  0  0  0  0  3  0  0  0  0  0  0
  -25.7870  -32.5930   23.8320 C   0  0  0  0  0  3  0  0  0  0  0  0
  -26.3050  -31.8340   25.1140 C   0  0  1  0  0  0  0  0  0  0  0  0
  -25.2180  -31.6210   26.1930 C   0  0  0  0  0  1  0  0  0  0  0  0
  -26.8720  -30.4450   24.7350 C   0  0  0  0  0  1  0  0  0  0  0  0
  -27.4680  -32.6240   25.7590 C   0  0  0  0  0  1  0  0  0  0  0  0
  -25.4990  -34.0000   24.1420 N   0  0  0  0  0  0  0  0  0  0  0  0
  -25.8550  -35.0350   23.3700 C   0  0  0  0  0  0  0  0  0  0  0  0
  -26.5290  -34.9060   22.3450 O   0  0  0  0  0  0  0  0  0  0  0  0
  -24.9040  -34.1750   24.9380 H   0  0  0  0  0  0  0  0  0  0  0  0
  -24.1870  -36.8660   22.9470 C   0  0  0  0  0  1  0  0  0  0  0  0
  -25.3880  -36.4380   23.8030 C   0  0  0  0  0  3  0  0  0  0  0  0
  -27.5090  -37.2810   24.7090 C   0  0  0  0  0  1  0  0  0  0  0  0
  -26.4520  -37.4630   23.7190 N   0  0  0  0  0  0  0  0  0  0  0  0
  -26.0630  -38.3950   23.8370 H   0  0  0  0  0  0  0  0  0  0  0  0
  1  3  2  0
  2  1  1  0
  2 51  1  0
  4  2  1  0
  5  9  1  0
  6  5  2  0
  6 10  1  0
  8  7  1  0
  8  1  1  0
  9 20  1  0
  9  7  2  0
 10  8  2  0
 11 10  1  0
 12 20  1  0
 13 18  1  0
 14 15  1  0
 14 13  1  0
 16 15  1  0
 16 25  1  0
 16 17  1  0
 18 12  1  0
 18 17  1  0
 19 12  2  0
 20 21  1  0
 22 23  2  0
 23 42  1  0
 24 23  1  0
 24 27  1  0
 25 26  1  0
 25 22  1  0
 26 24  2  0
 27 28  1  0
 28 29  2  0
 30 33  1  0
 30 29  1  0
 31 30  2  0
 32 31  1  0
 32 27  2  0
 33 34  1  0
 34 35  1  0
 35 36  2  0
 37 36  1  0
 37 41  1  0
 38 37  2  0
 39 34  2  0
 39 38  1  0
 40 39  1  0
 42 43  1  0
 43 46  1  0
 43 45  1  0
 44 42  2  0
 47 22  1  0
 47 48  1  0
 49 47  1  0
 51 50  1  0
 52 54  1  0
 52 51  1  0
 53 52  2  0
 55 57  1  0
 55 54  1  0
 56 67  2  0
 57 62  1  0
 58 66  1  0
 58 68  1  0
 59 65  1  0
 59 61  1  0
 60 66  1  0
 61 60  1  0
 62 61  2  0
 63 64  1  0
 63 57  2  0
 64 59  2  0
 65 58  1  0
 66 56  1  0
 68 70  2  0
 69 68  1  0
 71 69  1  0
 72 81  2  0
 72 77  1  0
 73 69  1  0
 73 77  1  0
 74 73  1  0
 75 76  1  0
 75 74  1  0
 76 72  1  0
 77 78  2  0
 78 79  1  0
 80 79  2  0
 81 80  1  0
 82 56  1  0
 82 87  1  0
 82 83  1  0
 83 86  1  1
 83 84  1  0
 85 83  1  0
 87 90  1  0
 88 92  1  0
 88 87  1  0
 89 88  2  0
 92 91  1  0
 94 92  1  0
 94 95  1  0
 94 93  1  0
M  ISO  4  12 100  20 100  54 101  55 101
M  END
>  <TORSDO>  (30) 
F 20

>  <SCORE>  (30) 
-13.442

>  <name>  (30) 
29

>  <ligand_id>  (30) 
29

>  <original_smiles>  (30) 
[H]c1c([H])c([H])c2c(c1[H])C([H])([H])C([H])([H])C([H])([H])C2([H])N([H])C(=O)C1([H])N(C(=O)C([H])(N([H])C(=O)C([H])(N([H])C([H])([H])[H])C([H])([H])[H])C(C([H])([H])[H])(C([H])([H])[H])C([H])([H])[H])C([H])([H])c2c([H])c(OC([H])([H])C(=O)C([H])(N([H])C(=O)c3c([H])c(N([H])C(=O)N4C([H])([H])C([H])([H])C([H])([H])C([H])(n5nc(-c6c([H])c([H])c(Oc7c([H])c([H])c(F)c([H])c7F)c([H])c6[H])c(C(=O)N([H])[H])c5N([H])[H])C4([H])[H])c([H])c([H])c3F)C([H])([H])[H])c([H])c([H])c2C1([H])[H]

>  <smiles>  (30) 
[H]c1c([H])c([H])c2c(c1[H])C([H])([H])C([H])([H])C([H])([H])C2([H])N([H])C(=O)C1([H])N(C(=O)C([H])(N([H])C(=O)C([H])(N([H])C([H])([H])[H])C([H])([H])[H])C(C([H])([H])[H])(C([H])([H])[H])C([H])([H])[H])C([H])([H])c2c([H])c(OC([H])([H])C(=O)C([H])(N([H])C(=O)c3c([H])c(N([H])C(=O)N4C([H])([H])C([H])([H])C([H])([H])C([H])(n5nc(-c6c([H])c([H])c(Oc7c([H])c([H])c(F)c([H])c7F)c([H])c6[H])c(C(=O)N([H])[H])c5N([H])[H])C4([H])[H])c([H])c([H])c3F)C([H])([H])[H])c([H])c([H])c2C1([H])[H]

$$$$
30:0:0
     RDKit          3D

 93102  0  0  1  0  0  0  0  0999 V2000
  -28.5970  -23.7400   20.1020 C   0  0  0  0  0  0  0  0  0  0  0  0
  -28.8610  -23.3340   21.4710 C   0  0  0  0  0  0  0  0  0  0  0  0
  -28.7340  -22.4710   19.3150 C   0  0  0  0  0  0  0  0  0  0  0  0
  -28.2900  -25.0230   19.6090 C   0  0  0  0  0  3  0  0  0  0  0  0
  -29.0590  -21.8030   21.5170 C   0  0  0  0  0  2  0  0  0  0  0  0
  -29.0830  -21.3690   20.1110 N   0  0  0  0  0  0  0  0  0  0  0  0
  -28.9080  -24.0570   22.4710 O   0  0  0  0  0  0  0  0  0  0  0  0
  -28.5490  -22.3950   18.0930 O   0  0  0  0  0  0  0  0  0  0  0  0
  -30.8770  -18.7290   18.0090 C   0  0  0  0  0  3  0  0  0  0  0  0
  -30.3120  -19.9270   18.4860 C   0  0  0  0  0  3  0  0  0  0  0  0
  -30.7290  -17.5120   18.6980 C   0  0  0  0  0  3  0  0  0  0  0  0
  -29.4410  -18.6970   20.3910 C   0  0  0  0  0  3  0  0  0  0  0  0
  -29.5740  -19.9930   19.6910 C   0  0  0  0  0  0  0  0  0  0  0  0
  -30.0120  -17.4200   19.9130 C   0  0  0  0  0  0  0  0  0  0  0  0
  -30.5810  -14.8580   20.3100 C   0  0  0  0  0  0  0  0  0  0  0  0
  -30.3850  -12.5430   19.3750 C   0  0  0  0  0  2  0  0  0  0  0  0
  -29.4520  -12.5780   18.1430 C   0  0  0  0  0  2  0  0  0  0  0  0
  -27.9840  -12.4100   18.5720 C   0  0  0  0  0  2  0  0  0  0  0  0
  -27.6030  -13.3160   19.7750 C   0  0  0  0  0  3  0  0  0  0  0  0
  -28.6600  -13.2680   20.8990 C   0  0  0  0  0  2  0  0  0  0  0  0
  -29.9520  -13.6250   20.2990 N   0  0  0  0  0  0  0  0  0  0  0  0
  -31.7750  -14.9050   19.9980 O   0  0  0  0  0  0  0  0  0  0  0  0
  -29.8420  -16.0400   20.5050 N   0  0  0  0  0  0  0  0  0  0  0  0
  -28.9630  -15.8940   20.9770 H   0  0  0  0  0  0  0  0  0  0  0  0
  -25.2180  -13.9080   20.4980 C   0  0  0  0  0  0  0  0  0  0  0  0
  -24.1500  -13.1370   20.8680 C   0  0  0  0  0  0  0  0  0  0  0  0
  -24.6110  -11.7850   20.8460 C   0  0  0  0  0  0  0  0  0  0  0  0
  -26.2600  -13.0260   20.2670 N   0  0  0  0  0  0  0  0  0  0  0  0
  -25.9040  -11.7450   20.5420 N   0  0  0  0  0  0  0  0  0  0  0  0
  -23.8820  -10.5250   21.0410 C   0  0  0  0  0  0  0  0  0  0  0  0
  -24.3160   -9.5530   21.9680 C   0  0  0  0  0  3  0  0  0  0  0  0
  -23.5850   -8.3590   22.1500 C   0  0  0  0  0  3  0  0  0  0  0  0
  -22.4040   -8.1300   21.4040 C   0  0  0  0  0  0  0  0  0  0  0  0
  -21.9890   -9.0900   20.4650 C   0  0  0  0  0  3  0  0  0  0  0  0
  -22.7220  -10.2750   20.2810 C   0  0  0  0  0  3  0  0  0  0  0  0
  -21.6430   -6.9890   21.4960 O   0  0  0  0  0  0  0  0  0  0  0  0
  -21.6080   -6.2380   22.6440 C   0  0  0  0  0  0  0  0  0  0  0  0
  -21.2130   -6.7870   23.8820 C   0  0  0  0  0  3  0  0  0  0  0  0
  -21.1250   -5.9630   25.0220 C   0  0  0  0  0  3  0  0  0  0  0  0
  -21.4230   -4.5910   24.9250 C   0  0  0  0  0  0  0  0  0  0  0  0
  -21.8100   -4.0400   23.6900 C   0  0  0  0  0  3  0  0  0  0  0  0
  -21.9000   -4.8610   22.5530 C   0  0  0  0  0  0  0  0  0  0  0  0
  -22.2540   -4.3220   21.3620 F   0  0  0  0  0  0  0  0  0  0  0  0
  -21.3310   -3.7970   26.0160 F   0  0  0  0  0  0  0  0  0  0  0  0
  -22.7520  -13.6190   21.1300 C   0  0  0  0  0  0  0  0  0  0  0  0
  -22.0210  -12.9300   21.9990 N   0  0  0  0  0  0  0  0  0  0  0  0
  -22.3190  -14.6420   20.6030 O   0  0  0  0  0  0  0  0  0  0  0  0
  -22.3850  -12.1030   22.4480 H   0  0  0  0  0  0  0  0  0  0  0  0
  -21.0830  -13.2350   22.2200 H   0  0  0  0  0  0  0  0  0  0  0  0
  -25.3870  -15.2780   20.3120 N   0  0  0  0  0  0  0  0  0  0  0  0
  -24.6240  -15.9370   20.4220 H   0  0  0  0  0  0  0  0  0  0  0  0
  -26.2290  -15.7050   19.9500 H   0  0  0  0  0  0  0  0  0  0  0  0
  -28.2760  -26.3220   20.2310 O   0  0  0  0  0  0  0  0  0  0  0  0
  -24.6300  -31.8760   23.2220 C   0  0  0  0  0  0  0  0  0  0  0  0
  -27.1980  -27.2460   20.1310 C   0  0  0  0  0  0  0  0  0  0  0  0
  -23.4150  -30.4820   21.5880 C   0  0  0  0  0  3  0  0  0  0  0  0
  -24.8490  -28.9230   20.1430 C   0  0  0  0  0  0  0  0  0  0  0  0
  -25.9580  -30.7720   21.3940 C   0  0  0  0  0  2  0  0  0  0  0  0
  -26.0270  -29.3890   20.7390 C   0  0  0  0  0  0  0  0  0  0  0  0
  -27.2000  -28.5600   20.7250 C   0  0  0  0  0  3  0  0  0  0  0  0
  -25.9950  -26.8570   19.5040 C   0  0  0  0  0  3  0  0  0  0  0  0
  -24.8390  -27.6670   19.5160 C   0  0  0  0  0  3  0  0  0  0  0  0
  -23.6150  -29.8030   20.2060 C   0  0  0  0  0  2  0  0  0  0  0  0
  -24.6880  -31.0640   22.1250 N   0  0  0  0  0  0  0  0  0  0  0  0
  -23.5490  -32.1550   23.7640 O   0  0  0  0  0  0  0  0  0  0  0  0
  -22.7510  -29.4720   22.5550 C   0  0  0  0  0  0  0  0  0  0  0  0
  -21.4240  -29.2980   22.4370 N   0  0  0  0  0  0  0  0  0  0  0  0
  -23.4310  -28.8440   23.3720 O   0  0  0  0  0  0  0  0  0  0  0  0
  -20.9350  -29.8560   21.7500 H   0  0  0  0  0  0  0  0  0  0  0  0
  -18.0480  -28.0920   22.9470 C   0  0  0  0  0  0  0  0  0  0  0  0
  -20.6070  -28.3600   23.2100 C   0  0  0  0  0  3  0  0  0  0  0  0
  -20.7100  -26.9260   22.6390 C   0  0  0  0  0  2  0  0  0  0  0  0
  -19.6070  -26.5980   21.6280 C   0  0  0  0  0  2  0  0  0  0  0  0
  -18.2260  -26.7430   22.2720 C   0  0  0  0  0  2  0  0  0  0  0  0
  -19.1670  -28.8590   23.3720 C   0  0  0  0  0  0  0  0  0  0  0  0
  -18.9450  -30.1220   23.9640 C   0  0  0  0  0  3  0  0  0  0  0  0
  -17.6390  -30.6180   24.1370 C   0  0  0  0  0  3  0  0  0  0  0  0
  -16.5360  -29.8480   23.7280 C   0  0  0  0  0  3  0  0  0  0  0  0
  -16.7410  -28.5880   23.1390 C   0  0  0  0  0  3  0  0  0  0  0  0
  -25.9160  -32.5080   23.8370 C   0  0  0  0  0  3  0  0  0  0  0  0
  -25.6050  -33.9040   24.1820 N   0  0  0  0  0  0  0  0  0  0  0  0
  -25.9220  -34.9660   23.4280 C   0  0  0  0  0  0  0  0  0  0  0  0
  -26.5750  -34.8730   22.3850 O   0  0  0  0  0  0  0  0  0  0  0  0
  -25.0270  -34.0500   24.9970 H   0  0  0  0  0  0  0  0  0  0  0  0
  -24.1800  -36.7580   23.1270 C   0  0  0  0  0  1  0  0  0  0  0  0
  -25.4400  -36.3510   23.9070 C   0  0  0  0  0  3  0  0  0  0  0  0
  -27.5910  -37.2370   24.6960 C   0  0  0  0  0  1  0  0  0  0  0  0
  -26.4670  -37.4090   23.7780 N   0  0  0  0  0  0  0  0  0  0  0  0
  -26.0600  -38.3250   23.9440 H   0  0  0  0  0  0  0  0  0  0  0  0
  -26.4400  -31.7340   25.1090 C   0  0  1  0  0  0  0  0  0  0  0  0
  -25.3550  -31.4960   26.1860 C   0  0  0  0  0  1  0  0  0  0  0  0
  -27.0190  -30.3560   24.7100 C   0  0  0  0  0  1  0  0  0  0  0  0
  -27.5970  -32.5260   25.7630 C   0  0  0  0  0  1  0  0  0  0  0  0
  1  2  1  0
  2  5  1  0
  2  7  2  0
  3  1  1  0
  3  6  1  0
  4  1  2  0
  4 53  1  0
  6  5  1  0
  8  3  2  0
  9 10  2  0
  9 11  1  0
 10 13  1  0
 11 14  2  0
 13  6  1  0
 13 12  2  0
 14 12  1  0
 14 23  1  0
 15 23  1  0
 16 21  1  0
 17 18  1  0
 17 16  1  0
 19 18  1  0
 19 28  1  0
 19 20  1  0
 21 15  1  0
 21 20  1  0
 22 15  2  0
 23 24  1  0
 25 26  2  0
 26 45  1  0
 27 26  1  0
 27 30  1  0
 28 25  1  0
 28 29  1  0
 29 27  2  0
 30 31  1  0
 31 32  2  0
 33 36  1  0
 33 32  1  0
 34 33  2  0
 35 34  1  0
 35 30  2  0
 36 37  1  0
 37 38  1  0
 38 39  2  0
 40 39  1  0
 40 44  1  0
 41 40  2  0
 42 37  2  0
 42 41  1  0
 43 42  1  0
 45 46  1  0
 46 49  1  0
 46 48  1  0
 47 45  2  0
 50 51  1  0
 50 25  1  0
 52 50  1  0
 54 65  2  0
 55 53  1  0
 55 60  1  0
 56 64  1  0
 56 66  1  0
 57 63  1  0
 57 59  1  0
 58 64  1  0
 59 58  1  0
 60 59  2  0
 61 62  1  0
 61 55  2  0
 62 57  2  0
 63 56  1  0
 64 54  1  0
 66 68  2  0
 67 66  1  0
 69 67  1  0
 70 79  2  0
 70 75  1  0
 71 67  1  0
 71 75  1  0
 72 71  1  0
 73 74  1  0
 73 72  1  0
 74 70  1  0
 75 76  2  0
 76 77  1  0
 78 77  2  0
 79 78  1  0
 80 54  1  0
 80 81  1  0
 80 90  1  0
 81 84  1  0
 82 86  1  0
 82 81  1  0
 83 82  2  0
 86 85  1  0
 88 86  1  0
 88 89  1  0
 88 87  1  0
 90 93  1  1
 90 91  1  0
 92 90  1  0
M  ISO  4   4 101  15 100  23 100  53 101
M  END
>  <TORSDO>  (31) 
F 17

>  <SCORE>  (31) 
-15.324

>  <name>  (31) 
30

>  <ligand_id>  (31) 
30

>  <original_smiles>  (31) 
[H]C(Oc1c([H])c([H])c2c(c1[H])C([H])([H])N(C(=O)C([H])(N([H])C(=O)C([H])(N([H])C([H])([H])[H])C([H])([H])[H])C(C([H])([H])[H])(C([H])([H])[H])C([H])([H])[H])C([H])(C(=O)N([H])C1([H])c3c([H])c([H])c([H])c([H])c3C([H])([H])C([H])([H])C1([H])[H])C2([H])[H])=C1C(=O)N(c2c([H])c([H])c([H])c(N([H])C(=O)N3C([H])([H])C([H])([H])C([H])([H])C([H])(n4nc(-c5c([H])c([H])c(Oc6c([H])c([H])c(F)c([H])c6F)c([H])c5[H])c(C(=O)N([H])[H])c4N([H])[H])C3([H])[H])c2[H])C([H])([H])C1=O

>  <smiles>  (31) 
[H]C(Oc1c([H])c([H])c2c(c1[H])C([H])([H])N(C(=O)C([H])(N([H])C(=O)C([H])(N([H])C([H])([H])[H])C([H])([H])[H])C(C([H])([H])[H])(C([H])([H])[H])C([H])([H])[H])C([H])(C(=O)N([H])C1([H])c3c([H])c([H])c([H])c([H])c3C([H])([H])C([H])([H])C1([H])[H])C2([H])[H])=C1C(=O)N(c2c([H])c([H])c([H])c(N([H])C(=O)N3C([H])([H])C([H])([H])C([H])([H])C([H])(n4nc(-c5c([H])c([H])c(Oc6c([H])c([H])c(F)c([H])c6F)c([H])c5[H])c(C(=O)N([H])[H])c4N([H])[H])C3([H])[H])c2[H])C([H])([H])C1=O

$$$$
31:0:0
     RDKit          3D

 90 99  0  0  1  0  0  0  0  0999 V2000
  -28.4330  -23.5820   20.4270 C   0  0  0  0  0  0  0  0  0  0  0  0
  -29.6430  -22.9270   19.8990 C   0  0  0  0  0  0  0  0  0  0  0  0
  -27.8840  -24.8770   20.5630 C   0  0  0  0  0  3  0  0  0  0  0  0
  -27.9180  -22.1570   20.8280 C   0  0  0  0  0  2  0  0  0  0  0  0
  -29.1680  -21.6120   20.2510 N   0  0  0  0  0  0  0  0  0  0  0  0
  -30.6370  -23.3920   19.3820 O   0  0  0  0  0  0  0  0  0  0  0  0
  -30.8060  -19.6330   19.8110 C   0  0  0  0  0  3  0  0  0  0  0  0
  -30.9780  -18.1790   19.8590 C   0  0  0  0  0  3  0  0  0  0  0  0
  -29.5870  -20.1500   20.2180 C   0  0  0  0  0  0  0  0  0  0  0  0
  -29.9030  -17.4260   20.3010 C   0  0  0  0  0  0  0  0  0  0  0  0
  -28.6360  -18.6790   20.6780 S   0  0  0  0  0  0  0  0  0  0  0  0
  -30.5370  -14.8900   20.1490 C   0  0  0  0  0  0  0  0  0  0  0  0
  -30.3640  -12.5870   19.1370 C   0  0  0  0  0  2  0  0  0  0  0  0
  -29.3880  -12.6270   17.9400 C   0  0  0  0  0  2  0  0  0  0  0  0
  -27.9350  -12.4260   18.4120 C   0  0  0  0  0  2  0  0  0  0  0  0
  -27.5830  -13.3070   19.6400 C   0  0  0  0  0  3  0  0  0  0  0  0
  -28.6750  -13.2380   20.7300 C   0  0  0  0  0  2  0  0  0  0  0  0
  -29.9420  -13.6380   20.1020 N   0  0  0  0  0  0  0  0  0  0  0  0
  -31.7130  -14.9960   19.7810 O   0  0  0  0  0  0  0  0  0  0  0  0
  -29.7410  -16.0140   20.4370 N   0  0  0  0  0  0  0  0  0  0  0  0
  -28.8210  -15.7430   20.7500 H   0  0  0  0  0  0  0  0  0  0  0  0
  -25.2190  -13.8750   20.4480 C   0  0  0  0  0  0  0  0  0  0  0  0
  -24.1670  -13.0940   20.8400 C   0  0  0  0  0  0  0  0  0  0  0  0
  -24.6330  -11.7440   20.7780 C   0  0  0  0  0  0  0  0  0  0  0  0
  -26.2570  -13.0030   20.1680 N   0  0  0  0  0  0  0  0  0  0  0  0
  -25.9150  -11.7150   20.4310 N   0  0  0  0  0  0  0  0  0  0  0  0
  -23.9160  -10.4770   20.9730 C   0  0  0  0  0  0  0  0  0  0  0  0
  -24.3540   -9.5160   21.9090 C   0  0  0  0  0  3  0  0  0  0  0  0
  -23.6340   -8.3140   22.0910 C   0  0  0  0  0  3  0  0  0  0  0  0
  -22.4630   -8.0670   21.3370 C   0  0  0  0  0  0  0  0  0  0  0  0
  -22.0440   -9.0180   20.3900 C   0  0  0  0  0  3  0  0  0  0  0  0
  -22.7640  -10.2090   20.2060 C   0  0  0  0  0  3  0  0  0  0  0  0
  -21.7150   -6.9180   21.4290 O   0  0  0  0  0  0  0  0  0  0  0  0
  -21.6400   -6.2000   22.5950 C   0  0  0  0  0  0  0  0  0  0  0  0
  -21.1760   -6.7760   23.7980 C   0  0  0  0  0  3  0  0  0  0  0  0
  -21.0500   -5.9840   24.9560 C   0  0  0  0  0  3  0  0  0  0  0  0
  -21.3750   -4.6150   24.9130 C   0  0  0  0  0  0  0  0  0  0  0  0
  -21.8320   -4.0380   23.7150 C   0  0  0  0  0  3  0  0  0  0  0  0
  -21.9600   -4.8270   22.5590 C   0  0  0  0  0  0  0  0  0  0  0  0
  -22.3800   -4.2610   21.4020 F   0  0  0  0  0  0  0  0  0  0  0  0
  -21.2460   -3.8510   26.0230 F   0  0  0  0  0  0  0  0  0  0  0  0
  -22.7770  -13.5640   21.1560 C   0  0  0  0  0  0  0  0  0  0  0  0
  -22.0760  -12.8550   22.0350 N   0  0  0  0  0  0  0  0  0  0  0  0
  -22.3220  -14.5930   20.6610 O   0  0  0  0  0  0  0  0  0  0  0  0
  -22.4570  -12.0220   22.4580 H   0  0  0  0  0  0  0  0  0  0  0  0
  -21.1440  -13.1510   22.2890 H   0  0  0  0  0  0  0  0  0  0  0  0
  -25.3730  -15.2490   20.2820 N   0  0  0  0  0  0  0  0  0  0  0  0
  -24.6010  -15.8940   20.4170 H   0  0  0  0  0  0  0  0  0  0  0  0
  -26.1940  -15.6950   19.8940 H   0  0  0  0  0  0  0  0  0  0  0  0
  -28.2530  -26.2420   20.2370 O   0  0  0  0  0  0  0  0  0  0  0  0
  -24.6370  -31.8870   23.2370 C   0  0  0  0  0  0  0  0  0  0  0  0
  -27.2180  -27.2300   20.1880 C   0  0  0  0  0  0  0  0  0  0  0  0
  -23.4330  -30.4940   21.5960 C   0  0  0  0  0  3  0  0  0  0  0  0
  -24.8820  -28.9350   20.1630 C   0  0  0  0  0  0  0  0  0  0  0  0
  -25.9830  -30.7760   21.4250 C   0  0  0  0  0  2  0  0  0  0  0  0
  -26.0590  -29.3900   20.7720 C   0  0  0  0  0  0  0  0  0  0  0  0
  -27.2300  -28.5500   20.7770 C   0  0  0  0  0  3  0  0  0  0  0  0
  -26.0220  -26.8730   19.5260 C   0  0  0  0  0  3  0  0  0  0  0  0
  -24.8730  -27.6860   19.5240 C   0  0  0  0  0  3  0  0  0  0  0  0
  -23.6510  -29.8230   20.2150 C   0  0  0  0  0  2  0  0  0  0  0  0
  -24.7040  -31.0730   22.1410 N   0  0  0  0  0  0  0  0  0  0  0  0
  -23.5520  -32.1700   23.7680 O   0  0  0  0  0  0  0  0  0  0  0  0
  -22.7610  -29.4820   22.5560 C   0  0  0  0  0  0  0  0  0  0  0  0
  -21.4320  -29.3140   22.4340 N   0  0  0  0  0  0  0  0  0  0  0  0
  -23.4360  -28.8500   23.3720 O   0  0  0  0  0  0  0  0  0  0  0  0
  -20.9450  -29.8750   21.7490 H   0  0  0  0  0  0  0  0  0  0  0  0
  -18.0500  -28.1250   22.9470 C   0  0  0  0  0  0  0  0  0  0  0  0
  -20.6100  -28.3770   23.2060 C   0  0  0  0  0  3  0  0  0  0  0  0
  -20.7050  -26.9460   22.6270 C   0  0  0  0  0  2  0  0  0  0  0  0
  -19.5980  -26.6300   21.6170 C   0  0  0  0  0  2  0  0  0  0  0  0
  -18.2190  -26.7770   22.2670 C   0  0  0  0  0  2  0  0  0  0  0  0
  -19.1730  -28.8830   23.3730 C   0  0  0  0  0  0  0  0  0  0  0  0
  -18.9590  -30.1440   23.9720 C   0  0  0  0  0  3  0  0  0  0  0  0
  -17.6560  -30.6480   24.1470 C   0  0  0  0  0  3  0  0  0  0  0  0
  -16.5480  -29.8870   23.7350 C   0  0  0  0  0  3  0  0  0  0  0  0
  -16.7460  -28.6270   23.1400 C   0  0  0  0  0  3  0  0  0  0  0  0
  -25.9180  -32.5200   23.8610 C   0  0  0  0  0  3  0  0  0  0  0  0
  -25.6060  -33.9170   24.2000 N   0  0  0  0  0  0  0  0  0  0  0  0
  -25.9170  -34.9750   23.4410 C   0  0  0  0  0  0  0  0  0  0  0  0
  -26.5640  -34.8790   22.3950 O   0  0  0  0  0  0  0  0  0  0  0  0
  -25.0280  -34.0640   25.0150 H   0  0  0  0  0  0  0  0  0  0  0  0
  -24.1670  -36.7600   23.1420 C   0  0  0  0  0  1  0  0  0  0  0  0
  -25.4340  -36.3610   23.9150 C   0  0  0  0  0  3  0  0  0  0  0  0
  -27.5870  -37.2590   24.6860 C   0  0  0  0  0  1  0  0  0  0  0  0
  -26.4570  -37.4210   23.7740 N   0  0  0  0  0  0  0  0  0  0  0  0
  -26.0490  -38.3380   23.9330 H   0  0  0  0  0  0  0  0  0  0  0  0
  -26.4350  -31.7440   25.1350 C   0  0  1  0  0  0  0  0  0  0  0  0
  -25.3430  -31.5050   26.2030 C   0  0  0  0  0  1  0  0  0  0  0  0
  -27.0170  -30.3680   24.7420 C   0  0  0  0  0  1  0  0  0  0  0  0
  -27.5860  -32.5360   25.7980 C   0  0  0  0  0  1  0  0  0  0  0  0
  1  3  2  0
  1  4  1  0
  2  5  1  0
  2  1  1  0
  5  4  1  0
  6  2  2  0
  7  8  1  0
  7  9  2  0
  8 10  2  0
  9  5  1  0
  9 11  1  0
 10 20  1  0
 10 11  1  0
 12 20  1  0
 13 18  1  0
 14 15  1  0
 14 13  1  0
 16 15  1  0
 16 25  1  0
 16 17  1  0
 18 12  1  0
 18 17  1  0
 19 12  2  0
 20 21  1  0
 22 23  2  0
 23 42  1  0
 24 23  1  0
 24 27  1  0
 25 26  1  0
 25 22  1  0
 26 24  2  0
 27 28  1  0
 28 29  2  0
 30 33  1  0
 30 29  1  0
 31 30  2  0
 32 31  1  0
 32 27  2  0
 33 34  1  0
 34 35  1  0
 35 36  2  0
 37 36  1  0
 37 41  1  0
 38 37  2  0
 39 34  2  0
 39 38  1  0
 40 39  1  0
 42 43  1  0
 43 46  1  0
 43 45  1  0
 44 42  2  0
 47 48  1  0
 47 22  1  0
 49 47  1  0
 50  3  1  0
 51 62  2  0
 52 50  1  0
 52 57  1  0
 53 61  1  0
 53 63  1  0
 54 60  1  0
 54 56  1  0
 55 61  1  0
 56 57  2  0
 56 55  1  0
 58 52  2  0
 59 58  1  0
 59 54  2  0
 60 53  1  0
 61 51  1  0
 63 65  2  0
 64 63  1  0
 66 64  1  0
 67 76  2  0
 67 72  1  0
 68 64  1  0
 68 72  1  0
 69 68  1  0
 70 71  1  0
 70 69  1  0
 71 67  1  0
 72 73  2  0
 73 74  1  0
 75 74  2  0
 76 75  1  0
 77 51  1  0
 77 78  1  0
 77 87  1  0
 78 81  1  0
 79 83  1  0
 79 78  1  0
 80 79  2  0
 83 82  1  0
 85 83  1  0
 85 86  1  0
 85 84  1  0
 87 90  1  1
 87 88  1  0
 89 87  1  0
M  ISO  4   3 101  12 100  20 100  50 101
M  END
>  <TORSDO>  (32) 
F 17

>  <SCORE>  (32) 
-14.907

>  <name>  (32) 
31

>  <ligand_id>  (32) 
31

>  <original_smiles>  (32) 
[H]C(Oc1c([H])c([H])c2c(c1[H])C([H])([H])N(C(=O)C([H])(N([H])C(=O)C([H])(N([H])C([H])([H])[H])C([H])([H])[H])C(C([H])([H])[H])(C([H])([H])[H])C([H])([H])[H])C([H])(C(=O)N([H])C1([H])c3c([H])c([H])c([H])c([H])c3C([H])([H])C([H])([H])C1([H])[H])C2([H])[H])=C1C(=O)N(c2sc(N([H])C(=O)N3C([H])([H])C([H])([H])C([H])([H])C([H])(n4nc(-c5c([H])c([H])c(Oc6c([H])c([H])c(F)c([H])c6F)c([H])c5[H])c(C(=O)N([H])[H])c4N([H])[H])C3([H])[H])c([H])c2[H])C1([H])[H]

>  <smiles>  (32) 
[H]C(Oc1c([H])c([H])c2c(c1[H])C([H])([H])N(C(=O)C([H])(N([H])C(=O)C([H])(N([H])C([H])([H])[H])C([H])([H])[H])C(C([H])([H])[H])(C([H])([H])[H])C([H])([H])[H])C([H])(C(=O)N([H])C1([H])c3c([H])c([H])c([H])c([H])c3C([H])([H])C([H])([H])C1([H])[H])C2([H])[H])=C1C(=O)N(c2sc(N([H])C(=O)N3C([H])([H])C([H])([H])C([H])([H])C([H])(n4nc(-c5c([H])c([H])c(Oc6c([H])c([H])c(F)c([H])c6F)c([H])c5[H])c(C(=O)N([H])[H])c4N([H])[H])C3([H])[H])c([H])c2[H])C1([H])[H]

$$$$
32:0:0
     RDKit          3D

 97106  0  0  1  0  0  0  0  0999 V2000
  -26.9050  -23.1170   19.2550 C   0  0  0  0  0  0  0  0  0  0  0  0
  -28.0340  -23.8190   19.4710 C   0  0  0  0  0  0  0  0  0  0  0  0
  -27.1260  -21.7050   19.4950 C   0  0  0  0  0  0  0  0  0  0  0  0
  -29.0460  -22.7610   19.7750 C   0  0  0  0  0  0  0  0  0  0  0  0
  -25.6020  -23.5860   18.6280 C   0  0  0  0  0  1  0  0  0  0  0  0
  -28.4400  -21.5210   19.7370 N   0  0  0  0  0  0  0  0  0  0  0  0
  -26.2680  -20.8130   19.4530 O   0  0  0  0  0  0  0  0  0  0  0  0
  -30.2420  -22.9450   20.0300 O   0  0  0  0  0  0  0  0  0  0  0  0
  -30.0080  -19.5350   19.1220 C   0  0  0  0  0  3  0  0  0  0  0  0
  -28.3920  -19.2550   20.8600 C   0  0  0  0  0  3  0  0  0  0  0  0
  -30.3920  -18.1480   19.2590 C   0  0  0  0  0  3  0  0  0  0  0  0
  -28.7400  -17.8780   20.9650 C   0  0  0  0  0  3  0  0  0  0  0  0
  -28.9870  -20.1420   19.9240 C   0  0  0  0  0  0  0  0  0  0  0  0
  -29.7740  -17.2640   20.2020 C   0  0  0  0  0  0  0  0  0  0  0  0
  -30.6130  -14.8760   19.6890 C   0  0  0  0  0  0  0  0  0  0  0  0
  -30.2720  -12.6340   18.6160 C   0  0  0  0  0  2  0  0  0  0  0  0
  -29.2450  -12.7230   17.4620 C   0  0  0  0  0  2  0  0  0  0  0  0
  -27.8260  -12.5060   18.0110 C   0  0  0  0  0  2  0  0  0  0  0  0
  -27.5320  -13.4050   19.2420 C   0  0  0  0  0  3  0  0  0  0  0  0
  -28.6700  -13.3090   20.2890 C   0  0  0  0  0  2  0  0  0  0  0  0
  -29.9370  -13.6660   19.6310 N   0  0  0  0  0  0  0  0  0  0  0  0
  -31.6320  -15.0190   19.0050 O   0  0  0  0  0  0  0  0  0  0  0  0
  -30.7210  -15.7510   21.8490 C   0  0  0  0  0  0  0  0  0  0  0  0
  -30.2510  -15.8910   20.5700 N   0  0  0  0  0  0  0  0  0  0  0  0
  -30.8840  -14.6540   22.4060 O   0  0  0  0  0  0  0  0  0  0  0  0
  -25.1820  -13.9820   20.1040 C   0  0  0  0  0  0  0  0  0  0  0  0
  -24.1530  -13.2020   20.5550 C   0  0  0  0  0  0  0  0  0  0  0  0
  -24.6330  -11.8560   20.5240 C   0  0  0  0  0  0  0  0  0  0  0  0
  -26.2240  -13.1120   19.8220 N   0  0  0  0  0  0  0  0  0  0  0  0
  -25.9010  -11.8310   20.1380 N   0  0  0  0  0  0  0  0  0  0  0  0
  -23.9370  -10.5870   20.7910 C   0  0  0  0  0  0  0  0  0  0  0  0
  -24.3620   -9.7190   21.8200 C   0  0  0  0  0  3  0  0  0  0  0  0
  -23.6690   -8.5150   22.0740 C   0  0  0  0  0  3  0  0  0  0  0  0
  -22.5380   -8.1680   21.2960 C   0  0  0  0  0  0  0  0  0  0  0  0
  -22.1310   -9.0260   20.2600 C   0  0  0  0  0  3  0  0  0  0  0  0
  -22.8240  -10.2220   20.0060 C   0  0  0  0  0  3  0  0  0  0  0  0
  -21.8220   -7.0070   21.4500 O   0  0  0  0  0  0  0  0  0  0  0  0
  -21.7020   -6.3920   22.6710 C   0  0  0  0  0  0  0  0  0  0  0  0
  -21.1190   -7.0450   23.7780 C   0  0  0  0  0  3  0  0  0  0  0  0
  -20.9500   -6.3550   24.9950 C   0  0  0  0  0  3  0  0  0  0  0  0
  -21.3550   -5.0110   25.1040 C   0  0  0  0  0  0  0  0  0  0  0  0
  -21.9320   -4.3570   24.0000 C   0  0  0  0  0  3  0  0  0  0  0  0
  -22.1030   -5.0460   22.7870 C   0  0  0  0  0  0  0  0  0  0  0  0
  -22.6400   -4.4080   21.7190 F   0  0  0  0  0  0  0  0  0  0  0  0
  -21.1840   -4.3420   26.2680 F   0  0  0  0  0  0  0  0  0  0  0  0
  -22.7680  -13.6630   20.9050 C   0  0  0  0  0  0  0  0  0  0  0  0
  -22.1060  -12.9700   21.8230 N   0  0  0  0  0  0  0  0  0  0  0  0
  -22.2840  -14.6770   20.4030 O   0  0  0  0  0  0  0  0  0  0  0  0
  -22.5110  -12.1510   22.2550 H   0  0  0  0  0  0  0  0  0  0  0  0
  -21.1820  -13.2640   22.1020 H   0  0  0  0  0  0  0  0  0  0  0  0
  -25.3140  -15.3510   19.8880 N   0  0  0  0  0  0  0  0  0  0  0  0
  -24.5530  -16.0040   20.0390 H   0  0  0  0  0  0  0  0  0  0  0  0
  -26.1480  -15.7900   19.5200 H   0  0  0  0  0  0  0  0  0  0  0  0
  -31.8660  -16.7570   23.9690 C   0  0  0  0  0  1  0  0  0  0  0  0
  -31.0720  -17.0160   22.6790 C   0  0  0  0  0  2  0  0  0  0  0  0
  -28.3080  -25.3200   18.9870 C   0  0  0  0  0  2  0  0  0  0  0  0
  -28.1550  -26.5430   19.8480 O   0  0  0  0  0  0  0  0  0  0  0  0
  -24.5040  -31.9340   23.0490 C   0  0  0  0  0  0  0  0  0  0  0  0
  -27.0490  -27.4190   19.8100 C   0  0  0  0  0  0  0  0  0  0  0  0
  -23.2670  -30.5700   21.4060 C   0  0  0  0  0  3  0  0  0  0  0  0
  -24.6880  -29.0500   19.9140 C   0  0  0  0  0  0  0  0  0  0  0  0
  -25.8050  -30.8830   21.1780 C   0  0  0  0  0  2  0  0  0  0  0  0
  -25.8700  -29.5130   20.5040 C   0  0  0  0  0  0  0  0  0  0  0  0
  -27.0460  -28.6990   20.4640 C   0  0  0  0  0  3  0  0  0  0  0  0
  -25.8500  -27.0380   19.1760 C   0  0  0  0  0  3  0  0  0  0  0  0
  -24.6790  -27.8160   19.2480 C   0  0  0  0  0  3  0  0  0  0  0  0
  -23.4520  -29.9190   20.0110 C   0  0  0  0  0  2  0  0  0  0  0  0
  -24.5450  -31.1490   21.9330 N   0  0  0  0  0  0  0  0  0  0  0  0
  -23.4330  -32.1970   23.6150 O   0  0  0  0  0  0  0  0  0  0  0  0
  -22.6260  -29.5320   22.3590 C   0  0  0  0  0  0  0  0  0  0  0  0
  -21.2920  -29.3880   22.2910 N   0  0  0  0  0  0  0  0  0  0  0  0
  -23.3290  -28.8580   23.1180 O   0  0  0  0  0  0  0  0  0  0  0  0
  -20.7800  -29.9780   21.6500 H   0  0  0  0  0  0  0  0  0  0  0  0
  -17.9110  -28.2890   22.9530 C   0  0  0  0  0  0  0  0  0  0  0  0
  -20.4900  -28.4370   23.0630 C   0  0  0  0  0  3  0  0  0  0  0  0
  -20.4960  -27.0400   22.3980 C   0  0  0  0  0  2  0  0  0  0  0  0
  -19.3180  -26.8210   21.4440 C   0  0  0  0  0  2  0  0  0  0  0  0
  -17.9870  -26.9810   22.1850 C   0  0  0  0  0  2  0  0  0  0  0  0
  -19.0860  -28.9830   23.3480 C   0  0  0  0  0  0  0  0  0  0  0  0
  -18.9600  -30.2150   24.0270 C   0  0  0  0  0  3  0  0  0  0  0  0
  -17.6910  -30.7510   24.3140 C   0  0  0  0  0  3  0  0  0  0  0  0
  -16.5320  -30.0540   23.9340 C   0  0  0  0  0  3  0  0  0  0  0  0
  -16.6420  -28.8240   23.2600 C   0  0  0  0  0  3  0  0  0  0  0  0
  -25.7970  -32.5560   23.6580 C   0  0  0  0  0  3  0  0  0  0  0  0
  -26.3710  -31.7260   24.8720 C   0  0  1  0  0  0  0  0  0  0  0  0
  -25.3210  -31.4180   25.9670 C   0  0  0  0  0  1  0  0  0  0  0  0
  -26.9580  -30.3810   24.3870 C   0  0  0  0  0  1  0  0  0  0  0  0
  -27.5360  -32.5020   25.5320 C   0  0  0  0  0  1  0  0  0  0  0  0
  -25.4790  -33.9270   24.0780 N   0  0  0  0  0  0  0  0  0  0  0  0
  -25.7650  -35.0270   23.3690 C   0  0  0  0  0  0  0  0  0  0  0  0
  -26.3970  -34.9930   22.3100 O   0  0  0  0  0  0  0  0  0  0  0  0
  -24.9170  -34.0250   24.9120 H   0  0  0  0  0  0  0  0  0  0  0  0
  -24.0100  -36.8180   23.1670 C   0  0  0  0  0  1  0  0  0  0  0  0
  -25.2750  -36.3790   23.9220 C   0  0  0  0  0  3  0  0  0  0  0  0
  -27.4160  -37.2490   24.7550 C   0  0  0  0  0  1  0  0  0  0  0  0
  -26.2910  -37.4510   23.8470 N   0  0  0  0  0  0  0  0  0  0  0  0
  -25.8760  -38.3560   24.0530 H   0  0  0  0  0  0  0  0  0  0  0  0
  1  2  2  0
  1  3  1  0
  2  4  1  0
  3  6  1  0
  4  8  2  0
  5  1  1  0
  6  4  1  0
  6 13  1  0
  7  3  2  0
  9 11  2  0
  9 13  1  0
 10 12  1  0
 11 14  1  0
 13 10  2  0
 14 24  1  0
 14 12  2  0
 15 24  1  0
 16 21  1  0
 17 18  1  0
 17 16  1  0
 19 18  1  0
 19 29  1  0
 19 20  1  0
 21 15  1  0
 21 20  1  0
 22 15  2  0
 23 25  2  0
 23 55  1  0
 24 23  1  0
 26 27  2  0
 27 46  1  0
 28 27  1  0
 28 31  1  0
 29 26  1  0
 29 30  1  0
 30 28  2  0
 31 32  1  0
 32 33  2  0
 34 37  1  0
 34 33  1  0
 35 34  2  0
 36 35  1  0
 36 31  2  0
 37 38  1  0
 38 43  2  0
 38 39  1  0
 39 40  2  0
 40 41  1  0
 41 45  1  0
 42 41  2  0
 43 42  1  0
 44 43  1  0
 46 47  1  0
 47 50  1  0
 47 49  1  0
 48 46  2  0
 51 52  1  0
 51 26  1  0
 53 51  1  0
 55 54  1  0
 56  2  1  0
 56 57  1  0
 58 69  2  0
 59 57  1  0
 59 64  1  0
 60 68  1  0
 60 70  1  0
 61 67  1  0
 61 63  1  0
 62 68  1  0
 63 62  1  0
 64 63  2  0
 65 66  1  0
 65 59  2  0
 66 61  2  0
 67 60  1  0
 68 58  1  0
 70 72  2  0
 71 70  1  0
 73 71  1  0
 74 83  2  0
 74 79  1  0
 75 71  1  0
 75 79  1  0
 76 75  1  0
 77 78  1  0
 77 76  1  0
 78 74  1  0
 79 80  2  0
 80 81  1  0
 82 81  2  0
 83 82  1  0
 84 58  1  0
 84 89  1  0
 84 85  1  0
 85 88  1  1
 85 86  1  0
 87 85  1  0
 89 92  1  0
 90 94  1  0
 90 89  1  0
 91 90  2  0
 94 93  1  0
 96 94  1  0
 96 97  1  0
 96 95  1  0
M  ISO  4  15 100  24 100  56 101  57 101
M  END
>  <TORSDO>  (33) 
F 19

>  <SCORE>  (33) 
-8.242

>  <name>  (33) 
32

>  <ligand_id>  (33) 
32

>  <original_smiles>  (33) 
[H]c1c([H])c([H])c2c(c1[H])C([H])([H])C([H])([H])C([H])([H])C2([H])N([H])C(=O)C1([H])N(C(=O)C([H])(N([H])C(=O)C([H])(N([H])C([H])([H])[H])C([H])([H])[H])C(C([H])([H])[H])(C([H])([H])[H])C([H])([H])[H])C([H])([H])c2c([H])c(OC([H])([H])C3=C(C([H])([H])[H])C(=O)N(c4c([H])c([H])c(N(C(=O)N5C([H])([H])C([H])([H])C([H])([H])C([H])(n6nc(-c7c([H])c([H])c(Oc8c([H])c([H])c(F)c([H])c8F)c([H])c7[H])c(C(=O)N([H])[H])c6N([H])[H])C5([H])[H])C(=O)C([H])([H])C([H])([H])[H])c([H])c4[H])C3=O)c([H])c([H])c2C1([H])[H]

>  <smiles>  (33) 
[H]c1c([H])c([H])c2c(c1[H])C([H])([H])C([H])([H])C([H])([H])C2([H])N([H])C(=O)C1([H])N(C(=O)C([H])(N([H])C(=O)C([H])(N([H])C([H])([H])[H])C([H])([H])[H])C(C([H])([H])[H])(C([H])([H])[H])C([H])([H])[H])C([H])([H])c2c([H])c(OC([H])([H])C3=C(C([H])([H])[H])C(=O)N(c4c([H])c([H])c(N(C(=O)N5C([H])([H])C([H])([H])C([H])([H])C([H])(n6nc(-c7c([H])c([H])c(Oc8c([H])c([H])c(F)c([H])c8F)c([H])c7[H])c(C(=O)N([H])[H])c6N([H])[H])C5([H])[H])C(=O)C([H])([H])C([H])([H])[H])c([H])c4[H])C3=O)c([H])c([H])c2C1([H])[H]

$$$$
33:0:0
     RDKit          3D

 95104  0  0  1  0  0  0  0  0999 V2000
  -28.7770  -24.3900   21.2810 C   0  0  0  0  0  0  0  0  0  0  0  0
  -29.1000  -23.7090   22.5120 C   0  0  0  0  0  0  0  0  0  0  0  0
  -28.7080  -23.3290   20.2540 C   0  0  0  0  0  0  0  0  0  0  0  0
  -29.1010  -24.2490   23.7450 C   0  0  0  0  0  1  0  0  0  0  0  0
  -28.5910  -25.7500   21.1730 C   0  0  0  0  0  2  0  0  0  0  0  0
  -29.3890  -22.2610   22.2340 C   0  0  0  0  0  2  0  0  0  0  0  0
  -28.9930  -22.1020   20.8360 N   0  0  0  0  0  0  0  0  0  0  0  0
  -28.4420  -23.4970   19.0590 O   0  0  0  0  0  0  0  0  0  0  0  0
  -27.6460  -19.1640   18.8430 C   0  0  0  0  0  3  0  0  0  0  0  0
  -28.4120  -18.0790   19.3160 C   0  0  0  0  0  3  0  0  0  0  0  0
  -27.8670  -20.4750   19.3120 C   0  0  0  0  0  3  0  0  0  0  0  0
  -29.6180  -19.6200   20.7650 C   0  0  0  0  0  3  0  0  0  0  0  0
  -29.4220  -18.2740   20.2850 C   0  0  0  0  0  0  0  0  0  0  0  0
  -28.8510  -20.7460   20.2910 C   0  0  0  0  0  0  0  0  0  0  0  0
  -30.6740  -14.6760   20.3840 C   0  0  0  0  0  0  0  0  0  0  0  0
  -30.4190  -12.4450   19.3220 C   0  0  0  0  0  2  0  0  0  0  0  0
  -29.4860  -12.5620   18.1000 C   0  0  0  0  0  2  0  0  0  0  0  0
  -28.0140  -12.4030   18.5270 C   0  0  0  0  0  2  0  0  0  0  0  0
  -27.6460  -13.2830   19.7510 C   0  0  0  0  0  3  0  0  0  0  0  0
  -28.6990  -13.1660   20.8740 C   0  0  0  0  0  2  0  0  0  0  0  0
  -30.0050  -13.4850   20.2840 N   0  0  0  0  0  0  0  0  0  0  0  0
  -31.8720  -14.7350   20.0930 O   0  0  0  0  0  0  0  0  0  0  0  0
  -30.3490  -17.1060   20.6710 C   0  0  0  0  0  0  0  0  0  0  0  0
  -29.9140  -15.8090   20.5470 N   0  0  0  0  0  0  0  0  0  0  0  0
  -31.4740  -17.3940   21.0960 O   0  0  0  0  0  0  0  0  0  0  0  0
  -28.9200  -15.6840   20.4680 H   0  0  0  0  0  0  0  0  0  0  0  0
  -25.2500  -13.8800   20.4540 C   0  0  0  0  0  0  0  0  0  0  0  0
  -24.1830  -13.1060   20.8230 C   0  0  0  0  0  0  0  0  0  0  0  0
  -24.6500  -11.7570   20.8070 C   0  0  0  0  0  0  0  0  0  0  0  0
  -26.2980  -13.0010   20.2330 N   0  0  0  0  0  0  0  0  0  0  0  0
  -25.9420  -11.7200   20.5080 N   0  0  0  0  0  0  0  0  0  0  0  0
  -23.9260  -10.4940   21.0000 C   0  0  0  0  0  0  0  0  0  0  0  0
  -24.3520   -9.5360   21.9460 C   0  0  0  0  0  3  0  0  0  0  0  0
  -23.6260   -8.3370   22.1270 C   0  0  0  0  0  3  0  0  0  0  0  0
  -22.4610   -8.0910   21.3630 C   0  0  0  0  0  0  0  0  0  0  0  0
  -22.0550   -9.0380   20.4070 C   0  0  0  0  0  3  0  0  0  0  0  0
  -22.7800  -10.2270   20.2240 C   0  0  0  0  0  3  0  0  0  0  0  0
  -21.7090   -6.9450   21.4530 O   0  0  0  0  0  0  0  0  0  0  0  0
  -21.6480   -6.2120   22.6120 C   0  0  0  0  0  0  0  0  0  0  0  0
  -21.2030   -6.7760   23.8270 C   0  0  0  0  0  3  0  0  0  0  0  0
  -21.0920   -5.9700   24.9780 C   0  0  0  0  0  3  0  0  0  0  0  0
  -21.4140   -4.6010   24.9130 C   0  0  0  0  0  0  0  0  0  0  0  0
  -21.8510   -4.0360   23.7020 C   0  0  0  0  0  3  0  0  0  0  0  0
  -21.9640   -4.8400   22.5530 C   0  0  0  0  0  0  0  0  0  0  0  0
  -22.3660   -4.2870   21.3830 F   0  0  0  0  0  0  0  0  0  0  0  0
  -21.3000   -3.8230   26.0150 F   0  0  0  0  0  0  0  0  0  0  0  0
  -22.7830  -13.5830   21.0810 C   0  0  0  0  0  0  0  0  0  0  0  0
  -22.0490  -12.8890   21.9440 N   0  0  0  0  0  0  0  0  0  0  0  0
  -22.3470  -14.6030   20.5520 O   0  0  0  0  0  0  0  0  0  0  0  0
  -22.4150  -12.0640   22.3960 H   0  0  0  0  0  0  0  0  0  0  0  0
  -21.1080  -13.1870   22.1570 H   0  0  0  0  0  0  0  0  0  0  0  0
  -25.4070  -15.2500   20.2670 N   0  0  0  0  0  0  0  0  0  0  0  0
  -24.6270  -15.8930   20.3600 H   0  0  0  0  0  0  0  0  0  0  0  0
  -26.2400  -15.6970   19.9110 H   0  0  0  0  0  0  0  0  0  0  0  0
  -28.3620  -26.5480   20.0570 O   0  0  0  0  0  0  0  0  0  0  0  0
  -24.6860  -31.8980   23.2090 C   0  0  0  0  0  0  0  0  0  0  0  0
  -27.2680  -27.4020   20.0980 C   0  0  0  0  0  0  0  0  0  0  0  0
  -23.4610  -30.5080   21.5750 C   0  0  0  0  0  3  0  0  0  0  0  0
  -24.8970  -28.9710   20.1230 C   0  0  0  0  0  0  0  0  0  0  0  0
  -25.9930  -30.8450   21.3560 C   0  0  0  0  0  2  0  0  0  0  0  0
  -26.0690  -29.4700   20.7110 C   0  0  0  0  0  0  0  0  0  0  0  0
  -27.2600  -28.6920   20.6990 C   0  0  0  0  0  3  0  0  0  0  0  0
  -26.0840  -26.9410   19.4930 C   0  0  0  0  0  3  0  0  0  0  0  0
  -24.9040  -27.7070   19.5090 C   0  0  0  0  0  3  0  0  0  0  0  0
  -23.6580  -29.8390   20.1880 C   0  0  0  0  0  2  0  0  0  0  0  0
  -24.7330  -31.1010   22.1030 N   0  0  0  0  0  0  0  0  0  0  0  0
  -23.6100  -32.1690   23.7620 O   0  0  0  0  0  0  0  0  0  0  0  0
  -22.8160  -29.4830   22.5370 C   0  0  0  0  0  0  0  0  0  0  0  0
  -21.4890  -29.3020   22.4250 N   0  0  0  0  0  0  0  0  0  0  0  0
  -23.5070  -28.8530   23.3420 O   0  0  0  0  0  0  0  0  0  0  0  0
  -20.9900  -29.8610   21.7480 H   0  0  0  0  0  0  0  0  0  0  0  0
  -18.1250  -28.0880   22.9520 C   0  0  0  0  0  0  0  0  0  0  0  0
  -20.6840  -28.3570   23.2000 C   0  0  0  0  0  3  0  0  0  0  0  0
  -20.7880  -26.9280   22.6200 C   0  0  0  0  0  2  0  0  0  0  0  0
  -19.6780  -26.6030   21.6160 C   0  0  0  0  0  2  0  0  0  0  0  0
  -18.3010  -26.7410   22.2730 C   0  0  0  0  0  2  0  0  0  0  0  0
  -19.2440  -28.8540   23.3730 C   0  0  0  0  0  0  0  0  0  0  0  0
  -19.0250  -30.1160   23.9680 C   0  0  0  0  0  3  0  0  0  0  0  0
  -17.7200  -30.6120   24.1440 C   0  0  0  0  0  3  0  0  0  0  0  0
  -16.6150  -29.8440   23.7380 C   0  0  0  0  0  3  0  0  0  0  0  0
  -16.8190  -28.5840   23.1480 C   0  0  0  0  0  3  0  0  0  0  0  0
  -25.9790  -32.5270   23.8160 C   0  0  0  0  0  3  0  0  0  0  0  0
  -25.6690  -33.9200   24.1680 N   0  0  0  0  0  0  0  0  0  0  0  0
  -25.9860  -34.9820   23.4170 C   0  0  0  0  0  0  0  0  0  0  0  0
  -26.6390  -34.8940   22.3740 O   0  0  0  0  0  0  0  0  0  0  0  0
  -25.0880  -34.0620   24.9810 H   0  0  0  0  0  0  0  0  0  0  0  0
  -24.2480  -36.7750   23.1130 C   0  0  0  0  0  1  0  0  0  0  0  0
  -25.5030  -36.3630   23.8990 C   0  0  0  0  0  3  0  0  0  0  0  0
  -27.6470  -37.2450   24.7090 C   0  0  0  0  0  1  0  0  0  0  0  0
  -26.5310  -37.4200   23.7840 N   0  0  0  0  0  0  0  0  0  0  0  0
  -26.1240  -38.3380   23.9470 H   0  0  0  0  0  0  0  0  0  0  0  0
  -26.5190  -31.7410   25.0750 C   0  0  1  0  0  0  0  0  0  0  0  0
  -25.4460  -31.4880   26.1580 C   0  0  0  0  0  1  0  0  0  0  0  0
  -27.0990  -30.3700   24.6540 C   0  0  0  0  0  1  0  0  0  0  0  0
  -27.6790  -32.5310   25.7270 C   0  0  0  0  0  1  0  0  0  0  0  0
  1  2  2  0
  2  4  1  0
  3  7  1  0
  3  1  1  0
  5  1  1  0
  6  2  1  0
  7  6  1  0
  8  3  2  0
  9 11  2  0
  9 10  1  0
 10 13  2  0
 11 14  1  0
 13 23  1  0
 13 12  1  0
 14 12  2  0
 14  7  1  0
 15 24  1  0
 16 21  1  0
 17 18  1  0
 17 16  1  0
 19 18  1  0
 19 30  1  0
 19 20  1  0
 21 15  1  0
 21 20  1  0
 22 15  2  0
 23 25  2  0
 24 23  1  0
 26 24  1  0
 27 28  2  0
 28 47  1  0
 29 28  1  0
 29 32  1  0
 30 27  1  0
 30 31  1  0
 31 29  2  0
 32 33  1  0
 33 34  2  0
 35 38  1  0
 35 34  1  0
 36 35  2  0
 37 36  1  0
 37 32  2  0
 38 39  1  0
 39 40  1  0
 40 41  2  0
 42 41  1  0
 42 46  1  0
 43 42  2  0
 44 39  2  0
 44 43  1  0
 45 44  1  0
 47 48  1  0
 48 51  1  0
 48 50  1  0
 49 47  2  0
 52 53  1  0
 52 27  1  0
 54 52  1  0
 55 57  1  0
 55  5  1  0
 56 67  2  0
 57 62  1  0
 58 66  1  0
 58 68  1  0
 59 65  1  0
 59 61  1  0
 60 66  1  0
 61 60  1  0
 62 61  2  0
 63 64  1  0
 63 57  2  0
 64 59  2  0
 65 58  1  0
 66 56  1  0
 68 70  2  0
 69 68  1  0
 71 69  1  0
 72 81  2  0
 72 77  1  0
 73 69  1  0
 73 77  1  0
 74 73  1  0
 75 76  1  0
 75 74  1  0
 76 72  1  0
 77 78  2  0
 78 79  1  0
 80 79  2  0
 81 80  1  0
 82 56  1  0
 82 83  1  0
 82 92  1  0
 83 86  1  0
 84 88  1  0
 84 83  1  0
 85 84  2  0
 88 87  1  0
 90 88  1  0
 90 91  1  0
 90 89  1  0
 92 95  1  1
 92 93  1  0
 94 92  1  0
M  ISO  4   5 101  15 100  24 100  55 101
M  END
>  <TORSDO>  (34) 
F 17

>  <SCORE>  (34) 
-15.271

>  <name>  (34) 
33

>  <ligand_id>  (34) 
33

>  <original_smiles>  (34) 
[H]C([H])=C1C(=C([H])Oc2c([H])c([H])c3c(c2[H])C([H])([H])N(C(=O)C([H])(N([H])C(=O)C([H])(N([H])C([H])([H])[H])C([H])([H])[H])C(C([H])([H])[H])(C([H])([H])[H])C([H])([H])[H])C([H])(C(=O)N([H])C2([H])c4c([H])c([H])c([H])c([H])c4C([H])([H])C([H])([H])C2([H])[H])C3([H])[H])C(=O)N(c2c([H])c([H])c([H])c(C(=O)N([H])C(=O)N3C([H])([H])C([H])([H])C([H])([H])C([H])(n4nc(-c5c([H])c([H])c(Oc6c([H])c([H])c(F)c([H])c6F)c([H])c5[H])c(C(=O)N([H])[H])c4N([H])[H])C3([H])[H])c2[H])C1([H])[H]

>  <smiles>  (34) 
[H]C([H])=C1C(=C([H])Oc2c([H])c([H])c3c(c2[H])C([H])([H])N(C(=O)C([H])(N([H])C(=O)C([H])(N([H])C([H])([H])[H])C([H])([H])[H])C(C([H])([H])[H])(C([H])([H])[H])C([H])([H])[H])C([H])(C(=O)N([H])C2([H])c4c([H])c([H])c([H])c([H])c4C([H])([H])C([H])([H])C2([H])[H])C3([H])[H])C(=O)N(c2c([H])c([H])c([H])c(C(=O)N([H])C(=O)N3C([H])([H])C([H])([H])C([H])([H])C([H])(n4nc(-c5c([H])c([H])c(Oc6c([H])c([H])c(F)c([H])c6F)c([H])c5[H])c(C(=O)N([H])[H])c4N([H])[H])C3([H])[H])c2[H])C1([H])[H]

$$$$
34:0:0
     RDKit          3D

 93102  0  0  1  0  0  0  0  0999 V2000
  -28.9100  -23.9800   20.1980 C   0  0  0  0  0  0  0  0  0  0  0  0
  -30.2120  -23.8990   19.6010 C   0  0  0  0  0  0  0  0  0  0  0  0
  -28.5400  -22.5700   20.5170 C   0  0  0  0  0  0  0  0  0  0  0  0
  -30.9600  -24.9410   19.1960 C   0  0  0  0  0  2  0  0  0  0  0  0
  -28.1150  -25.0870   20.4450 C   0  0  0  0  0  3  0  0  0  0  0  0
  -30.6410  -22.4510   19.5150 C   0  0  0  0  0  2  0  0  0  0  0  0
  -29.5390  -21.6880   20.1290 N   0  0  0  0  0  0  0  0  0  0  0  0
  -27.4800  -22.2310   21.0530 O   0  0  0  0  0  0  0  0  0  0  0  0
  -28.6300  -19.3790   20.8520 C   0  0  0  0  0  3  0  0  0  0  0  0
  -30.7300  -19.4610   19.7180 C   0  0  0  0  0  3  0  0  0  0  0  0
  -28.7430  -17.9550   20.9310 C   0  0  0  0  0  3  0  0  0  0  0  0
  -30.8460  -18.0320   19.7950 C   0  0  0  0  0  3  0  0  0  0  0  0
  -29.6180  -20.2000   20.2360 C   0  0  0  0  0  0  0  0  0  0  0  0
  -29.8470  -17.2260   20.4060 C   0  0  0  0  0  0  0  0  0  0  0  0
  -30.6310  -14.7350   20.0310 C   0  0  0  0  0  0  0  0  0  0  0  0
  -30.3970  -12.5070   18.9320 C   0  0  0  0  0  2  0  0  0  0  0  0
  -29.3770  -12.6460   17.7780 C   0  0  0  0  0  2  0  0  0  0  0  0
  -27.9340  -12.4630   18.2900 C   0  0  0  0  0  2  0  0  0  0  0  0
  -27.6450  -13.2930   19.5690 C   0  0  0  0  0  3  0  0  0  0  0  0
  -28.7710  -13.1160   20.6130 C   0  0  0  0  0  2  0  0  0  0  0  0
  -30.0380  -13.4960   19.9700 N   0  0  0  0  0  0  0  0  0  0  0  0
  -31.7570  -14.9220   19.5570 O   0  0  0  0  0  0  0  0  0  0  0  0
  -29.8400  -15.7550   20.5130 N   0  0  0  0  0  0  0  0  0  0  0  0
  -29.0020  -15.3880   20.9370 H   0  0  0  0  0  0  0  0  0  0  0  0
  -25.3040  -13.8690   20.4580 C   0  0  0  0  0  0  0  0  0  0  0  0
  -24.2610  -13.0850   20.8680 C   0  0  0  0  0  0  0  0  0  0  0  0
  -24.7150  -11.7350   20.7610 C   0  0  0  0  0  0  0  0  0  0  0  0
  -26.3290  -12.9960   20.1270 N   0  0  0  0  0  0  0  0  0  0  0  0
  -25.9830  -11.7050   20.3680 N   0  0  0  0  0  0  0  0  0  0  0  0
  -23.9990  -10.4680   20.9530 C   0  0  0  0  0  0  0  0  0  0  0  0
  -24.4480   -9.4970   21.8760 C   0  0  0  0  0  3  0  0  0  0  0  0
  -23.7320   -8.2950   22.0580 C   0  0  0  0  0  3  0  0  0  0  0  0
  -22.5510   -8.0530   21.3150 C   0  0  0  0  0  0  0  0  0  0  0  0
  -22.1200   -9.0130   20.3810 C   0  0  0  0  0  3  0  0  0  0  0  0
  -22.8380  -10.2060   20.1980 C   0  0  0  0  0  3  0  0  0  0  0  0
  -21.8050   -6.9030   21.4050 O   0  0  0  0  0  0  0  0  0  0  0  0
  -21.7210   -6.1900   22.5740 C   0  0  0  0  0  0  0  0  0  0  0  0
  -21.2400   -6.7720   23.7680 C   0  0  0  0  0  3  0  0  0  0  0  0
  -21.1020   -5.9850   24.9290 C   0  0  0  0  0  3  0  0  0  0  0  0
  -21.4350   -4.6170   24.8970 C   0  0  0  0  0  0  0  0  0  0  0  0
  -21.9090   -4.0350   23.7070 C   0  0  0  0  0  3  0  0  0  0  0  0
  -22.0470   -4.8200   22.5490 C   0  0  0  0  0  0  0  0  0  0  0  0
  -22.4840   -4.2500   21.4000 F   0  0  0  0  0  0  0  0  0  0  0  0
  -21.2970   -3.8590   26.0090 F   0  0  0  0  0  0  0  0  0  0  0  0
  -22.8840  -13.5540   21.2440 C   0  0  0  0  0  0  0  0  0  0  0  0
  -22.2110  -12.8320   22.1330 N   0  0  0  0  0  0  0  0  0  0  0  0
  -22.4160  -14.5960   20.7850 O   0  0  0  0  0  0  0  0  0  0  0  0
  -22.6040  -11.9890   22.5260 H   0  0  0  0  0  0  0  0  0  0  0  0
  -21.2920  -13.1280   22.4270 H   0  0  0  0  0  0  0  0  0  0  0  0
  -25.4610  -15.2440   20.3170 N   0  0  0  0  0  0  0  0  0  0  0  0
  -24.7010  -15.8930   20.4890 H   0  0  0  0  0  0  0  0  0  0  0  0
  -26.2770  -15.6920   19.9150 H   0  0  0  0  0  0  0  0  0  0  0  0
  -28.3530  -26.4630   20.1800 O   0  0  0  0  0  0  0  0  0  0  0  0
  -24.6360  -31.8860   23.2280 C   0  0  0  0  0  0  0  0  0  0  0  0
  -27.2520  -27.3390   20.1520 C   0  0  0  0  0  0  0  0  0  0  0  0
  -23.4320  -30.4890   21.5870 C   0  0  0  0  0  3  0  0  0  0  0  0
  -24.8840  -28.9490   20.1490 C   0  0  0  0  0  0  0  0  0  0  0  0
  -25.9700  -30.8130   21.3980 C   0  0  0  0  0  2  0  0  0  0  0  0
  -26.0530  -29.4360   20.7490 C   0  0  0  0  0  0  0  0  0  0  0  0
  -27.2400  -28.6420   20.7450 C   0  0  0  0  0  3  0  0  0  0  0  0
  -26.0650  -26.9130   19.5180 C   0  0  0  0  0  3  0  0  0  0  0  0
  -24.8920  -27.6920   19.5250 C   0  0  0  0  0  3  0  0  0  0  0  0
  -23.6440  -29.8190   20.2040 C   0  0  0  0  0  2  0  0  0  0  0  0
  -24.6980  -31.0810   22.1270 N   0  0  0  0  0  0  0  0  0  0  0  0
  -23.5540  -32.1590   23.7680 O   0  0  0  0  0  0  0  0  0  0  0  0
  -22.7750  -29.4680   22.5460 C   0  0  0  0  0  0  0  0  0  0  0  0
  -21.4510  -29.2780   22.4130 N   0  0  0  0  0  0  0  0  0  0  0  0
  -23.4550  -28.8490   23.3680 O   0  0  0  0  0  0  0  0  0  0  0  0
  -20.9600  -29.8300   21.7220 H   0  0  0  0  0  0  0  0  0  0  0  0
  -18.0820  -28.0490   22.8970 C   0  0  0  0  0  0  0  0  0  0  0  0
  -20.6360  -28.3340   23.1810 C   0  0  0  0  0  3  0  0  0  0  0  0
  -20.7560  -26.9020   22.6100 C   0  0  0  0  0  2  0  0  0  0  0  0
  -19.6630  -26.5660   21.5900 C   0  0  0  0  0  2  0  0  0  0  0  0
  -18.2760  -26.6990   22.2260 C   0  0  0  0  0  2  0  0  0  0  0  0
  -19.1910  -28.8230   23.3320 C   0  0  0  0  0  0  0  0  0  0  0  0
  -18.9550  -30.0860   23.9180 C   0  0  0  0  0  3  0  0  0  0  0  0
  -17.6450  -30.5740   24.0760 C   0  0  0  0  0  3  0  0  0  0  0  0
  -16.5510  -29.7960   23.6580 C   0  0  0  0  0  3  0  0  0  0  0  0
  -16.7710  -28.5360   23.0740 C   0  0  0  0  0  3  0  0  0  0  0  0
  -25.9190  -32.5200   23.8490 C   0  0  0  0  0  3  0  0  0  0  0  0
  -25.6050  -33.9150   24.1890 N   0  0  0  0  0  0  0  0  0  0  0  0
  -25.9180  -34.9730   23.4280 C   0  0  0  0  0  0  0  0  0  0  0  0
  -26.5700  -34.8770   22.3850 O   0  0  0  0  0  0  0  0  0  0  0  0
  -25.0230  -34.0630   25.0000 H   0  0  0  0  0  0  0  0  0  0  0  0
  -24.1680  -36.7540   23.1180 C   0  0  0  0  0  1  0  0  0  0  0  0
  -25.4300  -36.3570   23.9000 C   0  0  0  0  0  3  0  0  0  0  0  0
  -27.5760  -37.2580   24.6830 C   0  0  0  0  0  1  0  0  0  0  0  0
  -26.4510  -37.4190   23.7640 N   0  0  0  0  0  0  0  0  0  0  0  0
  -26.0410  -38.3350   23.9220 H   0  0  0  0  0  0  0  0  0  0  0  0
  -26.4420  -31.7440   25.1200 C   0  0  1  0  0  0  0  0  0  0  0  0
  -25.3530  -31.4980   26.1910 C   0  0  0  0  0  1  0  0  0  0  0  0
  -27.0300  -30.3710   24.7220 C   0  0  0  0  0  1  0  0  0  0  0  0
  -27.5920  -32.5390   25.7830 C   0  0  0  0  0  1  0  0  0  0  0  0
  1  5  2  0
  1  3  1  0
  2  1  1  0
  3  8  2  0
  4  2  2  0
  6  2  1  0
  6  7  1  0
  7 13  1  0
  7  3  1  0
  9 11  1  0
 10 12  2  0
 10 13  1  0
 12 14  1  0
 13  9  2  0
 14 23  1  0
 14 11  2  0
 15 23  1  0
 16 21  1  0
 17 18  1  0
 17 16  1  0
 19 18  1  0
 19 28  1  0
 19 20  1  0
 21 15  1  0
 21 20  1  0
 22 15  2  0
 23 24  1  0
 25 26  2  0
 26 45  1  0
 27 26  1  0
 27 30  1  0
 28 29  1  0
 28 25  1  0
 29 27  2  0
 30 31  1  0
 31 32  2  0
 33 36  1  0
 33 32  1  0
 34 33  2  0
 35 34  1  0
 35 30  2  0
 36 37  1  0
 37 38  1  0
 38 39  2  0
 40 39  1  0
 40 44  1  0
 41 40  2  0
 42 37  2  0
 42 41  1  0
 43 42  1  0
 45 46  1  0
 46 49  1  0
 46 48  1  0
 47 45  2  0
 50 25  1  0
 50 51  1  0
 52 50  1  0
 53  5  1  0
 54 65  2  0
 55 53  1  0
 55 60  1  0
 56 64  1  0
 56 66  1  0
 57 63  1  0
 57 59  1  0
 58 64  1  0
 59 58  1  0
 60 59  2  0
 61 62  1  0
 61 55  2  0
 62 57  2  0
 63 56  1  0
 64 54  1  0
 66 68  2  0
 67 66  1  0
 69 67  1  0
 70 79  2  0
 70 75  1  0
 71 67  1  0
 71 75  1  0
 72 71  1  0
 73 74  1  0
 73 72  1  0
 74 70  1  0
 75 76  2  0
 76 77  1  0
 78 77  2  0
 79 78  1  0
 80 54  1  0
 80 81  1  0
 80 90  1  0
 81 84  1  0
 82 86  1  0
 82 81  1  0
 83 82  2  0
 86 85  1  0
 88 86  1  0
 88 89  1  0
 88 87  1  0
 90 93  1  1
 90 91  1  0
 92 90  1  0
M  ISO  4   5 101  15 100  23 100  53 101
M  END
>  <TORSDO>  (35) 
F 17

>  <SCORE>  (35) 
-14.716

>  <name>  (35) 
34

>  <ligand_id>  (35) 
34

>  <original_smiles>  (35) 
[H]C([H])=C1C(=C([H])Oc2c([H])c([H])c3c(c2[H])C([H])([H])N(C(=O)C([H])(N([H])C(=O)C([H])(N([H])C([H])([H])[H])C([H])([H])[H])C(C([H])([H])[H])(C([H])([H])[H])C([H])([H])[H])C([H])(C(=O)N([H])C2([H])c4c([H])c([H])c([H])c([H])c4C([H])([H])C([H])([H])C2([H])[H])C3([H])[H])C(=O)N(c2c([H])c([H])c(N([H])C(=O)N3C([H])([H])C([H])([H])C([H])([H])C([H])(n4nc(-c5c([H])c([H])c(Oc6c([H])c([H])c(F)c([H])c6F)c([H])c5[H])c(C(=O)N([H])[H])c4N([H])[H])C3([H])[H])c([H])c2[H])C1([H])[H]

>  <smiles>  (35) 
[H]C([H])=C1C(=C([H])Oc2c([H])c([H])c3c(c2[H])C([H])([H])N(C(=O)C([H])(N([H])C(=O)C([H])(N([H])C([H])([H])[H])C([H])([H])[H])C(C([H])([H])[H])(C([H])([H])[H])C([H])([H])[H])C([H])(C(=O)N([H])C2([H])c4c([H])c([H])c([H])c([H])c4C([H])([H])C([H])([H])C2([H])[H])C3([H])[H])C(=O)N(c2c([H])c([H])c(N([H])C(=O)N3C([H])([H])C([H])([H])C([H])([H])C([H])(n4nc(-c5c([H])c([H])c(Oc6c([H])c([H])c(F)c([H])c6F)c([H])c5[H])c(C(=O)N([H])[H])c4N([H])[H])C3([H])[H])c([H])c2[H])C1([H])[H]

$$$$
35:0:0
     RDKit          3D

 91100  0  0  1  0  0  0  0  0999 V2000
  -30.5160  -20.0800   20.3310 C   0  0  0  0  0  3  0  0  0  0  0  0
  -30.7510  -18.6290   20.3970 C   0  0  0  0  0  3  0  0  0  0  0  0
  -28.4780  -18.2390   19.8540 C   0  0  0  0  0  3  0  0  0  0  0  0
  -28.2650  -19.6650   19.7850 C   0  0  0  0  0  0  0  0  0  0  0  0
  -29.2370  -20.6590   20.0110 C   0  0  0  0  0  0  0  0  0  0  0  0
  -29.7390  -17.6210   20.1580 C   0  0  0  0  0  0  0  0  0  0  0  0
  -29.1020  -23.4160   19.9440 C   0  0  0  0  0  0  0  0  0  0  0  0
  -26.9530  -20.3240   19.4560 C   0  0  0  0  0  3  0  0  0  0  0  0
  -27.2330  -21.8520   19.4970 C   0  0  0  0  0  3  0  0  0  0  0  0
  -28.6530  -22.0620   19.8390 N   0  0  0  0  0  0  0  0  0  0  0  0
  -30.2390  -23.6570   20.3670 O   0  0  0  0  0  0  0  0  0  0  0  0
  -30.6490  -14.9960   19.9430 C   0  0  0  0  0  0  0  0  0  0  0  0
  -30.4920  -12.6580   18.9680 C   0  0  0  0  0  2  0  0  0  0  0  0
  -29.4820  -12.6540   17.7950 C   0  0  0  0  0  2  0  0  0  0  0  0
  -28.0410  -12.4530   18.3040 C   0  0  0  0  0  2  0  0  0  0  0  0
  -27.7180  -13.3580   19.5200 C   0  0  0  0  0  3  0  0  0  0  0  0
  -28.8360  -13.3130   20.5840 C   0  0  0  0  0  2  0  0  0  0  0  0
  -30.0840  -13.7250   19.9230 N   0  0  0  0  0  0  0  0  0  0  0  0
  -31.8180  -15.1210   19.5560 O   0  0  0  0  0  0  0  0  0  0  0  0
  -29.7990  -16.0900   20.2380 N   0  0  0  0  0  0  0  0  0  0  0  0
  -28.9040  -15.7110   20.5090 H   0  0  0  0  0  0  0  0  0  0  0  0
  -25.3950  -13.9610   20.4110 C   0  0  0  0  0  0  0  0  0  0  0  0
  -24.3430  -13.1960   20.8290 C   0  0  0  0  0  0  0  0  0  0  0  0
  -24.7790  -11.8390   20.7390 C   0  0  0  0  0  0  0  0  0  0  0  0
  -26.4050  -13.0710   20.0870 N   0  0  0  0  0  0  0  0  0  0  0  0
  -26.0480  -11.7880   20.3500 N   0  0  0  0  0  0  0  0  0  0  0  0
  -24.0440  -10.5840   20.9440 C   0  0  0  0  0  0  0  0  0  0  0  0
  -24.4900   -9.6070   21.8610 C   0  0  0  0  0  3  0  0  0  0  0  0
  -23.7550   -8.4170   22.0540 C   0  0  0  0  0  3  0  0  0  0  0  0
  -22.5600   -8.1960   21.3300 C   0  0  0  0  0  0  0  0  0  0  0  0
  -22.1310   -9.1620   20.4010 C   0  0  0  0  0  3  0  0  0  0  0  0
  -22.8650  -10.3440   20.2080 C   0  0  0  0  0  3  0  0  0  0  0  0
  -21.7940   -7.0610   21.4350 O   0  0  0  0  0  0  0  0  0  0  0  0
  -21.7410   -6.3330   22.5970 C   0  0  0  0  0  0  0  0  0  0  0  0
  -21.3010   -6.9010   23.8120 C   0  0  0  0  0  3  0  0  0  0  0  0
  -21.1950   -6.0990   24.9660 C   0  0  0  0  0  3  0  0  0  0  0  0
  -21.5180   -4.7300   24.9050 C   0  0  0  0  0  0  0  0  0  0  0  0
  -21.9510   -4.1610   23.6940 C   0  0  0  0  0  3  0  0  0  0  0  0
  -22.0580   -4.9600   22.5420 C   0  0  0  0  0  0  0  0  0  0  0  0
  -22.4540   -4.4020   21.3730 F   0  0  0  0  0  0  0  0  0  0  0  0
  -21.4070   -3.9570   26.0120 F   0  0  0  0  0  0  0  0  0  0  0  0
  -22.9720  -13.6890   21.1930 C   0  0  0  0  0  0  0  0  0  0  0  0
  -22.2870  -12.9920   22.0940 N   0  0  0  0  0  0  0  0  0  0  0  0
  -22.5180  -14.7270   20.7130 O   0  0  0  0  0  0  0  0  0  0  0  0
  -22.6680  -12.1520   22.5030 H   0  0  0  0  0  0  0  0  0  0  0  0
  -21.3720  -13.3050   22.3810 H   0  0  0  0  0  0  0  0  0  0  0  0
  -25.5690  -15.3330   20.2480 N   0  0  0  0  0  0  0  0  0  0  0  0
  -24.8050  -15.9840   20.3930 H   0  0  0  0  0  0  0  0  0  0  0  0
  -26.3560  -15.7470   19.7670 H   0  0  0  0  0  0  0  0  0  0  0  0
  -28.1640  -24.7150   19.4920 C   0  0  0  0  0  2  0  0  0  0  0  0
  -28.4680  -26.2190   19.7800 O   0  0  0  0  0  0  0  0  0  0  0  0
  -24.6000  -31.6130   22.9980 C   0  0  0  0  0  0  0  0  0  0  0  0
  -27.3890  -27.1830   19.7430 C   0  0  0  0  0  0  0  0  0  0  0  0
  -23.4740  -30.2780   21.2590 C   0  0  0  0  0  3  0  0  0  0  0  0
  -25.0000  -28.8470   19.7690 C   0  0  0  0  0  0  0  0  0  0  0  0
  -26.0210  -30.6420   21.1540 C   0  0  0  0  0  2  0  0  0  0  0  0
  -26.1550  -29.2960   20.4220 C   0  0  0  0  0  0  0  0  0  0  0  0
  -27.3510  -28.4820   20.3940 C   0  0  0  0  0  3  0  0  0  0  0  0
  -26.2040  -26.8420   19.0520 C   0  0  0  0  0  3  0  0  0  0  0  0
  -25.0370  -27.6330   19.0690 C   0  0  0  0  0  3  0  0  0  0  0  0
  -23.7420  -29.6960   19.8460 C   0  0  0  0  0  2  0  0  0  0  0  0
  -24.7170  -30.8630   21.8600 N   0  0  0  0  0  0  0  0  0  0  0  0
  -23.4970  -31.8270   23.5230 O   0  0  0  0  0  0  0  0  0  0  0  0
  -22.8180  -29.1890   22.1460 C   0  0  0  0  0  0  0  0  0  0  0  0
  -21.4880  -29.0250   22.0330 N   0  0  0  0  0  0  0  0  0  0  0  0
  -23.5070  -28.5010   22.9020 O   0  0  0  0  0  0  0  0  0  0  0  0
  -20.9870  -29.6360   21.4040 H   0  0  0  0  0  0  0  0  0  0  0  0
  -18.1090  -27.8390   22.5850 C   0  0  0  0  0  0  0  0  0  0  0  0
  -20.6840  -28.0250   22.7420 C   0  0  0  0  0  3  0  0  0  0  0  0
  -20.7210  -26.6620   22.0130 C   0  0  0  0  0  2  0  0  0  0  0  0
  -19.5610  -26.4700   21.0300 C   0  0  0  0  0  2  0  0  0  0  0  0
  -18.2190  -26.5690   21.7590 C   0  0  0  0  0  2  0  0  0  0  0  0
  -19.2660  -28.5320   23.0330 C   0  0  0  0  0  0  0  0  0  0  0  0
  -19.1060  -29.7240   23.7720 C   0  0  0  0  0  3  0  0  0  0  0  0
  -17.8230  -30.2260   24.0620 C   0  0  0  0  0  3  0  0  0  0  0  0
  -16.6820  -29.5300   23.6260 C   0  0  0  0  0  3  0  0  0  0  0  0
  -16.8260  -28.3380   22.8950 C   0  0  0  0  0  3  0  0  0  0  0  0
  -25.8460  -32.2520   23.6830 C   0  0  0  0  0  3  0  0  0  0  0  0
  -25.4910  -33.6300   24.0600 N   0  0  0  0  0  0  0  0  0  0  0  0
  -25.7950  -34.7210   23.3450 C   0  0  0  0  0  0  0  0  0  0  0  0
  -26.4710  -34.6750   22.3140 O   0  0  0  0  0  0  0  0  0  0  0  0
  -24.8870  -33.7370   24.8630 H   0  0  0  0  0  0  0  0  0  0  0  0
  -24.0050  -36.4690   23.0690 C   0  0  0  0  0  1  0  0  0  0  0  0
  -25.2690  -36.0780   23.8540 C   0  0  0  0  0  3  0  0  0  0  0  0
  -27.3760  -37.0140   24.6990 C   0  0  0  0  0  1  0  0  0  0  0  0
  -26.2660  -37.1670   23.7630 N   0  0  0  0  0  0  0  0  0  0  0  0
  -25.8290  -38.0700   23.9320 H   0  0  0  0  0  0  0  0  0  0  0  0
  -26.3420  -31.4460   24.9460 C   0  0  1  0  0  0  0  0  0  0  0  0
  -25.2240  -31.1500   25.9730 C   0  0  0  0  0  1  0  0  0  0  0  0
  -26.9630  -30.0930   24.5260 C   0  0  0  0  0  1  0  0  0  0  0  0
  -27.4560  -32.2390   25.6670 C   0  0  0  0  0  1  0  0  0  0  0  0
  1  2  1  0
  3  6  1  0
  4  3  2  0
  4  5  1  0
  5  1  2  0
  6 20  1  0
  6  2  2  0
  7 11  2  0
  8  9  2  0
  8  4  1  0
  9 10  1  0
 10  7  1  0
 10  5  1  0
 12 20  1  0
 13 18  1  0
 14 15  1  0
 14 13  1  0
 16 15  1  0
 16 25  1  0
 16 17  1  0
 18 12  1  0
 18 17  1  0
 19 12  2  0
 20 21  1  0
 22 23  2  0
 23 42  1  0
 24 23  1  0
 24 27  1  0
 25 26  1  0
 25 22  1  0
 26 24  2  0
 27 28  1  0
 28 29  2  0
 30 33  1  0
 30 29  1  0
 31 30  2  0
 32 31  1  0
 32 27  2  0
 33 34  1  0
 34 35  1  0
 35 36  2  0
 37 36  1  0
 37 41  1  0
 38 37  2  0
 39 34  2  0
 39 38  1  0
 40 39  1  0
 42 43  1  0
 43 46  1  0
 43 45  1  0
 44 42  2  0
 47 48  1  0
 47 22  1  0
 49 47  1  0
 50 51  1  0
 50  7  1  0
 52 63  2  0
 53 51  1  0
 53 58  1  0
 54 62  1  0
 54 64  1  0
 55 61  1  0
 55 57  1  0
 56 62  1  0
 57 56  1  0
 58 57  2  0
 59 60  1  0
 59 53  2  0
 60 55  2  0
 61 54  1  0
 62 52  1  0
 64 66  2  0
 65 64  1  0
 67 65  1  0
 68 77  2  0
 68 73  1  0
 69 65  1  0
 69 73  1  0
 70 69  1  0
 71 72  1  0
 71 70  1  0
 72 68  1  0
 73 74  2  0
 74 75  1  0
 76 75  2  0
 77 76  1  0
 78 52  1  0
 78 79  1  0
 78 88  1  0
 79 82  1  0
 80 84  1  0
 80 79  1  0
 81 80  2  0
 84 83  1  0
 86 84  1  0
 86 87  1  0
 86 85  1  0
 88 91  1  1
 88 89  1  0
 90 88  1  0
M  ISO  4  12 100  20 100  50 101  51 101
M  END
>  <TORSDO>  (36) 
F 17

>  <SCORE>  (36) 
-14.254

>  <name>  (36) 
35

>  <ligand_id>  (36) 
35

>  <original_smiles>  (36) 
[H]c1c([H])c([H])c2c(c1[H])C([H])([H])C([H])([H])C([H])([H])C2([H])N([H])C(=O)C1([H])N(C(=O)C([H])(N([H])C(=O)C([H])(N([H])C([H])([H])[H])C([H])([H])[H])C(C([H])([H])[H])(C([H])([H])[H])C([H])([H])[H])C([H])([H])c2c([H])c(OC([H])([H])C(=O)N3c4c([H])c([H])c(N([H])C(=O)N5C([H])([H])C([H])([H])C([H])([H])C([H])(n6nc(-c7c([H])c([H])c(Oc8c([H])c([H])c(F)c([H])c8F)c([H])c7[H])c(C(=O)N([H])[H])c6N([H])[H])C5([H])[H])c([H])c4C([H])([H])C3([H])[H])c([H])c([H])c2C1([H])[H]

>  <smiles>  (36) 
[H]c1c([H])c([H])c2c(c1[H])C([H])([H])C([H])([H])C([H])([H])C2([H])N([H])C(=O)C1([H])N(C(=O)C([H])(N([H])C(=O)C([H])(N([H])C([H])([H])[H])C([H])([H])[H])C(C([H])([H])[H])(C([H])([H])[H])C([H])([H])[H])C([H])([H])c2c([H])c(OC([H])([H])C(=O)N3c4c([H])c([H])c(N([H])C(=O)N5C([H])([H])C([H])([H])C([H])([H])C([H])(n6nc(-c7c([H])c([H])c(Oc8c([H])c([H])c(F)c([H])c8F)c([H])c7[H])c(C(=O)N([H])[H])c6N([H])[H])C5([H])[H])c([H])c4C([H])([H])C3([H])[H])c([H])c([H])c2C1([H])[H]

$$$$
36:0:0
     RDKit          3D

 91100  0  0  1  0  0  0  0  0999 V2000
  -28.5110  -23.7990   20.4680 C   0  0  0  0  0  0  0  0  0  0  0  0
  -28.0130  -22.5840   21.1040 C   0  0  0  0  0  0  0  0  0  0  0  0
  -28.0210  -25.0950   20.6360 C   0  0  0  0  0  3  0  0  0  0  0  0
  -29.5720  -22.9310   19.7250 C   0  0  0  0  0  2  0  0  0  0  0  0
  -28.9690  -21.7740   20.4560 N   0  0  0  0  0  0  0  0  0  0  0  0
  -27.0990  -22.4150   21.8830 O   0  0  0  0  0  0  0  0  0  0  0  0
  -28.5080  -19.3680   21.0940 C   0  0  0  0  0  3  0  0  0  0  0  0
  -30.3780  -19.6550   19.7010 C   0  0  0  0  0  3  0  0  0  0  0  0
  -28.7190  -17.9550   21.1100 C   0  0  0  0  0  3  0  0  0  0  0  0
  -30.6160  -18.2250   19.7090 C   0  0  0  0  0  3  0  0  0  0  0  0
  -29.3070  -20.3190   20.3910 C   0  0  0  0  0  0  0  0  0  0  0  0
  -29.7800  -17.3120   20.4200 C   0  0  0  0  0  0  0  0  0  0  0  0
  -30.6570  -14.8130   20.0010 C   0  0  0  0  0  0  0  0  0  0  0  0
  -30.4620  -12.5560   18.9300 C   0  0  0  0  0  2  0  0  0  0  0  0
  -29.4400  -12.6530   17.7730 C   0  0  0  0  0  2  0  0  0  0  0  0
  -27.9980  -12.4580   18.2880 C   0  0  0  0  0  2  0  0  0  0  0  0
  -27.7000  -13.3050   19.5530 C   0  0  0  0  0  3  0  0  0  0  0  0
  -28.8270  -13.1590   20.6010 C   0  0  0  0  0  2  0  0  0  0  0  0
  -30.0860  -13.5580   19.9540 N   0  0  0  0  0  0  0  0  0  0  0  0
  -31.7810  -15.0070   19.5300 O   0  0  0  0  0  0  0  0  0  0  0  0
  -29.8440  -15.8270   20.4830 N   0  0  0  0  0  0  0  0  0  0  0  0
  -29.0310  -15.4240   20.9240 H   0  0  0  0  0  0  0  0  0  0  0  0
  -25.3600  -13.8760   20.4420 C   0  0  0  0  0  0  0  0  0  0  0  0
  -24.3180  -13.0920   20.8540 C   0  0  0  0  0  0  0  0  0  0  0  0
  -24.7750  -11.7420   20.7490 C   0  0  0  0  0  0  0  0  0  0  0  0
  -26.3850  -13.0050   20.1130 N   0  0  0  0  0  0  0  0  0  0  0  0
  -26.0430  -11.7140   20.3570 N   0  0  0  0  0  0  0  0  0  0  0  0
  -24.0600  -10.4730   20.9440 C   0  0  0  0  0  0  0  0  0  0  0  0
  -24.5080   -9.5080   21.8710 C   0  0  0  0  0  3  0  0  0  0  0  0
  -23.7920   -8.3040   22.0530 C   0  0  0  0  0  3  0  0  0  0  0  0
  -22.6140   -8.0580   21.3070 C   0  0  0  0  0  0  0  0  0  0  0  0
  -22.1860   -9.0140   20.3690 C   0  0  0  0  0  3  0  0  0  0  0  0
  -22.9020  -10.2080   20.1850 C   0  0  0  0  0  3  0  0  0  0  0  0
  -21.8700   -6.9080   21.3990 O   0  0  0  0  0  0  0  0  0  0  0  0
  -21.7770   -6.2020   22.5720 C   0  0  0  0  0  0  0  0  0  0  0  0
  -21.2940   -6.7920   23.7600 C   0  0  0  0  0  3  0  0  0  0  0  0
  -21.1510   -6.0110   24.9260 C   0  0  0  0  0  3  0  0  0  0  0  0
  -21.4780   -4.6430   24.9030 C   0  0  0  0  0  0  0  0  0  0  0  0
  -21.9540   -4.0530   23.7180 C   0  0  0  0  0  3  0  0  0  0  0  0
  -22.1000   -4.8290   22.5560 C   0  0  0  0  0  0  0  0  0  0  0  0
  -22.5390   -4.2510   21.4120 F   0  0  0  0  0  0  0  0  0  0  0  0
  -21.3330   -3.8910   26.0190 F   0  0  0  0  0  0  0  0  0  0  0  0
  -22.9410  -13.5590   21.2300 C   0  0  0  0  0  0  0  0  0  0  0  0
  -22.2700  -12.8360   22.1200 N   0  0  0  0  0  0  0  0  0  0  0  0
  -22.4720  -14.5980   20.7700 O   0  0  0  0  0  0  0  0  0  0  0  0
  -22.6640  -11.9940   22.5130 H   0  0  0  0  0  0  0  0  0  0  0  0
  -21.3490  -13.1290   22.4130 H   0  0  0  0  0  0  0  0  0  0  0  0
  -25.5150  -15.2530   20.2980 N   0  0  0  0  0  0  0  0  0  0  0  0
  -24.7520  -15.8990   20.4690 H   0  0  0  0  0  0  0  0  0  0  0  0
  -26.3280  -15.7000   19.8940 H   0  0  0  0  0  0  0  0  0  0  0  0
  -28.3410  -26.3870   20.1200 O   0  0  0  0  0  0  0  0  0  0  0  0
  -24.6780  -31.8800   23.1900 C   0  0  0  0  0  0  0  0  0  0  0  0
  -27.2810  -27.3220   20.0840 C   0  0  0  0  0  0  0  0  0  0  0  0
  -23.4700  -30.4900   21.5480 C   0  0  0  0  0  3  0  0  0  0  0  0
  -24.9190  -28.9560   20.0960 C   0  0  0  0  0  0  0  0  0  0  0  0
  -26.0100  -30.8090   21.3540 C   0  0  0  0  0  2  0  0  0  0  0  0
  -26.0920  -29.4330   20.6940 C   0  0  0  0  0  0  0  0  0  0  0  0
  -27.2790  -28.6280   20.6800 C   0  0  0  0  0  3  0  0  0  0  0  0
  -26.0860  -26.9160   19.4500 C   0  0  0  0  0  3  0  0  0  0  0  0
  -24.9200  -27.7040   19.4620 C   0  0  0  0  0  3  0  0  0  0  0  0
  -23.6790  -29.8280   20.1610 C   0  0  0  0  0  2  0  0  0  0  0  0
  -24.7390  -31.0780   22.0870 N   0  0  0  0  0  0  0  0  0  0  0  0
  -23.5970  -32.1500   23.7330 O   0  0  0  0  0  0  0  0  0  0  0  0
  -22.8140  -29.4650   22.5060 C   0  0  0  0  0  0  0  0  0  0  0  0
  -21.4870  -29.2850   22.3870 N   0  0  0  0  0  0  0  0  0  0  0  0
  -23.4990  -28.8360   23.3160 O   0  0  0  0  0  0  0  0  0  0  0  0
  -20.9920  -29.8440   21.7070 H   0  0  0  0  0  0  0  0  0  0  0  0
  -18.1180  -28.0670   22.9030 C   0  0  0  0  0  0  0  0  0  0  0  0
  -20.6770  -28.3380   23.1560 C   0  0  0  0  0  3  0  0  0  0  0  0
  -20.7820  -26.9110   22.5720 C   0  0  0  0  0  2  0  0  0  0  0  0
  -19.6740  -26.5890   21.5620 C   0  0  0  0  0  2  0  0  0  0  0  0
  -18.2970  -26.7230   22.2160 C   0  0  0  0  0  2  0  0  0  0  0  0
  -19.2360  -28.8320   23.3300 C   0  0  0  0  0  0  0  0  0  0  0  0
  -19.0150  -30.0900   23.9330 C   0  0  0  0  0  3  0  0  0  0  0  0
  -17.7090  -30.5830   24.1110 C   0  0  0  0  0  3  0  0  0  0  0  0
  -16.6050  -29.8150   23.6990 C   0  0  0  0  0  3  0  0  0  0  0  0
  -16.8110  -28.5590   23.1000 C   0  0  0  0  0  3  0  0  0  0  0  0
  -25.9610  -32.5140   23.8090 C   0  0  0  0  0  3  0  0  0  0  0  0
  -25.6480  -33.9090   24.1520 N   0  0  0  0  0  0  0  0  0  0  0  0
  -25.9720  -34.9700   23.4020 C   0  0  0  0  0  0  0  0  0  0  0  0
  -26.6350  -34.8790   22.3660 O   0  0  0  0  0  0  0  0  0  0  0  0
  -25.0570  -34.0530   24.9580 H   0  0  0  0  0  0  0  0  0  0  0  0
  -24.2380  -36.7640   23.0750 C   0  0  0  0  0  1  0  0  0  0  0  0
  -25.4850  -36.3530   23.8750 C   0  0  0  0  0  3  0  0  0  0  0  0
  -27.6210  -37.2360   24.7050 C   0  0  0  0  0  1  0  0  0  0  0  0
  -26.5140  -37.4100   23.7680 N   0  0  0  0  0  0  0  0  0  0  0  0
  -26.1070  -38.3280   23.9230 H   0  0  0  0  0  0  0  0  0  0  0  0
  -26.4880  -31.7360   25.0770 C   0  0  1  0  0  0  0  0  0  0  0  0
  -25.4020  -31.4890   26.1510 C   0  0  0  0  0  1  0  0  0  0  0  0
  -27.0730  -30.3620   24.6750 C   0  0  0  0  0  1  0  0  0  0  0  0
  -27.6400  -32.5300   25.7370 C   0  0  0  0  0  1  0  0  0  0  0  0
  1  3  2  0
  1  2  1  0
  2  6  2  0
  4  5  1  0
  4  1  1  0
  5  2  1  0
  7  9  1  0
  8 10  2  0
  8 11  1  0
 10 12  1  0
 11  5  1  0
 11  7  2  0
 12 21  1  0
 12  9  2  0
 13 21  1  0
 14 19  1  0
 15 16  1  0
 15 14  1  0
 17 16  1  0
 17 26  1  0
 17 18  1  0
 19 13  1  0
 19 18  1  0
 20 13  2  0
 21 22  1  0
 23 24  2  0
 24 43  1  0
 25 24  1  0
 25 28  1  0
 26 27  1  0
 26 23  1  0
 27 25  2  0
 28 29  1  0
 29 30  2  0
 31 34  1  0
 31 30  1  0
 32 31  2  0
 33 32  1  0
 33 28  2  0
 34 35  1  0
 35 36  1  0
 36 37  2  0
 38 37  1  0
 38 42  1  0
 39 38  2  0
 40 35  2  0
 40 39  1  0
 41 40  1  0
 43 44  1  0
 44 47  1  0
 44 46  1  0
 45 43  2  0
 48 23  1  0
 48 49  1  0
 50 48  1  0
 51  3  1  0
 52 63  2  0
 53 51  1  0
 53 58  1  0
 54 62  1  0
 54 64  1  0
 55 61  1  0
 55 57  1  0
 56 62  1  0
 57 56  1  0
 58 57  2  0
 59 60  1  0
 59 53  2  0
 60 55  2  0
 61 54  1  0
 62 52  1  0
 64 66  2  0
 65 64  1  0
 67 65  1  0
 68 77  2  0
 68 73  1  0
 69 65  1  0
 69 73  1  0
 70 69  1  0
 71 72  1  0
 71 70  1  0
 72 68  1  0
 73 74  2  0
 74 75  1  0
 76 75  2  0
 77 76  1  0
 78 52  1  0
 78 79  1  0
 78 88  1  0
 79 82  1  0
 80 84  1  0
 80 79  1  0
 81 80  2  0
 84 83  1  0
 86 84  1  0
 86 87  1  0
 86 85  1  0
 88 91  1  1
 88 89  1  0
 90 88  1  0
M  ISO  4   3 101  13 100  21 100  51 101
M  END
>  <TORSDO>  (37) 
F 17

>  <SCORE>  (37) 
-13.947

>  <name>  (37) 
36

>  <ligand_id>  (37) 
36

>  <original_smiles>  (37) 
[H]C(Oc1c([H])c([H])c2c(c1[H])C([H])([H])N(C(=O)C([H])(N([H])C(=O)C([H])(N([H])C([H])([H])[H])C([H])([H])[H])C(C([H])([H])[H])(C([H])([H])[H])C([H])([H])[H])C([H])(C(=O)N([H])C1([H])c3c([H])c([H])c([H])c([H])c3C([H])([H])C([H])([H])C1([H])[H])C2([H])[H])=C1C(=O)N(c2c([H])c([H])c(N([H])C(=O)N3C([H])([H])C([H])([H])C([H])([H])C([H])(n4nc(-c5c([H])c([H])c(Oc6c([H])c([H])c(F)c([H])c6F)c([H])c5[H])c(C(=O)N([H])[H])c4N([H])[H])C3([H])[H])c([H])c2[H])C1([H])[H]

>  <smiles>  (37) 
[H]C(Oc1c([H])c([H])c2c(c1[H])C([H])([H])N(C(=O)C([H])(N([H])C(=O)C([H])(N([H])C([H])([H])[H])C([H])([H])[H])C(C([H])([H])[H])(C([H])([H])[H])C([H])([H])[H])C([H])(C(=O)N([H])C1([H])c3c([H])c([H])c([H])c([H])c3C([H])([H])C([H])([H])C1([H])[H])C2([H])[H])=C1C(=O)N(c2c([H])c([H])c(N([H])C(=O)N3C([H])([H])C([H])([H])C([H])([H])C([H])(n4nc(-c5c([H])c([H])c(Oc6c([H])c([H])c(F)c([H])c6F)c([H])c5[H])c(C(=O)N([H])[H])c4N([H])[H])C3([H])[H])c([H])c2[H])C1([H])[H]

$$$$
37:0:0
     RDKit          3D

 91101  0  0  1  0  0  0  0  0999 V2000
  -30.5900  -21.3280   21.5540 C   0  0  0  0  0  2  0  0  0  0  0  0
  -29.2820  -20.8470   21.8960 C   0  0  0  0  0  2  0  0  0  0  0  0
  -30.5520  -21.2670   20.1850 C   0  0  2  0  0  0  0  0  0  0  0  0
  -28.7800  -20.5900   20.6480 C   0  0  1  0  0  0  0  0  0  0  0  0
  -31.1720  -20.1100   19.4660 C   0  0  0  0  0  3  0  0  0  0  0  0
  -30.9570  -18.7370   19.4170 C   0  0  0  0  0  3  0  0  0  0  0  0
  -29.7760  -17.9370   19.9290 C   0  0  0  0  0  0  0  0  0  0  0  0
  -28.5690  -19.0660   20.0980 C   0  0  0  0  0  3  0  0  0  0  0  0
  -29.6270  -16.5520   20.0570 N   0  0  0  0  0  0  0  0  0  0  0  0
  -29.2510  -21.8210   20.0100 N   0  0  0  0  0  0  0  0  0  0  0  0
  -27.5610  -18.5000   20.7670 F   0  0  0  0  0  0  0  0  0  0  0  0
  -30.5230  -15.3480   19.8410 C   0  0  0  0  0  0  0  0  0  0  0  0
  -30.5180  -12.8680   19.1360 C   0  0  0  0  0  2  0  0  0  0  0  0
  -29.5620  -12.6430   17.9370 C   0  0  0  0  0  2  0  0  0  0  0  0
  -28.1150  -12.4160   18.4180 C   0  0  0  0  0  2  0  0  0  0  0  0
  -27.7000  -13.4270   19.5170 C   0  0  0  0  0  3  0  0  0  0  0  0
  -28.7790  -13.5950   20.6050 C   0  0  0  0  0  2  0  0  0  0  0  0
  -30.0140  -14.0320   19.9390 N   0  0  0  0  0  0  0  0  0  0  0  0
  -31.7020  -15.3930   19.4730 O   0  0  0  0  0  0  0  0  0  0  0  0
  -25.3820  -14.0280   20.4040 C   0  0  0  0  0  0  0  0  0  0  0  0
  -24.3210  -13.2680   20.8120 C   0  0  0  0  0  0  0  0  0  0  0  0
  -24.7540  -11.9090   20.7320 C   0  0  0  0  0  0  0  0  0  0  0  0
  -26.3890  -13.1340   20.0840 N   0  0  0  0  0  0  0  0  0  0  0  0
  -26.0250  -11.8510   20.3480 N   0  0  0  0  0  0  0  0  0  0  0  0
  -24.0080  -10.6590   20.9380 C   0  0  0  0  0  0  0  0  0  0  0  0
  -24.4500   -9.6750   21.8500 C   0  0  0  0  0  3  0  0  0  0  0  0
  -23.7020   -8.4920   22.0460 C   0  0  0  0  0  3  0  0  0  0  0  0
  -22.4990   -8.2870   21.3300 C   0  0  0  0  0  0  0  0  0  0  0  0
  -22.0740   -9.2610   20.4070 C   0  0  0  0  0  3  0  0  0  0  0  0
  -22.8220  -10.4340   20.2090 C   0  0  0  0  0  3  0  0  0  0  0  0
  -21.7220   -7.1590   21.4340 O   0  0  0  0  0  0  0  0  0  0  0  0
  -21.6800   -6.4180   22.5870 C   0  0  0  0  0  0  0  0  0  0  0  0
  -21.2850   -6.9800   23.8210 C   0  0  0  0  0  3  0  0  0  0  0  0
  -21.1890   -6.1660   24.9670 C   0  0  0  0  0  3  0  0  0  0  0  0
  -21.4790   -4.7910   24.8820 C   0  0  0  0  0  0  0  0  0  0  0  0
  -21.8690   -4.2280   23.6540 C   0  0  0  0  0  3  0  0  0  0  0  0
  -21.9650   -5.0390   22.5100 C   0  0  0  0  0  0  0  0  0  0  0  0
  -22.3200   -4.4880   21.3240 F   0  0  0  0  0  0  0  0  0  0  0  0
  -21.3810   -4.0080   25.9820 F   0  0  0  0  0  0  0  0  0  0  0  0
  -22.9510  -13.7730   21.1620 C   0  0  0  0  0  0  0  0  0  0  0  0
  -22.2590  -13.0920   22.0680 N   0  0  0  0  0  0  0  0  0  0  0  0
  -22.5060  -14.8070   20.6670 O   0  0  0  0  0  0  0  0  0  0  0  0
  -22.6310  -12.2560   22.4930 H   0  0  0  0  0  0  0  0  0  0  0  0
  -21.3410  -13.4150   22.3430 H   0  0  0  0  0  0  0  0  0  0  0  0
  -25.5700  -15.3980   20.2530 N   0  0  0  0  0  0  0  0  0  0  0  0
  -24.8440  -16.0760   20.4600 H   0  0  0  0  0  0  0  0  0  0  0  0
  -26.4480  -15.8240   19.9820 H   0  0  0  0  0  0  0  0  0  0  0  0
  -28.8710  -23.3780   20.4750 C   0  0  0  0  0  2  0  0  0  0  0  0
  -28.4540  -24.6960   18.2680 C   0  0  0  0  0  2  0  0  0  0  0  0
  -28.5660  -24.7990   19.6030 C   0  0  0  0  0  0  0  0  0  0  0  0
  -28.4780  -26.1900   20.1850 O   0  0  0  0  0  0  0  0  0  0  0  0
  -24.6220  -31.8540   23.1510 C   0  0  0  0  0  0  0  0  0  0  0  0
  -27.4130  -27.2040   20.0630 C   0  0  0  0  0  0  0  0  0  0  0  0
  -23.5040  -30.4540   21.4600 C   0  0  0  0  0  3  0  0  0  0  0  0
  -25.0330  -28.9450   20.0280 C   0  0  0  0  0  0  0  0  0  0  0  0
  -26.0590  -30.7780   21.3610 C   0  0  0  0  0  2  0  0  0  0  0  0
  -26.1910  -29.3950   20.6730 C   0  0  0  0  0  0  0  0  0  0  0  0
  -27.3730  -28.5420   20.6740 C   0  0  0  0  0  3  0  0  0  0  0  0
  -26.2140  -26.8820   19.3880 C   0  0  0  0  0  3  0  0  0  0  0  0
  -25.0630  -27.7060   19.3700 C   0  0  0  0  0  3  0  0  0  0  0  0
  -23.7790  -29.8120   20.0740 C   0  0  0  0  0  2  0  0  0  0  0  0
  -24.7480  -31.0530   22.0450 N   0  0  0  0  0  0  0  0  0  0  0  0
  -23.5160  -32.0930   23.6590 O   0  0  0  0  0  0  0  0  0  0  0  0
  -22.8350  -29.4100   22.3920 C   0  0  0  0  0  0  0  0  0  0  0  0
  -21.5130  -29.2100   22.2500 N   0  0  0  0  0  0  0  0  0  0  0  0
  -23.5130  -28.7820   23.2090 O   0  0  0  0  0  0  0  0  0  0  0  0
  -21.0190  -29.7700   21.5680 H   0  0  0  0  0  0  0  0  0  0  0  0
  -18.1590  -27.9070   22.6980 C   0  0  0  0  0  0  0  0  0  0  0  0
  -20.7090  -28.2310   22.9890 C   0  0  0  0  0  3  0  0  0  0  0  0
  -20.8520  -26.8190   22.3760 C   0  0  0  0  0  2  0  0  0  0  0  0
  -19.7660  -26.4950   21.3460 C   0  0  0  0  0  2  0  0  0  0  0  0
  -18.3760  -26.5840   21.9840 C   0  0  0  0  0  2  0  0  0  0  0  0
  -19.2540  -28.6870   23.1560 C   0  0  0  0  0  0  0  0  0  0  0  0
  -18.9950  -29.9230   23.7880 C   0  0  0  0  0  3  0  0  0  0  0  0
  -17.6760  -30.3810   23.9630 C   0  0  0  0  0  3  0  0  0  0  0  0
  -16.5960  -29.5990   23.5200 C   0  0  0  0  0  3  0  0  0  0  0  0
  -16.8390  -28.3630   22.8940 C   0  0  0  0  0  3  0  0  0  0  0  0
  -25.8620  -32.5250   23.8180 C   0  0  0  0  0  3  0  0  0  0  0  0
  -25.5000  -33.9140   24.1480 N   0  0  0  0  0  0  0  0  0  0  0  0
  -25.8160  -34.9840   23.4070 C   0  0  0  0  0  0  0  0  0  0  0  0
  -26.5050  -34.9080   22.3880 O   0  0  0  0  0  0  0  0  0  0  0  0
  -24.8860  -34.0440   24.9380 H   0  0  0  0  0  0  0  0  0  0  0  0
  -24.0380  -36.7320   23.0530 C   0  0  0  0  0  1  0  0  0  0  0  0
  -25.2850  -36.3570   23.8700 C   0  0  0  0  0  3  0  0  0  0  0  0
  -27.3840  -37.3050   24.7230 C   0  0  0  0  0  1  0  0  0  0  0  0
  -26.2870  -37.4420   23.7700 N   0  0  0  0  0  0  0  0  0  0  0  0
  -25.8510  -38.3490   23.9130 H   0  0  0  0  0  0  0  0  0  0  0  0
  -26.3520  -31.7670   25.1130 C   0  0  1  0  0  0  0  0  0  0  0  0
  -25.2300  -31.5050   26.1450 C   0  0  0  0  0  1  0  0  0  0  0  0
  -26.9820  -30.4020   24.7520 C   0  0  0  0  0  1  0  0  0  0  0  0
  -27.4600  -32.5890   25.8120 C   0  0  0  0  0  1  0  0  0  0  0  0
  1  2  1  0
  3  5  1  0
  3  4  1  0
  3  1  1  1
  4  2  1  1
  6  5  2  0
  6  7  1  0
  7  9  2  0
  7  8  1  0
  8  4  1  0
  8 11  1  0
 10  3  1  0
 10 48  1  0
 10  4  1  0
 12 18  1  0
 12  9  1  0
 13 18  1  0
 14 15  1  0
 14 13  1  0
 16 15  1  0
 16 23  1  0
 16 17  1  0
 18 17  1  0
 19 12  2  0
 20 21  2  0
 21 40  1  0
 22 21  1  0
 22 25  1  0
 23 24  1  0
 23 20  1  0
 24 22  2  0
 25 26  1  0
 26 27  2  0
 28 31  1  0
 28 27  1  0
 29 28  2  0
 30 29  1  0
 30 25  2  0
 31 32  1  0
 32 33  1  0
 33 34  2  0
 35 34  1  0
 35 39  1  0
 36 35  2  0
 37 32  2  0
 37 36  1  0
 38 37  1  0
 40 41  1  0
 41 44  1  0
 41 43  1  0
 42 40  2  0
 45 20  1  0
 45 46  1  0
 47 45  1  0
 49 50  2  0
 50 51  1  0
 50 48  1  0
 52 63  2  0
 53 51  1  0
 53 58  1  0
 54 62  1  0
 54 64  1  0
 55 61  1  0
 55 57  1  0
 56 62  1  0
 57 58  2  0
 57 56  1  0
 59 53  2  0
 60 59  1  0
 60 55  2  0
 61 54  1  0
 62 52  1  0
 64 66  2  0
 65 64  1  0
 67 65  1  0
 68 77  2  0
 68 73  1  0
 69 65  1  0
 69 73  1  0
 70 69  1  0
 71 72  1  0
 71 70  1  0
 72 68  1  0
 73 74  2  0
 74 75  1  0
 76 75  2  0
 77 76  1  0
 78 52  1  0
 78 79  1  0
 78 88  1  0
 79 82  1  0
 80 84  1  0
 80 79  1  0
 81 80  2  0
 84 83  1  0
 86 84  1  0
 86 87  1  0
 86 85  1  0
 88 91  1  1
 88 89  1  0
 90 88  1  0
M  ISO  4   9 100  12 100  50 101  51 101
M  END
>  <TORSDO>  (38) 
F 18

>  <SCORE>  (38) 
-15.340

>  <name>  (38) 
37

>  <ligand_id>  (38) 
37

>  <original_smiles>  (38) 
[H]C([H])=C(Oc1c([H])c([H])c2c(c1[H])C([H])([H])N(C(=O)C([H])(N([H])C(=O)C([H])(N([H])C([H])([H])[H])C([H])([H])[H])C(C([H])([H])[H])(C([H])([H])[H])C([H])([H])[H])C([H])(C(=O)N([H])C1([H])c3c([H])c([H])c([H])c([H])c3C([H])([H])C([H])([H])C1([H])[H])C2([H])[H])C([H])([H])n1c2c([H])c([H])c1C([H])(F)C(=NC(=O)N1C([H])([H])C([H])([H])C([H])([H])C([H])(n3nc(-c4c([H])c([H])c(Oc5c([H])c([H])c(F)c([H])c5F)c([H])c4[H])c(C(=O)N([H])[H])c3N([H])[H])C1([H])[H])C([H])=C2[H]

>  <smiles>  (38) 
[H]C([H])=C(Oc1c([H])c([H])c2c(c1[H])C([H])([H])N(C(=O)C([H])(N([H])C(=O)C([H])(N([H])C([H])([H])[H])C([H])([H])[H])C(C([H])([H])[H])(C([H])([H])[H])C([H])([H])[H])C([H])(C(=O)N([H])C1([H])c3c([H])c([H])c([H])c([H])c3C([H])([H])C([H])([H])C1([H])[H])C2([H])[H])C([H])([H])n1c2c([H])c([H])c1C([H])(F)C(=NC(=O)N1C([H])([H])C([H])([H])C([H])([H])C([H])(n3nc(-c4c([H])c([H])c(Oc5c([H])c([H])c(F)c([H])c5F)c([H])c4[H])c(C(=O)N([H])[H])c3N([H])[H])C1([H])[H])C([H])=C2[H]

$$$$
38:0:0
     RDKit          3D

 92101  0  0  1  0  0  0  0  0999 V2000
  -28.6020  -24.2960   19.3370 C   0  0  0  0  0  0  0  0  0  0  0  0
  -28.5210  -23.4120   20.4870 C   0  0  0  0  0  0  0  0  0  0  0  0
  -28.5470  -25.6480   19.1400 C   0  0  0  0  0  0  0  0  0  0  0  0
  -28.7740  -23.1010   18.4070 C   0  0  0  0  0  2  0  0  0  0  0  0
  -28.7110  -26.2700   17.7630 C   0  0  0  0  0  1  0  0  0  0  0  0
  -28.5890  -22.3030   19.6280 N   0  0  0  0  0  0  0  0  0  0  0  0
  -28.5030  -23.6230   21.6840 O   0  0  0  0  0  0  0  0  0  0  0  0
  -29.1550  -18.7040   20.8710 C   0  0  0  0  0  3  0  0  0  0  0  0
  -29.0750  -18.6920   18.4740 C   0  0  0  0  0  3  0  0  0  0  0  0
  -28.9210  -20.1100   20.8580 C   0  0  0  0  0  3  0  0  0  0  0  0
  -28.8440  -20.0890   18.4740 C   0  0  0  0  0  3  0  0  0  0  0  0
  -29.2650  -17.9640   19.6700 C   0  0  0  0  0  0  0  0  0  0  0  0
  -28.7840  -20.8680   19.6600 C   0  0  0  0  0  0  0  0  0  0  0  0
  -29.6510  -16.5080   19.5820 C   0  0  0  0  0  2  0  0  0  0  0  0
  -30.0100  -15.6960   20.5180 N   0  0  0  0  0  2  0  0  0  0  0  0
  -30.6970  -14.5640   20.0540 C   0  0  0  0  0  0  0  0  0  0  0  0
  -30.3200  -12.3930   18.9350 C   0  0  0  0  0  2  0  0  0  0  0  0
  -29.3300  -12.6330   17.7750 C   0  0  0  0  0  2  0  0  0  0  0  0
  -27.8780  -12.4850   18.2740 C   0  0  0  0  0  2  0  0  0  0  0  0
  -27.6050  -13.3090   19.5610 C   0  0  0  0  0  3  0  0  0  0  0  0
  -28.7160  -13.1020   20.6130 C   0  0  0  0  0  2  0  0  0  0  0  0
  -30.0070  -13.3890   19.9760 N   0  0  0  0  0  0  0  0  0  0  0  0
  -31.8220  -14.6610   19.5600 O   0  0  0  0  0  0  0  0  0  0  0  0
  -25.2660  -13.9120   20.4310 C   0  0  0  0  0  0  0  0  0  0  0  0
  -24.2140  -13.1400   20.8430 C   0  0  0  0  0  0  0  0  0  0  0  0
  -24.6590  -11.7870   20.7530 C   0  0  0  0  0  0  0  0  0  0  0  0
  -26.2850  -13.0280   20.1140 N   0  0  0  0  0  0  0  0  0  0  0  0
  -25.9280  -11.7440   20.3660 N   0  0  0  0  0  0  0  0  0  0  0  0
  -23.9290  -10.5280   20.9540 C   0  0  0  0  0  0  0  0  0  0  0  0
  -24.3850   -9.5470   21.8620 C   0  0  0  0  0  3  0  0  0  0  0  0
  -23.6560   -8.3510   22.0510 C   0  0  0  0  0  3  0  0  0  0  0  0
  -22.4590   -8.1300   21.3300 C   0  0  0  0  0  0  0  0  0  0  0  0
  -22.0230   -9.1000   20.4110 C   0  0  0  0  0  3  0  0  0  0  0  0
  -22.7520  -10.2850   20.2200 C   0  0  0  0  0  3  0  0  0  0  0  0
  -21.6980   -6.9890   21.4300 O   0  0  0  0  0  0  0  0  0  0  0  0
  -21.6560   -6.2520   22.5850 C   0  0  0  0  0  0  0  0  0  0  0  0
  -21.2160   -6.8040   23.8080 C   0  0  0  0  0  3  0  0  0  0  0  0
  -21.1210   -5.9910   24.9540 C   0  0  0  0  0  3  0  0  0  0  0  0
  -21.4570   -4.6270   24.8810 C   0  0  0  0  0  0  0  0  0  0  0  0
  -21.8910   -4.0730   23.6640 C   0  0  0  0  0  3  0  0  0  0  0  0
  -21.9880   -4.8830   22.5190 C   0  0  0  0  0  0  0  0  0  0  0  0
  -22.3860   -4.3390   21.3440 F   0  0  0  0  0  0  0  0  0  0  0  0
  -21.3590   -3.8440   25.9810 F   0  0  0  0  0  0  0  0  0  0  0  0
  -22.8400  -13.6250   21.2050 C   0  0  0  0  0  0  0  0  0  0  0  0
  -22.1530  -12.9160   22.0940 N   0  0  0  0  0  0  0  0  0  0  0  0
  -22.3840  -14.6660   20.7340 O   0  0  0  0  0  0  0  0  0  0  0  0
  -22.5360  -12.0710   22.4960 H   0  0  0  0  0  0  0  0  0  0  0  0
  -21.2330  -13.2250   22.3790 H   0  0  0  0  0  0  0  0  0  0  0  0
  -25.4350  -15.2850   20.2770 N   0  0  0  0  0  0  0  0  0  0  0  0
  -24.6850  -15.9480   20.4510 H   0  0  0  0  0  0  0  0  0  0  0  0
  -26.2870  -15.7230   19.9470 H   0  0  0  0  0  0  0  0  0  0  0  0
  -28.3530  -26.6040   20.1310 O   0  0  0  0  0  0  0  0  0  0  0  0
  -24.6150  -31.8950   23.2150 C   0  0  0  0  0  0  0  0  0  0  0  0
  -27.2150  -27.4050   20.1060 C   0  0  0  0  0  0  0  0  0  0  0  0
  -23.3940  -30.4950   21.5840 C   0  0  0  0  0  3  0  0  0  0  0  0
  -24.8350  -28.9590   20.1400 C   0  0  0  0  0  0  0  0  0  0  0  0
  -25.9270  -30.8360   21.3730 C   0  0  0  0  0  2  0  0  0  0  0  0
  -26.0040  -29.4660   20.7220 C   0  0  0  0  0  0  0  0  0  0  0  0
  -27.1990  -28.6980   20.6980 C   0  0  0  0  0  3  0  0  0  0  0  0
  -26.0120  -26.9180   19.5440 C   0  0  0  0  0  3  0  0  0  0  0  0
  -24.8350  -27.6850   19.5470 C   0  0  0  0  0  3  0  0  0  0  0  0
  -23.5920  -29.8210   20.2010 C   0  0  0  0  0  2  0  0  0  0  0  0
  -24.6630  -31.0930   22.1130 N   0  0  0  0  0  0  0  0  0  0  0  0
  -23.5370  -32.1660   23.7640 O   0  0  0  0  0  0  0  0  0  0  0  0
  -22.7510  -29.4710   22.5500 C   0  0  0  0  0  0  0  0  0  0  0  0
  -21.4260  -29.2810   22.4290 N   0  0  0  0  0  0  0  0  0  0  0  0
  -23.4400  -28.8520   23.3640 O   0  0  0  0  0  0  0  0  0  0  0  0
  -20.9310  -29.8360   21.7430 H   0  0  0  0  0  0  0  0  0  0  0  0
  -18.0590  -28.0620   22.9270 C   0  0  0  0  0  0  0  0  0  0  0  0
  -20.6130  -28.3400   23.2000 C   0  0  0  0  0  3  0  0  0  0  0  0
  -20.7250  -26.9060   22.6300 C   0  0  0  0  0  2  0  0  0  0  0  0
  -19.6280  -26.5710   21.6140 C   0  0  0  0  0  2  0  0  0  0  0  0
  -18.2440  -26.7130   22.2550 C   0  0  0  0  0  2  0  0  0  0  0  0
  -19.1720  -28.8340   23.3540 C   0  0  0  0  0  0  0  0  0  0  0  0
  -18.9430  -30.1000   23.9370 C   0  0  0  0  0  3  0  0  0  0  0  0
  -17.6330  -30.5930   24.0970 C   0  0  0  0  0  3  0  0  0  0  0  0
  -16.5340  -29.8150   23.6910 C   0  0  0  0  0  3  0  0  0  0  0  0
  -16.7480  -28.5520   23.1110 C   0  0  0  0  0  3  0  0  0  0  0  0
  -25.9060  -32.5270   23.8240 C   0  0  0  0  0  3  0  0  0  0  0  0
  -25.5990  -33.9210   24.1660 N   0  0  0  0  0  0  0  0  0  0  0  0
  -25.9000  -34.9770   23.4000 C   0  0  0  0  0  0  0  0  0  0  0  0
  -26.5420  -34.8800   22.3500 O   0  0  0  0  0  0  0  0  0  0  0  0
  -25.0370  -34.0690   24.9920 H   0  0  0  0  0  0  0  0  0  0  0  0
  -24.1550  -36.7580   23.0850 C   0  0  0  0  0  1  0  0  0  0  0  0
  -25.4150  -36.3620   23.8700 C   0  0  0  0  0  3  0  0  0  0  0  0
  -27.5630  -37.2600   24.6520 C   0  0  0  0  0  1  0  0  0  0  0  0
  -26.4390  -37.4200   23.7340 N   0  0  0  0  0  0  0  0  0  0  0  0
  -26.0320  -38.3400   23.8810 H   0  0  0  0  0  0  0  0  0  0  0  0
  -26.4360  -31.7520   25.0910 C   0  0  1  0  0  0  0  0  0  0  0  0
  -25.3580  -31.5200   26.1750 C   0  0  0  0  0  1  0  0  0  0  0  0
  -27.0120  -30.3740   24.6890 C   0  0  0  0  0  1  0  0  0  0  0  0
  -27.5960  -32.5440   25.7400 C   0  0  0  0  0  1  0  0  0  0  0  0
  1  2  1  0
  2  7  2  0
  3  1  2  0
  3 52  1  0
  4  1  1  0
  4  6  1  0
  5  3  1  0
  6 13  1  0
  6  2  1  0
  9 11  2  0
  9 12  1  0
 10  8  1  0
 11 13  1  0
 12  8  2  0
 13 10  2  0
 14 12  1  0
 14 15  1  0
 16 15  1  0
 17 22  1  0
 18 19  1  0
 18 17  1  0
 20 19  1  0
 20 27  1  0
 20 21  1  0
 22 16  1  0
 22 21  1  0
 23 16  2  0
 24 25  2  0
 25 44  1  0
 26 25  1  0
 26 29  1  0
 27 28  1  0
 27 24  1  0
 28 26  2  0
 29 30  1  0
 30 31  2  0
 32 35  1  0
 32 31  1  0
 33 32  2  0
 34 33  1  0
 34 29  2  0
 35 36  1  0
 36 37  1  0
 37 38  2  0
 39 38  1  0
 39 43  1  0
 40 39  2  0
 41 36  2  0
 41 40  1  0
 42 41  1  0
 44 45  1  0
 45 48  1  0
 45 47  1  0
 46 44  2  0
 49 24  1  0
 49 50  1  0
 51 49  1  0
 53 64  2  0
 54 52  1  0
 54 59  1  0
 55 63  1  0
 55 65  1  0
 56 62  1  0
 56 58  1  0
 57 63  1  0
 58 57  1  0
 59 58  2  0
 60 61  1  0
 60 54  2  0
 61 56  2  0
 62 55  1  0
 63 53  1  0
 65 67  2  0
 66 65  1  0
 68 66  1  0
 69 78  2  0
 69 74  1  0
 70 66  1  0
 70 74  1  0
 71 70  1  0
 72 73  1  0
 72 71  1  0
 73 69  1  0
 74 75  2  0
 75 76  1  0
 77 76  2  0
 78 77  1  0
 79 53  1  0
 79 80  1  0
 79 89  1  0
 80 83  1  0
 81 85  1  0
 81 80  1  0
 82 81  2  0
 85 84  1  0
 87 85  1  0
 87 88  1  0
 87 86  1  0
 89 92  1  1
 89 90  1  0
 91 89  1  0
M  ISO  4   3 101  15 100  16 100  52 101
M  END
>  <TORSDO>  (39) 
F 18

>  <SCORE>  (39) 
-14.554

>  <name>  (39) 
38

>  <ligand_id>  (39) 
38

>  <original_smiles>  (39) 
[H]C(=NC(=O)N1C([H])([H])C([H])([H])C([H])([H])C([H])(n2nc(-c3c([H])c([H])c(Oc4c([H])c([H])c(F)c([H])c4F)c([H])c3[H])c(C(=O)N([H])[H])c2N([H])[H])C1([H])[H])c1c([H])c([H])c(N2C(=O)C(=C(Oc3c([H])c([H])c4c(c3[H])C([H])([H])N(C(=O)C([H])(N([H])C(=O)C([H])(N([H])C([H])([H])[H])C([H])([H])[H])C(C([H])([H])[H])(C([H])([H])[H])C([H])([H])[H])C([H])(C(=O)N([H])C3([H])c5c([H])c([H])c([H])c([H])c5C([H])([H])C([H])([H])C3([H])[H])C4([H])[H])C([H])([H])[H])C2([H])[H])c([H])c1[H]

>  <smiles>  (39) 
[H]C(=NC(=O)N1C([H])([H])C([H])([H])C([H])([H])C([H])(n2nc(-c3c([H])c([H])c(Oc4c([H])c([H])c(F)c([H])c4F)c([H])c3[H])c(C(=O)N([H])[H])c2N([H])[H])C1([H])[H])c1c([H])c([H])c(N2C(=O)C(=C(Oc3c([H])c([H])c4c(c3[H])C([H])([H])N(C(=O)C([H])(N([H])C(=O)C([H])(N([H])C([H])([H])[H])C([H])([H])[H])C(C([H])([H])[H])(C([H])([H])[H])C([H])([H])[H])C([H])(C(=O)N([H])C3([H])c5c([H])c([H])c([H])c([H])c5C([H])([H])C([H])([H])C3([H])[H])C4([H])[H])C([H])([H])[H])C2([H])[H])c([H])c1[H]

$$$$
39:0:0
     RDKit          3D

 92101  0  0  1  0  0  0  0  0999 V2000
  -28.6420  -23.8100   19.8650 C   0  0  0  0  0  0  0  0  0  0  0  0
  -28.4660  -22.5710   19.1260 C   0  0  0  0  0  0  0  0  0  0  0  0
  -29.3120  -23.0150   20.8910 C   0  0  0  0  0  0  0  0  0  0  0  0
  -28.2380  -25.1120   19.5570 C   0  0  0  0  0  3  0  0  0  0  0  0
  -29.1170  -21.8040   20.1300 N   0  0  0  0  0  0  0  0  0  0  0  0
  -27.9260  -22.3540   18.0590 O   0  0  0  0  0  0  0  0  0  0  0  0
  -29.8000  -23.3270   21.9600 O   0  0  0  0  0  0  0  0  0  0  0  0
  -28.3370  -19.3750   19.9660 C   0  0  0  0  0  3  0  0  0  0  0  0
  -30.5440  -19.6690   20.7220 C   0  0  0  0  0  3  0  0  0  0  0  0
  -28.4800  -17.9550   20.0820 C   0  0  0  0  0  3  0  0  0  0  0  0
  -30.7200  -18.2350   20.8080 C   0  0  0  0  0  3  0  0  0  0  0  0
  -29.3460  -20.3340   20.2870 C   0  0  0  0  0  0  0  0  0  0  0  0
  -29.6780  -17.3140   20.4960 C   0  0  0  0  0  0  0  0  0  0  0  0
  -30.5400  -14.7870   20.4170 C   0  0  0  0  0  0  0  0  0  0  0  0
  -30.4080  -12.5030   19.3950 C   0  0  0  0  0  2  0  0  0  0  0  0
  -29.4720  -12.5710   18.1650 C   0  0  0  0  0  2  0  0  0  0  0  0
  -27.9970  -12.3900   18.5800 C   0  0  0  0  0  2  0  0  0  0  0  0
  -27.6080  -13.2710   19.7960 C   0  0  0  0  0  3  0  0  0  0  0  0
  -28.6570  -13.1620   20.9260 C   0  0  0  0  0  2  0  0  0  0  0  0
  -29.9620  -13.5360   20.3570 N   0  0  0  0  0  0  0  0  0  0  0  0
  -31.7190  -14.9480   20.0840 O   0  0  0  0  0  0  0  0  0  0  0  0
  -29.6750  -15.8380   20.6780 N   0  0  0  0  0  0  0  0  0  0  0  0
  -28.7570  -15.4730   20.8790 H   0  0  0  0  0  0  0  0  0  0  0  0
  -25.2060  -13.8640   20.4820 C   0  0  0  0  0  0  0  0  0  0  0  0
  -24.1380  -13.0900   20.8480 C   0  0  0  0  0  0  0  0  0  0  0  0
  -24.6070  -11.7410   20.8350 C   0  0  0  0  0  0  0  0  0  0  0  0
  -26.2570  -12.9860   20.2690 N   0  0  0  0  0  0  0  0  0  0  0  0
  -25.9010  -11.7040   20.5420 N   0  0  0  0  0  0  0  0  0  0  0  0
  -23.8820  -10.4770   21.0260 C   0  0  0  0  0  0  0  0  0  0  0  0
  -24.3100   -9.5170   21.9690 C   0  0  0  0  0  3  0  0  0  0  0  0
  -23.5850   -8.3190   22.1490 C   0  0  0  0  0  3  0  0  0  0  0  0
  -22.4190   -8.0730   21.3850 C   0  0  0  0  0  0  0  0  0  0  0  0
  -22.0120   -9.0220   20.4310 C   0  0  0  0  0  3  0  0  0  0  0  0
  -22.7370  -10.2120   20.2500 C   0  0  0  0  0  3  0  0  0  0  0  0
  -21.6680   -6.9270   21.4720 O   0  0  0  0  0  0  0  0  0  0  0  0
  -21.6120   -6.1890   22.6280 C   0  0  0  0  0  0  0  0  0  0  0  0
  -21.1680   -6.7470   23.8460 C   0  0  0  0  0  3  0  0  0  0  0  0
  -21.0610   -5.9360   24.9940 C   0  0  0  0  0  3  0  0  0  0  0  0
  -21.3860   -4.5680   24.9240 C   0  0  0  0  0  0  0  0  0  0  0  0
  -21.8230   -4.0100   23.7090 C   0  0  0  0  0  3  0  0  0  0  0  0
  -21.9320   -4.8180   22.5640 C   0  0  0  0  0  0  0  0  0  0  0  0
  -22.3330   -4.2710   21.3910 F   0  0  0  0  0  0  0  0  0  0  0  0
  -21.2760   -3.7870   26.0230 F   0  0  0  0  0  0  0  0  0  0  0  0
  -22.7350  -13.5650   21.0950 C   0  0  0  0  0  0  0  0  0  0  0  0
  -21.9970  -12.8730   21.9560 N   0  0  0  0  0  0  0  0  0  0  0  0
  -22.3020  -14.5850   20.5610 O   0  0  0  0  0  0  0  0  0  0  0  0
  -22.3610  -12.0490   22.4110 H   0  0  0  0  0  0  0  0  0  0  0  0
  -21.0560  -13.1730   22.1640 H   0  0  0  0  0  0  0  0  0  0  0  0
  -25.3640  -15.2330   20.2890 N   0  0  0  0  0  0  0  0  0  0  0  0
  -24.5820  -15.8740   20.3620 H   0  0  0  0  0  0  0  0  0  0  0  0
  -26.1880  -15.6590   19.8900 H   0  0  0  0  0  0  0  0  0  0  0  0
  -28.3040  -26.3830   20.2080 O   0  0  0  0  0  0  0  0  0  0  0  0
  -24.6150  -31.8850   23.2430 C   0  0  0  0  0  0  0  0  0  0  0  0
  -27.2070  -27.2880   20.1490 C   0  0  0  0  0  0  0  0  0  0  0  0
  -23.4050  -30.4940   21.6060 C   0  0  0  0  0  3  0  0  0  0  0  0
  -24.8470  -28.9480   20.1650 C   0  0  0  0  0  0  0  0  0  0  0  0
  -25.9500  -30.7960   21.4160 C   0  0  0  0  0  2  0  0  0  0  0  0
  -26.0260  -29.4180   20.7580 C   0  0  0  0  0  0  0  0  0  0  0  0
  -27.2060  -28.6010   20.7390 C   0  0  0  0  0  3  0  0  0  0  0  0
  -25.9870  -26.8860   19.5510 C   0  0  0  0  0  3  0  0  0  0  0  0
  -24.8330  -27.6890   19.5530 C   0  0  0  0  0  3  0  0  0  0  0  0
  -23.6130  -29.8270   20.2220 C   0  0  0  0  0  2  0  0  0  0  0  0
  -24.6760  -31.0770   22.1440 N   0  0  0  0  0  0  0  0  0  0  0  0
  -23.5330  -32.1630   23.7810 O   0  0  0  0  0  0  0  0  0  0  0  0
  -22.7430  -29.4740   22.5650 C   0  0  0  0  0  0  0  0  0  0  0  0
  -21.4150  -29.2960   22.4420 N   0  0  0  0  0  0  0  0  0  0  0  0
  -23.4230  -28.8470   23.3820 O   0  0  0  0  0  0  0  0  0  0  0  0
  -20.9250  -29.8540   21.7570 H   0  0  0  0  0  0  0  0  0  0  0  0
  -18.0400  -28.0910   22.9500 C   0  0  0  0  0  0  0  0  0  0  0  0
  -20.5990  -28.3570   23.2140 C   0  0  0  0  0  3  0  0  0  0  0  0
  -20.7020  -26.9250   22.6370 C   0  0  0  0  0  2  0  0  0  0  0  0
  -19.5990  -26.6010   21.6260 C   0  0  0  0  0  2  0  0  0  0  0  0
  -18.2180  -26.7420   22.2740 C   0  0  0  0  0  2  0  0  0  0  0  0
  -19.1580  -28.8550   23.3780 C   0  0  0  0  0  0  0  0  0  0  0  0
  -18.9370  -30.1170   23.9720 C   0  0  0  0  0  3  0  0  0  0  0  0
  -17.6320  -30.6150   24.1420 C   0  0  0  0  0  3  0  0  0  0  0  0
  -16.5280  -29.8470   23.7300 C   0  0  0  0  0  3  0  0  0  0  0  0
  -16.7330  -28.5870   23.1400 C   0  0  0  0  0  3  0  0  0  0  0  0
  -25.8990  -32.5170   23.8600 C   0  0  0  0  0  3  0  0  0  0  0  0
  -25.5890  -33.9150   24.1940 N   0  0  0  0  0  0  0  0  0  0  0  0
  -25.9100  -34.9700   23.4330 C   0  0  0  0  0  0  0  0  0  0  0  0
  -26.5660  -34.8690   22.3930 O   0  0  0  0  0  0  0  0  0  0  0  0
  -25.0060  -34.0680   25.0040 H   0  0  0  0  0  0  0  0  0  0  0  0
  -24.1740  -36.7610   23.1080 C   0  0  0  0  0  1  0  0  0  0  0  0
  -25.4280  -36.3580   23.8990 C   0  0  0  0  0  3  0  0  0  0  0  0
  -27.5730  -37.2470   24.6990 C   0  0  0  0  0  1  0  0  0  0  0  0
  -26.4570  -37.4130   23.7710 N   0  0  0  0  0  0  0  0  0  0  0  0
  -26.0520  -38.3320   23.9230 H   0  0  0  0  0  0  0  0  0  0  0  0
  -26.4170  -31.7450   25.1360 C   0  0  1  0  0  0  0  0  0  0  0  0
  -25.3270  -31.5090   26.2070 C   0  0  0  0  0  1  0  0  0  0  0  0
  -26.9970  -30.3660   24.7440 C   0  0  0  0  0  1  0  0  0  0  0  0
  -27.5710  -32.5380   25.7950 C   0  0  0  0  0  1  0  0  0  0  0  0
  1  3  1  0
  2  1  1  0
  2  5  1  0
  3  7  2  0
  4  1  2  0
  4 52  1  0
  5 12  1  0
  5  3  1  0
  6  2  2  0
  8 10  2  0
  8 12  1  0
  9 11  1  0
 10 13  1  0
 12  9  2  0
 13 22  1  0
 13 11  2  0
 14 22  1  0
 15 20  1  0
 16 17  1  0
 16 15  1  0
 18 17  1  0
 18 27  1  0
 18 19  1  0
 20 14  1  0
 20 19  1  0
 21 14  2  0
 22 23  1  0
 24 25  2  0
 25 44  1  0
 26 25  1  0
 26 29  1  0
 27 24  1  0
 27 28  1  0
 28 26  2  0
 29 30  1  0
 30 31  2  0
 32 35  1  0
 32 31  1  0
 33 32  2  0
 34 33  1  0
 34 29  2  0
 35 36  1  0
 36 37  1  0
 37 38  2  0
 39 38  1  0
 39 43  1  0
 40 39  2  0
 41 36  2  0
 41 40  1  0
 42 41  1  0
 44 45  1  0
 45 48  1  0
 45 47  1  0
 46 44  2  0
 49 50  1  0
 49 24  1  0
 51 49  1  0
 53 64  2  0
 54 52  1  0
 54 59  1  0
 55 63  1  0
 55 65  1  0
 56 62  1  0
 56 58  1  0
 57 63  1  0
 58 57  1  0
 59 58  2  0
 60 61  1  0
 60 54  2  0
 61 56  2  0
 62 55  1  0
 63 53  1  0
 65 67  2  0
 66 65  1  0
 68 66  1  0
 69 78  2  0
 69 74  1  0
 70 66  1  0
 70 74  1  0
 71 70  1  0
 72 73  1  0
 72 71  1  0
 73 69  1  0
 74 75  2  0
 75 76  1  0
 77 76  2  0
 78 77  1  0
 79 53  1  0
 79 80  1  0
 79 89  1  0
 80 83  1  0
 81 85  1  0
 81 80  1  0
 82 81  2  0
 85 84  1  0
 87 85  1  0
 87 88  1  0
 87 86  1  0
 89 92  1  1
 89 90  1  0
 91 89  1  0
M  ISO  4   4 101  14 100  22 100  52 101
M  END
>  <TORSDO>  (40) 
F 17

>  <SCORE>  (40) 
-15.405

>  <name>  (40) 
39

>  <ligand_id>  (40) 
39

>  <original_smiles>  (40) 
[H]C(Oc1c([H])c([H])c2c(c1[H])C([H])([H])N(C(=O)C([H])(N([H])C(=O)C([H])(N([H])C([H])([H])[H])C([H])([H])[H])C(C([H])([H])[H])(C([H])([H])[H])C([H])([H])[H])C([H])(C(=O)N([H])C1([H])c3c([H])c([H])c([H])c([H])c3C([H])([H])C([H])([H])C1([H])[H])C2([H])[H])=C1C(=O)N(c2c([H])c([H])c(N([H])C(=O)N3C([H])([H])C([H])([H])C([H])([H])C([H])(n4nc(-c5c([H])c([H])c(Oc6c([H])c([H])c(F)c([H])c6F)c([H])c5[H])c(C(=O)N([H])[H])c4N([H])[H])C3([H])[H])c([H])c2[H])C1=O

>  <smiles>  (40) 
[H]C(Oc1c([H])c([H])c2c(c1[H])C([H])([H])N(C(=O)C([H])(N([H])C(=O)C([H])(N([H])C([H])([H])[H])C([H])([H])[H])C(C([H])([H])[H])(C([H])([H])[H])C([H])([H])[H])C([H])(C(=O)N([H])C1([H])c3c([H])c([H])c([H])c([H])c3C([H])([H])C([H])([H])C1([H])[H])C2([H])[H])=C1C(=O)N(c2c([H])c([H])c(N([H])C(=O)N3C([H])([H])C([H])([H])C([H])([H])C([H])(n4nc(-c5c([H])c([H])c(Oc6c([H])c([H])c(F)c([H])c6F)c([H])c5[H])c(C(=O)N([H])[H])c4N([H])[H])C3([H])[H])c([H])c2[H])C1=O

$$$$
40:0:0
     RDKit          3D

 94103  0  0  1  0  0  0  0  0999 V2000
  -28.8950  -24.0640   19.1120 C   0  0  0  0  0  3  0  0  0  0  0  0
  -30.8050  -23.3340   19.8570 C   0  0  0  0  0  0  0  0  0  0  0  0
  -28.4090  -25.3780   19.1610 C   0  0  0  0  0  2  0  0  0  0  0  0
  -29.6300  -23.7280   17.8290 C   0  0  0  0  0  2  0  0  0  0  0  0
  -31.0530  -23.5090   18.3600 C   0  0  0  0  0  2  0  0  0  0  0  0
  -29.4890  -23.1650   20.0900 N   0  0  0  0  0  0  0  0  0  0  0  0
  -31.7210  -23.2760   20.6870 O   0  0  0  0  0  0  0  0  0  0  0  0
  -29.9750  -19.6170   21.5370 C   0  0  0  0  0  3  0  0  0  0  0  0
  -29.1850  -19.3120   19.3130 C   0  0  0  0  0  3  0  0  0  0  0  0
  -29.7310  -21.0270   21.4450 C   0  0  0  0  0  3  0  0  0  0  0  0
  -28.9330  -20.7350   19.2210 C   0  0  0  0  0  3  0  0  0  0  0  0
  -29.7810  -18.7020   20.4600 C   0  0  0  0  0  0  0  0  0  0  0  0
  -29.2910  -21.6730   20.2520 C   0  0  0  0  0  0  0  0  0  0  0  0
  -30.6650  -14.8620   19.9960 C   0  0  0  0  0  0  0  0  0  0  0  0
  -30.3750  -12.6100   18.9420 C   0  0  0  0  0  2  0  0  0  0  0  0
  -29.3700  -12.6840   17.7760 C   0  0  0  0  0  2  0  0  0  0  0  0
  -27.9320  -12.4940   18.2950 C   0  0  0  0  0  2  0  0  0  0  0  0
  -27.6220  -13.3610   19.5450 C   0  0  0  0  0  3  0  0  0  0  0  0
  -28.7500  -13.2930   20.5950 C   0  0  0  0  0  2  0  0  0  0  0  0
  -29.9910  -13.6640   19.9120 N   0  0  0  0  0  0  0  0  0  0  0  0
  -31.8540  -14.8710   19.6590 O   0  0  0  0  0  0  0  0  0  0  0  0
  -30.5060  -17.3080   20.4860 C   0  0  0  0  0  0  0  0  0  0  0  0
  -29.9630  -16.0550   20.2100 N   0  0  0  0  0  0  0  0  0  0  0  0
  -31.6870  -17.3940   20.8400 O   0  0  0  0  0  0  0  0  0  0  0  0
  -28.9600  -16.0080   20.1540 H   0  0  0  0  0  0  0  0  0  0  0  0
  -25.2910  -13.9120   20.4520 C   0  0  0  0  0  0  0  0  0  0  0  0
  -24.2550  -13.1200   20.8680 C   0  0  0  0  0  0  0  0  0  0  0  0
  -24.7200  -11.7730   20.7670 C   0  0  0  0  0  0  0  0  0  0  0  0
  -26.3200  -13.0450   20.1200 N   0  0  0  0  0  0  0  0  0  0  0  0
  -25.9890  -11.7530   20.3740 N   0  0  0  0  0  0  0  0  0  0  0  0
  -24.0110  -10.5020   20.9630 C   0  0  0  0  0  0  0  0  0  0  0  0
  -24.4690   -9.5340   21.8830 C   0  0  0  0  0  3  0  0  0  0  0  0
  -23.7580   -8.3290   22.0700 C   0  0  0  0  0  3  0  0  0  0  0  0
  -22.5750   -8.0820   21.3350 C   0  0  0  0  0  0  0  0  0  0  0  0
  -22.1340   -9.0370   20.4020 C   0  0  0  0  0  3  0  0  0  0  0  0
  -22.8460  -10.2340   20.2140 C   0  0  0  0  0  3  0  0  0  0  0  0
  -21.8350   -6.9270   21.4290 O   0  0  0  0  0  0  0  0  0  0  0  0
  -21.7660   -6.2100   22.5970 C   0  0  0  0  0  0  0  0  0  0  0  0
  -21.2640   -6.7740   23.7900 C   0  0  0  0  0  3  0  0  0  0  0  0
  -21.1460   -5.9800   24.9480 C   0  0  0  0  0  3  0  0  0  0  0  0
  -21.5200   -4.6240   24.9140 C   0  0  0  0  0  0  0  0  0  0  0  0
  -22.0150   -4.0590   23.7250 C   0  0  0  0  0  3  0  0  0  0  0  0
  -22.1340   -4.8500   22.5690 C   0  0  0  0  0  0  0  0  0  0  0  0
  -22.5910   -4.2960   21.4190 F   0  0  0  0  0  0  0  0  0  0  0  0
  -21.3990   -3.8590   26.0230 F   0  0  0  0  0  0  0  0  0  0  0  0
  -22.8750  -13.5810   21.2370 C   0  0  0  0  0  0  0  0  0  0  0  0
  -22.2020  -12.8580   22.1250 N   0  0  0  0  0  0  0  0  0  0  0  0
  -22.4050  -14.6190   20.7740 O   0  0  0  0  0  0  0  0  0  0  0  0
  -22.5960  -12.0190   22.5240 H   0  0  0  0  0  0  0  0  0  0  0  0
  -21.2780  -13.1490   22.4110 H   0  0  0  0  0  0  0  0  0  0  0  0
  -25.4370  -15.2880   20.3050 N   0  0  0  0  0  0  0  0  0  0  0  0
  -24.6690  -15.9290   20.4800 H   0  0  0  0  0  0  0  0  0  0  0  0
  -26.2430  -15.7410   19.8970 H   0  0  0  0  0  0  0  0  0  0  0  0
  -28.2690  -26.3850   20.1470 O   0  0  0  0  0  0  0  0  0  0  0  0
  -24.6540  -31.8980   23.2250 C   0  0  0  0  0  0  0  0  0  0  0  0
  -27.2100  -27.3250   20.0700 C   0  0  0  0  0  0  0  0  0  0  0  0
  -23.4310  -30.5230   21.5830 C   0  0  0  0  0  3  0  0  0  0  0  0
  -24.8610  -28.9870   20.1140 C   0  0  0  0  0  0  0  0  0  0  0  0
  -25.9750  -30.8230   21.3790 C   0  0  0  0  0  2  0  0  0  0  0  0
  -26.0430  -29.4500   20.7070 C   0  0  0  0  0  0  0  0  0  0  0  0
  -27.2200  -28.6290   20.6780 C   0  0  0  0  0  3  0  0  0  0  0  0
  -25.9970  -26.9300   19.4620 C   0  0  0  0  0  3  0  0  0  0  0  0
  -24.8440  -27.7350   19.4830 C   0  0  0  0  0  3  0  0  0  0  0  0
  -23.6280  -29.8660   20.1930 C   0  0  0  0  0  2  0  0  0  0  0  0
  -24.7070  -31.0990   22.1180 N   0  0  0  0  0  0  0  0  0  0  0  0
  -23.5760  -32.1700   23.7750 O   0  0  0  0  0  0  0  0  0  0  0  0
  -22.7760  -29.4940   22.5390 C   0  0  0  0  0  0  0  0  0  0  0  0
  -21.4480  -29.3170   22.4240 N   0  0  0  0  0  0  0  0  0  0  0  0
  -23.4620  -28.8600   23.3450 O   0  0  0  0  0  0  0  0  0  0  0  0
  -20.9540  -29.8800   21.7460 H   0  0  0  0  0  0  0  0  0  0  0  0
  -18.0780  -28.0990   22.9380 C   0  0  0  0  0  0  0  0  0  0  0  0
  -20.6380  -28.3700   23.1930 C   0  0  0  0  0  3  0  0  0  0  0  0
  -20.7420  -26.9430   22.6060 C   0  0  0  0  0  2  0  0  0  0  0  0
  -19.6350  -26.6220   21.5960 C   0  0  0  0  0  2  0  0  0  0  0  0
  -18.2570  -26.7560   22.2500 C   0  0  0  0  0  2  0  0  0  0  0  0
  -19.1950  -28.8640   23.3650 C   0  0  0  0  0  0  0  0  0  0  0  0
  -18.9730  -30.1210   23.9680 C   0  0  0  0  0  3  0  0  0  0  0  0
  -17.6660  -30.6140   24.1480 C   0  0  0  0  0  3  0  0  0  0  0  0
  -16.5640  -29.8460   23.7360 C   0  0  0  0  0  3  0  0  0  0  0  0
  -16.7700  -28.5900   23.1380 C   0  0  0  0  0  3  0  0  0  0  0  0
  -25.9420  -32.5260   23.8400 C   0  0  0  0  0  3  0  0  0  0  0  0
  -25.6350  -33.9200   24.1920 N   0  0  0  0  0  0  0  0  0  0  0  0
  -25.9350  -34.9830   23.4320 C   0  0  0  0  0  0  0  0  0  0  0  0
  -26.5670  -34.8910   22.3770 O   0  0  0  0  0  0  0  0  0  0  0  0
  -25.0740  -34.0640   25.0180 H   0  0  0  0  0  0  0  0  0  0  0  0
  -24.1830  -36.7690   23.1590 C   0  0  0  0  0  1  0  0  0  0  0  0
  -25.4570  -36.3650   23.9190 C   0  0  0  0  0  3  0  0  0  0  0  0
  -27.6130  -37.2630   24.6810 C   0  0  0  0  0  1  0  0  0  0  0  0
  -26.4790  -37.4250   23.7740 N   0  0  0  0  0  0  0  0  0  0  0  0
  -26.0730  -38.3420   23.9370 H   0  0  0  0  0  0  0  0  0  0  0  0
  -26.4720  -31.7430   25.1030 C   0  0  1  0  0  0  0  0  0  0  0  0
  -25.3900  -31.4920   26.1800 C   0  0  0  0  0  1  0  0  0  0  0  0
  -27.0530  -30.3710   24.6910 C   0  0  0  0  0  1  0  0  0  0  0  0
  -27.6290  -32.5310   25.7620 C   0  0  0  0  0  1  0  0  0  0  0  0
  1  3  1  0
  1  6  1  0
  2  6  1  0
  2  7  2  0
  3 54  1  0
  4  5  1  0
  4  1  1  0
  5  2  1  0
  6 13  1  0
  9 12  1  0
 10  8  1  0
 11  9  2  0
 11 13  1  0
 12 22  1  0
 12  8  2  0
 13 10  2  0
 14 23  1  0
 15 20  1  0
 16 17  1  0
 16 15  1  0
 18 17  1  0
 18 29  1  0
 18 19  1  0
 20 14  1  0
 20 19  1  0
 21 14  2  0
 22 24  2  0
 23 22  1  0
 25 23  1  0
 26 27  2  0
 27 46  1  0
 28 27  1  0
 28 31  1  0
 29 30  1  0
 29 26  1  0
 30 28  2  0
 31 32  1  0
 32 33  2  0
 34 37  1  0
 34 33  1  0
 35 34  2  0
 36 35  1  0
 36 31  2  0
 37 38  1  0
 38 39  1  0
 39 40  2  0
 41 40  1  0
 41 45  1  0
 42 41  2  0
 43 38  2  0
 43 42  1  0
 44 43  1  0
 46 47  1  0
 47 50  1  0
 47 49  1  0
 48 46  2  0
 51 26  1  0
 51 52  1  0
 53 51  1  0
 55 66  2  0
 56 54  1  0
 56 61  1  0
 57 65  1  0
 57 67  1  0
 58 64  1  0
 58 60  1  0
 59 65  1  0
 60 59  1  0
 61 60  2  0
 62 63  1  0
 62 56  2  0
 63 58  2  0
 64 57  1  0
 65 55  1  0
 67 69  2  0
 68 67  1  0
 70 68  1  0
 71 80  2  0
 71 76  1  0
 72 68  1  0
 72 76  1  0
 73 72  1  0
 74 75  1  0
 74 73  1  0
 75 71  1  0
 76 77  2  0
 77 78  1  0
 79 78  2  0
 80 79  1  0
 81 55  1  0
 81 82  1  0
 81 91  1  0
 82 85  1  0
 83 87  1  0
 83 82  1  0
 84 83  2  0
 87 86  1  0
 89 87  1  0
 89 90  1  0
 89 88  1  0
 91 94  1  1
 91 92  1  0
 93 91  1  0
M  ISO  4   3 101  14 100  23 100  54 101
M  END
>  <TORSDO>  (41) 
F 17

>  <SCORE>  (41) 
-14.956

>  <name>  (41) 
40

>  <ligand_id>  (41) 
40

>  <original_smiles>  (41) 
[H]C(Oc1c([H])c([H])c2c(c1[H])C([H])([H])N(C(=O)C([H])(N([H])C(=O)C([H])(N([H])C([H])([H])[H])C([H])([H])[H])C(C([H])([H])[H])(C([H])([H])[H])C([H])([H])[H])C([H])(C(=O)N([H])C1([H])c3c([H])c([H])c([H])c([H])c3C([H])([H])C([H])([H])C1([H])[H])C2([H])[H])=C1N(c2c([H])c([H])c(C(=O)N([H])C(=O)N3C([H])([H])C([H])([H])C([H])([H])C([H])(n4nc(-c5c([H])c([H])c(Oc6c([H])c([H])c(F)c([H])c6F)c([H])c5[H])c(C(=O)N([H])[H])c4N([H])[H])C3([H])[H])c([H])c2[H])C(=O)C([H])([H])C1([H])[H]

>  <smiles>  (41) 
[H]C(Oc1c([H])c([H])c2c(c1[H])C([H])([H])N(C(=O)C([H])(N([H])C(=O)C([H])(N([H])C([H])([H])[H])C([H])([H])[H])C(C([H])([H])[H])(C([H])([H])[H])C([H])([H])[H])C([H])(C(=O)N([H])C1([H])c3c([H])c([H])c([H])c([H])c3C([H])([H])C([H])([H])C1([H])[H])C2([H])[H])=C1N(c2c([H])c([H])c(C(=O)N([H])C(=O)N3C([H])([H])C([H])([H])C([H])([H])C([H])(n4nc(-c5c([H])c([H])c(Oc6c([H])c([H])c(F)c([H])c6F)c([H])c5[H])c(C(=O)N([H])[H])c4N([H])[H])C3([H])[H])c([H])c2[H])C(=O)C([H])([H])C1([H])[H]

$$$$
41:0:0
     RDKit          3D

 85 92  0  0  1  0  0  0  0  0999 V2000
  -28.7180  -22.9740   20.4500 C   0  0  0  0  0  3  0  0  0  0  0  0
  -28.1140  -24.2550   19.9660 C   0  0  0  0  0  3  0  0  0  0  0  0
  -28.7910  -21.3270   19.9190 C   0  0  0  0  0  0  0  0  0  0  0  0
  -28.4920  -21.1820   18.7310 O   0  0  0  0  0  0  0  0  0  0  0  0
  -29.1760  -19.7500   20.6750 C   0  0  0  0  0  2  0  0  0  0  0  0
  -29.7830  -18.1100   20.1180 C   0  0  0  0  0  0  0  0  0  0  0  0
  -30.7380  -18.3280   18.9630 C   0  0  0  0  0  1  0  0  0  0  0  0
  -29.6200  -16.7480   20.5490 N   0  0  0  0  0  0  0  0  0  0  0  0
  -30.3850  -15.4050   20.2280 C   0  0  0  0  0  0  0  0  0  0  0  0
  -30.3760  -12.9220   19.3860 C   0  0  0  0  0  2  0  0  0  0  0  0
  -29.4740  -12.7020   18.1430 C   0  0  0  0  0  2  0  0  0  0  0  0
  -28.0250  -12.4160   18.5670 C   0  0  0  0  0  2  0  0  0  0  0  0
  -27.5600  -13.3800   19.6860 C   0  0  0  0  0  3  0  0  0  0  0  0
  -28.5950  -13.5580   20.8160 C   0  0  0  0  0  2  0  0  0  0  0  0
  -29.8340  -14.0770   20.2090 N   0  0  0  0  0  0  0  0  0  0  0  0
  -31.5750  -15.3660   19.8910 O   0  0  0  0  0  0  0  0  0  0  0  0
  -25.1870  -13.9260   20.4280 C   0  0  0  0  0  0  0  0  0  0  0  0
  -24.1260  -13.1480   20.7970 C   0  0  0  0  0  0  0  0  0  0  0  0
  -24.5990  -11.7990   20.7780 C   0  0  0  0  0  0  0  0  0  0  0  0
  -26.2340  -13.0540   20.1920 N   0  0  0  0  0  0  0  0  0  0  0  0
  -25.8930  -11.7680   20.4720 N   0  0  0  0  0  0  0  0  0  0  0  0
  -23.8730  -10.5350   20.9750 C   0  0  0  0  0  0  0  0  0  0  0  0
  -24.3040   -9.5710   21.9140 C   0  0  0  0  0  3  0  0  0  0  0  0
  -23.5740   -8.3770   22.1000 C   0  0  0  0  0  3  0  0  0  0  0  0
  -22.4000   -8.1370   21.3470 C   0  0  0  0  0  0  0  0  0  0  0  0
  -21.9890   -9.0890   20.3980 C   0  0  0  0  0  3  0  0  0  0  0  0
  -22.7180  -10.2750   20.2110 C   0  0  0  0  0  3  0  0  0  0  0  0
  -21.6430   -6.9940   21.4420 O   0  0  0  0  0  0  0  0  0  0  0  0
  -21.5980   -6.2530   22.5960 C   0  0  0  0  0  0  0  0  0  0  0  0
  -21.1840   -6.8120   23.8240 C   0  0  0  0  0  3  0  0  0  0  0  0
  -21.0860   -5.9990   24.9720 C   0  0  0  0  0  3  0  0  0  0  0  0
  -21.3920   -4.6280   24.8900 C   0  0  0  0  0  0  0  0  0  0  0  0
  -21.7990   -4.0670   23.6660 C   0  0  0  0  0  3  0  0  0  0  0  0
  -21.8980   -4.8780   22.5220 C   0  0  0  0  0  0  0  0  0  0  0  0
  -22.2700   -4.3300   21.3400 F   0  0  0  0  0  0  0  0  0  0  0  0
  -21.2910   -3.8440   25.9880 F   0  0  0  0  0  0  0  0  0  0  0  0
  -22.7270  -13.6220   21.0530 C   0  0  0  0  0  0  0  0  0  0  0  0
  -21.9950  -12.9350   21.9210 N   0  0  0  0  0  0  0  0  0  0  0  0
  -22.2910  -14.6430   20.5180 O   0  0  0  0  0  0  0  0  0  0  0  0
  -22.3600  -12.1110   22.3760 H   0  0  0  0  0  0  0  0  0  0  0  0
  -21.0550  -13.2360   22.1350 H   0  0  0  0  0  0  0  0  0  0  0  0
  -25.3480  -15.2960   20.2460 N   0  0  0  0  0  0  0  0  0  0  0  0
  -24.5890  -15.9580   20.3700 H   0  0  0  0  0  0  0  0  0  0  0  0
  -26.2180  -15.7360   19.9710 H   0  0  0  0  0  0  0  0  0  0  0  0
  -28.1820  -25.7710   20.3340 O   0  0  0  0  0  0  0  0  0  0  0  0
  -24.6380  -31.8550   23.1930 C   0  0  0  0  0  0  0  0  0  0  0  0
  -27.1850  -26.9000   20.2120 C   0  0  0  0  0  0  0  0  0  0  0  0
  -23.4460  -30.4500   21.5610 C   0  0  0  0  0  3  0  0  0  0  0  0
  -24.8960  -28.8250   20.1470 C   0  0  0  0  0  0  0  0  0  0  0  0
  -26.0150  -30.6370   21.4250 C   0  0  0  0  0  2  0  0  0  0  0  0
  -26.0810  -29.2180   20.7770 C   0  0  0  0  0  0  0  0  0  0  0  0
  -27.2140  -28.2740   20.7890 C   0  0  0  0  0  3  0  0  0  0  0  0
  -25.9710  -26.6790   19.5210 C   0  0  0  0  0  3  0  0  0  0  0  0
  -24.8690  -27.5790   19.4970 C   0  0  0  0  0  3  0  0  0  0  0  0
  -23.6790  -29.7550   20.1890 C   0  0  0  0  0  2  0  0  0  0  0  0
  -24.7220  -31.0110   22.1120 N   0  0  0  0  0  0  0  0  0  0  0  0
  -23.5470  -32.1520   23.7080 O   0  0  0  0  0  0  0  0  0  0  0  0
  -22.7430  -29.4670   22.5330 C   0  0  0  0  0  0  0  0  0  0  0  0
  -21.4130  -29.3080   22.4090 N   0  0  0  0  0  0  0  0  0  0  0  0
  -23.4040  -28.8460   23.3690 O   0  0  0  0  0  0  0  0  0  0  0  0
  -20.9300  -29.8600   21.7130 H   0  0  0  0  0  0  0  0  0  0  0  0
  -18.0280  -28.0980   22.9150 C   0  0  0  0  0  0  0  0  0  0  0  0
  -20.5860  -28.3760   23.1860 C   0  0  0  0  0  3  0  0  0  0  0  0
  -20.6940  -26.9380   22.6260 C   0  0  0  0  0  2  0  0  0  0  0  0
  -19.5960  -26.6020   21.6100 C   0  0  0  0  0  2  0  0  0  0  0  0
  -18.2120  -26.7450   22.2480 C   0  0  0  0  0  2  0  0  0  0  0  0
  -19.1410  -28.8700   23.3410 C   0  0  0  0  0  0  0  0  0  0  0  0
  -18.9120  -30.1330   23.9300 C   0  0  0  0  0  3  0  0  0  0  0  0
  -17.6030  -30.6250   24.0940 C   0  0  0  0  0  3  0  0  0  0  0  0
  -16.5040  -29.8510   23.6810 C   0  0  0  0  0  3  0  0  0  0  0  0
  -16.7180  -28.5890   23.0980 C   0  0  0  0  0  3  0  0  0  0  0  0
  -25.9060  -32.5020   23.8260 C   0  0  0  0  0  3  0  0  0  0  0  0
  -26.4120  -31.7410   25.1150 C   0  0  1  0  0  0  0  0  0  0  0  0
  -25.3110  -31.5180   26.1790 C   0  0  0  0  0  1  0  0  0  0  0  0
  -26.9930  -30.3570   24.7500 C   0  0  0  0  0  1  0  0  0  0  0  0
  -27.5600  -32.5380   25.7780 C   0  0  0  0  0  1  0  0  0  0  0  0
  -25.5860  -33.9020   24.1610 N   0  0  0  0  0  0  0  0  0  0  0  0
  -25.9160  -34.9660   23.4170 C   0  0  0  0  0  0  0  0  0  0  0  0
  -26.5820  -34.8740   22.3840 O   0  0  0  0  0  0  0  0  0  0  0  0
  -24.9910  -34.0460   24.9640 H   0  0  0  0  0  0  0  0  0  0  0  0
  -24.1820  -36.7670   23.0990 C   0  0  0  0  0  1  0  0  0  0  0  0
  -25.4330  -36.3520   23.8920 C   0  0  0  0  0  3  0  0  0  0  0  0
  -27.5740  -37.2380   24.7070 C   0  0  0  0  0  1  0  0  0  0  0  0
  -26.4630  -37.4090   23.7760 N   0  0  0  0  0  0  0  0  0  0  0  0
  -26.0560  -38.3270   23.9330 H   0  0  0  0  0  0  0  0  0  0  0  0
  2 45  1  0
  2  1  2  0
  3  1  1  0
  3  5  1  0
  4  3  2  0
  6  8  2  0
  6  5  1  0
  7  6  1  0
  9  8  1  0
 10 15  1  0
 11 12  1  0
 11 10  1  0
 13 12  1  0
 13 20  1  0
 13 14  1  0
 15  9  1  0
 15 14  1  0
 16  9  2  0
 17 18  2  0
 18 37  1  0
 19 18  1  0
 19 22  1  0
 20 17  1  0
 20 21  1  0
 21 19  2  0
 22 23  1  0
 23 24  2  0
 25 28  1  0
 25 24  1  0
 26 25  2  0
 27 26  1  0
 27 22  2  0
 28 29  1  0
 29 30  1  0
 30 31  2  0
 32 31  1  0
 32 36  1  0
 33 32  2  0
 34 29  2  0
 34 33  1  0
 35 34  1  0
 37 38  1  0
 38 41  1  0
 38 40  1  0
 39 37  2  0
 42 43  1  0
 42 17  1  0
 44 42  1  0
 46 57  2  0
 47 45  1  0
 47 52  1  0
 48 56  1  0
 48 58  1  0
 49 55  1  0
 49 51  1  0
 50 56  1  0
 51 52  2  0
 51 50  1  0
 53 47  2  0
 54 53  1  0
 54 49  2  0
 55 48  1  0
 56 46  1  0
 58 60  2  0
 59 58  1  0
 61 59  1  0
 62 71  2  0
 62 67  1  0
 63 59  1  0
 63 67  1  0
 64 63  1  0
 65 66  1  0
 65 64  1  0
 66 62  1  0
 67 68  2  0
 68 69  1  0
 70 69  2  0
 71 70  1  0
 72 46  1  0
 72 77  1  0
 72 73  1  0
 73 76  1  1
 73 74  1  0
 75 73  1  0
 77 80  1  0
 78 82  1  0
 78 77  1  0
 79 78  2  0
 82 81  1  0
 84 82  1  0
 84 85  1  0
 84 83  1  0
M  ISO  4   2 101   8 100   9 100  45 101
M  END
>  <TORSDO>  (42) 
F 19

>  <SCORE>  (42) 
-15.212

>  <name>  (42) 
41

>  <ligand_id>  (42) 
41

>  <original_smiles>  (42) 
[H]C(Oc1c([H])c([H])c2c(c1[H])C([H])([H])N(C(=O)C([H])(N([H])C(=O)C([H])(N([H])C([H])([H])[H])C([H])([H])[H])C(C([H])([H])[H])(C([H])([H])[H])C([H])([H])[H])C([H])(C(=O)N([H])C1([H])c3c([H])c([H])c([H])c([H])c3C([H])([H])C([H])([H])C1([H])[H])C2([H])[H])=C([H])C(=O)C([H])([H])C(=NC(=O)N1C([H])([H])C([H])([H])C([H])([H])C([H])(n2nc(-c3c([H])c([H])c(Oc4c([H])c([H])c(F)c([H])c4F)c([H])c3[H])c(C(=O)N([H])[H])c2N([H])[H])C1([H])[H])C([H])([H])[H]

>  <smiles>  (42) 
[H]C(Oc1c([H])c([H])c2c(c1[H])C([H])([H])N(C(=O)C([H])(N([H])C(=O)C([H])(N([H])C([H])([H])[H])C([H])([H])[H])C(C([H])([H])[H])(C([H])([H])[H])C([H])([H])[H])C([H])(C(=O)N([H])C1([H])c3c([H])c([H])c([H])c([H])c3C([H])([H])C([H])([H])C1([H])[H])C2([H])[H])=C([H])C(=O)C([H])([H])C(=NC(=O)N1C([H])([H])C([H])([H])C([H])([H])C([H])(n2nc(-c3c([H])c([H])c(Oc4c([H])c([H])c(F)c([H])c4F)c([H])c3[H])c(C(=O)N([H])[H])c2N([H])[H])C1([H])[H])C([H])([H])[H]

$$$$
42:0:0
     RDKit          3D

 87 95  0  0  1  0  0  0  0  0999 V2000
  -28.3930  -21.5310   22.0990 C   0  0  0  0  0  3  0  0  0  0  0  0
  -28.8140  -20.3100   21.4880 C   0  0  0  0  0  3  0  0  0  0  0  0
  -28.3160  -22.8050   21.4620 C   0  0  0  0  0  3  0  0  0  0  0  0
  -29.1070  -21.6270   19.5110 C   0  0  0  0  0  3  0  0  0  0  0  0
  -29.2580  -20.1980   20.1490 C   0  0  0  0  0  0  0  0  0  0  0  0
  -28.6320  -23.0070   20.1020 C   0  0  0  0  0  0  0  0  0  0  0  0
  -29.8370  -18.6060   19.7030 C   0  0  0  0  0  3  0  0  0  0  0  0
  -29.7550  -17.1600   20.1100 C   0  0  0  0  0  3  0  0  0  0  0  0
  -30.5160  -15.7240   19.7420 C   0  0  0  0  0  0  0  0  0  0  0  0
  -30.5110  -13.2170   18.9510 C   0  0  0  0  0  2  0  0  0  0  0  0
  -29.5340  -12.9440   17.7740 C   0  0  0  0  0  2  0  0  0  0  0  0
  -28.1240  -12.6300   18.2990 C   0  0  0  0  0  2  0  0  0  0  0  0
  -27.7130  -13.6020   19.4310 C   0  0  0  0  0  3  0  0  0  0  0  0
  -28.8170  -13.8290   20.4880 C   0  0  0  0  0  2  0  0  0  0  0  0
  -29.9950  -14.3780   19.7900 N   0  0  0  0  0  0  0  0  0  0  0  0
  -31.6930  -15.6880   19.3470 O   0  0  0  0  0  0  0  0  0  0  0  0
  -25.4210  -14.1260   20.3990 C   0  0  0  0  0  0  0  0  0  0  0  0
  -24.3850  -13.3380   20.8140 C   0  0  0  0  0  0  0  0  0  0  0  0
  -24.8350  -11.9870   20.6840 C   0  0  0  0  0  0  0  0  0  0  0  0
  -26.4310  -13.2580   20.0300 N   0  0  0  0  0  0  0  0  0  0  0  0
  -26.0990  -11.9620   20.2690 N   0  0  0  0  0  0  0  0  0  0  0  0
  -24.1130  -10.7220   20.8730 C   0  0  0  0  0  0  0  0  0  0  0  0
  -24.5610   -9.7410   21.7860 C   0  0  0  0  0  3  0  0  0  0  0  0
  -23.8340   -8.5450   21.9660 C   0  0  0  0  0  3  0  0  0  0  0  0
  -22.6450   -8.3190   21.2330 C   0  0  0  0  0  0  0  0  0  0  0  0
  -22.2150   -9.2880   20.3090 C   0  0  0  0  0  3  0  0  0  0  0  0
  -22.9420  -10.4760   20.1270 C   0  0  0  0  0  3  0  0  0  0  0  0
  -21.8870   -7.1760   21.3240 O   0  0  0  0  0  0  0  0  0  0  0  0
  -21.8020   -6.4590   22.4910 C   0  0  0  0  0  0  0  0  0  0  0  0
  -21.3100   -7.0320   23.6840 C   0  0  0  0  0  3  0  0  0  0  0  0
  -21.1740   -6.2410   24.8420 C   0  0  0  0  0  3  0  0  0  0  0  0
  -21.5200   -4.8760   24.8070 C   0  0  0  0  0  0  0  0  0  0  0  0
  -22.0040   -4.3020   23.6180 C   0  0  0  0  0  3  0  0  0  0  0  0
  -22.1410   -5.0910   22.4630 C   0  0  0  0  0  0  0  0  0  0  0  0
  -22.5880   -4.5280   21.3150 F   0  0  0  0  0  0  0  0  0  0  0  0
  -21.3820   -4.1140   25.9160 F   0  0  0  0  0  0  0  0  0  0  0  0
  -23.0170  -13.8110   21.2110 C   0  0  0  0  0  0  0  0  0  0  0  0
  -22.3560  -13.0930   22.1100 N   0  0  0  0  0  0  0  0  0  0  0  0
  -22.5470  -14.8540   20.7560 O   0  0  0  0  0  0  0  0  0  0  0  0
  -22.7520  -12.2490   22.5000 H   0  0  0  0  0  0  0  0  0  0  0  0
  -21.4400  -13.3900   22.4160 H   0  0  0  0  0  0  0  0  0  0  0  0
  -25.5820  -15.5030   20.2760 N   0  0  0  0  0  0  0  0  0  0  0  0
  -24.8350  -16.1550   20.4850 H   0  0  0  0  0  0  0  0  0  0  0  0
  -26.4120  -15.9540   19.9100 H   0  0  0  0  0  0  0  0  0  0  0  0
  -28.3170  -24.4280   19.4930 N   0  0  0  0  0  0  0  0  0  0  0  0
  -28.6030  -24.4830   18.5160 H   0  0  0  0  0  0  0  0  0  0  0  0
  -28.3590  -26.0370   20.0890 O   0  0  0  0  0  0  0  0  0  0  0  0
  -24.7000  -31.9480   23.1750 C   0  0  0  0  0  0  0  0  0  0  0  0
  -27.3090  -27.1270   20.0130 C   0  0  0  0  0  0  0  0  0  0  0  0
  -23.5120  -30.5620   21.5230 C   0  0  0  0  0  3  0  0  0  0  0  0
  -24.9730  -29.0060   20.0390 C   0  0  0  0  0  0  0  0  0  0  0  0
  -26.0750  -30.8090   21.3520 C   0  0  0  0  0  2  0  0  0  0  0  0
  -26.1610  -29.4080   20.6610 C   0  0  0  0  0  0  0  0  0  0  0  0
  -27.3120  -28.4870   20.6260 C   0  0  0  0  0  3  0  0  0  0  0  0
  -26.0910  -26.8970   19.3340 C   0  0  0  0  0  3  0  0  0  0  0  0
  -24.9680  -27.7760   19.3540 C   0  0  0  0  0  3  0  0  0  0  0  0
  -23.7380  -29.9080   20.1280 C   0  0  0  0  0  2  0  0  0  0  0  0
  -24.7840  -31.1370   22.0690 N   0  0  0  0  0  0  0  0  0  0  0  0
  -23.6110  -32.2060   23.7160 O   0  0  0  0  0  0  0  0  0  0  0  0
  -22.8480  -29.5380   22.4800 C   0  0  0  0  0  0  0  0  0  0  0  0
  -21.5230  -29.3320   22.3550 N   0  0  0  0  0  0  0  0  0  0  0  0
  -23.5320  -28.9270   23.3040 O   0  0  0  0  0  0  0  0  0  0  0  0
  -21.0200  -29.8780   21.6700 H   0  0  0  0  0  0  0  0  0  0  0  0
  -18.1880  -27.9810   22.8400 C   0  0  0  0  0  0  0  0  0  0  0  0
  -20.7340  -28.3560   23.1160 C   0  0  0  0  0  3  0  0  0  0  0  0
  -20.8990  -26.9330   22.5330 C   0  0  0  0  0  2  0  0  0  0  0  0
  -19.8160  -26.5720   21.5100 C   0  0  0  0  0  2  0  0  0  0  0  0
  -18.4270  -26.6490   22.1500 C   0  0  0  0  0  2  0  0  0  0  0  0
  -19.2720  -28.7900   23.2800 C   0  0  0  0  0  0  0  0  0  0  0  0
  -18.9920  -30.0320   23.8900 C   0  0  0  0  0  3  0  0  0  0  0  0
  -17.6650  -30.4680   24.0620 C   0  0  0  0  0  3  0  0  0  0  0  0
  -16.5980  -29.6580   23.6370 C   0  0  0  0  0  3  0  0  0  0  0  0
  -16.8610  -28.4160   23.0310 C   0  0  0  0  0  3  0  0  0  0  0  0
  -25.9630  -32.6080   23.8070 C   0  0  0  0  0  3  0  0  0  0  0  0
  -25.6300  -34.0050   24.1440 N   0  0  0  0  0  0  0  0  0  0  0  0
  -25.9400  -35.0730   23.3970 C   0  0  0  0  0  0  0  0  0  0  0  0
  -26.5970  -34.9860   22.3570 O   0  0  0  0  0  0  0  0  0  0  0  0
  -25.0430  -34.1430   24.9540 H   0  0  0  0  0  0  0  0  0  0  0  0
  -24.1840  -36.8530   23.0980 C   0  0  0  0  0  1  0  0  0  0  0  0
  -25.4470  -36.4550   23.8770 C   0  0  0  0  0  3  0  0  0  0  0  0
  -27.5840  -37.3710   24.6720 C   0  0  0  0  0  1  0  0  0  0  0  0
  -26.4640  -37.5220   23.7470 N   0  0  0  0  0  0  0  0  0  0  0  0
  -26.0480  -38.4370   23.9000 H   0  0  0  0  0  0  0  0  0  0  0  0
  -26.4780  -31.8510   25.0950 C   0  0  1  0  0  0  0  0  0  0  0  0
  -25.3780  -31.6020   26.1530 C   0  0  0  0  0  1  0  0  0  0  0  0
  -27.0880  -30.4800   24.7250 C   0  0  0  0  0  1  0  0  0  0  0  0
  -27.6090  -32.6670   25.7650 C   0  0  0  0  0  1  0  0  0  0  0  0
  2  1  1  0
  3  1  2  0
  4  6  2  0
  4  5  1  0
  5  2  2  0
  6  3  1  0
  7  8  2  0
  7  5  1  0
  9 15  1  0
  9  8  1  0
 10 15  1  0
 11 12  1  0
 11 10  1  0
 13 12  1  0
 13 20  1  0
 13 14  1  0
 15 14  1  0
 16  9  2  0
 17 18  2  0
 18 37  1  0
 19 18  1  0
 19 22  1  0
 20 21  1  0
 20 17  1  0
 21 19  2  0
 22 23  1  0
 23 24  2  0
 25 28  1  0
 25 24  1  0
 26 25  2  0
 27 26  1  0
 27 22  2  0
 28 29  1  0
 29 30  1  0
 30 31  2  0
 32 31  1  0
 32 36  1  0
 33 32  2  0
 34 29  2  0
 34 33  1  0
 35 34  1  0
 37 38  1  0
 38 41  1  0
 38 40  1  0
 39 37  2  0
 42 17  1  0
 42 43  1  0
 44 42  1  0
 45 47  1  0
 45  6  1  0
 46 45  1  0
 48 59  2  0
 49 47  1  0
 49 54  1  0
 50 58  1  0
 50 60  1  0
 51 57  1  0
 51 53  1  0
 52 58  1  0
 53 52  1  0
 54 53  2  0
 55 56  1  0
 55 49  2  0
 56 51  2  0
 57 50  1  0
 58 48  1  0
 60 62  2  0
 61 60  1  0
 63 61  1  0
 64 73  2  0
 64 69  1  0
 65 61  1  0
 65 69  1  0
 66 65  1  0
 67 68  1  0
 67 66  1  0
 68 64  1  0
 69 70  2  0
 70 71  1  0
 72 71  2  0
 73 72  1  0
 74 48  1  0
 74 75  1  0
 74 84  1  0
 75 78  1  0
 76 80  1  0
 76 75  1  0
 77 76  2  0
 80 79  1  0
 82 80  1  0
 82 83  1  0
 82 81  1  0
 84 87  1  1
 84 85  1  0
 86 84  1  0
M  ISO  4   8 100   9 100  45 101  47 101
M  END
>  <TORSDO>  (43) 
F 18

>  <SCORE>  (43) 
-14.699

>  <name>  (43) 
42

>  <ligand_id>  (43) 
42

>  <original_smiles>  (43) 
[H]C(C(=O)N1C([H])([H])C([H])([H])C([H])([H])C([H])(n2nc(-c3c([H])c([H])c(Oc4c([H])c([H])c(F)c([H])c4F)c([H])c3[H])c(C(=O)N([H])[H])c2N([H])[H])C1([H])[H])=C([H])c1c([H])c([H])c([H])c(N([H])Oc2c([H])c([H])c3c(c2[H])C([H])([H])N(C(=O)C([H])(N([H])C(=O)C([H])(N([H])C([H])([H])[H])C([H])([H])[H])C(C([H])([H])[H])(C([H])([H])[H])C([H])([H])[H])C([H])(C(=O)N([H])C2([H])c4c([H])c([H])c([H])c([H])c4C([H])([H])C([H])([H])C2([H])[H])C3([H])[H])c1[H]

>  <smiles>  (43) 
[H]C(C(=O)N1C([H])([H])C([H])([H])C([H])([H])C([H])(n2nc(-c3c([H])c([H])c(Oc4c([H])c([H])c(F)c([H])c4F)c([H])c3[H])c(C(=O)N([H])[H])c2N([H])[H])C1([H])[H])=C([H])c1c([H])c([H])c([H])c(N([H])Oc2c([H])c([H])c3c(c2[H])C([H])([H])N(C(=O)C([H])(N([H])C(=O)C([H])(N([H])C([H])([H])[H])C([H])([H])[H])C(C([H])([H])[H])(C([H])([H])[H])C([H])([H])[H])C([H])(C(=O)N([H])C2([H])c4c([H])c([H])c([H])c([H])c4C([H])([H])C([H])([H])C2([H])[H])C3([H])[H])c1[H]

$$$$
43:0:0
     RDKit          3D

 94102  0  0  1  0  0  0  0  0999 V2000
  -28.8310  -22.6070   20.4270 C   0  0  0  0  0  0  0  0  0  0  0  0
  -29.1700  -22.4680   21.6110 O   0  0  0  0  0  0  0  0  0  0  0  0
  -28.2100  -23.9940   19.9400 C   0  0  0  0  0  0  0  0  0  0  0  0
  -28.3850  -25.1350   20.5900 N   0  0  0  0  0  0  0  0  0  0  0  0
  -27.3550  -23.7890   18.6930 C   0  0  0  0  0  0  0  0  0  0  0  0
  -26.0250  -23.0310   18.8840 C   0  0  0  0  0  1  0  0  0  0  0  0
  -27.6480  -24.2310   17.5760 O   0  0  0  0  0  0  0  0  0  0  0  0
  -28.3020  -26.4440   19.9130 O   0  0  0  0  0  0  0  0  0  0  0  0
  -24.6500  -31.8810   23.2330 C   0  0  0  0  0  0  0  0  0  0  0  0
  -27.1900  -27.2740   20.1260 C   0  0  0  0  0  0  0  0  0  0  0  0
  -23.4310  -30.4890   21.6050 C   0  0  0  0  0  3  0  0  0  0  0  0
  -24.8540  -28.9260   20.1730 C   0  0  0  0  0  0  0  0  0  0  0  0
  -25.9770  -30.7760   21.4090 C   0  0  0  0  0  2  0  0  0  0  0  0
  -26.0380  -29.3920   20.7620 C   0  0  0  0  0  0  0  0  0  0  0  0
  -27.2170  -28.5740   20.7310 C   0  0  0  0  0  3  0  0  0  0  0  0
  -25.9790  -26.8710   19.5370 C   0  0  0  0  0  3  0  0  0  0  0  0
  -24.8280  -27.6690   19.5580 C   0  0  0  0  0  3  0  0  0  0  0  0
  -23.6350  -29.8240   20.2200 C   0  0  0  0  0  2  0  0  0  0  0  0
  -24.7040  -31.0690   22.1380 N   0  0  0  0  0  0  0  0  0  0  0  0
  -23.5690  -32.1650   23.7750 O   0  0  0  0  0  0  0  0  0  0  0  0
  -22.7790  -29.4670   22.5670 C   0  0  0  0  0  0  0  0  0  0  0  0
  -21.4530  -29.2890   22.4550 N   0  0  0  0  0  0  0  0  0  0  0  0
  -23.4630  -28.8380   23.3770 O   0  0  0  0  0  0  0  0  0  0  0  0
  -20.9550  -29.8520   21.7820 H   0  0  0  0  0  0  0  0  0  0  0  0
  -18.0860  -28.0660   22.9510 C   0  0  0  0  0  0  0  0  0  0  0  0
  -20.6380  -28.3450   23.2210 C   0  0  0  0  0  3  0  0  0  0  0  0
  -20.7560  -26.9150   22.6420 C   0  0  0  0  0  2  0  0  0  0  0  0
  -19.6540  -26.5900   21.6260 C   0  0  0  0  0  2  0  0  0  0  0  0
  -18.2700  -26.7180   22.2720 C   0  0  0  0  0  2  0  0  0  0  0  0
  -19.1930  -28.8400   23.3810 C   0  0  0  0  0  0  0  0  0  0  0  0
  -18.9620  -30.1040   23.9680 C   0  0  0  0  0  3  0  0  0  0  0  0
  -17.6520  -30.5940   24.1300 C   0  0  0  0  0  3  0  0  0  0  0  0
  -16.5560  -29.8130   23.7200 C   0  0  0  0  0  3  0  0  0  0  0  0
  -16.7750  -28.5510   23.1400 C   0  0  0  0  0  3  0  0  0  0  0  0
  -25.9330  -32.5110   23.8440 C   0  0  0  0  0  3  0  0  0  0  0  0
  -26.4600  -31.7400   25.1180 C   0  0  1  0  0  0  0  0  0  0  0  0
  -25.3740  -31.5040   26.1970 C   0  0  0  0  0  1  0  0  0  0  0  0
  -27.0380  -30.3620   24.7240 C   0  0  0  0  0  1  0  0  0  0  0  0
  -27.6180  -32.5330   25.7720 C   0  0  0  0  0  1  0  0  0  0  0  0
  -25.6200  -33.9040   24.1790 N   0  0  0  0  0  0  0  0  0  0  0  0
  -25.9450  -34.9640   23.4260 C   0  0  0  0  0  0  0  0  0  0  0  0
  -26.6070  -34.8670   22.3890 O   0  0  0  0  0  0  0  0  0  0  0  0
  -25.0260  -34.0530   24.9830 H   0  0  0  0  0  0  0  0  0  0  0  0
  -24.2120  -36.7600   23.0950 C   0  0  0  0  0  1  0  0  0  0  0  0
  -25.4580  -36.3490   23.8970 C   0  0  0  0  0  3  0  0  0  0  0  0
  -27.5960  -37.2330   24.7140 C   0  0  0  0  0  1  0  0  0  0  0  0
  -26.4860  -37.4050   23.7790 N   0  0  0  0  0  0  0  0  0  0  0  0
  -26.0810  -38.3240   23.9330 H   0  0  0  0  0  0  0  0  0  0  0  0
  -30.3220  -21.7720   18.5000 C   0  0  0  0  0  1  0  0  0  0  0  0
  -29.1410  -21.3900   19.4370 C   0  0  0  0  0  3  0  0  0  0  0  0
  -28.2470  -19.0550   20.2780 C   0  0  0  0  0  3  0  0  0  0  0  0
  -30.6300  -19.3020   20.1290 C   0  0  0  0  0  3  0  0  0  0  0  0
  -28.4260  -17.6790   20.6220 C   0  0  0  0  0  3  0  0  0  0  0  0
  -30.8110  -17.9250   20.4500 C   0  0  0  0  0  3  0  0  0  0  0  0
  -29.3460  -19.9170   20.0050 C   0  0  0  0  0  0  0  0  0  0  0  0
  -29.7070  -17.0570   20.6590 C   0  0  0  0  0  0  0  0  0  0  0  0
  -30.5750  -14.6360   20.3440 C   0  0  0  0  0  0  0  0  0  0  0  0
  -30.3750  -12.4240   19.2070 C   0  0  0  0  0  2  0  0  0  0  0  0
  -29.4220  -12.5730   17.9980 C   0  0  0  0  0  2  0  0  0  0  0  0
  -27.9500  -12.4160   18.4320 C   0  0  0  0  0  2  0  0  0  0  0  0
  -27.6060  -13.2600   19.6880 C   0  0  0  0  0  3  0  0  0  0  0  0
  -28.6650  -13.0440   20.7930 C   0  0  0  0  0  2  0  0  0  0  0  0
  -29.9770  -13.4100   20.2340 N   0  0  0  0  0  0  0  0  0  0  0  0
  -31.7010  -14.8450   19.8730 O   0  0  0  0  0  0  0  0  0  0  0  0
  -29.8080  -15.6200   20.9200 N   0  0  0  0  0  0  0  0  0  0  0  0
  -28.9980  -15.2280   21.3760 H   0  0  0  0  0  0  0  0  0  0  0  0
  -25.2140  -13.8770   20.4060 C   0  0  0  0  0  0  0  0  0  0  0  0
  -24.1500  -13.1130   20.7910 C   0  0  0  0  0  0  0  0  0  0  0  0
  -24.6080  -11.7600   20.7700 C   0  0  0  0  0  0  0  0  0  0  0  0
  -26.2570  -12.9930   20.1740 N   0  0  0  0  0  0  0  0  0  0  0  0
  -25.8970  -11.7150   20.4540 N   0  0  0  0  0  0  0  0  0  0  0  0
  -23.8800  -10.5020   20.9770 C   0  0  0  0  0  0  0  0  0  0  0  0
  -24.3230   -9.5410   21.9130 C   0  0  0  0  0  3  0  0  0  0  0  0
  -23.6010   -8.3430   22.1110 C   0  0  0  0  0  3  0  0  0  0  0  0
  -22.4200   -8.0980   21.3680 C   0  0  0  0  0  0  0  0  0  0  0  0
  -21.9960   -9.0460   20.4200 C   0  0  0  0  0  3  0  0  0  0  0  0
  -22.7190  -10.2350   20.2230 C   0  0  0  0  0  3  0  0  0  0  0  0
  -21.6690   -6.9530   21.4680 O   0  0  0  0  0  0  0  0  0  0  0  0
  -21.6340   -6.2140   22.6240 C   0  0  0  0  0  0  0  0  0  0  0  0
  -21.2270   -6.7800   23.8510 C   0  0  0  0  0  3  0  0  0  0  0  0
  -21.1380   -5.9710   25.0030 C   0  0  0  0  0  3  0  0  0  0  0  0
  -21.4470   -4.5990   24.9260 C   0  0  0  0  0  0  0  0  0  0  0  0
  -21.8460   -4.0340   23.7010 C   0  0  0  0  0  3  0  0  0  0  0  0
  -21.9360   -4.8390   22.5520 C   0  0  0  0  0  0  0  0  0  0  0  0
  -22.3010   -4.2900   21.3690 F   0  0  0  0  0  0  0  0  0  0  0  0
  -21.3530   -3.8180   26.0260 F   0  0  0  0  0  0  0  0  0  0  0  0
  -22.7570  -13.5960   21.0700 C   0  0  0  0  0  0  0  0  0  0  0  0
  -22.0360  -12.9100   21.9500 N   0  0  0  0  0  0  0  0  0  0  0  0
  -22.3140  -14.6140   20.5430 O   0  0  0  0  0  0  0  0  0  0  0  0
  -22.4110  -12.0880   22.4000 H   0  0  0  0  0  0  0  0  0  0  0  0
  -21.1000  -13.2190   22.1820 H   0  0  0  0  0  0  0  0  0  0  0  0
  -25.3880  -15.2460   20.2270 N   0  0  0  0  0  0  0  0  0  0  0  0
  -24.6310  -15.9110   20.3530 H   0  0  0  0  0  0  0  0  0  0  0  0
  -26.2290  -15.6680   19.8620 H   0  0  0  0  0  0  0  0  0  0  0  0
  1  2  2  0
  3  1  1  0
  3  4  2  0
  5  6  1  0
  5  3  1  0
  7  5  2  0
  8 10  1  0
  8  4  1  0
  9 20  2  0
 10 15  1  0
 11 19  1  0
 11 21  1  0
 12 18  1  0
 12 14  1  0
 13 19  1  0
 14 13  1  0
 15 14  2  0
 16 17  1  0
 16 10  2  0
 17 12  2  0
 18 11  1  0
 19  9  1  0
 21 23  2  0
 22 21  1  0
 24 22  1  0
 25 34  2  0
 25 30  1  0
 26 22  1  0
 26 30  1  0
 27 26  1  0
 28 29  1  0
 28 27  1  0
 29 25  1  0
 30 31  2  0
 31 32  1  0
 33 32  2  0
 34 33  1  0
 35  9  1  0
 35 40  1  0
 35 36  1  0
 36 39  1  1
 36 37  1  0
 38 36  1  0
 40 43  1  0
 41 45  1  0
 41 40  1  0
 42 41  2  0
 45 44  1  0
 47 45  1  0
 47 48  1  0
 47 46  1  0
 50 49  1  0
 50 55  1  0
 50  1  1  0
 51 53  1  0
 52 54  2  0
 53 56  2  0
 54 56  1  0
 55 52  1  0
 55 51  2  0
 56 65  1  0
 57 65  1  0
 58 63  1  0
 59 60  1  0
 59 58  1  0
 61 60  1  0
 61 70  1  0
 61 62  1  0
 63 57  1  0
 63 62  1  0
 64 57  2  0
 65 66  1  0
 67 68  2  0
 68 87  1  0
 69 68  1  0
 69 72  1  0
 70 67  1  0
 70 71  1  0
 71 69  2  0
 72 73  1  0
 73 74  2  0
 75 78  1  0
 75 74  1  0
 76 75  2  0
 77 76  1  0
 77 72  2  0
 78 79  1  0
 79 80  1  0
 80 81  2  0
 82 81  1  0
 82 86  1  0
 83 82  2  0
 84 79  2  0
 84 83  1  0
 85 84  1  0
 87 88  1  0
 88 91  1  0
 88 90  1  0
 89 87  2  0
 92 93  1  0
 92 67  1  0
 94 92  1  0
M  ISO  4   4 101   8 101  57 100  65 100
M  END
>  <TORSDO>  (44) 
F 20

>  <SCORE>  (44) 
-14.152

>  <name>  (44) 
43

>  <ligand_id>  (44) 
43

>  <original_smiles>  (44) 
[H]c1c([H])c([H])c2c(c1[H])C([H])([H])C([H])([H])C([H])([H])C2([H])N([H])C(=O)C1([H])N(C(=O)C([H])(N([H])C(=O)C([H])(N([H])C([H])([H])[H])C([H])([H])[H])C(C([H])([H])[H])(C([H])([H])[H])C([H])([H])[H])C([H])([H])c2c([H])c(ON=C(C(=O)C([H])([H])[H])C(=O)C([H])(c3c([H])c([H])c(N([H])C(=O)N4C([H])([H])C([H])([H])C([H])([H])C([H])(n5nc(-c6c([H])c([H])c(Oc7c([H])c([H])c(F)c([H])c7F)c([H])c6[H])c(C(=O)N([H])[H])c5N([H])[H])C4([H])[H])c([H])c3[H])C([H])([H])[H])c([H])c([H])c2C1([H])[H]

>  <smiles>  (44) 
[H]c1c([H])c([H])c2c(c1[H])C([H])([H])C([H])([H])C([H])([H])C2([H])N([H])C(=O)C1([H])N(C(=O)C([H])(N([H])C(=O)C([H])(N([H])C([H])([H])[H])C([H])([H])[H])C(C([H])([H])[H])(C([H])([H])[H])C([H])([H])[H])C([H])([H])c2c([H])c(ON=C(C(=O)C([H])([H])[H])C(=O)C([H])(c3c([H])c([H])c(N([H])C(=O)N4C([H])([H])C([H])([H])C([H])([H])C([H])(n5nc(-c6c([H])c([H])c(Oc7c([H])c([H])c(F)c([H])c7F)c([H])c6[H])c(C(=O)N([H])[H])c5N([H])[H])C4([H])[H])c([H])c3[H])C([H])([H])[H])c([H])c([H])c2C1([H])[H]

$$$$
44:0:0
     RDKit          3D

 95104  0  0  1  0  0  0  0  0999 V2000
  -30.2860  -19.4650   19.6620 C   0  0  0  0  0  3  0  0  0  0  0  0
  -30.5330  -18.0420   19.7460 C   0  0  0  0  0  3  0  0  0  0  0  0
  -28.0410  -19.1160   20.2390 C   0  0  0  0  0  3  0  0  0  0  0  0
  -28.2340  -17.6920   20.3200 C   0  0  0  0  0  0  0  0  0  0  0  0
  -29.0190  -20.0950   19.9000 C   0  0  0  0  0  0  0  0  0  0  0  0
  -29.5200  -17.0900   20.0730 C   0  0  0  0  0  0  0  0  0  0  0  0
  -30.4760  -14.6280   19.5280 C   0  0  0  0  0  0  0  0  0  0  0  0
  -30.2990  -12.3600   18.4760 C   0  0  0  0  0  2  0  0  0  0  0  0
  -29.2010  -12.4170   17.3870 C   0  0  0  0  0  2  0  0  0  0  0  0
  -27.8030  -12.1760   17.9930 C   0  0  0  0  0  2  0  0  0  0  0  0
  -27.5580  -13.0160   19.2740 C   0  0  0  0  0  3  0  0  0  0  0  0
  -28.7540  -12.9070   20.2480 C   0  0  0  0  0  2  0  0  0  0  0  0
  -29.9560  -13.3500   19.5220 N   0  0  0  0  0  0  0  0  0  0  0  0
  -31.5510  -14.8690   18.9690 O   0  0  0  0  0  0  0  0  0  0  0  0
  -29.6700  -15.6020   20.0900 N   0  0  0  0  0  0  0  0  0  0  0  0
  -28.9550  -15.1560   20.6480 H   0  0  0  0  0  0  0  0  0  0  0  0
  -25.2600  -13.5120   20.3060 C   0  0  0  0  0  0  0  0  0  0  0  0
  -24.2760  -12.6940   20.7920 C   0  0  0  0  0  0  0  0  0  0  0  0
  -24.7710  -11.3600   20.6620 C   0  0  0  0  0  0  0  0  0  0  0  0
  -26.2930  -12.6740   19.9170 N   0  0  0  0  0  0  0  0  0  0  0  0
  -26.0120  -11.3730   20.1890 N   0  0  0  0  0  0  0  0  0  0  0  0
  -24.1140  -10.0700   20.9060 C   0  0  0  0  0  0  0  0  0  0  0  0
  -24.6130   -9.1550   21.8590 C   0  0  0  0  0  3  0  0  0  0  0  0
  -23.9540   -7.9280   22.0900 C   0  0  0  0  0  3  0  0  0  0  0  0
  -22.7800   -7.6070   21.3670 C   0  0  0  0  0  0  0  0  0  0  0  0
  -22.3000   -8.5120   20.4020 C   0  0  0  0  0  3  0  0  0  0  0  0
  -22.9610   -9.7290   20.1700 C   0  0  0  0  0  3  0  0  0  0  0  0
  -22.0870   -6.4290   21.5050 O   0  0  0  0  0  0  0  0  0  0  0  0
  -21.9750   -5.7980   22.7180 C   0  0  0  0  0  0  0  0  0  0  0  0
  -21.4230   -6.4440   23.8460 C   0  0  0  0  0  3  0  0  0  0  0  0
  -21.2640   -5.7360   25.0540 C   0  0  0  0  0  3  0  0  0  0  0  0
  -21.6450   -4.3840   25.1350 C   0  0  0  0  0  0  0  0  0  0  0  0
  -22.1910   -3.7380   24.0110 C   0  0  0  0  0  3  0  0  0  0  0  0
  -22.3520   -4.4420   22.8050 C   0  0  0  0  0  0  0  0  0  0  0  0
  -22.8580   -3.8090   21.7190 F   0  0  0  0  0  0  0  0  0  0  0  0
  -21.4860   -3.7010   26.2930 F   0  0  0  0  0  0  0  0  0  0  0  0
  -22.9120  -13.1170   21.2530 C   0  0  0  0  0  0  0  0  0  0  0  0
  -22.3270  -12.3810   22.1930 N   0  0  0  0  0  0  0  0  0  0  0  0
  -22.3740  -14.1330   20.8150 O   0  0  0  0  0  0  0  0  0  0  0  0
  -22.7770  -11.5590   22.5670 H   0  0  0  0  0  0  0  0  0  0  0  0
  -21.4170  -12.6440   22.5430 H   0  0  0  0  0  0  0  0  0  0  0  0
  -25.3530  -14.8900   20.1340 N   0  0  0  0  0  0  0  0  0  0  0  0
  -24.5670  -15.4980   20.3290 H   0  0  0  0  0  0  0  0  0  0  0  0
  -26.0880  -15.3440   19.6080 H   0  0  0  0  0  0  0  0  0  0  0  0
  -28.1130  -23.5450   19.6900 C   0  0  0  0  0  0  0  0  0  0  0  0
  -27.6240  -22.3600   20.3860 C   0  0  0  0  0  0  0  0  0  0  0  0
  -27.5720  -24.8310   19.7390 C   0  0  0  0  0  3  0  0  0  0  0  0
  -29.2430  -22.6640   19.0680 C   0  0  0  0  0  2  0  0  0  0  0  0
  -28.6380  -21.5400   19.8460 N   0  0  0  0  0  0  0  0  0  0  0  0
  -26.6760  -22.2130   21.1300 O   0  0  0  0  0  0  0  0  0  0  0  0
  -27.8850  -26.0950   19.1550 O   0  0  0  0  0  0  0  0  0  0  0  0
  -24.8460  -31.5700   22.8750 C   0  0  0  0  0  0  0  0  0  0  0  0
  -26.8970  -27.1010   19.2680 C   0  0  0  0  0  0  0  0  0  0  0  0
  -23.4350  -30.4060   21.2170 C   0  0  0  0  0  3  0  0  0  0  0  0
  -24.6710  -28.8910   19.5600 C   0  0  0  0  0  0  0  0  0  0  0  0
  -25.9760  -30.5570   20.8760 C   0  0  0  0  0  2  0  0  0  0  0  0
  -25.9140  -29.2360   20.1110 C   0  0  0  0  0  0  0  0  0  0  0  0
  -27.0320  -28.3530   19.9570 C   0  0  0  0  0  3  0  0  0  0  0  0
  -25.6380  -26.8290   18.6910 C   0  0  0  0  0  3  0  0  0  0  0  0
  -24.5380  -27.6960   18.8390 C   0  0  0  0  0  3  0  0  0  0  0  0
  -23.5080  -29.8430   19.7730 C   0  0  0  0  0  2  0  0  0  0  0  0
  -24.7760  -30.8560   21.7120 N   0  0  0  0  0  0  0  0  0  0  0  0
  -23.8240  -31.8720   23.5080 O   0  0  0  0  0  0  0  0  0  0  0  0
  -22.7630  -29.3570   22.1370 C   0  0  0  0  0  0  0  0  0  0  0  0
  -21.4240  -29.2620   22.0720 N   0  0  0  0  0  0  0  0  0  0  0  0
  -23.4450  -28.6360   22.8690 O   0  0  0  0  0  0  0  0  0  0  0  0
  -20.9340  -29.8950   21.4550 H   0  0  0  0  0  0  0  0  0  0  0  0
  -18.0100  -28.2380   22.7070 C   0  0  0  0  0  0  0  0  0  0  0  0
  -20.5930  -28.3140   22.8160 C   0  0  0  0  0  3  0  0  0  0  0  0
  -20.5590  -26.9350   22.1170 C   0  0  0  0  0  2  0  0  0  0  0  0
  -19.3740  -26.7730   21.1600 C   0  0  0  0  0  2  0  0  0  0  0  0
  -18.0510  -26.9460   21.9090 C   0  0  0  0  0  2  0  0  0  0  0  0
  -19.2040  -28.8890   23.1200 C   0  0  0  0  0  0  0  0  0  0  0  0
  -19.1100  -30.1050   23.8310 C   0  0  0  0  0  3  0  0  0  0  0  0
  -17.8550  -30.6700   24.1300 C   0  0  0  0  0  3  0  0  0  0  0  0
  -16.6780  -30.0140   23.7310 C   0  0  0  0  0  3  0  0  0  0  0  0
  -16.7560  -28.8010   23.0250 C   0  0  0  0  0  3  0  0  0  0  0  0
  -26.2090  -32.0580   23.4520 C   0  0  0  0  0  3  0  0  0  0  0  0
  -26.7870  -31.1040   24.5690 C   0  0  1  0  0  0  0  0  0  0  0  0
  -25.7780  -30.7850   25.6980 C   0  0  0  0  0  1  0  0  0  0  0  0
  -27.2490  -29.7610   23.9590 C   0  0  0  0  0  1  0  0  0  0  0  0
  -28.0360  -31.7490   25.2140 C   0  0  0  0  0  1  0  0  0  0  0  0
  -26.0080  -33.4130   23.9850 N   0  0  0  0  0  0  0  0  0  0  0  0
  -26.3070  -34.5430   23.3290 C   0  0  0  0  0  0  0  0  0  0  0  0
  -26.8530  -34.5480   22.2210 O   0  0  0  0  0  0  0  0  0  0  0  0
  -25.5120  -33.4860   24.8620 H   0  0  0  0  0  0  0  0  0  0  0  0
  -24.6340  -36.4200   23.4160 C   0  0  0  0  0  1  0  0  0  0  0  0
  -25.9450  -35.8790   24.0070 C   0  0  0  0  0  3  0  0  0  0  0  0
  -28.2050  -36.5860   24.6560 C   0  0  0  0  0  1  0  0  0  0  0  0
  -27.0030  -36.9050   23.8900 N   0  0  0  0  0  0  0  0  0  0  0  0
  -26.6620  -37.8110   24.1980 H   0  0  0  0  0  0  0  0  0  0  0  0
  -27.0320  -16.8540   20.6660 C   0  0  0  0  0  0  0  0  0  0  0  0
  -27.1170  -15.8860   21.4300 O   0  0  0  0  0  0  0  0  0  0  0  0
  -24.5940  -16.5840   20.3710 C   0  0  0  0  0  2  0  0  0  0  0  0
  -25.7400  -17.2040   20.0340 C   0  0  0  0  0  3  0  0  0  0  0  0
  1  2  2  0
  1  5  1  0
  2  6  1  0
  3  4  1  0
  4 92  1  0
  5  3  2  0
  6 15  1  0
  6  4  2  0
  7 15  1  0
  8 13  1  0
  9 10  1  0
  9  8  1  0
 11 10  1  0
 11 20  1  0
 11 12  1  0
 13  7  1  0
 13 12  1  0
 14  7  2  0
 15 16  1  0
 17 18  2  0
 18 37  1  0
 19 18  1  0
 19 22  1  0
 20 21  1  0
 20 17  1  0
 21 19  2  0
 22 23  1  0
 23 24  2  0
 25 28  1  0
 25 24  1  0
 26 25  2  0
 27 26  1  0
 27 22  2  0
 28 29  1  0
 29 34  2  0
 29 30  1  0
 30 31  2  0
 31 32  1  0
 32 36  1  0
 33 32  2  0
 34 33  1  0
 35 34  1  0
 37 38  1  0
 38 41  1  0
 38 40  1  0
 39 37  2  0
 42 17  1  0
 42 43  1  0
 44 42  1  0
 45 47  2  0
 45 46  1  0
 46 50  2  0
 48 45  1  0
 48 49  1  0
 49  5  1  0
 49 46  1  0
 51 53  1  0
 51 47  1  0
 52 63  2  0
 53 58  1  0
 54 62  1  0
 54 64  1  0
 55 61  1  0
 55 57  1  0
 56 62  1  0
 57 56  1  0
 58 57  2  0
 59 60  1  0
 59 53  2  0
 60 55  2  0
 61 54  1  0
 62 52  1  0
 64 66  2  0
 65 64  1  0
 67 65  1  0
 68 77  2  0
 68 73  1  0
 69 65  1  0
 69 73  1  0
 70 69  1  0
 71 72  1  0
 71 70  1  0
 72 68  1  0
 73 74  2  0
 74 75  1  0
 76 75  2  0
 77 76  1  0
 78 52  1  0
 78 83  1  0
 78 79  1  0
 79 82  1  1
 79 80  1  0
 81 79  1  0
 83 86  1  0
 84 83  1  0
 84 88  1  0
 85 84  2  0
 88 87  1  0
 90 88  1  0
 90 91  1  0
 90 89  1  0
 92 93  2  0
 95 94  2  0
 95 92  1  0
M  ISO  4   7 100  15 100  47 101  51 101
M  END
>  <TORSDO>  (45) 
F 19

>  <SCORE>  (45) 
-10.337

>  <name>  (45) 
44

>  <ligand_id>  (45) 
44

>  <original_smiles>  (45) 
[H]C([H])=C([H])C(=O)c1c([H])c(N2C(=O)C(=C([H])Oc3c([H])c([H])c4c(c3[H])C([H])([H])N(C(=O)C([H])(N([H])C(=O)C([H])(N([H])C([H])([H])[H])C([H])([H])[H])C(C([H])([H])[H])(C([H])([H])[H])C([H])([H])[H])C([H])(C(=O)N([H])C3([H])c5c([H])c([H])c([H])c([H])c5C([H])([H])C([H])([H])C3([H])[H])C4([H])[H])C2([H])[H])c([H])c([H])c1N([H])C(=O)N1C([H])([H])C([H])([H])C([H])([H])C([H])(n2nc(-c3c([H])c([H])c(Oc4c([H])c([H])c(F)c([H])c4F)c([H])c3[H])c(C(=O)N([H])[H])c2N([H])[H])C1([H])[H]

>  <smiles>  (45) 
[H]C([H])=C([H])C(=O)c1c([H])c(N2C(=O)C(=C([H])Oc3c([H])c([H])c4c(c3[H])C([H])([H])N(C(=O)C([H])(N([H])C(=O)C([H])(N([H])C([H])([H])[H])C([H])([H])[H])C(C([H])([H])[H])(C([H])([H])[H])C([H])([H])[H])C([H])(C(=O)N([H])C3([H])c5c([H])c([H])c([H])c([H])c5C([H])([H])C([H])([H])C3([H])[H])C4([H])[H])C2([H])[H])c([H])c([H])c1N([H])C(=O)N1C([H])([H])C([H])([H])C([H])([H])C([H])(n2nc(-c3c([H])c([H])c(Oc4c([H])c([H])c(F)c([H])c4F)c([H])c3[H])c(C(=O)N([H])[H])c2N([H])[H])C1([H])[H]

$$$$
45:0:0
     RDKit          3D

 92101  0  0  1  0  0  0  0  0999 V2000
  -29.0260  -23.1540   19.1620 C   0  0  0  0  0  3  0  0  0  0  0  0
  -28.7490  -23.5790   20.4000 C   0  0  0  0  0  0  0  0  0  0  0  0
  -29.4130  -21.7290   19.1450 C   0  0  0  0  0  0  0  0  0  0  0  0
  -28.9580  -22.3450   21.3090 C   0  0  0  0  0  2  0  0  0  0  0  0
  -29.3520  -21.2030   20.4020 N   0  0  0  0  0  0  0  0  0  0  0  0
  -29.7430  -21.0940   18.1400 O   0  0  0  0  0  0  0  0  0  0  0  0
  -31.0770  -18.6080   22.5900 C   0  0  0  0  0  3  0  0  0  0  0  0
  -30.5100  -19.7990   22.0900 C   0  0  0  0  0  3  0  0  0  0  0  0
  -30.9700  -17.3860   21.8990 C   0  0  0  0  0  3  0  0  0  0  0  0
  -29.7040  -18.5530   20.1680 C   0  0  0  0  0  3  0  0  0  0  0  0
  -29.8360  -19.8490   20.8480 C   0  0  0  0  0  0  0  0  0  0  0  0
  -30.2610  -17.2960   20.6860 C   0  0  0  0  0  0  0  0  0  0  0  0
  -30.8030  -14.7780   20.1100 C   0  0  0  0  0  0  0  0  0  0  0  0
  -30.5600  -12.5000   19.0810 C   0  0  0  0  0  2  0  0  0  0  0  0
  -29.5730  -12.5570   17.8950 C   0  0  0  0  0  2  0  0  0  0  0  0
  -28.1170  -12.4050   18.3800 C   0  0  0  0  0  2  0  0  0  0  0  0
  -27.7940  -13.3060   19.6060 C   0  0  0  0  0  3  0  0  0  0  0  0
  -28.8920  -13.2160   20.6860 C   0  0  0  0  0  2  0  0  0  0  0  0
  -30.1590  -13.5620   20.0310 N   0  0  0  0  0  0  0  0  0  0  0  0
  -32.0030  -14.8520   19.8320 O   0  0  0  0  0  0  0  0  0  0  0  0
  -30.0110  -15.9230   20.1630 N   0  0  0  0  0  0  0  0  0  0  0  0
  -29.0380  -15.7260   19.9970 H   0  0  0  0  0  0  0  0  0  0  0  0
  -25.4500  -13.9410   20.4220 C   0  0  0  0  0  0  0  0  0  0  0  0
  -24.3810  -13.1860   20.8250 C   0  0  0  0  0  0  0  0  0  0  0  0
  -24.8160  -11.8250   20.7690 C   0  0  0  0  0  0  0  0  0  0  0  0
  -26.4660  -13.0410   20.1450 N   0  0  0  0  0  0  0  0  0  0  0  0
  -26.0950  -11.7630   20.4180 N   0  0  0  0  0  0  0  0  0  0  0  0
  -24.0680  -10.5770   20.9750 C   0  0  0  0  0  0  0  0  0  0  0  0
  -24.5060   -9.5980   21.8940 C   0  0  0  0  0  3  0  0  0  0  0  0
  -23.7590   -8.4160   22.0890 C   0  0  0  0  0  3  0  0  0  0  0  0
  -22.5620   -8.2050   21.3640 C   0  0  0  0  0  0  0  0  0  0  0  0
  -22.1450   -9.1720   20.4330 C   0  0  0  0  0  3  0  0  0  0  0  0
  -22.8910  -10.3450   20.2350 C   0  0  0  0  0  3  0  0  0  0  0  0
  -21.7860   -7.0760   21.4680 O   0  0  0  0  0  0  0  0  0  0  0  0
  -21.7440   -6.3370   22.6230 C   0  0  0  0  0  0  0  0  0  0  0  0
  -21.3490   -6.9010   23.8560 C   0  0  0  0  0  3  0  0  0  0  0  0
  -21.2510   -6.0890   25.0030 C   0  0  0  0  0  3  0  0  0  0  0  0
  -21.5380   -4.7130   24.9200 C   0  0  0  0  0  0  0  0  0  0  0  0
  -21.9250   -4.1490   23.6920 C   0  0  0  0  0  3  0  0  0  0  0  0
  -22.0250   -4.9580   22.5470 C   0  0  0  0  0  0  0  0  0  0  0  0
  -22.3770   -4.4040   21.3620 F   0  0  0  0  0  0  0  0  0  0  0  0
  -21.4360   -3.9320   26.0200 F   0  0  0  0  0  0  0  0  0  0  0  0
  -23.0040  -13.6890   21.1450 C   0  0  0  0  0  0  0  0  0  0  0  0
  -22.2950  -13.0090   22.0380 N   0  0  0  0  0  0  0  0  0  0  0  0
  -22.5680  -14.7220   20.6380 O   0  0  0  0  0  0  0  0  0  0  0  0
  -22.6630  -12.1730   22.4700 H   0  0  0  0  0  0  0  0  0  0  0  0
  -21.3700  -13.3240   22.2920 H   0  0  0  0  0  0  0  0  0  0  0  0
  -25.6280  -15.3090   20.2430 N   0  0  0  0  0  0  0  0  0  0  0  0
  -24.8640  -15.9640   20.3670 H   0  0  0  0  0  0  0  0  0  0  0  0
  -26.4590  -15.7430   19.8630 H   0  0  0  0  0  0  0  0  0  0  0  0
  -28.1600  -24.9770   20.9210 C   0  0  0  0  0  2  0  0  0  0  0  0
  -28.4770  -26.3270   20.3210 O   0  0  0  0  0  0  0  0  0  0  0  0
  -24.6640  -31.8240   23.1960 C   0  0  0  0  0  0  0  0  0  0  0  0
  -27.4030  -27.2470   20.2420 C   0  0  0  0  0  0  0  0  0  0  0  0
  -23.5270  -30.4110   21.5190 C   0  0  0  0  0  3  0  0  0  0  0  0
  -25.0400  -28.8750   20.1350 C   0  0  0  0  0  0  0  0  0  0  0  0
  -26.0700  -30.7490   21.4160 C   0  0  0  0  0  2  0  0  0  0  0  0
  -26.1860  -29.3660   20.7730 C   0  0  0  0  0  0  0  0  0  0  0  0
  -27.3770  -28.5660   20.8130 C   0  0  0  0  0  3  0  0  0  0  0  0
  -26.2420  -26.8290   19.5630 C   0  0  0  0  0  3  0  0  0  0  0  0
  -25.0740  -27.6150   19.5150 C   0  0  0  0  0  3  0  0  0  0  0  0
  -23.7920  -29.7380   20.1470 C   0  0  0  0  0  2  0  0  0  0  0  0
  -24.7710  -31.0150   22.1000 N   0  0  0  0  0  0  0  0  0  0  0  0
  -23.5620  -32.0880   23.6990 O   0  0  0  0  0  0  0  0  0  0  0  0
  -22.8450  -29.3900   22.4610 C   0  0  0  0  0  0  0  0  0  0  0  0
  -21.5230  -29.2080   22.3060 N   0  0  0  0  0  0  0  0  0  0  0  0
  -23.5100  -28.7620   23.2920 O   0  0  0  0  0  0  0  0  0  0  0  0
  -21.0470  -29.7660   21.6120 H   0  0  0  0  0  0  0  0  0  0  0  0
  -18.1450  -27.9820   22.7250 C   0  0  0  0  0  0  0  0  0  0  0  0
  -20.6940  -28.2620   23.0550 C   0  0  0  0  0  3  0  0  0  0  0  0
  -20.8200  -26.8330   22.4800 C   0  0  0  0  0  2  0  0  0  0  0  0
  -19.7440  -26.5040   21.4380 C   0  0  0  0  0  2  0  0  0  0  0  0
  -18.3470  -26.6370   22.0490 C   0  0  0  0  0  2  0  0  0  0  0  0
  -19.2460  -28.7530   23.1820 C   0  0  0  0  0  0  0  0  0  0  0  0
  -19.0030  -30.0120   23.7730 C   0  0  0  0  0  3  0  0  0  0  0  0
  -17.6900  -30.5000   23.9120 C   0  0  0  0  0  3  0  0  0  0  0  0
  -16.6020  -29.7280   23.4690 C   0  0  0  0  0  3  0  0  0  0  0  0
  -16.8300  -28.4720   22.8800 C   0  0  0  0  0  3  0  0  0  0  0  0
  -25.9190  -32.4730   23.8540 C   0  0  0  0  0  3  0  0  0  0  0  0
  -25.5830  -33.8680   24.1740 N   0  0  0  0  0  0  0  0  0  0  0  0
  -25.9210  -34.9260   23.4240 C   0  0  0  0  0  0  0  0  0  0  0  0
  -26.6150  -34.8300   22.4080 O   0  0  0  0  0  0  0  0  0  0  0  0
  -24.9670  -34.0140   24.9600 H   0  0  0  0  0  0  0  0  0  0  0  0
  -24.1760  -36.6980   23.0350 C   0  0  0  0  0  1  0  0  0  0  0  0
  -25.4070  -36.3080   23.8690 C   0  0  0  0  0  3  0  0  0  0  0  0
  -27.5130  -37.2270   24.7400 C   0  0  0  0  0  1  0  0  0  0  0  0
  -26.4270  -37.3740   23.7730 N   0  0  0  0  0  0  0  0  0  0  0  0
  -26.0060  -38.2900   23.9070 H   0  0  0  0  0  0  0  0  0  0  0  0
  -26.4040  -31.7110   25.1500 C   0  0  1  0  0  0  0  0  0  0  0  0
  -25.2800  -31.4650   26.1840 C   0  0  0  0  0  1  0  0  0  0  0  0
  -27.0140  -30.3370   24.7850 C   0  0  0  0  0  1  0  0  0  0  0  0
  -27.5200  -32.5230   25.8490 C   0  0  0  0  0  1  0  0  0  0  0  0
  1  2  2  0
  2 51  1  0
  2  4  1  0
  3  1  1  0
  3  5  1  0
  5 11  1  0
  5  4  1  0
  6  3  2  0
  8  7  1  0
  9  7  2  0
 10 12  2  0
 10 11  1  0
 11  8  2  0
 12  9  1  0
 13 21  1  0
 14 19  1  0
 15 16  1  0
 15 14  1  0
 17 16  1  0
 17 26  1  0
 17 18  1  0
 19 13  1  0
 19 18  1  0
 20 13  2  0
 21 12  1  0
 22 21  1  0
 23 24  2  0
 24 43  1  0
 25 24  1  0
 25 28  1  0
 26 27  1  0
 26 23  1  0
 27 25  2  0
 28 29  1  0
 29 30  2  0
 31 34  1  0
 31 30  1  0
 32 31  2  0
 33 32  1  0
 33 28  2  0
 34 35  1  0
 35 36  1  0
 36 37  2  0
 38 37  1  0
 38 42  1  0
 39 38  2  0
 40 35  2  0
 40 39  1  0
 41 40  1  0
 43 44  1  0
 44 47  1  0
 44 46  1  0
 45 43  2  0
 48 49  1  0
 48 23  1  0
 50 48  1  0
 52 51  1  0
 53 64  2  0
 54 52  1  0
 54 59  1  0
 55 63  1  0
 55 65  1  0
 56 62  1  0
 56 58  1  0
 57 63  1  0
 58 59  2  0
 58 57  1  0
 60 54  2  0
 61 60  1  0
 61 56  2  0
 62 55  1  0
 63 53  1  0
 65 67  2  0
 66 65  1  0
 68 66  1  0
 69 78  2  0
 69 74  1  0
 70 66  1  0
 70 74  1  0
 71 70  1  0
 72 73  1  0
 72 71  1  0
 73 69  1  0
 74 75  2  0
 75 76  1  0
 77 76  2  0
 78 77  1  0
 79 53  1  0
 79 80  1  0
 79 89  1  0
 80 83  1  0
 81 85  1  0
 81 80  1  0
 82 81  2  0
 85 84  1  0
 87 85  1  0
 87 88  1  0
 87 86  1  0
 89 92  1  1
 89 90  1  0
 91 89  1  0
M  ISO  4  13 100  21 100  51 101  52 101
M  END
>  <TORSDO>  (46) 
F 18

>  <SCORE>  (46) 
-14.439

>  <name>  (46) 
45

>  <ligand_id>  (46) 
45

>  <original_smiles>  (46) 
[H]C1=C(C([H])([H])Oc2c([H])c([H])c3c(c2[H])C([H])([H])N(C(=O)C([H])(N([H])C(=O)C([H])(N([H])C([H])([H])[H])C([H])([H])[H])C(C([H])([H])[H])(C([H])([H])[H])C([H])([H])[H])C([H])(C(=O)N([H])C2([H])c4c([H])c([H])c([H])c([H])c4C([H])([H])C([H])([H])C2([H])[H])C3([H])[H])C([H])([H])N(c2c([H])c([H])c([H])c(N([H])C(=O)N3C([H])([H])C([H])([H])C([H])([H])C([H])(n4nc(-c5c([H])c([H])c(Oc6c([H])c([H])c(F)c([H])c6F)c([H])c5[H])c(C(=O)N([H])[H])c4N([H])[H])C3([H])[H])c2[H])C1=O

>  <smiles>  (46) 
[H]C1=C(C([H])([H])Oc2c([H])c([H])c3c(c2[H])C([H])([H])N(C(=O)C([H])(N([H])C(=O)C([H])(N([H])C([H])([H])[H])C([H])([H])[H])C(C([H])([H])[H])(C([H])([H])[H])C([H])([H])[H])C([H])(C(=O)N([H])C2([H])c4c([H])c([H])c([H])c([H])c4C([H])([H])C([H])([H])C2([H])[H])C3([H])[H])C([H])([H])N(c2c([H])c([H])c([H])c(N([H])C(=O)N3C([H])([H])C([H])([H])C([H])([H])C([H])(n4nc(-c5c([H])c([H])c(Oc6c([H])c([H])c(F)c([H])c6F)c([H])c5[H])c(C(=O)N([H])[H])c4N([H])[H])C3([H])[H])c2[H])C1=O

$$$$
46:0:0
     RDKit          3D

 94103  0  0  1  0  0  0  0  0999 V2000
  -27.9380  -22.8160   21.3390 C   0  0  0  0  0  3  0  0  0  0  0  0
  -28.3070  -21.5110   21.2200 C   0  0  0  0  0  2  0  0  0  0  0  0
  -28.4800  -23.9240   20.5370 C   0  0  0  0  0  0  0  0  0  0  0  0
  -29.4550  -23.4870   19.5200 C   0  0  0  0  0  0  0  0  0  0  0  0
  -30.0690  -24.3770   18.7200 C   0  0  0  0  0  1  0  0  0  0  0  0
  -28.0150  -25.2030   20.7980 C   0  0  0  0  0  2  0  0  0  0  0  0
  -29.8050  -21.9750   19.3370 C   0  0  0  0  0  3  0  0  0  0  0  0
  -29.2500  -21.0070   20.3210 N   0  0  0  0  0  0  0  0  0  0  0  0
  -32.1840  -18.8370   21.1580 C   0  0  0  0  0  3  0  0  0  0  0  0
  -31.3560  -19.9430   20.9050 C   0  0  0  0  0  3  0  0  0  0  0  0
  -31.6960  -17.5240   21.0390 C   0  0  0  0  0  3  0  0  0  0  0  0
  -30.0020  -19.7870   20.5350 C   0  0  0  0  0  0  0  0  0  0  0  0
  -30.3610  -17.2620   20.6510 C   0  0  0  0  0  0  0  0  0  0  0  0
  -29.5140  -18.4190   20.4230 C   0  0  0  0  0  0  0  0  0  0  0  0
  -28.2190  -18.2060   20.0780 F   0  0  0  0  0  0  0  0  0  0  0  0
  -30.6210  -14.7150   20.2820 C   0  0  0  0  0  0  0  0  0  0  0  0
  -30.3430  -12.4700   19.2420 C   0  0  0  0  0  2  0  0  0  0  0  0
  -29.3920  -12.5780   18.0340 C   0  0  0  0  0  2  0  0  0  0  0  0
  -27.9270  -12.4200   18.4850 C   0  0  0  0  0  2  0  0  0  0  0  0
  -27.5820  -13.3010   19.7150 C   0  0  0  0  0  3  0  0  0  0  0  0
  -28.6560  -13.1940   20.8210 C   0  0  0  0  0  2  0  0  0  0  0  0
  -29.9500  -13.5200   20.2070 N   0  0  0  0  0  0  0  0  0  0  0  0
  -31.7940  -14.7790   19.9090 O   0  0  0  0  0  0  0  0  0  0  0  0
  -29.8990  -15.8610   20.5500 N   0  0  0  0  0  0  0  0  0  0  0  0
  -28.9040  -15.7310   20.6460 H   0  0  0  0  0  0  0  0  0  0  0  0
  -25.2050  -13.8970   20.4790 C   0  0  0  0  0  0  0  0  0  0  0  0
  -24.1420  -13.1230   20.8600 C   0  0  0  0  0  0  0  0  0  0  0  0
  -24.6010  -11.7710   20.8160 C   0  0  0  0  0  0  0  0  0  0  0  0
  -26.2440  -13.0160   20.2240 N   0  0  0  0  0  0  0  0  0  0  0  0
  -25.8870  -11.7330   20.4890 N   0  0  0  0  0  0  0  0  0  0  0  0
  -23.8740  -10.5100   21.0090 C   0  0  0  0  0  0  0  0  0  0  0  0
  -24.3060   -9.5430   21.9430 C   0  0  0  0  0  3  0  0  0  0  0  0
  -23.5780   -8.3480   22.1240 C   0  0  0  0  0  3  0  0  0  0  0  0
  -22.4040   -8.1100   21.3710 C   0  0  0  0  0  0  0  0  0  0  0  0
  -21.9910   -9.0650   20.4260 C   0  0  0  0  0  3  0  0  0  0  0  0
  -22.7190  -10.2530   20.2430 C   0  0  0  0  0  3  0  0  0  0  0  0
  -21.6480   -6.9660   21.4620 O   0  0  0  0  0  0  0  0  0  0  0  0
  -21.5860   -6.2340   22.6200 C   0  0  0  0  0  0  0  0  0  0  0  0
  -21.1310   -6.7940   23.8330 C   0  0  0  0  0  3  0  0  0  0  0  0
  -21.0190   -5.9870   24.9840 C   0  0  0  0  0  3  0  0  0  0  0  0
  -21.3500   -4.6210   24.9210 C   0  0  0  0  0  0  0  0  0  0  0  0
  -21.7990   -4.0600   23.7120 C   0  0  0  0  0  3  0  0  0  0  0  0
  -21.9130   -4.8640   22.5640 C   0  0  0  0  0  0  0  0  0  0  0  0
  -22.3250   -4.3130   21.3970 F   0  0  0  0  0  0  0  0  0  0  0  0
  -21.2360   -3.8440   26.0230 F   0  0  0  0  0  0  0  0  0  0  0  0
  -22.7500  -13.6040   21.1510 C   0  0  0  0  0  0  0  0  0  0  0  0
  -22.0290  -12.9020   22.0180 N   0  0  0  0  0  0  0  0  0  0  0  0
  -22.3100  -14.6360   20.6460 O   0  0  0  0  0  0  0  0  0  0  0  0
  -22.3980  -12.0670   22.4500 H   0  0  0  0  0  0  0  0  0  0  0  0
  -21.0950  -13.2040   22.2560 H   0  0  0  0  0  0  0  0  0  0  0  0
  -25.3680  -15.2680   20.3050 N   0  0  0  0  0  0  0  0  0  0  0  0
  -24.6000  -15.9190   20.4280 H   0  0  0  0  0  0  0  0  0  0  0  0
  -26.2060  -15.7130   19.9530 H   0  0  0  0  0  0  0  0  0  0  0  0
  -28.2940  -26.4670   20.2300 O   0  0  0  0  0  0  0  0  0  0  0  0
  -24.5930  -31.9010   23.2500 C   0  0  0  0  0  0  0  0  0  0  0  0
  -27.2190  -27.3640   20.1870 C   0  0  0  0  0  0  0  0  0  0  0  0
  -23.3950  -30.5010   21.6070 C   0  0  0  0  0  3  0  0  0  0  0  0
  -24.8520  -28.9640   20.1750 C   0  0  0  0  0  0  0  0  0  0  0  0
  -25.9320  -30.8340   21.4240 C   0  0  0  0  0  2  0  0  0  0  0  0
  -26.0200  -29.4570   20.7730 C   0  0  0  0  0  0  0  0  0  0  0  0
  -27.2110  -28.6690   20.7710 C   0  0  0  0  0  3  0  0  0  0  0  0
  -26.0340  -26.9260   19.5590 C   0  0  0  0  0  3  0  0  0  0  0  0
  -24.8610  -27.7030   19.5580 C   0  0  0  0  0  3  0  0  0  0  0  0
  -23.6110  -29.8300   20.2250 C   0  0  0  0  0  2  0  0  0  0  0  0
  -24.6580  -31.0950   22.1500 N   0  0  0  0  0  0  0  0  0  0  0  0
  -23.5090  -32.1730   23.7860 O   0  0  0  0  0  0  0  0  0  0  0  0
  -22.7360  -29.4790   22.5660 C   0  0  0  0  0  0  0  0  0  0  0  0
  -21.4110  -29.2950   22.4370 N   0  0  0  0  0  0  0  0  0  0  0  0
  -23.4170  -28.8550   23.3830 O   0  0  0  0  0  0  0  0  0  0  0  0
  -20.9210  -29.8500   21.7500 H   0  0  0  0  0  0  0  0  0  0  0  0
  -18.0390  -28.0860   22.9340 C   0  0  0  0  0  0  0  0  0  0  0  0
  -20.5960  -28.3540   23.2070 C   0  0  0  0  0  3  0  0  0  0  0  0
  -20.7040  -26.9230   22.6300 C   0  0  0  0  0  2  0  0  0  0  0  0
  -19.6030  -26.5980   21.6140 C   0  0  0  0  0  2  0  0  0  0  0  0
  -18.2200  -26.7370   22.2560 C   0  0  0  0  0  2  0  0  0  0  0  0
  -19.1540  -28.8520   23.3660 C   0  0  0  0  0  0  0  0  0  0  0  0
  -18.9300  -30.1130   23.9580 C   0  0  0  0  0  3  0  0  0  0  0  0
  -17.6220  -30.6090   24.1240 C   0  0  0  0  0  3  0  0  0  0  0  0
  -16.5210  -29.8400   23.7080 C   0  0  0  0  0  3  0  0  0  0  0  0
  -16.7300  -28.5810   23.1190 C   0  0  0  0  0  3  0  0  0  0  0  0
  -25.8730  -32.5370   23.8730 C   0  0  0  0  0  3  0  0  0  0  0  0
  -25.5640  -33.9380   24.1920 N   0  0  0  0  0  0  0  0  0  0  0  0
  -25.9050  -34.9860   23.4290 C   0  0  0  0  0  0  0  0  0  0  0  0
  -26.5820  -34.8750   22.4050 O   0  0  0  0  0  0  0  0  0  0  0  0
  -24.9640  -34.0980   24.9880 H   0  0  0  0  0  0  0  0  0  0  0  0
  -24.1890  -36.7850   23.0440 C   0  0  0  0  0  1  0  0  0  0  0  0
  -25.4170  -36.3780   23.8750 C   0  0  0  0  0  3  0  0  0  0  0  0
  -27.5430  -37.2570   24.7330 C   0  0  0  0  0  1  0  0  0  0  0  0
  -26.4550  -37.4270   23.7730 N   0  0  0  0  0  0  0  0  0  0  0  0
  -26.0500  -38.3480   23.9140 H   0  0  0  0  0  0  0  0  0  0  0  0
  -26.3830  -31.7750   25.1580 C   0  0  1  0  0  0  0  0  0  0  0  0
  -25.2840  -31.5470   26.2220 C   0  0  0  0  0  1  0  0  0  0  0  0
  -26.9680  -30.3940   24.7810 C   0  0  0  0  0  1  0  0  0  0  0  0
  -27.5300  -32.5740   25.8200 C   0  0  0  0  0  1  0  0  0  0  0  0
  2  1  1  0
  3  6  1  0
  3  1  2  0
  4  3  1  0
  5  4  1  0
  7  4  2  0
  7  8  1  0
  8 12  1  0
  8  2  1  0
 10  9  2  0
 11  9  1  0
 12 10  1  0
 13 11  2  0
 14 12  2  0
 14 13  1  0
 15 14  1  0
 16 24  1  0
 17 22  1  0
 18 19  1  0
 18 17  1  0
 20 19  1  0
 20 29  1  0
 20 21  1  0
 22 16  1  0
 22 21  1  0
 23 16  2  0
 24 25  1  0
 24 13  1  0
 26 27  2  0
 27 46  1  0
 28 27  1  0
 28 31  1  0
 29 26  1  0
 29 30  1  0
 30 28  2  0
 31 32  1  0
 32 33  2  0
 34 37  1  0
 34 33  1  0
 35 34  2  0
 36 35  1  0
 36 31  2  0
 37 38  1  0
 38 39  1  0
 39 40  2  0
 41 40  1  0
 41 45  1  0
 42 41  2  0
 43 38  2  0
 43 42  1  0
 44 43  1  0
 46 47  1  0
 47 50  1  0
 47 49  1  0
 48 46  2  0
 51 52  1  0
 51 26  1  0
 53 51  1  0
 54  6  1  0
 55 66  2  0
 56 54  1  0
 56 61  1  0
 57 65  1  0
 57 67  1  0
 58 64  1  0
 58 60  1  0
 59 65  1  0
 60 59  1  0
 61 60  2  0
 62 56  2  0
 63 62  1  0
 63 58  2  0
 64 57  1  0
 65 55  1  0
 67 69  2  0
 68 67  1  0
 70 68  1  0
 71 80  2  0
 71 76  1  0
 72 68  1  0
 72 76  1  0
 73 72  1  0
 74 75  1  0
 74 73  1  0
 75 71  1  0
 76 77  2  0
 77 78  1  0
 79 78  2  0
 80 79  1  0
 81 55  1  0
 81 82  1  0
 81 91  1  0
 82 85  1  0
 83 87  1  0
 83 82  1  0
 84 83  2  0
 87 86  1  0
 89 87  1  0
 89 90  1  0
 89 88  1  0
 91 94  1  1
 91 92  1  0
 93 91  1  0
M  ISO  4   6 101  16 100  24 100  54 101
M  END
>  <TORSDO>  (47) 
F 17

>  <SCORE>  (47) 
-15.656

>  <name>  (47) 
46

>  <ligand_id>  (47) 
46

>  <original_smiles>  (47) 
[H]C([H])=C1C(=C([H])Oc2c([H])c([H])c3c(c2[H])C([H])([H])N(C(=O)C([H])(N([H])C(=O)C([H])(N([H])C([H])([H])[H])C([H])([H])[H])C(C([H])([H])[H])(C([H])([H])[H])C([H])([H])[H])C([H])(C(=O)N([H])C2([H])c4c([H])c([H])c([H])c([H])c4C([H])([H])C([H])([H])C2([H])[H])C3([H])[H])C([H])=C([H])N(c2c([H])c([H])c([H])c(N([H])C(=O)N3C([H])([H])C([H])([H])C([H])([H])C([H])(n4nc(-c5c([H])c([H])c(Oc6c([H])c([H])c(F)c([H])c6F)c([H])c5[H])c(C(=O)N([H])[H])c4N([H])[H])C3([H])[H])c2F)C1([H])[H]

>  <smiles>  (47) 
[H]C([H])=C1C(=C([H])Oc2c([H])c([H])c3c(c2[H])C([H])([H])N(C(=O)C([H])(N([H])C(=O)C([H])(N([H])C([H])([H])[H])C([H])([H])[H])C(C([H])([H])[H])(C([H])([H])[H])C([H])([H])[H])C([H])(C(=O)N([H])C2([H])c4c([H])c([H])c([H])c([H])c4C([H])([H])C([H])([H])C2([H])[H])C3([H])[H])C([H])=C([H])N(c2c([H])c([H])c([H])c(N([H])C(=O)N3C([H])([H])C([H])([H])C([H])([H])C([H])(n4nc(-c5c([H])c([H])c(Oc6c([H])c([H])c(F)c([H])c6F)c([H])c5[H])c(C(=O)N([H])[H])c4N([H])[H])C3([H])[H])c2F)C1([H])[H]

$$$$
47:0:0
     RDKit          3D

 94103  0  0  1  0  0  0  0  0999 V2000
  -28.8120  -23.7670   19.5390 C   0  0  0  0  0  0  0  0  0  0  0  0
  -29.1620  -22.6130   18.7190 C   0  0  0  0  0  0  0  0  0  0  0  0
  -28.7870  -22.8510   20.6750 C   0  0  0  0  0  0  0  0  0  0  0  0
  -28.6220  -25.1180   19.2230 C   0  0  0  0  0  3  0  0  0  0  0  0
  -29.1390  -21.7300   19.8370 N   0  0  0  0  0  0  0  0  0  0  0  0
  -29.3660  -22.5220   17.5240 O   0  0  0  0  0  0  0  0  0  0  0  0
  -28.5330  -23.0360   21.8490 O   0  0  0  0  0  0  0  0  0  0  0  0
  -30.5200  -19.5100   19.7490 C   0  0  0  0  0  3  0  0  0  0  0  0
  -30.6770  -18.0800   19.8780 C   0  0  0  0  0  3  0  0  0  0  0  0
  -28.2710  -19.3520   20.3910 C   0  0  0  0  0  3  0  0  0  0  0  0
  -28.3800  -17.9170   20.5000 C   0  0  0  0  0  0  0  0  0  0  0  0
  -29.3120  -20.2470   19.9950 C   0  0  0  0  0  0  0  0  0  0  0  0
  -29.6060  -17.2170   20.2450 C   0  0  0  0  0  0  0  0  0  0  0  0
  -30.4170  -14.7000   19.7550 C   0  0  0  0  0  0  0  0  0  0  0  0
  -30.1650  -12.4820   18.6150 C   0  0  0  0  0  2  0  0  0  0  0  0
  -29.1020  -12.6330   17.5010 C   0  0  0  0  0  2  0  0  0  0  0  0
  -27.6800  -12.4270   18.0610 C   0  0  0  0  0  2  0  0  0  0  0  0
  -27.4370  -13.2250   19.3710 C   0  0  0  0  0  3  0  0  0  0  0  0
  -28.6000  -13.0350   20.3690 C   0  0  0  0  0  2  0  0  0  0  0  0
  -29.8360  -13.4500   19.6870 N   0  0  0  0  0  0  0  0  0  0  0  0
  -31.5370  -14.8900   19.2650 O   0  0  0  0  0  0  0  0  0  0  0  0
  -29.6310  -15.7210   20.2720 N   0  0  0  0  0  0  0  0  0  0  0  0
  -28.8230  -15.3350   20.7340 H   0  0  0  0  0  0  0  0  0  0  0  0
  -25.1040  -13.7670   20.2950 C   0  0  0  0  0  0  0  0  0  0  0  0
  -24.0890  -12.9700   20.7490 C   0  0  0  0  0  0  0  0  0  0  0  0
  -24.5750  -11.6290   20.6730 C   0  0  0  0  0  0  0  0  0  0  0  0
  -26.1430  -12.9090   19.9680 N   0  0  0  0  0  0  0  0  0  0  0  0
  -25.8350  -11.6180   20.2560 N   0  0  0  0  0  0  0  0  0  0  0  0
  -23.8930  -10.3510   20.9180 C   0  0  0  0  0  0  0  0  0  0  0  0
  -24.3740   -9.4280   21.8710 C   0  0  0  0  0  3  0  0  0  0  0  0
  -23.6890   -8.2140   22.1010 C   0  0  0  0  0  3  0  0  0  0  0  0
  -22.5090   -7.9170   21.3780 C   0  0  0  0  0  0  0  0  0  0  0  0
  -22.0480   -8.8290   20.4140 C   0  0  0  0  0  3  0  0  0  0  0  0
  -22.7330  -10.0330   20.1810 C   0  0  0  0  0  3  0  0  0  0  0  0
  -21.7940   -6.7520   21.5170 O   0  0  0  0  0  0  0  0  0  0  0  0
  -21.7400   -6.0780   22.7100 C   0  0  0  0  0  0  0  0  0  0  0  0
  -21.2720   -6.6910   23.8920 C   0  0  0  0  0  3  0  0  0  0  0  0
  -21.1690   -5.9400   25.0810 C   0  0  0  0  0  3  0  0  0  0  0  0
  -21.5230   -4.5790   25.0870 C   0  0  0  0  0  0  0  0  0  0  0  0
  -21.9850   -3.9650   23.9100 C   0  0  0  0  0  3  0  0  0  0  0  0
  -22.0900   -4.7120   22.7240 C   0  0  0  0  0  0  0  0  0  0  0  0
  -22.5160   -4.1110   21.5870 F   0  0  0  0  0  0  0  0  0  0  0  0
  -21.4170   -3.8550   26.2270 F   0  0  0  0  0  0  0  0  0  0  0  0
  -22.7110  -13.4180   21.1410 C   0  0  0  0  0  0  0  0  0  0  0  0
  -22.0840  -12.7190   22.0810 N   0  0  0  0  0  0  0  0  0  0  0  0
  -22.2000  -14.4220   20.6470 O   0  0  0  0  0  0  0  0  0  0  0  0
  -22.5100  -11.9070   22.5010 H   0  0  0  0  0  0  0  0  0  0  0  0
  -21.1630  -13.0020   22.3860 H   0  0  0  0  0  0  0  0  0  0  0  0
  -25.2240  -15.1400   20.1100 N   0  0  0  0  0  0  0  0  0  0  0  0
  -24.4630  -15.7780   20.3130 H   0  0  0  0  0  0  0  0  0  0  0  0
  -26.0390  -15.6070   19.7330 H   0  0  0  0  0  0  0  0  0  0  0  0
  -25.9320  -17.3650   20.3420 C   0  0  0  0  0  2  0  0  0  0  0  0
  -27.1680  -17.1330   20.8170 C   0  0  0  0  0  3  0  0  0  0  0  0
  -28.4210  -26.2920   20.0090 O   0  0  0  0  0  0  0  0  0  0  0  0
  -24.4620  -31.6310   22.9030 C   0  0  0  0  0  0  0  0  0  0  0  0
  -27.3010  -27.1500   19.8660 C   0  0  0  0  0  0  0  0  0  0  0  0
  -23.3380  -30.1850   21.2490 C   0  0  0  0  0  3  0  0  0  0  0  0
  -24.8710  -28.6960   19.8300 C   0  0  0  0  0  0  0  0  0  0  0  0
  -25.8670  -30.5990   21.0970 C   0  0  0  0  0  2  0  0  0  0  0  0
  -26.0130  -29.2220   20.4440 C   0  0  0  0  0  0  0  0  0  0  0  0
  -27.2270  -28.4610   20.4540 C   0  0  0  0  0  3  0  0  0  0  0  0
  -26.1300  -26.6870   19.2240 C   0  0  0  0  0  3  0  0  0  0  0  0
  -24.9350  -27.4370   19.2090 C   0  0  0  0  0  3  0  0  0  0  0  0
  -23.5970  -29.5190   19.8700 C   0  0  0  0  0  2  0  0  0  0  0  0
  -24.5740  -30.8240   21.8060 N   0  0  0  0  0  0  0  0  0  0  0  0
  -23.3620  -31.8630   23.4260 O   0  0  0  0  0  0  0  0  0  0  0  0
  -22.7050  -29.1430   22.2030 C   0  0  0  0  0  0  0  0  0  0  0  0
  -21.3850  -28.9250   22.0760 N   0  0  0  0  0  0  0  0  0  0  0  0
  -23.4030  -28.5340   23.0180 O   0  0  0  0  0  0  0  0  0  0  0  0
  -20.8790  -29.4710   21.3930 H   0  0  0  0  0  0  0  0  0  0  0  0
  -18.0410  -27.6410   22.5970 C   0  0  0  0  0  0  0  0  0  0  0  0
  -20.5960  -27.9560   22.8410 C   0  0  0  0  0  3  0  0  0  0  0  0
  -20.7240  -26.5380   22.2400 C   0  0  0  0  0  2  0  0  0  0  0  0
  -19.6170  -26.2060   21.2330 C   0  0  0  0  0  2  0  0  0  0  0  0
  -18.2420  -26.3080   21.8950 C   0  0  0  0  0  2  0  0  0  0  0  0
  -19.1470  -28.4210   23.0270 C   0  0  0  0  0  0  0  0  0  0  0  0
  -18.9050  -29.6680   23.6450 C   0  0  0  0  0  3  0  0  0  0  0  0
  -17.5910  -30.1340   23.8360 C   0  0  0  0  0  3  0  0  0  0  0  0
  -16.5000  -29.3510   23.4210 C   0  0  0  0  0  3  0  0  0  0  0  0
  -16.7260  -28.1050   22.8080 C   0  0  0  0  0  3  0  0  0  0  0  0
  -25.7090  -32.3190   23.5410 C   0  0  0  0  0  3  0  0  0  0  0  0
  -25.3130  -33.6780   23.9420 N   0  0  0  0  0  0  0  0  0  0  0  0
  -25.5920  -34.7890   23.2480 C   0  0  0  0  0  0  0  0  0  0  0  0
  -26.2770  -34.7810   22.2220 O   0  0  0  0  0  0  0  0  0  0  0  0
  -24.7010  -33.7520   24.7410 H   0  0  0  0  0  0  0  0  0  0  0  0
  -23.7730  -36.5050   22.9620 C   0  0  0  0  0  1  0  0  0  0  0  0
  -25.0210  -36.1200   23.7740 C   0  0  0  0  0  3  0  0  0  0  0  0
  -27.0870  -37.0700   24.7010 C   0  0  0  0  0  1  0  0  0  0  0  0
  -25.9950  -37.2320   23.7440 N   0  0  0  0  0  0  0  0  0  0  0  0
  -25.5360  -38.1200   23.9340 H   0  0  0  0  0  0  0  0  0  0  0  0
  -26.2910  -31.5270   24.7760 C   0  0  1  0  0  0  0  0  0  0  0  0
  -25.2300  -31.1710   25.8440 C   0  0  0  0  0  1  0  0  0  0  0  0
  -26.9560  -30.2080   24.3180 C   0  0  0  0  0  1  0  0  0  0  0  0
  -27.3970  -32.3640   25.4620 C   0  0  0  0  0  1  0  0  0  0  0  0
  1  3  1  0
  2  1  1  0
  2  5  1  0
  3  7  2  0
  4  1  2  0
  4 54  1  0
  5 12  1  0
  5  3  1  0
  6  2  2  0
  8  9  2  0
  8 12  1  0
  9 13  1  0
 10 11  1  0
 11 53  1  0
 12 10  2  0
 13 22  1  0
 13 11  2  0
 14 22  1  0
 15 20  1  0
 16 17  1  0
 16 15  1  0
 18 17  1  0
 18 27  1  0
 18 19  1  0
 20 14  1  0
 20 19  1  0
 21 14  2  0
 22 23  1  0
 24 25  2  0
 25 44  1  0
 26 25  1  0
 26 29  1  0
 27 28  1  0
 27 24  1  0
 28 26  2  0
 29 30  1  0
 30 31  2  0
 32 35  1  0
 32 31  1  0
 33 32  2  0
 34 33  1  0
 34 29  2  0
 35 36  1  0
 36 41  2  0
 36 37  1  0
 37 38  2  0
 38 39  1  0
 39 43  1  0
 40 39  2  0
 41 40  1  0
 42 41  1  0
 44 45  1  0
 45 48  1  0
 45 47  1  0
 46 44  2  0
 49 24  1  0
 49 50  1  0
 51 49  1  0
 52 53  2  0
 55 66  2  0
 56 54  1  0
 56 61  1  0
 57 65  1  0
 57 67  1  0
 58 64  1  0
 58 60  1  0
 59 65  1  0
 60 61  2  0
 60 59  1  0
 62 56  2  0
 63 62  1  0
 63 58  2  0
 64 57  1  0
 65 55  1  0
 67 69  2  0
 68 67  1  0
 70 68  1  0
 71 80  2  0
 71 76  1  0
 72 68  1  0
 72 76  1  0
 73 72  1  0
 74 75  1  0
 74 73  1  0
 75 71  1  0
 76 77  2  0
 77 78  1  0
 79 78  2  0
 80 79  1  0
 81 55  1  0
 81 82  1  0
 81 91  1  0
 82 85  1  0
 83 87  1  0
 83 82  1  0
 84 83  2  0
 87 86  1  0
 89 87  1  0
 89 90  1  0
 89 88  1  0
 91 94  1  1
 91 92  1  0
 93 91  1  0
M  ISO  4   4 101  14 100  22 100  54 101
M  END
>  <TORSDO>  (48) 
F 18

>  <SCORE>  (48) 
-13.005

>  <name>  (48) 
47

>  <ligand_id>  (48) 
47

>  <original_smiles>  (48) 
[H]C([H])=C([H])c1c([H])c(N2C(=O)C(=C([H])Oc3c([H])c([H])c4c(c3[H])C([H])([H])N(C(=O)C([H])(N([H])C(=O)C([H])(N([H])C([H])([H])[H])C([H])([H])[H])C(C([H])([H])[H])(C([H])([H])[H])C([H])([H])[H])C([H])(C(=O)N([H])C3([H])c5c([H])c([H])c([H])c([H])c5C([H])([H])C([H])([H])C3([H])[H])C4([H])[H])C2=O)c([H])c([H])c1N([H])C(=O)N1C([H])([H])C([H])([H])C([H])([H])C([H])(n2nc(-c3c([H])c([H])c(Oc4c([H])c([H])c(F)c([H])c4F)c([H])c3[H])c(C(=O)N([H])[H])c2N([H])[H])C1([H])[H]

>  <smiles>  (48) 
[H]C([H])=C([H])c1c([H])c(N2C(=O)C(=C([H])Oc3c([H])c([H])c4c(c3[H])C([H])([H])N(C(=O)C([H])(N([H])C(=O)C([H])(N([H])C([H])([H])[H])C([H])([H])[H])C(C([H])([H])[H])(C([H])([H])[H])C([H])([H])[H])C([H])(C(=O)N([H])C3([H])c5c([H])c([H])c([H])c([H])c5C([H])([H])C([H])([H])C3([H])[H])C4([H])[H])C2=O)c([H])c([H])c1N([H])C(=O)N1C([H])([H])C([H])([H])C([H])([H])C([H])(n2nc(-c3c([H])c([H])c(Oc4c([H])c([H])c(F)c([H])c4F)c([H])c3[H])c(C(=O)N([H])[H])c2N([H])[H])C1([H])[H]

$$$$
48:0:0
     RDKit          3D

 93101  0  0  1  0  0  0  0  0999 V2000
  -29.9670  -21.2930   19.4160 C   0  0  0  0  0  0  0  0  0  0  0  0
  -29.2070  -23.5610   19.9640 C   0  0  0  0  0  0  0  0  0  0  0  0
  -29.3690  -22.2260   20.1980 N   0  0  0  0  0  0  0  0  0  0  0  0
  -30.5400  -21.5580   18.3510 O   0  0  0  0  0  0  0  0  0  0  0  0
  -29.5330  -24.1310   18.9160 O   0  0  0  0  0  0  0  0  0  0  0  0
  -29.0180  -21.8810   21.0770 H   0  0  0  0  0  0  0  0  0  0  0  0
  -31.1270  -19.0360   19.5980 C   0  0  0  0  0  3  0  0  0  0  0  0
  -28.8870  -19.2000   20.4880 C   0  0  0  0  0  3  0  0  0  0  0  0
  -31.1500  -17.6470   19.8690 C   0  0  0  0  0  3  0  0  0  0  0  0
  -28.9080  -17.8040   20.7590 C   0  0  0  0  0  3  0  0  0  0  0  0
  -29.9970  -19.8400   19.8820 C   0  0  0  0  0  0  0  0  0  0  0  0
  -30.0250  -16.9920   20.4320 C   0  0  0  0  0  0  0  0  0  0  0  0
  -30.6500  -14.5410   20.1220 C   0  0  0  0  0  0  0  0  0  0  0  0
  -30.3060  -12.3910   18.9560 C   0  0  0  0  0  2  0  0  0  0  0  0
  -29.3060  -12.6270   17.8030 C   0  0  0  0  0  2  0  0  0  0  0  0
  -27.8550  -12.4790   18.3020 C   0  0  0  0  0  2  0  0  0  0  0  0
  -27.5840  -13.2830   19.6020 C   0  0  0  0  0  3  0  0  0  0  0  0
  -28.6930  -13.0290   20.6490 C   0  0  0  0  0  2  0  0  0  0  0  0
  -29.9860  -13.3520   20.0250 N   0  0  0  0  0  0  0  0  0  0  0  0
  -31.7740  -14.6960   19.6380 O   0  0  0  0  0  0  0  0  0  0  0  0
  -29.9350  -15.5650   20.6570 N   0  0  0  0  0  0  0  0  0  0  0  0
  -29.0800  -15.2590   21.0960 H   0  0  0  0  0  0  0  0  0  0  0  0
  -25.2260  -13.8840   20.4390 C   0  0  0  0  0  0  0  0  0  0  0  0
  -24.1730  -13.1090   20.8430 C   0  0  0  0  0  0  0  0  0  0  0  0
  -24.6270  -11.7560   20.7650 C   0  0  0  0  0  0  0  0  0  0  0  0
  -26.2550  -13.0040   20.1400 N   0  0  0  0  0  0  0  0  0  0  0  0
  -25.9010  -11.7180   20.3950 N   0  0  0  0  0  0  0  0  0  0  0  0
  -23.9060  -10.4930   20.9670 C   0  0  0  0  0  0  0  0  0  0  0  0
  -24.3520   -9.5260   21.8950 C   0  0  0  0  0  3  0  0  0  0  0  0
  -23.6300   -8.3280   22.0830 C   0  0  0  0  0  3  0  0  0  0  0  0
  -22.4480   -8.0880   21.3420 C   0  0  0  0  0  0  0  0  0  0  0  0
  -22.0220   -9.0430   20.4020 C   0  0  0  0  0  3  0  0  0  0  0  0
  -22.7450  -10.2320   20.2120 C   0  0  0  0  0  3  0  0  0  0  0  0
  -21.6970   -6.9410   21.4400 O   0  0  0  0  0  0  0  0  0  0  0  0
  -21.6390   -6.2170   22.6040 C   0  0  0  0  0  0  0  0  0  0  0  0
  -21.1550   -6.7780   23.8080 C   0  0  0  0  0  3  0  0  0  0  0  0
  -21.0460   -5.9770   24.9620 C   0  0  0  0  0  3  0  0  0  0  0  0
  -21.4110   -4.6170   24.9150 C   0  0  0  0  0  0  0  0  0  0  0  0
  -21.8870   -4.0580   23.7160 C   0  0  0  0  0  3  0  0  0  0  0  0
  -21.9980   -4.8550   22.5640 C   0  0  0  0  0  0  0  0  0  0  0  0
  -22.4370   -4.3050   21.4070 F   0  0  0  0  0  0  0  0  0  0  0  0
  -21.2980   -3.8460   26.0210 F   0  0  0  0  0  0  0  0  0  0  0  0
  -22.7930  -13.5850   21.1880 C   0  0  0  0  0  0  0  0  0  0  0  0
  -22.0950  -12.8660   22.0600 N   0  0  0  0  0  0  0  0  0  0  0  0
  -22.3420  -14.6320   20.7230 O   0  0  0  0  0  0  0  0  0  0  0  0
  -22.4700  -12.0180   22.4570 H   0  0  0  0  0  0  0  0  0  0  0  0
  -21.1700  -13.1680   22.3340 H   0  0  0  0  0  0  0  0  0  0  0  0
  -25.3920  -15.2570   20.2820 N   0  0  0  0  0  0  0  0  0  0  0  0
  -24.6390  -15.9150   20.4520 H   0  0  0  0  0  0  0  0  0  0  0  0
  -26.2310  -15.6980   19.9270 H   0  0  0  0  0  0  0  0  0  0  0  0
  -28.6020  -24.2530   21.1020 C   0  0  0  0  0  3  0  0  0  0  0  0
  -28.2670  -25.5720   21.1910 C   0  0  0  0  0  3  0  0  0  0  0  0
  -28.3940  -26.5880   20.2570 O   0  0  0  0  0  0  0  0  0  0  0  0
  -24.5590  -31.8610   23.2030 C   0  0  0  0  0  0  0  0  0  0  0  0
  -27.2870  -27.4130   20.1830 C   0  0  0  0  0  0  0  0  0  0  0  0
  -23.3970  -30.4530   21.5370 C   0  0  0  0  0  3  0  0  0  0  0  0
  -24.8920  -28.9240   20.1380 C   0  0  0  0  0  0  0  0  0  0  0  0
  -25.9260  -30.8230   21.3920 C   0  0  0  0  0  2  0  0  0  0  0  0
  -26.0370  -29.4500   20.7520 C   0  0  0  0  0  0  0  0  0  0  0  0
  -27.2420  -28.7020   20.7740 C   0  0  0  0  0  3  0  0  0  0  0  0
  -26.1300  -26.9120   19.5560 C   0  0  0  0  0  3  0  0  0  0  0  0
  -24.9350  -27.6540   19.5350 C   0  0  0  0  0  3  0  0  0  0  0  0
  -23.6410  -29.7750   20.1610 C   0  0  0  0  0  2  0  0  0  0  0  0
  -24.6450  -31.0600   22.1030 N   0  0  0  0  0  0  0  0  0  0  0  0
  -23.4650  -32.1270   23.7200 O   0  0  0  0  0  0  0  0  0  0  0  0
  -22.7310  -29.4290   22.4850 C   0  0  0  0  0  0  0  0  0  0  0  0
  -21.4040  -29.2590   22.3510 N   0  0  0  0  0  0  0  0  0  0  0  0
  -23.4050  -28.7890   23.2970 O   0  0  0  0  0  0  0  0  0  0  0  0
  -20.9220  -29.8290   21.6710 H   0  0  0  0  0  0  0  0  0  0  0  0
  -18.0100  -28.1240   22.8610 C   0  0  0  0  0  0  0  0  0  0  0  0
  -20.5760  -28.3190   23.1090 C   0  0  0  0  0  3  0  0  0  0  0  0
  -20.6390  -26.9010   22.4950 C   0  0  0  0  0  2  0  0  0  0  0  0
  -19.5190  -26.6300   21.4880 C   0  0  0  0  0  2  0  0  0  0  0  0
  -18.1470  -26.7880   22.1510 C   0  0  0  0  0  2  0  0  0  0  0  0
  -19.1500  -28.8500   23.2970 C   0  0  0  0  0  0  0  0  0  0  0  0
  -18.9670  -30.1030   23.9210 C   0  0  0  0  0  3  0  0  0  0  0  0
  -17.6760  -30.6300   24.1160 C   0  0  0  0  0  3  0  0  0  0  0  0
  -16.5500  -29.8990   23.6980 C   0  0  0  0  0  3  0  0  0  0  0  0
  -16.7180  -28.6490   23.0760 C   0  0  0  0  0  3  0  0  0  0  0  0
  -25.8280  -32.5020   23.8490 C   0  0  0  0  0  3  0  0  0  0  0  0
  -25.5040  -33.8970   24.1730 N   0  0  0  0  0  0  0  0  0  0  0  0
  -25.8390  -34.9530   23.4160 C   0  0  0  0  0  0  0  0  0  0  0  0
  -26.5250  -34.8530   22.3950 O   0  0  0  0  0  0  0  0  0  0  0  0
  -24.8990  -34.0480   24.9660 H   0  0  0  0  0  0  0  0  0  0  0  0
  -24.1070  -36.7330   23.0250 C   0  0  0  0  0  1  0  0  0  0  0  0
  -25.3310  -36.3360   23.8630 C   0  0  0  0  0  3  0  0  0  0  0  0
  -27.4370  -37.2390   24.7470 C   0  0  0  0  0  1  0  0  0  0  0  0
  -26.3580  -37.3980   23.7750 N   0  0  0  0  0  0  0  0  0  0  0  0
  -25.9410  -38.3150   23.9100 H   0  0  0  0  0  0  0  0  0  0  0  0
  -26.3260  -31.7320   25.1330 C   0  0  1  0  0  0  0  0  0  0  0  0
  -25.2150  -31.4810   26.1810 C   0  0  0  0  0  1  0  0  0  0  0  0
  -26.9280  -30.3610   24.7480 C   0  0  0  0  0  1  0  0  0  0  0  0
  -27.4550  -32.5360   25.8190 C   0  0  0  0  0  1  0  0  0  0  0  0
  1 11  1  0
  1  3  1  0
  2  3  1  0
  2 51  1  0
  3  6  1  0
  4  1  2  0
  5  2  2  0
  7  9  2  0
  7 11  1  0
  8 10  1  0
  9 12  1  0
 11  8  2  0
 12 21  1  0
 12 10  2  0
 13 21  1  0
 14 19  1  0
 15 16  1  0
 15 14  1  0
 17 16  1  0
 17 26  1  0
 17 18  1  0
 19 13  1  0
 19 18  1  0
 20 13  2  0
 21 22  1  0
 23 24  2  0
 24 43  1  0
 25 24  1  0
 25 28  1  0
 26 27  1  0
 26 23  1  0
 27 25  2  0
 28 29  1  0
 29 30  2  0
 31 34  1  0
 31 30  1  0
 32 31  2  0
 33 32  1  0
 33 28  2  0
 34 35  1  0
 35 36  1  0
 36 37  2  0
 38 37  1  0
 38 42  1  0
 39 38  2  0
 40 35  2  0
 40 39  1  0
 41 40  1  0
 43 44  1  0
 44 47  1  0
 44 46  1  0
 45 43  2  0
 48 23  1  0
 48 49  1  0
 50 48  1  0
 51 52  2  0
 53 52  1  0
 54 65  2  0
 55 53  1  0
 55 60  1  0
 56 64  1  0
 56 66  1  0
 57 63  1  0
 57 59  1  0
 58 64  1  0
 59 60  2  0
 59 58  1  0
 61 55  2  0
 62 61  1  0
 62 57  2  0
 63 56  1  0
 64 54  1  0
 66 68  2  0
 67 66  1  0
 69 67  1  0
 70 79  2  0
 70 75  1  0
 71 67  1  0
 71 75  1  0
 72 71  1  0
 73 74  1  0
 73 72  1  0
 74 70  1  0
 75 76  2  0
 76 77  1  0
 78 77  2  0
 79 78  1  0
 80 54  1  0
 80 81  1  0
 80 90  1  0
 81 84  1  0
 82 86  1  0
 82 81  1  0
 83 82  2  0
 86 85  1  0
 88 86  1  0
 88 89  1  0
 88 87  1  0
 90 93  1  1
 90 91  1  0
 92 90  1  0
M  ISO  4  13 100  21 100  52 101  53 101
M  END
>  <TORSDO>  (49) 
F 18

>  <SCORE>  (49) 
-14.706

>  <name>  (49) 
48

>  <ligand_id>  (49) 
48

>  <original_smiles>  (49) 
[H]C(Oc1c([H])c([H])c2c(c1[H])C([H])([H])N(C(=O)C([H])(N([H])C(=O)C([H])(N([H])C([H])([H])[H])C([H])([H])[H])C(C([H])([H])[H])(C([H])([H])[H])C([H])([H])[H])C([H])(C(=O)N([H])C1([H])c3c([H])c([H])c([H])c([H])c3C([H])([H])C([H])([H])C1([H])[H])C2([H])[H])=C([H])C(=O)N([H])C(=O)c1c([H])c([H])c(N([H])C(=O)N2C([H])([H])C([H])([H])C([H])([H])C([H])(n3nc(-c4c([H])c([H])c(Oc5c([H])c([H])c(F)c([H])c5F)c([H])c4[H])c(C(=O)N([H])[H])c3N([H])[H])C2([H])[H])c([H])c1[H]

>  <smiles>  (49) 
[H]C(Oc1c([H])c([H])c2c(c1[H])C([H])([H])N(C(=O)C([H])(N([H])C(=O)C([H])(N([H])C([H])([H])[H])C([H])([H])[H])C(C([H])([H])[H])(C([H])([H])[H])C([H])([H])[H])C([H])(C(=O)N([H])C1([H])c3c([H])c([H])c([H])c([H])c3C([H])([H])C([H])([H])C1([H])[H])C2([H])[H])=C([H])C(=O)N([H])C(=O)c1c([H])c([H])c(N([H])C(=O)N2C([H])([H])C([H])([H])C([H])([H])C([H])(n3nc(-c4c([H])c([H])c(Oc5c([H])c([H])c(F)c([H])c5F)c([H])c4[H])c(C(=O)N([H])[H])c3N([H])[H])C2([H])[H])c([H])c1[H]

$$$$
49:0:0
     RDKit          3D

 95104  0  0  1  0  0  0  0  0999 V2000
  -29.2630  -24.2070   19.8820 C   0  0  0  0  0  0  0  0  0  0  0  0
  -29.0530  -22.7300   20.1800 C   0  0  0  0  0  0  0  0  0  0  0  0
  -31.6180  -23.6960   19.3000 C   0  0  0  0  0  0  0  0  0  0  0  0
  -32.8470  -24.1090   19.6560 C   0  0  0  0  0  2  0  0  0  0  0  0
  -28.3800  -25.1790   20.3150 C   0  0  0  0  0  3  0  0  0  0  0  0
  -30.4720  -24.6400   19.0680 C   0  0  0  0  0  2  0  0  0  0  0  0
  -31.2500  -22.2430   19.0880 C   0  0  0  0  0  2  0  0  0  0  0  0
  -30.0230  -21.7970   19.7840 N   0  0  0  0  0  0  0  0  0  0  0  0
  -28.0320  -22.3420   20.7580 O   0  0  0  0  0  0  0  0  0  0  0  0
  -29.3970  -19.6340   21.0520 C   0  0  0  0  0  3  0  0  0  0  0  0
  -29.4200  -18.2030   21.1790 C   0  0  0  0  0  3  0  0  0  0  0  0
  -30.4850  -19.4280   18.9340 C   0  0  0  0  0  3  0  0  0  0  0  0
  -29.9340  -20.3100   19.9210 C   0  0  0  0  0  0  0  0  0  0  0  0
  -29.9810  -17.3340   20.1960 C   0  0  0  0  0  0  0  0  0  0  0  0
  -30.5010  -18.0000   19.0500 C   0  0  0  0  0  0  0  0  0  0  0  0
  -30.9940  -17.2800   18.0140 F   0  0  0  0  0  0  0  0  0  0  0  0
  -30.6730  -14.8020   19.9750 C   0  0  0  0  0  0  0  0  0  0  0  0
  -30.4610  -12.5200   18.9890 C   0  0  0  0  0  2  0  0  0  0  0  0
  -29.4620  -12.5820   17.8100 C   0  0  0  0  0  2  0  0  0  0  0  0
  -28.0160  -12.4000   18.3080 C   0  0  0  0  0  2  0  0  0  0  0  0
  -27.6910  -13.2940   19.5350 C   0  0  0  0  0  3  0  0  0  0  0  0
  -28.8000  -13.2040   20.6070 C   0  0  0  0  0  2  0  0  0  0  0  0
  -30.0720  -13.5650   19.9630 N   0  0  0  0  0  0  0  0  0  0  0  0
  -31.8210  -14.9400   19.5460 O   0  0  0  0  0  0  0  0  0  0  0  0
  -29.8920  -15.8680   20.3750 N   0  0  0  0  0  0  0  0  0  0  0  0
  -29.0420  -15.5650   20.8240 H   0  0  0  0  0  0  0  0  0  0  0  0
  -25.3470  -13.8790   20.4080 C   0  0  0  0  0  0  0  0  0  0  0  0
  -24.2960  -13.1010   20.8120 C   0  0  0  0  0  0  0  0  0  0  0  0
  -24.7460  -11.7490   20.7150 C   0  0  0  0  0  0  0  0  0  0  0  0
  -26.3700  -13.0020   20.0870 N   0  0  0  0  0  0  0  0  0  0  0  0
  -26.0180  -11.7130   20.3340 N   0  0  0  0  0  0  0  0  0  0  0  0
  -24.0220  -10.4870   20.9070 C   0  0  0  0  0  0  0  0  0  0  0  0
  -24.4350   -9.5400   21.8700 C   0  0  0  0  0  3  0  0  0  0  0  0
  -23.7100   -8.3400   22.0510 C   0  0  0  0  0  3  0  0  0  0  0  0
  -22.5600   -8.0810   21.2690 C   0  0  0  0  0  0  0  0  0  0  0  0
  -22.1660   -9.0180   20.2980 C   0  0  0  0  0  3  0  0  0  0  0  0
  -22.8910  -10.2080   20.1150 C   0  0  0  0  0  3  0  0  0  0  0  0
  -21.8090   -6.9320   21.3560 O   0  0  0  0  0  0  0  0  0  0  0  0
  -21.6630   -6.2580   22.5420 C   0  0  0  0  0  0  0  0  0  0  0  0
  -21.0600   -6.8560   23.6700 C   0  0  0  0  0  3  0  0  0  0  0  0
  -20.8630   -6.1040   24.8450 C   0  0  0  0  0  3  0  0  0  0  0  0
  -21.2610   -4.7560   24.8930 C   0  0  0  0  0  0  0  0  0  0  0  0
  -21.8580   -4.1560   23.7700 C   0  0  0  0  0  3  0  0  0  0  0  0
  -22.0560   -4.9060   22.5970 C   0  0  0  0  0  0  0  0  0  0  0  0
  -22.6120   -4.3180   21.5100 F   0  0  0  0  0  0  0  0  0  0  0  0
  -21.0660   -4.0300   26.0200 F   0  0  0  0  0  0  0  0  0  0  0  0
  -22.9190  -13.5790   21.1700 C   0  0  0  0  0  0  0  0  0  0  0  0
  -22.2380  -12.8700   22.0640 N   0  0  0  0  0  0  0  0  0  0  0  0
  -22.4550  -14.6140   20.6940 O   0  0  0  0  0  0  0  0  0  0  0  0
  -22.6250  -12.0340   22.4750 H   0  0  0  0  0  0  0  0  0  0  0  0
  -21.3170  -13.1720   22.3460 H   0  0  0  0  0  0  0  0  0  0  0  0
  -25.5090  -15.2540   20.2640 N   0  0  0  0  0  0  0  0  0  0  0  0
  -24.7510  -15.9050   20.4380 H   0  0  0  0  0  0  0  0  0  0  0  0
  -26.3350  -15.7040   19.8910 H   0  0  0  0  0  0  0  0  0  0  0  0
  -28.4760  -26.5770   20.0860 O   0  0  0  0  0  0  0  0  0  0  0  0
  -24.6150  -31.9000   23.1240 C   0  0  0  0  0  0  0  0  0  0  0  0
  -27.3270  -27.3900   20.0740 C   0  0  0  0  0  0  0  0  0  0  0  0
  -23.4380  -30.4790   21.4830 C   0  0  0  0  0  3  0  0  0  0  0  0
  -24.9210  -28.9520   20.0570 C   0  0  0  0  0  0  0  0  0  0  0  0
  -25.9680  -30.8470   21.2990 C   0  0  0  0  0  2  0  0  0  0  0  0
  -26.0780  -29.4680   20.6570 C   0  0  0  0  0  0  0  0  0  0  0  0
  -27.2810  -28.6980   20.6550 C   0  0  0  0  0  3  0  0  0  0  0  0
  -26.1480  -26.9300   19.4460 C   0  0  0  0  0  3  0  0  0  0  0  0
  -24.9580  -27.6890   19.4430 C   0  0  0  0  0  3  0  0  0  0  0  0
  -23.6670  -29.8030   20.1030 C   0  0  0  0  0  2  0  0  0  0  0  0
  -24.6920  -31.0920   22.0260 N   0  0  0  0  0  0  0  0  0  0  0  0
  -23.5270  -32.1570   23.6590 O   0  0  0  0  0  0  0  0  0  0  0  0
  -22.7900  -29.4530   22.4440 C   0  0  0  0  0  0  0  0  0  0  0  0
  -21.4680  -29.2530   22.3150 N   0  0  0  0  0  0  0  0  0  0  0  0
  -23.4780  -28.8410   23.2650 O   0  0  0  0  0  0  0  0  0  0  0  0
  -20.9710  -29.7970   21.6230 H   0  0  0  0  0  0  0  0  0  0  0  0
  -18.1130  -27.9890   22.7990 C   0  0  0  0  0  0  0  0  0  0  0  0
  -20.6630  -28.3020   23.0850 C   0  0  0  0  0  3  0  0  0  0  0  0
  -20.7980  -26.8720   22.5160 C   0  0  0  0  0  2  0  0  0  0  0  0
  -19.7100  -26.5240   21.4940 C   0  0  0  0  0  2  0  0  0  0  0  0
  -18.3210  -26.6420   22.1290 C   0  0  0  0  0  2  0  0  0  0  0  0
  -19.2130  -28.7760   23.2340 C   0  0  0  0  0  0  0  0  0  0  0  0
  -18.9650  -30.0360   23.8210 C   0  0  0  0  0  3  0  0  0  0  0  0
  -17.6480  -30.5090   23.9770 C   0  0  0  0  0  3  0  0  0  0  0  0
  -16.5620  -29.7200   23.5580 C   0  0  0  0  0  3  0  0  0  0  0  0
  -16.7950  -28.4620   22.9750 C   0  0  0  0  0  3  0  0  0  0  0  0
  -25.8850  -32.5540   23.7500 C   0  0  0  0  0  3  0  0  0  0  0  0
  -25.5440  -33.9410   24.1000 N   0  0  0  0  0  0  0  0  0  0  0  0
  -25.8400  -35.0110   23.3510 C   0  0  0  0  0  0  0  0  0  0  0  0
  -26.4990  -34.9360   22.3100 O   0  0  0  0  0  0  0  0  0  0  0  0
  -24.9500  -34.0680   24.9070 H   0  0  0  0  0  0  0  0  0  0  0  0
  -24.0740  -36.7710   23.0310 C   0  0  0  0  0  1  0  0  0  0  0  0
  -25.3260  -36.3830   23.8320 C   0  0  0  0  0  3  0  0  0  0  0  0
  -27.4370  -37.3100   24.6760 C   0  0  0  0  0  1  0  0  0  0  0  0
  -26.3370  -37.4590   23.7280 N   0  0  0  0  0  0  0  0  0  0  0  0
  -25.9090  -38.3700   23.8730 H   0  0  0  0  0  0  0  0  0  0  0  0
  -26.4230  -31.7790   25.0150 C   0  0  1  0  0  0  0  0  0  0  0  0
  -25.3370  -31.4960   26.0810 C   0  0  0  0  0  1  0  0  0  0  0  0
  -27.0410  -30.4230   24.6040 C   0  0  0  0  0  1  0  0  0  0  0  0
  -27.5560  -32.5930   25.6840 C   0  0  0  0  0  1  0  0  0  0  0  0
  1  2  1  0
  1  5  2  0
  2  9  2  0
  3  4  2  0
  6  3  1  0
  6  1  1  0
  7  3  1  0
  7  8  1  0
  8 13  1  0
  8  2  1  0
 10 11  1  0
 12 15  2  0
 12 13  1  0
 13 10  2  0
 14 25  1  0
 14 11  2  0
 15 14  1  0
 16 15  1  0
 17 25  1  0
 18 23  1  0
 19 20  1  0
 19 18  1  0
 21 20  1  0
 21 30  1  0
 21 22  1  0
 23 17  1  0
 23 22  1  0
 24 17  2  0
 25 26  1  0
 27 28  2  0
 28 47  1  0
 29 28  1  0
 29 32  1  0
 30 31  1  0
 30 27  1  0
 31 29  2  0
 32 33  1  0
 33 34  2  0
 35 38  1  0
 35 34  1  0
 36 35  2  0
 37 36  1  0
 37 32  2  0
 38 39  1  0
 39 44  2  0
 39 40  1  0
 40 41  2  0
 41 42  1  0
 42 46  1  0
 43 42  2  0
 44 43  1  0
 45 44  1  0
 47 48  1  0
 48 51  1  0
 48 50  1  0
 49 47  2  0
 52 27  1  0
 52 53  1  0
 54 52  1  0
 55  5  1  0
 56 67  2  0
 57 55  1  0
 57 62  1  0
 58 66  1  0
 58 68  1  0
 59 65  1  0
 59 61  1  0
 60 66  1  0
 61 60  1  0
 62 61  2  0
 63 57  2  0
 64 63  1  0
 64 59  2  0
 65 58  1  0
 66 56  1  0
 68 70  2  0
 69 68  1  0
 71 69  1  0
 72 81  2  0
 72 77  1  0
 73 69  1  0
 73 77  1  0
 74 73  1  0
 75 76  1  0
 75 74  1  0
 76 72  1  0
 77 78  2  0
 78 79  1  0
 80 79  2  0
 81 80  1  0
 82 56  1  0
 82 83  1  0
 82 92  1  0
 83 86  1  0
 84 88  1  0
 84 83  1  0
 85 84  2  0
 88 87  1  0
 90 88  1  0
 90 91  1  0
 90 89  1  0
 92 95  1  1
 92 93  1  0
 94 92  1  0
M  ISO  4   5 101  17 100  25 100  55 101
M  END
>  <TORSDO>  (50) 
F 17

>  <SCORE>  (50) 
-14.734

>  <name>  (50) 
49

>  <ligand_id>  (50) 
49

>  <original_smiles>  (50) 
[H]C([H])=C1C([H])([H])C(=C([H])Oc2c([H])c([H])c3c(c2[H])C([H])([H])N(C(=O)C([H])(N([H])C(=O)C([H])(N([H])C([H])([H])[H])C([H])([H])[H])C(C([H])([H])[H])(C([H])([H])[H])C([H])([H])[H])C([H])(C(=O)N([H])C2([H])c4c([H])c([H])c([H])c([H])c4C([H])([H])C([H])([H])C2([H])[H])C3([H])[H])C(=O)N(c2c([H])c([H])c(N([H])C(=O)N3C([H])([H])C([H])([H])C([H])([H])C([H])(n4nc(-c5c([H])c([H])c(Oc6c([H])c([H])c(F)c([H])c6F)c([H])c5[H])c(C(=O)N([H])[H])c4N([H])[H])C3([H])[H])c(F)c2[H])C1([H])[H]

>  <smiles>  (50) 
[H]C([H])=C1C([H])([H])C(=C([H])Oc2c([H])c([H])c3c(c2[H])C([H])([H])N(C(=O)C([H])(N([H])C(=O)C([H])(N([H])C([H])([H])[H])C([H])([H])[H])C(C([H])([H])[H])(C([H])([H])[H])C([H])([H])[H])C([H])(C(=O)N([H])C2([H])c4c([H])c([H])c([H])c([H])c4C([H])([H])C([H])([H])C2([H])[H])C3([H])[H])C(=O)N(c2c([H])c([H])c(N([H])C(=O)N3C([H])([H])C([H])([H])C([H])([H])C([H])(n4nc(-c5c([H])c([H])c(Oc6c([H])c([H])c(F)c([H])c6F)c([H])c5[H])c(C(=O)N([H])[H])c4N([H])[H])C3([H])[H])c(F)c2[H])C1([H])[H]

$$$$
50:0:0
     RDKit          3D

 95104  0  0  1  0  0  0  0  0999 V2000
  -27.2790  -23.0920   19.7830 C   0  0  0  0  0  0  0  0  0  0  0  0
  -28.3240  -23.9360   19.7390 C   0  0  0  0  0  0  0  0  0  0  0  0
  -27.7240  -21.7710   20.2110 C   0  0  0  0  0  0  0  0  0  0  0  0
  -29.4880  -23.0960   20.0520 C   0  0  0  0  0  0  0  0  0  0  0  0
  -25.8440  -23.3550   19.3490 C   0  0  0  0  0  1  0  0  0  0  0  0
  -29.0660  -21.8140   20.3310 N   0  0  0  0  0  0  0  0  0  0  0  0
  -27.0130  -20.7820   20.4200 O   0  0  0  0  0  0  0  0  0  0  0  0
  -30.6680  -23.4660   20.0200 O   0  0  0  0  0  0  0  0  0  0  0  0
  -31.8860  -20.1370   22.1780 C   0  0  0  0  0  3  0  0  0  0  0  0
  -31.6940  -18.7720   21.9360 C   0  0  0  0  0  3  0  0  0  0  0  0
  -30.9940  -21.0790   21.6640 C   0  0  0  0  0  3  0  0  0  0  0  0
  -29.6970  -19.2690   20.6520 C   0  0  0  0  0  3  0  0  0  0  0  0
  -30.5820  -18.2640   21.2190 C   0  0  0  0  0  0  0  0  0  0  0  0
  -29.9000  -20.7020   20.8500 C   0  0  0  0  0  0  0  0  0  0  0  0
  -30.5290  -16.7100   21.1450 C   0  0  0  0  0  3  0  0  0  0  0  0
  -30.9300  -16.0280   22.4660 C   0  0  0  0  0  1  0  0  0  0  0  0
  -30.2300  -15.9760   20.1160 N   0  0  0  0  0  2  0  0  0  0  0  0
  -30.8950  -14.7330   19.9140 C   0  0  0  0  0  0  0  0  0  0  0  0
  -30.5240  -12.4850   18.9510 C   0  0  0  0  0  2  0  0  0  0  0  0
  -29.5570  -12.6340   17.7570 C   0  0  0  0  0  2  0  0  0  0  0  0
  -28.0970  -12.5140   18.2370 C   0  0  0  0  0  2  0  0  0  0  0  0
  -27.8020  -13.4030   19.4750 C   0  0  0  0  0  3  0  0  0  0  0  0
  -28.8970  -13.2830   20.5510 C   0  0  0  0  0  2  0  0  0  0  0  0
  -30.1960  -13.5530   19.9230 N   0  0  0  0  0  0  0  0  0  0  0  0
  -32.0680  -14.7320   19.5440 O   0  0  0  0  0  0  0  0  0  0  0  0
  -25.4710  -14.0390   20.3390 C   0  0  0  0  0  0  0  0  0  0  0  0
  -24.4050  -13.2850   20.7500 C   0  0  0  0  0  0  0  0  0  0  0  0
  -24.8300  -11.9230   20.6720 C   0  0  0  0  0  0  0  0  0  0  0  0
  -26.4760  -13.1380   20.0290 N   0  0  0  0  0  0  0  0  0  0  0  0
  -26.1010  -11.8590   20.2930 N   0  0  0  0  0  0  0  0  0  0  0  0
  -24.0800  -10.6760   20.8780 C   0  0  0  0  0  0  0  0  0  0  0  0
  -24.5090   -9.6980   21.8030 C   0  0  0  0  0  3  0  0  0  0  0  0
  -23.7590   -8.5180   21.9960 C   0  0  0  0  0  3  0  0  0  0  0  0
  -22.5660   -8.3060   21.2640 C   0  0  0  0  0  0  0  0  0  0  0  0
  -22.1560   -9.2730   20.3290 C   0  0  0  0  0  3  0  0  0  0  0  0
  -22.9060  -10.4450   20.1330 C   0  0  0  0  0  3  0  0  0  0  0  0
  -21.7880   -7.1790   21.3660 O   0  0  0  0  0  0  0  0  0  0  0  0
  -21.7120   -6.4600   22.5310 C   0  0  0  0  0  0  0  0  0  0  0  0
  -21.2970   -7.0500   23.7460 C   0  0  0  0  0  3  0  0  0  0  0  0
  -21.1660   -6.2610   24.9050 C   0  0  0  0  0  3  0  0  0  0  0  0
  -21.4400   -4.8810   24.8520 C   0  0  0  0  0  0  0  0  0  0  0  0
  -21.8460   -4.2890   23.6430 C   0  0  0  0  0  3  0  0  0  0  0  0
  -21.9800   -5.0770   22.4860 C   0  0  0  0  0  0  0  0  0  0  0  0
  -22.3510   -4.4980   21.3190 F   0  0  0  0  0  0  0  0  0  0  0  0
  -21.3060   -4.1190   25.9630 F   0  0  0  0  0  0  0  0  0  0  0  0
  -23.0360  -13.7930   21.1010 C   0  0  0  0  0  0  0  0  0  0  0  0
  -22.3460  -13.1130   22.0090 N   0  0  0  0  0  0  0  0  0  0  0  0
  -22.5920  -14.8270   20.6040 O   0  0  0  0  0  0  0  0  0  0  0  0
  -22.7180  -12.2780   22.4320 H   0  0  0  0  0  0  0  0  0  0  0  0
  -21.4290  -13.4360   22.2860 H   0  0  0  0  0  0  0  0  0  0  0  0
  -25.6650  -15.4080   20.1810 N   0  0  0  0  0  0  0  0  0  0  0  0
  -24.9310  -16.0860   20.3590 H   0  0  0  0  0  0  0  0  0  0  0  0
  -26.5280  -15.8280   19.8560 H   0  0  0  0  0  0  0  0  0  0  0  0
  -28.3850  -25.3790   19.1080 C   0  0  0  0  0  2  0  0  0  0  0  0
  -28.2610  -26.5960   19.9440 O   0  0  0  0  0  0  0  0  0  0  0  0
  -24.5290  -31.8450   23.1930 C   0  0  0  0  0  0  0  0  0  0  0  0
  -27.1200  -27.4110   19.9310 C   0  0  0  0  0  0  0  0  0  0  0  0
  -23.3040  -30.4800   21.5420 C   0  0  0  0  0  3  0  0  0  0  0  0
  -24.7360  -28.9900   20.0370 C   0  0  0  0  0  0  0  0  0  0  0  0
  -25.8350  -30.8320   21.3090 C   0  0  0  0  0  2  0  0  0  0  0  0
  -25.9120  -29.4740   20.6220 C   0  0  0  0  0  0  0  0  0  0  0  0
  -27.1030  -28.6910   20.5690 C   0  0  0  0  0  3  0  0  0  0  0  0
  -25.9170  -26.9830   19.3320 C   0  0  0  0  0  3  0  0  0  0  0  0
  -24.7390  -27.7480   19.3870 C   0  0  0  0  0  3  0  0  0  0  0  0
  -23.4930  -29.8490   20.1380 C   0  0  0  0  0  2  0  0  0  0  0  0
  -24.5770  -31.0670   22.0720 N   0  0  0  0  0  0  0  0  0  0  0  0
  -23.4560  -32.0940   23.7590 O   0  0  0  0  0  0  0  0  0  0  0  0
  -22.6750  -29.4270   22.4830 C   0  0  0  0  0  0  0  0  0  0  0  0
  -21.3520  -29.2260   22.3660 N   0  0  0  0  0  0  0  0  0  0  0  0
  -23.3780  -28.7950   23.2770 O   0  0  0  0  0  0  0  0  0  0  0  0
  -20.8420  -29.7940   21.7050 H   0  0  0  0  0  0  0  0  0  0  0  0
  -18.0180  -27.9120   22.8400 C   0  0  0  0  0  0  0  0  0  0  0  0
  -20.5640  -28.2520   23.1230 C   0  0  0  0  0  3  0  0  0  0  0  0
  -20.7160  -26.8300   22.5330 C   0  0  0  0  0  2  0  0  0  0  0  0
  -19.6280  -26.4830   21.5110 C   0  0  0  0  0  2  0  0  0  0  0  0
  -18.2410  -26.5750   22.1530 C   0  0  0  0  0  2  0  0  0  0  0  0
  -19.1090  -28.7060   23.2810 C   0  0  0  0  0  0  0  0  0  0  0  0
  -18.8510  -29.9570   23.8810 C   0  0  0  0  0  3  0  0  0  0  0  0
  -17.5300  -30.4180   24.0420 C   0  0  0  0  0  3  0  0  0  0  0  0
  -16.4510  -29.6230   23.6180 C   0  0  0  0  0  3  0  0  0  0  0  0
  -16.6950  -28.3730   23.0210 C   0  0  0  0  0  3  0  0  0  0  0  0
  -25.8190  -32.4740   23.8020 C   0  0  0  0  0  3  0  0  0  0  0  0
  -26.3730  -31.6700   25.0420 C   0  0  1  0  0  0  0  0  0  0  0  0
  -25.3090  -31.3900   26.1290 C   0  0  0  0  0  1  0  0  0  0  0  0
  -26.9630  -30.3130   24.5940 C   0  0  0  0  0  1  0  0  0  0  0  0
  -27.5290  -32.4590   25.7030 C   0  0  0  0  0  1  0  0  0  0  0  0
  -25.5000  -33.8560   24.1820 N   0  0  0  0  0  0  0  0  0  0  0  0
  -25.8070  -34.9370   23.4510 C   0  0  0  0  0  0  0  0  0  0  0  0
  -26.4610  -34.8740   22.4060 O   0  0  0  0  0  0  0  0  0  0  0  0
  -24.9180  -33.9760   24.9990 H   0  0  0  0  0  0  0  0  0  0  0  0
  -24.0570  -36.7240   23.1840 C   0  0  0  0  0  1  0  0  0  0  0  0
  -25.3130  -36.3030   23.9630 C   0  0  0  0  0  3  0  0  0  0  0  0
  -27.4500  -37.1840   24.7910 C   0  0  0  0  0  1  0  0  0  0  0  0
  -26.3320  -37.3710   23.8710 N   0  0  0  0  0  0  0  0  0  0  0  0
  -25.9190  -38.2810   24.0540 H   0  0  0  0  0  0  0  0  0  0  0  0
  1  3  1  0
  2  1  2  0
  2  4  1  0
  3  6  1  0
  3  7  2  0
  4  6  1  0
  5  1  1  0
  6 14  1  0
  8  4  2  0
 10  9  1  0
 11  9  2  0
 12 14  2  0
 12 13  1  0
 13 10  2  0
 14 11  1  0
 15 13  1  0
 15 16  1  0
 17 15  1  0
 18 24  1  0
 18 17  1  0
 19 24  1  0
 20 21  1  0
 20 19  1  0
 22 21  1  0
 22 29  1  0
 22 23  1  0
 24 23  1  0
 25 18  2  0
 26 27  2  0
 27 46  1  0
 28 27  1  0
 28 31  1  0
 29 30  1  0
 29 26  1  0
 30 28  2  0
 31 32  1  0
 32 33  2  0
 34 37  1  0
 34 33  1  0
 35 34  2  0
 36 35  1  0
 36 31  2  0
 37 38  1  0
 38 39  1  0
 39 40  2  0
 41 40  1  0
 41 45  1  0
 42 41  2  0
 43 38  2  0
 43 42  1  0
 44 43  1  0
 46 47  1  0
 47 50  1  0
 47 49  1  0
 48 46  2  0
 51 26  1  0
 51 52  1  0
 53 51  1  0
 54  2  1  0
 54 55  1  0
 56 67  2  0
 57 55  1  0
 57 62  1  0
 58 66  1  0
 58 68  1  0
 59 65  1  0
 59 61  1  0
 60 66  1  0
 61 60  1  0
 62 61  2  0
 63 64  1  0
 63 57  2  0
 64 59  2  0
 65 58  1  0
 66 56  1  0
 68 70  2  0
 69 68  1  0
 71 69  1  0
 72 81  2  0
 72 77  1  0
 73 69  1  0
 73 77  1  0
 74 73  1  0
 75 76  1  0
 75 74  1  0
 76 72  1  0
 77 78  2  0
 78 79  1  0
 80 79  2  0
 81 80  1  0
 82 56  1  0
 82 87  1  0
 82 83  1  0
 83 86  1  1
 83 84  1  0
 85 83  1  0
 87 90  1  0
 88 92  1  0
 88 87  1  0
 89 88  2  0
 92 91  1  0
 94 92  1  0
 94 95  1  0
 94 93  1  0
M  ISO  4  17 100  18 100  54 101  55 101
M  END
>  <TORSDO>  (51) 
F 19

>  <SCORE>  (51) 
-13.562

>  <name>  (51) 
50

>  <ligand_id>  (51) 
50

>  <original_smiles>  (51) 
[H]c1c([H])c(C(=NC(=O)N2C([H])([H])C([H])([H])C([H])([H])C([H])(n3nc(-c4c([H])c([H])c(Oc5c([H])c([H])c(F)c([H])c5F)c([H])c4[H])c(C(=O)N([H])[H])c3N([H])[H])C2([H])[H])C([H])([H])[H])c([H])c(N2C(=O)C(C([H])([H])[H])=C(C([H])([H])Oc3c([H])c([H])c4c(c3[H])C([H])([H])N(C(=O)C([H])(N([H])C(=O)C([H])(N([H])C([H])([H])[H])C([H])([H])[H])C(C([H])([H])[H])(C([H])([H])[H])C([H])([H])[H])C([H])(C(=O)N([H])C3([H])c5c([H])c([H])c([H])c([H])c5C([H])([H])C([H])([H])C3([H])[H])C4([H])[H])C2=O)c1[H]

>  <smiles>  (51) 
[H]c1c([H])c(C(=NC(=O)N2C([H])([H])C([H])([H])C([H])([H])C([H])(n3nc(-c4c([H])c([H])c(Oc5c([H])c([H])c(F)c([H])c5F)c([H])c4[H])c(C(=O)N([H])[H])c3N([H])[H])C2([H])[H])C([H])([H])[H])c([H])c(N2C(=O)C(C([H])([H])[H])=C(C([H])([H])Oc3c([H])c([H])c4c(c3[H])C([H])([H])N(C(=O)C([H])(N([H])C(=O)C([H])(N([H])C([H])([H])[H])C([H])([H])[H])C(C([H])([H])[H])(C([H])([H])[H])C([H])([H])[H])C([H])(C(=O)N([H])C3([H])c5c([H])c([H])c([H])c([H])c5C([H])([H])C([H])([H])C3([H])[H])C4([H])[H])C2=O)c1[H]

$$$$
51:0:0
     RDKit          3D

 97106  0  0  1  0  0  0  0  0999 V2000
  -29.9590  -23.8430   21.2370 C   0  0  0  0  0  3  0  0  0  0  0  0
  -29.1380  -23.9370   20.1890 C   0  0  0  0  0  0  0  0  0  0  0  0
  -30.5170  -22.5000   21.2760 C   0  0  0  0  0  0  0  0  0  0  0  0
  -29.1610  -22.6330   19.5320 C   0  0  0  0  0  0  0  0  0  0  0  0
  -29.9950  -21.8200   20.2310 N   0  0  0  0  0  0  0  0  0  0  0  0
  -31.3100  -22.0460   22.1060 O   0  0  0  0  0  0  0  0  0  0  0  0
  -28.5200  -22.3020   18.5290 O   0  0  0  0  0  0  0  0  0  0  0  0
  -30.8680  -18.8280   18.0860 C   0  0  0  0  0  3  0  0  0  0  0  0
  -30.7690  -17.7480   18.9860 C   0  0  0  0  0  3  0  0  0  0  0  0
  -30.6440  -20.1520   18.5100 C   0  0  0  0  0  3  0  0  0  0  0  0
  -30.2850  -19.3390   20.7680 C   0  0  0  0  0  3  0  0  0  0  0  0
  -30.4900  -17.9720   20.3530 C   0  0  0  0  0  0  0  0  0  0  0  0
  -30.3180  -20.4440   19.8560 C   0  0  0  0  0  0  0  0  0  0  0  0
  -30.9240  -14.5640   20.1670 C   0  0  0  0  0  0  0  0  0  0  0  0
  -30.5700  -12.4620   18.8810 C   0  0  0  0  0  2  0  0  0  0  0  0
  -29.5350  -12.7080   17.7610 C   0  0  0  0  0  2  0  0  0  0  0  0
  -28.0920  -12.5560   18.2870 C   0  0  0  0  0  2  0  0  0  0  0  0
  -27.8560  -13.3340   19.6080 C   0  0  0  0  0  3  0  0  0  0  0  0
  -28.9790  -13.0230   20.6230 C   0  0  0  0  0  2  0  0  0  0  0  0
  -30.2710  -13.3740   20.0010 N   0  0  0  0  0  0  0  0  0  0  0  0
  -31.9490  -14.8690   19.5450 O   0  0  0  0  0  0  0  0  0  0  0  0
  -30.2590  -16.8230   21.3050 C   0  0  0  0  0  0  0  0  0  0  0  0
  -30.3120  -15.4660   21.1230 N   0  0  0  0  0  0  0  0  0  0  0  0
  -29.8170  -17.1710   22.5220 N   0  0  0  0  0  4  0  0  0  0  0  0
  -29.6240  -15.0420   21.7140 H   0  0  0  0  0  0  0  0  0  0  0  0
  -29.6260  -18.1440   22.7040 H   0  0  0  0  0  0  0  0  0  0  0  0
  -29.7990  -16.5420   23.3100 H   0  0  0  0  0  0  0  0  0  0  0  0
  -25.5210  -13.9650   20.4940 C   0  0  0  0  0  0  0  0  0  0  0  0
  -24.4620  -13.2020   20.9090 C   0  0  0  0  0  0  0  0  0  0  0  0
  -24.8900  -11.8430   20.7980 C   0  0  0  0  0  0  0  0  0  0  0  0
  -26.5290  -13.0710   20.1620 N   0  0  0  0  0  0  0  0  0  0  0  0
  -26.1540  -11.7880   20.4000 N   0  0  0  0  0  0  0  0  0  0  0  0
  -24.1490  -10.5900   20.9930 C   0  0  0  0  0  0  0  0  0  0  0  0
  -24.5930   -9.6050   21.9020 C   0  0  0  0  0  3  0  0  0  0  0  0
  -23.8570   -8.4150   22.0860 C   0  0  0  0  0  3  0  0  0  0  0  0
  -22.6610   -8.2020   21.3600 C   0  0  0  0  0  0  0  0  0  0  0  0
  -22.2340   -9.1760   20.4410 C   0  0  0  0  0  3  0  0  0  0  0  0
  -22.9710  -10.3580   20.2550 C   0  0  0  0  0  3  0  0  0  0  0  0
  -21.8940   -7.0660   21.4550 O   0  0  0  0  0  0  0  0  0  0  0  0
  -21.8210   -6.3410   22.6170 C   0  0  0  0  0  0  0  0  0  0  0  0
  -21.3910   -6.9220   23.8310 C   0  0  0  0  0  3  0  0  0  0  0  0
  -21.2630   -6.1240   24.9850 C   0  0  0  0  0  3  0  0  0  0  0  0
  -21.5540   -4.7480   24.9280 C   0  0  0  0  0  0  0  0  0  0  0  0
  -21.9750   -4.1670   23.7180 C   0  0  0  0  0  3  0  0  0  0  0  0
  -22.1060   -4.9620   22.5660 C   0  0  0  0  0  0  0  0  0  0  0  0
  -22.4910   -4.3940   21.3990 F   0  0  0  0  0  0  0  0  0  0  0  0
  -21.4240   -3.9800   26.0350 F   0  0  0  0  0  0  0  0  0  0  0  0
  -23.0980  -13.6980   21.2920 C   0  0  0  0  0  0  0  0  0  0  0  0
  -22.4220  -12.9990   22.1980 N   0  0  0  0  0  0  0  0  0  0  0  0
  -22.6410  -14.7390   20.8240 O   0  0  0  0  0  0  0  0  0  0  0  0
  -22.8070  -12.1560   22.5990 H   0  0  0  0  0  0  0  0  0  0  0  0
  -21.5090  -13.3110   22.4950 H   0  0  0  0  0  0  0  0  0  0  0  0
  -25.7050  -15.3370   20.3570 N   0  0  0  0  0  0  0  0  0  0  0  0
  -24.9540  -15.9950   20.5330 H   0  0  0  0  0  0  0  0  0  0  0  0
  -26.5200  -15.7700   19.9430 H   0  0  0  0  0  0  0  0  0  0  0  0
  -28.1700  -25.0640   19.7490 C   0  0  0  0  0  2  0  0  0  0  0  0
  -28.3760  -26.4630   20.1530 O   0  0  0  0  0  0  0  0  0  0  0  0
  -24.5560  -31.7620   23.1770 C   0  0  0  0  0  0  0  0  0  0  0  0
  -27.2410  -27.2880   20.0860 C   0  0  0  0  0  0  0  0  0  0  0  0
  -23.3710  -30.3510   21.5350 C   0  0  0  0  0  3  0  0  0  0  0  0
  -24.8440  -28.8450   20.0970 C   0  0  0  0  0  0  0  0  0  0  0  0
  -25.9040  -30.7190   21.3480 C   0  0  0  0  0  2  0  0  0  0  0  0
  -26.0040  -29.3500   20.6960 C   0  0  0  0  0  0  0  0  0  0  0  0
  -27.2040  -28.5800   20.6890 C   0  0  0  0  0  3  0  0  0  0  0  0
  -26.0530  -26.8480   19.4460 C   0  0  0  0  0  3  0  0  0  0  0  0
  -24.8680  -27.5960   19.4670 C   0  0  0  0  0  3  0  0  0  0  0  0
  -23.5910  -29.6930   20.1500 C   0  0  0  0  0  2  0  0  0  0  0  0
  -24.6290  -30.9610   22.0760 N   0  0  0  0  0  0  0  0  0  0  0  0
  -23.4690  -32.0190   23.7150 O   0  0  0  0  0  0  0  0  0  0  0  0
  -22.7320  -29.3140   22.4880 C   0  0  0  0  0  0  0  0  0  0  0  0
  -21.4060  -29.1260   22.3730 N   0  0  0  0  0  0  0  0  0  0  0  0
  -23.4250  -28.6850   23.2920 O   0  0  0  0  0  0  0  0  0  0  0  0
  -20.9060  -29.6850   21.6970 H   0  0  0  0  0  0  0  0  0  0  0  0
  -18.0410  -27.9150   22.9120 C   0  0  0  0  0  0  0  0  0  0  0  0
  -20.6030  -28.1760   23.1450 C   0  0  0  0  0  3  0  0  0  0  0  0
  -20.6980  -26.7520   22.5490 C   0  0  0  0  0  2  0  0  0  0  0  0
  -19.5800  -26.4410   21.5490 C   0  0  0  0  0  2  0  0  0  0  0  0
  -18.2090  -26.5750   22.2170 C   0  0  0  0  0  2  0  0  0  0  0  0
  -19.1650  -28.6740   23.3340 C   0  0  0  0  0  0  0  0  0  0  0  0
  -18.9530  -29.9290   23.9450 C   0  0  0  0  0  3  0  0  0  0  0  0
  -17.6510  -30.4260   24.1380 C   0  0  0  0  0  3  0  0  0  0  0  0
  -16.5420  -29.6640   23.7320 C   0  0  0  0  0  3  0  0  0  0  0  0
  -16.7370  -28.4110   23.1240 C   0  0  0  0  0  3  0  0  0  0  0  0
  -25.8300  -32.4120   23.7970 C   0  0  0  0  0  3  0  0  0  0  0  0
  -25.4950  -33.8010   24.1430 N   0  0  0  0  0  0  0  0  0  0  0  0
  -25.8100  -34.8680   23.3980 C   0  0  0  0  0  0  0  0  0  0  0  0
  -26.4850  -34.7900   22.3680 O   0  0  0  0  0  0  0  0  0  0  0  0
  -24.8950  -33.9350   24.9430 H   0  0  0  0  0  0  0  0  0  0  0  0
  -24.0570  -36.6380   23.0520 C   0  0  0  0  0  1  0  0  0  0  0  0
  -25.2960  -36.2410   23.8710 C   0  0  0  0  0  3  0  0  0  0  0  0
  -27.4070  -37.1440   24.7370 C   0  0  0  0  0  1  0  0  0  0  0  0
  -26.3130  -37.3120   23.7850 N   0  0  0  0  0  0  0  0  0  0  0  0
  -25.8900  -38.2230   23.9450 H   0  0  0  0  0  0  0  0  0  0  0  0
  -26.3700  -31.6370   25.0620 C   0  0  1  0  0  0  0  0  0  0  0  0
  -25.2880  -31.3680   26.1330 C   0  0  0  0  0  1  0  0  0  0  0  0
  -26.9770  -30.2760   24.6510 C   0  0  0  0  0  1  0  0  0  0  0  0
  -27.5090  -32.4480   25.7250 C   0  0  0  0  0  1  0  0  0  0  0  0
  1  3  1  0
  2  1  2  0
  3  6  2  0
  4  2  1  0
  4  5  1  0
  5  3  1  0
  7  4  2  0
  8 10  2  0
  8  9  1  0
  9 12  2  0
 10 13  1  0
 12 11  1  0
 12 22  1  0
 13  5  1  0
 13 11  2  0
 14 23  1  0
 15 20  1  0
 16 17  1  0
 16 15  1  0
 18 17  1  0
 18 31  1  0
 18 19  1  0
 20 14  1  0
 20 19  1  0
 21 14  2  0
 22 24  2  0
 23 22  1  0
 23 25  1  0
 24 26  1  0
 24 27  1  0
 28 29  2  0
 29 48  1  0
 30 29  1  0
 30 33  1  0
 31 32  1  0
 31 28  1  0
 32 30  2  0
 33 34  1  0
 34 35  2  0
 36 39  1  0
 36 35  1  0
 37 36  2  0
 38 37  1  0
 38 33  2  0
 39 40  1  0
 40 41  1  0
 41 42  2  0
 43 42  1  0
 43 47  1  0
 44 43  2  0
 45 40  2  0
 45 44  1  0
 46 45  1  0
 48 49  1  0
 49 52  1  0
 49 51  1  0
 50 48  2  0
 53 28  1  0
 53 54  1  0
 55 53  1  0
 56 57  1  0
 56  2  1  0
 58 69  2  0
 59 57  1  0
 59 64  1  0
 60 68  1  0
 60 70  1  0
 61 67  1  0
 61 63  1  0
 62 68  1  0
 63 62  1  0
 64 63  2  0
 65 66  1  0
 65 59  2  0
 66 61  2  0
 67 60  1  0
 68 58  1  0
 70 72  2  0
 71 70  1  0
 73 71  1  0
 74 83  2  0
 74 79  1  0
 75 71  1  0
 75 79  1  0
 76 75  1  0
 77 78  1  0
 77 76  1  0
 78 74  1  0
 79 80  2  0
 80 81  1  0
 82 81  2  0
 83 82  1  0
 84 58  1  0
 84 85  1  0
 84 94  1  0
 85 88  1  0
 86 90  1  0
 86 85  1  0
 87 86  2  0
 90 89  1  0
 92 90  1  0
 92 93  1  0
 92 91  1  0
 94 97  1  1
 94 95  1  0
 96 94  1  0
M  ISO  4  14 100  23 100  56 101  57 101
M  END
>  <TORSDO>  (52) 
F 18

>  <SCORE>  (52) 
-14.401

>  <name>  (52) 
51

>  <ligand_id>  (52) 
51

>  <original_smiles>  (52) 
[H]C1=C(C([H])([H])Oc2c([H])c([H])c3c(c2[H])C([H])([H])N(C(=O)C([H])(N([H])C(=O)C([H])(N([H])C([H])([H])[H])C([H])([H])[H])C(C([H])([H])[H])(C([H])([H])[H])C([H])([H])[H])C([H])(C(=O)N([H])C2([H])c4c([H])c([H])c([H])c([H])c4C([H])([H])C([H])([H])C2([H])[H])C3([H])[H])C(=O)N(c2c([H])c([H])c([H])c(C(N([H])C(=O)N3C([H])([H])C([H])([H])C([H])([H])C([H])(n4nc(-c5c([H])c([H])c(Oc6c([H])c([H])c(F)c([H])c6F)c([H])c5[H])c(C(=O)N([H])[H])c4N([H])[H])C3([H])[H])=[N+]([H])[H])c2[H])C1=O

>  <smiles>  (52) 
[H]C1=C(C([H])([H])Oc2c([H])c([H])c3c(c2[H])C([H])([H])N(C(=O)C([H])(N([H])C(=O)C([H])(N([H])C([H])([H])[H])C([H])([H])[H])C(C([H])([H])[H])(C([H])([H])[H])C([H])([H])[H])C([H])(C(=O)N([H])C2([H])c4c([H])c([H])c([H])c([H])c4C([H])([H])C([H])([H])C2([H])[H])C3([H])[H])C(=O)N(c2c([H])c([H])c([H])c(C(N([H])C(=O)N3C([H])([H])C([H])([H])C([H])([H])C([H])(n4nc(-c5c([H])c([H])c(Oc6c([H])c([H])c(F)c([H])c6F)c([H])c5[H])c(C(=O)N([H])[H])c4N([H])[H])C3([H])[H])=[N+]([H])[H])c2[H])C1=O

$$$$
52:0:0
     RDKit          3D

 92101  0  0  1  0  0  0  0  0999 V2000
  -28.5540  -23.7240   20.4310 C   0  0  0  0  0  0  0  0  0  0  0  0
  -29.6070  -23.0820   19.6350 C   0  0  0  0  0  0  0  0  0  0  0  0
  -28.0280  -25.0070   20.6530 C   0  0  0  0  0  3  0  0  0  0  0  0
  -28.1830  -22.3170   20.9890 C   0  0  0  0  0  2  0  0  0  0  0  0
  -29.2800  -21.7840   20.1540 N   0  0  0  0  0  0  0  0  0  0  0  0
  -30.4040  -23.5390   18.8430 O   0  0  0  0  0  0  0  0  0  0  0  0
  -30.5590  -19.7380   19.1620 C   0  0  0  0  0  3  0  0  0  0  0  0
  -30.7080  -18.2870   19.2570 C   0  0  0  0  0  0  0  0  0  0  0  0
  -29.9480  -17.6350   20.2090 C   0  0  0  0  0  0  0  0  0  0  0  0
  -29.6510  -20.3290   20.0260 C   0  0  0  0  0  0  0  0  0  0  0  0
  -31.5260  -17.6560   18.4450 F   0  0  0  0  0  0  0  0  0  0  0  0
  -28.9960  -18.9650   20.9940 S   0  0  0  0  0  0  0  0  0  0  0  0
  -29.7570  -16.1510   20.6190 C   0  0  0  0  0  0  0  0  0  0  0  0
  -28.8840  -15.9590   21.5180 N   0  0  0  0  0  0  0  0  0  0  0  0
  -28.4590  -16.8290   21.8140 H   0  0  0  0  0  0  0  0  0  0  0  0
  -30.5770  -14.8680   20.0150 C   0  0  0  0  0  0  0  0  0  0  0  0
  -30.3940  -12.6000   18.9350 C   0  0  0  0  0  2  0  0  0  0  0  0
  -29.3700  -12.6800   17.7740 C   0  0  0  0  0  2  0  0  0  0  0  0
  -27.9240  -12.4810   18.2770 C   0  0  0  0  0  2  0  0  0  0  0  0
  -27.6270  -13.3070   19.5560 C   0  0  0  0  0  3  0  0  0  0  0  0
  -28.7550  -13.1120   20.5900 C   0  0  0  0  0  2  0  0  0  0  0  0
  -30.0000  -13.5980   19.9680 N   0  0  0  0  0  0  0  0  0  0  0  0
  -31.7050  -15.0130   19.5280 O   0  0  0  0  0  0  0  0  0  0  0  0
  -25.2840  -13.8840   20.4290 C   0  0  0  0  0  0  0  0  0  0  0  0
  -24.2390  -13.1020   20.8390 C   0  0  0  0  0  0  0  0  0  0  0  0
  -24.6970  -11.7520   20.7460 C   0  0  0  0  0  0  0  0  0  0  0  0
  -26.3110  -13.0090   20.1120 N   0  0  0  0  0  0  0  0  0  0  0  0
  -25.9660  -11.7200   20.3600 N   0  0  0  0  0  0  0  0  0  0  0  0
  -23.9820  -10.4860   20.9490 C   0  0  0  0  0  0  0  0  0  0  0  0
  -24.4420   -9.5150   21.8650 C   0  0  0  0  0  3  0  0  0  0  0  0
  -23.7260   -8.3140   22.0550 C   0  0  0  0  0  3  0  0  0  0  0  0
  -22.5350   -8.0750   21.3290 C   0  0  0  0  0  0  0  0  0  0  0  0
  -22.0930   -9.0350   20.4020 C   0  0  0  0  0  3  0  0  0  0  0  0
  -22.8100  -10.2270   20.2100 C   0  0  0  0  0  3  0  0  0  0  0  0
  -21.7880   -6.9270   21.4290 O   0  0  0  0  0  0  0  0  0  0  0  0
  -21.7350   -6.2020   22.5920 C   0  0  0  0  0  0  0  0  0  0  0  0
  -21.3060   -6.7750   23.8090 C   0  0  0  0  0  3  0  0  0  0  0  0
  -21.2010   -5.9750   24.9650 C   0  0  0  0  0  3  0  0  0  0  0  0
  -21.5140   -4.6050   24.9050 C   0  0  0  0  0  0  0  0  0  0  0  0
  -21.9360   -4.0310   23.6930 C   0  0  0  0  0  3  0  0  0  0  0  0
  -22.0430   -4.8270   22.5390 C   0  0  0  0  0  0  0  0  0  0  0  0
  -22.4300   -4.2650   21.3690 F   0  0  0  0  0  0  0  0  0  0  0  0
  -21.4060   -3.8350   26.0130 F   0  0  0  0  0  0  0  0  0  0  0  0
  -22.8620  -13.5730   21.2070 C   0  0  0  0  0  0  0  0  0  0  0  0
  -22.1870  -12.8560   22.0990 N   0  0  0  0  0  0  0  0  0  0  0  0
  -22.3940  -14.6110   20.7400 O   0  0  0  0  0  0  0  0  0  0  0  0
  -22.5800  -12.0160   22.4990 H   0  0  0  0  0  0  0  0  0  0  0  0
  -21.2660  -13.1520   22.3890 H   0  0  0  0  0  0  0  0  0  0  0  0
  -25.4420  -15.2590   20.2830 N   0  0  0  0  0  0  0  0  0  0  0  0
  -24.7070  -15.9220   20.5010 H   0  0  0  0  0  0  0  0  0  0  0  0
  -26.3250  -15.7010   20.0540 H   0  0  0  0  0  0  0  0  0  0  0  0
  -28.3180  -26.3380   20.2000 O   0  0  0  0  0  0  0  0  0  0  0  0
  -24.6130  -31.8700   23.2290 C   0  0  0  0  0  0  0  0  0  0  0  0
  -27.2490  -27.2750   20.1730 C   0  0  0  0  0  0  0  0  0  0  0  0
  -23.4200  -30.4640   21.5910 C   0  0  0  0  0  3  0  0  0  0  0  0
  -24.8830  -28.9180   20.1600 C   0  0  0  0  0  0  0  0  0  0  0  0
  -25.9620  -30.7840   21.4100 C   0  0  0  0  0  2  0  0  0  0  0  0
  -26.0540  -29.4000   20.7610 C   0  0  0  0  0  0  0  0  0  0  0  0
  -27.2410  -28.5910   20.7570 C   0  0  0  0  0  3  0  0  0  0  0  0
  -26.0560  -26.8700   19.5370 C   0  0  0  0  0  3  0  0  0  0  0  0
  -24.8900  -27.6610   19.5360 C   0  0  0  0  0  3  0  0  0  0  0  0
  -23.6400  -29.7900   20.2110 C   0  0  0  0  0  2  0  0  0  0  0  0
  -24.6850  -31.0590   22.1320 N   0  0  0  0  0  0  0  0  0  0  0  0
  -23.5270  -32.1410   23.7630 O   0  0  0  0  0  0  0  0  0  0  0  0
  -22.7610  -29.4440   22.5530 C   0  0  0  0  0  0  0  0  0  0  0  0
  -21.4340  -29.2630   22.4320 N   0  0  0  0  0  0  0  0  0  0  0  0
  -23.4440  -28.8200   23.3690 O   0  0  0  0  0  0  0  0  0  0  0  0
  -20.9410  -29.8190   21.7480 H   0  0  0  0  0  0  0  0  0  0  0  0
  -18.0650  -28.0390   22.9420 C   0  0  0  0  0  0  0  0  0  0  0  0
  -20.6220  -28.3190   23.2050 C   0  0  0  0  0  3  0  0  0  0  0  0
  -20.7340  -26.8880   22.6300 C   0  0  0  0  0  2  0  0  0  0  0  0
  -19.6320  -26.5560   21.6190 C   0  0  0  0  0  2  0  0  0  0  0  0
  -18.2510  -26.6910   22.2650 C   0  0  0  0  0  2  0  0  0  0  0  0
  -19.1790  -28.8110   23.3690 C   0  0  0  0  0  0  0  0  0  0  0  0
  -18.9510  -30.0700   23.9620 C   0  0  0  0  0  3  0  0  0  0  0  0
  -17.6420  -30.5600   24.1330 C   0  0  0  0  0  3  0  0  0  0  0  0
  -16.5430  -29.7870   23.7230 C   0  0  0  0  0  3  0  0  0  0  0  0
  -16.7550  -28.5270   23.1330 C   0  0  0  0  0  3  0  0  0  0  0  0
  -25.8900  -32.5150   23.8500 C   0  0  0  0  0  3  0  0  0  0  0  0
  -25.5680  -33.9100   24.1860 N   0  0  0  0  0  0  0  0  0  0  0  0
  -25.8900  -34.9700   23.4320 C   0  0  0  0  0  0  0  0  0  0  0  0
  -26.5600  -34.8780   22.4000 O   0  0  0  0  0  0  0  0  0  0  0  0
  -24.9730  -34.0550   24.9890 H   0  0  0  0  0  0  0  0  0  0  0  0
  -24.1490  -36.7540   23.0890 C   0  0  0  0  0  1  0  0  0  0  0  0
  -25.3930  -36.3530   23.8980 C   0  0  0  0  0  3  0  0  0  0  0  0
  -27.5220  -37.2480   24.7330 C   0  0  0  0  0  1  0  0  0  0  0  0
  -26.4180  -37.4140   23.7920 N   0  0  0  0  0  0  0  0  0  0  0  0
  -26.0050  -38.3300   23.9460 H   0  0  0  0  0  0  0  0  0  0  0  0
  -26.4150  -31.7470   25.1260 C   0  0  1  0  0  0  0  0  0  0  0  0
  -25.3250  -31.5020   26.1950 C   0  0  0  0  0  1  0  0  0  0  0  0
  -27.0070  -30.3740   24.7340 C   0  0  0  0  0  1  0  0  0  0  0  0
  -27.5600  -32.5500   25.7870 C   0  0  0  0  0  1  0  0  0  0  0  0
  1  3  2  0
  1  4  1  0
  2  5  1  0
  2  1  1  0
  5  4  1  0
  6  2  2  0
  7  8  1  0
  7 10  2  0
  8  9  2  0
  9 13  1  0
  9 12  1  0
 10  5  1  0
 10 12  1  0
 11  8  1  0
 13 14  2  0
 14 15  1  0
 16 13  1  0
 17 22  1  0
 18 19  1  0
 18 17  1  0
 20 19  1  0
 20 27  1  0
 20 21  1  0
 22 16  1  0
 22 21  1  0
 23 16  2  0
 24 25  2  0
 25 44  1  0
 26 25  1  0
 26 29  1  0
 27 28  1  0
 27 24  1  0
 28 26  2  0
 29 30  1  0
 30 31  2  0
 32 35  1  0
 32 31  1  0
 33 32  2  0
 34 33  1  0
 34 29  2  0
 35 36  1  0
 36 37  1  0
 37 38  2  0
 39 38  1  0
 39 43  1  0
 40 39  2  0
 41 36  2  0
 41 40  1  0
 42 41  1  0
 44 45  1  0
 45 48  1  0
 45 47  1  0
 46 44  2  0
 49 24  1  0
 49 50  1  0
 51 49  1  0
 52  3  1  0
 53 64  2  0
 54 52  1  0
 54 59  1  0
 55 63  1  0
 55 65  1  0
 56 62  1  0
 56 58  1  0
 57 63  1  0
 58 57  1  0
 59 58  2  0
 60 54  2  0
 61 60  1  0
 61 56  2  0
 62 55  1  0
 63 53  1  0
 65 67  2  0
 66 65  1  0
 68 66  1  0
 69 78  2  0
 69 74  1  0
 70 66  1  0
 70 74  1  0
 71 70  1  0
 72 73  1  0
 72 71  1  0
 73 69  1  0
 74 75  2  0
 75 76  1  0
 77 76  2  0
 78 77  1  0
 79 53  1  0
 79 80  1  0
 79 89  1  0
 80 83  1  0
 81 85  1  0
 81 80  1  0
 82 81  2  0
 85 84  1  0
 87 85  1  0
 87 88  1  0
 87 86  1  0
 89 92  1  1
 89 90  1  0
 91 89  1  0
M  ISO  4   3 101  13 100  16 100  52 101
M  END
>  <TORSDO>  (53) 
F 18

>  <SCORE>  (53) 
-14.136

>  <name>  (53) 
52

>  <ligand_id>  (53) 
52

>  <original_smiles>  (53) 
[H]N=C(C(=O)N1C([H])([H])C([H])([H])C([H])([H])C([H])(n2nc(-c3c([H])c([H])c(Oc4c([H])c([H])c(F)c([H])c4F)c([H])c3[H])c(C(=O)N([H])[H])c2N([H])[H])C1([H])[H])c1sc(N2C(=O)C(=C([H])Oc3c([H])c([H])c4c(c3[H])C([H])([H])N(C(=O)C([H])(N([H])C(=O)C([H])(N([H])C([H])([H])[H])C([H])([H])[H])C(C([H])([H])[H])(C([H])([H])[H])C([H])([H])[H])C([H])(C(=O)N([H])C3([H])c5c([H])c([H])c([H])c([H])c5C([H])([H])C([H])([H])C3([H])[H])C4([H])[H])C2([H])[H])c([H])c1F

>  <smiles>  (53) 
[H]N=C(C(=O)N1C([H])([H])C([H])([H])C([H])([H])C([H])(n2nc(-c3c([H])c([H])c(Oc4c([H])c([H])c(F)c([H])c4F)c([H])c3[H])c(C(=O)N([H])[H])c2N([H])[H])C1([H])[H])c1sc(N2C(=O)C(=C([H])Oc3c([H])c([H])c4c(c3[H])C([H])([H])N(C(=O)C([H])(N([H])C(=O)C([H])(N([H])C([H])([H])[H])C([H])([H])[H])C(C([H])([H])[H])(C([H])([H])[H])C([H])([H])[H])C([H])(C(=O)N([H])C3([H])c5c([H])c([H])c([H])c([H])c5C([H])([H])C([H])([H])C3([H])[H])C4([H])[H])C2([H])[H])c([H])c1F

$$$$
53:0:0
     RDKit          3D

 93101  0  0  1  0  0  0  0  0999 V2000
  -28.7870  -20.5370   20.8320 C   0  0  0  0  0  0  0  0  0  0  0  0
  -28.3420  -22.9430   20.8480 C   0  0  0  0  0  0  0  0  0  0  0  0
  -29.0990  -21.8420   20.5780 N   0  0  0  0  0  0  0  0  0  0  0  0
  -27.6610  -20.1490   21.1660 O   0  0  0  0  0  0  0  0  0  0  0  0
  -27.2760  -22.8820   21.4730 O   0  0  0  0  0  0  0  0  0  0  0  0
  -30.0020  -22.0030   20.1660 H   0  0  0  0  0  0  0  0  0  0  0  0
  -32.2360  -18.8500   20.6780 C   0  0  0  0  0  3  0  0  0  0  0  0
  -31.2370  -19.8420   20.7050 C   0  0  0  0  0  3  0  0  0  0  0  0
  -31.8960  -17.4840   20.6270 C   0  0  0  0  0  3  0  0  0  0  0  0
  -29.5440  -18.0900   20.6150 C   0  0  0  0  0  3  0  0  0  0  0  0
  -29.8730  -19.4810   20.6750 C   0  0  0  0  0  0  0  0  0  0  0  0
  -30.5410  -17.0720   20.5810 C   0  0  0  0  0  0  0  0  0  0  0  0
  -30.8540  -14.6040   20.0810 C   0  0  0  0  0  0  0  0  0  0  0  0
  -30.5120  -12.4080   19.0000 C   0  0  0  0  0  2  0  0  0  0  0  0
  -29.5150  -12.5710   17.8340 C   0  0  0  0  0  2  0  0  0  0  0  0
  -28.0660  -12.4230   18.3380 C   0  0  0  0  0  2  0  0  0  0  0  0
  -27.7770  -13.2840   19.5970 C   0  0  0  0  0  3  0  0  0  0  0  0
  -28.8890  -13.1180   20.6590 C   0  0  0  0  0  2  0  0  0  0  0  0
  -30.1750  -13.4220   20.0160 N   0  0  0  0  0  0  0  0  0  0  0  0
  -31.9730  -14.7270   19.5800 O   0  0  0  0  0  0  0  0  0  0  0  0
  -30.1610  -15.6740   20.5540 N   0  0  0  0  0  0  0  0  0  0  0  0
  -29.2130  -15.4660   20.8320 H   0  0  0  0  0  0  0  0  0  0  0  0
  -25.4320  -13.8840   20.4630 C   0  0  0  0  0  0  0  0  0  0  0  0
  -24.3790  -13.1080   20.8680 C   0  0  0  0  0  0  0  0  0  0  0  0
  -24.8250  -11.7550   20.7690 C   0  0  0  0  0  0  0  0  0  0  0  0
  -26.4530  -13.0030   20.1460 N   0  0  0  0  0  0  0  0  0  0  0  0
  -26.0950  -11.7150   20.3880 N   0  0  0  0  0  0  0  0  0  0  0  0
  -24.0970  -10.4920   20.9590 C   0  0  0  0  0  0  0  0  0  0  0  0
  -24.5120   -9.5370   21.9130 C   0  0  0  0  0  3  0  0  0  0  0  0
  -23.7860   -8.3400   22.0900 C   0  0  0  0  0  3  0  0  0  0  0  0
  -22.6290   -8.0900   21.3130 C   0  0  0  0  0  0  0  0  0  0  0  0
  -22.2330   -9.0340   20.3500 C   0  0  0  0  0  3  0  0  0  0  0  0
  -22.9610  -10.2230   20.1710 C   0  0  0  0  0  3  0  0  0  0  0  0
  -21.8760   -6.9440   21.3990 O   0  0  0  0  0  0  0  0  0  0  0  0
  -21.7460   -6.2540   22.5780 C   0  0  0  0  0  0  0  0  0  0  0  0
  -21.1700   -6.8420   23.7250 C   0  0  0  0  0  3  0  0  0  0  0  0
  -20.9930   -6.0760   24.8940 C   0  0  0  0  0  3  0  0  0  0  0  0
  -21.3800   -4.7220   24.9150 C   0  0  0  0  0  0  0  0  0  0  0  0
  -21.9490   -4.1340   23.7720 C   0  0  0  0  0  3  0  0  0  0  0  0
  -22.1290   -4.8980   22.6060 C   0  0  0  0  0  0  0  0  0  0  0  0
  -22.6570   -4.3210   21.5000 F   0  0  0  0  0  0  0  0  0  0  0  0
  -21.2030   -3.9840   26.0360 F   0  0  0  0  0  0  0  0  0  0  0  0
  -23.0030  -13.5890   21.2320 C   0  0  0  0  0  0  0  0  0  0  0  0
  -22.3150  -12.8670   22.1100 N   0  0  0  0  0  0  0  0  0  0  0  0
  -22.5500  -14.6360   20.7750 O   0  0  0  0  0  0  0  0  0  0  0  0
  -22.6960  -12.0180   22.5010 H   0  0  0  0  0  0  0  0  0  0  0  0
  -21.3960  -13.1690   22.3970 H   0  0  0  0  0  0  0  0  0  0  0  0
  -25.5990  -15.2580   20.3180 N   0  0  0  0  0  0  0  0  0  0  0  0
  -24.8440  -15.9130   20.4860 H   0  0  0  0  0  0  0  0  0  0  0  0
  -26.4240  -15.6980   19.9310 H   0  0  0  0  0  0  0  0  0  0  0  0
  -28.8700  -24.2240   20.3400 C   0  0  0  0  0  3  0  0  0  0  0  0
  -28.2190  -25.3770   20.6570 C   0  0  0  0  0  3  0  0  0  0  0  0
  -28.4990  -26.6650   20.2110 O   0  0  0  0  0  0  0  0  0  0  0  0
  -24.6940  -31.8840   23.2890 C   0  0  0  0  0  0  0  0  0  0  0  0
  -27.3910  -27.4980   20.1510 C   0  0  0  0  0  0  0  0  0  0  0  0
  -23.5180  -30.5140   21.6030 C   0  0  0  0  0  3  0  0  0  0  0  0
  -25.0010  -29.0230   20.1540 C   0  0  0  0  0  0  0  0  0  0  0  0
  -26.0490  -30.8840   21.4480 C   0  0  0  0  0  2  0  0  0  0  0  0
  -26.1520  -29.5280   20.7730 C   0  0  0  0  0  0  0  0  0  0  0  0
  -27.3540  -28.7730   20.7700 C   0  0  0  0  0  3  0  0  0  0  0  0
  -26.2270  -27.0290   19.5030 C   0  0  0  0  0  3  0  0  0  0  0  0
  -25.0350  -27.7750   19.5130 C   0  0  0  0  0  3  0  0  0  0  0  0
  -23.7510  -29.8730   20.2090 C   0  0  0  0  0  2  0  0  0  0  0  0
  -24.7710  -31.1070   22.1720 N   0  0  0  0  0  0  0  0  0  0  0  0
  -23.6040  -32.1390   23.8200 O   0  0  0  0  0  0  0  0  0  0  0  0
  -22.8600  -29.4660   22.5310 C   0  0  0  0  0  0  0  0  0  0  0  0
  -21.5450  -29.2550   22.3600 N   0  0  0  0  0  0  0  0  0  0  0  0
  -23.5310  -28.8480   23.3620 O   0  0  0  0  0  0  0  0  0  0  0  0
  -21.0640  -29.8070   21.6640 H   0  0  0  0  0  0  0  0  0  0  0  0
  -18.1820  -27.9900   22.7540 C   0  0  0  0  0  0  0  0  0  0  0  0
  -20.7260  -28.2900   23.0940 C   0  0  0  0  0  3  0  0  0  0  0  0
  -20.8700  -26.8700   22.5000 C   0  0  0  0  0  2  0  0  0  0  0  0
  -19.8000  -26.5440   21.4530 C   0  0  0  0  0  2  0  0  0  0  0  0
  -18.4000  -26.6540   22.0630 C   0  0  0  0  0  2  0  0  0  0  0  0
  -19.2740  -28.7650   23.2240 C   0  0  0  0  0  0  0  0  0  0  0  0
  -19.0180  -30.0150   23.8270 C   0  0  0  0  0  3  0  0  0  0  0  0
  -17.7000  -30.4900   23.9680 C   0  0  0  0  0  3  0  0  0  0  0  0
  -16.6210  -29.7120   23.5140 C   0  0  0  0  0  3  0  0  0  0  0  0
  -16.8630  -28.4630   22.9130 C   0  0  0  0  0  3  0  0  0  0  0  0
  -25.9670  -32.5110   23.9390 C   0  0  0  0  0  3  0  0  0  0  0  0
  -25.6560  -33.9100   24.2610 N   0  0  0  0  0  0  0  0  0  0  0  0
  -25.9850  -34.9580   23.4930 C   0  0  0  0  0  0  0  0  0  0  0  0
  -26.6510  -34.8490   22.4600 O   0  0  0  0  0  0  0  0  0  0  0  0
  -25.0640  -34.0690   25.0620 H   0  0  0  0  0  0  0  0  0  0  0  0
  -24.2460  -36.7400   23.1380 C   0  0  0  0  0  1  0  0  0  0  0  0
  -25.4960  -36.3490   23.9430 C   0  0  0  0  0  3  0  0  0  0  0  0
  -27.6270  -37.2560   24.7570 C   0  0  0  0  0  1  0  0  0  0  0  0
  -26.5230  -37.4040   23.8110 N   0  0  0  0  0  0  0  0  0  0  0  0
  -26.1130  -38.3240   23.9440 H   0  0  0  0  0  0  0  0  0  0  0  0
  -26.4540  -31.7370   25.2240 C   0  0  1  0  0  0  0  0  0  0  0  0
  -25.3340  -31.4930   26.2640 C   0  0  0  0  0  1  0  0  0  0  0  0
  -27.0490  -30.3620   24.8430 C   0  0  0  0  0  1  0  0  0  0  0  0
  -27.5850  -32.5320   25.9170 C   0  0  0  0  0  1  0  0  0  0  0  0
  1  4  2  0
  2  5  2  0
  3  1  1  0
  3  2  1  0
  6  3  1  0
  7  8  1  0
  9  7  2  0
 10 11  1  0
 11  8  2  0
 11  1  1  0
 12 10  2  0
 12  9  1  0
 13 21  1  0
 14 19  1  0
 15 16  1  0
 15 14  1  0
 17 16  1  0
 17 26  1  0
 17 18  1  0
 19 13  1  0
 19 18  1  0
 20 13  2  0
 21 12  1  0
 21 22  1  0
 23 24  2  0
 24 43  1  0
 25 24  1  0
 25 28  1  0
 26 27  1  0
 26 23  1  0
 27 25  2  0
 28 29  1  0
 29 30  2  0
 31 34  1  0
 31 30  1  0
 32 31  2  0
 33 32  1  0
 33 28  2  0
 34 35  1  0
 35 40  2  0
 35 36  1  0
 36 37  2  0
 37 38  1  0
 38 42  1  0
 39 38  2  0
 40 39  1  0
 41 40  1  0
 43 44  1  0
 44 47  1  0
 44 46  1  0
 45 43  2  0
 48 23  1  0
 48 49  1  0
 50 48  1  0
 51 52  2  0
 51  2  1  0
 53 52  1  0
 54 65  2  0
 55 53  1  0
 55 60  1  0
 56 64  1  0
 56 66  1  0
 57 63  1  0
 57 59  1  0
 58 64  1  0
 59 58  1  0
 60 59  2  0
 61 62  1  0
 61 55  2  0
 62 57  2  0
 63 56  1  0
 64 54  1  0
 66 68  2  0
 67 66  1  0
 69 67  1  0
 70 79  2  0
 70 75  1  0
 71 67  1  0
 71 75  1  0
 72 71  1  0
 73 74  1  0
 73 72  1  0
 74 70  1  0
 75 76  2  0
 76 77  1  0
 78 77  2  0
 79 78  1  0
 80 54  1  0
 80 81  1  0
 80 90  1  0
 81 84  1  0
 82 86  1  0
 82 81  1  0
 83 82  2  0
 86 85  1  0
 88 86  1  0
 88 89  1  0
 88 87  1  0
 90 93  1  1
 90 91  1  0
 92 90  1  0
M  ISO  4  13 100  21 100  52 101  53 101
M  END
>  <TORSDO>  (54) 
F 18

>  <SCORE>  (54) 
-14.243

>  <name>  (54) 
53

>  <ligand_id>  (54) 
53

>  <original_smiles>  (54) 
[H]C(Oc1c([H])c([H])c2c(c1[H])C([H])([H])N(C(=O)C([H])(N([H])C(=O)C([H])(N([H])C([H])([H])[H])C([H])([H])[H])C(C([H])([H])[H])(C([H])([H])[H])C([H])([H])[H])C([H])(C(=O)N([H])C1([H])c3c([H])c([H])c([H])c([H])c3C([H])([H])C([H])([H])C1([H])[H])C2([H])[H])=C([H])C(=O)N([H])C(=O)c1c([H])c([H])c([H])c(N([H])C(=O)N2C([H])([H])C([H])([H])C([H])([H])C([H])(n3nc(-c4c([H])c([H])c(Oc5c([H])c([H])c(F)c([H])c5F)c([H])c4[H])c(C(=O)N([H])[H])c3N([H])[H])C2([H])[H])c1[H]

>  <smiles>  (54) 
[H]C(Oc1c([H])c([H])c2c(c1[H])C([H])([H])N(C(=O)C([H])(N([H])C(=O)C([H])(N([H])C([H])([H])[H])C([H])([H])[H])C(C([H])([H])[H])(C([H])([H])[H])C([H])([H])[H])C([H])(C(=O)N([H])C1([H])c3c([H])c([H])c([H])c([H])c3C([H])([H])C([H])([H])C1([H])[H])C2([H])[H])=C([H])C(=O)N([H])C(=O)c1c([H])c([H])c([H])c(N([H])C(=O)N2C([H])([H])C([H])([H])C([H])([H])C([H])(n3nc(-c4c([H])c([H])c(Oc5c([H])c([H])c(F)c([H])c5F)c([H])c4[H])c(C(=O)N([H])[H])c3N([H])[H])C2([H])[H])c1[H]

$$$$
54:0:0
     RDKit          3D

 93101  0  0  1  0  0  0  0  0999 V2000
  -28.5820  -21.1890   20.4150 C   0  0  0  0  0  0  0  0  0  0  0  0
  -28.1200  -23.8280   20.5330 C   0  0  0  0  0  3  0  0  0  0  0  0
  -26.7620  -23.7110   19.9090 C   0  0  0  0  0  1  0  0  0  0  0  0
  -28.8890  -22.6490   20.7530 N   0  0  0  0  0  0  0  0  0  0  0  0
  -28.5040  -25.1400   20.9050 N   0  0  0  0  0  0  0  0  0  0  0  0
  -27.4480  -20.8860   20.0330 O   0  0  0  0  0  0  0  0  0  0  0  0
  -29.7910  -22.8550   21.1490 H   0  0  0  0  0  0  0  0  0  0  0  0
  -29.2200  -25.2480   21.6110 H   0  0  0  0  0  0  0  0  0  0  0  0
  -31.9440  -19.2500   20.3160 C   0  0  0  0  0  3  0  0  0  0  0  0
  -30.9860  -20.2860   20.3390 C   0  0  0  0  0  3  0  0  0  0  0  0
  -31.5780  -17.8910   20.4150 C   0  0  0  0  0  3  0  0  0  0  0  0
  -29.2640  -18.5800   20.5610 C   0  0  0  0  0  3  0  0  0  0  0  0
  -29.6150  -20.0070   20.4930 C   0  0  0  0  0  0  0  0  0  0  0  0
  -30.2280  -17.4770   20.5130 C   0  0  0  0  0  0  0  0  0  0  0  0
  -30.6400  -14.8490   20.3320 C   0  0  0  0  0  0  0  0  0  0  0  0
  -30.4260  -12.5630   19.3200 C   0  0  0  0  0  2  0  0  0  0  0  0
  -29.4880  -12.6300   18.0940 C   0  0  0  0  0  2  0  0  0  0  0  0
  -28.0210  -12.4460   18.5300 C   0  0  0  0  0  2  0  0  0  0  0  0
  -27.6470  -13.3260   19.7530 C   0  0  0  0  0  3  0  0  0  0  0  0
  -28.7160  -13.2610   20.8680 C   0  0  0  0  0  2  0  0  0  0  0  0
  -30.0010  -13.6270   20.2630 N   0  0  0  0  0  0  0  0  0  0  0  0
  -31.8300  -14.9010   20.0070 O   0  0  0  0  0  0  0  0  0  0  0  0
  -29.8830  -16.0100   20.5530 N   0  0  0  0  0  0  0  0  0  0  0  0
  -28.9060  -15.8180   20.7080 H   0  0  0  0  0  0  0  0  0  0  0  0
  -25.2700  -13.8960   20.5240 C   0  0  0  0  0  0  0  0  0  0  0  0
  -24.2120  -13.1130   20.8970 C   0  0  0  0  0  0  0  0  0  0  0  0
  -24.6800  -11.7640   20.8440 C   0  0  0  0  0  0  0  0  0  0  0  0
  -26.3130  -13.0220   20.2600 N   0  0  0  0  0  0  0  0  0  0  0  0
  -25.9670  -11.7350   20.5170 N   0  0  0  0  0  0  0  0  0  0  0  0
  -23.9590  -10.4970   21.0250 C   0  0  0  0  0  0  0  0  0  0  0  0
  -24.3850   -9.5320   21.9630 C   0  0  0  0  0  3  0  0  0  0  0  0
  -23.6620   -8.3310   22.1340 C   0  0  0  0  0  3  0  0  0  0  0  0
  -22.5000   -8.0860   21.3640 C   0  0  0  0  0  0  0  0  0  0  0  0
  -22.0930   -9.0390   20.4150 C   0  0  0  0  0  3  0  0  0  0  0  0
  -22.8160  -10.2310   20.2420 C   0  0  0  0  0  3  0  0  0  0  0  0
  -21.7500   -6.9380   21.4430 O   0  0  0  0  0  0  0  0  0  0  0  0
  -21.6630   -6.2130   22.6060 C   0  0  0  0  0  0  0  0  0  0  0  0
  -21.1450   -6.7730   23.7940 C   0  0  0  0  0  3  0  0  0  0  0  0
  -21.0070   -5.9730   24.9460 C   0  0  0  0  0  3  0  0  0  0  0  0
  -21.3780   -4.6160   24.9110 C   0  0  0  0  0  0  0  0  0  0  0  0
  -21.8870   -4.0550   23.7260 C   0  0  0  0  0  3  0  0  0  0  0  0
  -22.0270   -4.8520   22.5770 C   0  0  0  0  0  0  0  0  0  0  0  0
  -22.5000   -4.3040   21.4310 F   0  0  0  0  0  0  0  0  0  0  0  0
  -21.2400   -3.8450   26.0140 F   0  0  0  0  0  0  0  0  0  0  0  0
  -22.8160  -13.5830   21.1880 C   0  0  0  0  0  0  0  0  0  0  0  0
  -22.0950  -12.8720   22.0480 N   0  0  0  0  0  0  0  0  0  0  0  0
  -22.3730  -14.6150   20.6860 O   0  0  0  0  0  0  0  0  0  0  0  0
  -22.4650  -12.0380   22.4790 H   0  0  0  0  0  0  0  0  0  0  0  0
  -21.1580  -13.1690   22.2790 H   0  0  0  0  0  0  0  0  0  0  0  0
  -25.4250  -15.2690   20.3610 N   0  0  0  0  0  0  0  0  0  0  0  0
  -24.6550  -15.9150   20.4930 H   0  0  0  0  0  0  0  0  0  0  0  0
  -26.2560  -15.7200   19.9990 H   0  0  0  0  0  0  0  0  0  0  0  0
  -28.3480  -26.3820   20.1260 O   0  0  0  0  0  0  0  0  0  0  0  0
  -24.6030  -31.8950   23.2340 C   0  0  0  0  0  0  0  0  0  0  0  0
  -27.2340  -27.2540   20.2420 C   0  0  0  0  0  0  0  0  0  0  0  0
  -23.4250  -30.4930   21.5820 C   0  0  0  0  0  3  0  0  0  0  0  0
  -24.8950  -28.9390   20.1790 C   0  0  0  0  0  0  0  0  0  0  0  0
  -25.9740  -30.7940   21.4360 C   0  0  0  0  0  2  0  0  0  0  0  0
  -26.0570  -29.3980   20.8150 C   0  0  0  0  0  0  0  0  0  0  0  0
  -27.2280  -28.5620   20.8470 C   0  0  0  0  0  3  0  0  0  0  0  0
  -26.0740  -26.9180   19.5120 C   0  0  0  0  0  3  0  0  0  0  0  0
  -24.9110  -27.7060   19.5170 C   0  0  0  0  0  3  0  0  0  0  0  0
  -23.6620  -29.8210   20.2030 C   0  0  0  0  0  2  0  0  0  0  0  0
  -24.6870  -31.0830   22.1390 N   0  0  0  0  0  0  0  0  0  0  0  0
  -23.5110  -32.1670   23.7570 O   0  0  0  0  0  0  0  0  0  0  0  0
  -22.7580  -29.4700   22.5360 C   0  0  0  0  0  0  0  0  0  0  0  0
  -21.4310  -29.2870   22.4020 N   0  0  0  0  0  0  0  0  0  0  0  0
  -23.4340  -28.8440   23.3560 O   0  0  0  0  0  0  0  0  0  0  0  0
  -20.9470  -29.8440   21.7120 H   0  0  0  0  0  0  0  0  0  0  0  0
  -18.0490  -28.0980   22.9060 C   0  0  0  0  0  0  0  0  0  0  0  0
  -20.6100  -28.3460   23.1660 C   0  0  0  0  0  3  0  0  0  0  0  0
  -20.7040  -26.9200   22.5750 C   0  0  0  0  0  2  0  0  0  0  0  0
  -19.5960  -26.6130   21.5630 C   0  0  0  0  0  2  0  0  0  0  0  0
  -18.2180  -26.7560   22.2140 C   0  0  0  0  0  2  0  0  0  0  0  0
  -19.1720  -28.8530   23.3380 C   0  0  0  0  0  0  0  0  0  0  0  0
  -18.9600  -30.1080   23.9460 C   0  0  0  0  0  3  0  0  0  0  0  0
  -17.6580  -30.6110   24.1270 C   0  0  0  0  0  3  0  0  0  0  0  0
  -16.5490  -29.8540   23.7110 C   0  0  0  0  0  3  0  0  0  0  0  0
  -16.7460  -28.5990   23.1070 C   0  0  0  0  0  3  0  0  0  0  0  0
  -25.8740  -32.5390   23.8690 C   0  0  0  0  0  3  0  0  0  0  0  0
  -25.5570  -33.9420   24.1780 N   0  0  0  0  0  0  0  0  0  0  0  0
  -25.8950  -34.9890   23.4130 C   0  0  0  0  0  0  0  0  0  0  0  0
  -26.5760  -34.8750   22.3910 O   0  0  0  0  0  0  0  0  0  0  0  0
  -24.9600  -34.1060   24.9750 H   0  0  0  0  0  0  0  0  0  0  0  0
  -24.1760  -36.7830   23.0120 C   0  0  0  0  0  1  0  0  0  0  0  0
  -25.4010  -36.3830   23.8510 C   0  0  0  0  0  3  0  0  0  0  0  0
  -27.5170  -37.2740   24.7240 C   0  0  0  0  0  1  0  0  0  0  0  0
  -26.4380  -37.4330   23.7520 N   0  0  0  0  0  0  0  0  0  0  0  0
  -26.0290  -38.3540   23.8810 H   0  0  0  0  0  0  0  0  0  0  0  0
  -26.3710  -31.7880   25.1640 C   0  0  1  0  0  0  0  0  0  0  0  0
  -25.2620  -31.5580   26.2170 C   0  0  0  0  0  1  0  0  0  0  0  0
  -26.9640  -30.4080   24.8000 C   0  0  0  0  0  1  0  0  0  0  0  0
  -27.5060  -32.5930   25.8360 C   0  0  0  0  0  1  0  0  0  0  0  0
  1 13  1  0
  1  4  1  0
  2  3  1  0
  2  4  1  0
  2  5  1  0
  4  7  1  0
  5  8  1  0
  6  1  2  0
  9 10  2  0
  9 11  1  0
 10 13  1  0
 11 14  2  0
 13 12  2  0
 14 23  1  0
 14 12  1  0
 15 23  1  0
 16 21  1  0
 17 18  1  0
 17 16  1  0
 19 18  1  0
 19 28  1  0
 19 20  1  0
 21 15  1  0
 21 20  1  0
 22 15  2  0
 23 24  1  0
 25 26  2  0
 26 45  1  0
 27 26  1  0
 27 30  1  0
 28 29  1  0
 28 25  1  0
 29 27  2  0
 30 31  1  0
 31 32  2  0
 33 36  1  0
 33 32  1  0
 34 33  2  0
 35 34  1  0
 35 30  2  0
 36 37  1  0
 37 38  1  0
 38 39  2  0
 40 39  1  0
 40 44  1  0
 41 40  2  0
 42 37  2  0
 42 41  1  0
 43 42  1  0
 45 46  1  0
 46 49  1  0
 46 48  1  0
 47 45  2  0
 50 51  1  0
 50 25  1  0
 52 50  1  0
 53 55  1  0
 53  5  1  0
 54 65  2  0
 55 60  1  0
 56 64  1  0
 56 66  1  0
 57 63  1  0
 57 59  1  0
 58 64  1  0
 59 60  2  0
 59 58  1  0
 61 62  1  0
 61 55  2  0
 62 57  2  0
 63 56  1  0
 64 54  1  0
 66 68  2  0
 67 66  1  0
 69 67  1  0
 70 79  2  0
 70 75  1  0
 71 67  1  0
 71 75  1  0
 72 71  1  0
 73 74  1  0
 73 72  1  0
 74 70  1  0
 75 76  2  0
 76 77  1  0
 78 77  2  0
 79 78  1  0
 80 54  1  0
 80 81  1  0
 80 90  1  0
 81 84  1  0
 82 86  1  0
 82 81  1  0
 83 82  2  0
 86 85  1  0
 88 86  1  0
 88 89  1  0
 88 87  1  0
 90 93  1  1
 90 91  1  0
 92 90  1  0
M  ISO  4   5 101  15 100  23 100  53 101
M  END
>  <TORSDO>  (55) 
F 17

>  <SCORE>  (55) 
-15.190

>  <name>  (55) 
54

>  <ligand_id>  (55) 
54

>  <original_smiles>  (55) 
[H]c1c([H])c(C(=O)N([H])C(=[N+]([H])Oc2c([H])c([H])c3c(c2[H])C([H])([H])N(C(=O)C([H])(N([H])C(=O)C([H])(N([H])C([H])([H])[H])C([H])([H])[H])C(C([H])([H])[H])(C([H])([H])[H])C([H])([H])[H])C([H])(C(=O)N([H])C2([H])c4c([H])c([H])c([H])c([H])c4C([H])([H])C([H])([H])C2([H])[H])C3([H])[H])C([H])([H])[H])c([H])c(N([H])C(=O)N2C([H])([H])C([H])([H])C([H])([H])C([H])(n3nc(-c4c([H])c([H])c(Oc5c([H])c([H])c(F)c([H])c5F)c([H])c4[H])c(C(=O)N([H])[H])c3N([H])[H])C2([H])[H])c1[H]

>  <smiles>  (55) 
[H]c1c([H])c(C(=O)N([H])C(=[N+]([H])Oc2c([H])c([H])c3c(c2[H])C([H])([H])N(C(=O)C([H])(N([H])C(=O)C([H])(N([H])C([H])([H])[H])C([H])([H])[H])C(C([H])([H])[H])(C([H])([H])[H])C([H])([H])[H])C([H])(C(=O)N([H])C2([H])c4c([H])c([H])c([H])c([H])c4C([H])([H])C([H])([H])C2([H])[H])C3([H])[H])C([H])([H])[H])c([H])c(N([H])C(=O)N2C([H])([H])C([H])([H])C([H])([H])C([H])(n3nc(-c4c([H])c([H])c(Oc5c([H])c([H])c(F)c([H])c5F)c([H])c4[H])c(C(=O)N([H])[H])c3N([H])[H])C2([H])[H])c1[H]

$$$$
55:0:0
     RDKit          3D

 93102  0  0  1  0  0  0  0  0999 V2000
  -28.8820  -23.9570   20.1490 C   0  0  0  0  0  0  0  0  0  0  0  0
  -30.1100  -23.8540   19.4100 C   0  0  0  0  0  0  0  0  0  0  0  0
  -28.5380  -22.5560   20.5270 C   0  0  0  0  0  0  0  0  0  0  0  0
  -30.8220  -24.8790   18.9130 C   0  0  0  0  0  2  0  0  0  0  0  0
  -28.1320  -25.0770   20.4670 C   0  0  0  0  0  3  0  0  0  0  0  0
  -30.5080  -22.3990   19.2920 C   0  0  0  0  0  2  0  0  0  0  0  0
  -29.4780  -21.6570   20.0380 N   0  0  0  0  0  0  0  0  0  0  0  0
  -27.5450  -22.2350   21.1890 O   0  0  0  0  0  0  0  0  0  0  0  0
  -28.6260  -19.3610   20.8670 C   0  0  0  0  0  3  0  0  0  0  0  0
  -30.6330  -19.4200   19.5710 C   0  0  0  0  0  3  0  0  0  0  0  0
  -28.7460  -17.9390   20.9610 C   0  0  0  0  0  3  0  0  0  0  0  0
  -30.7570  -17.9930   19.6670 C   0  0  0  0  0  3  0  0  0  0  0  0
  -29.5660  -20.1700   20.1650 C   0  0  0  0  0  0  0  0  0  0  0  0
  -29.8090  -17.2000   20.3690 C   0  0  0  0  0  0  0  0  0  0  0  0
  -30.6000  -14.7070   20.0260 C   0  0  0  0  0  0  0  0  0  0  0  0
  -30.3680  -12.4780   18.9300 C   0  0  0  0  0  2  0  0  0  0  0  0
  -29.3520  -12.6200   17.7730 C   0  0  0  0  0  2  0  0  0  0  0  0
  -27.9070  -12.4390   18.2790 C   0  0  0  0  0  2  0  0  0  0  0  0
  -27.6150  -13.2720   19.5560 C   0  0  0  0  0  3  0  0  0  0  0  0
  -28.7350  -13.0940   20.6060 C   0  0  0  0  0  2  0  0  0  0  0  0
  -30.0060  -13.4680   19.9670 N   0  0  0  0  0  0  0  0  0  0  0  0
  -31.7310  -14.8890   19.5620 O   0  0  0  0  0  0  0  0  0  0  0  0
  -29.8080  -15.7300   20.4970 N   0  0  0  0  0  0  0  0  0  0  0  0
  -28.9770  -15.3660   20.9370 H   0  0  0  0  0  0  0  0  0  0  0  0
  -25.2660  -13.8560   20.4190 C   0  0  0  0  0  0  0  0  0  0  0  0
  -24.2200  -13.0760   20.8300 C   0  0  0  0  0  0  0  0  0  0  0  0
  -24.6770  -11.7250   20.7420 C   0  0  0  0  0  0  0  0  0  0  0  0
  -26.2940  -12.9800   20.1060 N   0  0  0  0  0  0  0  0  0  0  0  0
  -25.9480  -11.6920   20.3600 N   0  0  0  0  0  0  0  0  0  0  0  0
  -23.9600  -10.4580   20.9420 C   0  0  0  0  0  0  0  0  0  0  0  0
  -24.4100   -9.4950   21.8700 C   0  0  0  0  0  3  0  0  0  0  0  0
  -23.6920   -8.2940   22.0590 C   0  0  0  0  0  3  0  0  0  0  0  0
  -22.5120   -8.0470   21.3180 C   0  0  0  0  0  0  0  0  0  0  0  0
  -22.0820   -9.0010   20.3780 C   0  0  0  0  0  3  0  0  0  0  0  0
  -22.8000  -10.1930   20.1870 C   0  0  0  0  0  3  0  0  0  0  0  0
  -21.7650   -6.8980   21.4150 O   0  0  0  0  0  0  0  0  0  0  0  0
  -21.6880   -6.1880   22.5860 C   0  0  0  0  0  0  0  0  0  0  0  0
  -21.2200   -6.7720   23.7830 C   0  0  0  0  0  3  0  0  0  0  0  0
  -21.0910   -5.9870   24.9470 C   0  0  0  0  0  3  0  0  0  0  0  0
  -21.4180   -4.6190   24.9130 C   0  0  0  0  0  0  0  0  0  0  0  0
  -21.8800   -4.0340   23.7200 C   0  0  0  0  0  3  0  0  0  0  0  0
  -22.0110   -4.8160   22.5610 C   0  0  0  0  0  0  0  0  0  0  0  0
  -22.4350   -4.2430   21.4090 F   0  0  0  0  0  0  0  0  0  0  0  0
  -21.2870   -3.8630   26.0270 F   0  0  0  0  0  0  0  0  0  0  0  0
  -22.8410  -13.5470   21.1900 C   0  0  0  0  0  0  0  0  0  0  0  0
  -22.1620  -12.8360   22.0820 N   0  0  0  0  0  0  0  0  0  0  0  0
  -22.3750  -14.5820   20.7140 O   0  0  0  0  0  0  0  0  0  0  0  0
  -22.5520  -11.9970   22.4900 H   0  0  0  0  0  0  0  0  0  0  0  0
  -21.2390  -13.1340   22.3640 H   0  0  0  0  0  0  0  0  0  0  0  0
  -25.4240  -15.2310   20.2630 N   0  0  0  0  0  0  0  0  0  0  0  0
  -24.6600  -15.8790   20.4180 H   0  0  0  0  0  0  0  0  0  0  0  0
  -26.2430  -15.6730   19.8660 H   0  0  0  0  0  0  0  0  0  0  0  0
  -28.3590  -26.4460   20.1680 O   0  0  0  0  0  0  0  0  0  0  0  0
  -24.6520  -31.8720   23.2330 C   0  0  0  0  0  0  0  0  0  0  0  0
  -27.2580  -27.3220   20.1540 C   0  0  0  0  0  0  0  0  0  0  0  0
  -23.4420  -30.4770   21.5930 C   0  0  0  0  0  3  0  0  0  0  0  0
  -24.8920  -28.9330   20.1550 C   0  0  0  0  0  0  0  0  0  0  0  0
  -25.9810  -30.7990   21.4010 C   0  0  0  0  0  2  0  0  0  0  0  0
  -26.0630  -29.4220   20.7510 C   0  0  0  0  0  0  0  0  0  0  0  0
  -27.2500  -28.6260   20.7420 C   0  0  0  0  0  3  0  0  0  0  0  0
  -26.0680  -26.8930   19.5280 C   0  0  0  0  0  3  0  0  0  0  0  0
  -24.8970  -27.6740   19.5330 C   0  0  0  0  0  3  0  0  0  0  0  0
  -23.6530  -29.8040   20.2110 C   0  0  0  0  0  2  0  0  0  0  0  0
  -24.7110  -31.0660   22.1320 N   0  0  0  0  0  0  0  0  0  0  0  0
  -23.5700  -32.1460   23.7740 O   0  0  0  0  0  0  0  0  0  0  0  0
  -22.7840  -29.4580   22.5520 C   0  0  0  0  0  0  0  0  0  0  0  0
  -21.4570  -29.2780   22.4290 N   0  0  0  0  0  0  0  0  0  0  0  0
  -23.4650  -28.8310   23.3680 O   0  0  0  0  0  0  0  0  0  0  0  0
  -20.9660  -29.8360   21.7450 H   0  0  0  0  0  0  0  0  0  0  0  0
  -18.0830  -28.0780   22.9360 C   0  0  0  0  0  0  0  0  0  0  0  0
  -20.6420  -28.3380   23.2000 C   0  0  0  0  0  3  0  0  0  0  0  0
  -20.7420  -26.9080   22.6190 C   0  0  0  0  0  2  0  0  0  0  0  0
  -19.6370  -26.5880   21.6070 C   0  0  0  0  0  2  0  0  0  0  0  0
  -18.2580  -26.7310   22.2560 C   0  0  0  0  0  2  0  0  0  0  0  0
  -19.2030  -28.8390   23.3650 C   0  0  0  0  0  0  0  0  0  0  0  0
  -18.9850  -30.1000   23.9620 C   0  0  0  0  0  3  0  0  0  0  0  0
  -17.6800  -30.6000   24.1350 C   0  0  0  0  0  3  0  0  0  0  0  0
  -16.5750  -29.8360   23.7220 C   0  0  0  0  0  3  0  0  0  0  0  0
  -16.7770  -28.5760   23.1290 C   0  0  0  0  0  3  0  0  0  0  0  0
  -25.9350  -32.5030   23.8530 C   0  0  0  0  0  3  0  0  0  0  0  0
  -25.6270  -33.9000   24.1900 N   0  0  0  0  0  0  0  0  0  0  0  0
  -25.9450  -34.9560   23.4290 C   0  0  0  0  0  0  0  0  0  0  0  0
  -26.5990  -34.8560   22.3880 O   0  0  0  0  0  0  0  0  0  0  0  0
  -25.0440  -34.0520   25.0000 H   0  0  0  0  0  0  0  0  0  0  0  0
  -24.2000  -36.7410   23.1130 C   0  0  0  0  0  1  0  0  0  0  0  0
  -25.4620  -36.3420   23.8960 C   0  0  0  0  0  3  0  0  0  0  0  0
  -27.6080  -37.2400   24.6820 C   0  0  0  0  0  1  0  0  0  0  0  0
  -26.4870  -37.4000   23.7590 N   0  0  0  0  0  0  0  0  0  0  0  0
  -26.0790  -38.3190   23.9110 H   0  0  0  0  0  0  0  0  0  0  0  0
  -26.4570  -31.7280   25.1260 C   0  0  1  0  0  0  0  0  0  0  0  0
  -25.3670  -31.4860   26.1960 C   0  0  0  0  0  1  0  0  0  0  0  0
  -27.0380  -30.3510   24.7280 C   0  0  0  0  0  1  0  0  0  0  0  0
  -27.6100  -32.5200   25.7870 C   0  0  0  0  0  1  0  0  0  0  0  0
  1  5  2  0
  1  3  1  0
  2  1  1  0
  3  8  2  0
  4  2  2  0
  6  2  1  0
  6  7  1  0
  7 13  1  0
  7  3  1  0
  9 11  1  0
 10 12  2  0
 10 13  1  0
 12 14  1  0
 13  9  2  0
 14 23  1  0
 14 11  2  0
 15 23  1  0
 16 21  1  0
 17 18  1  0
 17 16  1  0
 19 18  1  0
 19 28  1  0
 19 20  1  0
 21 15  1  0
 21 20  1  0
 22 15  2  0
 23 24  1  0
 25 26  2  0
 26 45  1  0
 27 26  1  0
 27 30  1  0
 28 29  1  0
 28 25  1  0
 29 27  2  0
 30 31  1  0
 31 32  2  0
 33 36  1  0
 33 32  1  0
 34 33  2  0
 35 34  1  0
 35 30  2  0
 36 37  1  0
 37 38  1  0
 38 39  2  0
 40 39  1  0
 40 44  1  0
 41 40  2  0
 42 37  2  0
 42 41  1  0
 43 42  1  0
 45 46  1  0
 46 49  1  0
 46 48  1  0
 47 45  2  0
 50 51  1  0
 50 25  1  0
 52 50  1  0
 53  5  1  0
 54 65  2  0
 55 53  1  0
 55 60  1  0
 56 64  1  0
 56 66  1  0
 57 63  1  0
 57 59  1  0
 58 64  1  0
 59 58  1  0
 60 59  2  0
 61 62  1  0
 61 55  2  0
 62 57  2  0
 63 56  1  0
 64 54  1  0
 66 68  2  0
 67 66  1  0
 69 67  1  0
 70 79  2  0
 70 75  1  0
 71 67  1  0
 71 75  1  0
 72 71  1  0
 73 74  1  0
 73 72  1  0
 74 70  1  0
 75 76  2  0
 76 77  1  0
 78 77  2  0
 79 78  1  0
 80 54  1  0
 80 81  1  0
 80 90  1  0
 81 84  1  0
 82 86  1  0
 82 81  1  0
 83 82  2  0
 86 85  1  0
 88 86  1  0
 88 89  1  0
 88 87  1  0
 90 93  1  1
 90 91  1  0
 92 90  1  0
M  ISO  4   5 101  15 100  23 100  53 101
M  END
>  <TORSDO>  (56) 
F 17

>  <SCORE>  (56) 
-14.666

>  <name>  (56) 
55

>  <ligand_id>  (56) 
55

>  <original_smiles>  (56) 
[H]C([H])=C1C(=C([H])Oc2c([H])c([H])c3c(c2[H])C([H])([H])N(C(=O)C([H])(N([H])C(=O)C([H])(N([H])C([H])([H])[H])C([H])([H])[H])C(C([H])([H])[H])(C([H])([H])[H])C([H])([H])[H])C([H])(C(=O)N([H])C2([H])c4c([H])c([H])c([H])c([H])c4C([H])([H])C([H])([H])C2([H])[H])C3([H])[H])C(=O)N(c2c([H])c([H])c(N([H])C(=O)N3C([H])([H])C([H])([H])C([H])([H])C([H])(n4nc(-c5c([H])c([H])c(Oc6c([H])c([H])c(F)c([H])c6F)c([H])c5[H])c(C(=O)N([H])[H])c4N([H])[H])C3([H])[H])c([H])c2[H])C1([H])[H]

>  <smiles>  (56) 
[H]C([H])=C1C(=C([H])Oc2c([H])c([H])c3c(c2[H])C([H])([H])N(C(=O)C([H])(N([H])C(=O)C([H])(N([H])C([H])([H])[H])C([H])([H])[H])C(C([H])([H])[H])(C([H])([H])[H])C([H])([H])[H])C([H])(C(=O)N([H])C2([H])c4c([H])c([H])c([H])c([H])c4C([H])([H])C([H])([H])C2([H])[H])C3([H])[H])C(=O)N(c2c([H])c([H])c(N([H])C(=O)N3C([H])([H])C([H])([H])C([H])([H])C([H])(n4nc(-c5c([H])c([H])c(Oc6c([H])c([H])c(F)c([H])c6F)c([H])c5[H])c(C(=O)N([H])[H])c4N([H])[H])C3([H])[H])c([H])c2[H])C1([H])[H]

$$$$
56:0:0
     RDKit          3D

 97106  0  0  1  0  0  0  0  0999 V2000
  -28.8150  -24.2000   21.0370 C   0  0  0  0  0  0  0  0  0  0  0  0
  -28.8660  -23.6220   22.3740 C   0  0  0  0  0  0  0  0  0  0  0  0
  -29.1100  -23.0550   20.1120 C   0  0  0  0  0  0  0  0  0  0  0  0
  -28.5240  -25.5690   20.9310 C   0  0  0  0  0  3  0  0  0  0  0  0
  -29.2030  -22.1510   22.2850 C   0  0  0  0  0  2  0  0  0  0  0  0
  -29.3290  -21.8860   20.8530 N   0  0  0  0  0  0  0  0  0  0  0  0
  -28.6830  -24.1990   23.4540 O   0  0  0  0  0  0  0  0  0  0  0  0
  -29.1540  -23.1080   18.8770 O   0  0  0  0  0  0  0  0  0  0  0  0
  -28.5570  -19.5740   20.1300 C   0  0  0  0  0  3  0  0  0  0  0  0
  -31.0260  -18.3790   20.6880 C   0  0  0  0  0  3  0  0  0  0  0  0
  -29.6070  -20.4660   20.4830 C   0  0  0  0  0  0  0  0  0  0  0  0
  -30.8580  -19.8130   20.7480 C   0  0  0  0  0  0  0  0  0  0  0  0
  -29.9490  -17.4920   20.3920 C   0  0  0  0  0  0  0  0  0  0  0  0
  -28.7210  -18.1500   20.0960 C   0  0  0  0  0  0  0  0  0  0  0  0
  -27.6450  -17.3800   19.8110 F   0  0  0  0  0  0  0  0  0  0  0  0
  -30.7890  -14.9590   20.2270 C   0  0  0  0  0  0  0  0  0  0  0  0
  -30.6370  -12.6700   19.2140 C   0  0  0  0  0  2  0  0  0  0  0  0
  -29.6770  -12.7290   18.0040 C   0  0  0  0  0  2  0  0  0  0  0  0
  -28.2090  -12.5530   18.4460 C   0  0  0  0  0  2  0  0  0  0  0  0
  -27.8450  -13.4460   19.6610 C   0  0  0  0  0  3  0  0  0  0  0  0
  -28.9140  -13.3380   20.7710 C   0  0  0  0  0  2  0  0  0  0  0  0
  -30.2090  -13.7100   20.1770 N   0  0  0  0  0  0  0  0  0  0  0  0
  -31.9610  -15.1210   19.8690 O   0  0  0  0  0  0  0  0  0  0  0  0
  -29.9300  -16.0080   20.5000 N   0  0  0  0  0  0  0  0  0  0  0  0
  -29.0000  -15.6610   20.6750 H   0  0  0  0  0  0  0  0  0  0  0  0
  -25.4630  -14.0500   20.4110 C   0  0  0  0  0  0  0  0  0  0  0  0
  -24.3970  -13.2800   20.7890 C   0  0  0  0  0  0  0  0  0  0  0  0
  -24.8540  -11.9270   20.7510 C   0  0  0  0  0  0  0  0  0  0  0  0
  -26.5020  -13.1660   20.1620 N   0  0  0  0  0  0  0  0  0  0  0  0
  -26.1410  -11.8840   20.4290 N   0  0  0  0  0  0  0  0  0  0  0  0
  -24.1230  -10.6690   20.9480 C   0  0  0  0  0  0  0  0  0  0  0  0
  -24.5220   -9.7270   21.9220 C   0  0  0  0  0  3  0  0  0  0  0  0
  -23.7920   -8.5330   22.1040 C   0  0  0  0  0  3  0  0  0  0  0  0
  -22.6480   -8.2720   21.3130 C   0  0  0  0  0  0  0  0  0  0  0  0
  -22.2680   -9.2030   20.3300 C   0  0  0  0  0  3  0  0  0  0  0  0
  -22.9990  -10.3880   20.1460 C   0  0  0  0  0  3  0  0  0  0  0  0
  -21.8930   -7.1280   21.4020 O   0  0  0  0  0  0  0  0  0  0  0  0
  -21.7650   -6.4420   22.5830 C   0  0  0  0  0  0  0  0  0  0  0  0
  -21.2010   -7.0370   23.7340 C   0  0  0  0  0  3  0  0  0  0  0  0
  -21.0210   -6.2740   24.9040 C   0  0  0  0  0  3  0  0  0  0  0  0
  -21.3970   -4.9170   24.9260 C   0  0  0  0  0  0  0  0  0  0  0  0
  -21.9550   -4.3230   23.7810 C   0  0  0  0  0  3  0  0  0  0  0  0
  -22.1350   -5.0840   22.6120 C   0  0  0  0  0  0  0  0  0  0  0  0
  -22.6520   -4.5000   21.5040 F   0  0  0  0  0  0  0  0  0  0  0  0
  -21.2190   -4.1820   26.0470 F   0  0  0  0  0  0  0  0  0  0  0  0
  -23.0060  -13.7650   21.0770 C   0  0  0  0  0  0  0  0  0  0  0  0
  -22.2800  -13.0690   21.9440 N   0  0  0  0  0  0  0  0  0  0  0  0
  -22.5710  -14.7960   20.5670 O   0  0  0  0  0  0  0  0  0  0  0  0
  -22.6450  -12.2350   22.3800 H   0  0  0  0  0  0  0  0  0  0  0  0
  -21.3460  -13.3770   22.1790 H   0  0  0  0  0  0  0  0  0  0  0  0
  -25.6250  -15.4190   20.2390 N   0  0  0  0  0  0  0  0  0  0  0  0
  -24.8540  -16.0640   20.3750 H   0  0  0  0  0  0  0  0  0  0  0  0
  -26.4670  -15.8910   19.9220 H   0  0  0  0  0  0  0  0  0  0  0  0
  -31.9510  -20.5830   21.1420 N   0  0  0  0  0  0  0  0  0  0  0  0
  -32.8780  -20.1700   21.1140 H   0  0  0  0  0  0  0  0  0  0  0  0
  -31.9560  -21.5780   20.9430 H   0  0  0  0  0  0  0  0  0  0  0  0
  -28.4350  -26.5340   19.9020 O   0  0  0  0  0  0  0  0  0  0  0  0
  -24.6730  -31.8430   23.1940 C   0  0  0  0  0  0  0  0  0  0  0  0
  -27.3510  -27.4330   19.9500 C   0  0  0  0  0  0  0  0  0  0  0  0
  -23.4830  -30.4790   21.5160 C   0  0  0  0  0  3  0  0  0  0  0  0
  -24.9560  -29.0090   20.0190 C   0  0  0  0  0  0  0  0  0  0  0  0
  -26.0160  -30.8540   21.3190 C   0  0  0  0  0  2  0  0  0  0  0  0
  -26.1230  -29.4970   20.6240 C   0  0  0  0  0  0  0  0  0  0  0  0
  -27.3260  -28.7210   20.5830 C   0  0  0  0  0  3  0  0  0  0  0  0
  -26.1640  -27.0070   19.3230 C   0  0  0  0  0  3  0  0  0  0  0  0
  -24.9790  -27.7710   19.3570 C   0  0  0  0  0  3  0  0  0  0  0  0
  -23.7010  -29.8570   20.1090 C   0  0  0  0  0  2  0  0  0  0  0  0
  -24.7430  -31.0760   22.0660 N   0  0  0  0  0  0  0  0  0  0  0  0
  -23.5900  -32.0760   23.7510 O   0  0  0  0  0  0  0  0  0  0  0  0
  -22.8520  -29.4130   22.4460 C   0  0  0  0  0  0  0  0  0  0  0  0
  -21.5310  -29.2020   22.3200 N   0  0  0  0  0  0  0  0  0  0  0  0
  -23.5520  -28.7820   23.2410 O   0  0  0  0  0  0  0  0  0  0  0  0
  -21.0230  -29.7670   21.6540 H   0  0  0  0  0  0  0  0  0  0  0  0
  -18.1990  -27.8650   22.7740 C   0  0  0  0  0  0  0  0  0  0  0  0
  -20.7450  -28.2160   23.0650 C   0  0  0  0  0  3  0  0  0  0  0  0
  -20.9030  -26.8030   22.4560 C   0  0  0  0  0  2  0  0  0  0  0  0
  -19.8200  -26.4620   21.4280 C   0  0  0  0  0  2  0  0  0  0  0  0
  -18.4290  -26.5400   22.0680 C   0  0  0  0  0  2  0  0  0  0  0  0
  -19.2860  -28.6590   23.2290 C   0  0  0  0  0  0  0  0  0  0  0  0
  -19.0160  -29.8970   23.8490 C   0  0  0  0  0  3  0  0  0  0  0  0
  -17.6910  -30.3430   24.0210 C   0  0  0  0  0  3  0  0  0  0  0  0
  -16.6190  -29.5460   23.5830 C   0  0  0  0  0  3  0  0  0  0  0  0
  -16.8740  -28.3090   22.9650 C   0  0  0  0  0  3  0  0  0  0  0  0
  -25.9480  -32.4840   23.8250 C   0  0  0  0  0  3  0  0  0  0  0  0
  -25.6240  -33.8770   24.1650 N   0  0  0  0  0  0  0  0  0  0  0  0
  -25.9510  -34.9400   23.4180 C   0  0  0  0  0  0  0  0  0  0  0  0
  -26.6260  -34.8530   22.3900 O   0  0  0  0  0  0  0  0  0  0  0  0
  -25.0260  -34.0170   24.9660 H   0  0  0  0  0  0  0  0  0  0  0  0
  -24.2280  -36.7380   23.0560 C   0  0  0  0  0  1  0  0  0  0  0  0
  -25.4510  -36.3220   23.8880 C   0  0  0  0  0  3  0  0  0  0  0  0
  -27.5600  -37.2020   24.7880 C   0  0  0  0  0  1  0  0  0  0  0  0
  -26.4840  -37.3780   23.8150 N   0  0  0  0  0  0  0  0  0  0  0  0
  -26.0710  -38.2960   23.9620 H   0  0  0  0  0  0  0  0  0  0  0  0
  -26.4670  -31.7080   25.0970 C   0  0  1  0  0  0  0  0  0  0  0  0
  -25.3710  -31.4530   26.1590 C   0  0  0  0  0  1  0  0  0  0  0  0
  -27.0640  -30.3380   24.7000 C   0  0  0  0  0  1  0  0  0  0  0  0
  -27.6060  -32.5100   25.7700 C   0  0  0  0  0  1  0  0  0  0  0  0
  1  2  1  0
  2  7  2  0
  3  6  1  0
  3  1  1  0
  4  1  2  0
  5  2  1  0
  6  5  1  0
  8  3  2  0
  9 11  1  0
 10 12  1  0
 11 12  2  0
 11  6  1  0
 12 54  1  0
 13 24  1  0
 13 10  2  0
 14  9  2  0
 14 13  1  0
 15 14  1  0
 16 24  1  0
 17 22  1  0
 18 19  1  0
 18 17  1  0
 20 19  1  0
 20 29  1  0
 20 21  1  0
 22 16  1  0
 22 21  1  0
 23 16  2  0
 24 25  1  0
 26 27  2  0
 27 46  1  0
 28 27  1  0
 28 31  1  0
 29 26  1  0
 29 30  1  0
 30 28  2  0
 31 32  1  0
 32 33  2  0
 34 37  1  0
 34 33  1  0
 35 34  2  0
 36 35  1  0
 36 31  2  0
 37 38  1  0
 38 43  2  0
 38 39  1  0
 39 40  2  0
 40 41  1  0
 41 45  1  0
 42 41  2  0
 43 42  1  0
 44 43  1  0
 46 47  1  0
 47 50  1  0
 47 49  1  0
 48 46  2  0
 51 52  1  0
 51 26  1  0
 53 51  1  0
 55 54  1  0
 56 54  1  0
 57 59  1  0
 57  4  1  0
 58 69  2  0
 59 64  1  0
 60 68  1  0
 60 70  1  0
 61 67  1  0
 61 63  1  0
 62 68  1  0
 63 62  1  0
 64 63  2  0
 65 66  1  0
 65 59  2  0
 66 61  2  0
 67 60  1  0
 68 58  1  0
 70 72  2  0
 71 70  1  0
 73 71  1  0
 74 83  2  0
 74 79  1  0
 75 71  1  0
 75 79  1  0
 76 75  1  0
 77 78  1  0
 77 76  1  0
 78 74  1  0
 79 80  2  0
 80 81  1  0
 82 81  2  0
 83 82  1  0
 84 58  1  0
 84 85  1  0
 84 94  1  0
 85 88  1  0
 86 90  1  0
 86 85  1  0
 87 86  2  0
 90 89  1  0
 92 90  1  0
 92 93  1  0
 92 91  1  0
 94 97  1  1
 94 95  1  0
 96 94  1  0
M  ISO  4   4 101  16 100  24 100  57 101
M  END
>  <TORSDO>  (57) 
F 18

>  <SCORE>  (57) 
-14.803

>  <name>  (57) 
56

>  <ligand_id>  (57) 
56

>  <original_smiles>  (57) 
[H]C(Oc1c([H])c([H])c2c(c1[H])C([H])([H])N(C(=O)C([H])(N([H])C(=O)C([H])(N([H])C([H])([H])[H])C([H])([H])[H])C(C([H])([H])[H])(C([H])([H])[H])C([H])([H])[H])C([H])(C(=O)N([H])C1([H])c3c([H])c([H])c([H])c([H])c3C([H])([H])C([H])([H])C1([H])[H])C2([H])[H])=C1C(=O)N(c2c([H])c(F)c(N([H])C(=O)N3C([H])([H])C([H])([H])C([H])([H])C([H])(n4nc(-c5c([H])c([H])c(Oc6c([H])c([H])c(F)c([H])c6F)c([H])c5[H])c(C(=O)N([H])[H])c4N([H])[H])C3([H])[H])c([H])c2N([H])[H])C([H])([H])C1=O

>  <smiles>  (57) 
[H]C(Oc1c([H])c([H])c2c(c1[H])C([H])([H])N(C(=O)C([H])(N([H])C(=O)C([H])(N([H])C([H])([H])[H])C([H])([H])[H])C(C([H])([H])[H])(C([H])([H])[H])C([H])([H])[H])C([H])(C(=O)N([H])C1([H])c3c([H])c([H])c([H])c([H])c3C([H])([H])C([H])([H])C1([H])[H])C2([H])[H])=C1C(=O)N(c2c([H])c(F)c(N([H])C(=O)N3C([H])([H])C([H])([H])C([H])([H])C([H])(n4nc(-c5c([H])c([H])c(Oc6c([H])c([H])c(F)c([H])c6F)c([H])c5[H])c(C(=O)N([H])[H])c4N([H])[H])C3([H])[H])c([H])c2N([H])[H])C([H])([H])C1=O

$$$$
57:0:0
     RDKit          3D

 94103  0  0  1  0  0  0  0  0999 V2000
  -28.7910  -23.7110   20.3650 C   0  0  0  0  0  0  0  0  0  0  0  0
  -30.0590  -23.5600   21.0300 C   0  0  0  0  0  0  0  0  0  0  0  0
  -28.4010  -22.2940   20.0370 C   0  0  0  0  0  0  0  0  0  0  0  0
  -30.8220  -24.5720   21.4780 C   0  0  0  0  0  1  0  0  0  0  0  0
  -28.0380  -24.8520   20.0370 C   0  0  0  0  0  2  0  0  0  0  0  0
  -30.4250  -22.0790   21.1530 C   0  0  0  0  0  2  0  0  0  0  0  0
  -29.3430  -21.3540   20.4640 N   0  0  0  0  0  0  0  0  0  0  0  0
  -27.3550  -21.9700   19.4630 O   0  0  0  0  0  0  0  0  0  0  0  0
  -29.5750  -19.7380   18.6070 C   0  0  0  0  0  3  0  0  0  0  0  0
  -29.7720  -18.4690   18.0290 C   0  0  0  0  0  3  0  0  0  0  0  0
  -29.6590  -18.6940   20.8020 C   0  0  0  0  0  3  0  0  0  0  0  0
  -29.5040  -19.9240   20.0070 C   0  0  0  0  0  0  0  0  0  0  0  0
  -29.8600  -17.3510   20.2230 C   0  0  0  0  0  0  0  0  0  0  0  0
  -29.9030  -17.3040   18.8080 C   0  0  0  0  0  0  0  0  0  0  0  0
  -30.0170  -16.1190   18.1610 F   0  0  0  0  0  0  0  0  0  0  0  0
  -30.6330  -14.8790   20.6840 C   0  0  0  0  0  0  0  0  0  0  0  0
  -30.5150  -12.5460   19.7780 C   0  0  0  0  0  2  0  0  0  0  0  0
  -29.6540  -12.5490   18.4940 C   0  0  0  0  0  2  0  0  0  0  0  0
  -28.1650  -12.3730   18.8400 C   0  0  0  0  0  2  0  0  0  0  0  0
  -27.7100  -13.3010   19.9950 C   0  0  0  0  0  3  0  0  0  0  0  0
  -28.6980  -13.2810   21.1830 C   0  0  0  0  0  2  0  0  0  0  0  0
  -30.0250  -13.6350   20.6640 N   0  0  0  0  0  0  0  0  0  0  0  0
  -31.8240  -14.9640   20.3730 O   0  0  0  0  0  0  0  0  0  0  0  0
  -29.8800  -16.0310   20.9420 N   0  0  0  0  0  0  0  0  0  0  0  0
  -29.0330  -15.8410   21.4550 H   0  0  0  0  0  0  0  0  0  0  0  0
  -25.2800  -13.8900   20.5640 C   0  0  0  0  0  0  0  0  0  0  0  0
  -24.1980  -13.1180   20.8890 C   0  0  0  0  0  0  0  0  0  0  0  0
  -24.6670  -11.7680   20.9180 C   0  0  0  0  0  0  0  0  0  0  0  0
  -26.3400  -13.0120   20.4130 N   0  0  0  0  0  0  0  0  0  0  0  0
  -25.9750  -11.7320   20.6890 N   0  0  0  0  0  0  0  0  0  0  0  0
  -23.9340  -10.5060   21.0940 C   0  0  0  0  0  0  0  0  0  0  0  0
  -24.3340   -9.5470   22.0520 C   0  0  0  0  0  3  0  0  0  0  0  0
  -23.6020   -8.3510   22.2150 C   0  0  0  0  0  3  0  0  0  0  0  0
  -22.4580   -8.1040   21.4210 C   0  0  0  0  0  0  0  0  0  0  0  0
  -22.0770   -9.0510   20.4540 C   0  0  0  0  0  3  0  0  0  0  0  0
  -22.8100  -10.2390   20.2890 C   0  0  0  0  0  3  0  0  0  0  0  0
  -21.6990   -6.9600   21.4950 O   0  0  0  0  0  0  0  0  0  0  0  0
  -21.6260   -6.2170   22.6460 C   0  0  0  0  0  0  0  0  0  0  0  0
  -21.1920   -6.7760   23.8680 C   0  0  0  0  0  3  0  0  0  0  0  0
  -21.0640   -5.9610   25.0100 C   0  0  0  0  0  3  0  0  0  0  0  0
  -21.3610   -4.5860   24.9320 C   0  0  0  0  0  0  0  0  0  0  0  0
  -21.7880   -4.0260   23.7150 C   0  0  0  0  0  3  0  0  0  0  0  0
  -21.9170   -4.8400   22.5750 C   0  0  0  0  0  0  0  0  0  0  0  0
  -22.3080   -4.2900   21.4000 F   0  0  0  0  0  0  0  0  0  0  0  0
  -21.2320   -3.8010   26.0260 F   0  0  0  0  0  0  0  0  0  0  0  0
  -22.7850  -13.5930   21.0650 C   0  0  0  0  0  0  0  0  0  0  0  0
  -22.0100  -12.9150   21.9040 N   0  0  0  0  0  0  0  0  0  0  0  0
  -22.3740  -14.6030   20.4950 O   0  0  0  0  0  0  0  0  0  0  0  0
  -22.3510  -12.0970   22.3860 H   0  0  0  0  0  0  0  0  0  0  0  0
  -21.0610  -13.2190   22.0660 H   0  0  0  0  0  0  0  0  0  0  0  0
  -25.4520  -15.2570   20.3640 N   0  0  0  0  0  0  0  0  0  0  0  0
  -24.6870  -15.9190   20.4230 H   0  0  0  0  0  0  0  0  0  0  0  0
  -26.3250  -15.6850   20.0790 H   0  0  0  0  0  0  0  0  0  0  0  0
  -28.2460  -26.2840   20.1750 O   0  0  0  0  0  0  0  0  0  0  0  0
  -24.5450  -31.8750   23.1300 C   0  0  0  0  0  0  0  0  0  0  0  0
  -27.1660  -27.2250   20.0970 C   0  0  0  0  0  0  0  0  0  0  0  0
  -23.3510  -30.4610   21.5020 C   0  0  0  0  0  3  0  0  0  0  0  0
  -24.8120  -28.9130   20.0760 C   0  0  0  0  0  0  0  0  0  0  0  0
  -25.8990  -30.7650   21.3260 C   0  0  0  0  0  2  0  0  0  0  0  0
  -25.9850  -29.3770   20.6860 C   0  0  0  0  0  0  0  0  0  0  0  0
  -27.1580  -28.5420   20.6980 C   0  0  0  0  0  3  0  0  0  0  0  0
  -25.9740  -26.8770   19.4140 C   0  0  0  0  0  3  0  0  0  0  0  0
  -24.8160  -27.6740   19.4290 C   0  0  0  0  0  3  0  0  0  0  0  0
  -23.5730  -29.7860   20.1250 C   0  0  0  0  0  2  0  0  0  0  0  0
  -24.6180  -31.0540   22.0410 N   0  0  0  0  0  0  0  0  0  0  0  0
  -23.4590  -32.1480   23.6630 O   0  0  0  0  0  0  0  0  0  0  0  0
  -22.6940  -29.4450   22.4670 C   0  0  0  0  0  0  0  0  0  0  0  0
  -21.3640  -29.2780   22.3660 N   0  0  0  0  0  0  0  0  0  0  0  0
  -23.3820  -28.8090   23.2710 O   0  0  0  0  0  0  0  0  0  0  0  0
  -20.8670  -29.8410   21.6910 H   0  0  0  0  0  0  0  0  0  0  0  0
  -17.9860  -28.1080   22.9360 C   0  0  0  0  0  0  0  0  0  0  0  0
  -20.5530  -28.3420   23.1480 C   0  0  0  0  0  3  0  0  0  0  0  0
  -20.6270  -26.9140   22.5580 C   0  0  0  0  0  2  0  0  0  0  0  0
  -19.5000  -26.6110   21.5680 C   0  0  0  0  0  2  0  0  0  0  0  0
  -18.1340  -26.7640   22.2440 C   0  0  0  0  0  2  0  0  0  0  0  0
  -19.1220  -28.8560   23.3470 C   0  0  0  0  0  0  0  0  0  0  0  0
  -18.9270  -30.1150   23.9550 C   0  0  0  0  0  3  0  0  0  0  0  0
  -17.6310  -30.6260   24.1550 C   0  0  0  0  0  3  0  0  0  0  0  0
  -16.5100  -29.8730   23.7620 C   0  0  0  0  0  3  0  0  0  0  0  0
  -16.6900  -28.6170   23.1570 C   0  0  0  0  0  3  0  0  0  0  0  0
  -25.8220  -32.5250   23.7450 C   0  0  0  0  0  3  0  0  0  0  0  0
  -25.4880  -33.9130   24.1020 N   0  0  0  0  0  0  0  0  0  0  0  0
  -25.8010  -34.9860   23.3650 C   0  0  0  0  0  0  0  0  0  0  0  0
  -26.4680  -34.9150   22.3310 O   0  0  0  0  0  0  0  0  0  0  0  0
  -24.8940  -34.0410   24.9080 H   0  0  0  0  0  0  0  0  0  0  0  0
  -24.0500  -36.7650   23.0470 C   0  0  0  0  0  1  0  0  0  0  0  0
  -25.2920  -36.3570   23.8540 C   0  0  0  0  0  3  0  0  0  0  0  0
  -27.4120  -37.2500   24.7130 C   0  0  0  0  0  1  0  0  0  0  0  0
  -26.3090  -37.4280   23.7720 N   0  0  0  0  0  0  0  0  0  0  0  0
  -25.8890  -38.3360   23.9440 H   0  0  0  0  0  0  0  0  0  0  0  0
  -26.3670  -31.7460   25.0050 C   0  0  1  0  0  0  0  0  0  0  0  0
  -25.2920  -31.4750   26.0830 C   0  0  0  0  0  1  0  0  0  0  0  0
  -26.9670  -30.3830   24.5910 C   0  0  0  0  0  1  0  0  0  0  0  0
  -27.5160  -32.5490   25.6610 C   0  0  0  0  0  1  0  0  0  0  0  0
  1  2  2  0
  2  6  1  0
  2  4  1  0
  3  1  1  0
  3  7  1  0
  5 54  1  0
  5  1  1  0
  7  6  1  0
  8  3  2  0
  9 12  1  0
 10  9  2  0
 10 14  1  0
 12  7  1  0
 12 11  2  0
 13 11  1  0
 13 24  1  0
 14 13  2  0
 15 14  1  0
 16 24  1  0
 17 22  1  0
 18 19  1  0
 18 17  1  0
 20 19  1  0
 20 29  1  0
 20 21  1  0
 22 16  1  0
 22 21  1  0
 23 16  2  0
 24 25  1  0
 26 27  2  0
 27 28  1  0
 27 46  1  0
 28 31  1  0
 29 26  1  0
 29 30  1  0
 30 28  2  0
 31 32  1  0
 32 33  2  0
 34 37  1  0
 34 33  1  0
 35 34  2  0
 36 35  1  0
 36 31  2  0
 37 38  1  0
 38 39  1  0
 39 40  2  0
 41 40  1  0
 41 45  1  0
 42 41  2  0
 43 38  2  0
 43 42  1  0
 44 43  1  0
 46 47  1  0
 47 50  1  0
 47 49  1  0
 48 46  2  0
 51 52  1  0
 51 26  1  0
 53 51  1  0
 55 66  2  0
 56 54  1  0
 56 61  1  0
 57 65  1  0
 57 67  1  0
 58 64  1  0
 58 60  1  0
 59 65  1  0
 60 61  2  0
 60 59  1  0
 62 63  1  0
 62 56  2  0
 63 58  2  0
 64 57  1  0
 65 55  1  0
 67 69  2  0
 68 67  1  0
 70 68  1  0
 71 80  2  0
 71 76  1  0
 72 68  1  0
 72 76  1  0
 73 72  1  0
 74 75  1  0
 74 73  1  0
 75 71  1  0
 76 77  2  0
 77 78  1  0
 79 78  2  0
 80 79  1  0
 81 55  1  0
 81 82  1  0
 81 91  1  0
 82 85  1  0
 83 87  1  0
 83 82  1  0
 84 83  2  0
 87 86  1  0
 89 87  1  0
 89 90  1  0
 89 88  1  0
 91 94  1  1
 91 92  1  0
 93 91  1  0
M  ISO  4   5 101  16 100  24 100  54 101
M  END
>  <TORSDO>  (58) 
F 17

>  <SCORE>  (58) 
-14.872

>  <name>  (58) 
57

>  <ligand_id>  (58) 
57

>  <original_smiles>  (58) 
[H]C([H])=C1C(=C([H])Oc2c([H])c([H])c3c(c2[H])C([H])([H])N(C(=O)C([H])(N([H])C(=O)C([H])(N([H])C([H])([H])[H])C([H])([H])[H])C(C([H])([H])[H])(C([H])([H])[H])C([H])([H])[H])C([H])(C(=O)N([H])C2([H])c4c([H])c([H])c([H])c([H])c4C([H])([H])C([H])([H])C2([H])[H])C3([H])[H])C(=O)N(c2c([H])c([H])c(F)c(N([H])C(=O)N3C([H])([H])C([H])([H])C([H])([H])C([H])(n4nc(-c5c([H])c([H])c(Oc6c([H])c([H])c(F)c([H])c6F)c([H])c5[H])c(C(=O)N([H])[H])c4N([H])[H])C3([H])[H])c2[H])C1([H])[H]

>  <smiles>  (58) 
[H]C([H])=C1C(=C([H])Oc2c([H])c([H])c3c(c2[H])C([H])([H])N(C(=O)C([H])(N([H])C(=O)C([H])(N([H])C([H])([H])[H])C([H])([H])[H])C(C([H])([H])[H])(C([H])([H])[H])C([H])([H])[H])C([H])(C(=O)N([H])C2([H])c4c([H])c([H])c([H])c([H])c4C([H])([H])C([H])([H])C2([H])[H])C3([H])[H])C(=O)N(c2c([H])c([H])c(F)c(N([H])C(=O)N3C([H])([H])C([H])([H])C([H])([H])C([H])(n4nc(-c5c([H])c([H])c(Oc6c([H])c([H])c(F)c([H])c6F)c([H])c5[H])c(C(=O)N([H])[H])c4N([H])[H])C3([H])[H])c2[H])C1([H])[H]

$$$$
58:0:0
     RDKit          3D

 91100  0  0  1  0  0  0  0  0999 V2000
  -28.5380  -23.7550   20.3990 C   0  0  0  0  0  0  0  0  0  0  0  0
  -28.0250  -22.5200   20.9850 C   0  0  0  0  0  0  0  0  0  0  0  0
  -28.0590  -25.0520   20.6160 C   0  0  0  0  0  3  0  0  0  0  0  0
  -29.6020  -22.9010   19.6360 C   0  0  0  0  0  2  0  0  0  0  0  0
  -28.9600  -21.7190   20.2930 N   0  0  0  0  0  0  0  0  0  0  0  0
  -27.1270  -22.3360   21.7790 O   0  0  0  0  0  0  0  0  0  0  0  0
  -28.6450  -19.3270   21.0680 C   0  0  0  0  0  3  0  0  0  0  0  0
  -30.2930  -19.5790   19.4210 C   0  0  0  0  0  3  0  0  0  0  0  0
  -28.9130  -17.9240   21.1340 C   0  0  0  0  0  3  0  0  0  0  0  0
  -30.5720  -18.1560   19.4680 C   0  0  0  0  0  3  0  0  0  0  0  0
  -29.3210  -20.2650   20.2320 C   0  0  0  0  0  0  0  0  0  0  0  0
  -29.9060  -17.2570   20.3590 C   0  0  0  0  0  0  0  0  0  0  0  0
  -30.7270  -14.7990   19.7980 C   0  0  0  0  0  0  0  0  0  0  0  0
  -30.4020  -12.5800   18.6480 C   0  0  0  0  0  2  0  0  0  0  0  0
  -29.3500  -12.6940   17.5220 C   0  0  0  0  0  2  0  0  0  0  0  0
  -27.9250  -12.5020   18.0750 C   0  0  0  0  0  2  0  0  0  0  0  0
  -27.6750  -13.3400   19.3550 C   0  0  0  0  0  3  0  0  0  0  0  0
  -28.8250  -13.1710   20.3650 C   0  0  0  0  0  2  0  0  0  0  0  0
  -30.0750  -13.5790   19.6990 N   0  0  0  0  0  0  0  0  0  0  0  0
  -31.7740  -14.9740   19.1650 O   0  0  0  0  0  0  0  0  0  0  0  0
  -30.2980  -15.4830   22.0550 C   0  0  0  0  0  1  0  0  0  0  0  0
  -30.2030  -15.8030   20.6190 N   0  0  0  0  0  0  0  0  0  0  0  0
  -25.3840  -13.9270   20.3520 C   0  0  0  0  0  0  0  0  0  0  0  0
  -24.3410  -13.1490   20.7800 C   0  0  0  0  0  0  0  0  0  0  0  0
  -24.7690  -11.7950   20.6220 C   0  0  0  0  0  0  0  0  0  0  0  0
  -26.3770  -13.0460   19.9570 N   0  0  0  0  0  0  0  0  0  0  0  0
  -26.0200  -11.7540   20.1810 N   0  0  0  0  0  0  0  0  0  0  0  0
  -24.0370  -10.5350   20.8110 C   0  0  0  0  0  0  0  0  0  0  0  0
  -24.5170   -9.5230   21.6700 C   0  0  0  0  0  3  0  0  0  0  0  0
  -23.7840   -8.3290   21.8480 C   0  0  0  0  0  3  0  0  0  0  0  0
  -22.5590   -8.1390   21.1660 C   0  0  0  0  0  0  0  0  0  0  0  0
  -22.0970   -9.1410   20.2950 C   0  0  0  0  0  3  0  0  0  0  0  0
  -22.8300  -10.3260   20.1150 C   0  0  0  0  0  3  0  0  0  0  0  0
  -21.7930   -7.0020   21.2580 O   0  0  0  0  0  0  0  0  0  0  0  0
  -21.7890   -6.2270   22.3900 C   0  0  0  0  0  0  0  0  0  0  0  0
  -21.4440   -6.7540   23.6530 C   0  0  0  0  0  3  0  0  0  0  0  0
  -21.3850   -5.9060   24.7770 C   0  0  0  0  0  3  0  0  0  0  0  0
  -21.6600   -4.5320   24.6400 C   0  0  0  0  0  0  0  0  0  0  0  0
  -21.9990   -4.0050   23.3820 C   0  0  0  0  0  3  0  0  0  0  0  0
  -22.0600   -4.8490   22.2590 C   0  0  0  0  0  0  0  0  0  0  0  0
  -22.3660   -4.3320   21.0450 F   0  0  0  0  0  0  0  0  0  0  0  0
  -21.5960   -3.7160   25.7180 F   0  0  0  0  0  0  0  0  0  0  0  0
  -22.9900  -13.6320   21.2200 C   0  0  0  0  0  0  0  0  0  0  0  0
  -22.3460  -12.9080   22.1290 N   0  0  0  0  0  0  0  0  0  0  0  0
  -22.5170  -14.6840   20.7930 O   0  0  0  0  0  0  0  0  0  0  0  0
  -22.7440  -12.0560   22.4950 H   0  0  0  0  0  0  0  0  0  0  0  0
  -21.4430  -13.2110   22.4650 H   0  0  0  0  0  0  0  0  0  0  0  0
  -25.5620  -15.3030   20.2440 N   0  0  0  0  0  0  0  0  0  0  0  0
  -24.8310  -15.9650   20.4810 H   0  0  0  0  0  0  0  0  0  0  0  0
  -26.3960  -15.7470   19.8800 H   0  0  0  0  0  0  0  0  0  0  0  0
  -28.3940  -26.3670   20.1650 O   0  0  0  0  0  0  0  0  0  0  0  0
  -24.7580  -31.8950   23.2360 C   0  0  0  0  0  0  0  0  0  0  0  0
  -27.3350  -27.3090   20.1390 C   0  0  0  0  0  0  0  0  0  0  0  0
  -23.5360  -30.4920   21.6150 C   0  0  0  0  0  3  0  0  0  0  0  0
  -24.9740  -28.9490   20.1600 C   0  0  0  0  0  0  0  0  0  0  0  0
  -26.0760  -30.8100   21.3960 C   0  0  0  0  0  2  0  0  0  0  0  0
  -26.1550  -29.4290   20.7450 C   0  0  0  0  0  0  0  0  0  0  0  0
  -27.3410  -28.6210   20.7260 C   0  0  0  0  0  3  0  0  0  0  0  0
  -26.1350  -26.9020   19.5180 C   0  0  0  0  0  3  0  0  0  0  0  0
  -24.9700  -27.6930   19.5350 C   0  0  0  0  0  3  0  0  0  0  0  0
  -23.7350  -29.8210   20.2300 C   0  0  0  0  0  2  0  0  0  0  0  0
  -24.8100  -31.0840   22.1380 N   0  0  0  0  0  0  0  0  0  0  0  0
  -23.6800  -32.1680   23.7860 O   0  0  0  0  0  0  0  0  0  0  0  0
  -22.8910  -29.4720   22.5850 C   0  0  0  0  0  0  0  0  0  0  0  0
  -21.5630  -29.2910   22.4820 N   0  0  0  0  0  0  0  0  0  0  0  0
  -23.5850  -28.8480   23.3920 O   0  0  0  0  0  0  0  0  0  0  0  0
  -21.0610  -29.8460   21.8030 H   0  0  0  0  0  0  0  0  0  0  0  0
  -18.2040  -28.0530   23.0150 C   0  0  0  0  0  0  0  0  0  0  0  0
  -20.7610  -28.3490   23.2650 C   0  0  0  0  0  3  0  0  0  0  0  0
  -20.8770  -26.9140   22.7010 C   0  0  0  0  0  2  0  0  0  0  0  0
  -19.7740  -26.5680   21.6970 C   0  0  0  0  0  2  0  0  0  0  0  0
  -18.3940  -26.7010   22.3500 C   0  0  0  0  0  2  0  0  0  0  0  0
  -19.3150  -28.8330   23.4320 C   0  0  0  0  0  0  0  0  0  0  0  0
  -19.0830  -30.0980   24.0160 C   0  0  0  0  0  3  0  0  0  0  0  0
  -17.7720  -30.5810   24.1880 C   0  0  0  0  0  3  0  0  0  0  0  0
  -16.6760  -29.7980   23.7870 C   0  0  0  0  0  3  0  0  0  0  0  0
  -16.8920  -28.5360   23.2070 C   0  0  0  0  0  3  0  0  0  0  0  0
  -26.0460  -32.5360   23.8380 C   0  0  0  0  0  3  0  0  0  0  0  0
  -25.7250  -33.9260   24.1950 N   0  0  0  0  0  0  0  0  0  0  0  0
  -26.0370  -34.9950   23.4500 C   0  0  0  0  0  0  0  0  0  0  0  0
  -26.6910  -34.9160   22.4070 O   0  0  0  0  0  0  0  0  0  0  0  0
  -25.1420  -34.0610   25.0070 H   0  0  0  0  0  0  0  0  0  0  0  0
  -24.2890  -36.7810   23.1520 C   0  0  0  0  0  1  0  0  0  0  0  0
  -25.5450  -36.3720   23.9380 C   0  0  0  0  0  3  0  0  0  0  0  0
  -27.6860  -37.2570   24.7520 C   0  0  0  0  0  1  0  0  0  0  0  0
  -26.5670  -37.4350   23.8300 N   0  0  0  0  0  0  0  0  0  0  0  0
  -26.1570  -38.3490   24.0030 H   0  0  0  0  0  0  0  0  0  0  0  0
  -26.5970  -31.7550   25.0940 C   0  0  1  0  0  0  0  0  0  0  0  0
  -25.5290  -31.4900   26.1810 C   0  0  0  0  0  1  0  0  0  0  0  0
  -27.1900  -30.3900   24.6740 C   0  0  0  0  0  1  0  0  0  0  0  0
  -27.7500  -32.5560   25.7430 C   0  0  0  0  0  1  0  0  0  0  0  0
  1  3  2  0
  1  2  1  0
  2  6  2  0
  4  5  1  0
  4  1  1  0
  5  2  1  0
  7  9  1  0
  8 10  2  0
  8 11  1  0
 10 12  1  0
 11  5  1  0
 11  7  2  0
 12 22  1  0
 12  9  2  0
 13 22  1  0
 14 19  1  0
 15 16  1  0
 15 14  1  0
 17 16  1  0
 17 26  1  0
 17 18  1  0
 19 13  1  0
 19 18  1  0
 20 13  2  0
 22 21  1  0
 23 24  2  0
 24 43  1  0
 25 24  1  0
 25 28  1  0
 26 27  1  0
 26 23  1  0
 27 25  2  0
 28 29  1  0
 29 30  2  0
 31 34  1  0
 31 30  1  0
 32 31  2  0
 33 32  1  0
 33 28  2  0
 34 35  1  0
 35 36  1  0
 36 37  2  0
 38 37  1  0
 38 42  1  0
 39 38  2  0
 40 35  2  0
 40 39  1  0
 41 40  1  0
 43 44  1  0
 44 47  1  0
 44 46  1  0
 45 43  2  0
 48 23  1  0
 48 49  1  0
 50 48  1  0
 51  3  1  0
 52 63  2  0
 53 51  1  0
 53 58  1  0
 54 62  1  0
 54 64  1  0
 55 61  1  0
 55 57  1  0
 56 62  1  0
 57 56  1  0
 58 57  2  0
 59 60  1  0
 59 53  2  0
 60 55  2  0
 61 54  1  0
 62 52  1  0
 64 66  2  0
 65 64  1  0
 67 65  1  0
 68 77  2  0
 68 73  1  0
 69 65  1  0
 69 73  1  0
 70 69  1  0
 71 72  1  0
 71 70  1  0
 72 68  1  0
 73 74  2  0
 74 75  1  0
 76 75  2  0
 77 76  1  0
 78 52  1  0
 78 79  1  0
 78 88  1  0
 79 82  1  0
 80 84  1  0
 80 79  1  0
 81 80  2  0
 84 83  1  0
 86 84  1  0
 86 87  1  0
 86 85  1  0
 88 91  1  1
 88 89  1  0
 90 88  1  0
M  ISO  4   3 101  13 100  22 100  51 101
M  END
>  <TORSDO>  (59) 
F 17

>  <SCORE>  (59) 
-13.157

>  <name>  (59) 
58

>  <ligand_id>  (59) 
58

>  <original_smiles>  (59) 
[H]C(Oc1c([H])c([H])c2c(c1[H])C([H])([H])N(C(=O)C([H])(N([H])C(=O)C([H])(N([H])C([H])([H])[H])C([H])([H])[H])C(C([H])([H])[H])(C([H])([H])[H])C([H])([H])[H])C([H])(C(=O)N([H])C1([H])c3c([H])c([H])c([H])c([H])c3C([H])([H])C([H])([H])C1([H])[H])C2([H])[H])=C1C(=O)N(c2c([H])c([H])c(N(C(=O)N3C([H])([H])C([H])([H])C([H])([H])C([H])(n4nc(-c5c([H])c([H])c(Oc6c([H])c([H])c(F)c([H])c6F)c([H])c5[H])c(C(=O)N([H])[H])c4N([H])[H])C3([H])[H])C([H])([H])[H])c([H])c2[H])C1([H])[H]

>  <smiles>  (59) 
[H]C(Oc1c([H])c([H])c2c(c1[H])C([H])([H])N(C(=O)C([H])(N([H])C(=O)C([H])(N([H])C([H])([H])[H])C([H])([H])[H])C(C([H])([H])[H])(C([H])([H])[H])C([H])([H])[H])C([H])(C(=O)N([H])C1([H])c3c([H])c([H])c([H])c([H])c3C([H])([H])C([H])([H])C1([H])[H])C2([H])[H])=C1C(=O)N(c2c([H])c([H])c(N(C(=O)N3C([H])([H])C([H])([H])C([H])([H])C([H])(n4nc(-c5c([H])c([H])c(Oc6c([H])c([H])c(F)c([H])c6F)c([H])c5[H])c(C(=O)N([H])[H])c4N([H])[H])C3([H])[H])C([H])([H])[H])c([H])c2[H])C1([H])[H]

$$$$
59:0:0
     RDKit          3D

 94102  0  0  1  0  0  0  0  0999 V2000
  -28.9370  -22.9590   21.0920 C   0  0  0  0  0  0  0  0  0  0  0  0
  -28.7000  -21.6840   20.9110 N   0  0  0  0  0  0  0  0  0  0  0  0
  -29.5480  -20.6250   21.3210 C   0  0  0  0  0  0  0  0  0  0  0  0
  -30.4310  -20.6750   22.1770 O   0  0  0  0  0  0  0  0  0  0  0  0
  -28.6580  -18.0420   18.6270 C   0  0  0  0  0  3  0  0  0  0  0  0
  -28.7720  -19.2450   19.3440 C   0  0  0  0  0  3  0  0  0  0  0  0
  -29.1240  -16.8380   19.1740 C   0  0  0  0  0  3  0  0  0  0  0  0
  -29.7840  -18.0290   21.2000 C   0  0  0  0  0  3  0  0  0  0  0  0
  -29.3460  -19.2760   20.6320 C   0  0  0  0  0  0  0  0  0  0  0  0
  -29.6850  -16.8010   20.4690 C   0  0  0  0  0  0  0  0  0  0  0  0
  -30.6850  -14.5400   20.3210 C   0  0  0  0  0  0  0  0  0  0  0  0
  -30.3860  -12.3800   19.1480 C   0  0  0  0  0  2  0  0  0  0  0  0
  -29.4300  -12.5920   17.9520 C   0  0  0  0  0  2  0  0  0  0  0  0
  -27.9550  -12.4610   18.3870 C   0  0  0  0  0  2  0  0  0  0  0  0
  -27.6360  -13.2630   19.6780 C   0  0  0  0  0  3  0  0  0  0  0  0
  -28.7070  -13.0290   20.7690 C   0  0  0  0  0  2  0  0  0  0  0  0
  -30.0270  -13.3490   20.2010 N   0  0  0  0  0  0  0  0  0  0  0  0
  -31.7660  -14.7560   19.7620 O   0  0  0  0  0  0  0  0  0  0  0  0
  -30.0470  -15.5180   21.0160 N   0  0  0  0  0  0  0  0  0  0  0  0
  -29.3810  -15.1550   21.6830 H   0  0  0  0  0  0  0  0  0  0  0  0
  -25.2510  -13.8740   20.4260 C   0  0  0  0  0  0  0  0  0  0  0  0
  -24.1860  -13.1030   20.8120 C   0  0  0  0  0  0  0  0  0  0  0  0
  -24.6420  -11.7500   20.7690 C   0  0  0  0  0  0  0  0  0  0  0  0
  -26.2890  -12.9900   20.1740 N   0  0  0  0  0  0  0  0  0  0  0  0
  -25.9270  -11.7080   20.4370 N   0  0  0  0  0  0  0  0  0  0  0  0
  -23.9170  -10.4900   20.9710 C   0  0  0  0  0  0  0  0  0  0  0  0
  -24.3510   -9.5260   21.9080 C   0  0  0  0  0  3  0  0  0  0  0  0
  -23.6240   -8.3310   22.0990 C   0  0  0  0  0  3  0  0  0  0  0  0
  -22.4460   -8.0920   21.3510 C   0  0  0  0  0  0  0  0  0  0  0  0
  -22.0300   -9.0440   20.4030 C   0  0  0  0  0  3  0  0  0  0  0  0
  -22.7590  -10.2300   20.2110 C   0  0  0  0  0  3  0  0  0  0  0  0
  -21.6920   -6.9470   21.4470 O   0  0  0  0  0  0  0  0  0  0  0  0
  -21.6350   -6.2170   22.6070 C   0  0  0  0  0  0  0  0  0  0  0  0
  -21.1970   -6.7870   23.8220 C   0  0  0  0  0  3  0  0  0  0  0  0
  -21.0870   -5.9830   24.9740 C   0  0  0  0  0  3  0  0  0  0  0  0
  -21.4030   -4.6130   24.9130 C   0  0  0  0  0  0  0  0  0  0  0  0
  -21.8310   -4.0440   23.7010 C   0  0  0  0  0  3  0  0  0  0  0  0
  -21.9430   -4.8430   22.5490 C   0  0  0  0  0  0  0  0  0  0  0  0
  -22.3360   -4.2840   21.3800 F   0  0  0  0  0  0  0  0  0  0  0  0
  -21.2890   -3.8400   26.0180 F   0  0  0  0  0  0  0  0  0  0  0  0
  -22.7950  -13.5860   21.1080 C   0  0  0  0  0  0  0  0  0  0  0  0
  -22.0760  -12.8930   21.9810 N   0  0  0  0  0  0  0  0  0  0  0  0
  -22.3540  -14.6150   20.5970 O   0  0  0  0  0  0  0  0  0  0  0  0
  -22.4460  -12.0670   22.4270 H   0  0  0  0  0  0  0  0  0  0  0  0
  -21.1420  -13.2010   22.2140 H   0  0  0  0  0  0  0  0  0  0  0  0
  -25.4190  -15.2430   20.2580 N   0  0  0  0  0  0  0  0  0  0  0  0
  -24.6610  -15.9040   20.3950 H   0  0  0  0  0  0  0  0  0  0  0  0
  -26.2780  -15.6880   19.9550 H   0  0  0  0  0  0  0  0  0  0  0  0
  -27.9430  -24.0700   20.6310 C   0  0  0  0  0  0  0  0  0  0  0  0
  -26.7370  -23.9670   20.8820 O   0  0  0  0  0  0  0  0  0  0  0  0
  -28.4240  -25.2540   19.7210 C   0  0  0  0  0  2  0  0  0  0  0  0
  -28.3250  -26.6040   20.2800 O   0  0  0  0  0  0  0  0  0  0  0  0
  -24.5770  -31.9010   23.2350 C   0  0  0  0  0  0  0  0  0  0  0  0
  -27.1700  -27.3750   20.1850 C   0  0  0  0  0  0  0  0  0  0  0  0
  -23.3600  -30.5120   21.5900 C   0  0  0  0  0  3  0  0  0  0  0  0
  -24.7980  -28.9550   20.1580 C   0  0  0  0  0  0  0  0  0  0  0  0
  -25.8910  -30.8330   21.3940 C   0  0  0  0  0  2  0  0  0  0  0  0
  -25.9610  -29.4540   20.7570 C   0  0  0  0  0  0  0  0  0  0  0  0
  -27.1420  -28.6690   20.7730 C   0  0  0  0  0  3  0  0  0  0  0  0
  -25.9910  -26.9140   19.5530 C   0  0  0  0  0  3  0  0  0  0  0  0
  -24.8150  -27.6890   19.5430 C   0  0  0  0  0  3  0  0  0  0  0  0
  -23.5610  -29.8290   20.2070 C   0  0  0  0  0  2  0  0  0  0  0  0
  -24.6290  -31.1000   22.1320 N   0  0  0  0  0  0  0  0  0  0  0  0
  -23.4960  -32.1810   23.7730 O   0  0  0  0  0  0  0  0  0  0  0  0
  -22.6990  -29.4970   22.5530 C   0  0  0  0  0  0  0  0  0  0  0  0
  -21.3710  -29.3270   22.4320 N   0  0  0  0  0  0  0  0  0  0  0  0
  -23.3800  -28.8640   23.3650 O   0  0  0  0  0  0  0  0  0  0  0  0
  -20.8790  -29.9000   21.7590 H   0  0  0  0  0  0  0  0  0  0  0  0
  -17.9900  -28.1570   22.9510 C   0  0  0  0  0  0  0  0  0  0  0  0
  -20.5520  -28.3890   23.2010 C   0  0  0  0  0  3  0  0  0  0  0  0
  -20.6330  -26.9590   22.6200 C   0  0  0  0  0  2  0  0  0  0  0  0
  -19.5230  -26.6530   21.6100 C   0  0  0  0  0  2  0  0  0  0  0  0
  -18.1460  -26.8090   22.2640 C   0  0  0  0  0  2  0  0  0  0  0  0
  -19.1190  -28.9050   23.3760 C   0  0  0  0  0  0  0  0  0  0  0  0
  -18.9170  -30.1680   23.9750 C   0  0  0  0  0  3  0  0  0  0  0  0
  -17.6190  -30.6820   24.1490 C   0  0  0  0  0  3  0  0  0  0  0  0
  -16.5050  -29.9310   23.7370 C   0  0  0  0  0  3  0  0  0  0  0  0
  -16.6910  -28.6680   23.1470 C   0  0  0  0  0  3  0  0  0  0  0  0
  -25.8670  -32.5250   23.8570 C   0  0  0  0  0  3  0  0  0  0  0  0
  -25.5660  -33.9250   24.1930 N   0  0  0  0  0  0  0  0  0  0  0  0
  -25.9040  -34.9760   23.4330 C   0  0  0  0  0  0  0  0  0  0  0  0
  -26.5690  -34.8710   22.4010 O   0  0  0  0  0  0  0  0  0  0  0  0
  -24.9820  -34.0850   24.9990 H   0  0  0  0  0  0  0  0  0  0  0  0
  -24.1830  -36.7770   23.0850 C   0  0  0  0  0  1  0  0  0  0  0  0
  -25.4240  -36.3670   23.8940 C   0  0  0  0  0  3  0  0  0  0  0  0
  -27.5640  -37.2380   24.7220 C   0  0  0  0  0  1  0  0  0  0  0  0
  -26.4630  -37.4140   23.7810 N   0  0  0  0  0  0  0  0  0  0  0  0
  -26.0610  -38.3360   23.9260 H   0  0  0  0  0  0  0  0  0  0  0  0
  -26.3840  -31.7490   25.1300 C   0  0  1  0  0  0  0  0  0  0  0  0
  -25.2950  -31.5100   26.2010 C   0  0  0  0  0  1  0  0  0  0  0  0
  -26.9620  -30.3720   24.7280 C   0  0  0  0  0  1  0  0  0  0  0  0
  -27.5420  -32.5330   25.7890 C   0  0  0  0  0  1  0  0  0  0  0  0
  -30.0610  -23.5800   23.3400 C   0  0  0  0  0  1  0  0  0  0  0  0
  -30.1760  -23.5390   21.8000 C   0  0  0  0  0  2  0  0  0  0  0  0
  1 94  1  0
  2  1  2  0
  2  3  1  0
  3  4  2  0
  5  7  2  0
  5  6  1  0
  6  9  2  0
  7 10  1  0
  9  8  1  0
  9  3  1  0
 10 19  1  0
 10  8  2  0
 11 19  1  0
 12 17  1  0
 13 14  1  0
 13 12  1  0
 15 14  1  0
 15 24  1  0
 15 16  1  0
 17 11  1  0
 17 16  1  0
 18 11  2  0
 19 20  1  0
 21 22  2  0
 22 41  1  0
 23 22  1  0
 23 26  1  0
 24 21  1  0
 24 25  1  0
 25 23  2  0
 26 27  1  0
 27 28  2  0
 29 32  1  0
 29 28  1  0
 30 29  2  0
 31 30  1  0
 31 26  2  0
 32 33  1  0
 33 34  1  0
 34 35  2  0
 36 35  1  0
 36 40  1  0
 37 36  2  0
 38 33  2  0
 38 37  1  0
 39 38  1  0
 41 42  1  0
 42 45  1  0
 42 44  1  0
 43 41  2  0
 46 47  1  0
 46 21  1  0
 48 46  1  0
 49 50  2  0
 49  1  1  0
 51 52  1  0
 51 49  1  0
 53 64  2  0
 54 52  1  0
 54 59  1  0
 55 63  1  0
 55 65  1  0
 56 62  1  0
 56 58  1  0
 57 63  1  0
 58 59  2  0
 58 57  1  0
 60 54  2  0
 61 60  1  0
 61 56  2  0
 62 55  1  0
 63 53  1  0
 65 67  2  0
 66 65  1  0
 68 66  1  0
 69 78  2  0
 69 74  1  0
 70 66  1  0
 70 74  1  0
 71 70  1  0
 72 73  1  0
 72 71  1  0
 73 69  1  0
 74 75  2  0
 75 76  1  0
 77 76  2  0
 78 77  1  0
 79 53  1  0
 79 80  1  0
 79 89  1  0
 80 83  1  0
 81 85  1  0
 81 80  1  0
 82 81  2  0
 85 84  1  0
 87 85  1  0
 87 88  1  0
 87 86  1  0
 89 92  1  1
 89 90  1  0
 91 89  1  0
 94 93  1  0
M  ISO  4  11 100  19 100  51 101  52 101
M  END
>  <TORSDO>  (60) 
F 21

>  <SCORE>  (60) 
-13.766

>  <name>  (60) 
59

>  <ligand_id>  (60) 
59

>  <original_smiles>  (60) 
[H]c1c([H])c(C(=O)N=C(C(=O)C([H])([H])Oc2c([H])c([H])c3c(c2[H])C([H])([H])N(C(=O)C([H])(N([H])C(=O)C([H])(N([H])C([H])([H])[H])C([H])([H])[H])C(C([H])([H])[H])(C([H])([H])[H])C([H])([H])[H])C([H])(C(=O)N([H])C2([H])c4c([H])c([H])c([H])c([H])c4C([H])([H])C([H])([H])C2([H])[H])C3([H])[H])C([H])([H])C([H])([H])[H])c([H])c(N([H])C(=O)N2C([H])([H])C([H])([H])C([H])([H])C([H])(n3nc(-c4c([H])c([H])c(Oc5c([H])c([H])c(F)c([H])c5F)c([H])c4[H])c(C(=O)N([H])[H])c3N([H])[H])C2([H])[H])c1[H]

>  <smiles>  (60) 
[H]c1c([H])c(C(=O)N=C(C(=O)C([H])([H])Oc2c([H])c([H])c3c(c2[H])C([H])([H])N(C(=O)C([H])(N([H])C(=O)C([H])(N([H])C([H])([H])[H])C([H])([H])[H])C(C([H])([H])[H])(C([H])([H])[H])C([H])([H])[H])C([H])(C(=O)N([H])C2([H])c4c([H])c([H])c([H])c([H])c4C([H])([H])C([H])([H])C2([H])[H])C3([H])[H])C([H])([H])C([H])([H])[H])c([H])c(N([H])C(=O)N2C([H])([H])C([H])([H])C([H])([H])C([H])(n3nc(-c4c([H])c([H])c(Oc5c([H])c([H])c(F)c([H])c5F)c([H])c4[H])c(C(=O)N([H])[H])c3N([H])[H])C2([H])[H])c1[H]

$$$$
60:0:0
     RDKit          3D

 90 98  0  0  1  0  0  0  0  0999 V2000
  -26.9160  -19.3550   19.8390 C   0  0  0  0  0  3  0  0  0  0  0  0
  -27.8300  -18.2910   20.0070 C   0  0  0  0  0  3  0  0  0  0  0  0
  -27.2860  -20.7060   20.0270 C   0  0  0  0  0  3  0  0  0  0  0  0
  -29.5140  -19.9420   20.5790 C   0  0  0  0  0  3  0  0  0  0  0  0
  -29.1730  -18.5290   20.3710 C   0  0  0  0  0  0  0  0  0  0  0  0
  -28.5980  -21.0720   20.4140 C   0  0  0  0  0  0  0  0  0  0  0  0
  -30.6200  -14.8310   20.2820 C   0  0  0  0  0  0  0  0  0  0  0  0
  -30.4580  -12.5340   19.2820 C   0  0  0  0  0  2  0  0  0  0  0  0
  -29.5260  -12.5680   18.0500 C   0  0  0  0  0  2  0  0  0  0  0  0
  -28.0600  -12.3660   18.4800 C   0  0  0  0  0  2  0  0  0  0  0  0
  -27.6660  -13.2710   19.6760 C   0  0  0  0  0  3  0  0  0  0  0  0
  -28.7170  -13.2160   20.8040 C   0  0  0  0  0  2  0  0  0  0  0  0
  -30.0020  -13.5960   20.2090 N   0  0  0  0  0  0  0  0  0  0  0  0
  -31.8220  -14.8850   19.9950 O   0  0  0  0  0  0  0  0  0  0  0  0
  -30.2010  -17.3370   20.4580 C   0  0  0  0  0  0  0  0  0  0  0  0
  -29.8310  -15.9820   20.4420 N   0  0  0  0  0  0  0  0  0  0  0  0
  -31.3850  -17.6700   20.5420 O   0  0  0  0  0  0  0  0  0  0  0  0
  -28.8430  -15.8170   20.5010 H   0  0  0  0  0  0  0  0  0  0  0  0
  -25.2790  -13.8650   20.3950 C   0  0  0  0  0  0  0  0  0  0  0  0
  -24.2100  -13.0960   20.7650 C   0  0  0  0  0  0  0  0  0  0  0  0
  -24.6720  -11.7450   20.7360 C   0  0  0  0  0  0  0  0  0  0  0  0
  -26.3210  -12.9830   20.1630 N   0  0  0  0  0  0  0  0  0  0  0  0
  -25.9630  -11.7020   20.4310 N   0  0  0  0  0  0  0  0  0  0  0  0
  -23.9410  -10.4840   20.9240 C   0  0  0  0  0  0  0  0  0  0  0  0
  -24.3580   -9.5220   21.8700 C   0  0  0  0  0  3  0  0  0  0  0  0
  -23.6280   -8.3280   22.0470 C   0  0  0  0  0  3  0  0  0  0  0  0
  -22.4680   -8.0860   21.2750 C   0  0  0  0  0  0  0  0  0  0  0  0
  -22.0710   -9.0350   20.3180 C   0  0  0  0  0  3  0  0  0  0  0  0
  -22.8010  -10.2220   20.1400 C   0  0  0  0  0  3  0  0  0  0  0  0
  -21.7110   -6.9400   21.3580 O   0  0  0  0  0  0  0  0  0  0  0  0
  -21.6270   -6.2180   22.5210 C   0  0  0  0  0  0  0  0  0  0  0  0
  -21.1330   -6.7840   23.7160 C   0  0  0  0  0  3  0  0  0  0  0  0
  -20.9990   -5.9860   24.8700 C   0  0  0  0  0  3  0  0  0  0  0  0
  -21.3490   -4.6230   24.8290 C   0  0  0  0  0  0  0  0  0  0  0  0
  -21.8350   -4.0580   23.6380 C   0  0  0  0  0  3  0  0  0  0  0  0
  -21.9710   -4.8530   22.4860 C   0  0  0  0  0  0  0  0  0  0  0  0
  -22.4230   -4.2970   21.3350 F   0  0  0  0  0  0  0  0  0  0  0  0
  -21.2120   -3.8540   25.9340 F   0  0  0  0  0  0  0  0  0  0  0  0
  -22.8130  -13.5780   21.0270 C   0  0  0  0  0  0  0  0  0  0  0  0
  -22.0820  -12.8840   21.8910 N   0  0  0  0  0  0  0  0  0  0  0  0
  -22.3820  -14.6030   20.5010 O   0  0  0  0  0  0  0  0  0  0  0  0
  -22.4490  -12.0530   22.3300 H   0  0  0  0  0  0  0  0  0  0  0  0
  -21.1440  -13.1860   22.1160 H   0  0  0  0  0  0  0  0  0  0  0  0
  -25.4460  -15.2320   20.2050 N   0  0  0  0  0  0  0  0  0  0  0  0
  -24.6570  -15.8670   20.2480 H   0  0  0  0  0  0  0  0  0  0  0  0
  -26.2380  -15.6230   19.7170 H   0  0  0  0  0  0  0  0  0  0  0  0
  -28.2920  -23.5710   20.3150 C   0  0  0  0  0  2  0  0  0  0  0  0
  -28.9080  -22.4720   20.7460 N   0  0  0  0  0  2  0  0  0  0  0  0
  -28.3060  -25.0470   20.9930 C   0  0  0  0  0  2  0  0  0  0  0  0
  -28.4210  -26.3510   20.2310 O   0  0  0  0  0  0  0  0  0  0  0  0
  -24.6180  -31.8290   23.1940 C   0  0  0  0  0  0  0  0  0  0  0  0
  -27.3290  -27.2500   20.2180 C   0  0  0  0  0  0  0  0  0  0  0  0
  -23.4700  -30.4310   21.5140 C   0  0  0  0  0  3  0  0  0  0  0  0
  -24.9720  -28.8900   20.1250 C   0  0  0  0  0  0  0  0  0  0  0  0
  -26.0150  -30.7620   21.4010 C   0  0  0  0  0  2  0  0  0  0  0  0
  -26.1270  -29.3810   20.7510 C   0  0  0  0  0  0  0  0  0  0  0  0
  -27.3160  -28.5780   20.7730 C   0  0  0  0  0  3  0  0  0  0  0  0
  -26.1500  -26.8200   19.5810 C   0  0  0  0  0  3  0  0  0  0  0  0
  -24.9910  -27.6200   19.5270 C   0  0  0  0  0  3  0  0  0  0  0  0
  -23.7280  -29.7590   20.1400 C   0  0  0  0  0  2  0  0  0  0  0  0
  -24.7180  -31.0270   22.0920 N   0  0  0  0  0  0  0  0  0  0  0  0
  -23.5190  -32.0910   23.7050 O   0  0  0  0  0  0  0  0  0  0  0  0
  -22.7900  -29.4050   22.4540 C   0  0  0  0  0  0  0  0  0  0  0  0
  -21.4620  -29.2460   22.3210 N   0  0  0  0  0  0  0  0  0  0  0  0
  -23.4590  -28.7550   23.2610 O   0  0  0  0  0  0  0  0  0  0  0  0
  -20.9840  -29.8200   21.6410 H   0  0  0  0  0  0  0  0  0  0  0  0
  -18.0660  -28.1040   22.8240 C   0  0  0  0  0  0  0  0  0  0  0  0
  -20.6320  -28.3030   23.0710 C   0  0  0  0  0  3  0  0  0  0  0  0
  -20.6970  -26.8880   22.4500 C   0  0  0  0  0  2  0  0  0  0  0  0
  -19.5760  -26.6170   21.4440 C   0  0  0  0  0  2  0  0  0  0  0  0
  -18.2060  -26.7720   22.1070 C   0  0  0  0  0  2  0  0  0  0  0  0
  -19.2040  -28.8310   23.2620 C   0  0  0  0  0  0  0  0  0  0  0  0
  -19.0170  -30.0790   23.8950 C   0  0  0  0  0  3  0  0  0  0  0  0
  -17.7240  -30.6000   24.0910 C   0  0  0  0  0  3  0  0  0  0  0  0
  -16.6000  -29.8700   23.6670 C   0  0  0  0  0  3  0  0  0  0  0  0
  -16.7720  -28.6230   23.0390 C   0  0  0  0  0  3  0  0  0  0  0  0
  -25.8770  -32.4720   23.8530 C   0  0  0  0  0  3  0  0  0  0  0  0
  -25.5450  -33.8650   24.1810 N   0  0  0  0  0  0  0  0  0  0  0  0
  -25.8720  -34.9230   23.4290 C   0  0  0  0  0  0  0  0  0  0  0  0
  -26.5540  -34.8310   22.4030 O   0  0  0  0  0  0  0  0  0  0  0  0
  -24.9320  -34.0090   24.9700 H   0  0  0  0  0  0  0  0  0  0  0  0
  -24.1230  -36.6990   23.0640 C   0  0  0  0  0  1  0  0  0  0  0  0
  -25.3630  -36.3050   23.8850 C   0  0  0  0  0  3  0  0  0  0  0  0
  -27.4710  -37.2220   24.7460 C   0  0  0  0  0  1  0  0  0  0  0  0
  -26.3820  -37.3720   23.7840 N   0  0  0  0  0  0  0  0  0  0  0  0
  -25.9620  -38.2870   23.9210 H   0  0  0  0  0  0  0  0  0  0  0  0
  -26.3650  -31.7020   25.1420 C   0  0  1  0  0  0  0  0  0  0  0  0
  -25.2450  -31.4550   26.1800 C   0  0  0  0  0  1  0  0  0  0  0  0
  -26.9700  -30.3280   24.7710 C   0  0  0  0  0  1  0  0  0  0  0  0
  -27.4900  -32.5050   25.8390 C   0  0  0  0  0  1  0  0  0  0  0  0
  1  2  2  0
  1  3  1  0
  2  5  1  0
  3  6  2  0
  5 15  1  0
  5  4  2  0
  6  4  1  0
  6 48  1  0
  7 16  1  0
  8 13  1  0
  9 10  1  0
  9  8  1  0
 11 10  1  0
 11 22  1  0
 11 12  1  0
 13  7  1  0
 13 12  1  0
 14  7  2  0
 15 17  2  0
 16 15  1  0
 16 18  1  0
 19 20  2  0
 20 39  1  0
 21 20  1  0
 21 24  1  0
 22 19  1  0
 22 23  1  0
 23 21  2  0
 24 25  1  0
 25 26  2  0
 27 30  1  0
 27 26  1  0
 28 27  2  0
 29 28  1  0
 29 24  2  0
 30 31  1  0
 31 32  1  0
 32 33  2  0
 34 33  1  0
 34 38  1  0
 35 34  2  0
 36 31  2  0
 36 35  1  0
 37 36  1  0
 39 40  1  0
 40 43  1  0
 40 42  1  0
 41 39  2  0
 44 45  1  0
 44 19  1  0
 46 44  1  0
 47 48  1  0
 47 49  1  0
 50 49  1  0
 51 62  2  0
 52 50  1  0
 52 57  1  0
 53 61  1  0
 53 63  1  0
 54 60  1  0
 54 56  1  0
 55 61  1  0
 56 57  2  0
 56 55  1  0
 58 52  2  0
 59 58  1  0
 59 54  2  0
 60 53  1  0
 61 51  1  0
 63 65  2  0
 64 63  1  0
 66 64  1  0
 67 76  2  0
 67 72  1  0
 68 64  1  0
 68 72  1  0
 69 68  1  0
 70 71  1  0
 70 69  1  0
 71 67  1  0
 72 73  2  0
 73 74  1  0
 75 74  2  0
 76 75  1  0
 77 51  1  0
 77 78  1  0
 77 87  1  0
 78 81  1  0
 79 83  1  0
 79 78  1  0
 80 79  2  0
 83 82  1  0
 85 83  1  0
 85 86  1  0
 85 84  1  0
 87 90  1  1
 87 88  1  0
 89 87  1  0
M  ISO  4   7 100  16 100  49 101  50 101
M  END
>  <TORSDO>  (61) 
F 18

>  <SCORE>  (61) 
-14.079

>  <name>  (61) 
60

>  <ligand_id>  (61) 
60

>  <original_smiles>  (61) 
[H]C(=Nc1c([H])c([H])c([H])c(C(=O)N([H])C(=O)N2C([H])([H])C([H])([H])C([H])([H])C([H])(n3nc(-c4c([H])c([H])c(Oc5c([H])c([H])c(F)c([H])c5F)c([H])c4[H])c(C(=O)N([H])[H])c3N([H])[H])C2([H])[H])c1[H])C([H])([H])Oc1c([H])c([H])c2c(c1[H])C([H])([H])N(C(=O)C([H])(N([H])C(=O)C([H])(N([H])C([H])([H])[H])C([H])([H])[H])C(C([H])([H])[H])(C([H])([H])[H])C([H])([H])[H])C([H])(C(=O)N([H])C1([H])c3c([H])c([H])c([H])c([H])c3C([H])([H])C([H])([H])C1([H])[H])C2([H])[H]

>  <smiles>  (61) 
[H]C(=Nc1c([H])c([H])c([H])c(C(=O)N([H])C(=O)N2C([H])([H])C([H])([H])C([H])([H])C([H])(n3nc(-c4c([H])c([H])c(Oc5c([H])c([H])c(F)c([H])c5F)c([H])c4[H])c(C(=O)N([H])[H])c3N([H])[H])C2([H])[H])c1[H])C([H])([H])Oc1c([H])c([H])c2c(c1[H])C([H])([H])N(C(=O)C([H])(N([H])C(=O)C([H])(N([H])C([H])([H])[H])C([H])([H])[H])C(C([H])([H])[H])(C([H])([H])[H])C([H])([H])[H])C([H])(C(=O)N([H])C1([H])c3c([H])c([H])c([H])c([H])c3C([H])([H])C([H])([H])C1([H])[H])C2([H])[H]

$$$$
61:0:0
     RDKit          3D

 96105  0  0  1  0  0  0  0  0999 V2000
  -30.2380  -23.9290   20.7170 C   0  0  0  0  0  0  0  0  0  0  0  0
  -28.8350  -23.7620   20.3230 C   0  0  0  0  0  0  0  0  0  0  0  0
  -30.9060  -22.8000   21.3780 C   0  0  0  0  0  0  0  0  0  0  0  0
  -28.4150  -22.3270   19.9850 C   0  0  0  0  0  0  0  0  0  0  0  0
  -30.9260  -25.0330   20.3510 C   0  0  0  0  0  2  0  0  0  0  0  0
  -32.1280  -22.9120   21.9360 C   0  0  0  0  0  2  0  0  0  0  0  0
  -27.9610  -24.8470   20.1240 C   0  0  0  0  0  3  0  0  0  0  0  0
  -30.2260  -21.4360   21.4080 C   0  0  0  0  0  2  0  0  0  0  0  0
  -29.2280  -21.2280   20.3510 N   0  0  0  0  0  0  0  0  0  0  0  0
  -27.3590  -22.1150   19.3780 O   0  0  0  0  0  0  0  0  0  0  0  0
  -29.4810  -18.5590   20.4580 C   0  0  0  0  0  3  0  0  0  0  0  0
  -28.8990  -19.7010   18.3920 C   0  0  0  0  0  3  0  0  0  0  0  0
  -29.2770  -17.2710   18.4020 C   0  0  0  0  0  3  0  0  0  0  0  0
  -29.1740  -19.8290   19.7760 C   0  0  0  0  0  0  0  0  0  0  0  0
  -29.5440  -17.2490   19.7880 C   0  0  0  0  0  0  0  0  0  0  0  0
  -28.9540  -18.4620   17.7230 C   0  0  0  0  0  0  0  0  0  0  0  0
  -28.6900  -18.4150   16.3940 F   0  0  0  0  0  0  0  0  0  0  0  0
  -30.4100  -14.7720   19.9680 C   0  0  0  0  0  0  0  0  0  0  0  0
  -30.1630  -12.4980   18.9570 C   0  0  0  0  0  2  0  0  0  0  0  0
  -29.1510  -12.5980   17.7930 C   0  0  0  0  0  2  0  0  0  0  0  0
  -27.7110  -12.4100   18.3010 C   0  0  0  0  0  2  0  0  0  0  0  0
  -27.4140  -13.2550   19.5670 C   0  0  0  0  0  3  0  0  0  0  0  0
  -28.5410  -13.1550   20.6170 C   0  0  0  0  0  2  0  0  0  0  0  0
  -29.8000  -13.5300   19.9620 N   0  0  0  0  0  0  0  0  0  0  0  0
  -31.5350  -14.8860   19.4760 O   0  0  0  0  0  0  0  0  0  0  0  0
  -29.7110  -15.8980   20.4180 N   0  0  0  0  0  0  0  0  0  0  0  0
  -28.9820  -15.6660   21.0770 H   0  0  0  0  0  0  0  0  0  0  0  0
  -25.0820  -13.8100   20.4670 C   0  0  0  0  0  0  0  0  0  0  0  0
  -24.0460  -13.0230   20.8890 C   0  0  0  0  0  0  0  0  0  0  0  0
  -24.5100  -11.6740   20.7960 C   0  0  0  0  0  0  0  0  0  0  0  0
  -26.1080  -12.9420   20.1380 N   0  0  0  0  0  0  0  0  0  0  0  0
  -25.7770  -11.6490   20.3980 N   0  0  0  0  0  0  0  0  0  0  0  0
  -23.8010  -10.4050   21.0070 C   0  0  0  0  0  0  0  0  0  0  0  0
  -24.2700   -9.4400   21.9250 C   0  0  0  0  0  3  0  0  0  0  0  0
  -23.5600   -8.2360   22.1230 C   0  0  0  0  0  3  0  0  0  0  0  0
  -22.3670   -7.9890   21.4050 C   0  0  0  0  0  0  0  0  0  0  0  0
  -21.9170   -8.9440   20.4730 C   0  0  0  0  0  3  0  0  0  0  0  0
  -22.6270  -10.1390   20.2750 C   0  0  0  0  0  3  0  0  0  0  0  0
  -21.6250   -6.8370   21.5120 O   0  0  0  0  0  0  0  0  0  0  0  0
  -21.5920   -6.1080   22.6740 C   0  0  0  0  0  0  0  0  0  0  0  0
  -21.1410   -6.6640   23.8910 C   0  0  0  0  0  3  0  0  0  0  0  0
  -21.0580   -5.8590   25.0460 C   0  0  0  0  0  3  0  0  0  0  0  0
  -21.4180   -4.5000   24.9840 C   0  0  0  0  0  0  0  0  0  0  0  0
  -21.8610   -3.9420   23.7720 C   0  0  0  0  0  3  0  0  0  0  0  0
  -21.9440   -4.7440   22.6190 C   0  0  0  0  0  0  0  0  0  0  0  0
  -22.3540   -4.1980   21.4480 F   0  0  0  0  0  0  0  0  0  0  0  0
  -21.3310   -3.7230   26.0890 F   0  0  0  0  0  0  0  0  0  0  0  0
  -22.6710  -13.4880   21.2660 C   0  0  0  0  0  0  0  0  0  0  0  0
  -22.0060  -12.7670   22.1630 N   0  0  0  0  0  0  0  0  0  0  0  0
  -22.1980  -14.5240   20.8010 O   0  0  0  0  0  0  0  0  0  0  0  0
  -22.4040  -11.9270   22.5570 H   0  0  0  0  0  0  0  0  0  0  0  0
  -21.0870  -13.0580   22.4630 H   0  0  0  0  0  0  0  0  0  0  0  0
  -25.2340  -15.1830   20.3110 N   0  0  0  0  0  0  0  0  0  0  0  0
  -24.4810  -15.8400   20.4840 H   0  0  0  0  0  0  0  0  0  0  0  0
  -26.0440  -15.6130   19.8770 H   0  0  0  0  0  0  0  0  0  0  0  0
  -28.1410  -26.2790   20.2690 O   0  0  0  0  0  0  0  0  0  0  0  0
  -24.5780  -31.9080   23.3010 C   0  0  0  0  0  0  0  0  0  0  0  0
  -27.0600  -27.2150   20.2240 C   0  0  0  0  0  0  0  0  0  0  0  0
  -23.3320  -30.5280   21.6830 C   0  0  0  0  0  3  0  0  0  0  0  0
  -24.7370  -28.9440   20.2350 C   0  0  0  0  0  0  0  0  0  0  0  0
  -25.8830  -30.7680   21.4830 C   0  0  0  0  0  2  0  0  0  0  0  0
  -25.9240  -29.3810   20.8350 C   0  0  0  0  0  0  0  0  0  0  0  0
  -27.0810  -28.5240   20.8290 C   0  0  0  0  0  3  0  0  0  0  0  0
  -25.8570  -26.8800   19.5570 C   0  0  0  0  0  3  0  0  0  0  0  0
  -24.7120  -27.7040   19.5800 C   0  0  0  0  0  3  0  0  0  0  0  0
  -23.5200  -29.8500   20.3000 C   0  0  0  0  0  2  0  0  0  0  0  0
  -24.6170  -31.0870   22.2100 N   0  0  0  0  0  0  0  0  0  0  0  0
  -23.5050  -32.2080   23.8460 O   0  0  0  0  0  0  0  0  0  0  0  0
  -22.6580  -29.5260   22.6530 C   0  0  0  0  0  0  0  0  0  0  0  0
  -21.3320  -29.3460   22.5220 N   0  0  0  0  0  0  0  0  0  0  0  0
  -23.3290  -28.9170   23.4890 O   0  0  0  0  0  0  0  0  0  0  0  0
  -20.8480  -29.8890   21.8210 H   0  0  0  0  0  0  0  0  0  0  0  0
  -17.9600  -28.1220   22.9980 C   0  0  0  0  0  0  0  0  0  0  0  0
  -20.5100  -28.4200   23.3040 C   0  0  0  0  0  3  0  0  0  0  0  0
  -20.6400  -26.9740   22.7720 C   0  0  0  0  0  2  0  0  0  0  0  0
  -19.5600  -26.6100   21.7470 C   0  0  0  0  0  2  0  0  0  0  0  0
  -18.1650  -26.7560   22.3630 C   0  0  0  0  0  2  0  0  0  0  0  0
  -19.0620  -28.9100   23.4260 C   0  0  0  0  0  0  0  0  0  0  0  0
  -18.8160  -30.1840   23.9830 C   0  0  0  0  0  3  0  0  0  0  0  0
  -17.5030  -30.6710   24.1130 C   0  0  0  0  0  3  0  0  0  0  0  0
  -16.4150  -29.8830   23.7000 C   0  0  0  0  0  3  0  0  0  0  0  0
  -16.6450  -28.6100   23.1480 C   0  0  0  0  0  3  0  0  0  0  0  0
  -25.8780  -32.5240   23.9030 C   0  0  0  0  0  3  0  0  0  0  0  0
  -25.5970  -33.9280   24.2300 N   0  0  0  0  0  0  0  0  0  0  0  0
  -25.9040  -34.9710   23.4470 C   0  0  0  0  0  0  0  0  0  0  0  0
  -26.5240  -34.8490   22.3870 O   0  0  0  0  0  0  0  0  0  0  0  0
  -25.0400  -34.0990   25.0560 H   0  0  0  0  0  0  0  0  0  0  0  0
  -24.1660  -36.7720   23.1750 C   0  0  0  0  0  1  0  0  0  0  0  0
  -25.4540  -36.3710   23.9110 C   0  0  0  0  0  3  0  0  0  0  0  0
  -27.6390  -37.2620   24.5970 C   0  0  0  0  0  1  0  0  0  0  0  0
  -26.4840  -37.4150   23.7170 N   0  0  0  0  0  0  0  0  0  0  0  0
  -26.0910  -38.3400   23.8670 H   0  0  0  0  0  0  0  0  0  0  0  0
  -26.3940  -31.7520   25.1790 C   0  0  1  0  0  0  0  0  0  0  0  0
  -25.3090  -31.5490   26.2630 C   0  0  0  0  0  1  0  0  0  0  0  0
  -26.9440  -30.3580   24.7990 C   0  0  0  0  0  1  0  0  0  0  0  0
  -27.5670  -32.5290   25.8210 C   0  0  0  0  0  1  0  0  0  0  0  0
  1  3  1  0
  2  1  1  0
  3  8  1  0
  3  6  2  0
  4  2  1  0
  4  9  1  0
  5  1  2  0
  7 56  1  0
  7  2  2  0
  9  8  1  0
 10  4  2  0
 12 14  1  0
 13 15  2  0
 14  9  1  0
 14 11  2  0
 15 26  1  0
 15 11  1  0
 16 12  2  0
 16 13  1  0
 17 16  1  0
 18 26  1  0
 19 24  1  0
 20 21  1  0
 20 19  1  0
 22 21  1  0
 22 31  1  0
 22 23  1  0
 24 18  1  0
 24 23  1  0
 25 18  2  0
 26 27  1  0
 28 29  2  0
 29 48  1  0
 30 29  1  0
 30 33  1  0
 31 32  1  0
 31 28  1  0
 32 30  2  0
 33 34  1  0
 34 35  2  0
 36 39  1  0
 36 35  1  0
 37 36  2  0
 38 37  1  0
 38 33  2  0
 39 40  1  0
 40 41  1  0
 41 42  2  0
 43 42  1  0
 43 47  1  0
 44 43  2  0
 45 40  2  0
 45 44  1  0
 46 45  1  0
 48 49  1  0
 49 52  1  0
 49 51  1  0
 50 48  2  0
 53 28  1  0
 53 54  1  0
 55 53  1  0
 57 68  2  0
 58 56  1  0
 58 63  1  0
 59 67  1  0
 59 69  1  0
 60 66  1  0
 60 62  1  0
 61 67  1  0
 62 61  1  0
 63 62  2  0
 64 65  1  0
 64 58  2  0
 65 60  2  0
 66 59  1  0
 67 57  1  0
 69 71  2  0
 70 69  1  0
 72 70  1  0
 73 82  2  0
 73 78  1  0
 74 70  1  0
 74 78  1  0
 75 74  1  0
 76 77  1  0
 76 75  1  0
 77 73  1  0
 78 79  2  0
 79 80  1  0
 81 80  2  0
 82 81  1  0
 83 57  1  0
 83 84  1  0
 83 93  1  0
 84 87  1  0
 85 89  1  0
 85 84  1  0
 86 85  2  0
 89 88  1  0
 91 92  1  0
 91 89  1  0
 91 90  1  0
 93 96  1  1
 93 94  1  0
 95 93  1  0
M  ISO  4   7 101  18 100  26 100  56 101
M  END
>  <TORSDO>  (62) 
F 17

>  <SCORE>  (62) 
-13.848

>  <name>  (62) 
61

>  <ligand_id>  (62) 
61

>  <original_smiles>  (62) 
[H]C([H])=C1C(=C([H])Oc2c([H])c([H])c3c(c2[H])C([H])([H])N(C(=O)C([H])(N([H])C(=O)C([H])(N([H])C([H])([H])[H])C([H])([H])[H])C(C([H])([H])[H])(C([H])([H])[H])C([H])([H])[H])C([H])(C(=O)N([H])C2([H])c4c([H])c([H])c([H])c([H])c4C([H])([H])C([H])([H])C2([H])[H])C3([H])[H])C(=O)N(c2c([H])c(F)c([H])c(N([H])C(=O)N3C([H])([H])C([H])([H])C([H])([H])C([H])(n4nc(-c5c([H])c([H])c(Oc6c([H])c([H])c(F)c([H])c6F)c([H])c5[H])c(C(=O)N([H])[H])c4N([H])[H])C3([H])[H])c2[H])C([H])([H])C1=C([H])[H]

>  <smiles>  (62) 
[H]C([H])=C1C(=C([H])Oc2c([H])c([H])c3c(c2[H])C([H])([H])N(C(=O)C([H])(N([H])C(=O)C([H])(N([H])C([H])([H])[H])C([H])([H])[H])C(C([H])([H])[H])(C([H])([H])[H])C([H])([H])[H])C([H])(C(=O)N([H])C2([H])c4c([H])c([H])c([H])c([H])c4C([H])([H])C([H])([H])C2([H])[H])C3([H])[H])C(=O)N(c2c([H])c(F)c([H])c(N([H])C(=O)N3C([H])([H])C([H])([H])C([H])([H])C([H])(n4nc(-c5c([H])c([H])c(Oc6c([H])c([H])c(F)c([H])c6F)c([H])c5[H])c(C(=O)N([H])[H])c4N([H])[H])C3([H])[H])c2[H])C([H])([H])C1=C([H])[H]

$$$$
62:0:0
     RDKit          3D

 93102  0  0  1  0  0  0  0  0999 V2000
  -28.7790  -23.7000   20.3410 C   0  0  0  0  0  0  0  0  0  0  0  0
  -30.1240  -23.5560   20.8310 C   0  0  0  0  0  0  0  0  0  0  0  0
  -28.3550  -22.2790   20.0670 C   0  0  0  0  0  0  0  0  0  0  0  0
  -30.9320  -24.5710   21.1810 C   0  0  0  0  0  1  0  0  0  0  0  0
  -27.9940  -24.8440   20.1220 C   0  0  0  0  0  2  0  0  0  0  0  0
  -30.5070  -22.0790   20.9070 C   0  0  0  0  0  2  0  0  0  0  0  0
  -29.3470  -21.3450   20.3770 N   0  0  0  0  0  0  0  0  0  0  0  0
  -27.2490  -21.9500   19.6260 O   0  0  0  0  0  0  0  0  0  0  0  0
  -29.8500  -18.5620   17.8440 C   0  0  0  0  0  3  0  0  0  0  0  0
  -29.6130  -19.8050   18.4660 C   0  0  0  0  0  3  0  0  0  0  0  0
  -29.9770  -17.3720   18.5890 C   0  0  0  0  0  3  0  0  0  0  0  0
  -29.6240  -18.6730   20.6220 C   0  0  0  0  0  3  0  0  0  0  0  0
  -29.4950  -19.9320   19.8680 C   0  0  0  0  0  0  0  0  0  0  0  0
  -29.8610  -17.3590   19.9980 C   0  0  0  0  0  0  0  0  0  0  0  0
  -30.5960  -14.8540   20.3380 C   0  0  0  0  0  0  0  0  0  0  0  0
  -30.4140  -12.5490   19.3790 C   0  0  0  0  0  2  0  0  0  0  0  0
  -29.4910  -12.5980   18.1400 C   0  0  0  0  0  2  0  0  0  0  0  0
  -28.0180  -12.4250   18.5530 C   0  0  0  0  0  2  0  0  0  0  0  0
  -27.6300  -13.3210   19.7580 C   0  0  0  0  0  3  0  0  0  0  0  0
  -28.6750  -13.2600   20.8940 C   0  0  0  0  0  2  0  0  0  0  0  0
  -29.9770  -13.6170   20.3170 N   0  0  0  0  0  0  0  0  0  0  0  0
  -31.7670  -14.9380   19.9580 O   0  0  0  0  0  0  0  0  0  0  0  0
  -29.8730  -16.0090   20.6600 N   0  0  0  0  0  0  0  0  0  0  0  0
  -29.0590  -15.8270   21.2300 H   0  0  0  0  0  0  0  0  0  0  0  0
  -25.2330  -13.9100   20.4490 C   0  0  0  0  0  0  0  0  0  0  0  0
  -24.1640  -13.1380   20.8150 C   0  0  0  0  0  0  0  0  0  0  0  0
  -24.6290  -11.7870   20.8050 C   0  0  0  0  0  0  0  0  0  0  0  0
  -26.2810  -13.0300   20.2350 N   0  0  0  0  0  0  0  0  0  0  0  0
  -25.9240  -11.7500   20.5110 N   0  0  0  0  0  0  0  0  0  0  0  0
  -23.8990  -10.5260   20.9990 C   0  0  0  0  0  0  0  0  0  0  0  0
  -24.3260   -9.5650   21.9420 C   0  0  0  0  0  3  0  0  0  0  0  0
  -23.5990   -8.3680   22.1250 C   0  0  0  0  0  3  0  0  0  0  0  0
  -22.4300   -8.1250   21.3650 C   0  0  0  0  0  0  0  0  0  0  0  0
  -22.0220   -9.0750   20.4110 C   0  0  0  0  0  3  0  0  0  0  0  0
  -22.7500  -10.2620   20.2260 C   0  0  0  0  0  3  0  0  0  0  0  0
  -21.6720   -6.9820   21.4600 O   0  0  0  0  0  0  0  0  0  0  0  0
  -21.6200   -6.2450   22.6150 C   0  0  0  0  0  0  0  0  0  0  0  0
  -21.1940   -6.8080   23.8390 C   0  0  0  0  0  3  0  0  0  0  0  0
  -21.0870   -5.9990   24.9870 C   0  0  0  0  0  3  0  0  0  0  0  0
  -21.3980   -4.6270   24.9140 C   0  0  0  0  0  0  0  0  0  0  0  0
  -21.8150   -4.0630   23.6960 C   0  0  0  0  0  3  0  0  0  0  0  0
  -21.9230   -4.8700   22.5500 C   0  0  0  0  0  0  0  0  0  0  0  0
  -22.3060   -4.3160   21.3740 F   0  0  0  0  0  0  0  0  0  0  0  0
  -21.2880   -3.8480   26.0150 F   0  0  0  0  0  0  0  0  0  0  0  0
  -22.7620  -13.6150   21.0620 C   0  0  0  0  0  0  0  0  0  0  0  0
  -22.0230  -12.9300   21.9270 N   0  0  0  0  0  0  0  0  0  0  0  0
  -22.3320  -14.6350   20.5250 O   0  0  0  0  0  0  0  0  0  0  0  0
  -22.3830  -12.1060   22.3850 H   0  0  0  0  0  0  0  0  0  0  0  0
  -21.0820  -13.2330   22.1320 H   0  0  0  0  0  0  0  0  0  0  0  0
  -25.3970  -15.2780   20.2570 N   0  0  0  0  0  0  0  0  0  0  0  0
  -24.6340  -15.9370   20.3550 H   0  0  0  0  0  0  0  0  0  0  0  0
  -26.2500  -15.7120   19.9240 H   0  0  0  0  0  0  0  0  0  0  0  0
  -28.2390  -26.2730   20.2300 O   0  0  0  0  0  0  0  0  0  0  0  0
  -24.6160  -31.8930   23.2260 C   0  0  0  0  0  0  0  0  0  0  0  0
  -27.1750  -27.2310   20.1620 C   0  0  0  0  0  0  0  0  0  0  0  0
  -23.4010  -30.4990   21.5980 C   0  0  0  0  0  3  0  0  0  0  0  0
  -24.8370  -28.9410   20.1580 C   0  0  0  0  0  0  0  0  0  0  0  0
  -25.9490  -30.7790   21.4100 C   0  0  0  0  0  2  0  0  0  0  0  0
  -26.0170  -29.3910   20.7650 C   0  0  0  0  0  0  0  0  0  0  0  0
  -27.1820  -28.5450   20.7670 C   0  0  0  0  0  3  0  0  0  0  0  0
  -25.9800  -26.8980   19.4780 C   0  0  0  0  0  3  0  0  0  0  0  0
  -24.8260  -27.7030   19.5070 C   0  0  0  0  0  3  0  0  0  0  0  0
  -23.6070  -29.8270   20.2160 C   0  0  0  0  0  2  0  0  0  0  0  0
  -24.6750  -31.0780   22.1320 N   0  0  0  0  0  0  0  0  0  0  0  0
  -23.5360  -32.1730   23.7670 O   0  0  0  0  0  0  0  0  0  0  0  0
  -22.7400  -29.4830   22.5630 C   0  0  0  0  0  0  0  0  0  0  0  0
  -21.4120  -29.3030   22.4460 N   0  0  0  0  0  0  0  0  0  0  0  0
  -23.4210  -28.8580   23.3800 O   0  0  0  0  0  0  0  0  0  0  0  0
  -20.9200  -29.8600   21.7610 H   0  0  0  0  0  0  0  0  0  0  0  0
  -18.0410  -28.0930   22.9660 C   0  0  0  0  0  0  0  0  0  0  0  0
  -20.5990  -28.3660   23.2250 C   0  0  0  0  0  3  0  0  0  0  0  0
  -20.7050  -26.9320   22.6570 C   0  0  0  0  0  2  0  0  0  0  0  0
  -19.6020  -26.5980   21.6480 C   0  0  0  0  0  2  0  0  0  0  0  0
  -18.2220  -26.7410   22.2950 C   0  0  0  0  0  2  0  0  0  0  0  0
  -19.1570  -28.8630   23.3880 C   0  0  0  0  0  0  0  0  0  0  0  0
  -18.9320  -30.1270   23.9740 C   0  0  0  0  0  3  0  0  0  0  0  0
  -17.6250  -30.6220   24.1430 C   0  0  0  0  0  3  0  0  0  0  0  0
  -16.5240  -29.8480   23.7380 C   0  0  0  0  0  3  0  0  0  0  0  0
  -16.7330  -28.5860   23.1550 C   0  0  0  0  0  3  0  0  0  0  0  0
  -25.9020  -32.5280   23.8370 C   0  0  0  0  0  3  0  0  0  0  0  0
  -25.5930  -33.9260   24.1740 N   0  0  0  0  0  0  0  0  0  0  0  0
  -25.9120  -34.9820   23.4160 C   0  0  0  0  0  0  0  0  0  0  0  0
  -26.5670  -34.8840   22.3750 O   0  0  0  0  0  0  0  0  0  0  0  0
  -25.0100  -34.0770   24.9850 H   0  0  0  0  0  0  0  0  0  0  0  0
  -24.1750  -36.7750   23.0960 C   0  0  0  0  0  1  0  0  0  0  0  0
  -25.4280  -36.3680   23.8870 C   0  0  0  0  0  3  0  0  0  0  0  0
  -27.5710  -37.2550   24.6920 C   0  0  0  0  0  1  0  0  0  0  0  0
  -26.4550  -37.4240   23.7660 N   0  0  0  0  0  0  0  0  0  0  0  0
  -26.0480  -38.3420   23.9240 H   0  0  0  0  0  0  0  0  0  0  0  0
  -26.4310  -31.7560   25.1090 C   0  0  1  0  0  0  0  0  0  0  0  0
  -25.3470  -31.5180   26.1870 C   0  0  0  0  0  1  0  0  0  0  0  0
  -27.0100  -30.3780   24.7160 C   0  0  0  0  0  1  0  0  0  0  0  0
  -27.5880  -32.5500   25.7590 C   0  0  0  0  0  1  0  0  0  0  0  0
  1  2  2  0
  2  6  1  0
  2  4  1  0
  3  1  1  0
  3  7  1  0
  5 53  1  0
  5  1  1  0
  7  6  1  0
  8  3  2  0
  9 10  2  0
  9 11  1  0
 10 13  1  0
 11 14  2  0
 13  7  1  0
 13 12  2  0
 14 12  1  0
 14 23  1  0
 15 23  1  0
 16 21  1  0
 17 18  1  0
 17 16  1  0
 19 18  1  0
 19 28  1  0
 19 20  1  0
 21 15  1  0
 21 20  1  0
 22 15  2  0
 23 24  1  0
 25 26  2  0
 26 45  1  0
 27 26  1  0
 27 30  1  0
 28 25  1  0
 28 29  1  0
 29 27  2  0
 30 31  1  0
 31 32  2  0
 33 36  1  0
 33 32  1  0
 34 33  2  0
 35 34  1  0
 35 30  2  0
 36 37  1  0
 37 38  1  0
 38 39  2  0
 40 39  1  0
 40 44  1  0
 41 40  2  0
 42 37  2  0
 42 41  1  0
 43 42  1  0
 45 46  1  0
 46 49  1  0
 46 48  1  0
 47 45  2  0
 50 51  1  0
 50 25  1  0
 52 50  1  0
 54 65  2  0
 55 53  1  0
 55 60  1  0
 56 64  1  0
 56 66  1  0
 57 63  1  0
 57 59  1  0
 58 64  1  0
 59 60  2  0
 59 58  1  0
 61 62  1  0
 61 55  2  0
 62 57  2  0
 63 56  1  0
 64 54  1  0
 66 68  2  0
 67 66  1  0
 69 67  1  0
 70 79  2  0
 70 75  1  0
 71 67  1  0
 71 75  1  0
 72 71  1  0
 73 74  1  0
 73 72  1  0
 74 70  1  0
 75 76  2  0
 76 77  1  0
 78 77  2  0
 79 78  1  0
 80 54  1  0
 80 81  1  0
 80 90  1  0
 81 84  1  0
 82 86  1  0
 82 81  1  0
 83 82  2  0
 86 85  1  0
 88 86  1  0
 88 89  1  0
 88 87  1  0
 90 93  1  1
 90 91  1  0
 92 90  1  0
M  ISO  4   5 101  15 100  23 100  53 101
M  END
>  <TORSDO>  (63) 
F 17

>  <SCORE>  (63) 
-15.234

>  <name>  (63) 
62

>  <ligand_id>  (63) 
62

>  <original_smiles>  (63) 
[H]C([H])=C1C(=C([H])Oc2c([H])c([H])c3c(c2[H])C([H])([H])N(C(=O)C([H])(N([H])C(=O)C([H])(N([H])C([H])([H])[H])C([H])([H])[H])C(C([H])([H])[H])(C([H])([H])[H])C([H])([H])[H])C([H])(C(=O)N([H])C2([H])c4c([H])c([H])c([H])c([H])c4C([H])([H])C([H])([H])C2([H])[H])C3([H])[H])C(=O)N(c2c([H])c([H])c([H])c(N([H])C(=O)N3C([H])([H])C([H])([H])C([H])([H])C([H])(n4nc(-c5c([H])c([H])c(Oc6c([H])c([H])c(F)c([H])c6F)c([H])c5[H])c(C(=O)N([H])[H])c4N([H])[H])C3([H])[H])c2[H])C1([H])[H]

>  <smiles>  (63) 
[H]C([H])=C1C(=C([H])Oc2c([H])c([H])c3c(c2[H])C([H])([H])N(C(=O)C([H])(N([H])C(=O)C([H])(N([H])C([H])([H])[H])C([H])([H])[H])C(C([H])([H])[H])(C([H])([H])[H])C([H])([H])[H])C([H])(C(=O)N([H])C2([H])c4c([H])c([H])c([H])c([H])c4C([H])([H])C([H])([H])C2([H])[H])C3([H])[H])C(=O)N(c2c([H])c([H])c([H])c(N([H])C(=O)N3C([H])([H])C([H])([H])C([H])([H])C([H])(n4nc(-c5c([H])c([H])c(Oc6c([H])c([H])c(F)c([H])c6F)c([H])c5[H])c(C(=O)N([H])[H])c4N([H])[H])C3([H])[H])c2[H])C1([H])[H]

$$$$
63:0:0
     RDKit          3D

 94103  0  0  1  0  0  0  0  0999 V2000
  -28.7340  -24.0150   20.2300 C   0  0  0  0  0  0  0  0  0  0  0  0
  -28.9850  -23.8520   21.6500 C   0  0  0  0  0  0  0  0  0  0  0  0
  -28.8980  -22.6500   19.6370 C   0  0  0  0  0  0  0  0  0  0  0  0
  -28.4450  -25.2180   19.5880 C   0  0  0  0  0  0  0  0  0  0  0  0
  -29.3830  -22.4000   21.9080 C   0  0  0  0  0  2  0  0  0  0  0  0
  -28.3550  -25.3310   18.0690 C   0  0  0  0  0  1  0  0  0  0  0  0
  -29.2420  -21.7210   20.6070 N   0  0  0  0  0  0  0  0  0  0  0  0
  -28.9220  -24.7090   22.5370 O   0  0  0  0  0  0  0  0  0  0  0  0
  -28.7580  -22.3580   18.4440 O   0  0  0  0  0  0  0  0  0  0  0  0
  -28.8550  -19.4050   19.5200 C   0  0  0  0  0  3  0  0  0  0  0  0
  -30.2770  -19.5350   21.4390 C   0  0  0  0  0  3  0  0  0  0  0  0
  -29.0010  -17.9780   19.5220 C   0  0  0  0  0  3  0  0  0  0  0  0
  -30.4430  -18.1100   21.4260 C   0  0  0  0  0  3  0  0  0  0  0  0
  -29.4660  -20.2460   20.4980 C   0  0  0  0  0  0  0  0  0  0  0  0
  -29.7950  -17.2770   20.4740 C   0  0  0  0  0  0  0  0  0  0  0  0
  -30.5590  -14.7660   20.2760 C   0  0  0  0  0  0  0  0  0  0  0  0
  -30.3760  -12.5090   19.2200 C   0  0  0  0  0  2  0  0  0  0  0  0
  -29.3980  -12.6110   18.0270 C   0  0  0  0  0  2  0  0  0  0  0  0
  -27.9380  -12.4320   18.4910 C   0  0  0  0  0  2  0  0  0  0  0  0
  -27.5990  -13.2900   19.7390 C   0  0  0  0  0  3  0  0  0  0  0  0
  -28.6870  -13.1490   20.8260 C   0  0  0  0  0  2  0  0  0  0  0  0
  -29.9720  -13.5240   20.2150 N   0  0  0  0  0  0  0  0  0  0  0  0
  -31.7210  -14.9370   19.8920 O   0  0  0  0  0  0  0  0  0  0  0  0
  -29.7170  -15.8090   20.6010 N   0  0  0  0  0  0  0  0  0  0  0  0
  -28.7920  -15.4720   20.8200 H   0  0  0  0  0  0  0  0  0  0  0  0
  -25.2280  -13.8770   20.5350 C   0  0  0  0  0  0  0  0  0  0  0  0
  -24.1720  -13.0980   20.9200 C   0  0  0  0  0  0  0  0  0  0  0  0
  -24.6310  -11.7460   20.8520 C   0  0  0  0  0  0  0  0  0  0  0  0
  -26.2650  -12.9990   20.2550 N   0  0  0  0  0  0  0  0  0  0  0  0
  -25.9130  -11.7120   20.5060 N   0  0  0  0  0  0  0  0  0  0  0  0
  -23.9080  -10.4810   21.0370 C   0  0  0  0  0  0  0  0  0  0  0  0
  -24.3440   -9.5110   21.9660 C   0  0  0  0  0  3  0  0  0  0  0  0
  -23.6200   -8.3120   22.1400 C   0  0  0  0  0  3  0  0  0  0  0  0
  -22.4480   -8.0740   21.3850 C   0  0  0  0  0  0  0  0  0  0  0  0
  -22.0320   -9.0330   20.4430 C   0  0  0  0  0  3  0  0  0  0  0  0
  -22.7560  -10.2240   20.2690 C   0  0  0  0  0  3  0  0  0  0  0  0
  -21.6960   -6.9270   21.4670 O   0  0  0  0  0  0  0  0  0  0  0  0
  -21.6190   -6.2000   22.6280 C   0  0  0  0  0  0  0  0  0  0  0  0
  -21.1110   -6.7550   23.8240 C   0  0  0  0  0  3  0  0  0  0  0  0
  -20.9850   -5.9530   24.9750 C   0  0  0  0  0  3  0  0  0  0  0  0
  -21.3570   -4.5950   24.9320 C   0  0  0  0  0  0  0  0  0  0  0  0
  -21.8570   -4.0390   23.7410 C   0  0  0  0  0  3  0  0  0  0  0  0
  -21.9850   -4.8400   22.5930 C   0  0  0  0  0  0  0  0  0  0  0  0
  -22.4480   -4.2940   21.4410 F   0  0  0  0  0  0  0  0  0  0  0  0
  -21.2290   -3.8210   26.0350 F   0  0  0  0  0  0  0  0  0  0  0  0
  -22.7830  -13.5710   21.2370 C   0  0  0  0  0  0  0  0  0  0  0  0
  -22.0790  -12.8620   22.1130 N   0  0  0  0  0  0  0  0  0  0  0  0
  -22.3310  -14.6040   20.7450 O   0  0  0  0  0  0  0  0  0  0  0  0
  -22.4580  -12.0270   22.5330 H   0  0  0  0  0  0  0  0  0  0  0  0
  -21.1480  -13.1600   22.3670 H   0  0  0  0  0  0  0  0  0  0  0  0
  -25.3880  -15.2500   20.3790 N   0  0  0  0  0  0  0  0  0  0  0  0
  -24.6170  -15.8950   20.5200 H   0  0  0  0  0  0  0  0  0  0  0  0
  -26.2140  -15.7010   20.0060 H   0  0  0  0  0  0  0  0  0  0  0  0
  -28.3650  -26.5010   20.2020 O   0  0  0  0  0  0  0  0  0  0  0  0
  -24.6250  -31.9070   23.2310 C   0  0  0  0  0  0  0  0  0  0  0  0
  -27.2330  -27.3470   20.1370 C   0  0  0  0  0  0  0  0  0  0  0  0
  -23.4130  -30.5110   21.5960 C   0  0  0  0  0  3  0  0  0  0  0  0
  -24.8570  -28.9650   20.1540 C   0  0  0  0  0  0  0  0  0  0  0  0
  -25.9520  -30.8320   21.3950 C   0  0  0  0  0  2  0  0  0  0  0  0
  -26.0310  -29.4550   20.7410 C   0  0  0  0  0  0  0  0  0  0  0  0
  -27.2170  -28.6570   20.7220 C   0  0  0  0  0  3  0  0  0  0  0  0
  -26.0220  -26.9070   19.5540 C   0  0  0  0  0  3  0  0  0  0  0  0
  -24.8550  -27.6980   19.5530 C   0  0  0  0  0  3  0  0  0  0  0  0
  -23.6190  -29.8380   20.2130 C   0  0  0  0  0  2  0  0  0  0  0  0
  -24.6830  -31.1010   22.1300 N   0  0  0  0  0  0  0  0  0  0  0  0
  -23.5450  -32.1810   23.7740 O   0  0  0  0  0  0  0  0  0  0  0  0
  -22.7580  -29.4920   22.5590 C   0  0  0  0  0  0  0  0  0  0  0  0
  -21.4350  -29.2970   22.4260 N   0  0  0  0  0  0  0  0  0  0  0  0
  -23.4400  -28.8790   23.3850 O   0  0  0  0  0  0  0  0  0  0  0  0
  -20.9430  -29.8430   21.7340 H   0  0  0  0  0  0  0  0  0  0  0  0
  -18.0710  -28.0580   22.9130 C   0  0  0  0  0  0  0  0  0  0  0  0
  -20.6240  -28.3530   23.1980 C   0  0  0  0  0  3  0  0  0  0  0  0
  -20.7480  -26.9200   22.6320 C   0  0  0  0  0  2  0  0  0  0  0  0
  -19.6570  -26.5760   21.6130 C   0  0  0  0  0  2  0  0  0  0  0  0
  -18.2690  -26.7070   22.2470 C   0  0  0  0  0  2  0  0  0  0  0  0
  -19.1760  -28.8380   23.3450 C   0  0  0  0  0  0  0  0  0  0  0  0
  -18.9360  -30.1010   23.9280 C   0  0  0  0  0  3  0  0  0  0  0  0
  -17.6230  -30.5850   24.0830 C   0  0  0  0  0  3  0  0  0  0  0  0
  -16.5320  -29.8030   23.6670 C   0  0  0  0  0  3  0  0  0  0  0  0
  -16.7560  -28.5410   23.0880 C   0  0  0  0  0  3  0  0  0  0  0  0
  -25.9110  -32.5410   23.8460 C   0  0  0  0  0  3  0  0  0  0  0  0
  -25.5980  -33.9360   24.1900 N   0  0  0  0  0  0  0  0  0  0  0  0
  -25.8890  -34.9940   23.4210 C   0  0  0  0  0  0  0  0  0  0  0  0
  -26.5180  -34.8990   22.3640 O   0  0  0  0  0  0  0  0  0  0  0  0
  -25.0330  -34.0830   25.0140 H   0  0  0  0  0  0  0  0  0  0  0  0
  -24.1200  -36.7630   23.1490 C   0  0  0  0  0  1  0  0  0  0  0  0
  -25.4040  -36.3770   23.9000 C   0  0  0  0  0  3  0  0  0  0  0  0
  -27.5610  -37.2970   24.6300 C   0  0  0  0  0  1  0  0  0  0  0  0
  -26.4150  -37.4450   23.7370 N   0  0  0  0  0  0  0  0  0  0  0  0
  -26.0020  -38.3590   23.9010 H   0  0  0  0  0  0  0  0  0  0  0  0
  -26.4400  -31.7640   25.1140 C   0  0  1  0  0  0  0  0  0  0  0  0
  -25.3550  -31.5110   26.1870 C   0  0  0  0  0  1  0  0  0  0  0  0
  -27.0290  -30.3930   24.7080 C   0  0  0  0  0  1  0  0  0  0  0  0
  -27.5900  -32.5590   25.7750 C   0  0  0  0  0  1  0  0  0  0  0  0
  1  2  1  0
  2  5  1  0
  2  8  2  0
  3  1  1  0
  3  7  1  0
  4 54  1  0
  4  1  2  0
  6  4  1  0
  7  5  1  0
  9  3  2  0
 10 12  2  0
 10 14  1  0
 12 15  1  0
 13 11  1  0
 14  7  1  0
 14 11  2  0
 15 24  1  0
 15 13  2  0
 16 24  1  0
 17 22  1  0
 18 19  1  0
 18 17  1  0
 20 19  1  0
 20 29  1  0
 20 21  1  0
 22 16  1  0
 22 21  1  0
 23 16  2  0
 24 25  1  0
 26 27  2  0
 27 46  1  0
 28 27  1  0
 28 31  1  0
 29 30  1  0
 29 26  1  0
 30 28  2  0
 31 32  1  0
 32 33  2  0
 34 37  1  0
 34 33  1  0
 35 34  2  0
 36 35  1  0
 36 31  2  0
 37 38  1  0
 38 39  1  0
 39 40  2  0
 41 40  1  0
 41 45  1  0
 42 41  2  0
 43 38  2  0
 43 42  1  0
 44 43  1  0
 46 47  1  0
 47 50  1  0
 47 49  1  0
 48 46  2  0
 51 52  1  0
 51 26  1  0
 53 51  1  0
 55 66  2  0
 56 54  1  0
 56 61  1  0
 57 65  1  0
 57 67  1  0
 58 64  1  0
 58 60  1  0
 59 65  1  0
 60 59  1  0
 61 60  2  0
 62 56  2  0
 63 62  1  0
 63 58  2  0
 64 57  1  0
 65 55  1  0
 67 69  2  0
 68 67  1  0
 70 68  1  0
 71 80  2  0
 71 76  1  0
 72 68  1  0
 72 76  1  0
 73 72  1  0
 74 75  1  0
 74 73  1  0
 75 71  1  0
 76 77  2  0
 77 78  1  0
 79 78  2  0
 80 79  1  0
 81 55  1  0
 81 82  1  0
 81 91  1  0
 82 85  1  0
 83 87  1  0
 83 82  1  0
 84 83  2  0
 87 86  1  0
 89 87  1  0
 89 90  1  0
 89 88  1  0
 91 94  1  1
 91 92  1  0
 93 91  1  0
M  ISO  4   4 101  16 100  24 100  54 101
M  END
>  <TORSDO>  (64) 
F 17

>  <SCORE>  (64) 
-15.404

>  <name>  (64) 
63

>  <ligand_id>  (64) 
63

>  <original_smiles>  (64) 
[H]c1c([H])c([H])c2c(c1[H])C([H])([H])C([H])([H])C([H])([H])C2([H])N([H])C(=O)C1([H])N(C(=O)C([H])(N([H])C(=O)C([H])(N([H])C([H])([H])[H])C([H])([H])[H])C(C([H])([H])[H])(C([H])([H])[H])C([H])([H])[H])C([H])([H])c2c([H])c(OC(=C3C(=O)N(c4c([H])c([H])c(N([H])C(=O)N5C([H])([H])C([H])([H])C([H])([H])C([H])(n6nc(-c7c([H])c([H])c(Oc8c([H])c([H])c(F)c([H])c8F)c([H])c7[H])c(C(=O)N([H])[H])c6N([H])[H])C5([H])[H])c([H])c4[H])C([H])([H])C3=O)C([H])([H])[H])c([H])c([H])c2C1([H])[H]

>  <smiles>  (64) 
[H]c1c([H])c([H])c2c(c1[H])C([H])([H])C([H])([H])C([H])([H])C2([H])N([H])C(=O)C1([H])N(C(=O)C([H])(N([H])C(=O)C([H])(N([H])C([H])([H])[H])C([H])([H])[H])C(C([H])([H])[H])(C([H])([H])[H])C([H])([H])[H])C([H])([H])c2c([H])c(OC(=C3C(=O)N(c4c([H])c([H])c(N([H])C(=O)N5C([H])([H])C([H])([H])C([H])([H])C([H])(n6nc(-c7c([H])c([H])c(Oc8c([H])c([H])c(F)c([H])c8F)c([H])c7[H])c(C(=O)N([H])[H])c6N([H])[H])C5([H])[H])c([H])c4[H])C([H])([H])C3=O)C([H])([H])[H])c([H])c([H])c2C1([H])[H]

$$$$
64:0:0
     RDKit          3D

 94103  0  0  1  0  0  0  0  0999 V2000
  -28.7540  -24.0380   19.0500 C   0  0  0  0  0  0  0  0  0  0  0  0
  -29.0460  -22.9210   20.0100 C   0  0  0  0  0  0  0  0  0  0  0  0
  -29.2530  -21.9910   17.9780 C   0  0  0  0  0  0  0  0  0  0  0  0
  -28.4140  -25.3870   19.1350 C   0  0  0  0  0  3  0  0  0  0  0  0
  -28.8800  -23.4240   17.6930 C   0  0  0  0  0  2  0  0  0  0  0  0
  -29.3490  -21.7510   19.3050 N   0  0  0  0  0  0  0  0  0  0  0  0
  -29.0330  -22.9970   21.2450 O   0  0  0  0  0  0  0  0  0  0  0  0
  -29.4110  -21.1780   17.0590 O   0  0  0  0  0  0  0  0  0  0  0  0
  -30.8770  -18.1480   19.4530 C   0  0  0  0  0  3  0  0  0  0  0  0
  -29.1770  -18.3060   21.1070 C   0  0  0  0  0  3  0  0  0  0  0  0
  -30.6630  -19.5370   19.1410 C   0  0  0  0  0  3  0  0  0  0  0  0
  -28.9590  -19.6890   20.7970 C   0  0  0  0  0  3  0  0  0  0  0  0
  -30.1300  -17.4550   20.4470 C   0  0  0  0  0  0  0  0  0  0  0  0
  -29.6780  -20.3650   19.7770 C   0  0  0  0  0  0  0  0  0  0  0  0
  -30.3020  -15.9580   20.9020 C   0  0  0  0  0  0  0  0  0  0  0  0
  -29.9640  -15.6970   22.0970 N   0  0  0  0  0  0  0  0  0  0  0  0
  -29.6220  -16.5270   22.5660 H   0  0  0  0  0  0  0  0  0  0  0  0
  -30.9110  -14.7750   20.0010 C   0  0  0  0  0  0  0  0  0  0  0  0
  -30.5940  -12.5750   18.8400 C   0  0  0  0  0  2  0  0  0  0  0  0
  -29.5700  -12.7450   17.6930 C   0  0  0  0  0  2  0  0  0  0  0  0
  -28.1240  -12.5820   18.2040 C   0  0  0  0  0  2  0  0  0  0  0  0
  -27.8660  -13.3890   19.5030 C   0  0  0  0  0  3  0  0  0  0  0  0
  -28.9890  -13.1380   20.5290 C   0  0  0  0  0  2  0  0  0  0  0  0
  -30.2630  -13.5510   19.9100 N   0  0  0  0  0  0  0  0  0  0  0  0
  -31.9760  -14.9480   19.3970 O   0  0  0  0  0  0  0  0  0  0  0  0
  -25.5510  -14.0130   20.4170 C   0  0  0  0  0  0  0  0  0  0  0  0
  -24.4900  -13.2520   20.8250 C   0  0  0  0  0  0  0  0  0  0  0  0
  -24.9060  -11.8920   20.6970 C   0  0  0  0  0  0  0  0  0  0  0  0
  -26.5470  -13.1170   20.0640 N   0  0  0  0  0  0  0  0  0  0  0  0
  -26.1680  -11.8330   20.2910 N   0  0  0  0  0  0  0  0  0  0  0  0
  -24.1570  -10.6420   20.8800 C   0  0  0  0  0  0  0  0  0  0  0  0
  -24.6080   -9.6330   21.7600 C   0  0  0  0  0  3  0  0  0  0  0  0
  -23.8600   -8.4490   21.9330 C   0  0  0  0  0  3  0  0  0  0  0  0
  -22.6470   -8.2640   21.2260 C   0  0  0  0  0  0  0  0  0  0  0  0
  -22.2150   -9.2630   20.3360 C   0  0  0  0  0  3  0  0  0  0  0  0
  -22.9640  -10.4390   20.1600 C   0  0  0  0  0  3  0  0  0  0  0  0
  -21.8690   -7.1370   21.3120 O   0  0  0  0  0  0  0  0  0  0  0  0
  -21.8260   -6.3750   22.4520 C   0  0  0  0  0  0  0  0  0  0  0  0
  -21.4580   -6.9240   23.7000 C   0  0  0  0  0  3  0  0  0  0  0  0
  -21.3590   -6.0920   24.8330 C   0  0  0  0  0  3  0  0  0  0  0  0
  -21.6180   -4.7130   24.7190 C   0  0  0  0  0  0  0  0  0  0  0  0
  -21.9800   -4.1640   23.4760 C   0  0  0  0  0  3  0  0  0  0  0  0
  -22.0810   -4.9930   22.3460 C   0  0  0  0  0  0  0  0  0  0  0  0
  -22.4090   -4.4560   21.1450 F   0  0  0  0  0  0  0  0  0  0  0  0
  -21.5150   -3.9110   25.8060 F   0  0  0  0  0  0  0  0  0  0  0  0
  -23.1310  -13.7530   21.2240 C   0  0  0  0  0  0  0  0  0  0  0  0
  -22.4530  -13.0440   22.1180 N   0  0  0  0  0  0  0  0  0  0  0  0
  -22.6830  -14.8090   20.7770 O   0  0  0  0  0  0  0  0  0  0  0  0
  -22.8290  -12.1890   22.5010 H   0  0  0  0  0  0  0  0  0  0  0  0
  -21.5440  -13.3590   22.4260 H   0  0  0  0  0  0  0  0  0  0  0  0
  -25.7440  -15.3860   20.2980 N   0  0  0  0  0  0  0  0  0  0  0  0
  -25.0140  -16.0570   20.5100 H   0  0  0  0  0  0  0  0  0  0  0  0
  -26.5970  -15.8190   19.9660 H   0  0  0  0  0  0  0  0  0  0  0  0
  -28.2190  -26.3370   20.1580 O   0  0  0  0  0  0  0  0  0  0  0  0
  -24.5120  -31.8100   23.1560 C   0  0  0  0  0  0  0  0  0  0  0  0
  -27.1390  -27.2480   20.0720 C   0  0  0  0  0  0  0  0  0  0  0  0
  -23.3180  -30.4240   21.5000 C   0  0  0  0  0  3  0  0  0  0  0  0
  -24.7780  -28.8850   20.0650 C   0  0  0  0  0  0  0  0  0  0  0  0
  -25.8610  -30.7340   21.3370 C   0  0  0  0  0  2  0  0  0  0  0  0
  -25.9470  -29.3580   20.6750 C   0  0  0  0  0  0  0  0  0  0  0  0
  -27.1280  -28.5500   20.6740 C   0  0  0  0  0  3  0  0  0  0  0  0
  -25.9400  -26.8320   19.4490 C   0  0  0  0  0  3  0  0  0  0  0  0
  -24.7780  -27.6290   19.4410 C   0  0  0  0  0  3  0  0  0  0  0  0
  -23.5410  -29.7620   20.1150 C   0  0  0  0  0  2  0  0  0  0  0  0
  -24.5830  -31.0060   22.0540 N   0  0  0  0  0  0  0  0  0  0  0  0
  -23.4250  -32.0820   23.6860 O   0  0  0  0  0  0  0  0  0  0  0  0
  -22.6490  -29.4000   22.4480 C   0  0  0  0  0  0  0  0  0  0  0  0
  -21.3240  -29.2180   22.3070 N   0  0  0  0  0  0  0  0  0  0  0  0
  -23.3200  -28.7720   23.2710 O   0  0  0  0  0  0  0  0  0  0  0  0
  -20.8400  -29.7720   21.6160 H   0  0  0  0  0  0  0  0  0  0  0  0
  -17.9510  -27.9860   22.7480 C   0  0  0  0  0  0  0  0  0  0  0  0
  -20.5010  -28.2760   23.0690 C   0  0  0  0  0  3  0  0  0  0  0  0
  -20.6300  -26.8420   22.5020 C   0  0  0  0  0  2  0  0  0  0  0  0
  -19.5530  -26.5030   21.4670 C   0  0  0  0  0  2  0  0  0  0  0  0
  -18.1570  -26.6370   22.0820 C   0  0  0  0  0  2  0  0  0  0  0  0
  -19.0520  -28.7630   23.1970 C   0  0  0  0  0  0  0  0  0  0  0  0
  -18.8060  -30.0260   23.7800 C   0  0  0  0  0  3  0  0  0  0  0  0
  -17.4920  -30.5130   23.9150 C   0  0  0  0  0  3  0  0  0  0  0  0
  -16.4060  -29.7310   23.4830 C   0  0  0  0  0  3  0  0  0  0  0  0
  -16.6360  -28.4700   22.9060 C   0  0  0  0  0  3  0  0  0  0  0  0
  -25.7920  -32.4400   23.7890 C   0  0  0  0  0  3  0  0  0  0  0  0
  -25.4760  -33.8300   24.1430 N   0  0  0  0  0  0  0  0  0  0  0  0
  -25.7920  -34.8970   23.3960 C   0  0  0  0  0  0  0  0  0  0  0  0
  -26.4490  -34.8140   22.3560 O   0  0  0  0  0  0  0  0  0  0  0  0
  -24.8960  -33.9690   24.9590 H   0  0  0  0  0  0  0  0  0  0  0  0
  -24.0500  -36.6810   23.0830 C   0  0  0  0  0  1  0  0  0  0  0  0
  -25.3010  -36.2750   23.8790 C   0  0  0  0  0  3  0  0  0  0  0  0
  -27.4400  -37.1610   24.7010 C   0  0  0  0  0  1  0  0  0  0  0  0
  -26.3250  -37.3370   23.7720 N   0  0  0  0  0  0  0  0  0  0  0  0
  -25.9150  -38.2510   23.9400 H   0  0  0  0  0  0  0  0  0  0  0  0
  -26.3090  -31.6500   25.0530 C   0  0  1  0  0  0  0  0  0  0  0  0
  -25.2160  -31.3930   26.1170 C   0  0  0  0  0  1  0  0  0  0  0  0
  -26.8930  -30.2780   24.6420 C   0  0  0  0  0  1  0  0  0  0  0  0
  -27.4600  -32.4340   25.7290 C   0  0  0  0  0  1  0  0  0  0  0  0
  1  4  2  0
  1  2  1  0
  2  7  2  0
  3  6  1  0
  4 54  1  0
  5  3  1  0
  5  1  1  0
  6 14  1  0
  6  2  1  0
  8  3  2  0
  9 13  1  0
 11  9  2  0
 11 14  1  0
 12 10  1  0
 13 15  1  0
 13 10  2  0
 14 12  2  0
 15 16  2  0
 16 17  1  0
 18 15  1  0
 19 24  1  0
 20 21  1  0
 20 19  1  0
 22 21  1  0
 22 29  1  0
 22 23  1  0
 24 18  1  0
 24 23  1  0
 25 18  2  0
 26 27  2  0
 27 46  1  0
 28 27  1  0
 28 31  1  0
 29 30  1  0
 29 26  1  0
 30 28  2  0
 31 32  1  0
 32 33  2  0
 34 37  1  0
 34 33  1  0
 35 34  2  0
 36 35  1  0
 36 31  2  0
 37 38  1  0
 38 39  1  0
 39 40  2  0
 41 40  1  0
 41 45  1  0
 42 41  2  0
 43 38  2  0
 43 42  1  0
 44 43  1  0
 46 47  1  0
 47 50  1  0
 47 49  1  0
 48 46  2  0
 51 26  1  0
 51 52  1  0
 53 51  1  0
 55 66  2  0
 56 54  1  0
 56 61  1  0
 57 65  1  0
 57 67  1  0
 58 64  1  0
 58 60  1  0
 59 65  1  0
 60 59  1  0
 61 60  2  0
 62 56  2  0
 63 62  1  0
 63 58  2  0
 64 57  1  0
 65 55  1  0
 67 69  2  0
 68 67  1  0
 70 68  1  0
 71 80  2  0
 71 76  1  0
 72 68  1  0
 72 76  1  0
 73 72  1  0
 74 75  1  0
 74 73  1  0
 75 71  1  0
 76 77  2  0
 77 78  1  0
 79 78  2  0
 80 79  1  0
 81 55  1  0
 81 82  1  0
 81 91  1  0
 82 85  1  0
 83 87  1  0
 83 82  1  0
 84 83  2  0
 87 86  1  0
 89 87  1  0
 89 90  1  0
 89 88  1  0
 91 94  1  1
 91 92  1  0
 93 91  1  0
M  ISO  4   4 101  15 100  18 100  54 101
M  END
>  <TORSDO>  (65) 
F 18

>  <SCORE>  (65) 
-13.999

>  <name>  (65) 
64

>  <ligand_id>  (65) 
64

>  <original_smiles>  (65) 
[H]N=C(C(=O)N1C([H])([H])C([H])([H])C([H])([H])C([H])(n2nc(-c3c([H])c([H])c(Oc4c([H])c([H])c(F)c([H])c4F)c([H])c3[H])c(C(=O)N([H])[H])c2N([H])[H])C1([H])[H])c1c([H])c([H])c(N2C(=O)C(=C([H])Oc3c([H])c([H])c4c(c3[H])C([H])([H])N(C(=O)C([H])(N([H])C(=O)C([H])(N([H])C([H])([H])[H])C([H])([H])[H])C(C([H])([H])[H])(C([H])([H])[H])C([H])([H])[H])C([H])(C(=O)N([H])C3([H])c5c([H])c([H])c([H])c([H])c5C([H])([H])C([H])([H])C3([H])[H])C4([H])[H])C([H])([H])C2=O)c([H])c1[H]

>  <smiles>  (65) 
[H]N=C(C(=O)N1C([H])([H])C([H])([H])C([H])([H])C([H])(n2nc(-c3c([H])c([H])c(Oc4c([H])c([H])c(F)c([H])c4F)c([H])c3[H])c(C(=O)N([H])[H])c2N([H])[H])C1([H])[H])c1c([H])c([H])c(N2C(=O)C(=C([H])Oc3c([H])c([H])c4c(c3[H])C([H])([H])N(C(=O)C([H])(N([H])C(=O)C([H])(N([H])C([H])([H])[H])C([H])([H])[H])C(C([H])([H])[H])(C([H])([H])[H])C([H])([H])[H])C([H])(C(=O)N([H])C3([H])c5c([H])c([H])c([H])c([H])c5C([H])([H])C([H])([H])C3([H])[H])C4([H])[H])C([H])([H])C2=O)c([H])c1[H]

$$$$
65:0:0
     RDKit          3D

 95103  0  0  1  0  0  0  0  0999 V2000
  -28.8950  -20.8130   19.6770 C   0  0  0  0  0  0  0  0  0  0  0  0
  -29.5210  -21.8400   20.2620 N   0  0  0  0  0  0  0  0  0  0  0  0
  -28.0670  -20.9680   18.7770 O   0  0  0  0  0  0  0  0  0  0  0  0
  -30.1390  -21.6290   21.0330 H   0  0  0  0  0  0  0  0  0  0  0  0
  -28.2220  -18.4900   20.4160 C   0  0  0  0  0  3  0  0  0  0  0  0
  -30.5920  -18.9940   20.2200 C   0  0  0  0  0  3  0  0  0  0  0  0
  -28.5360  -17.1510   20.7340 C   0  0  0  0  0  3  0  0  0  0  0  0
  -30.9060  -17.6430   20.5050 C   0  0  0  0  0  3  0  0  0  0  0  0
  -29.2460  -19.4250   20.1470 C   0  0  0  0  0  0  0  0  0  0  0  0
  -29.8730  -16.7030   20.7420 C   0  0  0  0  0  0  0  0  0  0  0  0
  -30.7180  -14.4450   20.1870 C   0  0  0  0  0  0  0  0  0  0  0  0
  -30.3500  -12.3500   18.9280 C   0  0  0  0  0  2  0  0  0  0  0  0
  -29.3370  -12.6320   17.7980 C   0  0  0  0  0  2  0  0  0  0  0  0
  -27.8880  -12.4810   18.3050 C   0  0  0  0  0  2  0  0  0  0  0  0
  -27.6370  -13.2530   19.6280 C   0  0  0  0  0  3  0  0  0  0  0  0
  -28.7490  -12.9380   20.6550 C   0  0  0  0  0  2  0  0  0  0  0  0
  -30.0510  -13.2670   20.0400 N   0  0  0  0  0  0  0  0  0  0  0  0
  -31.7670  -14.7050   19.5880 O   0  0  0  0  0  0  0  0  0  0  0  0
  -30.1120  -15.3240   21.0070 N   0  0  0  0  0  0  0  0  0  0  0  0
  -29.3780  -14.8800   21.5370 H   0  0  0  0  0  0  0  0  0  0  0  0
  -25.2820  -13.8570   20.4720 C   0  0  0  0  0  0  0  0  0  0  0  0
  -24.2310  -13.0820   20.8840 C   0  0  0  0  0  0  0  0  0  0  0  0
  -24.6810  -11.7290   20.7940 C   0  0  0  0  0  0  0  0  0  0  0  0
  -26.3080  -12.9760   20.1660 N   0  0  0  0  0  0  0  0  0  0  0  0
  -25.9510  -11.6900   20.4130 N   0  0  0  0  0  0  0  0  0  0  0  0
  -23.9590  -10.4670   20.9950 C   0  0  0  0  0  0  0  0  0  0  0  0
  -24.4120   -9.4970   21.9160 C   0  0  0  0  0  3  0  0  0  0  0  0
  -23.6900   -8.2990   22.1060 C   0  0  0  0  0  3  0  0  0  0  0  0
  -22.5010   -8.0630   21.3760 C   0  0  0  0  0  0  0  0  0  0  0  0
  -22.0660   -9.0220   20.4440 C   0  0  0  0  0  3  0  0  0  0  0  0
  -22.7900  -10.2110   20.2500 C   0  0  0  0  0  3  0  0  0  0  0  0
  -21.7490   -6.9170   21.4750 O   0  0  0  0  0  0  0  0  0  0  0  0
  -21.6940   -6.1940   22.6390 C   0  0  0  0  0  0  0  0  0  0  0  0
  -21.2230   -6.7550   23.8450 C   0  0  0  0  0  3  0  0  0  0  0  0
  -21.1160   -5.9530   25.0000 C   0  0  0  0  0  3  0  0  0  0  0  0
  -21.4690   -4.5920   24.9480 C   0  0  0  0  0  0  0  0  0  0  0  0
  -21.9300   -4.0290   23.7460 C   0  0  0  0  0  3  0  0  0  0  0  0
  -22.0400   -4.8270   22.5930 C   0  0  0  0  0  0  0  0  0  0  0  0
  -22.4660   -4.2750   21.4320 F   0  0  0  0  0  0  0  0  0  0  0  0
  -21.3570   -3.8200   26.0560 F   0  0  0  0  0  0  0  0  0  0  0  0
  -22.8540  -13.5600   21.2460 C   0  0  0  0  0  0  0  0  0  0  0  0
  -22.1700  -12.8450   22.1330 N   0  0  0  0  0  0  0  0  0  0  0  0
  -22.3940  -14.6030   20.7810 O   0  0  0  0  0  0  0  0  0  0  0  0
  -22.5530  -11.9990   22.5300 H   0  0  0  0  0  0  0  0  0  0  0  0
  -21.2490  -13.1470   22.4170 H   0  0  0  0  0  0  0  0  0  0  0  0
  -25.4430  -15.2300   20.3150 N   0  0  0  0  0  0  0  0  0  0  0  0
  -24.6910  -15.8860   20.4950 H   0  0  0  0  0  0  0  0  0  0  0  0
  -26.2600  -15.6690   19.9100 H   0  0  0  0  0  0  0  0  0  0  0  0
  -29.7140  -23.1620   19.6340 C   0  0  0  0  0  3  0  0  0  0  0  0
  -31.2140  -23.4930   19.6660 C   0  0  0  0  0  3  0  0  0  0  0  0
  -32.1130  -22.6430   19.6850 O   0  0  0  0  0  0  0  0  0  0  0  0
  -28.8750  -24.2880   20.2900 C   0  0  0  0  0  0  0  0  0  0  0  0
  -28.3810  -24.1980   21.4220 O   0  0  0  0  0  0  0  0  0  0  0  0
  -28.6570  -25.5610   19.4370 C   0  0  0  0  0  2  0  0  0  0  0  0
  -28.4360  -26.7330   20.2450 O   0  0  0  0  0  0  0  0  0  0  0  0
  -24.5940  -31.9270   23.2180 C   0  0  0  0  0  0  0  0  0  0  0  0
  -27.2360  -27.4210   20.2070 C   0  0  0  0  0  0  0  0  0  0  0  0
  -23.3880  -30.5070   21.5910 C   0  0  0  0  0  3  0  0  0  0  0  0
  -24.8390  -28.9400   20.1960 C   0  0  0  0  0  0  0  0  0  0  0  0
  -25.9170  -30.8490   21.4000 C   0  0  0  0  0  2  0  0  0  0  0  0
  -25.9970  -29.4670   20.7790 C   0  0  0  0  0  0  0  0  0  0  0  0
  -27.1920  -28.7130   20.7820 C   0  0  0  0  0  3  0  0  0  0  0  0
  -26.0480  -26.9020   19.6390 C   0  0  0  0  0  3  0  0  0  0  0  0
  -24.8590  -27.6560   19.6280 C   0  0  0  0  0  3  0  0  0  0  0  0
  -23.5980  -29.8040   20.2230 C   0  0  0  0  0  2  0  0  0  0  0  0
  -24.6520  -31.1110   22.1280 N   0  0  0  0  0  0  0  0  0  0  0  0
  -23.5120  -32.2120   23.7500 O   0  0  0  0  0  0  0  0  0  0  0  0
  -22.7280  -29.5030   22.5640 C   0  0  0  0  0  0  0  0  0  0  0  0
  -21.4010  -29.3380   22.4460 N   0  0  0  0  0  0  0  0  0  0  0  0
  -23.4090  -28.8740   23.3800 O   0  0  0  0  0  0  0  0  0  0  0  0
  -20.9140  -29.8960   21.7600 H   0  0  0  0  0  0  0  0  0  0  0  0
  -18.0080  -28.2220   22.9970 C   0  0  0  0  0  0  0  0  0  0  0  0
  -20.5760  -28.4170   23.2270 C   0  0  0  0  0  3  0  0  0  0  0  0
  -20.6360  -26.9850   22.6440 C   0  0  0  0  0  2  0  0  0  0  0  0
  -19.5090  -26.6930   21.6490 C   0  0  0  0  0  2  0  0  0  0  0  0
  -18.1410  -26.8700   22.3160 C   0  0  0  0  0  2  0  0  0  0  0  0
  -19.1520  -28.9550   23.4110 C   0  0  0  0  0  0  0  0  0  0  0  0
  -18.9740  -30.2220   24.0070 C   0  0  0  0  0  3  0  0  0  0  0  0
  -17.6850  -30.7570   24.1930 C   0  0  0  0  0  3  0  0  0  0  0  0
  -16.5560  -30.0190   23.7970 C   0  0  0  0  0  3  0  0  0  0  0  0
  -16.7180  -28.7540   23.2050 C   0  0  0  0  0  3  0  0  0  0  0  0
  -25.8810  -32.5610   23.8350 C   0  0  0  0  0  3  0  0  0  0  0  0
  -25.5740  -33.9610   24.1590 N   0  0  0  0  0  0  0  0  0  0  0  0
  -25.9050  -35.0090   23.3910 C   0  0  0  0  0  0  0  0  0  0  0  0
  -26.5740  -34.8990   22.3610 O   0  0  0  0  0  0  0  0  0  0  0  0
  -24.9850  -34.1220   24.9620 H   0  0  0  0  0  0  0  0  0  0  0  0
  -24.1830  -36.8010   23.0150 C   0  0  0  0  0  1  0  0  0  0  0  0
  -25.4170  -36.3990   23.8390 C   0  0  0  0  0  3  0  0  0  0  0  0
  -27.5440  -37.2850   24.6870 C   0  0  0  0  0  1  0  0  0  0  0  0
  -26.4530  -37.4490   23.7310 N   0  0  0  0  0  0  0  0  0  0  0  0
  -26.0470  -38.3720   23.8660 H   0  0  0  0  0  0  0  0  0  0  0  0
  -26.4020  -31.7960   25.1130 C   0  0  1  0  0  0  0  0  0  0  0  0
  -25.3120  -31.5550   26.1820 C   0  0  0  0  0  1  0  0  0  0  0  0
  -26.9910  -30.4190   24.7250 C   0  0  0  0  0  1  0  0  0  0  0  0
  -27.5510  -32.5950   25.7720 C   0  0  0  0  0  1  0  0  0  0  0  0
  1  9  1  0
  1  2  1  0
  2  4  1  0
  3  1  2  0
  5  7  1  0
  6  8  2  0
  7 10  2  0
  8 10  1  0
  9  6  1  0
  9  5  2  0
 10 19  1  0
 11 19  1  0
 12 17  1  0
 13 14  1  0
 13 12  1  0
 15 14  1  0
 15 24  1  0
 15 16  1  0
 17 11  1  0
 17 16  1  0
 18 11  2  0
 19 20  1  0
 21 22  2  0
 22 41  1  0
 23 22  1  0
 23 26  1  0
 24 25  1  0
 24 21  1  0
 25 23  2  0
 26 27  1  0
 27 28  2  0
 29 32  1  0
 29 28  1  0
 30 29  2  0
 31 30  1  0
 31 26  2  0
 32 33  1  0
 33 34  1  0
 34 35  2  0
 36 35  1  0
 36 40  1  0
 37 36  2  0
 38 33  2  0
 38 37  1  0
 39 38  1  0
 41 42  1  0
 42 45  1  0
 42 44  1  0
 43 41  2  0
 46 21  1  0
 46 47  1  0
 48 46  1  0
 49 50  1  0
 49  2  1  0
 49 52  1  0
 50 51  2  0
 52 53  2  0
 54 55  1  0
 54 52  1  0
 56 67  2  0
 57 55  1  0
 57 62  1  0
 58 66  1  0
 58 68  1  0
 59 65  1  0
 59 61  1  0
 60 66  1  0
 61 62  2  0
 61 60  1  0
 63 57  2  0
 64 63  1  0
 64 59  2  0
 65 58  1  0
 66 56  1  0
 68 70  2  0
 69 68  1  0
 71 69  1  0
 72 81  2  0
 72 77  1  0
 73 69  1  0
 73 77  1  0
 74 73  1  0
 75 76  1  0
 75 74  1  0
 76 72  1  0
 77 78  2  0
 78 79  1  0
 80 79  2  0
 81 80  1  0
 82 56  1  0
 82 83  1  0
 82 92  1  0
 83 86  1  0
 84 88  1  0
 84 83  1  0
 85 84  2  0
 88 87  1  0
 90 88  1  0
 90 91  1  0
 90 89  1  0
 92 95  1  1
 92 93  1  0
 94 92  1  0
M  ISO  4  11 100  19 100  54 101  55 101
M  END
>  <TORSDO>  (66) 
F 21

>  <SCORE>  (66) 
-13.654

>  <name>  (66) 
65

>  <ligand_id>  (66) 
65

>  <original_smiles>  (66) 
[H]C(=O)C([H])(C(=O)C([H])([H])Oc1c([H])c([H])c2c(c1[H])C([H])([H])N(C(=O)C([H])(N([H])C(=O)C([H])(N([H])C([H])([H])[H])C([H])([H])[H])C(C([H])([H])[H])(C([H])([H])[H])C([H])([H])[H])C([H])(C(=O)N([H])C1([H])c3c([H])c([H])c([H])c([H])c3C([H])([H])C([H])([H])C1([H])[H])C2([H])[H])N([H])C(=O)c1c([H])c([H])c(N([H])C(=O)N2C([H])([H])C([H])([H])C([H])([H])C([H])(n3nc(-c4c([H])c([H])c(Oc5c([H])c([H])c(F)c([H])c5F)c([H])c4[H])c(C(=O)N([H])[H])c3N([H])[H])C2([H])[H])c([H])c1[H]

>  <smiles>  (66) 
[H]C(=O)C([H])(C(=O)C([H])([H])Oc1c([H])c([H])c2c(c1[H])C([H])([H])N(C(=O)C([H])(N([H])C(=O)C([H])(N([H])C([H])([H])[H])C([H])([H])[H])C(C([H])([H])[H])(C([H])([H])[H])C([H])([H])[H])C([H])(C(=O)N([H])C1([H])c3c([H])c([H])c([H])c([H])c3C([H])([H])C([H])([H])C1([H])[H])C2([H])[H])N([H])C(=O)c1c([H])c([H])c(N([H])C(=O)N2C([H])([H])C([H])([H])C([H])([H])C([H])(n3nc(-c4c([H])c([H])c(Oc5c([H])c([H])c(F)c([H])c5F)c([H])c4[H])c(C(=O)N([H])[H])c3N([H])[H])C2([H])[H])c([H])c1[H]

$$$$
66:0:0
     RDKit          3D

 93102  0  0  1  0  0  0  0  0999 V2000
  -28.6050  -23.8130   19.9130 C   0  0  0  0  0  0  0  0  0  0  0  0
  -28.4650  -22.5870   19.1310 C   0  0  0  0  0  0  0  0  0  0  0  0
  -28.2650  -25.1110   19.5330 C   0  0  0  0  0  3  0  0  0  0  0  0
  -29.1820  -22.9620   21.0820 C   0  0  0  0  0  2  0  0  0  0  0  0
  -28.9700  -21.7930   20.1800 N   0  0  0  0  0  0  0  0  0  0  0  0
  -28.0630  -22.4050   18.0010 O   0  0  0  0  0  0  0  0  0  0  0  0
  -28.3000  -19.3450   20.6010 C   0  0  0  0  0  3  0  0  0  0  0  0
  -28.5680  -17.9350   20.6380 C   0  0  0  0  0  3  0  0  0  0  0  0
  -30.5930  -19.7840   20.3600 C   0  0  0  0  0  3  0  0  0  0  0  0
  -30.9010  -18.3710   20.3760 C   0  0  0  0  0  0  0  0  0  0  0  0
  -29.2880  -20.3570   20.4150 C   0  0  0  0  0  0  0  0  0  0  0  0
  -29.8690  -17.3740   20.4870 C   0  0  0  0  0  0  0  0  0  0  0  0
  -30.6660  -14.8370   20.5810 C   0  0  0  0  0  0  0  0  0  0  0  0
  -30.5120  -12.4990   19.7050 C   0  0  0  0  0  2  0  0  0  0  0  0
  -29.6350  -12.4410   18.4340 C   0  0  0  0  0  2  0  0  0  0  0  0
  -28.1410  -12.3190   18.7960 C   0  0  0  0  0  2  0  0  0  0  0  0
  -27.6960  -13.2690   19.9420 C   0  0  0  0  0  3  0  0  0  0  0  0
  -28.7060  -13.2920   21.1080 C   0  0  0  0  0  2  0  0  0  0  0  0
  -30.0150  -13.6200   20.5350 N   0  0  0  0  0  0  0  0  0  0  0  0
  -31.8980  -14.8380   20.5460 O   0  0  0  0  0  0  0  0  0  0  0  0
  -29.8990  -15.8940   18.5790 C   0  0  0  0  0  1  0  0  0  0  0  0
  -29.9840  -15.9470   20.0510 N   0  0  0  0  0  0  0  0  0  0  0  0
  -25.2790  -13.8690   20.5470 C   0  0  0  0  0  0  0  0  0  0  0  0
  -24.1970  -13.1000   20.8780 C   0  0  0  0  0  0  0  0  0  0  0  0
  -24.6650  -11.7500   20.9010 C   0  0  0  0  0  0  0  0  0  0  0  0
  -26.3350  -12.9870   20.3850 N   0  0  0  0  0  0  0  0  0  0  0  0
  -25.9710  -11.7100   20.6640 N   0  0  0  0  0  0  0  0  0  0  0  0
  -23.9340  -10.4900   21.0780 C   0  0  0  0  0  0  0  0  0  0  0  0
  -24.3350   -9.5310   22.0340 C   0  0  0  0  0  3  0  0  0  0  0  0
  -23.6030   -8.3350   22.1980 C   0  0  0  0  0  3  0  0  0  0  0  0
  -22.4590   -8.0900   21.4050 C   0  0  0  0  0  0  0  0  0  0  0  0
  -22.0790   -9.0360   20.4370 C   0  0  0  0  0  3  0  0  0  0  0  0
  -22.8100  -10.2230   20.2710 C   0  0  0  0  0  3  0  0  0  0  0  0
  -21.7010   -6.9450   21.4770 O   0  0  0  0  0  0  0  0  0  0  0  0
  -21.6240   -6.2060   22.6300 C   0  0  0  0  0  0  0  0  0  0  0  0
  -21.1830   -6.7680   23.8480 C   0  0  0  0  0  3  0  0  0  0  0  0
  -21.0520   -5.9560   24.9920 C   0  0  0  0  0  3  0  0  0  0  0  0
  -21.3520   -4.5830   24.9190 C   0  0  0  0  0  0  0  0  0  0  0  0
  -21.7880   -4.0200   23.7060 C   0  0  0  0  0  3  0  0  0  0  0  0
  -21.9200   -4.8300   22.5640 C   0  0  0  0  0  0  0  0  0  0  0  0
  -22.3190   -4.2780   21.3930 F   0  0  0  0  0  0  0  0  0  0  0  0
  -21.2190   -3.8000   26.0150 F   0  0  0  0  0  0  0  0  0  0  0  0
  -22.7860  -13.5770   21.0600 C   0  0  0  0  0  0  0  0  0  0  0  0
  -22.0140  -12.9010   21.9020 N   0  0  0  0  0  0  0  0  0  0  0  0
  -22.3750  -14.5870   20.4880 O   0  0  0  0  0  0  0  0  0  0  0  0
  -22.3590  -12.0860   22.3870 H   0  0  0  0  0  0  0  0  0  0  0  0
  -21.0640  -13.2030   22.0640 H   0  0  0  0  0  0  0  0  0  0  0  0
  -25.4480  -15.2350   20.3440 N   0  0  0  0  0  0  0  0  0  0  0  0
  -24.6730  -15.8880   20.3900 H   0  0  0  0  0  0  0  0  0  0  0  0
  -26.3070  -15.6590   20.0180 H   0  0  0  0  0  0  0  0  0  0  0  0
  -33.1840  -18.6420   19.3700 C   0  0  0  0  0  2  0  0  0  0  0  0
  -32.3010  -17.9760   20.1360 C   0  0  0  0  0  3  0  0  0  0  0  0
  -28.3210  -26.3860   20.1660 O   0  0  0  0  0  0  0  0  0  0  0  0
  -24.6150  -31.8720   23.1610 C   0  0  0  0  0  0  0  0  0  0  0  0
  -27.2250  -27.2850   20.0870 C   0  0  0  0  0  0  0  0  0  0  0  0
  -23.4090  -30.4680   21.5310 C   0  0  0  0  0  3  0  0  0  0  0  0
  -24.8580  -28.9260   20.0920 C   0  0  0  0  0  0  0  0  0  0  0  0
  -25.9510  -30.7880   21.3350 C   0  0  0  0  0  2  0  0  0  0  0  0
  -26.0330  -29.4080   20.6830 C   0  0  0  0  0  0  0  0  0  0  0  0
  -27.2170  -28.5990   20.6720 C   0  0  0  0  0  3  0  0  0  0  0  0
  -26.0140  -26.8700   19.4830 C   0  0  0  0  0  3  0  0  0  0  0  0
  -24.8530  -27.6640   19.4820 C   0  0  0  0  0  3  0  0  0  0  0  0
  -23.6190  -29.7970   20.1490 C   0  0  0  0  0  2  0  0  0  0  0  0
  -24.6780  -31.0610   22.0650 N   0  0  0  0  0  0  0  0  0  0  0  0
  -23.5330  -32.1440   23.7010 O   0  0  0  0  0  0  0  0  0  0  0  0
  -22.7560  -29.4460   22.4950 C   0  0  0  0  0  0  0  0  0  0  0  0
  -21.4270  -29.2740   22.3880 N   0  0  0  0  0  0  0  0  0  0  0  0
  -23.4450  -28.8150   23.3020 O   0  0  0  0  0  0  0  0  0  0  0  0
  -20.9300  -29.8350   21.7110 H   0  0  0  0  0  0  0  0  0  0  0  0
  -18.0550  -28.0840   22.9390 C   0  0  0  0  0  0  0  0  0  0  0  0
  -20.6180  -28.3340   23.1670 C   0  0  0  0  0  3  0  0  0  0  0  0
  -20.7050  -26.9060   22.5820 C   0  0  0  0  0  2  0  0  0  0  0  0
  -19.5860  -26.5920   21.5850 C   0  0  0  0  0  2  0  0  0  0  0  0
  -18.2150  -26.7380   22.2530 C   0  0  0  0  0  2  0  0  0  0  0  0
  -19.1820  -28.8400   23.3550 C   0  0  0  0  0  0  0  0  0  0  0  0
  -18.9770  -30.0990   23.9580 C   0  0  0  0  0  3  0  0  0  0  0  0
  -17.6770  -30.6030   24.1500 C   0  0  0  0  0  3  0  0  0  0  0  0
  -16.5630  -29.8430   23.7490 C   0  0  0  0  0  3  0  0  0  0  0  0
  -16.7530  -28.5860   23.1500 C   0  0  0  0  0  3  0  0  0  0  0  0
  -25.8960  -32.5130   23.7760 C   0  0  0  0  0  3  0  0  0  0  0  0
  -25.5700  -33.9030   24.1330 N   0  0  0  0  0  0  0  0  0  0  0  0
  -25.8850  -34.9740   23.3930 C   0  0  0  0  0  0  0  0  0  0  0  0
  -26.5510  -34.8980   22.3560 O   0  0  0  0  0  0  0  0  0  0  0  0
  -24.9790  -34.0340   24.9400 H   0  0  0  0  0  0  0  0  0  0  0  0
  -24.1410  -36.7600   23.0780 C   0  0  0  0  0  1  0  0  0  0  0  0
  -25.3860  -36.3480   23.8800 C   0  0  0  0  0  3  0  0  0  0  0  0
  -27.5150  -37.2330   24.7280 C   0  0  0  0  0  1  0  0  0  0  0  0
  -26.4100  -37.4130   23.7900 N   0  0  0  0  0  0  0  0  0  0  0  0
  -25.9950  -38.3250   23.9590 H   0  0  0  0  0  0  0  0  0  0  0  0
  -26.4400  -31.7310   25.0340 C   0  0  1  0  0  0  0  0  0  0  0  0
  -25.3650  -31.4690   26.1150 C   0  0  0  0  0  1  0  0  0  0  0  0
  -27.0310  -30.3650   24.6180 C   0  0  0  0  0  1  0  0  0  0  0  0
  -27.5900  -32.5310   25.6900 C   0  0  0  0  0  1  0  0  0  0  0  0
  1  4  1  0
  2  1  1  0
  2  5  1  0
  3  1  2  0
  3 53  1  0
  5 11  1  0
  5  4  1  0
  6  2  2  0
  7  8  1  0
  9 10  2  0
  9 11  1  0
 10 12  1  0
 11  7  2  0
 12  8  2  0
 14 19  1  0
 15 16  1  0
 15 14  1  0
 17 16  1  0
 17 26  1  0
 17 18  1  0
 19 13  1  0
 19 18  1  0
 20 13  2  0
 21 22  1  0
 22 12  1  0
 22 13  1  0
 23 24  2  0
 24 25  1  0
 24 43  1  0
 25 28  1  0
 26 23  1  0
 26 27  1  0
 27 25  2  0
 28 29  1  0
 29 30  2  0
 31 34  1  0
 31 30  1  0
 32 31  2  0
 33 32  1  0
 33 28  2  0
 34 35  1  0
 35 36  1  0
 36 37  2  0
 38 37  1  0
 38 42  1  0
 39 38  2  0
 40 35  2  0
 40 39  1  0
 41 40  1  0
 43 44  1  0
 44 47  1  0
 44 46  1  0
 45 43  2  0
 48 49  1  0
 48 23  1  0
 50 48  1  0
 51 52  2  0
 52 10  1  0
 54 65  2  0
 55 53  1  0
 55 60  1  0
 56 64  1  0
 56 66  1  0
 57 63  1  0
 57 59  1  0
 58 64  1  0
 59 58  1  0
 60 59  2  0
 61 55  2  0
 62 61  1  0
 62 57  2  0
 63 56  1  0
 64 54  1  0
 66 68  2  0
 67 66  1  0
 69 67  1  0
 70 79  2  0
 70 75  1  0
 71 67  1  0
 71 75  1  0
 72 71  1  0
 73 74  1  0
 73 72  1  0
 74 70  1  0
 75 76  2  0
 76 77  1  0
 78 77  2  0
 79 78  1  0
 80 54  1  0
 80 81  1  0
 80 90  1  0
 81 84  1  0
 82 86  1  0
 82 81  1  0
 83 82  2  0
 86 85  1  0
 88 86  1  0
 88 89  1  0
 88 87  1  0
 90 93  1  1
 90 91  1  0
 92 90  1  0
M  ISO  4   3 101  13 100  22 100  53 101
M  END
>  <TORSDO>  (67) 
F 18

>  <SCORE>  (67) 
-14.399

>  <name>  (67) 
66

>  <ligand_id>  (67) 
66

>  <original_smiles>  (67) 
[H]C([H])=C([H])c1c([H])c(N2C(=O)C(=C([H])Oc3c([H])c([H])c4c(c3[H])C([H])([H])N(C(=O)C([H])(N([H])C(=O)C([H])(N([H])C([H])([H])[H])C([H])([H])[H])C(C([H])([H])[H])(C([H])([H])[H])C([H])([H])[H])C([H])(C(=O)N([H])C3([H])c5c([H])c([H])c([H])c([H])c5C([H])([H])C([H])([H])C3([H])[H])C4([H])[H])C2([H])[H])c([H])c([H])c1N(C(=O)N1C([H])([H])C([H])([H])C([H])([H])C([H])(n2nc(-c3c([H])c([H])c(Oc4c([H])c([H])c(F)c([H])c4F)c([H])c3[H])c(C(=O)N([H])[H])c2N([H])[H])C1([H])[H])C([H])([H])[H]

>  <smiles>  (67) 
[H]C([H])=C([H])c1c([H])c(N2C(=O)C(=C([H])Oc3c([H])c([H])c4c(c3[H])C([H])([H])N(C(=O)C([H])(N([H])C(=O)C([H])(N([H])C([H])([H])[H])C([H])([H])[H])C(C([H])([H])[H])(C([H])([H])[H])C([H])([H])[H])C([H])(C(=O)N([H])C3([H])c5c([H])c([H])c([H])c([H])c5C([H])([H])C([H])([H])C3([H])[H])C4([H])[H])C2([H])[H])c([H])c([H])c1N(C(=O)N1C([H])([H])C([H])([H])C([H])([H])C([H])(n2nc(-c3c([H])c([H])c(Oc4c([H])c([H])c(F)c([H])c4F)c([H])c3[H])c(C(=O)N([H])[H])c2N([H])[H])C1([H])[H])C([H])([H])[H]

$$$$
67:0:0
     RDKit          3D

 93102  0  0  1  0  0  0  0  0999 V2000
  -30.2590  -23.8130   20.5240 C   0  0  0  0  0  3  0  0  0  0  0  0
  -28.9950  -23.8230   20.1020 C   0  0  0  0  0  0  0  0  0  0  0  0
  -30.7100  -22.4360   20.6540 C   0  0  0  0  0  0  0  0  0  0  0  0
  -28.6140  -22.4060   19.9630 C   0  0  0  0  0  0  0  0  0  0  0  0
  -29.6850  -21.6220   20.2990 N   0  0  0  0  0  0  0  0  0  0  0  0
  -31.8300  -22.0700   21.0320 O   0  0  0  0  0  0  0  0  0  0  0  0
  -27.5150  -21.9780   19.5860 O   0  0  0  0  0  0  0  0  0  0  0  0
  -30.8790  -19.3910   19.8700 C   0  0  0  0  0  3  0  0  0  0  0  0
  -28.6750  -19.3370   20.8130 C   0  0  0  0  0  3  0  0  0  0  0  0
  -30.9500  -17.9600   19.9240 C   0  0  0  0  0  3  0  0  0  0  0  0
  -28.7470  -17.9130   20.8720 C   0  0  0  0  0  3  0  0  0  0  0  0
  -29.7430  -20.1360   20.3170 C   0  0  0  0  0  0  0  0  0  0  0  0
  -29.8820  -17.1760   20.4360 C   0  0  0  0  0  0  0  0  0  0  0  0
  -30.6140  -14.6920   20.0390 C   0  0  0  0  0  0  0  0  0  0  0  0
  -30.3510  -12.4820   18.9210 C   0  0  0  0  0  2  0  0  0  0  0  0
  -29.3360  -12.6440   17.7650 C   0  0  0  0  0  2  0  0  0  0  0  0
  -27.8880  -12.4780   18.2690 C   0  0  0  0  0  2  0  0  0  0  0  0
  -27.6040  -13.3030   19.5530 C   0  0  0  0  0  3  0  0  0  0  0  0
  -28.7220  -13.1020   20.6010 C   0  0  0  0  0  2  0  0  0  0  0  0
  -30.0010  -13.4660   19.9670 N   0  0  0  0  0  0  0  0  0  0  0  0
  -31.7400  -14.8720   19.5650 O   0  0  0  0  0  0  0  0  0  0  0  0
  -29.8390  -15.7110   20.5320 N   0  0  0  0  0  0  0  0  0  0  0  0
  -28.9930  -15.3570   20.9500 H   0  0  0  0  0  0  0  0  0  0  0  0
  -25.2550  -13.8930   20.4110 C   0  0  0  0  0  0  0  0  0  0  0  0
  -24.2050  -13.1150   20.8200 C   0  0  0  0  0  0  0  0  0  0  0  0
  -24.6600  -11.7630   20.7350 C   0  0  0  0  0  0  0  0  0  0  0  0
  -26.2820  -13.0150   20.1010 N   0  0  0  0  0  0  0  0  0  0  0  0
  -25.9310  -11.7280   20.3550 N   0  0  0  0  0  0  0  0  0  0  0  0
  -23.9410  -10.4990   20.9340 C   0  0  0  0  0  0  0  0  0  0  0  0
  -24.3850   -9.5360   21.8660 C   0  0  0  0  0  3  0  0  0  0  0  0
  -23.6650   -8.3370   22.0540 C   0  0  0  0  0  3  0  0  0  0  0  0
  -22.4870   -8.0910   21.3090 C   0  0  0  0  0  0  0  0  0  0  0  0
  -22.0620   -9.0430   20.3660 C   0  0  0  0  0  3  0  0  0  0  0  0
  -22.7830  -10.2340   20.1760 C   0  0  0  0  0  3  0  0  0  0  0  0
  -21.7380   -6.9440   21.4070 O   0  0  0  0  0  0  0  0  0  0  0  0
  -21.6530   -6.2370   22.5810 C   0  0  0  0  0  0  0  0  0  0  0  0
  -21.1710   -6.8230   23.7710 C   0  0  0  0  0  3  0  0  0  0  0  0
  -21.0360   -6.0420   24.9350 C   0  0  0  0  0  3  0  0  0  0  0  0
  -21.3710   -4.6750   24.9100 C   0  0  0  0  0  0  0  0  0  0  0  0
  -21.8460   -4.0880   23.7230 C   0  0  0  0  0  3  0  0  0  0  0  0
  -21.9830   -4.8670   22.5620 C   0  0  0  0  0  0  0  0  0  0  0  0
  -22.4210   -4.2920   21.4150 F   0  0  0  0  0  0  0  0  0  0  0  0
  -21.2340   -3.9220   26.0250 F   0  0  0  0  0  0  0  0  0  0  0  0
  -22.8260  -13.5900   21.1790 C   0  0  0  0  0  0  0  0  0  0  0  0
  -22.1450  -12.8800   22.0710 N   0  0  0  0  0  0  0  0  0  0  0  0
  -22.3630  -14.6260   20.7030 O   0  0  0  0  0  0  0  0  0  0  0  0
  -22.5330  -12.0420   22.4800 H   0  0  0  0  0  0  0  0  0  0  0  0
  -21.2220  -13.1800   22.3510 H   0  0  0  0  0  0  0  0  0  0  0  0
  -25.4150  -15.2680   20.2560 N   0  0  0  0  0  0  0  0  0  0  0  0
  -24.6530  -15.9190   20.4140 H   0  0  0  0  0  0  0  0  0  0  0  0
  -26.2410  -15.7130   19.8770 H   0  0  0  0  0  0  0  0  0  0  0  0
  -28.0460  -25.0200   19.7410 C   0  0  0  0  0  2  0  0  0  0  0  0
  -28.3510  -26.4440   20.0610 O   0  0  0  0  0  0  0  0  0  0  0  0
  -24.6160  -31.8090   23.1910 C   0  0  0  0  0  0  0  0  0  0  0  0
  -27.2510  -27.3320   20.0150 C   0  0  0  0  0  0  0  0  0  0  0  0
  -23.4220  -30.4480   21.5170 C   0  0  0  0  0  3  0  0  0  0  0  0
  -24.8820  -28.9520   20.0480 C   0  0  0  0  0  0  0  0  0  0  0  0
  -25.9640  -30.7790   21.3470 C   0  0  0  0  0  2  0  0  0  0  0  0
  -26.0510  -29.4200   20.6630 C   0  0  0  0  0  0  0  0  0  0  0  0
  -27.2380  -28.6210   20.6410 C   0  0  0  0  0  3  0  0  0  0  0  0
  -26.0540  -26.9420   19.3600 C   0  0  0  0  0  3  0  0  0  0  0  0
  -24.8870  -27.7200   19.3870 C   0  0  0  0  0  3  0  0  0  0  0  0
  -23.6420  -29.8180   20.1170 C   0  0  0  0  0  2  0  0  0  0  0  0
  -24.6870  -31.0270   22.0750 N   0  0  0  0  0  0  0  0  0  0  0  0
  -23.5300  -32.0650   23.7320 O   0  0  0  0  0  0  0  0  0  0  0  0
  -22.7660  -29.3980   22.4480 C   0  0  0  0  0  0  0  0  0  0  0  0
  -21.4410  -29.2140   22.3160 N   0  0  0  0  0  0  0  0  0  0  0  0
  -23.4500  -28.7570   23.2500 O   0  0  0  0  0  0  0  0  0  0  0  0
  -20.9480  -29.7850   21.6430 H   0  0  0  0  0  0  0  0  0  0  0  0
  -18.0700  -27.9960   22.8070 C   0  0  0  0  0  0  0  0  0  0  0  0
  -20.6290  -28.2530   23.0660 C   0  0  0  0  0  3  0  0  0  0  0  0
  -20.7300  -26.8380   22.4510 C   0  0  0  0  0  2  0  0  0  0  0  0
  -19.6230  -26.5400   21.4370 C   0  0  0  0  0  2  0  0  0  0  0  0
  -18.2450  -26.6670   22.0920 C   0  0  0  0  0  2  0  0  0  0  0  0
  -19.1900  -28.7470   23.2510 C   0  0  0  0  0  0  0  0  0  0  0  0
  -18.9720  -29.9930   23.8810 C   0  0  0  0  0  3  0  0  0  0  0  0
  -17.6670  -30.4860   24.0690 C   0  0  0  0  0  3  0  0  0  0  0  0
  -16.5620  -29.7310   23.6400 C   0  0  0  0  0  3  0  0  0  0  0  0
  -16.7640  -28.4880   23.0150 C   0  0  0  0  0  3  0  0  0  0  0  0
  -25.8960  -32.4350   23.8260 C   0  0  0  0  0  3  0  0  0  0  0  0
  -25.5810  -33.8270   24.1790 N   0  0  0  0  0  0  0  0  0  0  0  0
  -25.8870  -34.8910   23.4260 C   0  0  0  0  0  0  0  0  0  0  0  0
  -26.5380  -34.8060   22.3810 O   0  0  0  0  0  0  0  0  0  0  0  0
  -25.0050  -33.9670   24.9970 H   0  0  0  0  0  0  0  0  0  0  0  0
  -24.1270  -36.6630   23.1370 C   0  0  0  0  0  1  0  0  0  0  0  0
  -25.3960  -36.2700   23.9080 C   0  0  0  0  0  3  0  0  0  0  0  0
  -27.5420  -37.1770   24.6860 C   0  0  0  0  0  1  0  0  0  0  0  0
  -26.4120  -37.3370   23.7740 N   0  0  0  0  0  0  0  0  0  0  0  0
  -25.9970  -38.2500   23.9410 H   0  0  0  0  0  0  0  0  0  0  0  0
  -26.4090  -31.6440   25.0900 C   0  0  1  0  0  0  0  0  0  0  0  0
  -25.3120  -31.3840   26.1500 C   0  0  0  0  0  1  0  0  0  0  0  0
  -26.9990  -30.2750   24.6790 C   0  0  0  0  0  1  0  0  0  0  0  0
  -27.5560  -32.4290   25.7690 C   0  0  0  0  0  1  0  0  0  0  0  0
  1  3  1  0
  2  1  2  0
  3  6  2  0
  4  2  1  0
  4  5  1  0
  5 12  1  0
  5  3  1  0
  7  4  2  0
  8 10  2  0
  8 12  1  0
  9 11  1  0
 10 13  1  0
 12  9  2  0
 13 22  1  0
 13 11  2  0
 14 22  1  0
 15 20  1  0
 16 17  1  0
 16 15  1  0
 18 17  1  0
 18 27  1  0
 18 19  1  0
 20 14  1  0
 20 19  1  0
 21 14  2  0
 22 23  1  0
 24 25  2  0
 25 44  1  0
 26 25  1  0
 26 29  1  0
 27 28  1  0
 27 24  1  0
 28 26  2  0
 29 30  1  0
 30 31  2  0
 32 35  1  0
 32 31  1  0
 33 32  2  0
 34 33  1  0
 34 29  2  0
 35 36  1  0
 36 37  1  0
 37 38  2  0
 39 38  1  0
 39 43  1  0
 40 39  2  0
 41 36  2  0
 41 40  1  0
 42 41  1  0
 44 45  1  0
 45 48  1  0
 45 47  1  0
 46 44  2  0
 49 24  1  0
 49 50  1  0
 51 49  1  0
 52 53  1  0
 52  2  1  0
 54 65  2  0
 55 53  1  0
 55 60  1  0
 56 64  1  0
 56 66  1  0
 57 63  1  0
 57 59  1  0
 58 64  1  0
 59 58  1  0
 60 59  2  0
 61 62  1  0
 61 55  2  0
 62 57  2  0
 63 56  1  0
 64 54  1  0
 66 68  2  0
 67 66  1  0
 69 67  1  0
 70 79  2  0
 70 75  1  0
 71 67  1  0
 71 75  1  0
 72 71  1  0
 73 74  1  0
 73 72  1  0
 74 70  1  0
 75 76  2  0
 76 77  1  0
 78 77  2  0
 79 78  1  0
 80 54  1  0
 80 81  1  0
 80 90  1  0
 81 84  1  0
 82 86  1  0
 82 81  1  0
 83 82  2  0
 86 85  1  0
 88 86  1  0
 88 89  1  0
 88 87  1  0
 90 93  1  1
 90 91  1  0
 92 90  1  0
M  ISO  4  14 100  22 100  52 101  53 101
M  END
>  <TORSDO>  (68) 
F 18

>  <SCORE>  (68) 
-14.456

>  <name>  (68) 
67

>  <ligand_id>  (68) 
67

>  <original_smiles>  (68) 
[H]C1=C(C([H])([H])Oc2c([H])c([H])c3c(c2[H])C([H])([H])N(C(=O)C([H])(N([H])C(=O)C([H])(N([H])C([H])([H])[H])C([H])([H])[H])C(C([H])([H])[H])(C([H])([H])[H])C([H])([H])[H])C([H])(C(=O)N([H])C2([H])c4c([H])c([H])c([H])c([H])c4C([H])([H])C([H])([H])C2([H])[H])C3([H])[H])C(=O)N(c2c([H])c([H])c(N([H])C(=O)N3C([H])([H])C([H])([H])C([H])([H])C([H])(n4nc(-c5c([H])c([H])c(Oc6c([H])c([H])c(F)c([H])c6F)c([H])c5[H])c(C(=O)N([H])[H])c4N([H])[H])C3([H])[H])c([H])c2[H])C1=O

>  <smiles>  (68) 
[H]C1=C(C([H])([H])Oc2c([H])c([H])c3c(c2[H])C([H])([H])N(C(=O)C([H])(N([H])C(=O)C([H])(N([H])C([H])([H])[H])C([H])([H])[H])C(C([H])([H])[H])(C([H])([H])[H])C([H])([H])[H])C([H])(C(=O)N([H])C2([H])c4c([H])c([H])c([H])c([H])c4C([H])([H])C([H])([H])C2([H])[H])C3([H])[H])C(=O)N(c2c([H])c([H])c(N([H])C(=O)N3C([H])([H])C([H])([H])C([H])([H])C([H])(n4nc(-c5c([H])c([H])c(Oc6c([H])c([H])c(F)c([H])c6F)c([H])c5[H])c(C(=O)N([H])[H])c4N([H])[H])C3([H])[H])c([H])c2[H])C1=O

$$$$
68:0:0
     RDKit          3D

 95103  0  0  1  0  0  0  0  0999 V2000
  -31.0460  -20.3410   20.1480 C   0  0  0  0  0  3  0  0  0  0  0  0
  -31.5520  -17.9430   20.2810 C   0  0  0  0  0  3  0  0  0  0  0  0
  -29.2530  -18.7120   20.3790 C   0  0  0  0  0  3  0  0  0  0  0  0
  -31.9890  -19.2880   20.1940 C   0  0  0  0  0  0  0  0  0  0  0  0
  -29.6590  -20.1230   20.2660 C   0  0  0  0  0  0  0  0  0  0  0  0
  -30.1870  -17.5720   20.3580 C   0  0  0  0  0  0  0  0  0  0  0  0
  -30.5890  -14.9250   20.2920 C   0  0  0  0  0  0  0  0  0  0  0  0
  -30.3940  -12.6220   19.3220 C   0  0  0  0  0  2  0  0  0  0  0  0
  -29.4400  -12.6490   18.1070 C   0  0  0  0  0  2  0  0  0  0  0  0
  -27.9830  -12.4520   18.5640 C   0  0  0  0  0  2  0  0  0  0  0  0
  -27.6090  -13.3540   19.7720 C   0  0  0  0  0  3  0  0  0  0  0  0
  -28.6860  -13.3240   20.8770 C   0  0  0  0  0  2  0  0  0  0  0  0
  -29.9570  -13.6960   20.2500 N   0  0  0  0  0  0  0  0  0  0  0  0
  -31.7820  -14.9600   19.9830 O   0  0  0  0  0  0  0  0  0  0  0  0
  -29.8320  -16.1030   20.4570 N   0  0  0  0  0  0  0  0  0  0  0  0
  -28.8550  -15.9160   20.6190 H   0  0  0  0  0  0  0  0  0  0  0  0
  -25.2360  -13.9180   20.5550 C   0  0  0  0  0  0  0  0  0  0  0  0
  -24.1820  -13.1310   20.9330 C   0  0  0  0  0  0  0  0  0  0  0  0
  -24.6540  -11.7830   20.8760 C   0  0  0  0  0  0  0  0  0  0  0  0
  -26.2810  -13.0480   20.2890 N   0  0  0  0  0  0  0  0  0  0  0  0
  -25.9400  -11.7600   20.5470 N   0  0  0  0  0  0  0  0  0  0  0  0
  -23.9390  -10.5140   21.0580 C   0  0  0  0  0  0  0  0  0  0  0  0
  -24.3770   -9.5430   21.9860 C   0  0  0  0  0  3  0  0  0  0  0  0
  -23.6590   -8.3400   22.1570 C   0  0  0  0  0  3  0  0  0  0  0  0
  -22.4880   -8.0980   21.4010 C   0  0  0  0  0  0  0  0  0  0  0  0
  -22.0680   -9.0580   20.4620 C   0  0  0  0  0  3  0  0  0  0  0  0
  -22.7870  -10.2520   20.2900 C   0  0  0  0  0  3  0  0  0  0  0  0
  -21.7410   -6.9480   21.4820 O   0  0  0  0  0  0  0  0  0  0  0  0
  -21.6760   -6.2120   22.6380 C   0  0  0  0  0  0  0  0  0  0  0  0
  -21.1880   -6.7600   23.8430 C   0  0  0  0  0  3  0  0  0  0  0  0
  -21.0740   -5.9480   24.9900 C   0  0  0  0  0  3  0  0  0  0  0  0
  -21.4380   -4.5900   24.9320 C   0  0  0  0  0  0  0  0  0  0  0  0
  -21.9190   -4.0400   23.7300 C   0  0  0  0  0  3  0  0  0  0  0  0
  -22.0350   -4.8490   22.5850 C   0  0  0  0  0  0  0  0  0  0  0  0
  -22.4790   -4.3090   21.4250 F   0  0  0  0  0  0  0  0  0  0  0  0
  -21.3210   -3.8080   26.0300 F   0  0  0  0  0  0  0  0  0  0  0  0
  -22.7870  -13.5960   21.2310 C   0  0  0  0  0  0  0  0  0  0  0  0
  -22.0760  -12.8850   22.0970 N   0  0  0  0  0  0  0  0  0  0  0  0
  -22.3380  -14.6260   20.7310 O   0  0  0  0  0  0  0  0  0  0  0  0
  -22.4520  -12.0500   22.5220 H   0  0  0  0  0  0  0  0  0  0  0  0
  -21.1410  -13.1790   22.3410 H   0  0  0  0  0  0  0  0  0  0  0  0
  -25.3880  -15.2910   20.3920 N   0  0  0  0  0  0  0  0  0  0  0  0
  -24.6140  -15.9340   20.5160 H   0  0  0  0  0  0  0  0  0  0  0  0
  -26.2120  -15.7390   20.0120 H   0  0  0  0  0  0  0  0  0  0  0  0
  -28.8660  -22.5650   19.7090 C   0  0  0  0  0  0  0  0  0  0  0  0
  -28.8310  -21.3670   20.4320 N   0  0  0  0  0  0  0  0  0  0  0  0
  -29.1740  -22.5230   18.5140 O   0  0  0  0  0  0  0  0  0  0  0  0
  -28.3280  -21.4230   21.3060 H   0  0  0  0  0  0  0  0  0  0  0  0
  -28.5500  -23.8890   20.3900 C   0  0  0  0  0  3  0  0  0  0  0  0
  -28.2870  -25.1030   19.7410 C   0  0  0  0  0  3  0  0  0  0  0  0
  -28.2320  -26.4300   20.2890 O   0  0  0  0  0  0  0  0  0  0  0  0
  -24.6070  -31.9540   23.2830 C   0  0  0  0  0  0  0  0  0  0  0  0
  -27.1430  -27.3310   20.1800 C   0  0  0  0  0  0  0  0  0  0  0  0
  -23.3810  -30.5740   21.6460 C   0  0  0  0  0  3  0  0  0  0  0  0
  -24.8050  -29.0120   20.1890 C   0  0  0  0  0  0  0  0  0  0  0  0
  -25.9250  -30.8550   21.4440 C   0  0  0  0  0  2  0  0  0  0  0  0
  -25.9830  -29.4750   20.7860 C   0  0  0  0  0  0  0  0  0  0  0  0
  -27.1510  -28.6460   20.7710 C   0  0  0  0  0  3  0  0  0  0  0  0
  -25.9430  -26.9370   19.5520 C   0  0  0  0  0  3  0  0  0  0  0  0
  -24.7910  -27.7570   19.5600 C   0  0  0  0  0  3  0  0  0  0  0  0
  -23.5770  -29.9030   20.2590 C   0  0  0  0  0  2  0  0  0  0  0  0
  -24.6590  -31.1490   22.1800 N   0  0  0  0  0  0  0  0  0  0  0  0
  -23.5310  -32.2370   23.8290 O   0  0  0  0  0  0  0  0  0  0  0  0
  -22.7140  -29.5620   22.6090 C   0  0  0  0  0  0  0  0  0  0  0  0
  -21.3910  -29.3670   22.4690 N   0  0  0  0  0  0  0  0  0  0  0  0
  -23.3900  -28.9550   23.4450 O   0  0  0  0  0  0  0  0  0  0  0  0
  -20.9050  -29.9100   21.7700 H   0  0  0  0  0  0  0  0  0  0  0  0
  -18.0300  -28.0980   22.9120 C   0  0  0  0  0  0  0  0  0  0  0  0
  -20.5750  -28.4260   23.2380 C   0  0  0  0  0  3  0  0  0  0  0  0
  -20.7250  -26.9850   22.6950 C   0  0  0  0  0  2  0  0  0  0  0  0
  -19.6560  -26.6170   21.6630 C   0  0  0  0  0  2  0  0  0  0  0  0
  -18.2560  -26.7410   22.2680 C   0  0  0  0  0  2  0  0  0  0  0  0
  -19.1200  -28.8970   23.3530 C   0  0  0  0  0  0  0  0  0  0  0  0
  -18.8550  -30.1630   23.9170 C   0  0  0  0  0  3  0  0  0  0  0  0
  -17.5350  -30.6360   24.0410 C   0  0  0  0  0  3  0  0  0  0  0  0
  -16.4600  -29.8350   23.6170 C   0  0  0  0  0  3  0  0  0  0  0  0
  -16.7090  -28.5680   23.0590 C   0  0  0  0  0  3  0  0  0  0  0  0
  -25.8970  -32.5790   23.8980 C   0  0  0  0  0  3  0  0  0  0  0  0
  -26.4100  -31.8100   25.1770 C   0  0  1  0  0  0  0  0  0  0  0  0
  -25.3180  -31.5870   26.2500 C   0  0  0  0  0  1  0  0  0  0  0  0
  -26.9790  -30.4240   24.7920 C   0  0  0  0  0  1  0  0  0  0  0  0
  -27.5700  -32.5960   25.8330 C   0  0  0  0  0  1  0  0  0  0  0  0
  -25.6030  -33.9820   24.2260 N   0  0  0  0  0  0  0  0  0  0  0  0
  -25.9220  -35.0310   23.4550 C   0  0  0  0  0  0  0  0  0  0  0  0
  -26.5630  -34.9180   22.4070 O   0  0  0  0  0  0  0  0  0  0  0  0
  -25.0330  -34.1430   25.0440 H   0  0  0  0  0  0  0  0  0  0  0  0
  -24.1900  -36.8300   23.1490 C   0  0  0  0  0  1  0  0  0  0  0  0
  -25.4580  -36.4260   23.9190 C   0  0  0  0  0  3  0  0  0  0  0  0
  -27.6200  -37.3120   24.6760 C   0  0  0  0  0  1  0  0  0  0  0  0
  -26.4910  -37.4730   23.7630 N   0  0  0  0  0  0  0  0  0  0  0  0
  -26.0930  -38.3970   23.9110 H   0  0  0  0  0  0  0  0  0  0  0  0
  -33.4430  -19.6440   20.2080 C   0  0  0  0  0  0  0  0  0  0  0  0
  -33.8140  -20.7830   20.5080 O   0  0  0  0  0  0  0  0  0  0  0  0
  -35.7090  -18.6790   20.2750 C   0  0  0  0  0  2  0  0  0  0  0  0
  -34.4300  -18.6010   19.8630 C   0  0  0  0  0  3  0  0  0  0  0  0
  1  4  2  0
  1  5  1  0
  2  6  2  0
  4 92  1  0
  4  2  1  0
  5  3  2  0
  5 46  1  0
  6  3  1  0
  6 15  1  0
  7 15  1  0
  8 13  1  0
  9 10  1  0
  9  8  1  0
 11 10  1  0
 11 20  1  0
 11 12  1  0
 13  7  1  0
 13 12  1  0
 14  7  2  0
 15 16  1  0
 17 18  2  0
 18 37  1  0
 19 18  1  0
 19 22  1  0
 20 21  1  0
 20 17  1  0
 21 19  2  0
 22 23  1  0
 23 24  2  0
 25 28  1  0
 25 24  1  0
 26 25  2  0
 27 26  1  0
 27 22  2  0
 28 29  1  0
 29 30  1  0
 30 31  2  0
 32 31  1  0
 32 36  1  0
 33 32  2  0
 34 29  2  0
 34 33  1  0
 35 34  1  0
 37 38  1  0
 38 41  1  0
 38 40  1  0
 39 37  2  0
 42 43  1  0
 42 17  1  0
 44 42  1  0
 45 49  1  0
 45 46  1  0
 46 48  1  0
 47 45  2  0
 50 51  1  0
 50 49  2  0
 52 63  2  0
 53 51  1  0
 53 58  1  0
 54 62  1  0
 54 64  1  0
 55 61  1  0
 55 57  1  0
 56 62  1  0
 57 56  1  0
 58 57  2  0
 59 60  1  0
 59 53  2  0
 60 55  2  0
 61 54  1  0
 62 52  1  0
 64 66  2  0
 65 64  1  0
 67 65  1  0
 68 77  2  0
 68 73  1  0
 69 65  1  0
 69 73  1  0
 70 69  1  0
 71 72  1  0
 71 70  1  0
 72 68  1  0
 73 74  2  0
 74 75  1  0
 76 75  2  0
 77 76  1  0
 78 52  1  0
 78 83  1  0
 78 79  1  0
 79 82  1  1
 79 80  1  0
 81 79  1  0
 83 86  1  0
 84 88  1  0
 84 83  1  0
 85 84  2  0
 88 87  1  0
 90 91  1  0
 90 88  1  0
 90 89  1  0
 92 93  2  0
 95 92  1  0
 95 94  2  0
M  ISO  4   7 100  15 100  50 101  51 101
M  END
>  <TORSDO>  (69) 
F 20

>  <SCORE>  (69) 
-14.018

>  <name>  (69) 
68

>  <ligand_id>  (69) 
68

>  <original_smiles>  (69) 
[H]C([H])=C([H])C(=O)c1c([H])c(N([H])C(=O)C([H])=C([H])Oc2c([H])c([H])c3c(c2[H])C([H])([H])N(C(=O)C([H])(N([H])C(=O)C([H])(N([H])C([H])([H])[H])C([H])([H])[H])C(C([H])([H])[H])(C([H])([H])[H])C([H])([H])[H])C([H])(C(=O)N([H])C2([H])c4c([H])c([H])c([H])c([H])c4C([H])([H])C([H])([H])C2([H])[H])C3([H])[H])c([H])c(N([H])C(=O)N2C([H])([H])C([H])([H])C([H])([H])C([H])(n3nc(-c4c([H])c([H])c(Oc5c([H])c([H])c(F)c([H])c5F)c([H])c4[H])c(C(=O)N([H])[H])c3N([H])[H])C2([H])[H])c1[H]

>  <smiles>  (69) 
[H]C([H])=C([H])C(=O)c1c([H])c(N([H])C(=O)C([H])=C([H])Oc2c([H])c([H])c3c(c2[H])C([H])([H])N(C(=O)C([H])(N([H])C(=O)C([H])(N([H])C([H])([H])[H])C([H])([H])[H])C(C([H])([H])[H])(C([H])([H])[H])C([H])([H])[H])C([H])(C(=O)N([H])C2([H])c4c([H])c([H])c([H])c([H])c4C([H])([H])C([H])([H])C2([H])[H])C3([H])[H])c([H])c(N([H])C(=O)N2C([H])([H])C([H])([H])C([H])([H])C([H])(n3nc(-c4c([H])c([H])c(Oc5c([H])c([H])c(F)c([H])c5F)c([H])c4[H])c(C(=O)N([H])[H])c3N([H])[H])C2([H])[H])c1[H]

$$$$
69:0:0
     RDKit          3D

 90 98  0  0  1  0  0  0  0  0999 V2000
  -28.6970  -22.3250   19.7390 C   0  0  0  0  0  0  0  0  0  0  0  0
  -29.1260  -21.1370   20.3910 N   0  0  0  0  0  0  0  0  0  0  0  0
  -28.3610  -22.2520   18.5550 O   0  0  0  0  0  0  0  0  0  0  0  0
  -29.2730  -21.2060   21.3860 H   0  0  0  0  0  0  0  0  0  0  0  0
  -30.4910  -18.5060   18.0010 C   0  0  0  0  0  3  0  0  0  0  0  0
  -30.4550  -17.3800   18.7310 C   0  0  0  0  0  3  0  0  0  0  0  0
  -30.0400  -19.7670   18.5300 C   0  0  0  0  0  3  0  0  0  0  0  0
  -29.5410  -19.8410   19.7760 C   0  0  0  0  0  3  0  0  0  0  0  0
  -29.9290  -17.3020   20.1290 C   0  0  0  0  0  0  0  0  0  0  0  0
  -29.8690  -16.1460   20.8260 N   0  0  0  0  0  2  0  0  0  0  0  0
  -29.4770  -18.6290   20.5830 O   0  0  0  0  0  0  0  0  0  0  0  0
  -30.5930  -14.9200   20.4780 C   0  0  0  0  0  0  0  0  0  0  0  0
  -30.4270  -12.5860   19.5340 C   0  0  0  0  0  2  0  0  0  0  0  0
  -29.5340  -12.5910   18.2760 C   0  0  0  0  0  2  0  0  0  0  0  0
  -28.0580  -12.4020   18.6710 C   0  0  0  0  0  2  0  0  0  0  0  0
  -27.6320  -13.3220   19.8440 C   0  0  0  0  0  3  0  0  0  0  0  0
  -28.6570  -13.3110   20.9960 C   0  0  0  0  0  2  0  0  0  0  0  0
  -29.9600  -13.6810   20.4310 N   0  0  0  0  0  0  0  0  0  0  0  0
  -31.7710  -14.9420   20.1140 O   0  0  0  0  0  0  0  0  0  0  0  0
  -25.2230  -13.9020   20.4910 C   0  0  0  0  0  0  0  0  0  0  0  0
  -24.1510  -13.1260   20.8350 C   0  0  0  0  0  0  0  0  0  0  0  0
  -24.6200  -11.7770   20.8430 C   0  0  0  0  0  0  0  0  0  0  0  0
  -26.2790  -13.0240   20.3030 N   0  0  0  0  0  0  0  0  0  0  0  0
  -25.9210  -11.7430   20.5820 N   0  0  0  0  0  0  0  0  0  0  0  0
  -23.8930  -10.5120   21.0320 C   0  0  0  0  0  0  0  0  0  0  0  0
  -24.2980   -9.5580   21.9910 C   0  0  0  0  0  3  0  0  0  0  0  0
  -23.5660   -8.3640   22.1650 C   0  0  0  0  0  3  0  0  0  0  0  0
  -22.4170   -8.1120   21.3810 C   0  0  0  0  0  0  0  0  0  0  0  0
  -22.0290   -9.0540   20.4130 C   0  0  0  0  0  3  0  0  0  0  0  0
  -22.7620  -10.2410   20.2360 C   0  0  0  0  0  3  0  0  0  0  0  0
  -21.6640   -6.9660   21.4620 O   0  0  0  0  0  0  0  0  0  0  0  0
  -21.5890   -6.2330   22.6200 C   0  0  0  0  0  0  0  0  0  0  0  0
  -21.1370   -6.8000   23.8310 C   0  0  0  0  0  3  0  0  0  0  0  0
  -21.0080   -5.9960   24.9790 C   0  0  0  0  0  3  0  0  0  0  0  0
  -21.3240   -4.6240   24.9200 C   0  0  0  0  0  0  0  0  0  0  0  0
  -21.7720   -4.0570   23.7140 C   0  0  0  0  0  3  0  0  0  0  0  0
  -21.9000   -4.8590   22.5660 C   0  0  0  0  0  0  0  0  0  0  0  0
  -22.3110   -4.3020   21.4020 F   0  0  0  0  0  0  0  0  0  0  0  0
  -21.1940   -3.8500   26.0230 F   0  0  0  0  0  0  0  0  0  0  0  0
  -22.7430  -13.6000   21.0480 C   0  0  0  0  0  0  0  0  0  0  0  0
  -21.9850  -12.9160   21.8980 N   0  0  0  0  0  0  0  0  0  0  0  0
  -22.3230  -14.6150   20.4950 O   0  0  0  0  0  0  0  0  0  0  0  0
  -22.3290  -12.0910   22.3680 H   0  0  0  0  0  0  0  0  0  0  0  0
  -21.0410  -13.2230   22.0780 H   0  0  0  0  0  0  0  0  0  0  0  0
  -25.3870  -15.2720   20.3000 N   0  0  0  0  0  0  0  0  0  0  0  0
  -24.6190  -15.9260   20.3860 H   0  0  0  0  0  0  0  0  0  0  0  0
  -26.2680  -15.7200   20.0740 H   0  0  0  0  0  0  0  0  0  0  0  0
  -28.6540  -23.6970   20.4320 C   0  0  0  0  0  3  0  0  0  0  0  0
  -28.2550  -24.9060   19.8170 C   0  0  0  0  0  3  0  0  0  0  0  0
  -28.2730  -26.2790   20.2890 O   0  0  0  0  0  0  0  0  0  0  0  0
  -24.6150  -31.8760   23.2210 C   0  0  0  0  0  0  0  0  0  0  0  0
  -27.1970  -27.2160   20.1690 C   0  0  0  0  0  0  0  0  0  0  0  0
  -23.4050  -30.4780   21.5850 C   0  0  0  0  0  3  0  0  0  0  0  0
  -24.8490  -28.9200   20.1390 C   0  0  0  0  0  0  0  0  0  0  0  0
  -25.9540  -30.7650   21.4030 C   0  0  0  0  0  2  0  0  0  0  0  0
  -26.0250  -29.3810   20.7460 C   0  0  0  0  0  0  0  0  0  0  0  0
  -27.1950  -28.5410   20.7500 C   0  0  0  0  0  3  0  0  0  0  0  0
  -25.9970  -26.8370   19.5320 C   0  0  0  0  0  3  0  0  0  0  0  0
  -24.8460  -27.6590   19.5170 C   0  0  0  0  0  3  0  0  0  0  0  0
  -23.6150  -29.8060   20.2020 C   0  0  0  0  0  2  0  0  0  0  0  0
  -24.6770  -31.0610   22.1230 N   0  0  0  0  0  0  0  0  0  0  0  0
  -23.5320  -32.1550   23.7590 O   0  0  0  0  0  0  0  0  0  0  0  0
  -22.7430  -29.4650   22.5520 C   0  0  0  0  0  0  0  0  0  0  0  0
  -21.4140  -29.2930   22.4340 N   0  0  0  0  0  0  0  0  0  0  0  0
  -23.4230  -28.8420   23.3690 O   0  0  0  0  0  0  0  0  0  0  0  0
  -20.9250  -29.8500   21.7480 H   0  0  0  0  0  0  0  0  0  0  0  0
  -18.0420  -28.0730   22.9390 C   0  0  0  0  0  0  0  0  0  0  0  0
  -20.6000  -28.3530   23.2070 C   0  0  0  0  0  3  0  0  0  0  0  0
  -20.7100  -26.9180   22.6370 C   0  0  0  0  0  2  0  0  0  0  0  0
  -19.6090  -26.5910   21.6210 C   0  0  0  0  0  2  0  0  0  0  0  0
  -18.2260  -26.7270   22.2620 C   0  0  0  0  0  2  0  0  0  0  0  0
  -19.1560  -28.8460   23.3660 C   0  0  0  0  0  0  0  0  0  0  0  0
  -18.9250  -30.1060   23.9580 C   0  0  0  0  0  3  0  0  0  0  0  0
  -17.6160  -30.5950   24.1250 C   0  0  0  0  0  3  0  0  0  0  0  0
  -16.5170  -29.8220   23.7100 C   0  0  0  0  0  3  0  0  0  0  0  0
  -16.7320  -28.5620   23.1280 C   0  0  0  0  0  3  0  0  0  0  0  0
  -25.8970  -32.5130   23.8400 C   0  0  0  0  0  3  0  0  0  0  0  0
  -26.4150  -31.7450   25.1200 C   0  0  1  0  0  0  0  0  0  0  0  0
  -25.3290  -31.5140   26.1940 C   0  0  0  0  0  1  0  0  0  0  0  0
  -26.9960  -30.3650   24.7380 C   0  0  0  0  0  1  0  0  0  0  0  0
  -27.5690  -32.5430   25.7750 C   0  0  0  0  0  1  0  0  0  0  0  0
  -25.5860  -33.9110   24.1740 N   0  0  0  0  0  0  0  0  0  0  0  0
  -25.9160  -34.9690   23.4230 C   0  0  0  0  0  0  0  0  0  0  0  0
  -26.5840  -34.8720   22.3890 O   0  0  0  0  0  0  0  0  0  0  0  0
  -24.9940  -34.0630   24.9770 H   0  0  0  0  0  0  0  0  0  0  0  0
  -24.1940  -36.7730   23.0850 C   0  0  0  0  0  1  0  0  0  0  0  0
  -25.4340  -36.3570   23.8910 C   0  0  0  0  0  3  0  0  0  0  0  0
  -27.5710  -37.2370   24.7290 C   0  0  0  0  0  1  0  0  0  0  0  0
  -26.4700  -37.4080   23.7830 N   0  0  0  0  0  0  0  0  0  0  0  0
  -26.0660  -38.3300   23.9280 H   0  0  0  0  0  0  0  0  0  0  0  0
  1  2  1  0
  1 48  1  0
  2  4  1  0
  3  1  2  0
  5  7  2  0
  5  6  1  0
  6  9  2  0
  7  8  1  0
  8  2  1  0
  8 11  1  0
  9 11  1  0
  9 10  1  0
 12 10  1  0
 13 18  1  0
 14 15  1  0
 14 13  1  0
 16 15  1  0
 16 23  1  0
 16 17  1  0
 18 12  1  0
 18 17  1  0
 19 12  2  0
 20 21  2  0
 21 22  1  0
 21 40  1  0
 22 25  1  0
 23 20  1  0
 23 24  1  0
 24 22  2  0
 25 26  1  0
 26 27  2  0
 28 31  1  0
 28 27  1  0
 29 28  2  0
 30 29  1  0
 30 25  2  0
 31 32  1  0
 32 33  1  0
 33 34  2  0
 35 34  1  0
 35 39  1  0
 36 35  2  0
 37 32  2  0
 37 36  1  0
 38 37  1  0
 40 41  1  0
 41 44  1  0
 41 43  1  0
 42 40  2  0
 45 46  1  0
 45 20  1  0
 47 45  1  0
 49 50  1  0
 49 48  2  0
 51 62  2  0
 52 50  1  0
 52 57  1  0
 53 61  1  0
 53 63  1  0
 54 60  1  0
 54 56  1  0
 55 61  1  0
 56 57  2  0
 56 55  1  0
 58 52  2  0
 59 58  1  0
 59 54  2  0
 60 53  1  0
 61 51  1  0
 63 65  2  0
 64 63  1  0
 66 64  1  0
 67 76  2  0
 67 72  1  0
 68 64  1  0
 68 72  1  0
 69 68  1  0
 70 71  1  0
 70 69  1  0
 71 67  1  0
 72 73  2  0
 73 74  1  0
 75 74  2  0
 76 75  1  0
 77 51  1  0
 77 82  1  0
 77 78  1  0
 78 81  1  1
 78 79  1  0
 80 78  1  0
 82 85  1  0
 83 87  1  0
 83 82  1  0
 84 83  2  0
 87 86  1  0
 89 87  1  0
 89 90  1  0
 89 88  1  0
M  ISO  4  10 100  12 100  49 101  50 101
M  END
>  <TORSDO>  (70) 
F 18

>  <SCORE>  (70) 
-14.577

>  <name>  (70) 
69

>  <ligand_id>  (70) 
69

>  <original_smiles>  (70) 
[H]C(Oc1c([H])c([H])c2c(c1[H])C([H])([H])N(C(=O)C([H])(N([H])C(=O)C([H])(N([H])C([H])([H])[H])C([H])([H])[H])C(C([H])([H])[H])(C([H])([H])[H])C([H])([H])[H])C([H])(C(=O)N([H])C1([H])c3c([H])c([H])c([H])c([H])c3C([H])([H])C([H])([H])C1([H])[H])C2([H])[H])=C([H])C(=O)N([H])c1oc(=NC(=O)N2C([H])([H])C([H])([H])C([H])([H])C([H])(n3nc(-c4c([H])c([H])c(Oc5c([H])c([H])c(F)c([H])c5F)c([H])c4[H])c(C(=O)N([H])[H])c3N([H])[H])C2([H])[H])c([H])c([H])c1[H]

>  <smiles>  (70) 
[H]C(Oc1c([H])c([H])c2c(c1[H])C([H])([H])N(C(=O)C([H])(N([H])C(=O)C([H])(N([H])C([H])([H])[H])C([H])([H])[H])C(C([H])([H])[H])(C([H])([H])[H])C([H])([H])[H])C([H])(C(=O)N([H])C1([H])c3c([H])c([H])c([H])c([H])c3C([H])([H])C([H])([H])C1([H])[H])C2([H])[H])=C([H])C(=O)N([H])c1oc(=NC(=O)N2C([H])([H])C([H])([H])C([H])([H])C([H])(n3nc(-c4c([H])c([H])c(Oc5c([H])c([H])c(F)c([H])c5F)c([H])c4[H])c(C(=O)N([H])[H])c3N([H])[H])C2([H])[H])c([H])c([H])c1[H]

$$$$
70:0:0
     RDKit          3D

 92101  0  0  1  0  0  0  0  0999 V2000
  -28.5160  -23.6150   20.6530 C   0  0  0  0  0  0  0  0  0  0  0  0
  -28.1950  -22.2990   21.2670 C   0  0  0  0  0  0  0  0  0  0  0  0
  -27.8930  -24.8960   20.7900 C   0  0  0  0  0  0  0  0  0  0  0  0
  -29.7330  -22.8790   19.9920 C   0  0  0  0  0  2  0  0  0  0  0  0
  -26.6390  -25.0030   21.6810 C   0  0  0  0  0  1  0  0  0  0  0  0
  -29.1350  -21.5800   20.4790 N   0  0  0  0  0  0  0  0  0  0  0  0
  -27.5050  -22.0120   22.2240 O   0  0  0  0  0  0  0  0  0  0  0  0
  -32.1540  -19.2390   20.8440 C   0  0  0  0  0  3  0  0  0  0  0  0
  -31.2900  -20.3490   20.7700 C   0  0  0  0  0  3  0  0  0  0  0  0
  -31.6980  -17.9150   20.7170 C   0  0  0  0  0  3  0  0  0  0  0  0
  -29.4560  -18.8320   20.5480 C   0  0  0  0  0  3  0  0  0  0  0  0
  -29.8880  -20.2570   20.5860 C   0  0  0  0  0  0  0  0  0  0  0  0
  -30.3240  -17.6230   20.5660 C   0  0  0  0  0  0  0  0  0  0  0  0
  -30.6270  -14.9630   20.1980 C   0  0  0  0  0  0  0  0  0  0  0  0
  -30.4060  -12.6490   19.1960 C   0  0  0  0  0  2  0  0  0  0  0  0
  -29.4410  -12.6480   17.9890 C   0  0  0  0  0  2  0  0  0  0  0  0
  -27.9920  -12.4380   18.4630 C   0  0  0  0  0  2  0  0  0  0  0  0
  -27.6260  -13.3550   19.6590 C   0  0  0  0  0  3  0  0  0  0  0  0
  -28.7120  -13.3470   20.7590 C   0  0  0  0  0  2  0  0  0  0  0  0
  -29.9770  -13.7330   20.1260 N   0  0  0  0  0  0  0  0  0  0  0  0
  -31.8000  -15.0040   19.8200 O   0  0  0  0  0  0  0  0  0  0  0  0
  -29.9080  -16.1560   20.4850 N   0  0  0  0  0  0  0  0  0  0  0  0
  -28.9270  -15.9880   20.6510 H   0  0  0  0  0  0  0  0  0  0  0  0
  -25.2710  -13.9360   20.4770 C   0  0  0  0  0  0  0  0  0  0  0  0
  -24.2150  -13.1600   20.8670 C   0  0  0  0  0  0  0  0  0  0  0  0
  -24.6710  -11.8070   20.7960 C   0  0  0  0  0  0  0  0  0  0  0  0
  -26.3000  -13.0560   20.1900 N   0  0  0  0  0  0  0  0  0  0  0  0
  -25.9510  -11.7700   20.4470 N   0  0  0  0  0  0  0  0  0  0  0  0
  -23.9450  -10.5440   20.9850 C   0  0  0  0  0  0  0  0  0  0  0  0
  -24.3710   -9.5770   21.9210 C   0  0  0  0  0  3  0  0  0  0  0  0
  -23.6430   -8.3800   22.0990 C   0  0  0  0  0  3  0  0  0  0  0  0
  -22.4700   -8.1440   21.3430 C   0  0  0  0  0  0  0  0  0  0  0  0
  -22.0610   -9.0990   20.3960 C   0  0  0  0  0  3  0  0  0  0  0  0
  -22.7910  -10.2870   20.2160 C   0  0  0  0  0  3  0  0  0  0  0  0
  -21.7140   -7.0000   21.4300 O   0  0  0  0  0  0  0  0  0  0  0  0
  -21.6250   -6.2820   22.5940 C   0  0  0  0  0  0  0  0  0  0  0  0
  -21.1250   -6.8520   23.7860 C   0  0  0  0  0  3  0  0  0  0  0  0
  -20.9840   -6.0600   24.9420 C   0  0  0  0  0  3  0  0  0  0  0  0
  -21.3400   -4.6980   24.9100 C   0  0  0  0  0  0  0  0  0  0  0  0
  -21.8310   -4.1260   23.7230 C   0  0  0  0  0  3  0  0  0  0  0  0
  -21.9740   -4.9160   22.5690 C   0  0  0  0  0  0  0  0  0  0  0  0
  -22.4290   -4.3550   21.4230 F   0  0  0  0  0  0  0  0  0  0  0  0
  -21.1980   -3.9330   26.0180 F   0  0  0  0  0  0  0  0  0  0  0  0
  -22.8290  -13.6380   21.1890 C   0  0  0  0  0  0  0  0  0  0  0  0
  -22.1240  -12.9280   22.0620 N   0  0  0  0  0  0  0  0  0  0  0  0
  -22.3820  -14.6740   20.7010 O   0  0  0  0  0  0  0  0  0  0  0  0
  -22.4980  -12.0870   22.4780 H   0  0  0  0  0  0  0  0  0  0  0  0
  -21.1950  -13.2290   22.3190 H   0  0  0  0  0  0  0  0  0  0  0  0
  -25.4330  -15.3080   20.3170 N   0  0  0  0  0  0  0  0  0  0  0  0
  -24.6760  -15.9600   20.4860 H   0  0  0  0  0  0  0  0  0  0  0  0
  -26.2480  -15.7520   19.9170 H   0  0  0  0  0  0  0  0  0  0  0  0
  -28.2400  -26.2230   20.2590 O   0  0  0  0  0  0  0  0  0  0  0  0
  -24.6350  -31.8900   23.2390 C   0  0  0  0  0  0  0  0  0  0  0  0
  -27.2460  -27.2620   20.1450 C   0  0  0  0  0  0  0  0  0  0  0  0
  -23.4470  -30.5060   21.5840 C   0  0  0  0  0  3  0  0  0  0  0  0
  -24.9090  -28.9730   20.1300 C   0  0  0  0  0  0  0  0  0  0  0  0
  -25.9980  -30.8000   21.4170 C   0  0  0  0  0  2  0  0  0  0  0  0
  -26.0820  -29.4200   20.7500 C   0  0  0  0  0  0  0  0  0  0  0  0
  -27.2500  -28.5720   20.7630 C   0  0  0  0  0  3  0  0  0  0  0  0
  -26.0750  -26.9490   19.4190 C   0  0  0  0  0  3  0  0  0  0  0  0
  -24.9160  -27.7530   19.4430 C   0  0  0  0  0  3  0  0  0  0  0  0
  -23.6670  -29.8500   20.1980 C   0  0  0  0  0  2  0  0  0  0  0  0
  -24.7150  -31.0860   22.1360 N   0  0  0  0  0  0  0  0  0  0  0  0
  -23.5470  -32.1610   23.7710 O   0  0  0  0  0  0  0  0  0  0  0  0
  -22.7790  -29.4770   22.5280 C   0  0  0  0  0  0  0  0  0  0  0  0
  -21.4540  -29.3000   22.4010 N   0  0  0  0  0  0  0  0  0  0  0  0
  -23.4560  -28.8420   23.3400 O   0  0  0  0  0  0  0  0  0  0  0  0
  -20.9640  -29.8660   21.7200 H   0  0  0  0  0  0  0  0  0  0  0  0
  -18.0730  -28.0970   22.9020 C   0  0  0  0  0  0  0  0  0  0  0  0
  -20.6350  -28.3510   23.1570 C   0  0  0  0  0  3  0  0  0  0  0  0
  -20.7290  -26.9280   22.5590 C   0  0  0  0  0  2  0  0  0  0  0  0
  -19.6210  -26.6260   21.5450 C   0  0  0  0  0  2  0  0  0  0  0  0
  -18.2420  -26.7600   22.1990 C   0  0  0  0  0  2  0  0  0  0  0  0
  -19.1960  -28.8520   23.3380 C   0  0  0  0  0  0  0  0  0  0  0  0
  -18.9800  -30.1020   23.9570 C   0  0  0  0  0  3  0  0  0  0  0  0
  -17.6760  -30.6000   24.1390 C   0  0  0  0  0  3  0  0  0  0  0  0
  -16.5700  -29.8440   23.7180 C   0  0  0  0  0  3  0  0  0  0  0  0
  -16.7670  -28.5920   23.1070 C   0  0  0  0  0  3  0  0  0  0  0  0
  -25.9080  -32.5270   23.8720 C   0  0  0  0  0  3  0  0  0  0  0  0
  -25.5960  -33.9270   24.1960 N   0  0  0  0  0  0  0  0  0  0  0  0
  -25.9270  -34.9800   23.4350 C   0  0  0  0  0  0  0  0  0  0  0  0
  -26.5980  -34.8730   22.4040 O   0  0  0  0  0  0  0  0  0  0  0  0
  -24.9950  -34.0810   24.9920 H   0  0  0  0  0  0  0  0  0  0  0  0
  -24.1970  -36.7740   23.0810 C   0  0  0  0  0  1  0  0  0  0  0  0
  -25.4400  -36.3710   23.8910 C   0  0  0  0  0  3  0  0  0  0  0  0
  -27.5730  -37.2600   24.7260 C   0  0  0  0  0  1  0  0  0  0  0  0
  -26.4760  -37.4230   23.7740 N   0  0  0  0  0  0  0  0  0  0  0  0
  -26.0700  -38.3440   23.9140 H   0  0  0  0  0  0  0  0  0  0  0  0
  -26.4080  -31.7640   25.1600 C   0  0  1  0  0  0  0  0  0  0  0  0
  -25.2980  -31.5280   26.2140 C   0  0  0  0  0  1  0  0  0  0  0  0
  -26.9930  -30.3840   24.7810 C   0  0  0  0  0  1  0  0  0  0  0  0
  -27.5490  -32.5560   25.8370 C   0  0  0  0  0  1  0  0  0  0  0  0
  1  3  2  0
  1  2  1  0
  2  7  2  0
  3  5  1  0
  4  6  1  0
  4  1  1  0
  6 12  1  0
  6  2  1  0
  9  8  1  0
 10  8  2  0
 11 13  2  0
 11 12  1  0
 12  9  2  0
 13 10  1  0
 14 22  1  0
 15 20  1  0
 16 17  1  0
 16 15  1  0
 18 17  1  0
 18 27  1  0
 18 19  1  0
 20 14  1  0
 20 19  1  0
 21 14  2  0
 22 13  1  0
 22 23  1  0
 24 25  2  0
 25 44  1  0
 26 25  1  0
 26 29  1  0
 27 28  1  0
 27 24  1  0
 28 26  2  0
 29 30  1  0
 30 31  2  0
 32 35  1  0
 32 31  1  0
 33 32  2  0
 34 33  1  0
 34 29  2  0
 35 36  1  0
 36 37  1  0
 37 38  2  0
 39 38  1  0
 39 43  1  0
 40 39  2  0
 41 36  2  0
 41 40  1  0
 42 41  1  0
 44 45  1  0
 45 48  1  0
 45 47  1  0
 46 44  2  0
 49 24  1  0
 49 50  1  0
 51 49  1  0
 52  3  1  0
 53 64  2  0
 54 52  1  0
 54 59  1  0
 55 63  1  0
 55 65  1  0
 56 62  1  0
 56 58  1  0
 57 63  1  0
 58 59  2  0
 58 57  1  0
 60 61  1  0
 60 54  2  0
 61 56  2  0
 62 55  1  0
 63 53  1  0
 65 67  2  0
 66 65  1  0
 68 66  1  0
 69 78  2  0
 69 74  1  0
 70 66  1  0
 70 74  1  0
 71 70  1  0
 72 73  1  0
 72 71  1  0
 73 69  1  0
 74 75  2  0
 75 76  1  0
 77 76  2  0
 78 77  1  0
 79 53  1  0
 79 80  1  0
 79 89  1  0
 80 83  1  0
 81 85  1  0
 81 80  1  0
 82 81  2  0
 85 84  1  0
 87 85  1  0
 87 88  1  0
 87 86  1  0
 89 92  1  1
 89 90  1  0
 91 89  1  0
M  ISO  4   3 101  14 100  22 100  52 101
M  END
>  <TORSDO>  (71) 
F 17

>  <SCORE>  (71) 
-15.100

>  <name>  (71) 
70

>  <ligand_id>  (71) 
70

>  <original_smiles>  (71) 
[H]c1c([H])c(N([H])C(=O)N2C([H])([H])C([H])([H])C([H])([H])C([H])(n3nc(-c4c([H])c([H])c(Oc5c([H])c([H])c(F)c([H])c5F)c([H])c4[H])c(C(=O)N([H])[H])c3N([H])[H])C2([H])[H])c([H])c(N2C(=O)C(=C(Oc3c([H])c([H])c4c(c3[H])C([H])([H])N(C(=O)C([H])(N([H])C(=O)C([H])(N([H])C([H])([H])[H])C([H])([H])[H])C(C([H])([H])[H])(C([H])([H])[H])C([H])([H])[H])C([H])(C(=O)N([H])C3([H])c5c([H])c([H])c([H])c([H])c5C([H])([H])C([H])([H])C3([H])[H])C4([H])[H])C([H])([H])[H])C2([H])[H])c1[H]

>  <smiles>  (71) 
[H]c1c([H])c(N([H])C(=O)N2C([H])([H])C([H])([H])C([H])([H])C([H])(n3nc(-c4c([H])c([H])c(Oc5c([H])c([H])c(F)c([H])c5F)c([H])c4[H])c(C(=O)N([H])[H])c3N([H])[H])C2([H])[H])c([H])c(N2C(=O)C(=C(Oc3c([H])c([H])c4c(c3[H])C([H])([H])N(C(=O)C([H])(N([H])C(=O)C([H])(N([H])C([H])([H])[H])C([H])([H])[H])C(C([H])([H])[H])(C([H])([H])[H])C([H])([H])[H])C([H])(C(=O)N([H])C3([H])c5c([H])c([H])c([H])c([H])c5C([H])([H])C([H])([H])C3([H])[H])C4([H])[H])C([H])([H])[H])C2([H])[H])c1[H]

$$$$
71:0:0
     RDKit          3D

 94103  0  0  1  0  0  0  0  0999 V2000
  -28.6640  -22.4750   20.1090 C   0  0  0  0  0  3  0  0  0  0  0  0
  -30.8100  -22.4920   20.6280 C   0  0  0  0  0  3  0  0  0  0  0  0
  -29.0020  -23.8260   20.1940 C   0  0  0  0  0  0  0  0  0  0  0  0
  -30.3890  -23.8010   20.5340 C   0  0  0  0  0  0  0  0  0  0  0  0
  -29.7580  -21.6240   20.3600 N   0  0  0  0  0  0  0  0  0  0  0  0
  -28.6990  -19.3710   20.7630 C   0  0  0  0  0  3  0  0  0  0  0  0
  -28.7480  -17.9460   20.8130 C   0  0  0  0  0  3  0  0  0  0  0  0
  -31.0230  -17.9770   20.0530 C   0  0  0  0  0  3  0  0  0  0  0  0
  -29.8140  -20.1540   20.3650 C   0  0  0  0  0  0  0  0  0  0  0  0
  -29.9060  -17.1980   20.4620 C   0  0  0  0  0  0  0  0  0  0  0  0
  -30.9820  -19.4090   20.0060 C   0  0  0  0  0  0  0  0  0  0  0  0
  -32.0980  -20.0640   19.6010 F   0  0  0  0  0  0  0  0  0  0  0  0
  -30.6210  -14.7040   20.0740 C   0  0  0  0  0  0  0  0  0  0  0  0
  -30.3550  -12.4970   18.9520 C   0  0  0  0  0  2  0  0  0  0  0  0
  -29.3370  -12.6600   17.8000 C   0  0  0  0  0  2  0  0  0  0  0  0
  -27.8930  -12.4840   18.3090 C   0  0  0  0  0  2  0  0  0  0  0  0
  -27.6090  -13.3040   19.5960 C   0  0  0  0  0  3  0  0  0  0  0  0
  -28.7330  -13.1110   20.6390 C   0  0  0  0  0  2  0  0  0  0  0  0
  -30.0060  -13.4790   19.9980 N   0  0  0  0  0  0  0  0  0  0  0  0
  -31.7510  -14.8820   19.6090 O   0  0  0  0  0  0  0  0  0  0  0  0
  -29.8410  -15.7310   20.5460 N   0  0  0  0  0  0  0  0  0  0  0  0
  -28.9770  -15.3820   20.9310 H   0  0  0  0  0  0  0  0  0  0  0  0
  -25.2620  -13.8800   20.4700 C   0  0  0  0  0  0  0  0  0  0  0  0
  -24.2170  -13.0970   20.8790 C   0  0  0  0  0  0  0  0  0  0  0  0
  -24.6750  -11.7470   20.7780 C   0  0  0  0  0  0  0  0  0  0  0  0
  -26.2900  -13.0070   20.1490 N   0  0  0  0  0  0  0  0  0  0  0  0
  -25.9450  -11.7170   20.3930 N   0  0  0  0  0  0  0  0  0  0  0  0
  -23.9580  -10.4790   20.9700 C   0  0  0  0  0  0  0  0  0  0  0  0
  -24.4090   -9.5090   21.8920 C   0  0  0  0  0  3  0  0  0  0  0  0
  -23.6930   -8.3050   22.0730 C   0  0  0  0  0  3  0  0  0  0  0  0
  -22.5110   -8.0650   21.3340 C   0  0  0  0  0  0  0  0  0  0  0  0
  -22.0780   -9.0240   20.4010 C   0  0  0  0  0  3  0  0  0  0  0  0
  -22.7950  -10.2190   20.2170 C   0  0  0  0  0  3  0  0  0  0  0  0
  -21.7640   -6.9150   21.4240 O   0  0  0  0  0  0  0  0  0  0  0  0
  -21.6900   -6.1960   22.5900 C   0  0  0  0  0  0  0  0  0  0  0  0
  -21.2040   -6.7660   23.7870 C   0  0  0  0  0  3  0  0  0  0  0  0
  -21.0790   -5.9710   24.9450 C   0  0  0  0  0  3  0  0  0  0  0  0
  -21.4300   -4.6090   24.9050 C   0  0  0  0  0  0  0  0  0  0  0  0
  -21.9080   -4.0390   23.7120 C   0  0  0  0  0  3  0  0  0  0  0  0
  -22.0340   -4.8300   22.5580 C   0  0  0  0  0  0  0  0  0  0  0  0
  -22.4750   -4.2710   21.4060 F   0  0  0  0  0  0  0  0  0  0  0  0
  -21.3030   -3.8440   26.0150 F   0  0  0  0  0  0  0  0  0  0  0  0
  -22.8390  -13.5650   21.2470 C   0  0  0  0  0  0  0  0  0  0  0  0
  -22.1640  -12.8460   22.1370 N   0  0  0  0  0  0  0  0  0  0  0  0
  -22.3710  -14.6030   20.7800 O   0  0  0  0  0  0  0  0  0  0  0  0
  -22.5560  -12.0070   22.5360 H   0  0  0  0  0  0  0  0  0  0  0  0
  -21.2420  -13.1420   22.4250 H   0  0  0  0  0  0  0  0  0  0  0  0
  -25.4180  -15.2560   20.3250 N   0  0  0  0  0  0  0  0  0  0  0  0
  -24.6540  -15.9020   20.4910 H   0  0  0  0  0  0  0  0  0  0  0  0
  -26.2300  -15.7030   19.9210 H   0  0  0  0  0  0  0  0  0  0  0  0
  -31.1800  -24.8940   20.7260 O   0  0  0  0  0  0  0  0  0  0  0  0
  -32.0800  -24.6730   20.9470 H   0  0  0  0  0  0  0  0  0  0  0  0
  -28.0260  -25.0290   19.9090 C   0  0  0  0  0  2  0  0  0  0  0  0
  -28.3210  -26.4540   20.2320 O   0  0  0  0  0  0  0  0  0  0  0  0
  -24.6510  -31.8950   23.2970 C   0  0  0  0  0  0  0  0  0  0  0  0
  -27.2250  -27.3460   20.1740 C   0  0  0  0  0  0  0  0  0  0  0  0
  -23.4320  -30.5200   21.6510 C   0  0  0  0  0  3  0  0  0  0  0  0
  -24.8680  -28.9850   20.1990 C   0  0  0  0  0  0  0  0  0  0  0  0
  -25.9750  -30.8240   21.4610 C   0  0  0  0  0  2  0  0  0  0  0  0
  -26.0450  -29.4520   20.7970 C   0  0  0  0  0  0  0  0  0  0  0  0
  -27.2250  -28.6440   20.7780 C   0  0  0  0  0  3  0  0  0  0  0  0
  -26.0200  -26.9510   19.5380 C   0  0  0  0  0  3  0  0  0  0  0  0
  -24.8580  -27.7390   19.5610 C   0  0  0  0  0  3  0  0  0  0  0  0
  -23.6350  -29.8630   20.2630 C   0  0  0  0  0  2  0  0  0  0  0  0
  -24.7050  -31.0960   22.1930 N   0  0  0  0  0  0  0  0  0  0  0  0
  -23.5700  -32.1730   23.8380 O   0  0  0  0  0  0  0  0  0  0  0  0
  -22.7690  -29.4940   22.6030 C   0  0  0  0  0  0  0  0  0  0  0  0
  -21.4450  -29.3120   22.4690 N   0  0  0  0  0  0  0  0  0  0  0  0
  -23.4470  -28.8660   23.4210 O   0  0  0  0  0  0  0  0  0  0  0  0
  -20.9570  -29.8700   21.7820 H   0  0  0  0  0  0  0  0  0  0  0  0
  -18.0680  -28.1050   22.9530 C   0  0  0  0  0  0  0  0  0  0  0  0
  -20.6250  -28.3700   23.2330 C   0  0  0  0  0  3  0  0  0  0  0  0
  -20.7330  -26.9410   22.6540 C   0  0  0  0  0  2  0  0  0  0  0  0
  -19.6350  -26.6180   21.6360 C   0  0  0  0  0  2  0  0  0  0  0  0
  -18.2510  -26.7580   22.2740 C   0  0  0  0  0  2  0  0  0  0  0  0
  -19.1830  -28.8690   23.3900 C   0  0  0  0  0  0  0  0  0  0  0  0
  -18.9580  -30.1290   23.9840 C   0  0  0  0  0  3  0  0  0  0  0  0
  -17.6520  -30.6260   24.1470 C   0  0  0  0  0  3  0  0  0  0  0  0
  -16.5510  -29.8600   23.7270 C   0  0  0  0  0  3  0  0  0  0  0  0
  -16.7600  -28.6000   23.1360 C   0  0  0  0  0  3  0  0  0  0  0  0
  -25.9390  -32.5160   23.9180 C   0  0  0  0  0  3  0  0  0  0  0  0
  -26.4500  -31.7370   25.1920 C   0  0  1  0  0  0  0  0  0  0  0  0
  -25.3560  -31.5020   26.2590 C   0  0  0  0  0  1  0  0  0  0  0  0
  -27.0240  -30.3570   24.7980 C   0  0  0  0  0  1  0  0  0  0  0  0
  -27.6060  -32.5220   25.8560 C   0  0  0  0  0  1  0  0  0  0  0  0
  -25.6410  -33.9150   24.2520 N   0  0  0  0  0  0  0  0  0  0  0  0
  -25.9490  -34.9660   23.4800 C   0  0  0  0  0  0  0  0  0  0  0  0
  -26.5860  -34.8580   22.4280 O   0  0  0  0  0  0  0  0  0  0  0  0
  -25.0720  -34.0740   25.0710 H   0  0  0  0  0  0  0  0  0  0  0  0
  -24.1950  -36.7470   23.1930 C   0  0  0  0  0  1  0  0  0  0  0  0
  -25.4760  -36.3560   23.9470 C   0  0  0  0  0  3  0  0  0  0  0  0
  -27.6430  -37.2610   24.6680 C   0  0  0  0  0  1  0  0  0  0  0  0
  -26.4960  -37.4140   23.7760 N   0  0  0  0  0  0  0  0  0  0  0  0
  -26.0910  -38.3320   23.9390 H   0  0  0  0  0  0  0  0  0  0  0  0
  1  3  2  0
  1  5  1  0
  3  4  1  0
  4  2  2  0
  4 51  1  0
  5  9  1  0
  5  2  1  0
  6  7  1  0
  8 10  1  0
  9  6  2  0
 10 21  1  0
 10  7  2  0
 11  8  2  0
 11  9  1  0
 12 11  1  0
 13 21  1  0
 14 19  1  0
 15 16  1  0
 15 14  1  0
 17 16  1  0
 17 26  1  0
 17 18  1  0
 19 13  1  0
 19 18  1  0
 20 13  2  0
 21 22  1  0
 23 24  2  0
 24 43  1  0
 25 24  1  0
 25 28  1  0
 26 27  1  0
 26 23  1  0
 27 25  2  0
 28 29  1  0
 29 30  2  0
 31 34  1  0
 31 30  1  0
 32 31  2  0
 33 32  1  0
 33 28  2  0
 34 35  1  0
 35 36  1  0
 36 37  2  0
 38 37  1  0
 38 42  1  0
 39 38  2  0
 40 35  2  0
 40 39  1  0
 41 40  1  0
 43 44  1  0
 44 47  1  0
 44 46  1  0
 45 43  2  0
 48 23  1  0
 48 49  1  0
 50 48  1  0
 51 52  1  0
 53  3  1  0
 53 54  1  0
 55 66  2  0
 56 54  1  0
 56 61  1  0
 57 65  1  0
 57 67  1  0
 58 64  1  0
 58 60  1  0
 59 65  1  0
 60 59  1  0
 61 60  2  0
 62 63  1  0
 62 56  2  0
 63 58  2  0
 64 57  1  0
 65 55  1  0
 67 69  2  0
 68 67  1  0
 70 68  1  0
 71 80  2  0
 71 76  1  0
 72 68  1  0
 72 76  1  0
 73 72  1  0
 74 75  1  0
 74 73  1  0
 75 71  1  0
 76 77  2  0
 77 78  1  0
 79 78  2  0
 80 79  1  0
 81 55  1  0
 81 86  1  0
 81 82  1  0
 82 85  1  1
 82 83  1  0
 84 82  1  0
 86 89  1  0
 87 91  1  0
 87 86  1  0
 88 87  2  0
 91 90  1  0
 93 94  1  0
 93 91  1  0
 93 92  1  0
M  ISO  4  13 100  21 100  53 101  54 101
M  END
>  <TORSDO>  (72) 
F 19

>  <SCORE>  (72) 
-14.362

>  <name>  (72) 
71

>  <ligand_id>  (72) 
71

>  <original_smiles>  (72) 
[H]Oc1c(C([H])([H])Oc2c([H])c([H])c3c(c2[H])C([H])([H])N(C(=O)C([H])(N([H])C(=O)C([H])(N([H])C([H])([H])[H])C([H])([H])[H])C(C([H])([H])[H])(C([H])([H])[H])C([H])([H])[H])C([H])(C(=O)N([H])C2([H])c4c([H])c([H])c([H])c([H])c4C([H])([H])C([H])([H])C2([H])[H])C3([H])[H])c([H])n(-c2c([H])c([H])c(N([H])C(=O)N3C([H])([H])C([H])([H])C([H])([H])C([H])(n4nc(-c5c([H])c([H])c(Oc6c([H])c([H])c(F)c([H])c6F)c([H])c5[H])c(C(=O)N([H])[H])c4N([H])[H])C3([H])[H])c([H])c2F)c1[H]

>  <smiles>  (72) 
[H]Oc1c(C([H])([H])Oc2c([H])c([H])c3c(c2[H])C([H])([H])N(C(=O)C([H])(N([H])C(=O)C([H])(N([H])C([H])([H])[H])C([H])([H])[H])C(C([H])([H])[H])(C([H])([H])[H])C([H])([H])[H])C([H])(C(=O)N([H])C2([H])c4c([H])c([H])c([H])c([H])c4C([H])([H])C([H])([H])C2([H])[H])C3([H])[H])c([H])n(-c2c([H])c([H])c(N([H])C(=O)N3C([H])([H])C([H])([H])C([H])([H])C([H])(n4nc(-c5c([H])c([H])c(Oc6c([H])c([H])c(F)c([H])c6F)c([H])c5[H])c(C(=O)N([H])[H])c4N([H])[H])C3([H])[H])c([H])c2F)c1[H]

$$$$
72:0:0
     RDKit          3D

 95104  0  0  1  0  0  0  0  0999 V2000
  -28.8760  -24.4770   21.2180 C   0  0  0  0  0  0  0  0  0  0  0  0
  -29.1240  -23.8150   22.4710 C   0  0  0  0  0  0  0  0  0  0  0  0
  -28.8990  -23.4110   20.1930 C   0  0  0  0  0  0  0  0  0  0  0  0
  -29.1270  -24.3830   23.6910 C   0  0  0  0  0  1  0  0  0  0  0  0
  -28.6620  -25.8300   21.0920 C   0  0  0  0  0  2  0  0  0  0  0  0
  -29.3710  -22.3570   22.2360 C   0  0  0  0  0  2  0  0  0  0  0  0
  -29.1220  -22.1840   20.8020 N   0  0  0  0  0  0  0  0  0  0  0  0
  -28.7600  -23.5880   18.9780 O   0  0  0  0  0  0  0  0  0  0  0  0
  -28.2170  -19.2560   18.5250 C   0  0  0  0  0  3  0  0  0  0  0  0
  -28.8580  -18.1620   19.1390 C   0  0  0  0  0  3  0  0  0  0  0  0
  -28.3230  -20.5580   19.0580 C   0  0  0  0  0  3  0  0  0  0  0  0
  -29.6260  -18.3540   20.3040 C   0  0  0  0  0  0  0  0  0  0  0  0
  -29.0800  -20.8240   20.2280 C   0  0  0  0  0  0  0  0  0  0  0  0
  -29.7320  -19.6860   20.8330 C   0  0  0  0  0  0  0  0  0  0  0  0
  -30.4920  -19.8490   21.9410 F   0  0  0  0  0  0  0  0  0  0  0  0
  -30.3830  -17.1530   20.9540 C   0  0  0  0  0  2  0  0  0  0  0  0
  -30.6840  -14.6840   20.2920 C   0  0  0  0  0  0  0  0  0  0  0  0
  -30.4430  -12.4650   19.2100 C   0  0  0  0  0  2  0  0  0  0  0  0
  -29.4820  -12.5900   18.0090 C   0  0  0  0  0  2  0  0  0  0  0  0
  -28.0190  -12.4220   18.4620 C   0  0  0  0  0  2  0  0  0  0  0  0
  -27.6720  -13.2890   19.7030 C   0  0  0  0  0  3  0  0  0  0  0  0
  -28.7460  -13.1430   20.8030 C   0  0  0  0  0  2  0  0  0  0  0  0
  -30.0440  -13.4790   20.2020 N   0  0  0  0  0  0  0  0  0  0  0  0
  -31.8410  -14.8330   19.8930 O   0  0  0  0  0  0  0  0  0  0  0  0
  -29.9320  -15.7480   20.6910 N   0  0  0  0  0  0  0  0  0  0  0  0
  -28.9770  -15.5390   20.9370 H   0  0  0  0  0  0  0  0  0  0  0  0
  -25.2880  -13.8750   20.4590 C   0  0  0  0  0  0  0  0  0  0  0  0
  -24.2310  -13.0950   20.8420 C   0  0  0  0  0  0  0  0  0  0  0  0
  -24.6980  -11.7460   20.7970 C   0  0  0  0  0  0  0  0  0  0  0  0
  -26.3330  -13.0000   20.2070 N   0  0  0  0  0  0  0  0  0  0  0  0
  -25.9850  -11.7140   20.4700 N   0  0  0  0  0  0  0  0  0  0  0  0
  -23.9810  -10.4780   20.9910 C   0  0  0  0  0  0  0  0  0  0  0  0
  -24.4140   -9.5220   21.9360 C   0  0  0  0  0  3  0  0  0  0  0  0
  -23.6960   -8.3190   22.1160 C   0  0  0  0  0  3  0  0  0  0  0  0
  -22.5330   -8.0650   21.3500 C   0  0  0  0  0  0  0  0  0  0  0  0
  -22.1210   -9.0100   20.3950 C   0  0  0  0  0  3  0  0  0  0  0  0
  -22.8390  -10.2040   20.2130 C   0  0  0  0  0  3  0  0  0  0  0  0
  -21.7880   -6.9140   21.4400 O   0  0  0  0  0  0  0  0  0  0  0  0
  -21.7140   -6.1930   22.6040 C   0  0  0  0  0  0  0  0  0  0  0  0
  -21.2040   -6.7530   23.7960 C   0  0  0  0  0  3  0  0  0  0  0  0
  -21.0820   -5.9560   24.9520 C   0  0  0  0  0  3  0  0  0  0  0  0
  -21.4580   -4.6000   24.9170 C   0  0  0  0  0  0  0  0  0  0  0  0
  -21.9600   -4.0400   23.7280 C   0  0  0  0  0  3  0  0  0  0  0  0
  -22.0850   -4.8340   22.5750 C   0  0  0  0  0  0  0  0  0  0  0  0
  -22.5500   -4.2840   21.4280 F   0  0  0  0  0  0  0  0  0  0  0  0
  -21.3330   -3.8320   26.0230 F   0  0  0  0  0  0  0  0  0  0  0  0
  -22.8340  -13.5630   21.1350 C   0  0  0  0  0  0  0  0  0  0  0  0
  -22.1190  -12.8520   22.0010 N   0  0  0  0  0  0  0  0  0  0  0  0
  -22.3870  -14.5940   20.6350 O   0  0  0  0  0  0  0  0  0  0  0  0
  -22.4930  -12.0190   22.4280 H   0  0  0  0  0  0  0  0  0  0  0  0
  -21.1830  -13.1480   22.2390 H   0  0  0  0  0  0  0  0  0  0  0  0
  -25.4410  -15.2470   20.2860 N   0  0  0  0  0  0  0  0  0  0  0  0
  -24.6670  -15.8920   20.4000 H   0  0  0  0  0  0  0  0  0  0  0  0
  -26.2740  -15.6920   19.9210 H   0  0  0  0  0  0  0  0  0  0  0  0
  -28.4520  -26.6170   19.9700 O   0  0  0  0  0  0  0  0  0  0  0  0
  -24.6550  -31.8720   23.1290 C   0  0  0  0  0  0  0  0  0  0  0  0
  -27.3420  -27.4500   19.9980 C   0  0  0  0  0  0  0  0  0  0  0  0
  -23.4710  -30.4830   21.4620 C   0  0  0  0  0  3  0  0  0  0  0  0
  -24.9470  -28.9790   20.0170 C   0  0  0  0  0  0  0  0  0  0  0  0
  -26.0000  -30.8570   21.2830 C   0  0  0  0  0  2  0  0  0  0  0  0
  -26.1030  -29.4900   20.6230 C   0  0  0  0  0  0  0  0  0  0  0  0
  -27.3080  -28.7330   20.6120 C   0  0  0  0  0  3  0  0  0  0  0  0
  -26.1710  -26.9730   19.3800 C   0  0  0  0  0  3  0  0  0  0  0  0
  -24.9780  -27.7220   19.3910 C   0  0  0  0  0  3  0  0  0  0  0  0
  -23.6940  -29.8280   20.0730 C   0  0  0  0  0  2  0  0  0  0  0  0
  -24.7270  -31.0870   22.0160 N   0  0  0  0  0  0  0  0  0  0  0  0
  -23.5690  -32.1250   23.6690 O   0  0  0  0  0  0  0  0  0  0  0  0
  -22.8230  -29.4430   22.4050 C   0  0  0  0  0  0  0  0  0  0  0  0
  -21.5010  -29.2480   22.2700 N   0  0  0  0  0  0  0  0  0  0  0  0
  -23.5080  -28.8140   23.2160 O   0  0  0  0  0  0  0  0  0  0  0  0
  -21.0070  -29.8060   21.5880 H   0  0  0  0  0  0  0  0  0  0  0  0
  -18.1410  -27.9940   22.7300 C   0  0  0  0  0  0  0  0  0  0  0  0
  -20.6930  -28.2890   23.0230 C   0  0  0  0  0  3  0  0  0  0  0  0
  -20.8220  -26.8660   22.4320 C   0  0  0  0  0  2  0  0  0  0  0  0
  -19.7330  -26.5380   21.4040 C   0  0  0  0  0  2  0  0  0  0  0  0
  -18.3440  -26.6560   22.0390 C   0  0  0  0  0  2  0  0  0  0  0  0
  -19.2440  -28.7680   23.1780 C   0  0  0  0  0  0  0  0  0  0  0  0
  -19.0010  -30.0200   23.7810 C   0  0  0  0  0  3  0  0  0  0  0  0
  -17.6870  -30.4990   23.9420 C   0  0  0  0  0  3  0  0  0  0  0  0
  -16.5980  -29.7220   23.5120 C   0  0  0  0  0  3  0  0  0  0  0  0
  -16.8260  -28.4710   22.9110 C   0  0  0  0  0  3  0  0  0  0  0  0
  -25.9310  -32.5100   23.7620 C   0  0  0  0  0  3  0  0  0  0  0  0
  -25.6020  -33.8960   24.1220 N   0  0  0  0  0  0  0  0  0  0  0  0
  -25.9090  -34.9690   23.3790 C   0  0  0  0  0  0  0  0  0  0  0  0
  -26.5680  -34.8960   22.3390 O   0  0  0  0  0  0  0  0  0  0  0  0
  -25.0180  -34.0260   24.9350 H   0  0  0  0  0  0  0  0  0  0  0  0
  -24.1530  -36.7410   23.0710 C   0  0  0  0  0  1  0  0  0  0  0  0
  -25.4030  -36.3400   23.8680 C   0  0  0  0  0  3  0  0  0  0  0  0
  -27.5240  -37.2450   24.7140 C   0  0  0  0  0  1  0  0  0  0  0  0
  -26.4200  -37.4100   23.7720 N   0  0  0  0  0  0  0  0  0  0  0  0
  -25.9990  -38.3210   23.9330 H   0  0  0  0  0  0  0  0  0  0  0  0
  -26.4610  -31.7200   25.0200 C   0  0  1  0  0  0  0  0  0  0  0  0
  -25.3730  -31.4400   26.0830 C   0  0  0  0  0  1  0  0  0  0  0  0
  -27.0650  -30.3600   24.5960 C   0  0  0  0  0  1  0  0  0  0  0  0
  -27.6000  -32.5170   25.7000 C   0  0  0  0  0  1  0  0  0  0  0  0
  1  2  2  0
  2  4  1  0
  3  7  1  0
  3  1  1  0
  5  1  1  0
  6  2  1  0
  7  6  1  0
  8  3  2  0
  9 11  2  0
  9 10  1  0
 10 12  2  0
 11 13  1  0
 12 14  1  0
 12 16  1  0
 13  7  1  0
 13 14  2  0
 14 15  1  0
 17 25  1  0
 18 23  1  0
 19 20  1  0
 19 18  1  0
 21 20  1  0
 21 30  1  0
 21 22  1  0
 23 17  1  0
 23 22  1  0
 24 17  2  0
 25 26  1  0
 25 16  1  0
 27 28  2  0
 28 47  1  0
 29 28  1  0
 29 32  1  0
 30 27  1  0
 30 31  1  0
 31 29  2  0
 32 33  1  0
 33 34  2  0
 35 38  1  0
 35 34  1  0
 36 35  2  0
 37 36  1  0
 37 32  2  0
 38 39  1  0
 39 40  1  0
 40 41  2  0
 42 41  1  0
 42 46  1  0
 43 42  2  0
 44 39  2  0
 44 43  1  0
 45 44  1  0
 47 48  1  0
 48 51  1  0
 48 50  1  0
 49 47  2  0
 52 53  1  0
 52 27  1  0
 54 52  1  0
 55 57  1  0
 55  5  1  0
 56 67  2  0
 57 62  1  0
 58 66  1  0
 58 68  1  0
 59 65  1  0
 59 61  1  0
 60 66  1  0
 61 60  1  0
 62 61  2  0
 63 64  1  0
 63 57  2  0
 64 59  2  0
 65 58  1  0
 66 56  1  0
 68 70  2  0
 69 68  1  0
 71 69  1  0
 72 81  2  0
 72 77  1  0
 73 69  1  0
 73 77  1  0
 74 73  1  0
 75 76  1  0
 75 74  1  0
 76 72  1  0
 77 78  2  0
 78 79  1  0
 80 79  2  0
 81 80  1  0
 82 56  1  0
 82 83  1  0
 82 92  1  0
 83 86  1  0
 84 88  1  0
 84 83  1  0
 85 84  2  0
 88 87  1  0
 90 88  1  0
 90 91  1  0
 90 89  1  0
 92 95  1  1
 92 93  1  0
 94 92  1  0
M  ISO  4   5 101  17 100  25 100  55 101
M  END
>  <TORSDO>  (73) 
F 18

>  <SCORE>  (73) 
-14.789

>  <name>  (73) 
72

>  <ligand_id>  (73) 
72

>  <original_smiles>  (73) 
[H]C([H])=C1C(=C([H])Oc2c([H])c([H])c3c(c2[H])C([H])([H])N(C(=O)C([H])(N([H])C(=O)C([H])(N([H])C([H])([H])[H])C([H])([H])[H])C(C([H])([H])[H])(C([H])([H])[H])C([H])([H])[H])C([H])(C(=O)N([H])C2([H])c4c([H])c([H])c([H])c([H])c4C([H])([H])C([H])([H])C2([H])[H])C3([H])[H])C(=O)N(c2c([H])c([H])c([H])c(C([H])([H])N([H])C(=O)N3C([H])([H])C([H])([H])C([H])([H])C([H])(n4nc(-c5c([H])c([H])c(Oc6c([H])c([H])c(F)c([H])c6F)c([H])c5[H])c(C(=O)N([H])[H])c4N([H])[H])C3([H])[H])c2F)C1([H])[H]

>  <smiles>  (73) 
[H]C([H])=C1C(=C([H])Oc2c([H])c([H])c3c(c2[H])C([H])([H])N(C(=O)C([H])(N([H])C(=O)C([H])(N([H])C([H])([H])[H])C([H])([H])[H])C(C([H])([H])[H])(C([H])([H])[H])C([H])([H])[H])C([H])(C(=O)N([H])C2([H])c4c([H])c([H])c([H])c([H])c4C([H])([H])C([H])([H])C2([H])[H])C3([H])[H])C(=O)N(c2c([H])c([H])c([H])c(C([H])([H])N([H])C(=O)N3C([H])([H])C([H])([H])C([H])([H])C([H])(n4nc(-c5c([H])c([H])c(Oc6c([H])c([H])c(F)c([H])c6F)c([H])c5[H])c(C(=O)N([H])[H])c4N([H])[H])C3([H])[H])c2F)C1([H])[H]

$$$$
73:0:0
     RDKit          3D

 94103  0  0  1  0  0  0  0  0999 V2000
  -30.5810  -19.6810   20.8020 C   0  0  0  0  0  3  0  0  0  0  0  0
  -30.7730  -18.2470   20.7960 C   0  0  0  0  0  3  0  0  0  0  0  0
  -28.3430  -19.4040   20.1190 C   0  0  0  0  0  3  0  0  0  0  0  0
  -29.3400  -20.3450   20.5110 C   0  0  0  0  0  0  0  0  0  0  0  0
  -29.7260  -17.3430   20.4540 C   0  0  0  0  0  0  0  0  0  0  0  0
  -28.5220  -17.9850   20.0650 C   0  0  0  0  0  0  0  0  0  0  0  0
  -30.5380  -14.8010   20.3640 C   0  0  0  0  0  0  0  0  0  0  0  0
  -30.3500  -12.5280   19.3350 C   0  0  0  0  0  2  0  0  0  0  0  0
  -29.3890  -12.6190   18.1270 C   0  0  0  0  0  2  0  0  0  0  0  0
  -27.9220  -12.4520   18.5710 C   0  0  0  0  0  2  0  0  0  0  0  0
  -27.5660  -13.3280   19.8030 C   0  0  0  0  0  3  0  0  0  0  0  0
  -28.6400  -13.2040   20.9070 C   0  0  0  0  0  2  0  0  0  0  0  0
  -29.9370  -13.5630   20.3080 N   0  0  0  0  0  0  0  0  0  0  0  0
  -31.7200  -14.9430   20.0380 O   0  0  0  0  0  0  0  0  0  0  0  0
  -29.6880  -15.8660   20.5830 N   0  0  0  0  0  0  0  0  0  0  0  0
  -28.7400  -15.5490   20.7160 H   0  0  0  0  0  0  0  0  0  0  0  0
  -25.1820  -13.9310   20.5500 C   0  0  0  0  0  0  0  0  0  0  0  0
  -24.1130  -13.1610   20.9160 C   0  0  0  0  0  0  0  0  0  0  0  0
  -24.5700  -11.8100   20.8740 C   0  0  0  0  0  0  0  0  0  0  0  0
  -26.2230  -13.0490   20.3020 N   0  0  0  0  0  0  0  0  0  0  0  0
  -25.8580  -11.7660   20.5590 N   0  0  0  0  0  0  0  0  0  0  0  0
  -23.8350  -10.5530   21.0620 C   0  0  0  0  0  0  0  0  0  0  0  0
  -24.2710   -9.5730   21.9820 C   0  0  0  0  0  3  0  0  0  0  0  0
  -23.5370   -8.3820   22.1590 C   0  0  0  0  0  3  0  0  0  0  0  0
  -22.3520   -8.1610   21.4160 C   0  0  0  0  0  0  0  0  0  0  0  0
  -21.9350   -9.1290   20.4870 C   0  0  0  0  0  3  0  0  0  0  0  0
  -22.6700  -10.3120   20.3080 C   0  0  0  0  0  3  0  0  0  0  0  0
  -21.5890   -7.0220   21.5040 O   0  0  0  0  0  0  0  0  0  0  0  0
  -21.5550   -6.2650   22.6470 C   0  0  0  0  0  0  0  0  0  0  0  0
  -21.1560   -6.8080   23.8880 C   0  0  0  0  0  3  0  0  0  0  0  0
  -21.0680   -5.9770   25.0240 C   0  0  0  0  0  3  0  0  0  0  0  0
  -21.3670   -4.6060   24.9200 C   0  0  0  0  0  0  0  0  0  0  0  0
  -21.7590   -4.0630   23.6830 C   0  0  0  0  0  3  0  0  0  0  0  0
  -21.8500   -4.8900   22.5500 C   0  0  0  0  0  0  0  0  0  0  0  0
  -22.2070   -4.3580   21.3560 F   0  0  0  0  0  0  0  0  0  0  0  0
  -21.2750   -3.8070   26.0080 F   0  0  0  0  0  0  0  0  0  0  0  0
  -22.7210  -13.6480   21.1980 C   0  0  0  0  0  0  0  0  0  0  0  0
  -21.9930  -12.9530   22.0640 N   0  0  0  0  0  0  0  0  0  0  0  0
  -22.2880  -14.6810   20.6880 O   0  0  0  0  0  0  0  0  0  0  0  0
  -22.3560  -12.1170   22.5000 H   0  0  0  0  0  0  0  0  0  0  0  0
  -21.0590  -13.2590   22.2970 H   0  0  0  0  0  0  0  0  0  0  0  0
  -25.3350  -15.3030   20.3950 N   0  0  0  0  0  0  0  0  0  0  0  0
  -24.5570  -15.9350   20.5490 H   0  0  0  0  0  0  0  0  0  0  0  0
  -26.1880  -15.8080   20.1520 H   0  0  0  0  0  0  0  0  0  0  0  0
  -28.4970  -23.7960   20.5930 C   0  0  0  0  0  0  0  0  0  0  0  0
  -27.8780  -22.5430   21.0110 C   0  0  0  0  0  0  0  0  0  0  0  0
  -27.9450  -25.0720   20.6980 C   0  0  0  0  0  3  0  0  0  0  0  0
  -29.7220  -22.9770   20.0880 C   0  0  0  0  0  2  0  0  0  0  0  0
  -29.0180  -21.7920   20.6670 N   0  0  0  0  0  0  0  0  0  0  0  0
  -26.7620  -22.3090   21.4290 O   0  0  0  0  0  0  0  0  0  0  0  0
  -28.3220  -26.3960   20.3140 O   0  0  0  0  0  0  0  0  0  0  0  0
  -24.6340  -31.9470   23.2410 C   0  0  0  0  0  0  0  0  0  0  0  0
  -27.2680  -27.3400   20.2330 C   0  0  0  0  0  0  0  0  0  0  0  0
  -23.4460  -30.5380   21.6010 C   0  0  0  0  0  3  0  0  0  0  0  0
  -24.9120  -28.9830   20.1870 C   0  0  0  0  0  0  0  0  0  0  0  0
  -25.9910  -30.8460   21.4420 C   0  0  0  0  0  2  0  0  0  0  0  0
  -26.0770  -29.4620   20.8000 C   0  0  0  0  0  0  0  0  0  0  0  0
  -27.2600  -28.6500   20.8190 C   0  0  0  0  0  3  0  0  0  0  0  0
  -26.0850  -26.9430   19.5670 C   0  0  0  0  0  3  0  0  0  0  0  0
  -24.9200  -27.7300   19.5590 C   0  0  0  0  0  3  0  0  0  0  0  0
  -23.6730  -29.8580   20.2260 C   0  0  0  0  0  2  0  0  0  0  0  0
  -24.7090  -31.1290   22.1500 N   0  0  0  0  0  0  0  0  0  0  0  0
  -23.5460  -32.2280   23.7650 O   0  0  0  0  0  0  0  0  0  0  0  0
  -22.7740  -29.5270   22.5630 C   0  0  0  0  0  0  0  0  0  0  0  0
  -21.4460  -29.3600   22.4370 N   0  0  0  0  0  0  0  0  0  0  0  0
  -23.4480  -28.8980   23.3820 O   0  0  0  0  0  0  0  0  0  0  0  0
  -20.9610  -29.9180   21.7490 H   0  0  0  0  0  0  0  0  0  0  0  0
  -18.0570  -28.1960   22.9530 C   0  0  0  0  0  0  0  0  0  0  0  0
  -20.6210  -28.4290   23.2090 C   0  0  0  0  0  3  0  0  0  0  0  0
  -20.7040  -26.9980   22.6310 C   0  0  0  0  0  2  0  0  0  0  0  0
  -19.5940  -26.6880   21.6220 C   0  0  0  0  0  2  0  0  0  0  0  0
  -18.2170  -26.8470   22.2740 C   0  0  0  0  0  2  0  0  0  0  0  0
  -19.1870  -28.9450   23.3790 C   0  0  0  0  0  0  0  0  0  0  0  0
  -18.9840  -30.2090   23.9760 C   0  0  0  0  0  3  0  0  0  0  0  0
  -17.6850  -30.7220   24.1510 C   0  0  0  0  0  3  0  0  0  0  0  0
  -16.5710  -29.9690   23.7410 C   0  0  0  0  0  3  0  0  0  0  0  0
  -16.7580  -28.7080   23.1480 C   0  0  0  0  0  3  0  0  0  0  0  0
  -25.9120  -32.5860   23.8680 C   0  0  0  0  0  3  0  0  0  0  0  0
  -25.5950  -33.9840   24.1920 N   0  0  0  0  0  0  0  0  0  0  0  0
  -25.9180  -35.0350   23.4270 C   0  0  0  0  0  0  0  0  0  0  0  0
  -26.5810  -34.9310   22.3920 O   0  0  0  0  0  0  0  0  0  0  0  0
  -25.0050  -34.1400   24.9960 H   0  0  0  0  0  0  0  0  0  0  0  0
  -24.1730  -36.8160   23.0840 C   0  0  0  0  0  1  0  0  0  0  0  0
  -25.4280  -36.4240   23.8820 C   0  0  0  0  0  3  0  0  0  0  0  0
  -27.5670  -37.3290   24.6790 C   0  0  0  0  0  1  0  0  0  0  0  0
  -26.4520  -37.4830   23.7470 N   0  0  0  0  0  0  0  0  0  0  0  0
  -26.0420  -38.4020   23.8920 H   0  0  0  0  0  0  0  0  0  0  0  0
  -26.4200  -31.8210   25.1510 C   0  0  1  0  0  0  0  0  0  0  0  0
  -25.3210  -31.5860   26.2130 C   0  0  0  0  0  1  0  0  0  0  0  0
  -27.0110  -30.4430   24.7720 C   0  0  0  0  0  1  0  0  0  0  0  0
  -27.5640  -32.6210   25.8180 C   0  0  0  0  0  1  0  0  0  0  0  0
  -27.4780  -17.1880   19.5960 N   0  0  0  0  0  0  0  0  0  0  0  0
  -26.7110  -17.7100   19.1850 H   0  0  0  0  0  0  0  0  0  0  0  0
  -27.7940  -16.4860   18.9360 H   0  0  0  0  0  0  0  0  0  0  0  0
  2  1  1  0
  3  4  1  0
  4 49  1  0
  4  1  2  0
  5 15  1  0
  5  2  2  0
  6  3  2  0
  6  5  1  0
  7 15  1  0
  8 13  1  0
  9 10  1  0
  9  8  1  0
 11 10  1  0
 11 20  1  0
 11 12  1  0
 13  7  1  0
 13 12  1  0
 14  7  2  0
 15 16  1  0
 17 18  2  0
 18 37  1  0
 19 18  1  0
 19 22  1  0
 20 17  1  0
 20 21  1  0
 21 19  2  0
 22 23  1  0
 23 24  2  0
 25 28  1  0
 25 24  1  0
 26 25  2  0
 27 26  1  0
 27 22  2  0
 28 29  1  0
 29 30  1  0
 30 31  2  0
 32 31  1  0
 32 36  1  0
 33 32  2  0
 34 29  2  0
 34 33  1  0
 35 34  1  0
 37 38  1  0
 38 41  1  0
 38 40  1  0
 39 37  2  0
 42 43  1  0
 42 17  1  0
 44 42  1  0
 45 47  2  0
 45 46  1  0
 46 50  2  0
 48 45  1  0
 48 49  1  0
 49 46  1  0
 51 47  1  0
 52 63  2  0
 53 51  1  0
 53 58  1  0
 54 62  1  0
 54 64  1  0
 55 61  1  0
 55 57  1  0
 56 62  1  0
 57 58  2  0
 57 56  1  0
 59 53  2  0
 60 59  1  0
 60 55  2  0
 61 54  1  0
 62 52  1  0
 64 66  2  0
 65 64  1  0
 67 65  1  0
 68 77  2  0
 68 73  1  0
 69 65  1  0
 69 73  1  0
 70 69  1  0
 71 72  1  0
 71 70  1  0
 72 68  1  0
 73 74  2  0
 74 75  1  0
 76 75  2  0
 77 76  1  0
 78 52  1  0
 78 79  1  0
 78 88  1  0
 79 82  1  0
 80 84  1  0
 80 79  1  0
 81 80  2  0
 84 83  1  0
 86 84  1  0
 86 87  1  0
 86 85  1  0
 88 91  1  1
 88 89  1  0
 90 88  1  0
 92  6  1  0
 93 92  1  0
 94 92  1  0
M  ISO  4   7 100  15 100  47 101  51 101
M  END
>  <TORSDO>  (74) 
F 18

>  <SCORE>  (74) 
-15.146

>  <name>  (74) 
73

>  <ligand_id>  (74) 
73

>  <original_smiles>  (74) 
[H]C(Oc1c([H])c([H])c2c(c1[H])C([H])([H])N(C(=O)C([H])(N([H])C(=O)C([H])(N([H])C([H])([H])[H])C([H])([H])[H])C(C([H])([H])[H])(C([H])([H])[H])C([H])([H])[H])C([H])(C(=O)N([H])C1([H])c3c([H])c([H])c([H])c([H])c3C([H])([H])C([H])([H])C1([H])[H])C2([H])[H])=C1C(=O)N(c2c([H])c([H])c(N([H])C(=O)N3C([H])([H])C([H])([H])C([H])([H])C([H])(n4nc(-c5c([H])c([H])c(Oc6c([H])c([H])c(F)c([H])c6F)c([H])c5[H])c(C(=O)N([H])[H])c4N([H])[H])C3([H])[H])c(N([H])[H])c2[H])C1([H])[H]

>  <smiles>  (74) 
[H]C(Oc1c([H])c([H])c2c(c1[H])C([H])([H])N(C(=O)C([H])(N([H])C(=O)C([H])(N([H])C([H])([H])[H])C([H])([H])[H])C(C([H])([H])[H])(C([H])([H])[H])C([H])([H])[H])C([H])(C(=O)N([H])C1([H])c3c([H])c([H])c([H])c([H])c3C([H])([H])C([H])([H])C1([H])[H])C2([H])[H])=C1C(=O)N(c2c([H])c([H])c(N([H])C(=O)N3C([H])([H])C([H])([H])C([H])([H])C([H])(n4nc(-c5c([H])c([H])c(Oc6c([H])c([H])c(F)c([H])c6F)c([H])c5[H])c(C(=O)N([H])[H])c4N([H])[H])C3([H])[H])c(N([H])[H])c2[H])C1([H])[H]

$$$$
74:0:0
     RDKit          3D

 97105  0  0  1  0  0  0  0  0999 V2000
  -29.1420  -22.7420   20.2860 C   0  0  0  0  0  0  0  0  0  0  0  0
  -30.1470  -22.0130   19.7280 N   0  0  0  0  0  0  0  0  0  0  0  0
  -28.2500  -22.2240   20.9600 O   0  0  0  0  0  0  0  0  0  0  0  0
  -30.7560  -22.6360   19.2110 H   0  0  0  0  0  0  0  0  0  0  0  0
  -32.6020  -19.2130   19.4350 C   0  0  0  0  0  3  0  0  0  0  0  0
  -31.9440  -18.0830   19.9550 C   0  0  0  0  0  3  0  0  0  0  0  0
  -31.9590  -20.4630   19.3740 C   0  0  0  0  0  3  0  0  0  0  0  0
  -29.9600  -19.4680   20.3220 C   0  0  0  0  0  3  0  0  0  0  0  0
  -30.6080  -18.1710   20.3960 C   0  0  0  0  0  0  0  0  0  0  0  0
  -30.6350  -20.6400   19.8350 C   0  0  0  0  0  0  0  0  0  0  0  0
  -30.7780  -14.6450   20.1010 C   0  0  0  0  0  0  0  0  0  0  0  0
  -30.5340  -12.4660   18.9090 C   0  0  0  0  0  2  0  0  0  0  0  0
  -29.5020  -12.6380   17.7710 C   0  0  0  0  0  2  0  0  0  0  0  0
  -28.0590  -12.4550   18.2860 C   0  0  0  0  0  2  0  0  0  0  0  0
  -27.7870  -13.2590   19.5850 C   0  0  0  0  0  3  0  0  0  0  0  0
  -28.9140  -13.0220   20.6160 C   0  0  0  0  0  2  0  0  0  0  0  0
  -30.1880  -13.4120   19.9860 N   0  0  0  0  0  0  0  0  0  0  0  0
  -31.8430  -14.9240   19.5370 O   0  0  0  0  0  0  0  0  0  0  0  0
  -29.9460  -16.9870   21.0600 C   0  0  0  0  0  0  0  0  0  0  0  0
  -29.9990  -15.6210   20.8660 N   0  0  0  0  0  0  0  0  0  0  0  0
  -29.1260  -17.3510   22.0560 N   0  0  0  0  0  4  0  0  0  0  0  0
  -29.2240  -15.2140   21.3480 H   0  0  0  0  0  0  0  0  0  0  0  0
  -29.0890  -18.3320   22.2850 H   0  0  0  0  0  0  0  0  0  0  0  0
  -28.6640  -16.7160   22.6870 H   0  0  0  0  0  0  0  0  0  0  0  0
  -25.4450  -13.8410   20.4810 C   0  0  0  0  0  0  0  0  0  0  0  0
  -24.4010  -13.0570   20.8900 C   0  0  0  0  0  0  0  0  0  0  0  0
  -24.8500  -11.7070   20.7700 C   0  0  0  0  0  0  0  0  0  0  0  0
  -26.4670  -12.9660   20.1410 N   0  0  0  0  0  0  0  0  0  0  0  0
  -26.1170  -11.6760   20.3730 N   0  0  0  0  0  0  0  0  0  0  0  0
  -24.1300  -10.4410   20.9560 C   0  0  0  0  0  0  0  0  0  0  0  0
  -24.5640   -9.4770   21.8920 C   0  0  0  0  0  3  0  0  0  0  0  0
  -23.8450   -8.2740   22.0640 C   0  0  0  0  0  3  0  0  0  0  0  0
  -22.6790   -8.0280   21.3010 C   0  0  0  0  0  0  0  0  0  0  0  0
  -22.2640   -8.9820   20.3550 C   0  0  0  0  0  3  0  0  0  0  0  0
  -22.9830  -10.1760   20.1800 C   0  0  0  0  0  3  0  0  0  0  0  0
  -21.9310   -6.8780   21.3840 O   0  0  0  0  0  0  0  0  0  0  0  0
  -21.8060   -6.1850   22.5610 C   0  0  0  0  0  0  0  0  0  0  0  0
  -21.2710   -6.7810   23.7240 C   0  0  0  0  0  3  0  0  0  0  0  0
  -21.0950   -6.0120   24.8920 C   0  0  0  0  0  3  0  0  0  0  0  0
  -21.4430   -4.6470   24.8970 C   0  0  0  0  0  0  0  0  0  0  0  0
  -21.9690   -4.0500   23.7380 C   0  0  0  0  0  3  0  0  0  0  0  0
  -22.1470   -4.8170   22.5720 C   0  0  0  0  0  0  0  0  0  0  0  0
  -22.6360   -4.2320   21.4520 F   0  0  0  0  0  0  0  0  0  0  0  0
  -21.2650   -3.9070   26.0160 F   0  0  0  0  0  0  0  0  0  0  0  0
  -23.0280  -13.5280   21.2760 C   0  0  0  0  0  0  0  0  0  0  0  0
  -22.3580  -12.8020   22.1640 N   0  0  0  0  0  0  0  0  0  0  0  0
  -22.5590  -14.5730   20.8260 O   0  0  0  0  0  0  0  0  0  0  0  0
  -22.7490  -11.9560   22.5530 H   0  0  0  0  0  0  0  0  0  0  0  0
  -21.4390  -13.0980   22.4610 H   0  0  0  0  0  0  0  0  0  0  0  0
  -25.6070  -15.2180   20.3500 N   0  0  0  0  0  0  0  0  0  0  0  0
  -24.8360  -15.8560   20.5180 H   0  0  0  0  0  0  0  0  0  0  0  0
  -26.4000  -15.6670   19.9120 H   0  0  0  0  0  0  0  0  0  0  0  0
  -28.3580  -25.1480   20.4060 C   0  0  0  0  0  3  0  0  0  0  0  0
  -29.2580  -24.2060   19.9820 C   0  0  0  0  0  0  0  0  0  0  0  0
  -30.3070  -24.6260   19.2570 O   0  0  0  0  0  0  0  0  0  0  0  0
  -30.2150  -25.5670   19.1670 H   0  0  0  0  0  0  0  0  0  0  0  0
  -28.4700  -26.5320   20.1690 O   0  0  0  0  0  0  0  0  0  0  0  0
  -24.5710  -31.8260   23.1520 C   0  0  0  0  0  0  0  0  0  0  0  0
  -27.3220  -27.3280   20.1560 C   0  0  0  0  0  0  0  0  0  0  0  0
  -23.4190  -30.4010   21.4950 C   0  0  0  0  0  3  0  0  0  0  0  0
  -24.9220  -28.8690   20.1030 C   0  0  0  0  0  0  0  0  0  0  0  0
  -25.9530  -30.7700   21.3540 C   0  0  0  0  0  2  0  0  0  0  0  0
  -26.0690  -29.3910   20.7180 C   0  0  0  0  0  0  0  0  0  0  0  0
  -27.2720  -28.6290   20.7370 C   0  0  0  0  0  3  0  0  0  0  0  0
  -26.1560  -26.8490   19.5210 C   0  0  0  0  0  3  0  0  0  0  0  0
  -24.9650  -27.6030   19.4990 C   0  0  0  0  0  3  0  0  0  0  0  0
  -23.6680  -29.7210   20.1220 C   0  0  0  0  0  2  0  0  0  0  0  0
  -24.6650  -31.0160   22.0570 N   0  0  0  0  0  0  0  0  0  0  0  0
  -23.4750  -32.0870   23.6680 O   0  0  0  0  0  0  0  0  0  0  0  0
  -22.7580  -29.3780   22.4470 C   0  0  0  0  0  0  0  0  0  0  0  0
  -21.4320  -29.2050   22.3210 N   0  0  0  0  0  0  0  0  0  0  0  0
  -23.4380  -28.7420   23.2580 O   0  0  0  0  0  0  0  0  0  0  0  0
  -20.9450  -29.7680   21.6390 H   0  0  0  0  0  0  0  0  0  0  0  0
  -18.0500  -28.0250   22.8240 C   0  0  0  0  0  0  0  0  0  0  0  0
  -20.6120  -28.2630   23.0850 C   0  0  0  0  0  3  0  0  0  0  0  0
  -20.7000  -26.8380   22.4910 C   0  0  0  0  0  2  0  0  0  0  0  0
  -19.5910  -26.5360   21.4780 C   0  0  0  0  0  2  0  0  0  0  0  0
  -18.2140  -26.6840   22.1310 C   0  0  0  0  0  2  0  0  0  0  0  0
  -19.1770  -28.7740   23.2580 C   0  0  0  0  0  0  0  0  0  0  0  0
  -18.9700  -30.0310   23.8670 C   0  0  0  0  0  3  0  0  0  0  0  0
  -17.6700  -30.5400   24.0450 C   0  0  0  0  0  3  0  0  0  0  0  0
  -16.5580  -29.7880   23.6280 C   0  0  0  0  0  3  0  0  0  0  0  0
  -16.7490  -28.5320   23.0240 C   0  0  0  0  0  3  0  0  0  0  0  0
  -25.8340  -32.4810   23.7940 C   0  0  0  0  0  3  0  0  0  0  0  0
  -26.3540  -31.7080   25.0680 C   0  0  1  0  0  0  0  0  0  0  0  0
  -25.2550  -31.4320   26.1200 C   0  0  0  0  0  1  0  0  0  0  0  0
  -26.9750  -30.3490   24.6680 C   0  0  0  0  0  1  0  0  0  0  0  0
  -27.4780  -32.5220   25.7510 C   0  0  0  0  0  1  0  0  0  0  0  0
  -25.4900  -33.8680   24.1350 N   0  0  0  0  0  0  0  0  0  0  0  0
  -25.8180  -34.9380   23.3990 C   0  0  0  0  0  0  0  0  0  0  0  0
  -26.5120  -34.8620   22.3820 O   0  0  0  0  0  0  0  0  0  0  0  0
  -24.8740  -33.9990   24.9250 H   0  0  0  0  0  0  0  0  0  0  0  0
  -24.0750  -36.7110   23.0180 C   0  0  0  0  0  1  0  0  0  0  0  0
  -25.2930  -36.3090   23.8650 C   0  0  0  0  0  3  0  0  0  0  0  0
  -27.3830  -37.2100   24.7880 C   0  0  0  0  0  1  0  0  0  0  0  0
  -26.3120  -37.3800   23.8090 N   0  0  0  0  0  0  0  0  0  0  0  0
  -25.8860  -38.2910   23.9620 H   0  0  0  0  0  0  0  0  0  0  0  0
  1  3  2  0
  2 10  1  0
  2  1  1  0
  4  2  1  0
  5  6  1  0
  6  9  2  0
  7  5  2  0
  7 10  1  0
  8  9  1  0
  9 19  1  0
 10  8  2  0
 11 20  1  0
 12 17  1  0
 13 14  1  0
 13 12  1  0
 15 14  1  0
 15 28  1  0
 15 16  1  0
 17 11  1  0
 17 16  1  0
 18 11  2  0
 19 21  2  0
 20 19  1  0
 20 22  1  0
 21 23  1  0
 21 24  1  0
 25 26  2  0
 26 45  1  0
 27 26  1  0
 27 30  1  0
 28 29  1  0
 28 25  1  0
 29 27  2  0
 30 31  1  0
 31 32  2  0
 33 36  1  0
 33 32  1  0
 34 33  2  0
 35 34  1  0
 35 30  2  0
 36 37  1  0
 37 42  2  0
 37 38  1  0
 38 39  2  0
 39 40  1  0
 40 44  1  0
 41 40  2  0
 42 41  1  0
 43 42  1  0
 45 46  1  0
 46 49  1  0
 46 48  1  0
 47 45  2  0
 50 25  1  0
 50 51  1  0
 52 50  1  0
 54  1  1  0
 54 53  2  0
 55 54  1  0
 56 55  1  0
 57 53  1  0
 58 69  2  0
 59 57  1  0
 59 64  1  0
 60 68  1  0
 60 70  1  0
 61 67  1  0
 61 63  1  0
 62 68  1  0
 63 64  2  0
 63 62  1  0
 65 59  2  0
 66 65  1  0
 66 61  2  0
 67 60  1  0
 68 58  1  0
 70 72  2  0
 71 70  1  0
 73 71  1  0
 74 83  2  0
 74 79  1  0
 75 71  1  0
 75 79  1  0
 76 75  1  0
 77 78  1  0
 77 76  1  0
 78 74  1  0
 79 80  2  0
 80 81  1  0
 82 81  2  0
 83 82  1  0
 84 58  1  0
 84 89  1  0
 84 85  1  0
 85 88  1  1
 85 86  1  0
 87 85  1  0
 89 92  1  0
 90 94  1  0
 90 89  1  0
 91 90  2  0
 94 93  1  0
 96 94  1  0
 96 97  1  0
 96 95  1  0
M  ISO  4  11 100  20 100  53 101  57 101
M  END
>  <TORSDO>  (75) 
F 19

>  <SCORE>  (75) 
-13.612

>  <name>  (75) 
74

>  <ligand_id>  (75) 
74

>  <original_smiles>  (75) 
[H]OC(C(=O)N([H])c1c([H])c([H])c([H])c(C(N([H])C(=O)N2C([H])([H])C([H])([H])C([H])([H])C([H])(n3nc(-c4c([H])c([H])c(Oc5c([H])c([H])c(F)c([H])c5F)c([H])c4[H])c(C(=O)N([H])[H])c3N([H])[H])C2([H])[H])=[N+]([H])[H])c1[H])=C([H])Oc1c([H])c([H])c2c(c1[H])C([H])([H])N(C(=O)C([H])(N([H])C(=O)C([H])(N([H])C([H])([H])[H])C([H])([H])[H])C(C([H])([H])[H])(C([H])([H])[H])C([H])([H])[H])C([H])(C(=O)N([H])C1([H])c3c([H])c([H])c([H])c([H])c3C([H])([H])C([H])([H])C1([H])[H])C2([H])[H]

>  <smiles>  (75) 
[H]OC(C(=O)N([H])c1c([H])c([H])c([H])c(C(N([H])C(=O)N2C([H])([H])C([H])([H])C([H])([H])C([H])(n3nc(-c4c([H])c([H])c(Oc5c([H])c([H])c(F)c([H])c5F)c([H])c4[H])c(C(=O)N([H])[H])c3N([H])[H])C2([H])[H])=[N+]([H])[H])c1[H])=C([H])Oc1c([H])c([H])c2c(c1[H])C([H])([H])N(C(=O)C([H])(N([H])C(=O)C([H])(N([H])C([H])([H])[H])C([H])([H])[H])C(C([H])([H])[H])(C([H])([H])[H])C([H])([H])[H])C([H])(C(=O)N([H])C1([H])c3c([H])c([H])c([H])c([H])c3C([H])([H])C([H])([H])C1([H])[H])C2([H])[H]

$$$$
75:0:0
     RDKit          3D

 92101  0  0  1  0  0  0  0  0999 V2000
  -28.7950  -23.8430   20.2670 C   0  0  0  0  0  0  0  0  0  0  0  0
  -28.6320  -22.6300   21.0710 C   0  0  0  0  0  0  0  0  0  0  0  0
  -28.3970  -25.1470   20.5910 C   0  0  0  0  0  3  0  0  0  0  0  0
  -29.5060  -22.9700   19.1850 C   0  0  0  0  0  2  0  0  0  0  0  0
  -29.1780  -21.8020   20.0630 N   0  0  0  0  0  0  0  0  0  0  0  0
  -28.2210  -22.4810   22.2030 O   0  0  0  0  0  0  0  0  0  0  0  0
  -30.3870  -19.7470   20.9760 C   0  0  0  0  0  3  0  0  0  0  0  0
  -29.3230  -19.4180   18.9160 C   0  0  0  0  0  3  0  0  0  0  0  0
  -30.7340  -18.3590   21.0220 C   0  0  0  0  0  3  0  0  0  0  0  0
  -29.6370  -18.0010   18.9630 C   0  0  0  0  0  3  0  0  0  0  0  0
  -29.6280  -20.3760   19.9460 C   0  0  0  0  0  0  0  0  0  0  0  0
  -30.3260  -17.3860   20.0550 C   0  0  0  0  0  0  0  0  0  0  0  0
  -30.9630  -14.8910   19.4300 C   0  0  0  0  0  0  0  0  0  0  0  0
  -30.5890  -12.6600   18.3110 C   0  0  0  0  0  2  0  0  0  0  0  0
  -29.4310  -12.7370   17.2880 C   0  0  0  0  0  2  0  0  0  0  0  0
  -28.0680  -12.5070   17.9710 C   0  0  0  0  0  2  0  0  0  0  0  0
  -27.9190  -13.3380   19.2690 C   0  0  0  0  0  3  0  0  0  0  0  0
  -29.1620  -13.1910   20.1640 C   0  0  0  0  0  2  0  0  0  0  0  0
  -30.3340  -13.6500   19.3920 N   0  0  0  0  0  0  0  0  0  0  0  0
  -31.9330  -15.0870   18.6890 O   0  0  0  0  0  0  0  0  0  0  0  0
  -30.5140  -15.9010   20.2990 N   0  0  0  0  0  0  0  0  0  0  0  0
  -25.7670  -13.8750   20.5600 C   0  0  0  0  0  0  0  0  0  0  0  0
  -24.7680  -13.0800   21.0490 C   0  0  0  0  0  0  0  0  0  0  0  0
  -25.1510  -11.7360   20.7500 C   0  0  0  0  0  0  0  0  0  0  0  0
  -26.6930  -13.0140   19.9920 N   0  0  0  0  0  0  0  0  0  0  0  0
  -26.3420  -11.7150   20.1660 N   0  0  0  0  0  0  0  0  0  0  0  0
  -24.4230  -10.4730   20.9340 C   0  0  0  0  0  0  0  0  0  0  0  0
  -24.8890   -9.4710   21.8140 C   0  0  0  0  0  3  0  0  0  0  0  0
  -24.1610   -8.2750   21.9850 C   0  0  0  0  0  3  0  0  0  0  0  0
  -22.9530   -8.0700   21.2790 C   0  0  0  0  0  0  0  0  0  0  0  0
  -22.5040   -9.0610   20.3870 C   0  0  0  0  0  3  0  0  0  0  0  0
  -23.2330  -10.2500   20.2130 C   0  0  0  0  0  3  0  0  0  0  0  0
  -22.1920   -6.9290   21.3620 O   0  0  0  0  0  0  0  0  0  0  0  0
  -22.0390   -6.2530   22.5460 C   0  0  0  0  0  0  0  0  0  0  0  0
  -21.5030   -6.8730   23.6950 C   0  0  0  0  0  3  0  0  0  0  0  0
  -21.2970   -6.1220   24.8690 C   0  0  0  0  0  3  0  0  0  0  0  0
  -21.6170   -4.7520   24.8950 C   0  0  0  0  0  0  0  0  0  0  0  0
  -22.1460   -4.1310   23.7500 C   0  0  0  0  0  3  0  0  0  0  0  0
  -22.3530   -4.8790   22.5770 C   0  0  0  0  0  0  0  0  0  0  0  0
  -22.8420   -4.2700   21.4700 F   0  0  0  0  0  0  0  0  0  0  0  0
  -21.4130   -4.0280   26.0210 F   0  0  0  0  0  0  0  0  0  0  0  0
  -23.4830  -13.5420   21.6740 C   0  0  0  0  0  0  0  0  0  0  0  0
  -22.9440  -12.7720   22.6120 N   0  0  0  0  0  0  0  0  0  0  0  0
  -22.9750  -14.6190   21.3650 O   0  0  0  0  0  0  0  0  0  0  0  0
  -23.3730  -11.8980   22.8790 H   0  0  0  0  0  0  0  0  0  0  0  0
  -22.0910  -13.0590   23.0700 H   0  0  0  0  0  0  0  0  0  0  0  0
  -25.9580  -15.2530   20.5290 N   0  0  0  0  0  0  0  0  0  0  0  0
  -25.2750  -15.9060   20.9000 H   0  0  0  0  0  0  0  0  0  0  0  0
  -26.7640  -15.7110   20.1220 H   0  0  0  0  0  0  0  0  0  0  0  0
  -29.8410  -16.0840   22.6550 C   0  0  0  0  0  2  0  0  0  0  0  0
  -30.5540  -15.5230   21.6600 C   0  0  0  0  0  3  0  0  0  0  0  0
  -28.5570  -26.4320   19.9900 O   0  0  0  0  0  0  0  0  0  0  0  0
  -24.7520  -31.8490   23.0940 C   0  0  0  0  0  0  0  0  0  0  0  0
  -27.4620  -27.3290   20.0100 C   0  0  0  0  0  0  0  0  0  0  0  0
  -23.5840  -30.4390   21.4400 C   0  0  0  0  0  3  0  0  0  0  0  0
  -25.0720  -28.9240   20.0050 C   0  0  0  0  0  0  0  0  0  0  0  0
  -26.1200  -30.8010   21.2670 C   0  0  0  0  0  2  0  0  0  0  0  0
  -26.2330  -29.4240   20.6100 C   0  0  0  0  0  0  0  0  0  0  0  0
  -27.4350  -28.6400   20.6000 C   0  0  0  0  0  3  0  0  0  0  0  0
  -26.2760  -26.8950   19.3840 C   0  0  0  0  0  3  0  0  0  0  0  0
  -25.0970  -27.6670   19.3810 C   0  0  0  0  0  3  0  0  0  0  0  0
  -23.8170  -29.7780   20.0560 C   0  0  0  0  0  2  0  0  0  0  0  0
  -24.8370  -31.0480   21.9900 N   0  0  0  0  0  0  0  0  0  0  0  0
  -23.6620  -32.0980   23.6280 O   0  0  0  0  0  0  0  0  0  0  0  0
  -22.9370  -29.4020   22.3920 C   0  0  0  0  0  0  0  0  0  0  0  0
  -21.6130  -29.2020   22.2660 N   0  0  0  0  0  0  0  0  0  0  0  0
  -23.6270  -28.7820   23.2050 O   0  0  0  0  0  0  0  0  0  0  0  0
  -21.1140  -29.7550   21.5830 H   0  0  0  0  0  0  0  0  0  0  0  0
  -18.2660  -27.9060   22.7340 C   0  0  0  0  0  0  0  0  0  0  0  0
  -20.8140  -28.2410   23.0280 C   0  0  0  0  0  3  0  0  0  0  0  0
  -20.9630  -26.8130   22.4530 C   0  0  0  0  0  2  0  0  0  0  0  0
  -19.8810  -26.4590   21.4290 C   0  0  0  0  0  2  0  0  0  0  0  0
  -18.4890  -26.5630   22.0590 C   0  0  0  0  0  2  0  0  0  0  0  0
  -19.3580  -28.7010   23.1740 C   0  0  0  0  0  0  0  0  0  0  0  0
  -19.0960  -29.9560   23.7660 C   0  0  0  0  0  3  0  0  0  0  0  0
  -17.7740  -30.4160   23.9200 C   0  0  0  0  0  3  0  0  0  0  0  0
  -16.6980  -29.6200   23.4940 C   0  0  0  0  0  3  0  0  0  0  0  0
  -16.9440  -28.3670   22.9070 C   0  0  0  0  0  3  0  0  0  0  0  0
  -26.0180  -32.5050   23.7250 C   0  0  0  0  0  3  0  0  0  0  0  0
  -25.6660  -33.8830   24.0990 N   0  0  0  0  0  0  0  0  0  0  0  0
  -25.9620  -34.9700   23.3740 C   0  0  0  0  0  0  0  0  0  0  0  0
  -26.6290  -34.9200   22.3370 O   0  0  0  0  0  0  0  0  0  0  0  0
  -25.0690  -33.9930   24.9060 H   0  0  0  0  0  0  0  0  0  0  0  0
  -24.1870  -36.7280   23.0780 C   0  0  0  0  0  1  0  0  0  0  0  0
  -25.4370  -36.3280   23.8780 C   0  0  0  0  0  3  0  0  0  0  0  0
  -27.5470  -37.2390   24.7420 C   0  0  0  0  0  1  0  0  0  0  0  0
  -26.4410  -37.4120   23.8060 N   0  0  0  0  0  0  0  0  0  0  0  0
  -26.0110  -38.3150   23.9860 H   0  0  0  0  0  0  0  0  0  0  0  0
  -26.5690  -31.7160   24.9760 C   0  0  1  0  0  0  0  0  0  0  0  0
  -25.4890  -31.4030   26.0390 C   0  0  0  0  0  1  0  0  0  0  0  0
  -27.2010  -30.3730   24.5420 C   0  0  0  0  0  1  0  0  0  0  0  0
  -27.6910  -32.5320   25.6590 C   0  0  0  0  0  1  0  0  0  0  0  0
  1  3  2  0
  1  2  1  0
  2  6  2  0
  4  5  1  0
  4  1  1  0
  5  2  1  0
  7  9  1  0
  8 10  2  0
  8 11  1  0
 10 12  1  0
 11  5  1  0
 11  7  2  0
 12 21  1  0
 12  9  2  0
 13 21  1  0
 14 19  1  0
 15 16  1  0
 15 14  1  0
 17 16  1  0
 17 25  1  0
 17 18  1  0
 19 13  1  0
 19 18  1  0
 20 13  2  0
 21 51  1  0
 22 23  2  0
 23 42  1  0
 24 27  1  0
 24 23  1  0
 25 26  1  0
 25 22  1  0
 26 24  2  0
 27 28  1  0
 28 29  2  0
 30 33  1  0
 30 29  1  0
 31 30  2  0
 32 31  1  0
 32 27  2  0
 33 34  1  0
 34 39  2  0
 34 35  1  0
 35 36  2  0
 36 37  1  0
 37 41  1  0
 38 37  2  0
 39 38  1  0
 40 39  1  0
 42 43  1  0
 43 45  1  0
 43 46  1  0
 44 42  2  0
 47 22  1  0
 47 48  1  0
 49 47  1  0
 51 50  2  0
 52 54  1  0
 52  3  1  0
 53 64  2  0
 54 59  1  0
 55 63  1  0
 55 65  1  0
 56 62  1  0
 56 58  1  0
 57 63  1  0
 58 57  1  0
 59 58  2  0
 60 54  2  0
 61 60  1  0
 61 56  2  0
 62 55  1  0
 63 53  1  0
 65 67  2  0
 66 65  1  0
 68 66  1  0
 69 78  2  0
 69 74  1  0
 70 66  1  0
 70 74  1  0
 71 70  1  0
 72 73  1  0
 72 71  1  0
 73 69  1  0
 74 75  2  0
 75 76  1  0
 77 76  2  0
 78 77  1  0
 79 53  1  0
 79 80  1  0
 79 89  1  0
 80 83  1  0
 81 85  1  0
 81 80  1  0
 82 81  2  0
 85 84  1  0
 87 85  1  0
 87 88  1  0
 87 86  1  0
 89 92  1  1
 89 90  1  0
 91 89  1  0
M  ISO  4   3 101  13 100  21 100  52 101
M  END
>  <TORSDO>  (76) 
F 18

>  <SCORE>  (76) 
-11.151

>  <name>  (76) 
75

>  <ligand_id>  (76) 
75

>  <original_smiles>  (76) 
[H]C([H])=C([H])N(C(=O)N1C([H])([H])C([H])([H])C([H])([H])C([H])(n2nc(-c3c([H])c([H])c(Oc4c([H])c([H])c(F)c([H])c4F)c([H])c3[H])c(C(=O)N([H])[H])c2N([H])[H])C1([H])[H])c1c([H])c([H])c(N2C(=O)C(=C([H])Oc3c([H])c([H])c4c(c3[H])C([H])([H])N(C(=O)C([H])(N([H])C(=O)C([H])(N([H])C([H])([H])[H])C([H])([H])[H])C(C([H])([H])[H])(C([H])([H])[H])C([H])([H])[H])C([H])(C(=O)N([H])C3([H])c5c([H])c([H])c([H])c([H])c5C([H])([H])C([H])([H])C3([H])[H])C4([H])[H])C2([H])[H])c([H])c1[H]

>  <smiles>  (76) 
[H]C([H])=C([H])N(C(=O)N1C([H])([H])C([H])([H])C([H])([H])C([H])(n2nc(-c3c([H])c([H])c(Oc4c([H])c([H])c(F)c([H])c4F)c([H])c3[H])c(C(=O)N([H])[H])c2N([H])[H])C1([H])[H])c1c([H])c([H])c(N2C(=O)C(=C([H])Oc3c([H])c([H])c4c(c3[H])C([H])([H])N(C(=O)C([H])(N([H])C(=O)C([H])(N([H])C([H])([H])[H])C([H])([H])[H])C(C([H])([H])[H])(C([H])([H])[H])C([H])([H])[H])C([H])(C(=O)N([H])C3([H])c5c([H])c([H])c([H])c([H])c5C([H])([H])C([H])([H])C3([H])[H])C4([H])[H])C2([H])[H])c([H])c1[H]

$$$$
76:0:0
     RDKit          3D

 91100  0  0  1  0  0  0  0  0999 V2000
  -28.4640  -23.6470   20.3990 C   0  0  0  0  0  0  0  0  0  0  0  0
  -28.1020  -22.3320   20.9850 C   0  0  0  0  0  0  0  0  0  0  0  0
  -27.9550  -24.9450   20.6490 C   0  0  0  0  0  3  0  0  0  0  0  0
  -29.5100  -22.8950   19.5360 C   0  0  0  0  0  2  0  0  0  0  0  0
  -29.0520  -21.6210   20.1950 N   0  0  0  0  0  0  0  0  0  0  0  0
  -27.2890  -22.0470   21.8420 O   0  0  0  0  0  0  0  0  0  0  0  0
  -31.3950  -19.0860   18.5640 C   0  0  0  0  0  3  0  0  0  0  0  0
  -30.6980  -20.2320   18.9830 C   0  0  0  0  0  3  0  0  0  0  0  0
  -31.0980  -17.8090   19.0620 C   0  0  0  0  0  3  0  0  0  0  0  0
  -29.3710  -18.8470   20.4170 C   0  0  0  0  0  3  0  0  0  0  0  0
  -29.6400  -20.2320   19.9260 C   0  0  0  0  0  0  0  0  0  0  0  0
  -30.0910  -17.6020   20.0270 C   0  0  0  0  0  0  0  0  0  0  0  0
  -30.5990  -14.9710   20.3140 C   0  0  0  0  0  0  0  0  0  0  0  0
  -30.4420  -12.6390   19.3820 C   0  0  0  0  0  2  0  0  0  0  0  0
  -29.5120  -12.6430   18.1480 C   0  0  0  0  0  2  0  0  0  0  0  0
  -28.0450  -12.4480   18.5740 C   0  0  0  0  0  2  0  0  0  0  0  0
  -27.6490  -13.3550   19.7700 C   0  0  0  0  0  3  0  0  0  0  0  0
  -28.7040  -13.3430   20.8970 C   0  0  0  0  0  2  0  0  0  0  0  0
  -29.9850  -13.7250   20.2910 N   0  0  0  0  0  0  0  0  0  0  0  0
  -31.8030  -15.0080   20.0410 O   0  0  0  0  0  0  0  0  0  0  0  0
  -29.8390  -16.1610   20.4690 N   0  0  0  0  0  0  0  0  0  0  0  0
  -28.9160  -15.9970   20.8400 H   0  0  0  0  0  0  0  0  0  0  0  0
  -25.2700  -13.9250   20.5180 C   0  0  0  0  0  0  0  0  0  0  0  0
  -24.2070  -13.1460   20.8810 C   0  0  0  0  0  0  0  0  0  0  0  0
  -24.6730  -11.7970   20.8430 C   0  0  0  0  0  0  0  0  0  0  0  0
  -26.3130  -13.0510   20.2680 N   0  0  0  0  0  0  0  0  0  0  0  0
  -25.9640  -11.7640   20.5320 N   0  0  0  0  0  0  0  0  0  0  0  0
  -23.9490  -10.5320   21.0250 C   0  0  0  0  0  0  0  0  0  0  0  0
  -24.3630   -9.5710   21.9740 C   0  0  0  0  0  3  0  0  0  0  0  0
  -23.6370   -8.3720   22.1420 C   0  0  0  0  0  3  0  0  0  0  0  0
  -22.4820   -8.1260   21.3610 C   0  0  0  0  0  0  0  0  0  0  0  0
  -22.0910   -9.0740   20.4000 C   0  0  0  0  0  3  0  0  0  0  0  0
  -22.8170  -10.2640   20.2300 C   0  0  0  0  0  3  0  0  0  0  0  0
  -21.7290   -6.9790   21.4400 O   0  0  0  0  0  0  0  0  0  0  0  0
  -21.6340   -6.2590   22.6030 C   0  0  0  0  0  0  0  0  0  0  0  0
  -21.1230   -6.8260   23.7910 C   0  0  0  0  0  3  0  0  0  0  0  0
  -20.9760   -6.0290   24.9450 C   0  0  0  0  0  3  0  0  0  0  0  0
  -21.3310   -4.6670   24.9110 C   0  0  0  0  0  0  0  0  0  0  0  0
  -21.8350   -4.1000   23.7280 C   0  0  0  0  0  3  0  0  0  0  0  0
  -21.9830   -4.8930   22.5770 C   0  0  0  0  0  0  0  0  0  0  0  0
  -22.4480   -4.3350   21.4330 F   0  0  0  0  0  0  0  0  0  0  0  0
  -21.1830   -3.9000   26.0170 F   0  0  0  0  0  0  0  0  0  0  0  0
  -22.8090  -13.6200   21.1530 C   0  0  0  0  0  0  0  0  0  0  0  0
  -22.0790  -12.9140   22.0100 N   0  0  0  0  0  0  0  0  0  0  0  0
  -22.3710  -14.6490   20.6390 O   0  0  0  0  0  0  0  0  0  0  0  0
  -22.4440  -12.0790   22.4430 H   0  0  0  0  0  0  0  0  0  0  0  0
  -21.1410  -13.2140   22.2350 H   0  0  0  0  0  0  0  0  0  0  0  0
  -25.4320  -15.2980   20.3510 N   0  0  0  0  0  0  0  0  0  0  0  0
  -24.6720  -15.9570   20.4820 H   0  0  0  0  0  0  0  0  0  0  0  0
  -26.2780  -15.7370   20.0100 H   0  0  0  0  0  0  0  0  0  0  0  0
  -28.2470  -26.2870   20.1840 O   0  0  0  0  0  0  0  0  0  0  0  0
  -24.6020  -31.9020   23.2280 C   0  0  0  0  0  0  0  0  0  0  0  0
  -27.2010  -27.2620   20.1680 C   0  0  0  0  0  0  0  0  0  0  0  0
  -23.4030  -30.5040   21.5890 C   0  0  0  0  0  3  0  0  0  0  0  0
  -24.8580  -28.9560   20.1490 C   0  0  0  0  0  0  0  0  0  0  0  0
  -25.9510  -30.8030   21.4100 C   0  0  0  0  0  2  0  0  0  0  0  0
  -26.0340  -29.4190   20.7570 C   0  0  0  0  0  0  0  0  0  0  0  0
  -27.2110  -28.5850   20.7550 C   0  0  0  0  0  3  0  0  0  0  0  0
  -26.0060  -26.8940   19.5170 C   0  0  0  0  0  3  0  0  0  0  0  0
  -24.8550  -27.7080   19.5100 C   0  0  0  0  0  3  0  0  0  0  0  0
  -23.6220  -29.8360   20.2050 C   0  0  0  0  0  2  0  0  0  0  0  0
  -24.6720  -31.0890   22.1310 N   0  0  0  0  0  0  0  0  0  0  0  0
  -23.5170  -32.1750   23.7620 O   0  0  0  0  0  0  0  0  0  0  0  0
  -22.7410  -29.4850   22.5490 C   0  0  0  0  0  0  0  0  0  0  0  0
  -21.4150  -29.2980   22.4230 N   0  0  0  0  0  0  0  0  0  0  0  0
  -23.4210  -28.8650   23.3690 O   0  0  0  0  0  0  0  0  0  0  0  0
  -20.9220  -29.8520   21.7350 H   0  0  0  0  0  0  0  0  0  0  0  0
  -18.0490  -28.0580   22.9210 C   0  0  0  0  0  0  0  0  0  0  0  0
  -20.6030  -28.3520   23.1940 C   0  0  0  0  0  3  0  0  0  0  0  0
  -20.7250  -26.9200   22.6240 C   0  0  0  0  0  2  0  0  0  0  0  0
  -19.6300  -26.5790   21.6080 C   0  0  0  0  0  2  0  0  0  0  0  0
  -18.2440  -26.7080   22.2480 C   0  0  0  0  0  2  0  0  0  0  0  0
  -19.1570  -28.8350   23.3510 C   0  0  0  0  0  0  0  0  0  0  0  0
  -18.9190  -30.0930   23.9420 C   0  0  0  0  0  3  0  0  0  0  0  0
  -17.6070  -30.5770   24.1040 C   0  0  0  0  0  3  0  0  0  0  0  0
  -16.5130  -29.7990   23.6880 C   0  0  0  0  0  3  0  0  0  0  0  0
  -16.7360  -28.5400   23.1020 C   0  0  0  0  0  3  0  0  0  0  0  0
  -25.8810  -32.5410   23.8500 C   0  0  0  0  0  3  0  0  0  0  0  0
  -25.5660  -33.9410   24.1780 N   0  0  0  0  0  0  0  0  0  0  0  0
  -25.8950  -34.9950   23.4210 C   0  0  0  0  0  0  0  0  0  0  0  0
  -26.5650  -34.8940   22.3890 O   0  0  0  0  0  0  0  0  0  0  0  0
  -24.9690  -34.0930   24.9780 H   0  0  0  0  0  0  0  0  0  0  0  0
  -24.1700  -36.7920   23.0640 C   0  0  0  0  0  1  0  0  0  0  0  0
  -25.4080  -36.3850   23.8790 C   0  0  0  0  0  3  0  0  0  0  0  0
  -27.5370  -37.2730   24.7190 C   0  0  0  0  0  1  0  0  0  0  0  0
  -26.4410  -37.4380   23.7680 N   0  0  0  0  0  0  0  0  0  0  0  0
  -26.0340  -38.3590   23.9080 H   0  0  0  0  0  0  0  0  0  0  0  0
  -26.3960  -31.7770   25.1310 C   0  0  1  0  0  0  0  0  0  0  0  0
  -25.3020  -31.5450   26.1980 C   0  0  0  0  0  1  0  0  0  0  0  0
  -26.9820  -30.3960   24.7520 C   0  0  0  0  0  1  0  0  0  0  0  0
  -27.5440  -32.5760   25.7920 C   0  0  0  0  0  1  0  0  0  0  0  0
  1  3  2  0
  1  2  1  0
  2  6  2  0
  4  5  1  0
  4  1  1  0
  5  2  1  0
  7  8  2  0
  7  9  1  0
  8 11  1  0
  9 12  2  0
 11  5  1  0
 11 10  2  0
 12 10  1  0
 12 21  1  0
 13 21  1  0
 14 19  1  0
 15 16  1  0
 15 14  1  0
 17 16  1  0
 17 26  1  0
 17 18  1  0
 19 13  1  0
 19 18  1  0
 20 13  2  0
 21 22  1  0
 23 24  2  0
 24 43  1  0
 25 24  1  0
 25 28  1  0
 26 23  1  0
 26 27  1  0
 27 25  2  0
 28 29  1  0
 29 30  2  0
 31 34  1  0
 31 30  1  0
 32 31  2  0
 33 32  1  0
 33 28  2  0
 34 35  1  0
 35 36  1  0
 36 37  2  0
 38 37  1  0
 38 42  1  0
 39 38  2  0
 40 35  2  0
 40 39  1  0
 41 40  1  0
 43 44  1  0
 44 47  1  0
 44 46  1  0
 45 43  2  0
 48 49  1  0
 48 23  1  0
 50 48  1  0
 51  3  1  0
 52 63  2  0
 53 51  1  0
 53 58  1  0
 54 62  1  0
 54 64  1  0
 55 61  1  0
 55 57  1  0
 56 62  1  0
 57 56  1  0
 58 57  2  0
 59 53  2  0
 60 59  1  0
 60 55  2  0
 61 54  1  0
 62 52  1  0
 64 66  2  0
 65 64  1  0
 67 65  1  0
 68 77  2  0
 68 73  1  0
 69 65  1  0
 69 73  1  0
 70 69  1  0
 71 72  1  0
 71 70  1  0
 72 68  1  0
 73 74  2  0
 74 75  1  0
 76 75  2  0
 77 76  1  0
 78 52  1  0
 78 79  1  0
 78 88  1  0
 79 82  1  0
 80 84  1  0
 80 79  1  0
 81 80  2  0
 84 83  1  0
 86 84  1  0
 86 87  1  0
 86 85  1  0
 88 91  1  1
 88 89  1  0
 90 88  1  0
M  ISO  4   3 101  13 100  21 100  51 101
M  END
>  <TORSDO>  (77) 
F 17

>  <SCORE>  (77) 
-14.945

>  <name>  (77) 
76

>  <ligand_id>  (77) 
76

>  <original_smiles>  (77) 
[H]C(Oc1c([H])c([H])c2c(c1[H])C([H])([H])N(C(=O)C([H])(N([H])C(=O)C([H])(N([H])C([H])([H])[H])C([H])([H])[H])C(C([H])([H])[H])(C([H])([H])[H])C([H])([H])[H])C([H])(C(=O)N([H])C1([H])c3c([H])c([H])c([H])c([H])c3C([H])([H])C([H])([H])C1([H])[H])C2([H])[H])=C1C(=O)N(c2c([H])c([H])c([H])c(N([H])C(=O)N3C([H])([H])C([H])([H])C([H])([H])C([H])(n4nc(-c5c([H])c([H])c(Oc6c([H])c([H])c(F)c([H])c6F)c([H])c5[H])c(C(=O)N([H])[H])c4N([H])[H])C3([H])[H])c2[H])C1([H])[H]

>  <smiles>  (77) 
[H]C(Oc1c([H])c([H])c2c(c1[H])C([H])([H])N(C(=O)C([H])(N([H])C(=O)C([H])(N([H])C([H])([H])[H])C([H])([H])[H])C(C([H])([H])[H])(C([H])([H])[H])C([H])([H])[H])C([H])(C(=O)N([H])C1([H])c3c([H])c([H])c([H])c([H])c3C([H])([H])C([H])([H])C1([H])[H])C2([H])[H])=C1C(=O)N(c2c([H])c([H])c([H])c(N([H])C(=O)N3C([H])([H])C([H])([H])C([H])([H])C([H])(n4nc(-c5c([H])c([H])c(Oc6c([H])c([H])c(F)c([H])c6F)c([H])c5[H])c(C(=O)N([H])[H])c4N([H])[H])C3([H])[H])c2[H])C1([H])[H]

$$$$
77:0:0
     RDKit          3D

 93102  0  0  1  0  0  0  0  0999 V2000
  -28.8400  -24.1350   21.2200 C   0  0  0  0  0  0  0  0  0  0  0  0
  -29.1210  -23.5990   22.5450 C   0  0  0  0  0  0  0  0  0  0  0  0
  -29.0010  -22.9630   20.2940 C   0  0  0  0  0  0  0  0  0  0  0  0
  -28.5310  -25.5000   21.1170 C   0  0  0  0  0  3  0  0  0  0  0  0
  -29.5740  -22.1600   22.4300 C   0  0  0  0  0  2  0  0  0  0  0  0
  -29.3740  -21.8230   21.0200 N   0  0  0  0  0  0  0  0  0  0  0  0
  -29.0500  -24.1920   23.6290 O   0  0  0  0  0  0  0  0  0  0  0  0
  -28.8320  -22.9740   19.0700 O   0  0  0  0  0  0  0  0  0  0  0  0
  -28.5330  -19.5660   20.1170 C   0  0  0  0  0  3  0  0  0  0  0  0
  -30.7160  -19.6410   21.0760 C   0  0  0  0  0  3  0  0  0  0  0  0
  -28.6330  -18.1330   20.0540 C   0  0  0  0  0  3  0  0  0  0  0  0
  -30.8300  -18.2070   20.9840 C   0  0  0  0  0  3  0  0  0  0  0  0
  -29.5610  -20.3820   20.6640 C   0  0  0  0  0  0  0  0  0  0  0  0
  -29.7710  -17.3890   20.4990 C   0  0  0  0  0  0  0  0  0  0  0  0
  -30.5720  -14.8370   20.3900 C   0  0  0  0  0  0  0  0  0  0  0  0
  -30.4250  -12.5400   19.3940 C   0  0  0  0  0  2  0  0  0  0  0  0
  -29.4840  -12.5970   18.1680 C   0  0  0  0  0  2  0  0  0  0  0  0
  -28.0090  -12.4300   18.5910 C   0  0  0  0  0  2  0  0  0  0  0  0
  -27.6300  -13.3230   19.8030 C   0  0  0  0  0  3  0  0  0  0  0  0
  -28.6870  -13.2280   20.9270 C   0  0  0  0  0  2  0  0  0  0  0  0
  -29.9870  -13.5890   20.3400 N   0  0  0  0  0  0  0  0  0  0  0  0
  -31.7610  -14.9810   20.0870 O   0  0  0  0  0  0  0  0  0  0  0  0
  -29.6990  -15.9030   20.5570 N   0  0  0  0  0  0  0  0  0  0  0  0
  -28.7570  -15.5610   20.6560 H   0  0  0  0  0  0  0  0  0  0  0  0
  -25.2440  -13.9310   20.5310 C   0  0  0  0  0  0  0  0  0  0  0  0
  -24.1730  -13.1640   20.9010 C   0  0  0  0  0  0  0  0  0  0  0  0
  -24.6270  -11.8100   20.8640 C   0  0  0  0  0  0  0  0  0  0  0  0
  -26.2820  -13.0450   20.2900 N   0  0  0  0  0  0  0  0  0  0  0  0
  -25.9170  -11.7640   20.5530 N   0  0  0  0  0  0  0  0  0  0  0  0
  -23.8910  -10.5530   21.0480 C   0  0  0  0  0  0  0  0  0  0  0  0
  -24.3090   -9.5820   21.9850 C   0  0  0  0  0  3  0  0  0  0  0  0
  -23.5740   -8.3900   22.1550 C   0  0  0  0  0  3  0  0  0  0  0  0
  -22.4060   -8.1600   21.3890 C   0  0  0  0  0  0  0  0  0  0  0  0
  -22.0070   -9.1200   20.4430 C   0  0  0  0  0  3  0  0  0  0  0  0
  -22.7430  -10.3040   20.2700 C   0  0  0  0  0  3  0  0  0  0  0  0
  -21.6430   -7.0200   21.4690 O   0  0  0  0  0  0  0  0  0  0  0  0
  -21.5710   -6.2810   22.6240 C   0  0  0  0  0  0  0  0  0  0  0  0
  -21.1190   -6.8400   23.8390 C   0  0  0  0  0  3  0  0  0  0  0  0
  -20.9950   -6.0260   24.9840 C   0  0  0  0  0  3  0  0  0  0  0  0
  -21.3140   -4.6580   24.9140 C   0  0  0  0  0  0  0  0  0  0  0  0
  -21.7600   -4.0990   23.7040 C   0  0  0  0  0  3  0  0  0  0  0  0
  -21.8850   -4.9080   22.5610 C   0  0  0  0  0  0  0  0  0  0  0  0
  -22.2950   -4.3600   21.3910 F   0  0  0  0  0  0  0  0  0  0  0  0
  -21.1890   -3.8750   26.0110 F   0  0  0  0  0  0  0  0  0  0  0  0
  -22.7800  -13.6510   21.1720 C   0  0  0  0  0  0  0  0  0  0  0  0
  -22.0420  -12.9580   22.0320 N   0  0  0  0  0  0  0  0  0  0  0  0
  -22.3520  -14.6840   20.6570 O   0  0  0  0  0  0  0  0  0  0  0  0
  -22.3990  -12.1240   22.4730 H   0  0  0  0  0  0  0  0  0  0  0  0
  -21.1080  -13.2700   22.2540 H   0  0  0  0  0  0  0  0  0  0  0  0
  -25.4150  -15.3020   20.3550 N   0  0  0  0  0  0  0  0  0  0  0  0
  -24.6410  -15.9500   20.4530 H   0  0  0  0  0  0  0  0  0  0  0  0
  -26.2400  -15.7320   19.9620 H   0  0  0  0  0  0  0  0  0  0  0  0
  -28.3410  -26.4290   20.0700 O   0  0  0  0  0  0  0  0  0  0  0  0
  -24.6600  -31.9010   23.2320 C   0  0  0  0  0  0  0  0  0  0  0  0
  -27.2620  -27.3370   20.1350 C   0  0  0  0  0  0  0  0  0  0  0  0
  -23.4480  -30.5030   21.5980 C   0  0  0  0  0  3  0  0  0  0  0  0
  -24.8960  -28.9610   20.1520 C   0  0  0  0  0  0  0  0  0  0  0  0
  -25.9880  -30.8250   21.3960 C   0  0  0  0  0  2  0  0  0  0  0  0
  -26.0710  -29.4450   20.7460 C   0  0  0  0  0  0  0  0  0  0  0  0
  -27.2600  -28.6440   20.7300 C   0  0  0  0  0  3  0  0  0  0  0  0
  -26.0670  -26.9160   19.5200 C   0  0  0  0  0  3  0  0  0  0  0  0
  -24.8970  -27.7020   19.5310 C   0  0  0  0  0  3  0  0  0  0  0  0
  -23.6540  -29.8330   20.2150 C   0  0  0  0  0  2  0  0  0  0  0  0
  -24.7180  -31.0950   22.1310 N   0  0  0  0  0  0  0  0  0  0  0  0
  -23.5800  -32.1710   23.7790 O   0  0  0  0  0  0  0  0  0  0  0  0
  -22.7970  -29.4810   22.5610 C   0  0  0  0  0  0  0  0  0  0  0  0
  -21.4710  -29.2950   22.4450 N   0  0  0  0  0  0  0  0  0  0  0  0
  -23.4870  -28.8580   23.3720 O   0  0  0  0  0  0  0  0  0  0  0  0
  -20.9730  -29.8500   21.7630 H   0  0  0  0  0  0  0  0  0  0  0  0
  -18.1100  -28.0540   22.9560 C   0  0  0  0  0  0  0  0  0  0  0  0
  -20.6650  -28.3480   23.2190 C   0  0  0  0  0  3  0  0  0  0  0  0
  -20.7840  -26.9170   22.6480 C   0  0  0  0  0  2  0  0  0  0  0  0
  -19.6860  -26.5770   21.6360 C   0  0  0  0  0  2  0  0  0  0  0  0
  -18.3030  -26.7070   22.2810 C   0  0  0  0  0  2  0  0  0  0  0  0
  -19.2190  -28.8330   23.3810 C   0  0  0  0  0  0  0  0  0  0  0  0
  -18.9840  -30.0940   23.9710 C   0  0  0  0  0  3  0  0  0  0  0  0
  -17.6730  -30.5770   24.1400 C   0  0  0  0  0  3  0  0  0  0  0  0
  -16.5780  -29.7960   23.7300 C   0  0  0  0  0  3  0  0  0  0  0  0
  -16.7970  -28.5360   23.1440 C   0  0  0  0  0  3  0  0  0  0  0  0
  -25.9450  -32.5380   23.8450 C   0  0  0  0  0  3  0  0  0  0  0  0
  -25.6320  -33.9330   24.1870 N   0  0  0  0  0  0  0  0  0  0  0  0
  -25.9410  -34.9920   23.4260 C   0  0  0  0  0  0  0  0  0  0  0  0
  -26.5900  -34.8980   22.3800 O   0  0  0  0  0  0  0  0  0  0  0  0
  -25.0530  -34.0800   25.0000 H   0  0  0  0  0  0  0  0  0  0  0  0
  -24.1950  -36.7760   23.1160 C   0  0  0  0  0  1  0  0  0  0  0  0
  -25.4540  -36.3750   23.9000 C   0  0  0  0  0  3  0  0  0  0  0  0
  -27.5970  -37.2720   24.6960 C   0  0  0  0  0  1  0  0  0  0  0  0
  -26.4770  -37.4360   23.7720 N   0  0  0  0  0  0  0  0  0  0  0  0
  -26.0680  -38.3530   23.9300 H   0  0  0  0  0  0  0  0  0  0  0  0
  -26.4770  -31.7640   25.1130 C   0  0  1  0  0  0  0  0  0  0  0  0
  -25.3950  -31.5180   26.1910 C   0  0  0  0  0  1  0  0  0  0  0  0
  -27.0620  -30.3900   24.7130 C   0  0  0  0  0  1  0  0  0  0  0  0
  -27.6310  -32.5610   25.7660 C   0  0  0  0  0  1  0  0  0  0  0  0
  1  2  1  0
  2  7  2  0
  3  6  1  0
  3  1  1  0
  4  1  2  0
  5  2  1  0
  6  5  1  0
  8  3  2  0
  9 13  1  0
 11  9  2  0
 11 14  1  0
 12 10  1  0
 13  6  1  0
 13 10  2  0
 14 23  1  0
 14 12  2  0
 15 23  1  0
 16 21  1  0
 17 18  1  0
 17 16  1  0
 19 18  1  0
 19 28  1  0
 19 20  1  0
 21 15  1  0
 21 20  1  0
 22 15  2  0
 23 24  1  0
 25 26  2  0
 26 45  1  0
 27 26  1  0
 27 30  1  0
 28 25  1  0
 28 29  1  0
 29 27  2  0
 30 31  1  0
 31 32  2  0
 33 36  1  0
 33 32  1  0
 34 33  2  0
 35 34  1  0
 35 30  2  0
 36 37  1  0
 37 38  1  0
 38 39  2  0
 40 39  1  0
 40 44  1  0
 41 40  2  0
 42 37  2  0
 42 41  1  0
 43 42  1  0
 45 46  1  0
 46 49  1  0
 46 48  1  0
 47 45  2  0
 50 51  1  0
 50 25  1  0
 52 50  1  0
 53 55  1  0
 53  4  1  0
 54 65  2  0
 55 60  1  0
 56 64  1  0
 56 66  1  0
 57 63  1  0
 57 59  1  0
 58 64  1  0
 59 58  1  0
 60 59  2  0
 61 62  1  0
 61 55  2  0
 62 57  2  0
 63 56  1  0
 64 54  1  0
 66 68  2  0
 67 66  1  0
 69 67  1  0
 70 79  2  0
 70 75  1  0
 71 67  1  0
 71 75  1  0
 72 71  1  0
 73 74  1  0
 73 72  1  0
 74 70  1  0
 75 76  2  0
 76 77  1  0
 78 77  2  0
 79 78  1  0
 80 54  1  0
 80 81  1  0
 80 90  1  0
 81 84  1  0
 82 86  1  0
 82 81  1  0
 83 82  2  0
 86 85  1  0
 88 86  1  0
 88 89  1  0
 88 87  1  0
 90 93  1  1
 90 91  1  0
 92 90  1  0
M  ISO  4   4 101  15 100  23 100  53 101
M  END
>  <TORSDO>  (78) 
F 17

>  <SCORE>  (78) 
-15.267

>  <name>  (78) 
77

>  <ligand_id>  (78) 
77

>  <original_smiles>  (78) 
[H]C(Oc1c([H])c([H])c2c(c1[H])C([H])([H])N(C(=O)C([H])(N([H])C(=O)C([H])(N([H])C([H])([H])[H])C([H])([H])[H])C(C([H])([H])[H])(C([H])([H])[H])C([H])([H])[H])C([H])(C(=O)N([H])C1([H])c3c([H])c([H])c([H])c([H])c3C([H])([H])C([H])([H])C1([H])[H])C2([H])[H])=C1C(=O)N(c2c([H])c([H])c(N([H])C(=O)N3C([H])([H])C([H])([H])C([H])([H])C([H])(n4nc(-c5c([H])c([H])c(Oc6c([H])c([H])c(F)c([H])c6F)c([H])c5[H])c(C(=O)N([H])[H])c4N([H])[H])C3([H])[H])c([H])c2[H])C([H])([H])C1=O

>  <smiles>  (78) 
[H]C(Oc1c([H])c([H])c2c(c1[H])C([H])([H])N(C(=O)C([H])(N([H])C(=O)C([H])(N([H])C([H])([H])[H])C([H])([H])[H])C(C([H])([H])[H])(C([H])([H])[H])C([H])([H])[H])C([H])(C(=O)N([H])C1([H])c3c([H])c([H])c([H])c([H])c3C([H])([H])C([H])([H])C1([H])[H])C2([H])[H])=C1C(=O)N(c2c([H])c([H])c(N([H])C(=O)N3C([H])([H])C([H])([H])C([H])([H])C([H])(n4nc(-c5c([H])c([H])c(Oc6c([H])c([H])c(F)c([H])c6F)c([H])c5[H])c(C(=O)N([H])[H])c4N([H])[H])C3([H])[H])c([H])c2[H])C([H])([H])C1=O

$$$$
78:0:0
     RDKit          3D

 92101  0  0  1  0  0  0  0  0999 V2000
  -28.5280  -23.8510   20.4770 C   0  0  0  0  0  0  0  0  0  0  0  0
  -28.2220  -22.7310   21.1800 C   0  0  0  0  0  0  0  0  0  0  0  0
  -27.4290  -22.5720   22.2520 C   0  0  0  0  0  1  0  0  0  0  0  0
  -28.1130  -25.1780   20.6300 C   0  0  0  0  0  2  0  0  0  0  0  0
  -29.4250  -22.9650   19.5750 C   0  0  0  0  0  2  0  0  0  0  0  0
  -28.9950  -21.8250   20.4390 N   0  0  0  0  0  0  0  0  0  0  0  0
  -28.5500  -19.4090   21.0240 C   0  0  0  0  0  3  0  0  0  0  0  0
  -28.7760  -17.9970   21.0410 C   0  0  0  0  0  3  0  0  0  0  0  0
  -30.6670  -18.2890   19.6430 C   0  0  0  0  0  3  0  0  0  0  0  0
  -29.3440  -20.3700   20.3300 C   0  0  0  0  0  0  0  0  0  0  0  0
  -29.8470  -17.3650   20.3600 C   0  0  0  0  0  0  0  0  0  0  0  0
  -30.4190  -19.7180   19.6250 C   0  0  0  0  0  0  0  0  0  0  0  0
  -31.2640  -20.4930   18.9030 F   0  0  0  0  0  0  0  0  0  0  0  0
  -30.7560  -14.8650   19.9780 C   0  0  0  0  0  0  0  0  0  0  0  0
  -30.5820  -12.5950   18.9300 C   0  0  0  0  0  2  0  0  0  0  0  0
  -29.5600  -12.6800   17.7720 C   0  0  0  0  0  2  0  0  0  0  0  0
  -28.1190  -12.4800   18.2850 C   0  0  0  0  0  2  0  0  0  0  0  0
  -27.8160  -13.3320   19.5450 C   0  0  0  0  0  3  0  0  0  0  0  0
  -28.9420  -13.2010   20.5950 C   0  0  0  0  0  2  0  0  0  0  0  0
  -30.2000  -13.6040   19.9440 N   0  0  0  0  0  0  0  0  0  0  0  0
  -31.8840  -15.0620   19.5130 O   0  0  0  0  0  0  0  0  0  0  0  0
  -29.9280  -15.8770   20.4350 N   0  0  0  0  0  0  0  0  0  0  0  0
  -29.1180  -15.4700   20.8740 H   0  0  0  0  0  0  0  0  0  0  0  0
  -25.4780  -13.8980   20.4440 C   0  0  0  0  0  0  0  0  0  0  0  0
  -24.4360  -13.1110   20.8530 C   0  0  0  0  0  0  0  0  0  0  0  0
  -24.8910  -11.7620   20.7380 C   0  0  0  0  0  0  0  0  0  0  0  0
  -26.5020  -13.0280   20.1060 N   0  0  0  0  0  0  0  0  0  0  0  0
  -26.1580  -11.7350   20.3420 N   0  0  0  0  0  0  0  0  0  0  0  0
  -24.1760  -10.4930   20.9250 C   0  0  0  0  0  0  0  0  0  0  0  0
  -24.5990   -9.5390   21.8760 C   0  0  0  0  0  3  0  0  0  0  0  0
  -23.8810   -8.3360   22.0510 C   0  0  0  0  0  3  0  0  0  0  0  0
  -22.7290   -8.0770   21.2730 C   0  0  0  0  0  0  0  0  0  0  0  0
  -22.3240   -9.0200   20.3110 C   0  0  0  0  0  3  0  0  0  0  0  0
  -23.0420  -10.2150   20.1350 C   0  0  0  0  0  3  0  0  0  0  0  0
  -21.9870   -6.9230   21.3540 O   0  0  0  0  0  0  0  0  0  0  0  0
  -21.8250   -6.2530   22.5400 C   0  0  0  0  0  0  0  0  0  0  0  0
  -21.2580   -6.8740   23.6760 C   0  0  0  0  0  3  0  0  0  0  0  0
  -21.0460   -6.1300   24.8530 C   0  0  0  0  0  3  0  0  0  0  0  0
  -21.3920   -4.7660   24.8950 C   0  0  0  0  0  0  0  0  0  0  0  0
  -21.9530   -4.1450   23.7650 C   0  0  0  0  0  3  0  0  0  0  0  0
  -22.1660   -4.8870   22.5910 C   0  0  0  0  0  0  0  0  0  0  0  0
  -22.6860   -4.2790   21.4980 F   0  0  0  0  0  0  0  0  0  0  0  0
  -21.1820   -4.0470   26.0240 F   0  0  0  0  0  0  0  0  0  0  0  0
  -23.0610  -13.5780   21.2350 C   0  0  0  0  0  0  0  0  0  0  0  0
  -22.3910  -12.8500   22.1220 N   0  0  0  0  0  0  0  0  0  0  0  0
  -22.5920  -14.6230   20.7850 O   0  0  0  0  0  0  0  0  0  0  0  0
  -22.7840  -12.0040   22.5070 H   0  0  0  0  0  0  0  0  0  0  0  0
  -21.4730  -13.1440   22.4210 H   0  0  0  0  0  0  0  0  0  0  0  0
  -25.6320  -15.2740   20.3090 N   0  0  0  0  0  0  0  0  0  0  0  0
  -24.8660  -15.9180   20.4730 H   0  0  0  0  0  0  0  0  0  0  0  0
  -26.4400  -15.7230   19.8960 H   0  0  0  0  0  0  0  0  0  0  0  0
  -28.3700  -26.4170   19.9770 O   0  0  0  0  0  0  0  0  0  0  0  0
  -24.6680  -31.8630   23.1020 C   0  0  0  0  0  0  0  0  0  0  0  0
  -27.3060  -27.3470   19.9610 C   0  0  0  0  0  0  0  0  0  0  0  0
  -23.4760  -30.4880   21.4360 C   0  0  0  0  0  3  0  0  0  0  0  0
  -24.9390  -28.9730   19.9760 C   0  0  0  0  0  0  0  0  0  0  0  0
  -26.0170  -30.8160   21.2630 C   0  0  0  0  0  2  0  0  0  0  0  0
  -26.1080  -29.4490   20.5860 C   0  0  0  0  0  0  0  0  0  0  0  0
  -27.2970  -28.6490   20.5680 C   0  0  0  0  0  3  0  0  0  0  0  0
  -26.1150  -26.9390   19.3240 C   0  0  0  0  0  3  0  0  0  0  0  0
  -24.9470  -27.7260   19.3330 C   0  0  0  0  0  3  0  0  0  0  0  0
  -23.6970  -29.8430   20.0420 C   0  0  0  0  0  2  0  0  0  0  0  0
  -24.7390  -31.0740   21.9900 N   0  0  0  0  0  0  0  0  0  0  0  0
  -23.5810  -32.1230   23.6420 O   0  0  0  0  0  0  0  0  0  0  0  0
  -22.8160  -29.4510   22.3760 C   0  0  0  0  0  0  0  0  0  0  0  0
  -21.4870  -29.2790   22.2560 N   0  0  0  0  0  0  0  0  0  0  0  0
  -23.4990  -28.8040   23.1750 O   0  0  0  0  0  0  0  0  0  0  0  0
  -20.9950  -29.8520   21.5860 H   0  0  0  0  0  0  0  0  0  0  0  0
  -18.1070  -28.0950   22.7830 C   0  0  0  0  0  0  0  0  0  0  0  0
  -20.6730  -28.3240   23.0100 C   0  0  0  0  0  3  0  0  0  0  0  0
  -20.7500  -26.9110   22.3870 C   0  0  0  0  0  2  0  0  0  0  0  0
  -19.6260  -26.6320   21.3840 C   0  0  0  0  0  2  0  0  0  0  0  0
  -18.2580  -26.7680   22.0590 C   0  0  0  0  0  2  0  0  0  0  0  0
  -19.2420  -28.8330   23.2150 C   0  0  0  0  0  0  0  0  0  0  0  0
  -19.0460  -30.0760   23.8560 C   0  0  0  0  0  3  0  0  0  0  0  0
  -17.7490  -30.5820   24.0660 C   0  0  0  0  0  3  0  0  0  0  0  0
  -16.6300  -29.8420   23.6480 C   0  0  0  0  0  3  0  0  0  0  0  0
  -16.8100  -28.5990   23.0130 C   0  0  0  0  0  3  0  0  0  0  0  0
  -25.9450  -32.4930   23.7380 C   0  0  0  0  0  3  0  0  0  0  0  0
  -25.6220  -33.8790   24.1040 N   0  0  0  0  0  0  0  0  0  0  0  0
  -25.9430  -34.9550   23.3730 C   0  0  0  0  0  0  0  0  0  0  0  0
  -26.6110  -34.8850   22.3390 O   0  0  0  0  0  0  0  0  0  0  0  0
  -25.0280  -34.0070   24.9110 H   0  0  0  0  0  0  0  0  0  0  0  0
  -24.2000  -36.7450   23.0710 C   0  0  0  0  0  1  0  0  0  0  0  0
  -25.4460  -36.3280   23.8690 C   0  0  0  0  0  3  0  0  0  0  0  0
  -27.5710  -37.2100   24.7260 C   0  0  0  0  0  1  0  0  0  0  0  0
  -26.4690  -37.3920   23.7850 N   0  0  0  0  0  0  0  0  0  0  0  0
  -26.0550  -38.3040   23.9520 H   0  0  0  0  0  0  0  0  0  0  0  0
  -26.4710  -31.6960   24.9950 C   0  0  1  0  0  0  0  0  0  0  0  0
  -25.3830  -31.4220   26.0600 C   0  0  0  0  0  1  0  0  0  0  0  0
  -27.0670  -30.3330   24.5740 C   0  0  0  0  0  1  0  0  0  0  0  0
  -27.6140  -32.4860   25.6750 C   0  0  0  0  0  1  0  0  0  0  0  0
  1  4  1  0
  1  2  2  0
  2  3  1  0
  5  6  1  0
  5  1  1  0
  6  2  1  0
  7  8  1  0
  9 11  1  0
 10  6  1  0
 10  7  2  0
 11 22  1  0
 11  8  2  0
 12  9  2  0
 12 10  1  0
 13 12  1  0
 14 22  1  0
 15 20  1  0
 16 17  1  0
 16 15  1  0
 18 17  1  0
 18 27  1  0
 18 19  1  0
 20 14  1  0
 20 19  1  0
 21 14  2  0
 22 23  1  0
 24 25  2  0
 25 44  1  0
 26 25  1  0
 26 29  1  0
 27 28  1  0
 27 24  1  0
 28 26  2  0
 29 30  1  0
 30 31  2  0
 32 35  1  0
 32 31  1  0
 33 32  2  0
 34 33  1  0
 34 29  2  0
 35 36  1  0
 36 41  2  0
 36 37  1  0
 37 38  2  0
 38 39  1  0
 39 43  1  0
 40 39  2  0
 41 40  1  0
 42 41  1  0
 44 45  1  0
 45 48  1  0
 45 47  1  0
 46 44  2  0
 49 24  1  0
 49 50  1  0
 51 49  1  0
 52  4  1  0
 53 64  2  0
 54 52  1  0
 54 59  1  0
 55 63  1  0
 55 65  1  0
 56 62  1  0
 56 58  1  0
 57 63  1  0
 58 57  1  0
 59 58  2  0
 60 61  1  0
 60 54  2  0
 61 56  2  0
 62 55  1  0
 63 53  1  0
 65 67  2  0
 66 65  1  0
 68 66  1  0
 69 78  2  0
 69 74  1  0
 70 66  1  0
 70 74  1  0
 71 70  1  0
 72 73  1  0
 72 71  1  0
 73 69  1  0
 74 75  2  0
 75 76  1  0
 77 76  2  0
 78 77  1  0
 79 53  1  0
 79 80  1  0
 79 89  1  0
 80 83  1  0
 81 85  1  0
 81 80  1  0
 82 81  2  0
 85 84  1  0
 87 85  1  0
 87 88  1  0
 87 86  1  0
 89 92  1  1
 89 90  1  0
 91 89  1  0
M  ISO  4   4 101  14 100  22 100  52 101
M  END
>  <TORSDO>  (79) 
F 17

>  <SCORE>  (79) 
-13.510

>  <name>  (79) 
78

>  <ligand_id>  (79) 
78

>  <original_smiles>  (79) 
[H]C([H])=C1C(=C([H])Oc2c([H])c([H])c3c(c2[H])C([H])([H])N(C(=O)C([H])(N([H])C(=O)C([H])(N([H])C([H])([H])[H])C([H])([H])[H])C(C([H])([H])[H])(C([H])([H])[H])C([H])([H])[H])C([H])(C(=O)N([H])C2([H])c4c([H])c([H])c([H])c([H])c4C([H])([H])C([H])([H])C2([H])[H])C3([H])[H])C([H])([H])N1c1c([H])c([H])c(N([H])C(=O)N2C([H])([H])C([H])([H])C([H])([H])C([H])(n3nc(-c4c([H])c([H])c(Oc5c([H])c([H])c(F)c([H])c5F)c([H])c4[H])c(C(=O)N([H])[H])c3N([H])[H])C2([H])[H])c([H])c1F

>  <smiles>  (79) 
[H]C([H])=C1C(=C([H])Oc2c([H])c([H])c3c(c2[H])C([H])([H])N(C(=O)C([H])(N([H])C(=O)C([H])(N([H])C([H])([H])[H])C([H])([H])[H])C(C([H])([H])[H])(C([H])([H])[H])C([H])([H])[H])C([H])(C(=O)N([H])C2([H])c4c([H])c([H])c([H])c([H])c4C([H])([H])C([H])([H])C2([H])[H])C3([H])[H])C([H])([H])N1c1c([H])c([H])c(N([H])C(=O)N2C([H])([H])C([H])([H])C([H])([H])C([H])(n3nc(-c4c([H])c([H])c(Oc5c([H])c([H])c(F)c([H])c5F)c([H])c4[H])c(C(=O)N([H])[H])c3N([H])[H])C2([H])[H])c([H])c1F

$$$$
79:0:0
     RDKit          3D

 90 98  0  0  1  0  0  0  0  0999 V2000
  -29.6780  -21.8150   20.6550 C   0  0  0  0  0  0  0  0  0  0  0  0
  -30.5530  -22.2390   21.4130 O   0  0  0  0  0  0  0  0  0  0  0  0
  -28.5480  -19.4480   20.5980 C   0  0  0  0  0  3  0  0  0  0  0  0
  -30.9040  -19.5520   20.1920 C   0  0  0  0  0  3  0  0  0  0  0  0
  -28.6260  -18.0170   20.5730 C   0  0  0  0  0  3  0  0  0  0  0  0
  -30.9820  -18.1170   20.1670 C   0  0  0  0  0  3  0  0  0  0  0  0
  -29.6920  -20.2730   20.4240 C   0  0  0  0  0  0  0  0  0  0  0  0
  -29.8410  -17.2940   20.3800 C   0  0  0  0  0  0  0  0  0  0  0  0
  -30.6420  -14.7820   20.0500 C   0  0  0  0  0  0  0  0  0  0  0  0
  -30.4270  -12.5450   18.9590 C   0  0  0  0  0  2  0  0  0  0  0  0
  -29.4110  -12.6720   17.8000 C   0  0  0  0  0  2  0  0  0  0  0  0
  -27.9640  -12.4940   18.3050 C   0  0  0  0  0  2  0  0  0  0  0  0
  -27.6690  -13.3280   19.5790 C   0  0  0  0  0  3  0  0  0  0  0  0
  -28.7880  -13.1560   20.6300 C   0  0  0  0  0  2  0  0  0  0  0  0
  -30.0570  -13.5390   19.9890 N   0  0  0  0  0  0  0  0  0  0  0  0
  -31.7910  -14.9580   19.6300 O   0  0  0  0  0  0  0  0  0  0  0  0
  -29.8070  -15.8140   20.4320 N   0  0  0  0  0  0  0  0  0  0  0  0
  -28.9220  -15.4500   20.7500 H   0  0  0  0  0  0  0  0  0  0  0  0
  -25.3260  -13.9140   20.4520 C   0  0  0  0  0  0  0  0  0  0  0  0
  -24.2790  -13.1330   20.8610 C   0  0  0  0  0  0  0  0  0  0  0  0
  -24.7300  -11.7820   20.7600 C   0  0  0  0  0  0  0  0  0  0  0  0
  -26.3500  -13.0360   20.1300 N   0  0  0  0  0  0  0  0  0  0  0  0
  -26.0010  -11.7460   20.3760 N   0  0  0  0  0  0  0  0  0  0  0  0
  -24.0070  -10.5170   20.9470 C   0  0  0  0  0  0  0  0  0  0  0  0
  -24.4300   -9.5570   21.8910 C   0  0  0  0  0  3  0  0  0  0  0  0
  -23.7080   -8.3570   22.0660 C   0  0  0  0  0  3  0  0  0  0  0  0
  -22.5470   -8.1100   21.2950 C   0  0  0  0  0  0  0  0  0  0  0  0
  -22.1420   -9.0600   20.3390 C   0  0  0  0  0  3  0  0  0  0  0  0
  -22.8660  -10.2500   20.1630 C   0  0  0  0  0  3  0  0  0  0  0  0
  -21.7960   -6.9620   21.3790 O   0  0  0  0  0  0  0  0  0  0  0  0
  -21.6610   -6.2750   22.5590 C   0  0  0  0  0  0  0  0  0  0  0  0
  -21.0880   -6.8670   23.7050 C   0  0  0  0  0  3  0  0  0  0  0  0
  -20.9070   -6.1030   24.8760 C   0  0  0  0  0  3  0  0  0  0  0  0
  -21.2870   -4.7470   24.8990 C   0  0  0  0  0  0  0  0  0  0  0  0
  -21.8530   -4.1550   23.7570 C   0  0  0  0  0  3  0  0  0  0  0  0
  -22.0370   -4.9170   22.5880 C   0  0  0  0  0  0  0  0  0  0  0  0
  -22.5630   -4.3360   21.4840 F   0  0  0  0  0  0  0  0  0  0  0  0
  -21.1060   -4.0110   26.0200 F   0  0  0  0  0  0  0  0  0  0  0  0
  -22.9020  -13.6080   21.2260 C   0  0  0  0  0  0  0  0  0  0  0  0
  -22.2150  -12.8800   22.0990 N   0  0  0  0  0  0  0  0  0  0  0  0
  -22.4470  -14.6570   20.7730 O   0  0  0  0  0  0  0  0  0  0  0  0
  -22.5990  -12.0320   22.4880 H   0  0  0  0  0  0  0  0  0  0  0  0
  -21.2920  -13.1770   22.3850 H   0  0  0  0  0  0  0  0  0  0  0  0
  -25.4820  -15.2880   20.2980 N   0  0  0  0  0  0  0  0  0  0  0  0
  -24.6920  -15.9130   20.4060 H   0  0  0  0  0  0  0  0  0  0  0  0
  -26.2530  -15.7090   19.7950 H   0  0  0  0  0  0  0  0  0  0  0  0
  -28.5850  -23.8790   20.2480 C   0  0  0  0  0  2  0  0  0  0  0  0
  -28.0660  -25.0860   20.5580 C   0  0  0  0  0  2  0  0  0  0  0  0
  -28.7530  -22.6680   19.9910 N   0  0  0  0  0  2  0  0  0  0  0  0
  -28.3310  -26.4350   20.1880 O   0  0  0  0  0  0  0  0  0  0  0  0
  -24.6200  -31.9040   23.2070 C   0  0  0  0  0  0  0  0  0  0  0  0
  -27.2410  -27.3290   20.1630 C   0  0  0  0  0  0  0  0  0  0  0  0
  -23.4160  -30.4840   21.5860 C   0  0  0  0  0  3  0  0  0  0  0  0
  -24.8690  -28.9360   20.1570 C   0  0  0  0  0  0  0  0  0  0  0  0
  -25.9530  -30.8180   21.3820 C   0  0  0  0  0  2  0  0  0  0  0  0
  -26.0400  -29.4330   20.7450 C   0  0  0  0  0  0  0  0  0  0  0  0
  -27.2310  -28.6390   20.7420 C   0  0  0  0  0  3  0  0  0  0  0  0
  -26.0510  -26.8960   19.5410 C   0  0  0  0  0  3  0  0  0  0  0  0
  -24.8770  -27.6730   19.5450 C   0  0  0  0  0  3  0  0  0  0  0  0
  -23.6260  -29.8010   20.2090 C   0  0  0  0  0  2  0  0  0  0  0  0
  -24.6820  -31.0870   22.1140 N   0  0  0  0  0  0  0  0  0  0  0  0
  -23.5390  -32.1760   23.7480 O   0  0  0  0  0  0  0  0  0  0  0  0
  -22.7670  -29.4700   22.5590 C   0  0  0  0  0  0  0  0  0  0  0  0
  -21.4430  -29.2730   22.4360 N   0  0  0  0  0  0  0  0  0  0  0  0
  -23.4560  -28.8610   23.3830 O   0  0  0  0  0  0  0  0  0  0  0  0
  -20.9460  -29.8160   21.7440 H   0  0  0  0  0  0  0  0  0  0  0  0
  -18.0810  -28.0510   22.9690 C   0  0  0  0  0  0  0  0  0  0  0  0
  -20.6400  -28.3340   23.2190 C   0  0  0  0  0  3  0  0  0  0  0  0
  -20.7500  -26.8990   22.6500 C   0  0  0  0  0  2  0  0  0  0  0  0
  -19.6430  -26.5620   21.6470 C   0  0  0  0  0  2  0  0  0  0  0  0
  -18.2650  -26.6980   22.3010 C   0  0  0  0  0  2  0  0  0  0  0  0
  -19.1970  -28.8250   23.3860 C   0  0  0  0  0  0  0  0  0  0  0  0
  -18.9720  -30.0890   23.9730 C   0  0  0  0  0  3  0  0  0  0  0  0
  -17.6650  -30.5800   24.1460 C   0  0  0  0  0  3  0  0  0  0  0  0
  -16.5640  -29.8040   23.7450 C   0  0  0  0  0  3  0  0  0  0  0  0
  -16.7730  -28.5410   23.1630 C   0  0  0  0  0  3  0  0  0  0  0  0
  -25.9030  -32.5510   23.8150 C   0  0  0  0  0  3  0  0  0  0  0  0
  -25.5830  -33.9470   24.1450 N   0  0  0  0  0  0  0  0  0  0  0  0
  -25.9130  -35.0040   23.3900 C   0  0  0  0  0  0  0  0  0  0  0  0
  -26.5860  -34.9050   22.3610 O   0  0  0  0  0  0  0  0  0  0  0  0
  -24.9800  -34.0950   24.9400 H   0  0  0  0  0  0  0  0  0  0  0  0
  -24.1920  -36.8010   23.0160 C   0  0  0  0  0  1  0  0  0  0  0  0
  -25.4160  -36.3880   23.8490 C   0  0  0  0  0  3  0  0  0  0  0  0
  -27.5260  -37.2710   24.7430 C   0  0  0  0  0  1  0  0  0  0  0  0
  -26.4520  -37.4410   23.7660 N   0  0  0  0  0  0  0  0  0  0  0  0
  -26.0420  -38.3610   23.9030 H   0  0  0  0  0  0  0  0  0  0  0  0
  -26.4390  -31.7870   25.0870 C   0  0  1  0  0  0  0  0  0  0  0  0
  -25.3560  -31.5340   26.1620 C   0  0  0  0  0  1  0  0  0  0  0  0
  -27.0400  -30.4180   24.6910 C   0  0  0  0  0  1  0  0  0  0  0  0
  -27.5820  -32.5970   25.7410 C   0  0  0  0  0  1  0  0  0  0  0  0
  1  2  2  0
  4  7  1  0
  5  3  1  0
  6  4  2  0
  6  8  1  0
  7  3  2  0
  7  1  1  0
  8 17  1  0
  8  5  2  0
  9 17  1  0
 10 15  1  0
 11 12  1  0
 11 10  1  0
 13 12  1  0
 13 22  1  0
 13 14  1  0
 15  9  1  0
 15 14  1  0
 16  9  2  0
 17 18  1  0
 19 20  2  0
 20 39  1  0
 21 20  1  0
 21 24  1  0
 22 23  1  0
 22 19  1  0
 23 21  2  0
 24 25  1  0
 25 26  2  0
 27 30  1  0
 27 26  1  0
 28 27  2  0
 29 28  1  0
 29 24  2  0
 30 31  1  0
 31 36  2  0
 31 32  1  0
 32 33  2  0
 33 34  1  0
 34 38  1  0
 35 34  2  0
 36 35  1  0
 37 36  1  0
 39 40  1  0
 40 43  1  0
 40 42  1  0
 41 39  2  0
 44 45  1  0
 44 19  1  0
 46 44  1  0
 47 48  1  0
 49 47  1  0
 49  1  1  0
 50 48  1  0
 51 62  2  0
 52 50  1  0
 52 57  1  0
 53 61  1  0
 53 63  1  0
 54 60  1  0
 54 56  1  0
 55 61  1  0
 56 55  1  0
 57 56  2  0
 58 59  1  0
 58 52  2  0
 59 54  2  0
 60 53  1  0
 61 51  1  0
 63 65  2  0
 64 63  1  0
 66 64  1  0
 67 76  2  0
 67 72  1  0
 68 64  1  0
 68 72  1  0
 69 68  1  0
 70 71  1  0
 70 69  1  0
 71 67  1  0
 72 73  2  0
 73 74  1  0
 75 74  2  0
 76 75  1  0
 77 51  1  0
 77 78  1  0
 77 87  1  0
 78 81  1  0
 79 83  1  0
 79 78  1  0
 80 79  2  0
 83 82  1  0
 85 83  1  0
 85 86  1  0
 85 84  1  0
 87 90  1  1
 87 88  1  0
 89 87  1  0
M  ISO  4   9 100  17 100  48 101  50 101
M  END
>  <TORSDO>  (80) 
F 18

>  <SCORE>  (80) 
-14.531

>  <name>  (80) 
79

>  <ligand_id>  (80) 
79

>  <original_smiles>  (80) 
[H]C(=C=NC(=O)c1c([H])c([H])c(N([H])C(=O)N2C([H])([H])C([H])([H])C([H])([H])C([H])(n3nc(-c4c([H])c([H])c(Oc5c([H])c([H])c(F)c([H])c5F)c([H])c4[H])c(C(=O)N([H])[H])c3N([H])[H])C2([H])[H])c([H])c1[H])Oc1c([H])c([H])c2c(c1[H])C([H])([H])N(C(=O)C([H])(N([H])C(=O)C([H])(N([H])C([H])([H])[H])C([H])([H])[H])C(C([H])([H])[H])(C([H])([H])[H])C([H])([H])[H])C([H])(C(=O)N([H])C1([H])c3c([H])c([H])c([H])c([H])c3C([H])([H])C([H])([H])C1([H])[H])C2([H])[H]

>  <smiles>  (80) 
[H]C(=C=NC(=O)c1c([H])c([H])c(N([H])C(=O)N2C([H])([H])C([H])([H])C([H])([H])C([H])(n3nc(-c4c([H])c([H])c(Oc5c([H])c([H])c(F)c([H])c5F)c([H])c4[H])c(C(=O)N([H])[H])c3N([H])[H])C2([H])[H])c([H])c1[H])Oc1c([H])c([H])c2c(c1[H])C([H])([H])N(C(=O)C([H])(N([H])C(=O)C([H])(N([H])C([H])([H])[H])C([H])([H])[H])C(C([H])([H])[H])(C([H])([H])[H])C([H])([H])[H])C([H])(C(=O)N([H])C1([H])c3c([H])c([H])c([H])c([H])c3C([H])([H])C([H])([H])C1([H])[H])C2([H])[H]

$$$$
80:0:0
     RDKit          3D

 93102  0  0  1  0  0  0  0  0999 V2000
  -28.6210  -23.8180   20.3360 C   0  0  0  0  0  0  0  0  0  0  0  0
  -28.2210  -22.5980   21.0280 C   0  0  0  0  0  0  0  0  0  0  0  0
  -28.1320  -25.1090   20.5610 C   0  0  0  0  0  3  0  0  0  0  0  0
  -29.6040  -22.9630   19.4750 C   0  0  0  0  0  2  0  0  0  0  0  0
  -29.1120  -21.8010   20.2800 N   0  0  0  0  0  0  0  0  0  0  0  0
  -27.4150  -22.4160   21.9170 O   0  0  0  0  0  0  0  0  0  0  0  0
  -30.6250  -19.7110   19.6480 C   0  0  0  0  0  3  0  0  0  0  0  0
  -30.8790  -18.2830   19.6650 C   0  0  0  0  0  3  0  0  0  0  0  0
  -28.5420  -19.3700   20.6910 C   0  0  0  0  0  3  0  0  0  0  0  0
  -29.4500  -20.3470   20.1800 C   0  0  0  0  0  0  0  0  0  0  0  0
  -29.9430  -17.3500   20.2080 C   0  0  0  0  0  0  0  0  0  0  0  0
  -28.7600  -17.9560   20.7000 C   0  0  0  0  0  0  0  0  0  0  0  0
  -30.8030  -14.8380   19.8500 C   0  0  0  0  0  0  0  0  0  0  0  0
  -30.5750  -12.5870   18.7810 C   0  0  0  0  0  2  0  0  0  0  0  0
  -29.5230  -12.6980   17.6530 C   0  0  0  0  0  2  0  0  0  0  0  0
  -28.0950  -12.5020   18.2010 C   0  0  0  0  0  2  0  0  0  0  0  0
  -27.8280  -13.3340   19.4830 C   0  0  0  0  0  3  0  0  0  0  0  0
  -28.9860  -13.1840   20.4990 C   0  0  0  0  0  2  0  0  0  0  0  0
  -30.2270  -13.5850   19.8160 N   0  0  0  0  0  0  0  0  0  0  0  0
  -31.9310  -15.0210   19.3820 O   0  0  0  0  0  0  0  0  0  0  0  0
  -29.9940  -15.8670   20.2840 N   0  0  0  0  0  0  0  0  0  0  0  0
  -29.1640  -15.5160   20.7400 H   0  0  0  0  0  0  0  0  0  0  0  0
  -25.5290  -13.8910   20.4870 C   0  0  0  0  0  0  0  0  0  0  0  0
  -24.4840  -13.1000   20.8830 C   0  0  0  0  0  0  0  0  0  0  0  0
  -24.9140  -11.7510   20.6870 C   0  0  0  0  0  0  0  0  0  0  0  0
  -26.5300  -13.0220   20.0770 N   0  0  0  0  0  0  0  0  0  0  0  0
  -26.1690  -11.7250   20.2540 N   0  0  0  0  0  0  0  0  0  0  0  0
  -24.1800  -10.4870   20.8310 C   0  0  0  0  0  0  0  0  0  0  0  0
  -24.6410   -9.4600   21.6820 C   0  0  0  0  0  3  0  0  0  0  0  0
  -23.9100   -8.2610   21.8190 C   0  0  0  0  0  3  0  0  0  0  0  0
  -22.7010   -8.0800   21.1040 C   0  0  0  0  0  0  0  0  0  0  0  0
  -22.2590   -9.0980   20.2390 C   0  0  0  0  0  3  0  0  0  0  0  0
  -22.9930  -10.2890   20.1010 C   0  0  0  0  0  3  0  0  0  0  0  0
  -21.9380   -6.9380   21.1530 O   0  0  0  0  0  0  0  0  0  0  0  0
  -21.8900   -6.1530   22.2760 C   0  0  0  0  0  0  0  0  0  0  0  0
  -21.4750   -6.6650   23.5250 C   0  0  0  0  0  3  0  0  0  0  0  0
  -21.3730   -5.8070   24.6390 C   0  0  0  0  0  3  0  0  0  0  0  0
  -21.6750   -4.4390   24.5040 C   0  0  0  0  0  0  0  0  0  0  0  0
  -22.0830   -3.9260   23.2590 C   0  0  0  0  0  3  0  0  0  0  0  0
  -22.1870   -4.7820   22.1490 C   0  0  0  0  0  0  0  0  0  0  0  0
  -22.5590   -4.2790   20.9480 F   0  0  0  0  0  0  0  0  0  0  0  0
  -21.5720   -3.6130   25.5720 F   0  0  0  0  0  0  0  0  0  0  0  0
  -23.1290  -13.5690   21.3290 C   0  0  0  0  0  0  0  0  0  0  0  0
  -22.4800  -12.8130   22.2080 N   0  0  0  0  0  0  0  0  0  0  0  0
  -22.6590  -14.6340   20.9370 O   0  0  0  0  0  0  0  0  0  0  0  0
  -22.8750  -11.9480   22.5460 H   0  0  0  0  0  0  0  0  0  0  0  0
  -21.5770  -13.1080   22.5530 H   0  0  0  0  0  0  0  0  0  0  0  0
  -25.7110  -15.2670   20.4260 N   0  0  0  0  0  0  0  0  0  0  0  0
  -24.9900  -15.9240   20.7010 H   0  0  0  0  0  0  0  0  0  0  0  0
  -26.6010  -15.7130   20.2350 H   0  0  0  0  0  0  0  0  0  0  0  0
  -27.7900  -17.1290   21.1960 O   0  0  0  0  0  0  0  0  0  0  0  0
  -27.0190  -17.5940   21.5020 H   0  0  0  0  0  0  0  0  0  0  0  0
  -28.3920  -26.4030   20.0230 O   0  0  0  0  0  0  0  0  0  0  0  0
  -24.6520  -31.8680   23.0960 C   0  0  0  0  0  0  0  0  0  0  0  0
  -27.3140  -27.3200   20.0120 C   0  0  0  0  0  0  0  0  0  0  0  0
  -23.4730  -30.4820   21.4280 C   0  0  0  0  0  3  0  0  0  0  0  0
  -24.9470  -28.9470   20.0000 C   0  0  0  0  0  0  0  0  0  0  0  0
  -26.0140  -30.8000   21.2800 C   0  0  0  0  0  2  0  0  0  0  0  0
  -26.1100  -29.4260   20.6180 C   0  0  0  0  0  0  0  0  0  0  0  0
  -27.3000  -28.6230   20.6160 C   0  0  0  0  0  3  0  0  0  0  0  0
  -26.1300  -26.9090   19.3670 C   0  0  0  0  0  3  0  0  0  0  0  0
  -24.9620  -27.6950   19.3660 C   0  0  0  0  0  3  0  0  0  0  0  0
  -23.7050  -29.8180   20.0450 C   0  0  0  0  0  2  0  0  0  0  0  0
  -24.7310  -31.0680   21.9920 N   0  0  0  0  0  0  0  0  0  0  0  0
  -23.5610  -32.1370   23.6210 O   0  0  0  0  0  0  0  0  0  0  0  0
  -22.7990  -29.4570   22.3720 C   0  0  0  0  0  0  0  0  0  0  0  0
  -21.4700  -29.3000   22.2480 N   0  0  0  0  0  0  0  0  0  0  0  0
  -23.4710  -28.8060   23.1760 O   0  0  0  0  0  0  0  0  0  0  0  0
  -20.9850  -29.8770   21.5750 H   0  0  0  0  0  0  0  0  0  0  0  0
  -18.0790  -28.1440   22.7580 C   0  0  0  0  0  0  0  0  0  0  0  0
  -20.6450  -28.3540   23.0020 C   0  0  0  0  0  3  0  0  0  0  0  0
  -20.7140  -26.9380   22.3890 C   0  0  0  0  0  2  0  0  0  0  0  0
  -19.5960  -26.6600   21.3780 C   0  0  0  0  0  2  0  0  0  0  0  0
  -18.2240  -26.8110   22.0430 C   0  0  0  0  0  2  0  0  0  0  0  0
  -19.2150  -28.8760   23.1950 C   0  0  0  0  0  0  0  0  0  0  0  0
  -19.0240  -30.1260   23.8240 C   0  0  0  0  0  3  0  0  0  0  0  0
  -17.7300  -30.6430   24.0190 C   0  0  0  0  0  3  0  0  0  0  0  0
  -16.6080  -29.9090   23.5960 C   0  0  0  0  0  3  0  0  0  0  0  0
  -16.7840  -28.6610   22.9720 C   0  0  0  0  0  3  0  0  0  0  0  0
  -25.9240  -32.4980   23.7400 C   0  0  0  0  0  3  0  0  0  0  0  0
  -25.5940  -33.8800   24.1170 N   0  0  0  0  0  0  0  0  0  0  0  0
  -25.9180  -34.9650   23.4010 C   0  0  0  0  0  0  0  0  0  0  0  0
  -26.5950  -34.9070   22.3720 O   0  0  0  0  0  0  0  0  0  0  0  0
  -24.9890  -33.9970   24.9170 H   0  0  0  0  0  0  0  0  0  0  0  0
  -24.1790  -36.7570   23.0960 C   0  0  0  0  0  1  0  0  0  0  0  0
  -25.4130  -36.3300   23.9070 C   0  0  0  0  0  3  0  0  0  0  0  0
  -27.5260  -37.2040   24.8070 C   0  0  0  0  0  1  0  0  0  0  0  0
  -26.4400  -37.3950   23.8490 N   0  0  0  0  0  0  0  0  0  0  0  0
  -26.0230  -38.3080   24.0150 H   0  0  0  0  0  0  0  0  0  0  0  0
  -26.4510  -31.6920   24.9910 C   0  0  1  0  0  0  0  0  0  0  0  0
  -25.3600  -31.4060   26.0480 C   0  0  0  0  0  1  0  0  0  0  0  0
  -27.0530  -30.3350   24.5560 C   0  0  0  0  0  1  0  0  0  0  0  0
  -27.5870  -32.4810   25.6820 C   0  0  0  0  0  1  0  0  0  0  0  0
  1  3  2  0
  1  2  1  0
  2  6  2  0
  4  5  1  0
  4  1  1  0
  5  2  1  0
  7  8  2  0
  7 10  1  0
  8 11  1  0
  9 12  1  0
 10  5  1  0
 10  9  2  0
 11 21  1  0
 11 12  2  0
 12 51  1  0
 13 21  1  0
 14 19  1  0
 15 16  1  0
 15 14  1  0
 17 16  1  0
 17 26  1  0
 17 18  1  0
 19 13  1  0
 19 18  1  0
 20 13  2  0
 21 22  1  0
 23 24  2  0
 24 43  1  0
 25 28  1  0
 25 24  1  0
 26 27  1  0
 26 23  1  0
 27 25  2  0
 28 29  1  0
 29 30  2  0
 31 34  1  0
 31 30  1  0
 32 31  2  0
 33 32  1  0
 33 28  2  0
 34 35  1  0
 35 36  1  0
 36 37  2  0
 38 37  1  0
 38 42  1  0
 39 38  2  0
 40 35  2  0
 40 39  1  0
 41 40  1  0
 43 44  1  0
 44 46  1  0
 44 47  1  0
 45 43  2  0
 48 23  1  0
 48 49  1  0
 50 48  1  0
 51 52  1  0
 53  3  1  0
 54 65  2  0
 55 53  1  0
 55 60  1  0
 56 64  1  0
 56 66  1  0
 57 63  1  0
 57 59  1  0
 58 64  1  0
 59 58  1  0
 60 59  2  0
 61 55  2  0
 62 61  1  0
 62 57  2  0
 63 56  1  0
 64 54  1  0
 66 68  2  0
 67 66  1  0
 69 67  1  0
 70 79  2  0
 70 75  1  0
 71 67  1  0
 71 75  1  0
 72 71  1  0
 73 74  1  0
 73 72  1  0
 74 70  1  0
 75 76  2  0
 76 77  1  0
 78 77  2  0
 79 78  1  0
 80 54  1  0
 80 81  1  0
 80 90  1  0
 81 84  1  0
 82 86  1  0
 82 81  1  0
 83 82  2  0
 86 85  1  0
 88 86  1  0
 88 89  1  0
 88 87  1  0
 90 93  1  1
 90 91  1  0
 92 90  1  0
M  ISO  4   3 101  13 100  21 100  53 101
M  END
>  <TORSDO>  (81) 
F 18

>  <SCORE>  (81) 
-13.747

>  <name>  (81) 
80

>  <ligand_id>  (81) 
80

>  <original_smiles>  (81) 
[H]Oc1c([H])c(N2C(=O)C(=C([H])Oc3c([H])c([H])c4c(c3[H])C([H])([H])N(C(=O)C([H])(N([H])C(=O)C([H])(N([H])C([H])([H])[H])C([H])([H])[H])C(C([H])([H])[H])(C([H])([H])[H])C([H])([H])[H])C([H])(C(=O)N([H])C3([H])c5c([H])c([H])c([H])c([H])c5C([H])([H])C([H])([H])C3([H])[H])C4([H])[H])C2([H])[H])c([H])c([H])c1N([H])C(=O)N1C([H])([H])C([H])([H])C([H])([H])C([H])(n2nc(-c3c([H])c([H])c(Oc4c([H])c([H])c(F)c([H])c4F)c([H])c3[H])c(C(=O)N([H])[H])c2N([H])[H])C1([H])[H]

>  <smiles>  (81) 
[H]Oc1c([H])c(N2C(=O)C(=C([H])Oc3c([H])c([H])c4c(c3[H])C([H])([H])N(C(=O)C([H])(N([H])C(=O)C([H])(N([H])C([H])([H])[H])C([H])([H])[H])C(C([H])([H])[H])(C([H])([H])[H])C([H])([H])[H])C([H])(C(=O)N([H])C3([H])c5c([H])c([H])c([H])c([H])c5C([H])([H])C([H])([H])C3([H])[H])C4([H])[H])C2([H])[H])c([H])c([H])c1N([H])C(=O)N1C([H])([H])C([H])([H])C([H])([H])C([H])(n2nc(-c3c([H])c([H])c(Oc4c([H])c([H])c(F)c([H])c4F)c([H])c3[H])c(C(=O)N([H])[H])c2N([H])[H])C1([H])[H]

$$$$
81:0:0
     RDKit          3D

 97106  0  0  1  0  0  0  0  0999 V2000
  -29.0370  -24.8320   18.5810 C   0  0  0  0  0  0  0  0  0  0  0  0
  -29.3960  -24.5840   17.1640 C   0  0  0  0  0  0  0  0  0  0  0  0
  -28.7370  -26.1230   18.8980 C   0  0  0  0  0  3  0  0  0  0  0  0
  -29.0470  -23.5830   19.5090 C   0  0  0  0  0  2  0  0  0  0  0  0
  -29.2170  -23.1760   16.6090 C   0  0  0  0  0  2  0  0  0  0  0  0
  -28.2670  -22.3370   17.4740 C   0  0  0  0  0  2  0  0  0  0  0  0
  -28.7230  -22.2740   18.8670 N   0  0  0  0  0  0  0  0  0  0  0  0
  -29.8290  -25.4590   16.4020 O   0  0  0  0  0  0  0  0  0  0  0  0
  -28.9910  -18.5000   19.3430 C   0  0  0  0  0  3  0  0  0  0  0  0
  -30.4940  -19.5830   20.8860 C   0  0  0  0  0  3  0  0  0  0  0  0
  -28.5300  -19.7770   18.9240 C   0  0  0  0  0  3  0  0  0  0  0  0
  -30.0480  -20.8580   20.4460 C   0  0  0  0  0  3  0  0  0  0  0  0
  -30.0130  -18.3760   20.3100 C   0  0  0  0  0  0  0  0  0  0  0  0
  -29.0860  -20.9950   19.4150 C   0  0  0  0  0  0  0  0  0  0  0  0
  -30.7530  -14.5460   20.4190 C   0  0  0  0  0  0  0  0  0  0  0  0
  -30.3970  -12.3570   19.3500 C   0  0  0  0  0  2  0  0  0  0  0  0
  -29.4830  -12.5270   18.1230 C   0  0  0  0  0  2  0  0  0  0  0  0
  -28.0040  -12.4030   18.5380 C   0  0  0  0  0  2  0  0  0  0  0  0
  -27.6460  -13.2640   19.7820 C   0  0  0  0  0  3  0  0  0  0  0  0
  -28.7000  -13.1300   20.9040 C   0  0  0  0  0  2  0  0  0  0  0  0
  -30.0140  -13.4040   20.3150 N   0  0  0  0  0  0  0  0  0  0  0  0
  -31.9530  -14.5600   20.1240 O   0  0  0  0  0  0  0  0  0  0  0  0
  -30.6880  -17.0650   20.5910 C   0  0  0  0  0  0  0  0  0  0  0  0
  -30.0750  -15.8350   20.5630 N   0  0  0  0  0  0  0  0  0  0  0  0
  -32.0040  -17.1580   20.8260 N   0  0  0  0  0  4  0  0  0  0  0  0
  -29.0780  -15.8930   20.6460 H   0  0  0  0  0  0  0  0  0  0  0  0
  -32.4870  -18.0390   20.7460 H   0  0  0  0  0  0  0  0  0  0  0  0
  -32.5400  -16.2960   20.8120 H   0  0  0  0  0  0  0  0  0  0  0  0
  -25.2480  -13.8530   20.4830 C   0  0  0  0  0  0  0  0  0  0  0  0
  -24.1840  -13.0780   20.8510 C   0  0  0  0  0  0  0  0  0  0  0  0
  -24.6520  -11.7290   20.8320 C   0  0  0  0  0  0  0  0  0  0  0  0
  -26.3000  -12.9770   20.2620 N   0  0  0  0  0  0  0  0  0  0  0  0
  -25.9460  -11.6950   20.5340 N   0  0  0  0  0  0  0  0  0  0  0  0
  -23.9260  -10.4660   21.0230 C   0  0  0  0  0  0  0  0  0  0  0  0
  -24.3530   -9.5050   21.9660 C   0  0  0  0  0  3  0  0  0  0  0  0
  -23.6310   -8.3040   22.1430 C   0  0  0  0  0  3  0  0  0  0  0  0
  -22.4650   -8.0600   21.3790 C   0  0  0  0  0  0  0  0  0  0  0  0
  -22.0590   -9.0080   20.4230 C   0  0  0  0  0  3  0  0  0  0  0  0
  -22.7830  -10.1990   20.2440 C   0  0  0  0  0  3  0  0  0  0  0  0
  -21.7110   -6.9140   21.4680 O   0  0  0  0  0  0  0  0  0  0  0  0
  -21.6550   -6.1760   22.6230 C   0  0  0  0  0  0  0  0  0  0  0  0
  -21.2130   -6.7330   23.8420 C   0  0  0  0  0  3  0  0  0  0  0  0
  -21.1070   -5.9200   24.9900 C   0  0  0  0  0  3  0  0  0  0  0  0
  -21.4310   -4.5530   24.9180 C   0  0  0  0  0  0  0  0  0  0  0  0
  -21.8660   -3.9950   23.7010 C   0  0  0  0  0  3  0  0  0  0  0  0
  -21.9750   -4.8040   22.5570 C   0  0  0  0  0  0  0  0  0  0  0  0
  -22.3730   -4.2570   21.3830 F   0  0  0  0  0  0  0  0  0  0  0  0
  -21.3230   -3.7710   26.0160 F   0  0  0  0  0  0  0  0  0  0  0  0
  -22.7810  -13.5520   21.1040 C   0  0  0  0  0  0  0  0  0  0  0  0
  -22.0430  -12.8600   21.9650 N   0  0  0  0  0  0  0  0  0  0  0  0
  -22.3480  -14.5730   20.5720 O   0  0  0  0  0  0  0  0  0  0  0  0
  -22.4020  -12.0320   22.4180 H   0  0  0  0  0  0  0  0  0  0  0  0
  -21.1010  -13.1630   22.1740 H   0  0  0  0  0  0  0  0  0  0  0  0
  -25.4040  -15.2240   20.2930 N   0  0  0  0  0  0  0  0  0  0  0  0
  -24.6190  -15.8580   20.3860 H   0  0  0  0  0  0  0  0  0  0  0  0
  -26.2190  -15.6620   19.8890 H   0  0  0  0  0  0  0  0  0  0  0  0
  -28.3630  -26.6400   20.1170 O   0  0  0  0  0  0  0  0  0  0  0  0
  -24.5810  -31.8830   23.2200 C   0  0  0  0  0  0  0  0  0  0  0  0
  -27.2240  -27.4240   20.1280 C   0  0  0  0  0  0  0  0  0  0  0  0
  -23.3770  -30.4820   21.5760 C   0  0  0  0  0  3  0  0  0  0  0  0
  -24.8320  -28.9470   20.1490 C   0  0  0  0  0  0  0  0  0  0  0  0
  -25.9070  -30.8330   21.3860 C   0  0  0  0  0  2  0  0  0  0  0  0
  -25.9930  -29.4610   20.7420 C   0  0  0  0  0  0  0  0  0  0  0  0
  -27.1920  -28.7040   20.7360 C   0  0  0  0  0  3  0  0  0  0  0  0
  -26.0380  -26.9240   19.5450 C   0  0  0  0  0  3  0  0  0  0  0  0
  -24.8500  -27.6760   19.5490 C   0  0  0  0  0  3  0  0  0  0  0  0
  -23.5890  -29.8080   20.1950 C   0  0  0  0  0  2  0  0  0  0  0  0
  -24.6390  -31.0800   22.1190 N   0  0  0  0  0  0  0  0  0  0  0  0
  -23.4980  -32.1560   23.7580 O   0  0  0  0  0  0  0  0  0  0  0  0
  -22.7250  -29.4590   22.5350 C   0  0  0  0  0  0  0  0  0  0  0  0
  -21.3980  -29.2830   22.4110 N   0  0  0  0  0  0  0  0  0  0  0  0
  -23.4090  -28.8290   23.3440 O   0  0  0  0  0  0  0  0  0  0  0  0
  -20.9090  -29.8430   21.7290 H   0  0  0  0  0  0  0  0  0  0  0  0
  -18.0190  -28.1050   22.9190 C   0  0  0  0  0  0  0  0  0  0  0  0
  -20.5790  -28.3450   23.1800 C   0  0  0  0  0  3  0  0  0  0  0  0
  -20.6700  -26.9160   22.5930 C   0  0  0  0  0  2  0  0  0  0  0  0
  -19.5610  -26.6080   21.5820 C   0  0  0  0  0  2  0  0  0  0  0  0
  -18.1840  -26.7590   22.2340 C   0  0  0  0  0  2  0  0  0  0  0  0
  -19.1450  -28.8570   23.3480 C   0  0  0  0  0  0  0  0  0  0  0  0
  -18.9380  -30.1190   23.9460 C   0  0  0  0  0  3  0  0  0  0  0  0
  -17.6370  -30.6280   24.1220 C   0  0  0  0  0  3  0  0  0  0  0  0
  -16.5260  -29.8710   23.7100 C   0  0  0  0  0  3  0  0  0  0  0  0
  -16.7180  -28.6120   23.1140 C   0  0  0  0  0  3  0  0  0  0  0  0
  -25.8650  -32.5140   23.8410 C   0  0  0  0  0  3  0  0  0  0  0  0
  -25.5550  -33.9100   24.1750 N   0  0  0  0  0  0  0  0  0  0  0  0
  -25.8890  -34.9650   23.4190 C   0  0  0  0  0  0  0  0  0  0  0  0
  -26.5580  -34.8650   22.3870 O   0  0  0  0  0  0  0  0  0  0  0  0
  -24.9590  -34.0620   24.9750 H   0  0  0  0  0  0  0  0  0  0  0  0
  -24.1620  -36.7580   23.0610 C   0  0  0  0  0  1  0  0  0  0  0  0
  -25.3980  -36.3510   23.8790 C   0  0  0  0  0  3  0  0  0  0  0  0
  -27.5270  -37.2310   24.7290 C   0  0  0  0  0  1  0  0  0  0  0  0
  -26.4310  -37.4050   23.7790 N   0  0  0  0  0  0  0  0  0  0  0  0
  -26.0240  -38.3240   23.9290 H   0  0  0  0  0  0  0  0  0  0  0  0
  -26.3870  -31.7390   25.1130 C   0  0  1  0  0  0  0  0  0  0  0  0
  -25.2980  -31.4930   26.1830 C   0  0  0  0  0  1  0  0  0  0  0  0
  -26.9730  -30.3640   24.7120 C   0  0  0  0  0  1  0  0  0  0  0  0
  -27.5370  -32.5330   25.7760 C   0  0  0  0  0  1  0  0  0  0  0  0
  1  3  2  0
  1  4  1  0
  2  1  1  0
  3 57  1  0
  5  2  1  0
  5  6  1  0
  6  7  1  0
  7 14  1  0
  7  4  1  0
  8  2  2  0
  9 13  1  0
 11  9  2  0
 11 14  1  0
 12 10  1  0
 13 23  1  0
 13 10  2  0
 14 12  2  0
 15 24  1  0
 16 21  1  0
 17 18  1  0
 17 16  1  0
 19 18  1  0
 19 32  1  0
 19 20  1  0
 21 15  1  0
 21 20  1  0
 22 15  2  0
 23 25  2  0
 24 23  1  0
 24 26  1  0
 27 25  1  0
 28 25  1  0
 29 30  2  0
 30 49  1  0
 31 30  1  0
 31 34  1  0
 32 29  1  0
 32 33  1  0
 33 31  2  0
 34 35  1  0
 35 36  2  0
 37 40  1  0
 37 36  1  0
 38 37  2  0
 39 38  1  0
 39 34  2  0
 40 41  1  0
 41 42  1  0
 42 43  2  0
 44 43  1  0
 44 48  1  0
 45 44  2  0
 46 41  2  0
 46 45  1  0
 47 46  1  0
 49 50  1  0
 50 53  1  0
 50 52  1  0
 51 49  2  0
 54 55  1  0
 54 29  1  0
 56 54  1  0
 57 59  1  0
 58 69  2  0
 59 64  1  0
 60 68  1  0
 60 70  1  0
 61 67  1  0
 61 63  1  0
 62 68  1  0
 63 62  1  0
 64 63  2  0
 65 66  1  0
 65 59  2  0
 66 61  2  0
 67 60  1  0
 68 58  1  0
 70 72  2  0
 71 70  1  0
 73 71  1  0
 74 83  2  0
 74 79  1  0
 75 71  1  0
 75 79  1  0
 76 75  1  0
 77 78  1  0
 77 76  1  0
 78 74  1  0
 79 80  2  0
 80 81  1  0
 82 81  2  0
 83 82  1  0
 84 58  1  0
 84 85  1  0
 84 94  1  0
 85 88  1  0
 86 90  1  0
 86 85  1  0
 87 86  2  0
 90 89  1  0
 92 90  1  0
 92 93  1  0
 92 91  1  0
 94 97  1  1
 94 95  1  0
 96 94  1  0
M  ISO  4   3 101  15 100  24 100  57 101
M  END
>  <TORSDO>  (82) 
F 17

>  <SCORE>  (82) 
-15.038

>  <name>  (82) 
81

>  <ligand_id>  (82) 
81

>  <original_smiles>  (82) 
[H]C(Oc1c([H])c([H])c2c(c1[H])C([H])([H])N(C(=O)C([H])(N([H])C(=O)C([H])(N([H])C([H])([H])[H])C([H])([H])[H])C(C([H])([H])[H])(C([H])([H])[H])C([H])([H])[H])C([H])(C(=O)N([H])C1([H])c3c([H])c([H])c([H])c([H])c3C([H])([H])C([H])([H])C1([H])[H])C2([H])[H])=C1C(=O)C([H])([H])C([H])([H])N(c2c([H])c([H])c(C(N([H])C(=O)N3C([H])([H])C([H])([H])C([H])([H])C([H])(n4nc(-c5c([H])c([H])c(Oc6c([H])c([H])c(F)c([H])c6F)c([H])c5[H])c(C(=O)N([H])[H])c4N([H])[H])C3([H])[H])=[N+]([H])[H])c([H])c2[H])C1([H])[H]

>  <smiles>  (82) 
[H]C(Oc1c([H])c([H])c2c(c1[H])C([H])([H])N(C(=O)C([H])(N([H])C(=O)C([H])(N([H])C([H])([H])[H])C([H])([H])[H])C(C([H])([H])[H])(C([H])([H])[H])C([H])([H])[H])C([H])(C(=O)N([H])C1([H])c3c([H])c([H])c([H])c([H])c3C([H])([H])C([H])([H])C1([H])[H])C2([H])[H])=C1C(=O)C([H])([H])C([H])([H])N(c2c([H])c([H])c(C(N([H])C(=O)N3C([H])([H])C([H])([H])C([H])([H])C([H])(n4nc(-c5c([H])c([H])c(Oc6c([H])c([H])c(F)c([H])c6F)c([H])c5[H])c(C(=O)N([H])[H])c4N([H])[H])C3([H])[H])=[N+]([H])[H])c([H])c2[H])C1([H])[H]

$$$$
82:0:0
     RDKit          3D

 97106  0  0  1  0  0  0  0  0999 V2000
  -28.8040  -24.0850   19.0310 C   0  0  0  0  0  0  0  0  0  0  0  0
  -28.8800  -23.4100   17.7580 C   0  0  0  0  0  0  0  0  0  0  0  0
  -29.1790  -23.0250   20.0260 C   0  0  0  0  0  0  0  0  0  0  0  0
  -28.5300  -23.9030   16.5530 C   0  0  0  0  0  2  0  0  0  0  0  0
  -28.4400  -25.4310   19.1210 C   0  0  0  0  0  3  0  0  0  0  0  0
  -29.3750  -22.0100   17.9320 C   0  0  0  0  0  2  0  0  0  0  0  0
  -29.4590  -21.8060   19.3800 N   0  0  0  0  0  0  0  0  0  0  0  0
  -29.2610  -23.2080   21.2450 O   0  0  0  0  0  0  0  0  0  0  0  0
  -30.4780  -18.0340   19.1950 C   0  0  0  0  0  3  0  0  0  0  0  0
  -30.2200  -19.4130   18.8870 C   0  0  0  0  0  3  0  0  0  0  0  0
  -29.9660  -18.5050   21.4600 C   0  0  0  0  0  3  0  0  0  0  0  0
  -30.3490  -17.5030   20.5060 C   0  0  0  0  0  0  0  0  0  0  0  0
  -29.8040  -20.4110   19.8370 C   0  0  0  0  0  0  0  0  0  0  0  0
  -29.6980  -19.8830   21.1610 C   0  0  0  0  0  0  0  0  0  0  0  0
  -30.5190  -16.0030   20.9490 C   0  0  0  0  0  0  0  0  0  0  0  0
  -30.2270  -15.7330   22.1540 N   0  0  0  0  0  0  0  0  0  0  0  0
  -29.8920  -16.5500   22.6440 H   0  0  0  0  0  0  0  0  0  0  0  0
  -31.0930  -14.8270   20.0250 C   0  0  0  0  0  0  0  0  0  0  0  0
  -30.7300  -12.6500   18.8330 C   0  0  0  0  0  2  0  0  0  0  0  0
  -29.7190  -12.8540   17.6800 C   0  0  0  0  0  2  0  0  0  0  0  0
  -28.2660  -12.7180   18.1770 C   0  0  0  0  0  2  0  0  0  0  0  0
  -28.0160  -13.5180   19.4810 C   0  0  0  0  0  3  0  0  0  0  0  0
  -29.1230  -13.2300   20.5130 C   0  0  0  0  0  2  0  0  0  0  0  0
  -30.4130  -13.6210   19.9120 N   0  0  0  0  0  0  0  0  0  0  0  0
  -32.1620  -14.9850   19.4240 O   0  0  0  0  0  0  0  0  0  0  0  0
  -25.7100  -14.1850   20.3960 C   0  0  0  0  0  0  0  0  0  0  0  0
  -24.6270  -13.4430   20.7810 C   0  0  0  0  0  0  0  0  0  0  0  0
  -25.0090  -12.0750   20.6240 C   0  0  0  0  0  0  0  0  0  0  0  0
  -26.6850  -13.2700   20.0290 N   0  0  0  0  0  0  0  0  0  0  0  0
  -26.2720  -11.9920   20.2240 N   0  0  0  0  0  0  0  0  0  0  0  0
  -24.2260  -10.8420   20.7750 C   0  0  0  0  0  0  0  0  0  0  0  0
  -24.6600   -9.7880   21.6090 C   0  0  0  0  0  3  0  0  0  0  0  0
  -23.8790   -8.6200   21.7500 C   0  0  0  0  0  3  0  0  0  0  0  0
  -22.6500   -8.4990   21.0590 C   0  0  0  0  0  0  0  0  0  0  0  0
  -22.2350   -9.5410   20.2120 C   0  0  0  0  0  3  0  0  0  0  0  0
  -23.0150  -10.7010   20.0680 C   0  0  0  0  0  3  0  0  0  0  0  0
  -21.8400   -7.3910   21.1160 O   0  0  0  0  0  0  0  0  0  0  0  0
  -21.8130   -6.5740   22.2180 C   0  0  0  0  0  0  0  0  0  0  0  0
  -21.5140   -7.0690   23.5050 C   0  0  0  0  0  3  0  0  0  0  0  0
  -21.4300   -6.1830   24.5990 C   0  0  0  0  0  3  0  0  0  0  0  0
  -21.6340   -4.8030   24.4050 C   0  0  0  0  0  0  0  0  0  0  0  0
  -21.9280   -4.3090   23.1220 C   0  0  0  0  0  3  0  0  0  0  0  0
  -22.0140   -5.1920   22.0310 C   0  0  0  0  0  0  0  0  0  0  0  0
  -22.2750   -4.7060   20.7930 F   0  0  0  0  0  0  0  0  0  0  0  0
  -21.5460   -3.9510   25.4520 F   0  0  0  0  0  0  0  0  0  0  0  0
  -23.2800  -13.9700   21.1820 C   0  0  0  0  0  0  0  0  0  0  0  0
  -22.5780  -13.2600   22.0580 N   0  0  0  0  0  0  0  0  0  0  0  0
  -22.8610  -15.0450   20.7540 O   0  0  0  0  0  0  0  0  0  0  0  0
  -22.9300  -12.3880   22.4250 H   0  0  0  0  0  0  0  0  0  0  0  0
  -21.6760  -13.5930   22.3680 H   0  0  0  0  0  0  0  0  0  0  0  0
  -25.9400  -15.5540   20.3070 N   0  0  0  0  0  0  0  0  0  0  0  0
  -25.2260  -16.2390   20.5260 H   0  0  0  0  0  0  0  0  0  0  0  0
  -26.8050  -15.9720   19.9860 H   0  0  0  0  0  0  0  0  0  0  0  0
  -29.2800  -20.6830   22.2200 N   0  0  0  0  0  0  0  0  0  0  0  0
  -29.5130  -20.3960   23.1650 H   0  0  0  0  0  0  0  0  0  0  0  0
  -29.3570  -21.6950   22.0900 H   0  0  0  0  0  0  0  0  0  0  0  0
  -28.2740  -26.3760   20.1530 O   0  0  0  0  0  0  0  0  0  0  0  0
  -24.6110  -31.8350   23.2350 C   0  0  0  0  0  0  0  0  0  0  0  0
  -27.1900  -27.2830   20.0950 C   0  0  0  0  0  0  0  0  0  0  0  0
  -23.3910  -30.4550   21.5920 C   0  0  0  0  0  3  0  0  0  0  0  0
  -24.8270  -28.9180   20.1340 C   0  0  0  0  0  0  0  0  0  0  0  0
  -25.9320  -30.7640   21.3920 C   0  0  0  0  0  2  0  0  0  0  0  0
  -26.0050  -29.3910   20.7260 C   0  0  0  0  0  0  0  0  0  0  0  0
  -27.1890  -28.5840   20.7020 C   0  0  0  0  0  3  0  0  0  0  0  0
  -25.9800  -26.8680   19.4930 C   0  0  0  0  0  3  0  0  0  0  0  0
  -24.8180  -27.6630   19.5090 C   0  0  0  0  0  3  0  0  0  0  0  0
  -23.5930  -29.7950   20.2030 C   0  0  0  0  0  2  0  0  0  0  0  0
  -24.6640  -31.0360   22.1290 N   0  0  0  0  0  0  0  0  0  0  0  0
  -23.5320  -32.1100   23.7810 O   0  0  0  0  0  0  0  0  0  0  0  0
  -22.7330  -29.4300   22.5490 C   0  0  0  0  0  0  0  0  0  0  0  0
  -21.4070  -29.2480   22.4240 N   0  0  0  0  0  0  0  0  0  0  0  0
  -23.4170  -28.8020   23.3630 O   0  0  0  0  0  0  0  0  0  0  0  0
  -20.9160  -29.8050   21.7400 H   0  0  0  0  0  0  0  0  0  0  0  0
  -18.0420  -28.0100   22.9050 C   0  0  0  0  0  0  0  0  0  0  0  0
  -20.5940  -28.3030   23.1930 C   0  0  0  0  0  3  0  0  0  0  0  0
  -20.7190  -26.8710   22.6240 C   0  0  0  0  0  2  0  0  0  0  0  0
  -19.6280  -26.5310   21.6020 C   0  0  0  0  0  2  0  0  0  0  0  0
  -18.2400  -26.6610   22.2350 C   0  0  0  0  0  2  0  0  0  0  0  0
  -19.1470  -28.7880   23.3410 C   0  0  0  0  0  0  0  0  0  0  0  0
  -18.9080  -30.0490   23.9280 C   0  0  0  0  0  3  0  0  0  0  0  0
  -17.5960  -30.5340   24.0830 C   0  0  0  0  0  3  0  0  0  0  0  0
  -16.5040  -29.7540   23.6640 C   0  0  0  0  0  3  0  0  0  0  0  0
  -16.7270  -28.4950   23.0810 C   0  0  0  0  0  3  0  0  0  0  0  0
  -25.9000  -32.4600   23.8520 C   0  0  0  0  0  3  0  0  0  0  0  0
  -26.4250  -31.6760   25.1180 C   0  0  1  0  0  0  0  0  0  0  0  0
  -25.3400  -31.4350   26.1930 C   0  0  0  0  0  1  0  0  0  0  0  0
  -26.9980  -30.2980   24.7110 C   0  0  0  0  0  1  0  0  0  0  0  0
  -27.5850  -32.4600   25.7750 C   0  0  0  0  0  1  0  0  0  0  0  0
  -25.5960  -33.8550   24.1990 N   0  0  0  0  0  0  0  0  0  0  0  0
  -25.9140  -34.9150   23.4440 C   0  0  0  0  0  0  0  0  0  0  0  0
  -26.5640  -34.8210   22.3990 O   0  0  0  0  0  0  0  0  0  0  0  0
  -25.0180  -34.0040   25.0150 H   0  0  0  0  0  0  0  0  0  0  0  0
  -24.1760  -36.7090   23.1400 C   0  0  0  0  0  1  0  0  0  0  0  0
  -25.4350  -36.3000   23.9220 C   0  0  0  0  0  3  0  0  0  0  0  0
  -27.5880  -37.1790   24.7090 C   0  0  0  0  0  1  0  0  0  0  0  0
  -26.4640  -37.3550   23.7930 N   0  0  0  0  0  0  0  0  0  0  0  0
  -26.0610  -38.2740   23.9590 H   0  0  0  0  0  0  0  0  0  0  0  0
  1  5  2  0
  1  3  1  0
  2  6  1  0
  2  1  1  0
  3  8  2  0
  4  2  2  0
  5 57  1  0
  6  7  1  0
  7 13  1  0
  7  3  1  0
  9 12  1  0
 10  9  2  0
 10 13  1  0
 12 15  1  0
 12 11  2  0
 13 14  2  0
 14 11  1  0
 14 54  1  0
 15 16  2  0
 16 17  1  0
 18 15  1  0
 19 24  1  0
 20 21  1  0
 20 19  1  0
 22 21  1  0
 22 29  1  0
 22 23  1  0
 24 18  1  0
 24 23  1  0
 25 18  2  0
 26 27  2  0
 27 46  1  0
 28 31  1  0
 28 27  1  0
 29 30  1  0
 29 26  1  0
 30 28  2  0
 31 32  1  0
 32 33  2  0
 34 37  1  0
 34 33  1  0
 35 34  2  0
 36 35  1  0
 36 31  2  0
 37 38  1  0
 38 39  1  0
 39 40  2  0
 41 40  1  0
 41 45  1  0
 42 41  2  0
 43 38  2  0
 43 42  1  0
 44 43  1  0
 46 47  1  0
 47 50  1  0
 47 49  1  0
 48 46  2  0
 51 26  1  0
 51 52  1  0
 53 51  1  0
 54 55  1  0
 56 54  1  0
 58 69  2  0
 59 57  1  0
 59 64  1  0
 60 68  1  0
 60 70  1  0
 61 67  1  0
 61 63  1  0
 62 68  1  0
 63 62  1  0
 64 63  2  0
 65 66  1  0
 65 59  2  0
 66 61  2  0
 67 60  1  0
 68 58  1  0
 70 72  2  0
 71 70  1  0
 73 71  1  0
 74 83  2  0
 74 79  1  0
 75 71  1  0
 75 79  1  0
 76 75  1  0
 77 78  1  0
 77 76  1  0
 78 74  1  0
 79 80  2  0
 80 81  1  0
 82 81  2  0
 83 82  1  0
 84 58  1  0
 84 89  1  0
 84 85  1  0
 85 88  1  1
 85 86  1  0
 87 85  1  0
 89 92  1  0
 90 94  1  0
 90 89  1  0
 91 90  2  0
 94 93  1  0
 96 94  1  0
 96 97  1  0
 96 95  1  0
M  ISO  4   5 101  15 100  18 100  57 101
M  END
>  <TORSDO>  (83) 
F 19

>  <SCORE>  (83) 
-13.325

>  <name>  (83) 
82

>  <ligand_id>  (83) 
82

>  <original_smiles>  (83) 
[H]N=C(C(=O)N1C([H])([H])C([H])([H])C([H])([H])C([H])(n2nc(-c3c([H])c([H])c(Oc4c([H])c([H])c(F)c([H])c4F)c([H])c3[H])c(C(=O)N([H])[H])c2N([H])[H])C1([H])[H])c1c([H])c([H])c(N2C(=O)C(=C([H])Oc3c([H])c([H])c4c(c3[H])C([H])([H])N(C(=O)C([H])(N([H])C(=O)C([H])(N([H])C([H])([H])[H])C([H])([H])[H])C(C([H])([H])[H])(C([H])([H])[H])C([H])([H])[H])C([H])(C(=O)N([H])C3([H])c5c([H])c([H])c([H])c([H])c5C([H])([H])C([H])([H])C3([H])[H])C4([H])[H])C(=C([H])[H])C2([H])[H])c(N([H])[H])c1[H]

>  <smiles>  (83) 
[H]N=C(C(=O)N1C([H])([H])C([H])([H])C([H])([H])C([H])(n2nc(-c3c([H])c([H])c(Oc4c([H])c([H])c(F)c([H])c4F)c([H])c3[H])c(C(=O)N([H])[H])c2N([H])[H])C1([H])[H])c1c([H])c([H])c(N2C(=O)C(=C([H])Oc3c([H])c([H])c4c(c3[H])C([H])([H])N(C(=O)C([H])(N([H])C(=O)C([H])(N([H])C([H])([H])[H])C([H])([H])[H])C(C([H])([H])[H])(C([H])([H])[H])C([H])([H])[H])C([H])(C(=O)N([H])C3([H])c5c([H])c([H])c([H])c([H])c5C([H])([H])C([H])([H])C3([H])[H])C4([H])[H])C(=C([H])[H])C2([H])[H])c(N([H])[H])c1[H]

$$$$
83:0:0
     RDKit          3D

 92101  0  0  1  0  0  0  0  0999 V2000
  -28.4510  -23.6350   20.3740 C   0  0  0  0  0  0  0  0  0  0  0  0
  -29.4480  -22.9630   19.5550 C   0  0  0  0  0  0  0  0  0  0  0  0
  -28.1190  -22.2920   20.8910 C   0  0  0  0  0  0  0  0  0  0  0  0
  -27.9490  -24.9340   20.6280 C   0  0  0  0  0  3  0  0  0  0  0  0
  -29.1230  -21.6440   20.0890 N   0  0  0  0  0  0  0  0  0  0  0  0
  -30.2240  -23.4260   18.7390 O   0  0  0  0  0  0  0  0  0  0  0  0
  -27.2900  -21.9450   21.7100 O   0  0  0  0  0  0  0  0  0  0  0  0
  -31.4400  -19.0450   18.5260 C   0  0  0  0  0  3  0  0  0  0  0  0
  -30.7540  -20.2030   18.9310 C   0  0  0  0  0  3  0  0  0  0  0  0
  -31.1230  -17.7760   19.0300 C   0  0  0  0  0  3  0  0  0  0  0  0
  -29.3750  -18.8460   20.3380 C   0  0  0  0  0  3  0  0  0  0  0  0
  -29.6760  -20.2300   19.8540 C   0  0  0  0  0  0  0  0  0  0  0  0
  -30.0900  -17.5900   19.9720 C   0  0  0  0  0  0  0  0  0  0  0  0
  -30.5700  -14.9560   20.2850 C   0  0  0  0  0  0  0  0  0  0  0  0
  -30.3950  -12.6290   19.3530 C   0  0  0  0  0  2  0  0  0  0  0  0
  -29.4650  -12.6510   18.1220 C   0  0  0  0  0  2  0  0  0  0  0  0
  -27.9970  -12.4620   18.5460 C   0  0  0  0  0  2  0  0  0  0  0  0
  -27.6070  -13.3610   19.7530 C   0  0  0  0  0  3  0  0  0  0  0  0
  -28.6660  -13.3380   20.8740 C   0  0  0  0  0  2  0  0  0  0  0  0
  -29.9470  -13.7160   20.2650 N   0  0  0  0  0  0  0  0  0  0  0  0
  -31.7760  -14.9820   20.0220 O   0  0  0  0  0  0  0  0  0  0  0  0
  -29.8170  -16.1530   20.4160 N   0  0  0  0  0  0  0  0  0  0  0  0
  -28.8850  -15.9930   20.7690 H   0  0  0  0  0  0  0  0  0  0  0  0
  -25.2300  -13.9420   20.5010 C   0  0  0  0  0  0  0  0  0  0  0  0
  -24.1650  -13.1660   20.8650 C   0  0  0  0  0  0  0  0  0  0  0  0
  -24.6270  -11.8140   20.8240 C   0  0  0  0  0  0  0  0  0  0  0  0
  -26.2710  -13.0640   20.2530 N   0  0  0  0  0  0  0  0  0  0  0  0
  -25.9170  -11.7770   20.5140 N   0  0  0  0  0  0  0  0  0  0  0  0
  -23.8980  -10.5530   21.0050 C   0  0  0  0  0  0  0  0  0  0  0  0
  -24.3180   -9.5800   21.9410 C   0  0  0  0  0  3  0  0  0  0  0  0
  -23.5860   -8.3840   22.1090 C   0  0  0  0  0  3  0  0  0  0  0  0
  -22.4200   -8.1520   21.3420 C   0  0  0  0  0  0  0  0  0  0  0  0
  -22.0220   -9.1120   20.3930 C   0  0  0  0  0  3  0  0  0  0  0  0
  -22.7550  -10.2990   20.2220 C   0  0  0  0  0  3  0  0  0  0  0  0
  -21.6590   -7.0110   21.4210 O   0  0  0  0  0  0  0  0  0  0  0  0
  -21.5840   -6.2740   22.5750 C   0  0  0  0  0  0  0  0  0  0  0  0
  -21.0980   -6.8260   23.7810 C   0  0  0  0  0  3  0  0  0  0  0  0
  -20.9710   -6.0150   24.9260 C   0  0  0  0  0  3  0  0  0  0  0  0
  -21.3170   -4.6520   24.8670 C   0  0  0  0  0  0  0  0  0  0  0  0
  -21.7960   -4.1000   23.6660 C   0  0  0  0  0  3  0  0  0  0  0  0
  -21.9260   -4.9080   22.5230 C   0  0  0  0  0  0  0  0  0  0  0  0
  -22.3650   -4.3630   21.3630 F   0  0  0  0  0  0  0  0  0  0  0  0
  -21.1900   -3.8710   25.9650 F   0  0  0  0  0  0  0  0  0  0  0  0
  -22.7690  -13.6420   21.1380 C   0  0  0  0  0  0  0  0  0  0  0  0
  -22.0390  -12.9410   21.9970 N   0  0  0  0  0  0  0  0  0  0  0  0
  -22.3330  -14.6740   20.6260 O   0  0  0  0  0  0  0  0  0  0  0  0
  -22.4040  -12.1050   22.4320 H   0  0  0  0  0  0  0  0  0  0  0  0
  -21.1040  -13.2440   22.2250 H   0  0  0  0  0  0  0  0  0  0  0  0
  -25.3960  -15.3140   20.3340 N   0  0  0  0  0  0  0  0  0  0  0  0
  -24.6400  -15.9750   20.4620 H   0  0  0  0  0  0  0  0  0  0  0  0
  -26.2450  -15.7500   19.9950 H   0  0  0  0  0  0  0  0  0  0  0  0
  -28.2560  -26.2820   20.1850 O   0  0  0  0  0  0  0  0  0  0  0  0
  -24.6440  -31.9240   23.2260 C   0  0  0  0  0  0  0  0  0  0  0  0
  -27.2170  -27.2650   20.1690 C   0  0  0  0  0  0  0  0  0  0  0  0
  -23.4380  -30.5290   21.5900 C   0  0  0  0  0  3  0  0  0  0  0  0
  -24.8850  -28.9700   20.1530 C   0  0  0  0  0  0  0  0  0  0  0  0
  -25.9870  -30.8150   21.4110 C   0  0  0  0  0  2  0  0  0  0  0  0
  -26.0620  -29.4250   20.7610 C   0  0  0  0  0  0  0  0  0  0  0  0
  -27.2340  -28.5840   20.7600 C   0  0  0  0  0  3  0  0  0  0  0  0
  -26.0220  -26.9050   19.5150 C   0  0  0  0  0  3  0  0  0  0  0  0
  -24.8750  -27.7220   19.5140 C   0  0  0  0  0  3  0  0  0  0  0  0
  -23.6550  -29.8620   20.2050 C   0  0  0  0  0  2  0  0  0  0  0  0
  -24.7090  -31.1100   22.1310 N   0  0  0  0  0  0  0  0  0  0  0  0
  -23.5610  -32.2060   23.7610 O   0  0  0  0  0  0  0  0  0  0  0  0
  -22.7740  -29.5140   22.5530 C   0  0  0  0  0  0  0  0  0  0  0  0
  -21.4480  -29.3320   22.4310 N   0  0  0  0  0  0  0  0  0  0  0  0
  -23.4540  -28.8920   23.3730 O   0  0  0  0  0  0  0  0  0  0  0  0
  -20.9540  -29.8860   21.7460 H   0  0  0  0  0  0  0  0  0  0  0  0
  -18.0760  -28.1150   22.9510 C   0  0  0  0  0  0  0  0  0  0  0  0
  -20.6360  -28.3910   23.2070 C   0  0  0  0  0  3  0  0  0  0  0  0
  -20.7430  -26.9590   22.6350 C   0  0  0  0  0  2  0  0  0  0  0  0
  -19.6380  -26.6280   21.6260 C   0  0  0  0  0  2  0  0  0  0  0  0
  -18.2580  -26.7660   22.2770 C   0  0  0  0  0  2  0  0  0  0  0  0
  -19.1920  -28.8840   23.3750 C   0  0  0  0  0  0  0  0  0  0  0  0
  -18.9690  -30.1450   23.9720 C   0  0  0  0  0  3  0  0  0  0  0  0
  -17.6620  -30.6380   24.1440 C   0  0  0  0  0  3  0  0  0  0  0  0
  -16.5600  -29.8680   23.7330 C   0  0  0  0  0  3  0  0  0  0  0  0
  -16.7690  -28.6080   23.1440 C   0  0  0  0  0  3  0  0  0  0  0  0
  -25.9260  -32.5640   23.8430 C   0  0  0  0  0  3  0  0  0  0  0  0
  -25.6160  -33.9650   24.1660 N   0  0  0  0  0  0  0  0  0  0  0  0
  -25.9420  -35.0160   23.4020 C   0  0  0  0  0  0  0  0  0  0  0  0
  -26.6050  -34.9080   22.3670 O   0  0  0  0  0  0  0  0  0  0  0  0
  -25.0270  -34.1220   24.9710 H   0  0  0  0  0  0  0  0  0  0  0  0
  -24.2180  -36.8150   23.0470 C   0  0  0  0  0  1  0  0  0  0  0  0
  -25.4600  -36.4090   23.8580 C   0  0  0  0  0  3  0  0  0  0  0  0
  -27.5970  -37.2950   24.6840 C   0  0  0  0  0  1  0  0  0  0  0  0
  -26.4950  -37.4590   23.7390 N   0  0  0  0  0  0  0  0  0  0  0  0
  -26.0910  -38.3810   23.8790 H   0  0  0  0  0  0  0  0  0  0  0  0
  -26.4430  -31.8000   25.1250 C   0  0  1  0  0  0  0  0  0  0  0  0
  -25.3500  -31.5700   26.1940 C   0  0  0  0  0  1  0  0  0  0  0  0
  -27.0240  -30.4180   24.7450 C   0  0  0  0  0  1  0  0  0  0  0  0
  -27.5950  -32.5960   25.7800 C   0  0  0  0  0  1  0  0  0  0  0  0
  1  4  2  0
  1  3  1  0
  2  5  1  0
  2  1  1  0
  3  7  2  0
  5  3  1  0
  6  2  2  0
  8  9  2  0
  8 10  1  0
  9 12  1  0
 10 13  2  0
 12  5  1  0
 12 11  2  0
 13 11  1  0
 13 22  1  0
 14 22  1  0
 15 20  1  0
 16 17  1  0
 16 15  1  0
 18 17  1  0
 18 27  1  0
 18 19  1  0
 20 14  1  0
 20 19  1  0
 21 14  2  0
 22 23  1  0
 24 25  2  0
 25 44  1  0
 26 25  1  0
 26 29  1  0
 27 24  1  0
 27 28  1  0
 28 26  2  0
 29 30  1  0
 30 31  2  0
 32 35  1  0
 32 31  1  0
 33 32  2  0
 34 33  1  0
 34 29  2  0
 35 36  1  0
 36 37  1  0
 37 38  2  0
 39 38  1  0
 39 43  1  0
 40 39  2  0
 41 36  2  0
 41 40  1  0
 42 41  1  0
 44 45  1  0
 45 48  1  0
 45 47  1  0
 46 44  2  0
 49 50  1  0
 49 24  1  0
 51 49  1  0
 52  4  1  0
 53 64  2  0
 54 52  1  0
 54 59  1  0
 55 63  1  0
 55 65  1  0
 56 62  1  0
 56 58  1  0
 57 63  1  0
 58 57  1  0
 59 58  2  0
 60 54  2  0
 61 60  1  0
 61 56  2  0
 62 55  1  0
 63 53  1  0
 65 67  2  0
 66 65  1  0
 68 66  1  0
 69 78  2  0
 69 74  1  0
 70 66  1  0
 70 74  1  0
 71 70  1  0
 72 73  1  0
 72 71  1  0
 73 69  1  0
 74 75  2  0
 75 76  1  0
 77 76  2  0
 78 77  1  0
 79 53  1  0
 79 80  1  0
 79 89  1  0
 80 83  1  0
 81 85  1  0
 81 80  1  0
 82 81  2  0
 85 84  1  0
 87 85  1  0
 87 88  1  0
 87 86  1  0
 89 92  1  1
 89 90  1  0
 91 89  1  0
M  ISO  4   4 101  14 100  22 100  52 101
M  END
>  <TORSDO>  (84) 
F 17

>  <SCORE>  (84) 
-14.976

>  <name>  (84) 
83

>  <ligand_id>  (84) 
83

>  <original_smiles>  (84) 
[H]C(Oc1c([H])c([H])c2c(c1[H])C([H])([H])N(C(=O)C([H])(N([H])C(=O)C([H])(N([H])C([H])([H])[H])C([H])([H])[H])C(C([H])([H])[H])(C([H])([H])[H])C([H])([H])[H])C([H])(C(=O)N([H])C1([H])c3c([H])c([H])c([H])c([H])c3C([H])([H])C([H])([H])C1([H])[H])C2([H])[H])=C1C(=O)N(c2c([H])c([H])c([H])c(N([H])C(=O)N3C([H])([H])C([H])([H])C([H])([H])C([H])(n4nc(-c5c([H])c([H])c(Oc6c([H])c([H])c(F)c([H])c6F)c([H])c5[H])c(C(=O)N([H])[H])c4N([H])[H])C3([H])[H])c2[H])C1=O

>  <smiles>  (84) 
[H]C(Oc1c([H])c([H])c2c(c1[H])C([H])([H])N(C(=O)C([H])(N([H])C(=O)C([H])(N([H])C([H])([H])[H])C([H])([H])[H])C(C([H])([H])[H])(C([H])([H])[H])C([H])([H])[H])C([H])(C(=O)N([H])C1([H])c3c([H])c([H])c([H])c([H])c3C([H])([H])C([H])([H])C1([H])[H])C2([H])[H])=C1C(=O)N(c2c([H])c([H])c([H])c(N([H])C(=O)N3C([H])([H])C([H])([H])C([H])([H])C([H])(n4nc(-c5c([H])c([H])c(Oc6c([H])c([H])c(F)c([H])c6F)c([H])c5[H])c(C(=O)N([H])[H])c4N([H])[H])C3([H])[H])c2[H])C1=O

$$$$
84:0:0
     RDKit          3D

 94103  0  0  1  0  0  0  0  0999 V2000
  -30.2630  -23.7890   20.5270 C   0  0  0  0  0  3  0  0  0  0  0  0
  -29.0300  -23.7910   20.0200 C   0  0  0  0  0  0  0  0  0  0  0  0
  -30.7110  -22.4160   20.6930 C   0  0  0  0  0  0  0  0  0  0  0  0
  -28.6690  -22.3700   19.8570 C   0  0  0  0  0  0  0  0  0  0  0  0
  -29.7190  -21.5940   20.2680 N   0  0  0  0  0  0  0  0  0  0  0  0
  -31.8030  -22.0580   21.1520 O   0  0  0  0  0  0  0  0  0  0  0  0
  -27.6010  -21.9350   19.4090 O   0  0  0  0  0  0  0  0  0  0  0  0
  -30.9930  -19.3760   20.0380 C   0  0  0  0  0  3  0  0  0  0  0  0
  -31.0740  -17.9480   20.1060 C   0  0  0  0  0  3  0  0  0  0  0  0
  -28.6620  -19.2890   20.5980 C   0  0  0  0  0  3  0  0  0  0  0  0
  -29.7880  -20.1050   20.2900 C   0  0  0  0  0  0  0  0  0  0  0  0
  -29.9430  -17.1520   20.4320 C   0  0  0  0  0  0  0  0  0  0  0  0
  -28.7410  -17.8650   20.6690 C   0  0  0  0  0  0  0  0  0  0  0  0
  -27.6250  -17.1590   20.9760 F   0  0  0  0  0  0  0  0  0  0  0  0
  -30.6480  -14.6650   20.0420 C   0  0  0  0  0  0  0  0  0  0  0  0
  -30.3590  -12.4610   18.9240 C   0  0  0  0  0  2  0  0  0  0  0  0
  -29.3400  -12.6330   17.7750 C   0  0  0  0  0  2  0  0  0  0  0  0
  -27.8940  -12.4740   18.2870 C   0  0  0  0  0  2  0  0  0  0  0  0
  -27.6230  -13.3000   19.5730 C   0  0  0  0  0  3  0  0  0  0  0  0
  -28.7460  -13.0910   20.6140 C   0  0  0  0  0  2  0  0  0  0  0  0
  -30.0230  -13.4450   19.9720 N   0  0  0  0  0  0  0  0  0  0  0  0
  -31.7720  -14.8380   19.5620 O   0  0  0  0  0  0  0  0  0  0  0  0
  -29.8890  -15.6910   20.5370 N   0  0  0  0  0  0  0  0  0  0  0  0
  -29.0330  -15.3660   20.9610 H   0  0  0  0  0  0  0  0  0  0  0  0
  -25.2810  -13.9000   20.4470 C   0  0  0  0  0  0  0  0  0  0  0  0
  -24.2290  -13.1270   20.8560 C   0  0  0  0  0  0  0  0  0  0  0  0
  -24.6740  -11.7730   20.7630 C   0  0  0  0  0  0  0  0  0  0  0  0
  -26.3010  -13.0170   20.1290 N   0  0  0  0  0  0  0  0  0  0  0  0
  -25.9440  -11.7310   20.3790 N   0  0  0  0  0  0  0  0  0  0  0  0
  -23.9480  -10.5130   20.9630 C   0  0  0  0  0  0  0  0  0  0  0  0
  -24.3820   -9.5490   21.8990 C   0  0  0  0  0  3  0  0  0  0  0  0
  -23.6550   -8.3550   22.0860 C   0  0  0  0  0  3  0  0  0  0  0  0
  -22.4780   -8.1140   21.3370 C   0  0  0  0  0  0  0  0  0  0  0  0
  -22.0630   -9.0670   20.3900 C   0  0  0  0  0  3  0  0  0  0  0  0
  -22.7910  -10.2530   20.2010 C   0  0  0  0  0  3  0  0  0  0  0  0
  -21.7220   -6.9720   21.4330 O   0  0  0  0  0  0  0  0  0  0  0  0
  -21.6200   -6.2730   22.6090 C   0  0  0  0  0  0  0  0  0  0  0  0
  -21.1360   -6.8710   23.7940 C   0  0  0  0  0  3  0  0  0  0  0  0
  -20.9830   -6.0980   24.9610 C   0  0  0  0  0  3  0  0  0  0  0  0
  -21.3030   -4.7270   24.9460 C   0  0  0  0  0  0  0  0  0  0  0  0
  -21.7810   -4.1280   23.7650 C   0  0  0  0  0  3  0  0  0  0  0  0
  -21.9360   -4.8990   22.6010 C   0  0  0  0  0  0  0  0  0  0  0  0
  -22.3760   -4.3130   21.4610 F   0  0  0  0  0  0  0  0  0  0  0  0
  -21.1500   -3.9810   26.0640 F   0  0  0  0  0  0  0  0  0  0  0  0
  -22.8550  -13.6100   21.2250 C   0  0  0  0  0  0  0  0  0  0  0  0
  -22.1780  -12.9060   22.1250 N   0  0  0  0  0  0  0  0  0  0  0  0
  -22.3940  -14.6480   20.7500 O   0  0  0  0  0  0  0  0  0  0  0  0
  -22.5650  -12.0670   22.5300 H   0  0  0  0  0  0  0  0  0  0  0  0
  -21.2590  -13.2140   22.4130 H   0  0  0  0  0  0  0  0  0  0  0  0
  -25.4470  -15.2740   20.3030 N   0  0  0  0  0  0  0  0  0  0  0  0
  -24.7040  -15.9300   20.5160 H   0  0  0  0  0  0  0  0  0  0  0  0
  -26.3140  -15.7340   20.0520 H   0  0  0  0  0  0  0  0  0  0  0  0
  -28.1010  -24.9830   19.5980 C   0  0  0  0  0  2  0  0  0  0  0  0
  -28.3850  -26.4130   19.9270 O   0  0  0  0  0  0  0  0  0  0  0  0
  -24.5580  -31.6880   23.0940 C   0  0  0  0  0  0  0  0  0  0  0  0
  -27.2730  -27.2850   19.8850 C   0  0  0  0  0  0  0  0  0  0  0  0
  -23.3900  -30.3240   21.4040 C   0  0  0  0  0  3  0  0  0  0  0  0
  -24.8780  -28.8670   19.9250 C   0  0  0  0  0  0  0  0  0  0  0  0
  -25.9250  -30.7000   21.2420 C   0  0  0  0  0  2  0  0  0  0  0  0
  -26.0370  -29.3480   20.5460 C   0  0  0  0  0  0  0  0  0  0  0  0
  -27.2370  -28.5680   20.5200 C   0  0  0  0  0  3  0  0  0  0  0  0
  -26.0850  -26.8800   19.2240 C   0  0  0  0  0  3  0  0  0  0  0  0
  -24.9040  -27.6390   19.2540 C   0  0  0  0  0  3  0  0  0  0  0  0
  -23.6240  -29.7120   19.9990 C   0  0  0  0  0  2  0  0  0  0  0  0
  -24.6430  -30.9200   21.9700 N   0  0  0  0  0  0  0  0  0  0  0  0
  -23.4660  -31.9220   23.6340 O   0  0  0  0  0  0  0  0  0  0  0  0
  -22.7480  -29.2560   22.3230 C   0  0  0  0  0  0  0  0  0  0  0  0
  -21.4260  -29.0550   22.1890 N   0  0  0  0  0  0  0  0  0  0  0  0
  -23.4410  -28.6150   23.1190 O   0  0  0  0  0  0  0  0  0  0  0  0
  -20.9260  -29.6260   21.5220 H   0  0  0  0  0  0  0  0  0  0  0  0
  -18.0690  -27.7980   22.6800 C   0  0  0  0  0  0  0  0  0  0  0  0
  -20.6280  -28.0750   22.9270 C   0  0  0  0  0  3  0  0  0  0  0  0
  -20.7390  -26.6720   22.2880 C   0  0  0  0  0  2  0  0  0  0  0  0
  -19.6260  -26.3810   21.2750 C   0  0  0  0  0  2  0  0  0  0  0  0
  -18.2510  -26.4820   21.9410 C   0  0  0  0  0  2  0  0  0  0  0  0
  -19.1840  -28.5530   23.1290 C   0  0  0  0  0  0  0  0  0  0  0  0
  -18.9590  -29.7840   23.7810 C   0  0  0  0  0  3  0  0  0  0  0  0
  -17.6510  -30.2640   23.9860 C   0  0  0  0  0  3  0  0  0  0  0  0
  -16.5500  -29.5060   23.5490 C   0  0  0  0  0  3  0  0  0  0  0  0
  -16.7600  -28.2750   22.9030 C   0  0  0  0  0  3  0  0  0  0  0  0
  -25.8240  -32.3270   23.7400 C   0  0  0  0  0  3  0  0  0  0  0  0
  -25.4880  -33.7140   24.0980 N   0  0  0  0  0  0  0  0  0  0  0  0
  -25.7890  -34.7860   23.3540 C   0  0  0  0  0  0  0  0  0  0  0  0
  -26.4510  -34.7150   22.3150 O   0  0  0  0  0  0  0  0  0  0  0  0
  -24.9000  -33.8400   24.9080 H   0  0  0  0  0  0  0  0  0  0  0  0
  -24.0100  -36.5390   23.0570 C   0  0  0  0  0  1  0  0  0  0  0  0
  -25.2760  -36.1550   23.8400 C   0  0  0  0  0  3  0  0  0  0  0  0
  -27.4040  -37.0840   24.6430 C   0  0  0  0  0  1  0  0  0  0  0  0
  -26.2790  -37.2360   23.7230 N   0  0  0  0  0  0  0  0  0  0  0  0
  -25.8510  -38.1430   23.8930 H   0  0  0  0  0  0  0  0  0  0  0  0
  -26.3410  -31.5370   25.0050 C   0  0  1  0  0  0  0  0  0  0  0  0
  -25.2410  -31.2600   26.0560 C   0  0  0  0  0  1  0  0  0  0  0  0
  -26.9490  -30.1760   24.5900 C   0  0  0  0  0  1  0  0  0  0  0  0
  -27.4720  -32.3340   25.6930 C   0  0  0  0  0  1  0  0  0  0  0  0
  1  3  1  0
  2  1  2  0
  3  6  2  0
  4  2  1  0
  4  5  1  0
  5 11  1  0
  5  3  1  0
  7  4  2  0
  8  9  2  0
  8 11  1  0
  9 12  1  0
 10 13  1  0
 11 10  2  0
 12 23  1  0
 12 13  2  0
 13 14  1  0
 15 23  1  0
 16 21  1  0
 17 18  1  0
 17 16  1  0
 19 18  1  0
 19 28  1  0
 19 20  1  0
 21 15  1  0
 21 20  1  0
 22 15  2  0
 23 24  1  0
 25 26  2  0
 26 45  1  0
 27 26  1  0
 27 30  1  0
 28 29  1  0
 28 25  1  0
 29 27  2  0
 30 31  1  0
 31 32  2  0
 33 36  1  0
 33 32  1  0
 34 33  2  0
 35 34  1  0
 35 30  2  0
 36 37  1  0
 37 38  1  0
 38 39  2  0
 40 39  1  0
 40 44  1  0
 41 40  2  0
 42 37  2  0
 42 41  1  0
 43 42  1  0
 45 46  1  0
 46 49  1  0
 46 48  1  0
 47 45  2  0
 50 25  1  0
 50 51  1  0
 52 50  1  0
 53 54  1  0
 53  2  1  0
 55 66  2  0
 56 54  1  0
 56 61  1  0
 57 65  1  0
 57 67  1  0
 58 64  1  0
 58 60  1  0
 59 65  1  0
 60 59  1  0
 61 60  2  0
 62 63  1  0
 62 56  2  0
 63 58  2  0
 64 57  1  0
 65 55  1  0
 67 69  2  0
 68 67  1  0
 70 68  1  0
 71 80  2  0
 71 76  1  0
 72 68  1  0
 72 76  1  0
 73 72  1  0
 74 75  1  0
 74 73  1  0
 75 71  1  0
 76 77  2  0
 77 78  1  0
 79 78  2  0
 80 79  1  0
 81 55  1  0
 81 82  1  0
 81 91  1  0
 82 85  1  0
 83 87  1  0
 83 82  1  0
 84 83  2  0
 87 86  1  0
 89 87  1  0
 89 90  1  0
 89 88  1  0
 91 94  1  1
 91 92  1  0
 93 91  1  0
M  ISO  4  15 100  23 100  53 101  54 101
M  END
>  <TORSDO>  (85) 
F 18

>  <SCORE>  (85) 
-14.406

>  <name>  (85) 
84

>  <ligand_id>  (85) 
84

>  <original_smiles>  (85) 
[H]C1=C(C([H])([H])Oc2c([H])c([H])c3c(c2[H])C([H])([H])N(C(=O)C([H])(N([H])C(=O)C([H])(N([H])C([H])([H])[H])C([H])([H])[H])C(C([H])([H])[H])(C([H])([H])[H])C([H])([H])[H])C([H])(C(=O)N([H])C2([H])c4c([H])c([H])c([H])c([H])c4C([H])([H])C([H])([H])C2([H])[H])C3([H])[H])C(=O)N(c2c([H])c([H])c(N([H])C(=O)N3C([H])([H])C([H])([H])C([H])([H])C([H])(n4nc(-c5c([H])c([H])c(Oc6c([H])c([H])c(F)c([H])c6F)c([H])c5[H])c(C(=O)N([H])[H])c4N([H])[H])C3([H])[H])c(F)c2[H])C1=O

>  <smiles>  (85) 
[H]C1=C(C([H])([H])Oc2c([H])c([H])c3c(c2[H])C([H])([H])N(C(=O)C([H])(N([H])C(=O)C([H])(N([H])C([H])([H])[H])C([H])([H])[H])C(C([H])([H])[H])(C([H])([H])[H])C([H])([H])[H])C([H])(C(=O)N([H])C2([H])c4c([H])c([H])c([H])c([H])c4C([H])([H])C([H])([H])C2([H])[H])C3([H])[H])C(=O)N(c2c([H])c([H])c(N([H])C(=O)N3C([H])([H])C([H])([H])C([H])([H])C([H])(n4nc(-c5c([H])c([H])c(Oc6c([H])c([H])c(F)c([H])c6F)c([H])c5[H])c(C(=O)N([H])[H])c4N([H])[H])C3([H])[H])c(F)c2[H])C1=O

$$$$
85:0:0
     RDKit          3D

 90 98  0  0  1  0  0  0  0  0999 V2000
  -29.0860  -22.6440   20.2440 C   0  0  0  0  0  0  0  0  0  0  0  0
  -29.9890  -23.0090   19.4890 O   0  0  0  0  0  0  0  0  0  0  0  0
  -28.1130  -23.6530   20.8900 C   0  0  0  0  0  3  0  0  0  0  0  0
  -27.8110  -25.0280   20.8890 C   0  0  0  0  0  3  0  0  0  0  0  0
  -28.2260  -26.2610   20.2780 O   0  0  0  0  0  0  0  0  0  0  0  0
  -24.6090  -31.8800   23.2380 C   0  0  0  0  0  0  0  0  0  0  0  0
  -27.2140  -27.2580   20.1930 C   0  0  0  0  0  0  0  0  0  0  0  0
  -23.4150  -30.4850   21.5920 C   0  0  0  0  0  3  0  0  0  0  0  0
  -24.8740  -28.9370   20.1610 C   0  0  0  0  0  0  0  0  0  0  0  0
  -25.9620  -30.7830   21.4280 C   0  0  0  0  0  2  0  0  0  0  0  0
  -26.0460  -29.4000   20.7730 C   0  0  0  0  0  0  0  0  0  0  0  0
  -27.2220  -28.5730   20.7840 C   0  0  0  0  0  3  0  0  0  0  0  0
  -26.0270  -26.8820   19.5310 C   0  0  0  0  0  3  0  0  0  0  0  0
  -24.8720  -27.6860   19.5250 C   0  0  0  0  0  3  0  0  0  0  0  0
  -23.6380  -29.8170   20.2110 C   0  0  0  0  0  2  0  0  0  0  0  0
  -24.6810  -31.0680   22.1420 N   0  0  0  0  0  0  0  0  0  0  0  0
  -23.5230  -32.1590   23.7660 O   0  0  0  0  0  0  0  0  0  0  0  0
  -22.7440  -29.4680   22.5490 C   0  0  0  0  0  0  0  0  0  0  0  0
  -21.4180  -29.2920   22.4190 N   0  0  0  0  0  0  0  0  0  0  0  0
  -23.4180  -28.8410   23.3710 O   0  0  0  0  0  0  0  0  0  0  0  0
  -20.9310  -29.8480   21.7290 H   0  0  0  0  0  0  0  0  0  0  0  0
  -18.0370  -28.0940   22.9190 C   0  0  0  0  0  0  0  0  0  0  0  0
  -20.5960  -28.3540   23.1870 C   0  0  0  0  0  3  0  0  0  0  0  0
  -20.6960  -26.9230   22.6090 C   0  0  0  0  0  2  0  0  0  0  0  0
  -19.5940  -26.6040   21.5930 C   0  0  0  0  0  2  0  0  0  0  0  0
  -18.2120  -26.7480   22.2380 C   0  0  0  0  0  2  0  0  0  0  0  0
  -19.1570  -28.8550   23.3510 C   0  0  0  0  0  0  0  0  0  0  0  0
  -18.9370  -30.1150   23.9490 C   0  0  0  0  0  3  0  0  0  0  0  0
  -17.6330  -30.6150   24.1180 C   0  0  0  0  0  3  0  0  0  0  0  0
  -16.5280  -29.8530   23.7020 C   0  0  0  0  0  3  0  0  0  0  0  0
  -16.7320  -28.5940   23.1080 C   0  0  0  0  0  3  0  0  0  0  0  0
  -25.8870  -32.5160   23.8660 C   0  0  0  0  0  3  0  0  0  0  0  0
  -26.3890  -31.7540   25.1550 C   0  0  1  0  0  0  0  0  0  0  0  0
  -25.2840  -31.5330   26.2160 C   0  0  0  0  0  1  0  0  0  0  0  0
  -26.9690  -30.3690   24.7850 C   0  0  0  0  0  1  0  0  0  0  0  0
  -27.5370  -32.5510   25.8200 C   0  0  0  0  0  1  0  0  0  0  0  0
  -25.5780  -33.9180   24.1840 N   0  0  0  0  0  0  0  0  0  0  0  0
  -25.9150  -34.9660   23.4200 C   0  0  0  0  0  0  0  0  0  0  0  0
  -26.5890  -34.8530   22.3920 O   0  0  0  0  0  0  0  0  0  0  0  0
  -24.9810  -34.0790   24.9810 H   0  0  0  0  0  0  0  0  0  0  0  0
  -24.1960  -36.7640   23.0470 C   0  0  0  0  0  1  0  0  0  0  0  0
  -25.4310  -36.3590   23.8670 C   0  0  0  0  0  3  0  0  0  0  0  0
  -27.5640  -37.2410   24.7080 C   0  0  0  0  0  1  0  0  0  0  0  0
  -26.4690  -37.4070   23.7550 N   0  0  0  0  0  0  0  0  0  0  0  0
  -26.0650  -38.3300   23.8930 H   0  0  0  0  0  0  0  0  0  0  0  0
  -28.8520  -21.2060   20.6150 O   0  0  0  0  0  0  0  0  0  0  0  0
  -32.0370  -19.2050   20.3460 C   0  0  0  0  0  3  0  0  0  0  0  0
  -31.6170  -17.8620   20.4050 C   0  0  0  0  0  3  0  0  0  0  0  0
  -31.1280  -20.2780   20.3890 C   0  0  0  0  0  3  0  0  0  0  0  0
  -29.3330  -18.6510   20.5520 C   0  0  0  0  0  3  0  0  0  0  0  0
  -30.2520  -17.4990   20.5040 C   0  0  0  0  0  0  0  0  0  0  0  0
  -29.7350  -20.0690   20.4970 C   0  0  0  0  0  0  0  0  0  0  0  0
  -30.6070  -14.8490   20.3640 C   0  0  0  0  0  0  0  0  0  0  0  0
  -30.4010  -12.5540   19.3660 C   0  0  0  0  0  2  0  0  0  0  0  0
  -29.4710  -12.5940   18.1340 C   0  0  0  0  0  2  0  0  0  0  0  0
  -28.0050  -12.4030   18.5630 C   0  0  0  0  0  2  0  0  0  0  0  0
  -27.6150  -13.3000   19.7690 C   0  0  0  0  0  3  0  0  0  0  0  0
  -28.6720  -13.2570   20.8940 C   0  0  0  0  0  2  0  0  0  0  0  0
  -29.9600  -13.6270   20.2950 N   0  0  0  0  0  0  0  0  0  0  0  0
  -31.7990  -14.8780   20.0530 O   0  0  0  0  0  0  0  0  0  0  0  0
  -29.8720  -16.0340   20.5690 N   0  0  0  0  0  0  0  0  0  0  0  0
  -28.8940  -15.8600   20.7520 H   0  0  0  0  0  0  0  0  0  0  0  0
  -25.2240  -13.8670   20.4930 C   0  0  0  0  0  0  0  0  0  0  0  0
  -24.1630  -13.0860   20.8590 C   0  0  0  0  0  0  0  0  0  0  0  0
  -24.6380  -11.7380   20.8340 C   0  0  0  0  0  0  0  0  0  0  0  0
  -26.2750  -12.9970   20.2600 N   0  0  0  0  0  0  0  0  0  0  0  0
  -25.9300  -11.7100   20.5300 N   0  0  0  0  0  0  0  0  0  0  0  0
  -23.9190  -10.4710   21.0210 C   0  0  0  0  0  0  0  0  0  0  0  0
  -24.3460   -9.5120   21.9660 C   0  0  0  0  0  3  0  0  0  0  0  0
  -23.6250   -8.3100   22.1430 C   0  0  0  0  0  3  0  0  0  0  0  0
  -22.4640   -8.0590   21.3730 C   0  0  0  0  0  0  0  0  0  0  0  0
  -22.0560   -9.0080   20.4180 C   0  0  0  0  0  3  0  0  0  0  0  0
  -22.7770  -10.2000   20.2400 C   0  0  0  0  0  3  0  0  0  0  0  0
  -21.7150   -6.9100   21.4580 O   0  0  0  0  0  0  0  0  0  0  0  0
  -21.6520   -6.1770   22.6170 C   0  0  0  0  0  0  0  0  0  0  0  0
  -21.1840   -6.7350   23.8260 C   0  0  0  0  0  3  0  0  0  0  0  0
  -21.0690   -5.9270   24.9750 C   0  0  0  0  0  3  0  0  0  0  0  0
  -21.4100   -4.5630   24.9160 C   0  0  0  0  0  0  0  0  0  0  0  0
  -21.8710   -4.0050   23.7100 C   0  0  0  0  0  3  0  0  0  0  0  0
  -21.9880   -4.8100   22.5630 C   0  0  0  0  0  0  0  0  0  0  0  0
  -22.4120   -4.2620   21.3990 F   0  0  0  0  0  0  0  0  0  0  0  0
  -21.2930   -3.7850   26.0170 F   0  0  0  0  0  0  0  0  0  0  0  0
  -22.7610  -13.5530   21.1210 C   0  0  0  0  0  0  0  0  0  0  0  0
  -22.0340  -12.8540   21.9850 N   0  0  0  0  0  0  0  0  0  0  0  0
  -22.3200  -14.5750   20.5960 O   0  0  0  0  0  0  0  0  0  0  0  0
  -22.4030  -12.0280   22.4310 H   0  0  0  0  0  0  0  0  0  0  0  0
  -21.0930  -13.1490   22.2030 H   0  0  0  0  0  0  0  0  0  0  0  0
  -25.3760  -15.2390   20.3100 N   0  0  0  0  0  0  0  0  0  0  0  0
  -24.5970  -15.8820   20.4050 H   0  0  0  0  0  0  0  0  0  0  0  0
  -26.2090  -15.6820   19.9440 H   0  0  0  0  0  0  0  0  0  0  0  0
  1 46  1  0
  1  3  1  0
  2  1  2  0
  4  3  2  0
  5  4  1  0
  6 17  2  0
  7  5  1  0
  7 12  1  0
  8 16  1  0
  8 18  1  0
  9 15  1  0
  9 11  1  0
 10 16  1  0
 11 12  2  0
 11 10  1  0
 13  7  2  0
 14 13  1  0
 14  9  2  0
 15  8  1  0
 16  6  1  0
 18 20  2  0
 19 18  1  0
 21 19  1  0
 22 31  2  0
 22 27  1  0
 23 19  1  0
 23 27  1  0
 24 23  1  0
 25 26  1  0
 25 24  1  0
 26 22  1  0
 27 28  2  0
 28 29  1  0
 30 29  2  0
 31 30  1  0
 32  6  1  0
 32 37  1  0
 32 33  1  0
 33 36  1  1
 33 34  1  0
 35 33  1  0
 37 40  1  0
 38 42  1  0
 38 37  1  0
 39 38  2  0
 42 41  1  0
 44 42  1  0
 44 45  1  0
 44 43  1  0
 47 49  2  0
 47 48  1  0
 48 51  2  0
 49 52  1  0
 51 50  1  0
 51 61  1  0
 52 50  2  0
 52 46  1  0
 53 61  1  0
 54 59  1  0
 55 56  1  0
 55 54  1  0
 57 56  1  0
 57 66  1  0
 57 58  1  0
 59 53  1  0
 59 58  1  0
 60 53  2  0
 61 62  1  0
 63 64  2  0
 64 83  1  0
 65 64  1  0
 65 68  1  0
 66 63  1  0
 66 67  1  0
 67 65  2  0
 68 69  1  0
 69 70  2  0
 71 74  1  0
 71 70  1  0
 72 71  2  0
 73 72  1  0
 73 68  2  0
 74 75  1  0
 75 76  1  0
 76 77  2  0
 78 77  1  0
 78 82  1  0
 79 78  2  0
 80 75  2  0
 80 79  1  0
 81 80  1  0
 83 84  1  0
 84 87  1  0
 84 86  1  0
 85 83  2  0
 88 89  1  0
 88 63  1  0
 90 88  1  0
M  ISO  4   4 101   5 101  53 100  61 100
M  END
>  <TORSDO>  (86) 
F 19

>  <SCORE>  (86) 
-14.308

>  <name>  (86) 
85

>  <ligand_id>  (86) 
85

>  <original_smiles>  (86) 
[H]C(Oc1c([H])c([H])c2c(c1[H])C([H])([H])N(C(=O)C([H])(N([H])C(=O)C([H])(N([H])C([H])([H])[H])C([H])([H])[H])C(C([H])([H])[H])(C([H])([H])[H])C([H])([H])[H])C([H])(C(=O)N([H])C1([H])c3c([H])c([H])c([H])c([H])c3C([H])([H])C([H])([H])C1([H])[H])C2([H])[H])=C([H])C(=O)Oc1c([H])c([H])c([H])c(N([H])C(=O)N2C([H])([H])C([H])([H])C([H])([H])C([H])(n3nc(-c4c([H])c([H])c(Oc5c([H])c([H])c(F)c([H])c5F)c([H])c4[H])c(C(=O)N([H])[H])c3N([H])[H])C2([H])[H])c1[H]

>  <smiles>  (86) 
[H]C(Oc1c([H])c([H])c2c(c1[H])C([H])([H])N(C(=O)C([H])(N([H])C(=O)C([H])(N([H])C([H])([H])[H])C([H])([H])[H])C(C([H])([H])[H])(C([H])([H])[H])C([H])([H])[H])C([H])(C(=O)N([H])C1([H])c3c([H])c([H])c([H])c([H])c3C([H])([H])C([H])([H])C1([H])[H])C2([H])[H])=C([H])C(=O)Oc1c([H])c([H])c([H])c(N([H])C(=O)N2C([H])([H])C([H])([H])C([H])([H])C([H])(n3nc(-c4c([H])c([H])c(Oc5c([H])c([H])c(F)c([H])c5F)c([H])c4[H])c(C(=O)N([H])[H])c3N([H])[H])C2([H])[H])c1[H]

$$$$
