0:0:0
     RDKit          3D

 95103  0  0  1  0  0  0  0  0999 V2000
  -29.0220  -21.2900   20.8160 C   0  0  0  0  0  0  0  0  0  0  0  0
  -28.5520  -23.8960   20.5600 C   0  0  0  0  0  0  0  0  0  0  0  0
  -28.7270  -24.1800   21.8590 N   0  0  0  0  0  4  0  0  0  0  0  0
  -28.7340  -22.5810   20.0750 N   0  0  0  0  0  0  0  0  0  0  0  0
  -28.2090  -25.0150   19.7850 N   0  0  0  0  0  0  0  0  0  0  0  0
  -28.9110  -21.2940   22.0480 O   0  0  0  0  0  0  0  0  0  0  0  0
  -28.9520  -23.4580   22.5300 H   0  0  0  0  0  0  0  0  0  0  0  0
  -28.6010  -25.1320   22.1740 H   0  0  0  0  0  0  0  0  0  0  0  0
  -28.7110  -22.5550   19.0700 H   0  0  0  0  0  0  0  0  0  0  0  0
  -28.0830  -24.9290   18.7860 H   0  0  0  0  0  0  0  0  0  0  0  0
  -30.7330  -18.8830   18.3000 C   0  0  0  0  0  3  0  0  0  0  0  0
  -30.1900  -20.0330   18.9100 C   0  0  0  0  0  3  0  0  0  0  0  0
  -30.6150  -17.6000   18.8770 C   0  0  0  0  0  3  0  0  0  0  0  0
  -29.3620  -18.6000   20.6970 C   0  0  0  0  0  3  0  0  0  0  0  0
  -29.4810  -19.9520   20.1260 C   0  0  0  0  0  0  0  0  0  0  0  0
  -29.9340  -17.3880   20.0980 C   0  0  0  0  0  0  0  0  0  0  0  0
  -30.5600  -14.8300   20.3400 C   0  0  0  0  0  0  0  0  0  0  0  0
  -30.3750  -12.5290   19.3710 C   0  0  0  0  0  2  0  0  0  0  0  0
  -29.4340  -12.5690   18.1450 C   0  0  0  0  0  2  0  0  0  0  0  0
  -27.9670  -12.3980   18.5810 C   0  0  0  0  0  2  0  0  0  0  0  0
  -27.5920  -13.3060   19.7820 C   0  0  0  0  0  3  0  0  0  0  0  0
  -28.6490  -13.2370   20.9060 C   0  0  0  0  0  2  0  0  0  0  0  0
  -29.9430  -13.5940   20.3120 N   0  0  0  0  0  0  0  0  0  0  0  0
  -31.7430  -14.9080   19.9940 O   0  0  0  0  0  0  0  0  0  0  0  0
  -29.8030  -15.9790   20.6080 N   0  0  0  0  0  0  0  0  0  0  0  0
  -28.9390  -15.7860   21.0930 H   0  0  0  0  0  0  0  0  0  0  0  0
  -25.2080  -13.9070   20.5070 C   0  0  0  0  0  0  0  0  0  0  0  0
  -24.1400  -13.1400   20.8800 C   0  0  0  0  0  0  0  0  0  0  0  0
  -24.5980  -11.7860   20.8570 C   0  0  0  0  0  0  0  0  0  0  0  0
  -26.2480  -13.0230   20.2740 N   0  0  0  0  0  0  0  0  0  0  0  0
  -25.8890  -11.7430   20.5510 N   0  0  0  0  0  0  0  0  0  0  0  0
  -23.8680  -10.5260   21.0540 C   0  0  0  0  0  0  0  0  0  0  0  0
  -24.3090   -9.5520   21.9770 C   0  0  0  0  0  3  0  0  0  0  0  0
  -23.5770   -8.3590   22.1610 C   0  0  0  0  0  3  0  0  0  0  0  0
  -22.3920   -8.1300   21.4210 C   0  0  0  0  0  0  0  0  0  0  0  0
  -21.9720   -9.0930   20.4860 C   0  0  0  0  0  3  0  0  0  0  0  0
  -22.7040  -10.2780   20.3000 C   0  0  0  0  0  3  0  0  0  0  0  0
  -21.6330   -6.9890   21.5150 O   0  0  0  0  0  0  0  0  0  0  0  0
  -21.6090   -6.2320   22.6590 C   0  0  0  0  0  0  0  0  0  0  0  0
  -21.2290   -6.7760   23.9050 C   0  0  0  0  0  3  0  0  0  0  0  0
  -21.1510   -5.9460   25.0410 C   0  0  0  0  0  3  0  0  0  0  0  0
  -21.4450   -4.5740   24.9340 C   0  0  0  0  0  0  0  0  0  0  0  0
  -21.8190   -4.0300   23.6930 C   0  0  0  0  0  3  0  0  0  0  0  0
  -21.8990   -4.8560   22.5590 C   0  0  0  0  0  0  0  0  0  0  0  0
  -22.2380   -4.3220   21.3600 F   0  0  0  0  0  0  0  0  0  0  0  0
  -21.3640   -3.7750   26.0230 F   0  0  0  0  0  0  0  0  0  0  0  0
  -22.7430  -13.6210   21.1460 C   0  0  0  0  0  0  0  0  0  0  0  0
  -22.0130  -12.9320   22.0150 N   0  0  0  0  0  0  0  0  0  0  0  0
  -22.3100  -14.6440   20.6170 O   0  0  0  0  0  0  0  0  0  0  0  0
  -22.3760  -12.1040   22.4630 H   0  0  0  0  0  0  0  0  0  0  0  0
  -21.0750  -13.2380   22.2370 H   0  0  0  0  0  0  0  0  0  0  0  0
  -25.3770  -15.2770   20.3220 N   0  0  0  0  0  0  0  0  0  0  0  0
  -24.6130  -15.9340   20.4330 H   0  0  0  0  0  0  0  0  0  0  0  0
  -26.2180  -15.7060   19.9590 H   0  0  0  0  0  0  0  0  0  0  0  0
  -28.3100  -26.4040   20.2360 O   0  0  0  0  0  0  0  0  0  0  0  0
  -24.6140  -31.8820   23.2370 C   0  0  0  0  0  0  0  0  0  0  0  0
  -27.1840  -27.2660   20.1600 C   0  0  0  0  0  0  0  0  0  0  0  0
  -23.3970  -30.4890   21.6030 C   0  0  0  0  0  3  0  0  0  0  0  0
  -24.8300  -28.9290   20.1610 C   0  0  0  0  0  0  0  0  0  0  0  0
  -25.9380  -30.7870   21.4040 C   0  0  0  0  0  2  0  0  0  0  0  0
  -26.0060  -29.4030   20.7540 C   0  0  0  0  0  0  0  0  0  0  0  0
  -27.1780  -28.5810   20.7460 C   0  0  0  0  0  3  0  0  0  0  0  0
  -25.9830  -26.8610   19.5350 C   0  0  0  0  0  3  0  0  0  0  0  0
  -24.8230  -27.6670   19.5430 C   0  0  0  0  0  3  0  0  0  0  0  0
  -23.5980  -29.8130   20.2210 C   0  0  0  0  0  2  0  0  0  0  0  0
  -24.6700  -31.0730   22.1370 N   0  0  0  0  0  0  0  0  0  0  0  0
  -23.5360  -32.1620   23.7810 O   0  0  0  0  0  0  0  0  0  0  0  0
  -22.7370  -29.4760   22.5700 C   0  0  0  0  0  0  0  0  0  0  0  0
  -21.4090  -29.3000   22.4520 N   0  0  0  0  0  0  0  0  0  0  0  0
  -23.4190  -28.8530   23.3870 O   0  0  0  0  0  0  0  0  0  0  0  0
  -20.9170  -29.8540   21.7650 H   0  0  0  0  0  0  0  0  0  0  0  0
  -18.0370  -28.0880   22.9620 C   0  0  0  0  0  0  0  0  0  0  0  0
  -20.5960  -28.3600   23.2270 C   0  0  0  0  0  3  0  0  0  0  0  0
  -20.7030  -26.9280   22.6560 C   0  0  0  0  0  2  0  0  0  0  0  0
  -19.6000  -26.5970   21.6460 C   0  0  0  0  0  2  0  0  0  0  0  0
  -18.2170  -26.7390   22.2900 C   0  0  0  0  0  2  0  0  0  0  0  0
  -19.1530  -28.8560   23.3880 C   0  0  0  0  0  0  0  0  0  0  0  0
  -18.9290  -30.1200   23.9770 C   0  0  0  0  0  3  0  0  0  0  0  0
  -17.6230  -30.6150   24.1450 C   0  0  0  0  0  3  0  0  0  0  0  0
  -16.5200  -29.8450   23.7360 C   0  0  0  0  0  3  0  0  0  0  0  0
  -16.7290  -28.5830   23.1480 C   0  0  0  0  0  3  0  0  0  0  0  0
  -25.9010  -32.5140   23.8510 C   0  0  0  0  0  3  0  0  0  0  0  0
  -25.5940  -33.9130   24.1900 N   0  0  0  0  0  0  0  0  0  0  0  0
  -25.9160  -34.9700   23.4340 C   0  0  0  0  0  0  0  0  0  0  0  0
  -26.5730  -34.8710   22.3930 O   0  0  0  0  0  0  0  0  0  0  0  0
  -25.0100  -34.0630   24.9990 H   0  0  0  0  0  0  0  0  0  0  0  0
  -24.1790  -36.7620   23.1220 C   0  0  0  0  0  1  0  0  0  0  0  0
  -25.4380  -36.3560   23.9060 C   0  0  0  0  0  3  0  0  0  0  0  0
  -27.5870  -37.2400   24.6950 C   0  0  0  0  0  1  0  0  0  0  0  0
  -26.4660  -37.4120   23.7750 N   0  0  0  0  0  0  0  0  0  0  0  0
  -26.0630  -38.3310   23.9350 H   0  0  0  0  0  0  0  0  0  0  0  0
  -26.4270  -31.7410   25.1230 C   0  0  1  0  0  0  0  0  0  0  0  0
  -25.3410  -31.5080   26.2000 C   0  0  0  0  0  1  0  0  0  0  0  0
  -27.0020  -30.3620   24.7280 C   0  0  0  0  0  1  0  0  0  0  0  0
  -27.5840  -32.5330   25.7760 C   0  0  0  0  0  1  0  0  0  0  0  0
  1  6  2  0
  2  3  2  0
  3  8  1  0
  3  7  1  0
  4  2  1  0
  4  1  1  0
  5 55  1  0
  5  2  1  0
  9  4  1  0
 10  5  1  0
 11 13  2  0
 11 12  1  0
 12 15  2  0
 13 16  1  0
 15 14  1  0
 15  1  1  0
 16 25  1  0
 16 14  2  0
 17 25  1  0
 18 23  1  0
 19 20  1  0
 19 18  1  0
 21 20  1  0
 21 30  1  0
 21 22  1  0
 23 17  1  0
 23 22  1  0
 24 17  2  0
 25 26  1  0
 27 28  2  0
 28 47  1  0
 29 28  1  0
 29 32  1  0
 30 27  1  0
 30 31  1  0
 31 29  2  0
 32 33  1  0
 33 34  2  0
 35 38  1  0
 35 34  1  0
 36 35  2  0
 37 36  1  0
 37 32  2  0
 38 39  1  0
 39 40  1  0
 40 41  2  0
 42 41  1  0
 42 46  1  0
 43 42  2  0
 44 39  2  0
 44 43  1  0
 45 44  1  0
 47 48  1  0
 48 51  1  0
 48 50  1  0
 49 47  2  0
 52 53  1  0
 52 27  1  0
 54 52  1  0
 56 67  2  0
 57 55  1  0
 57 62  1  0
 58 66  1  0
 58 68  1  0
 59 65  1  0
 59 61  1  0
 60 66  1  0
 61 60  1  0
 62 61  2  0
 63 64  1  0
 63 57  2  0
 64 59  2  0
 65 58  1  0
 66 56  1  0
 68 70  2  0
 69 68  1  0
 71 69  1  0
 72 81  2  0
 72 77  1  0
 73 69  1  0
 73 77  1  0
 74 73  1  0
 75 76  1  0
 75 74  1  0
 76 72  1  0
 77 78  2  0
 78 79  1  0
 80 79  2  0
 81 80  1  0
 82 56  1  0
 82 83  1  0
 82 92  1  0
 83 86  1  0
 84 88  1  0
 84 83  1  0
 85 84  2  0
 88 87  1  0
 90 88  1  0
 90 91  1  0
 90 89  1  0
 92 95  1  1
 92 93  1  0
 94 92  1  0
M  ISO  4   5 101  17 100  25 100  55 101
M  END
>  <TORSDO>  (1) 
F 17

>  <SCORE>  (1) 
-15.162

>  <name>  (1) 
0

>  <ligand_id>  (1) 
0

>  <original_smiles>  (1) 
[H]c1c([H])c(C(=O)N([H])C(N([H])[H])=[N+]([H])Oc2c([H])c([H])c3c(c2[H])C([H])([H])N(C(=O)C([H])(N([H])C(=O)C([H])(N([H])C([H])([H])[H])C([H])([H])[H])C(C([H])([H])[H])(C([H])([H])[H])C([H])([H])[H])C([H])(C(=O)N([H])C2([H])c4c([H])c([H])c([H])c([H])c4C([H])([H])C([H])([H])C2([H])[H])C3([H])[H])c([H])c(N([H])C(=O)N2C([H])([H])C([H])([H])C([H])([H])C([H])(n3nc(-c4c([H])c([H])c(Oc5c([H])c([H])c(F)c([H])c5F)c([H])c4[H])c(C(=O)N([H])[H])c3N([H])[H])C2([H])[H])c1[H]

>  <smiles>  (1) 
[H]c1c([H])c(C(=O)N([H])C(N([H])[H])=[N+]([H])Oc2c([H])c([H])c3c(c2[H])C([H])([H])N(C(=O)C([H])(N([H])C(=O)C([H])(N([H])C([H])([H])[H])C([H])([H])[H])C(C([H])([H])[H])(C([H])([H])[H])C([H])([H])[H])C([H])(C(=O)N([H])C2([H])c4c([H])c([H])c([H])c([H])c4C([H])([H])C([H])([H])C2([H])[H])C3([H])[H])c([H])c(N([H])C(=O)N2C([H])([H])C([H])([H])C([H])([H])C([H])(n3nc(-c4c([H])c([H])c(Oc5c([H])c([H])c(F)c([H])c5F)c([H])c4[H])c(C(=O)N([H])[H])c3N([H])[H])C2([H])[H])c1[H]

$$$$
1:0:0
     RDKit          3D

 96105  0  0  1  0  0  0  0  0999 V2000
  -28.4520  -22.9240   19.1960 C   0  0  0  0  0  3  0  0  0  0  0  0
  -28.0990  -24.2250   18.9050 C   0  0  0  0  0  0  0  0  0  0  0  0
  -28.4850  -25.0970   19.9820 C   0  0  0  0  0  0  0  0  0  0  0  0
  -29.1370  -24.2510   20.8760 C   0  0  0  0  0  0  0  0  0  0  0  0
  -29.7560  -21.6710   21.0330 C   0  0  0  0  0  0  0  0  0  0  0  0
  -29.7980  -24.6740   22.1550 C   0  0  0  0  0  1  0  0  0  0  0  0
  -29.1340  -22.8970   20.3980 N   0  0  0  0  0  0  0  0  0  0  0  0
  -30.3540  -21.8760   22.0930 O   0  0  0  0  0  0  0  0  0  0  0  0
  -28.7270  -19.3140   21.1020 C   0  0  0  0  0  3  0  0  0  0  0  0
  -28.8330  -17.8940   21.0260 C   0  0  0  0  0  3  0  0  0  0  0  0
  -30.9200  -18.0950   19.8660 C   0  0  0  0  0  3  0  0  0  0  0  0
  -29.7180  -20.1870   20.5800 C   0  0  0  0  0  0  0  0  0  0  0  0
  -29.9410  -17.2290   20.4370 C   0  0  0  0  0  0  0  0  0  0  0  0
  -30.8170  -19.5300   19.9440 C   0  0  0  0  0  0  0  0  0  0  0  0
  -31.8370  -20.2760   19.4520 F   0  0  0  0  0  0  0  0  0  0  0  0
  -30.7460  -14.7400   20.0060 C   0  0  0  0  0  0  0  0  0  0  0  0
  -30.5010  -12.5000   18.9320 C   0  0  0  0  0  2  0  0  0  0  0  0
  -29.4900  -12.6490   17.7710 C   0  0  0  0  0  2  0  0  0  0  0  0
  -28.0380  -12.4940   18.2730 C   0  0  0  0  0  2  0  0  0  0  0  0
  -27.7560  -13.3370   19.5460 C   0  0  0  0  0  3  0  0  0  0  0  0
  -28.8730  -13.1450   20.5970 C   0  0  0  0  0  2  0  0  0  0  0  0
  -30.1510  -13.5030   19.9580 N   0  0  0  0  0  0  0  0  0  0  0  0
  -31.8760  -14.9260   19.5420 O   0  0  0  0  0  0  0  0  0  0  0  0
  -29.9360  -15.7540   20.4640 N   0  0  0  0  0  0  0  0  0  0  0  0
  -29.0970  -15.3670   20.8670 H   0  0  0  0  0  0  0  0  0  0  0  0
  -25.4180  -13.9600   20.4140 C   0  0  0  0  0  0  0  0  0  0  0  0
  -24.3600  -13.1970   20.8270 C   0  0  0  0  0  0  0  0  0  0  0  0
  -24.7940  -11.8400   20.7350 C   0  0  0  0  0  0  0  0  0  0  0  0
  -26.4310  -13.0670   20.0980 N   0  0  0  0  0  0  0  0  0  0  0  0
  -26.0630  -11.7860   20.3520 N   0  0  0  0  0  0  0  0  0  0  0  0
  -24.0570  -10.5850   20.9370 C   0  0  0  0  0  0  0  0  0  0  0  0
  -24.4970   -9.6100   21.8590 C   0  0  0  0  0  3  0  0  0  0  0  0
  -23.7610   -8.4210   22.0490 C   0  0  0  0  0  3  0  0  0  0  0  0
  -22.5700   -8.1980   21.3190 C   0  0  0  0  0  0  0  0  0  0  0  0
  -22.1490   -9.1630   20.3860 C   0  0  0  0  0  3  0  0  0  0  0  0
  -22.8850  -10.3440   20.1930 C   0  0  0  0  0  3  0  0  0  0  0  0
  -21.8050   -7.0610   21.4190 O   0  0  0  0  0  0  0  0  0  0  0  0
  -21.7260   -6.3470   22.5880 C   0  0  0  0  0  0  0  0  0  0  0  0
  -21.2700   -6.9330   23.7900 C   0  0  0  0  0  3  0  0  0  0  0  0
  -21.1360   -6.1450   24.9490 C   0  0  0  0  0  3  0  0  0  0  0  0
  -21.4500   -4.7730   24.9090 C   0  0  0  0  0  0  0  0  0  0  0  0
  -21.9000   -4.1870   23.7140 C   0  0  0  0  0  3  0  0  0  0  0  0
  -22.0350   -4.9730   22.5550 C   0  0  0  0  0  0  0  0  0  0  0  0
  -22.4470   -4.4000   21.3990 F   0  0  0  0  0  0  0  0  0  0  0  0
  -21.3150   -4.0140   26.0230 F   0  0  0  0  0  0  0  0  0  0  0  0
  -22.9890  -13.6920   21.1910 C   0  0  0  0  0  0  0  0  0  0  0  0
  -22.3000  -12.9900   22.0840 N   0  0  0  0  0  0  0  0  0  0  0  0
  -22.5390  -14.7340   20.7160 O   0  0  0  0  0  0  0  0  0  0  0  0
  -22.6780  -12.1480   22.4930 H   0  0  0  0  0  0  0  0  0  0  0  0
  -21.3810  -13.3010   22.3660 H   0  0  0  0  0  0  0  0  0  0  0  0
  -25.5950  -15.3330   20.2620 N   0  0  0  0  0  0  0  0  0  0  0  0
  -24.8410  -15.9900   20.4280 H   0  0  0  0  0  0  0  0  0  0  0  0
  -26.4220  -15.7730   19.8800 H   0  0  0  0  0  0  0  0  0  0  0  0
  -27.5080  -24.6180   17.7410 O   0  0  0  0  0  0  0  0  0  0  0  0
  -27.4660  -25.5670   17.6640 H   0  0  0  0  0  0  0  0  0  0  0  0
  -28.4100  -26.5210   20.0390 O   0  0  0  0  0  0  0  0  0  0  0  0
  -24.5230  -31.7860   23.1650 C   0  0  0  0  0  0  0  0  0  0  0  0
  -27.2340  -27.2970   20.0630 C   0  0  0  0  0  0  0  0  0  0  0  0
  -23.3490  -30.3780   21.5120 C   0  0  0  0  0  3  0  0  0  0  0  0
  -24.8300  -28.8670   20.0750 C   0  0  0  0  0  0  0  0  0  0  0  0
  -25.8810  -30.7490   21.3270 C   0  0  0  0  0  2  0  0  0  0  0  0
  -25.9900  -29.3740   20.6740 C   0  0  0  0  0  0  0  0  0  0  0  0
  -27.1910  -28.6010   20.6570 C   0  0  0  0  0  3  0  0  0  0  0  0
  -26.0410  -26.8380   19.4620 C   0  0  0  0  0  3  0  0  0  0  0  0
  -24.8590  -27.6050   19.4610 C   0  0  0  0  0  3  0  0  0  0  0  0
  -23.5780  -29.7180   20.1270 C   0  0  0  0  0  2  0  0  0  0  0  0
  -24.6040  -30.9880   22.0590 N   0  0  0  0  0  0  0  0  0  0  0  0
  -23.4340  -32.0350   23.7020 O   0  0  0  0  0  0  0  0  0  0  0  0
  -22.7050  -29.3410   22.4620 C   0  0  0  0  0  0  0  0  0  0  0  0
  -21.3870  -29.1210   22.3190 N   0  0  0  0  0  0  0  0  0  0  0  0
  -23.3920  -28.7350   23.2890 O   0  0  0  0  0  0  0  0  0  0  0  0
  -20.8890  -29.6640   21.6280 H   0  0  0  0  0  0  0  0  0  0  0  0
  -18.0520  -27.7860   22.7430 C   0  0  0  0  0  0  0  0  0  0  0  0
  -20.5890  -28.1550   23.0760 C   0  0  0  0  0  3  0  0  0  0  0  0
  -20.7660  -26.7260   22.5140 C   0  0  0  0  0  2  0  0  0  0  0  0
  -19.7050  -26.3510   21.4750 C   0  0  0  0  0  2  0  0  0  0  0  0
  -18.3020  -26.4410   22.0820 C   0  0  0  0  0  2  0  0  0  0  0  0
  -19.1250  -28.5970   23.1960 C   0  0  0  0  0  0  0  0  0  0  0  0
  -18.8370  -29.8530   23.7730 C   0  0  0  0  0  3  0  0  0  0  0  0
  -17.5090  -30.3000   23.9000 C   0  0  0  0  0  3  0  0  0  0  0  0
  -16.4490  -29.4860   23.4650 C   0  0  0  0  0  3  0  0  0  0  0  0
  -16.7210  -28.2300   22.8910 C   0  0  0  0  0  3  0  0  0  0  0  0
  -25.7910  -32.4390   23.7970 C   0  0  0  0  0  3  0  0  0  0  0  0
  -25.4520  -33.8270   24.1460 N   0  0  0  0  0  0  0  0  0  0  0  0
  -25.7460  -34.8950   23.3930 C   0  0  0  0  0  0  0  0  0  0  0  0
  -26.3990  -34.8160   22.3480 O   0  0  0  0  0  0  0  0  0  0  0  0
  -24.8730  -33.9580   24.9630 H   0  0  0  0  0  0  0  0  0  0  0  0
  -23.9650  -36.6440   23.0910 C   0  0  0  0  0  1  0  0  0  0  0  0
  -25.2340  -36.2670   23.8720 C   0  0  0  0  0  3  0  0  0  0  0  0
  -27.3630  -37.2040   24.6630 C   0  0  0  0  0  1  0  0  0  0  0  0
  -26.2380  -37.3470   23.7420 N   0  0  0  0  0  0  0  0  0  0  0  0
  -25.8120  -38.2570   23.9000 H   0  0  0  0  0  0  0  0  0  0  0  0
  -26.3230  -31.6630   25.0640 C   0  0  1  0  0  0  0  0  0  0  0  0
  -25.2350  -31.3910   26.1280 C   0  0  0  0  0  1  0  0  0  0  0  0
  -26.9340  -30.3030   24.6540 C   0  0  0  0  0  1  0  0  0  0  0  0
  -27.4590  -32.4710   25.7360 C   0  0  0  0  0  1  0  0  0  0  0  0
  1  7  1  0
  2  1  2  0
  2  3  1  0
  3 56  1  0
  3  4  2  0
  4  6  1  0
  5  8  2  0
  7  4  1  0
  7  5  1  0
 10  9  1  0
 11 14  2  0
 11 13  1  0
 12  5  1  0
 12  9  2  0
 13 24  1  0
 13 10  2  0
 14 12  1  0
 15 14  1  0
 16 24  1  0
 17 22  1  0
 18 19  1  0
 18 17  1  0
 20 19  1  0
 20 29  1  0
 20 21  1  0
 22 16  1  0
 22 21  1  0
 23 16  2  0
 24 25  1  0
 26 27  2  0
 27 46  1  0
 28 27  1  0
 28 31  1  0
 29 30  1  0
 29 26  1  0
 30 28  2  0
 31 32  1  0
 32 33  2  0
 34 37  1  0
 34 33  1  0
 35 34  2  0
 36 35  1  0
 36 31  2  0
 37 38  1  0
 38 39  1  0
 39 40  2  0
 41 40  1  0
 41 45  1  0
 42 41  2  0
 43 38  2  0
 43 42  1  0
 44 43  1  0
 46 47  1  0
 47 50  1  0
 47 49  1  0
 48 46  2  0
 51 26  1  0
 51 52  1  0
 53 51  1  0
 54  2  1  0
 55 54  1  0
 56 58  1  0
 57 68  2  0
 58 63  1  0
 59 67  1  0
 59 69  1  0
 60 66  1  0
 60 62  1  0
 61 67  1  0
 62 61  1  0
 63 62  2  0
 64 58  2  0
 65 64  1  0
 65 60  2  0
 66 59  1  0
 67 57  1  0
 69 71  2  0
 70 69  1  0
 72 70  1  0
 73 82  2  0
 73 78  1  0
 74 70  1  0
 74 78  1  0
 75 74  1  0
 76 77  1  0
 76 75  1  0
 77 73  1  0
 78 79  2  0
 79 80  1  0
 81 80  2  0
 82 81  1  0
 83 57  1  0
 83 84  1  0
 83 93  1  0
 84 87  1  0
 85 89  1  0
 85 84  1  0
 86 85  2  0
 89 88  1  0
 91 89  1  0
 91 92  1  0
 91 90  1  0
 93 96  1  1
 93 94  1  0
 95 93  1  0
M  ISO  4   3 101  16 100  24 100  56 101
M  END
>  <TORSDO>  (2) 
F 18

>  <SCORE>  (2) 
-14.326

>  <name>  (2) 
1

>  <ligand_id>  (2) 
1

>  <original_smiles>  (2) 
[H]Oc1c(Oc2c([H])c([H])c3c(c2[H])C([H])([H])N(C(=O)C([H])(N([H])C(=O)C([H])(N([H])C([H])([H])[H])C([H])([H])[H])C(C([H])([H])[H])(C([H])([H])[H])C([H])([H])[H])C([H])(C(=O)N([H])C2([H])c4c([H])c([H])c([H])c([H])c4C([H])([H])C([H])([H])C2([H])[H])C3([H])[H])c(C([H])([H])[H])n(C(=O)c2c([H])c([H])c(N([H])C(=O)N3C([H])([H])C([H])([H])C([H])([H])C([H])(n4nc(-c5c([H])c([H])c(Oc6c([H])c([H])c(F)c([H])c6F)c([H])c5[H])c(C(=O)N([H])[H])c4N([H])[H])C3([H])[H])c([H])c2F)c1[H]

>  <smiles>  (2) 
[H]Oc1c(Oc2c([H])c([H])c3c(c2[H])C([H])([H])N(C(=O)C([H])(N([H])C(=O)C([H])(N([H])C([H])([H])[H])C([H])([H])[H])C(C([H])([H])[H])(C([H])([H])[H])C([H])([H])[H])C([H])(C(=O)N([H])C2([H])c4c([H])c([H])c([H])c([H])c4C([H])([H])C([H])([H])C2([H])[H])C3([H])[H])c(C([H])([H])[H])n(C(=O)c2c([H])c([H])c(N([H])C(=O)N3C([H])([H])C([H])([H])C([H])([H])C([H])(n4nc(-c5c([H])c([H])c(Oc6c([H])c([H])c(F)c([H])c6F)c([H])c5[H])c(C(=O)N([H])[H])c4N([H])[H])C3([H])[H])c([H])c2F)c1[H]

$$$$
2:0:0
     RDKit          3D

 99108  0  0  1  0  0  0  0  0999 V2000
  -30.3710  -24.3510   20.5010 C   0  0  0  0  0  3  0  0  0  0  0  0
  -31.1880  -22.1030   20.7120 C   0  0  0  0  0  3  0  0  0  0  0  0
  -29.1740  -23.9320   20.0440 C   0  0  0  0  0  0  0  0  0  0  0  0
  -31.4180  -23.4190   20.8530 C   0  0  0  0  0  0  0  0  0  0  0  0
  -28.9350  -22.4430   19.8990 C   0  0  0  0  0  0  0  0  0  0  0  0
  -29.9690  -21.5710   20.2420 N   0  0  0  0  0  0  0  0  0  0  0  0
  -27.8600  -22.0020   19.4800 O   0  0  0  0  0  0  0  0  0  0  0  0
  -28.8120  -19.3360   20.6240 C   0  0  0  0  0  3  0  0  0  0  0  0
  -31.0610  -17.8890   19.7900 C   0  0  0  0  0  3  0  0  0  0  0  0
  -29.9240  -20.0920   20.1660 C   0  0  0  0  0  0  0  0  0  0  0  0
  -28.8260  -17.9080   20.6770 C   0  0  0  0  0  0  0  0  0  0  0  0
  -29.9590  -17.1390   20.2810 C   0  0  0  0  0  0  0  0  0  0  0  0
  -31.0430  -19.3170   19.7320 C   0  0  0  0  0  0  0  0  0  0  0  0
  -32.1410  -19.9470   19.2490 F   0  0  0  0  0  0  0  0  0  0  0  0
  -30.6300  -14.6460   19.8700 C   0  0  0  0  0  0  0  0  0  0  0  0
  -30.3220  -12.4360   18.7680 C   0  0  0  0  0  2  0  0  0  0  0  0
  -29.2750  -12.6000   17.6410 C   0  0  0  0  0  2  0  0  0  0  0  0
  -27.8430  -12.4390   18.1900 C   0  0  0  0  0  2  0  0  0  0  0  0
  -27.6010  -13.2660   19.4800 C   0  0  0  0  0  3  0  0  0  0  0  0
  -28.7500  -13.0670   20.4950 C   0  0  0  0  0  2  0  0  0  0  0  0
  -30.0080  -13.4240   19.8210 N   0  0  0  0  0  0  0  0  0  0  0  0
  -31.7400  -14.8170   19.3580 O   0  0  0  0  0  0  0  0  0  0  0  0
  -29.8880  -15.6760   20.3880 N   0  0  0  0  0  0  0  0  0  0  0  0
  -29.0710  -15.3600   20.8850 H   0  0  0  0  0  0  0  0  0  0  0  0
  -25.2920  -13.8650   20.4350 C   0  0  0  0  0  0  0  0  0  0  0  0
  -24.2490  -13.0920   20.8680 C   0  0  0  0  0  0  0  0  0  0  0  0
  -24.6800  -11.7370   20.7320 C   0  0  0  0  0  0  0  0  0  0  0  0
  -26.2940  -12.9820   20.0680 N   0  0  0  0  0  0  0  0  0  0  0  0
  -25.9370  -11.6930   20.3060 N   0  0  0  0  0  0  0  0  0  0  0  0
  -23.9510  -10.4780   20.9300 C   0  0  0  0  0  0  0  0  0  0  0  0
  -24.3870   -9.5070   21.8570 C   0  0  0  0  0  3  0  0  0  0  0  0
  -23.6590   -8.3130   22.0420 C   0  0  0  0  0  3  0  0  0  0  0  0
  -22.4770   -8.0800   21.2980 C   0  0  0  0  0  0  0  0  0  0  0  0
  -22.0590   -9.0400   20.3590 C   0  0  0  0  0  3  0  0  0  0  0  0
  -22.7890  -10.2260   20.1720 C   0  0  0  0  0  3  0  0  0  0  0  0
  -21.7190   -6.9390   21.3920 O   0  0  0  0  0  0  0  0  0  0  0  0
  -21.6020   -6.2480   22.5710 C   0  0  0  0  0  0  0  0  0  0  0  0
  -21.1110   -6.8570   23.7460 C   0  0  0  0  0  3  0  0  0  0  0  0
  -20.9420   -6.0920   24.9190 C   0  0  0  0  0  3  0  0  0  0  0  0
  -21.2540   -4.7190   24.9150 C   0  0  0  0  0  0  0  0  0  0  0  0
  -21.7380   -4.1090   23.7450 C   0  0  0  0  0  3  0  0  0  0  0  0
  -21.9090   -4.8710   22.5750 C   0  0  0  0  0  0  0  0  0  0  0  0
  -22.3560   -4.2750   21.4440 F   0  0  0  0  0  0  0  0  0  0  0  0
  -21.0840   -3.9830   26.0380 F   0  0  0  0  0  0  0  0  0  0  0  0
  -22.8900  -13.5770   21.2850 C   0  0  0  0  0  0  0  0  0  0  0  0
  -22.2390  -12.8650   22.1970 N   0  0  0  0  0  0  0  0  0  0  0  0
  -22.4180  -14.6210   20.8370 O   0  0  0  0  0  0  0  0  0  0  0  0
  -22.6350  -12.0190   22.5810 H   0  0  0  0  0  0  0  0  0  0  0  0
  -21.3310  -13.1700   22.5190 H   0  0  0  0  0  0  0  0  0  0  0  0
  -25.4630  -15.2400   20.2970 N   0  0  0  0  0  0  0  0  0  0  0  0
  -24.6940  -15.8820   20.4570 H   0  0  0  0  0  0  0  0  0  0  0  0
  -26.2220  -15.6620   19.7780 H   0  0  0  0  0  0  0  0  0  0  0  0
  -27.6880  -17.2530   21.1480 N   0  0  0  0  0  0  0  0  0  0  0  0
  -26.8530  -17.8160   21.2700 H   0  0  0  0  0  0  0  0  0  0  0  0
  -27.4540  -16.3450   20.7650 H   0  0  0  0  0  0  0  0  0  0  0  0
  -32.5950  -23.8530   21.3160 O   0  0  0  0  0  0  0  0  0  0  0  0
  -32.5680  -24.8020   21.3440 H   0  0  0  0  0  0  0  0  0  0  0  0
  -28.0580  -24.9630   19.6570 C   0  0  0  0  0  2  0  0  0  0  0  0
  -28.2610  -26.4110   19.9320 O   0  0  0  0  0  0  0  0  0  0  0  0
  -24.4020  -31.6390   23.0950 C   0  0  0  0  0  0  0  0  0  0  0  0
  -27.1240  -27.2410   19.8990 C   0  0  0  0  0  0  0  0  0  0  0  0
  -23.2310  -30.2590   21.4180 C   0  0  0  0  0  3  0  0  0  0  0  0
  -24.7170  -28.7940   19.9430 C   0  0  0  0  0  0  0  0  0  0  0  0
  -25.7610  -30.6490   21.2400 C   0  0  0  0  0  2  0  0  0  0  0  0
  -25.8760  -29.2940   20.5510 C   0  0  0  0  0  0  0  0  0  0  0  0
  -27.0810  -28.5300   20.5190 C   0  0  0  0  0  3  0  0  0  0  0  0
  -25.9370  -26.8020   19.2640 C   0  0  0  0  0  3  0  0  0  0  0  0
  -24.7500  -27.5540   19.2910 C   0  0  0  0  0  3  0  0  0  0  0  0
  -23.4580  -29.6330   20.0190 C   0  0  0  0  0  2  0  0  0  0  0  0
  -24.4840  -30.8650   21.9750 N   0  0  0  0  0  0  0  0  0  0  0  0
  -23.3130  -31.8720   23.6410 O   0  0  0  0  0  0  0  0  0  0  0  0
  -22.5980  -29.1960   22.3480 C   0  0  0  0  0  0  0  0  0  0  0  0
  -21.2770  -28.9850   22.2150 N   0  0  0  0  0  0  0  0  0  0  0  0
  -23.2940  -28.5660   23.1490 O   0  0  0  0  0  0  0  0  0  0  0  0
  -20.7740  -29.5460   21.5440 H   0  0  0  0  0  0  0  0  0  0  0  0
  -17.9320  -27.6930   22.6910 C   0  0  0  0  0  0  0  0  0  0  0  0
  -20.4840  -28.0050   22.9600 C   0  0  0  0  0  3  0  0  0  0  0  0
  -20.6180  -26.5940   22.3410 C   0  0  0  0  0  2  0  0  0  0  0  0
  -19.5190  -26.2770   21.3210 C   0  0  0  0  0  2  0  0  0  0  0  0
  -18.1370  -26.3690   21.9740 C   0  0  0  0  0  2  0  0  0  0  0  0
  -19.0340  -28.4690   23.1400 C   0  0  0  0  0  0  0  0  0  0  0  0
  -18.7870  -29.7070   23.7710 C   0  0  0  0  0  3  0  0  0  0  0  0
  -17.4710  -30.1720   23.9570 C   0  0  0  0  0  3  0  0  0  0  0  0
  -16.3840  -29.3940   23.5230 C   0  0  0  0  0  3  0  0  0  0  0  0
  -16.6150  -28.1550   22.8960 C   0  0  0  0  0  3  0  0  0  0  0  0
  -25.6700  -32.2860   23.7330 C   0  0  0  0  0  3  0  0  0  0  0  0
  -26.1910  -31.5100   25.0040 C   0  0  1  0  0  0  0  0  0  0  0  0
  -25.0940  -31.2410   26.0620 C   0  0  0  0  0  1  0  0  0  0  0  0
  -26.8020  -30.1470   24.6030 C   0  0  0  0  0  1  0  0  0  0  0  0
  -27.3220  -32.3170   25.6840 C   0  0  0  0  0  1  0  0  0  0  0  0
  -25.3330  -33.6750   24.0770 N   0  0  0  0  0  0  0  0  0  0  0  0
  -25.6280  -34.7400   23.3200 C   0  0  0  0  0  0  0  0  0  0  0  0
  -26.2820  -34.6580   22.2750 O   0  0  0  0  0  0  0  0  0  0  0  0
  -24.7500  -33.8110   24.8890 H   0  0  0  0  0  0  0  0  0  0  0  0
  -23.8390  -36.4840   23.0250 C   0  0  0  0  0  1  0  0  0  0  0  0
  -25.1170  -36.1140   23.7940 C   0  0  0  0  0  3  0  0  0  0  0  0
  -27.2500  -37.0610   24.5590 C   0  0  0  0  0  1  0  0  0  0  0  0
  -26.1160  -37.1960   23.6490 N   0  0  0  0  0  0  0  0  0  0  0  0
  -25.6880  -38.1040   23.8070 H   0  0  0  0  0  0  0  0  0  0  0  0
  1  4  1  0
  2  4  2  0
  3  1  2  0
  4 56  1  0
  5  3  1  0
  5  6  1  0
  6  2  1  0
  7  5  2  0
  8 11  1  0
  9 12  1  0
 10  6  1  0
 10  8  2  0
 11 53  1  0
 12 23  1  0
 12 11  2  0
 13  9  2  0
 13 10  1  0
 14 13  1  0
 15 23  1  0
 16 21  1  0
 17 18  1  0
 17 16  1  0
 19 18  1  0
 19 28  1  0
 19 20  1  0
 21 15  1  0
 21 20  1  0
 22 15  2  0
 23 24  1  0
 25 26  2  0
 26 45  1  0
 27 26  1  0
 27 30  1  0
 28 29  1  0
 28 25  1  0
 29 27  2  0
 30 31  1  0
 31 32  2  0
 33 36  1  0
 33 32  1  0
 34 33  2  0
 35 34  1  0
 35 30  2  0
 36 37  1  0
 37 42  2  0
 37 38  1  0
 38 39  2  0
 40 39  1  0
 40 44  1  0
 41 40  2  0
 42 41  1  0
 43 42  1  0
 45 46  1  0
 46 49  1  0
 46 48  1  0
 47 45  2  0
 50 25  1  0
 50 51  1  0
 52 50  1  0
 53 54  1  0
 55 53  1  0
 56 57  1  0
 58 59  1  0
 58  3  1  0
 60 71  2  0
 61 59  1  0
 61 66  1  0
 62 70  1  0
 62 72  1  0
 63 69  1  0
 63 65  1  0
 64 70  1  0
 65 64  1  0
 66 65  2  0
 67 68  1  0
 67 61  2  0
 68 63  2  0
 69 62  1  0
 70 60  1  0
 72 74  2  0
 73 72  1  0
 75 73  1  0
 76 85  2  0
 76 81  1  0
 77 73  1  0
 77 81  1  0
 78 77  1  0
 79 80  1  0
 79 78  1  0
 80 76  1  0
 81 82  2  0
 82 83  1  0
 84 83  2  0
 85 84  1  0
 86 60  1  0
 86 91  1  0
 86 87  1  0
 87 90  1  1
 87 88  1  0
 89 87  1  0
 91 94  1  0
 92 96  1  0
 92 91  1  0
 93 92  2  0
 96 95  1  0
 98 96  1  0
 98 99  1  0
 98 97  1  0
M  ISO  4  15 100  23 100  58 101  59 101
M  END
>  <TORSDO>  (3) 
F 20

>  <SCORE>  (3) 
-12.479

>  <name>  (3) 
2

>  <ligand_id>  (3) 
2

>  <original_smiles>  (3) 
[H]Oc1c([H])c(C([H])([H])Oc2c([H])c([H])c3c(c2[H])C([H])([H])N(C(=O)C([H])(N([H])C(=O)C([H])(N([H])C([H])([H])[H])C([H])([H])[H])C(C([H])([H])[H])(C([H])([H])[H])C([H])([H])[H])C([H])(C(=O)N([H])C2([H])c4c([H])c([H])c([H])c([H])c4C([H])([H])C([H])([H])C2([H])[H])C3([H])[H])c(=O)n(-c2c([H])c(N([H])[H])c(N([H])C(=O)N3C([H])([H])C([H])([H])C([H])([H])C([H])(n4nc(-c5c([H])c([H])c(Oc6c([H])c([H])c(F)c([H])c6F)c([H])c5[H])c(C(=O)N([H])[H])c4N([H])[H])C3([H])[H])c([H])c2F)c1[H]

>  <smiles>  (3) 
[H]Oc1c([H])c(C([H])([H])Oc2c([H])c([H])c3c(c2[H])C([H])([H])N(C(=O)C([H])(N([H])C(=O)C([H])(N([H])C([H])([H])[H])C([H])([H])[H])C(C([H])([H])[H])(C([H])([H])[H])C([H])([H])[H])C([H])(C(=O)N([H])C2([H])c4c([H])c([H])c([H])c([H])c4C([H])([H])C([H])([H])C2([H])[H])C3([H])[H])c(=O)n(-c2c([H])c(N([H])[H])c(N([H])C(=O)N3C([H])([H])C([H])([H])C([H])([H])C([H])(n4nc(-c5c([H])c([H])c(Oc6c([H])c([H])c(F)c([H])c6F)c([H])c5[H])c(C(=O)N([H])[H])c4N([H])[H])C3([H])[H])c([H])c2F)c1[H]

$$$$
3:0:0
     RDKit          3D

 91100  0  0  1  0  0  0  0  0999 V2000
  -28.4710  -23.6530   20.4080 C   0  0  0  0  0  0  0  0  0  0  0  0
  -28.1030  -22.3390   20.9930 C   0  0  0  0  0  0  0  0  0  0  0  0
  -27.9620  -24.9500   20.6530 C   0  0  0  0  0  3  0  0  0  0  0  0
  -29.5210  -22.9000   19.5520 C   0  0  0  0  0  2  0  0  0  0  0  0
  -29.0620  -21.6250   20.2130 N   0  0  0  0  0  0  0  0  0  0  0  0
  -27.2780  -22.0560   21.8370 O   0  0  0  0  0  0  0  0  0  0  0  0
  -31.4240  -19.0970   18.6050 C   0  0  0  0  0  3  0  0  0  0  0  0
  -30.7210  -20.2400   19.0180 C   0  0  0  0  0  3  0  0  0  0  0  0
  -31.1210  -17.8170   19.0920 C   0  0  0  0  0  3  0  0  0  0  0  0
  -29.3770  -18.8510   20.4310 C   0  0  0  0  0  3  0  0  0  0  0  0
  -29.6510  -20.2370   19.9500 C   0  0  0  0  0  0  0  0  0  0  0  0
  -30.1010  -17.6060   20.0440 C   0  0  0  0  0  0  0  0  0  0  0  0
  -30.6030  -14.9750   20.3220 C   0  0  0  0  0  0  0  0  0  0  0  0
  -30.4450  -12.6430   19.3890 C   0  0  0  0  0  2  0  0  0  0  0  0
  -29.5180  -12.6490   18.1520 C   0  0  0  0  0  2  0  0  0  0  0  0
  -28.0510  -12.4530   18.5750 C   0  0  0  0  0  2  0  0  0  0  0  0
  -27.6530  -13.3600   19.7710 C   0  0  0  0  0  3  0  0  0  0  0  0
  -28.7050  -13.3480   20.9000 C   0  0  0  0  0  2  0  0  0  0  0  0
  -29.9870  -13.7300   20.2980 N   0  0  0  0  0  0  0  0  0  0  0  0
  -31.8060  -15.0090   20.0490 O   0  0  0  0  0  0  0  0  0  0  0  0
  -29.8450  -16.1650   20.4780 N   0  0  0  0  0  0  0  0  0  0  0  0
  -28.9170  -16.0010   20.8420 H   0  0  0  0  0  0  0  0  0  0  0  0
  -25.2750  -13.9340   20.5170 C   0  0  0  0  0  0  0  0  0  0  0  0
  -24.2090  -13.1570   20.8770 C   0  0  0  0  0  0  0  0  0  0  0  0
  -24.6730  -11.8060   20.8380 C   0  0  0  0  0  0  0  0  0  0  0  0
  -26.3160  -13.0580   20.2670 N   0  0  0  0  0  0  0  0  0  0  0  0
  -25.9650  -11.7710   20.5270 N   0  0  0  0  0  0  0  0  0  0  0  0
  -23.9470  -10.5420   21.0150 C   0  0  0  0  0  0  0  0  0  0  0  0
  -24.3550   -9.5810   21.9660 C   0  0  0  0  0  3  0  0  0  0  0  0
  -23.6270   -8.3830   22.1300 C   0  0  0  0  0  3  0  0  0  0  0  0
  -22.4760   -8.1370   21.3430 C   0  0  0  0  0  0  0  0  0  0  0  0
  -22.0900   -9.0850   20.3800 C   0  0  0  0  0  3  0  0  0  0  0  0
  -22.8180  -10.2750   20.2140 C   0  0  0  0  0  3  0  0  0  0  0  0
  -21.7210   -6.9910   21.4170 O   0  0  0  0  0  0  0  0  0  0  0  0
  -21.6090   -6.2760   22.5840 C   0  0  0  0  0  0  0  0  0  0  0  0
  -21.0810   -6.8500   23.7620 C   0  0  0  0  0  3  0  0  0  0  0  0
  -20.9180   -6.0600   24.9170 C   0  0  0  0  0  3  0  0  0  0  0  0
  -21.2760   -4.6980   24.8960 C   0  0  0  0  0  0  0  0  0  0  0  0
  -21.7960   -4.1250   23.7220 C   0  0  0  0  0  3  0  0  0  0  0  0
  -21.9600   -4.9110   22.5690 C   0  0  0  0  0  0  0  0  0  0  0  0
  -22.4410   -4.3490   21.4340 F   0  0  0  0  0  0  0  0  0  0  0  0
  -21.1120   -3.9360   26.0020 F   0  0  0  0  0  0  0  0  0  0  0  0
  -22.8120  -13.6310   21.1500 C   0  0  0  0  0  0  0  0  0  0  0  0
  -22.0780  -12.9230   22.0010 N   0  0  0  0  0  0  0  0  0  0  0  0
  -22.3790  -14.6640   20.6420 O   0  0  0  0  0  0  0  0  0  0  0  0
  -22.4410  -12.0850   22.4330 H   0  0  0  0  0  0  0  0  0  0  0  0
  -21.1410  -13.2240   22.2280 H   0  0  0  0  0  0  0  0  0  0  0  0
  -25.4410  -15.3070   20.3550 N   0  0  0  0  0  0  0  0  0  0  0  0
  -24.6840  -15.9690   20.4860 H   0  0  0  0  0  0  0  0  0  0  0  0
  -26.2900  -15.7420   20.0190 H   0  0  0  0  0  0  0  0  0  0  0  0
  -28.2610  -26.2930   20.1840 O   0  0  0  0  0  0  0  0  0  0  0  0
  -24.6200  -31.9030   23.2330 C   0  0  0  0  0  0  0  0  0  0  0  0
  -27.2150  -27.2690   20.1660 C   0  0  0  0  0  0  0  0  0  0  0  0
  -23.4190  -30.5110   21.5900 C   0  0  0  0  0  3  0  0  0  0  0  0
  -24.8750  -28.9650   20.1470 C   0  0  0  0  0  0  0  0  0  0  0  0
  -25.9690  -30.8080   21.4130 C   0  0  0  0  0  2  0  0  0  0  0  0
  -26.0520  -29.4230   20.7580 C   0  0  0  0  0  0  0  0  0  0  0  0
  -27.2270  -28.5900   20.7560 C   0  0  0  0  0  3  0  0  0  0  0  0
  -26.0220  -26.9020   19.5120 C   0  0  0  0  0  3  0  0  0  0  0  0
  -24.8720  -27.7160   19.5060 C   0  0  0  0  0  3  0  0  0  0  0  0
  -23.6380  -29.8450   20.2050 C   0  0  0  0  0  2  0  0  0  0  0  0
  -24.6890  -31.0940   22.1350 N   0  0  0  0  0  0  0  0  0  0  0  0
  -23.5340  -32.1770   23.7670 O   0  0  0  0  0  0  0  0  0  0  0  0
  -22.7580  -29.4890   22.5480 C   0  0  0  0  0  0  0  0  0  0  0  0
  -21.4310  -29.3030   22.4220 N   0  0  0  0  0  0  0  0  0  0  0  0
  -23.4370  -28.8670   23.3670 O   0  0  0  0  0  0  0  0  0  0  0  0
  -20.9380  -29.8600   21.7380 H   0  0  0  0  0  0  0  0  0  0  0  0
  -18.0610  -28.0780   22.9330 C   0  0  0  0  0  0  0  0  0  0  0  0
  -20.6190  -28.3560   23.1920 C   0  0  0  0  0  3  0  0  0  0  0  0
  -20.7280  -26.9270   22.6100 C   0  0  0  0  0  2  0  0  0  0  0  0
  -19.6240  -26.6010   21.5990 C   0  0  0  0  0  2  0  0  0  0  0  0
  -18.2440  -26.7340   22.2490 C   0  0  0  0  0  2  0  0  0  0  0  0
  -19.1760  -28.8460   23.3620 C   0  0  0  0  0  0  0  0  0  0  0  0
  -18.9510  -30.1030   23.9650 C   0  0  0  0  0  3  0  0  0  0  0  0
  -17.6420  -30.5920   24.1410 C   0  0  0  0  0  3  0  0  0  0  0  0
  -16.5420  -29.8240   23.7250 C   0  0  0  0  0  3  0  0  0  0  0  0
  -16.7520  -28.5680   23.1280 C   0  0  0  0  0  3  0  0  0  0  0  0
  -25.8970  -32.5400   23.8570 C   0  0  0  0  0  3  0  0  0  0  0  0
  -25.5840  -33.9410   24.1830 N   0  0  0  0  0  0  0  0  0  0  0  0
  -25.9130  -34.9940   23.4230 C   0  0  0  0  0  0  0  0  0  0  0  0
  -26.5810  -34.8900   22.3910 O   0  0  0  0  0  0  0  0  0  0  0  0
  -24.9920  -34.0960   24.9850 H   0  0  0  0  0  0  0  0  0  0  0  0
  -24.1900  -36.7930   23.0650 C   0  0  0  0  0  1  0  0  0  0  0  0
  -25.4280  -36.3840   23.8800 C   0  0  0  0  0  3  0  0  0  0  0  0
  -27.5590  -37.2720   24.7180 C   0  0  0  0  0  1  0  0  0  0  0  0
  -26.4630  -37.4360   23.7660 N   0  0  0  0  0  0  0  0  0  0  0  0
  -26.0590  -38.3580   23.9040 H   0  0  0  0  0  0  0  0  0  0  0  0
  -26.4100  -31.7760   25.1400 C   0  0  1  0  0  0  0  0  0  0  0  0
  -25.3110  -31.5450   26.2040 C   0  0  0  0  0  1  0  0  0  0  0  0
  -26.9950  -30.3960   24.7620 C   0  0  0  0  0  1  0  0  0  0  0  0
  -27.5570  -32.5740   25.8030 C   0  0  0  0  0  1  0  0  0  0  0  0
  1  3  2  0
  1  2  1  0
  2  6  2  0
  4  5  1  0
  4  1  1  0
  5  2  1  0
  7  8  2  0
  7  9  1  0
  8 11  1  0
  9 12  2  0
 11  5  1  0
 11 10  2  0
 12 10  1  0
 12 21  1  0
 13 21  1  0
 14 19  1  0
 15 16  1  0
 15 14  1  0
 17 16  1  0
 17 26  1  0
 17 18  1  0
 19 13  1  0
 19 18  1  0
 20 13  2  0
 21 22  1  0
 23 24  2  0
 24 43  1  0
 25 24  1  0
 25 28  1  0
 26 23  1  0
 26 27  1  0
 27 25  2  0
 28 29  1  0
 29 30  2  0
 31 34  1  0
 31 30  1  0
 32 31  2  0
 33 32  1  0
 33 28  2  0
 34 35  1  0
 35 36  1  0
 36 37  2  0
 38 37  1  0
 38 42  1  0
 39 38  2  0
 40 35  2  0
 40 39  1  0
 41 40  1  0
 43 44  1  0
 44 47  1  0
 44 46  1  0
 45 43  2  0
 48 49  1  0
 48 23  1  0
 50 48  1  0
 51  3  1  0
 52 63  2  0
 53 51  1  0
 53 58  1  0
 54 62  1  0
 54 64  1  0
 55 61  1  0
 55 57  1  0
 56 62  1  0
 57 56  1  0
 58 57  2  0
 59 53  2  0
 60 59  1  0
 60 55  2  0
 61 54  1  0
 62 52  1  0
 64 66  2  0
 65 64  1  0
 67 65  1  0
 68 77  2  0
 68 73  1  0
 69 65  1  0
 69 73  1  0
 70 69  1  0
 71 72  1  0
 71 70  1  0
 72 68  1  0
 73 74  2  0
 74 75  1  0
 76 75  2  0
 77 76  1  0
 78 52  1  0
 78 79  1  0
 78 88  1  0
 79 82  1  0
 80 84  1  0
 80 79  1  0
 81 80  2  0
 84 83  1  0
 86 84  1  0
 86 87  1  0
 86 85  1  0
 88 91  1  1
 88 89  1  0
 90 88  1  0
M  ISO  4   3 101  13 100  21 100  51 101
M  END
>  <TORSDO>  (4) 
F 17

>  <SCORE>  (4) 
-14.926

>  <name>  (4) 
3

>  <ligand_id>  (4) 
3

>  <original_smiles>  (4) 
[H]C(Oc1c([H])c([H])c2c(c1[H])C([H])([H])N(C(=O)C([H])(N([H])C(=O)C([H])(N([H])C([H])([H])[H])C([H])([H])[H])C(C([H])([H])[H])(C([H])([H])[H])C([H])([H])[H])C([H])(C(=O)N([H])C1([H])c3c([H])c([H])c([H])c([H])c3C([H])([H])C([H])([H])C1([H])[H])C2([H])[H])=C1C(=O)N(c2c([H])c([H])c([H])c(N([H])C(=O)N3C([H])([H])C([H])([H])C([H])([H])C([H])(n4nc(-c5c([H])c([H])c(Oc6c([H])c([H])c(F)c([H])c6F)c([H])c5[H])c(C(=O)N([H])[H])c4N([H])[H])C3([H])[H])c2[H])C1([H])[H]

>  <smiles>  (4) 
[H]C(Oc1c([H])c([H])c2c(c1[H])C([H])([H])N(C(=O)C([H])(N([H])C(=O)C([H])(N([H])C([H])([H])[H])C([H])([H])[H])C(C([H])([H])[H])(C([H])([H])[H])C([H])([H])[H])C([H])(C(=O)N([H])C1([H])c3c([H])c([H])c([H])c([H])c3C([H])([H])C([H])([H])C1([H])[H])C2([H])[H])=C1C(=O)N(c2c([H])c([H])c([H])c(N([H])C(=O)N3C([H])([H])C([H])([H])C([H])([H])C([H])(n4nc(-c5c([H])c([H])c(Oc6c([H])c([H])c(F)c([H])c6F)c([H])c5[H])c(C(=O)N([H])[H])c4N([H])[H])C3([H])[H])c2[H])C1([H])[H]

$$$$
4:0:0
     RDKit          3D

 89 97  0  0  1  0  0  0  0  0999 V2000
  -30.4010  -15.3330   20.3210 C   0  0  0  0  0  0  0  0  0  0  0  0
  -30.4610  -12.8640   19.4960 C   0  0  0  0  0  2  0  0  0  0  0  0
  -29.5670  -12.6250   18.2510 C   0  0  0  0  0  2  0  0  0  0  0  0
  -28.1110  -12.3440   18.6620 C   0  0  0  0  0  2  0  0  0  0  0  0
  -27.6230  -13.3200   19.7610 C   0  0  0  0  0  3  0  0  0  0  0  0
  -28.6440  -13.4900   20.9060 C   0  0  0  0  0  2  0  0  0  0  0  0
  -29.8840  -14.0040   20.2980 N   0  0  0  0  0  0  0  0  0  0  0  0
  -31.6230  -15.3720   20.0980 O   0  0  0  0  0  0  0  0  0  0  0  0
  -27.9200  -20.3030   20.4330 C   0  0  0  0  0  2  0  0  0  0  0  0
  -28.1780  -18.8450   20.4900 C   0  0  0  0  0  3  0  0  0  0  0  0
  -28.8850  -21.3720   20.2040 C   0  0  0  0  0  0  0  0  0  0  0  0
  -29.4480  -18.1580   20.3300 C   0  0  0  0  0  0  0  0  0  0  0  0
  -30.1360  -20.6090   20.0540 C   0  0  0  0  0  0  0  0  0  0  0  0
  -30.3800  -19.1840   20.1100 N   0  0  0  0  0  0  0  0  0  0  0  0
  -29.5380  -16.5360   20.4180 N   0  0  0  0  0  0  0  0  0  0  0  0
  -28.6140  -16.1790   20.5900 H   0  0  0  0  0  0  0  0  0  0  0  0
  -25.2310  -13.8670   20.4540 C   0  0  0  0  0  0  0  0  0  0  0  0
  -24.1690  -13.0840   20.8130 C   0  0  0  0  0  0  0  0  0  0  0  0
  -24.6490  -11.7380   20.8090 C   0  0  0  0  0  0  0  0  0  0  0  0
  -26.2860  -12.9980   20.2430 N   0  0  0  0  0  0  0  0  0  0  0  0
  -25.9480  -11.7130   20.5250 N   0  0  0  0  0  0  0  0  0  0  0  0
  -23.9290  -10.4710   20.9970 C   0  0  0  0  0  0  0  0  0  0  0  0
  -24.3440   -9.5210   21.9570 C   0  0  0  0  0  3  0  0  0  0  0  0
  -23.6210   -8.3210   22.1340 C   0  0  0  0  0  3  0  0  0  0  0  0
  -22.4710   -8.0620   21.3500 C   0  0  0  0  0  0  0  0  0  0  0  0
  -22.0770   -9.0010   20.3810 C   0  0  0  0  0  3  0  0  0  0  0  0
  -22.7990  -10.1920   20.2020 C   0  0  0  0  0  3  0  0  0  0  0  0
  -21.7220   -6.9130   21.4360 O   0  0  0  0  0  0  0  0  0  0  0  0
  -21.6360   -6.1960   22.6020 C   0  0  0  0  0  0  0  0  0  0  0  0
  -21.1440   -6.7680   23.7950 C   0  0  0  0  0  3  0  0  0  0  0  0
  -21.0060   -5.9750   24.9520 C   0  0  0  0  0  3  0  0  0  0  0  0
  -21.3510   -4.6110   24.9170 C   0  0  0  0  0  0  0  0  0  0  0  0
  -21.8370   -4.0380   23.7280 C   0  0  0  0  0  3  0  0  0  0  0  0
  -21.9750   -4.8280   22.5730 C   0  0  0  0  0  0  0  0  0  0  0  0
  -22.4240   -4.2650   21.4250 F   0  0  0  0  0  0  0  0  0  0  0  0
  -21.2130   -3.8470   26.0260 F   0  0  0  0  0  0  0  0  0  0  0  0
  -22.7610  -13.5510   21.0420 C   0  0  0  0  0  0  0  0  0  0  0  0
  -22.0230  -12.8670   21.9080 N   0  0  0  0  0  0  0  0  0  0  0  0
  -22.3260  -14.5590   20.4870 O   0  0  0  0  0  0  0  0  0  0  0  0
  -22.3880  -12.0520   22.3780 H   0  0  0  0  0  0  0  0  0  0  0  0
  -21.0770  -13.1630   22.1040 H   0  0  0  0  0  0  0  0  0  0  0  0
  -25.3800  -15.2360   20.2580 N   0  0  0  0  0  0  0  0  0  0  0  0
  -24.5880  -15.8680   20.3190 H   0  0  0  0  0  0  0  0  0  0  0  0
  -26.1920  -15.6650   19.8330 H   0  0  0  0  0  0  0  0  0  0  0  0
  -28.6290  -23.0770   20.1330 C   0  0  0  0  0  0  0  0  0  0  0  0
  -27.8750  -24.3640   20.1570 C   0  0  0  0  0  3  0  0  0  0  0  0
  -28.1670  -25.8680   20.0520 O   0  0  0  0  0  0  0  0  0  0  0  0
  -24.6340  -31.8260   23.1270 C   0  0  0  0  0  0  0  0  0  0  0  0
  -27.1650  -26.9790   20.0410 C   0  0  0  0  0  0  0  0  0  0  0  0
  -23.4320  -30.4590   21.4690 C   0  0  0  0  0  3  0  0  0  0  0  0
  -24.8740  -28.8700   20.0230 C   0  0  0  0  0  0  0  0  0  0  0  0
  -25.9990  -30.6600   21.3260 C   0  0  0  0  0  2  0  0  0  0  0  0
  -26.0630  -29.2580   20.6530 C   0  0  0  0  0  0  0  0  0  0  0  0
  -27.2020  -28.3330   20.6430 C   0  0  0  0  0  3  0  0  0  0  0  0
  -25.9510  -26.7530   19.3520 C   0  0  0  0  0  3  0  0  0  0  0  0
  -24.8420  -27.6380   19.3530 C   0  0  0  0  0  3  0  0  0  0  0  0
  -23.6580  -29.7960   20.0830 C   0  0  0  0  0  2  0  0  0  0  0  0
  -24.7100  -31.0090   22.0270 N   0  0  0  0  0  0  0  0  0  0  0  0
  -23.5470  -32.1130   23.6520 O   0  0  0  0  0  0  0  0  0  0  0  0
  -22.7350  -29.4520   22.4220 C   0  0  0  0  0  0  0  0  0  0  0  0
  -21.4020  -29.3080   22.3070 N   0  0  0  0  0  0  0  0  0  0  0  0
  -23.4000  -28.8010   23.2300 O   0  0  0  0  0  0  0  0  0  0  0  0
  -20.9170  -29.8840   21.6330 H   0  0  0  0  0  0  0  0  0  0  0  0
  -18.0040  -28.1560   22.8540 C   0  0  0  0  0  0  0  0  0  0  0  0
  -20.5750  -28.3650   23.0690 C   0  0  0  0  0  3  0  0  0  0  0  0
  -20.6350  -26.9490   22.4510 C   0  0  0  0  0  2  0  0  0  0  0  0
  -19.5050  -26.6770   21.4520 C   0  0  0  0  0  2  0  0  0  0  0  0
  -18.1400  -26.8260   22.1310 C   0  0  0  0  0  2  0  0  0  0  0  0
  -19.1460  -28.8850   23.2800 C   0  0  0  0  0  0  0  0  0  0  0  0
  -18.9610  -30.1300   23.9210 C   0  0  0  0  0  3  0  0  0  0  0  0
  -17.6700  -30.6450   24.1370 C   0  0  0  0  0  3  0  0  0  0  0  0
  -16.5430  -29.9130   23.7230 C   0  0  0  0  0  3  0  0  0  0  0  0
  -16.7110  -28.6700   23.0880 C   0  0  0  0  0  3  0  0  0  0  0  0
  -25.9080  -32.4550   23.7670 C   0  0  0  0  0  3  0  0  0  0  0  0
  -25.5880  -33.8410   24.1470 N   0  0  0  0  0  0  0  0  0  0  0  0
  -25.8940  -34.9280   23.4250 C   0  0  0  0  0  0  0  0  0  0  0  0
  -26.5390  -34.8680   22.3750 O   0  0  0  0  0  0  0  0  0  0  0  0
  -25.0100  -33.9600   24.9660 H   0  0  0  0  0  0  0  0  0  0  0  0
  -24.1400  -36.7220   23.1940 C   0  0  0  0  0  1  0  0  0  0  0  0
  -25.4110  -36.2970   23.9470 C   0  0  0  0  0  3  0  0  0  0  0  0
  -27.5630  -37.1790   24.7410 C   0  0  0  0  0  1  0  0  0  0  0  0
  -26.4310  -37.3630   23.8360 N   0  0  0  0  0  0  0  0  0  0  0  0
  -26.0220  -38.2750   24.0210 H   0  0  0  0  0  0  0  0  0  0  0  0
  -26.4280  -31.6540   25.0240 C   0  0  1  0  0  0  0  0  0  0  0  0
  -25.3390  -31.3890   26.0890 C   0  0  0  0  0  1  0  0  0  0  0  0
  -27.0130  -30.2850   24.6060 C   0  0  0  0  0  1  0  0  0  0  0  0
  -27.5800  -32.4340   25.7020 C   0  0  0  0  0  1  0  0  0  0  0  0
  -32.5130  -20.7730   19.6660 C   0  0  0  0  0  1  0  0  0  0  0  0
  -31.2440  -21.3990   19.8250 O   0  0  0  0  0  0  0  0  0  0  0  0
  1 15  1  0
  2  7  1  0
  3  4  1  0
  3  2  1  0
  5  4  1  0
  5 20  1  0
  5  6  1  0
  7  1  1  0
  7  6  1  0
  8  1  2  0
  9 10  1  0
 11  9  1  0
 12 15  1  0
 12 10  2  0
 13 14  2  0
 13 11  1  0
 14 12  1  0
 15 16  1  0
 17 18  2  0
 18 37  1  0
 19 18  1  0
 19 22  1  0
 20 17  1  0
 20 21  1  0
 21 19  2  0
 22 23  1  0
 23 24  2  0
 25 28  1  0
 25 24  1  0
 26 25  2  0
 27 26  1  0
 27 22  2  0
 28 29  1  0
 29 30  1  0
 30 31  2  0
 32 31  1  0
 32 36  1  0
 33 32  2  0
 34 29  2  0
 34 33  1  0
 35 34  1  0
 37 38  1  0
 38 41  1  0
 38 40  1  0
 39 37  2  0
 42 43  1  0
 42 17  1  0
 44 42  1  0
 45 46  2  0
 45 11  2  0
 47 46  1  0
 48 59  2  0
 49 47  1  0
 49 54  1  0
 50 58  1  0
 50 60  1  0
 51 57  1  0
 51 53  1  0
 52 58  1  0
 53 52  1  0
 54 53  2  0
 55 56  1  0
 55 49  2  0
 56 51  2  0
 57 50  1  0
 58 48  1  0
 60 62  2  0
 61 60  1  0
 63 61  1  0
 64 73  2  0
 64 69  1  0
 65 61  1  0
 65 69  1  0
 66 65  1  0
 67 68  1  0
 67 66  1  0
 68 64  1  0
 69 70  2  0
 70 71  1  0
 72 71  2  0
 73 72  1  0
 74 48  1  0
 74 75  1  0
 74 84  1  0
 75 78  1  0
 76 80  1  0
 76 75  1  0
 77 76  2  0
 80 79  1  0
 82 80  1  0
 82 83  1  0
 82 81  1  0
 84 87  1  1
 84 85  1  0
 86 84  1  0
 88 89  1  0
 89 13  1  0
M  ISO  4   1 100  15 100  46 101  47 101
M  END
>  <TORSDO>  (5) 
F 17

>  <SCORE>  (5) 
-15.207

>  <name>  (5) 
4

>  <ligand_id>  (5) 
4

>  <original_smiles>  (5) 
[H]C(Oc1c([H])c([H])c2c(c1[H])C([H])([H])N(C(=O)C([H])(N([H])C(=O)C([H])(N([H])C([H])([H])[H])C([H])([H])[H])C(C([H])([H])[H])(C([H])([H])[H])C([H])([H])[H])C([H])(C(=O)N([H])C1([H])c3c([H])c([H])c([H])c([H])c3C([H])([H])C([H])([H])C1([H])[H])C2([H])[H])=C([H])c1c(OC([H])([H])[H])nc(N([H])C(=O)N2C([H])([H])C([H])([H])C([H])([H])C([H])(n3nc(-c4c([H])c([H])c(Oc5c([H])c([H])c(F)c([H])c5F)c([H])c4[H])c(C(=O)N([H])[H])c3N([H])[H])C2([H])[H])c([H])c1[H]

>  <smiles>  (5) 
[H]C(Oc1c([H])c([H])c2c(c1[H])C([H])([H])N(C(=O)C([H])(N([H])C(=O)C([H])(N([H])C([H])([H])[H])C([H])([H])[H])C(C([H])([H])[H])(C([H])([H])[H])C([H])([H])[H])C([H])(C(=O)N([H])C1([H])c3c([H])c([H])c([H])c([H])c3C([H])([H])C([H])([H])C1([H])[H])C2([H])[H])=C([H])c1c(OC([H])([H])[H])nc(N([H])C(=O)N2C([H])([H])C([H])([H])C([H])([H])C([H])(n3nc(-c4c([H])c([H])c(Oc5c([H])c([H])c(F)c([H])c5F)c([H])c4[H])c(C(=O)N([H])[H])c3N([H])[H])C2([H])[H])c([H])c1[H]

$$$$
5:0:0
     RDKit          3D

 94103  0  0  1  0  0  0  0  0999 V2000
  -28.8610  -22.3130   22.6270 C   0  0  0  0  0  3  0  0  0  0  0  0
  -29.3830  -21.3620   21.8430 C   0  0  0  0  0  3  0  0  0  0  0  0
  -28.1380  -23.4650   22.0860 C   0  0  0  0  0  0  0  0  0  0  0  0
  -28.4150  -23.8950   20.6750 C   0  0  0  0  0  0  0  0  0  0  0  0
  -28.1070  -25.2620   20.4850 C   0  0  0  0  0  3  0  0  0  0  0  0
  -28.9910  -22.6710   19.7860 C   0  0  0  0  0  2  0  0  0  0  0  0
  -29.3240  -21.3150   20.4620 N   0  0  0  0  0  0  0  0  0  0  0  0
  -27.3150  -24.0330   22.8160 O   0  0  0  0  0  0  0  0  0  0  0  0
  -31.1320  -19.1050   17.9700 C   0  0  0  0  0  3  0  0  0  0  0  0
  -30.5170  -20.2160   18.5890 C   0  0  0  0  0  3  0  0  0  0  0  0
  -31.0540  -17.8020   18.5080 C   0  0  0  0  0  3  0  0  0  0  0  0
  -29.8060  -20.0880   19.7990 C   0  0  0  0  0  0  0  0  0  0  0  0
  -30.3360  -17.5270   19.6930 C   0  0  0  0  0  0  0  0  0  0  0  0
  -29.7040  -18.6990   20.3110 C   0  0  0  0  0  0  0  0  0  0  0  0
  -28.9800  -18.4680   21.4340 F   0  0  0  0  0  0  0  0  0  0  0  0
  -30.9590  -14.9470   19.8580 C   0  0  0  0  0  0  0  0  0  0  0  0
  -30.7500  -12.6270   18.9340 C   0  0  0  0  0  2  0  0  0  0  0  0
  -29.7430  -12.6320   17.7610 C   0  0  0  0  0  2  0  0  0  0  0  0
  -28.3020  -12.4620   18.2730 C   0  0  0  0  0  2  0  0  0  0  0  0
  -27.9880  -13.3750   19.4870 C   0  0  0  0  0  3  0  0  0  0  0  0
  -29.1040  -13.3320   20.5520 C   0  0  0  0  0  2  0  0  0  0  0  0
  -30.3560  -13.7020   19.8830 N   0  0  0  0  0  0  0  0  0  0  0  0
  -32.1190  -15.0280   19.4400 O   0  0  0  0  0  0  0  0  0  0  0  0
  -30.2140  -16.0960   20.1630 N   0  0  0  0  0  0  0  0  0  0  0  0
  -29.3730  -15.9110   20.6890 H   0  0  0  0  0  0  0  0  0  0  0  0
  -25.6700  -13.9760   20.3970 C   0  0  0  0  0  0  0  0  0  0  0  0
  -24.6170  -13.2090   20.8130 C   0  0  0  0  0  0  0  0  0  0  0  0
  -25.0460  -11.8520   20.6960 C   0  0  0  0  0  0  0  0  0  0  0  0
  -26.6750  -13.0880   20.0560 N   0  0  0  0  0  0  0  0  0  0  0  0
  -26.3120  -11.8020   20.2960 N   0  0  0  0  0  0  0  0  0  0  0  0
  -24.3030  -10.5980   20.8830 C   0  0  0  0  0  0  0  0  0  0  0  0
  -24.6850   -9.6480   21.8540 C   0  0  0  0  0  3  0  0  0  0  0  0
  -23.9410   -8.4610   22.0270 C   0  0  0  0  0  3  0  0  0  0  0  0
  -22.7990   -8.2170   21.2280 C   0  0  0  0  0  0  0  0  0  0  0  0
  -22.4370   -9.1550   20.2450 C   0  0  0  0  0  3  0  0  0  0  0  0
  -23.1820  -10.3320   20.0710 C   0  0  0  0  0  3  0  0  0  0  0  0
  -22.0300   -7.0800   21.3080 O   0  0  0  0  0  0  0  0  0  0  0  0
  -21.8010   -6.4510   22.5050 C   0  0  0  0  0  0  0  0  0  0  0  0
  -21.1710   -7.1090   23.5840 C   0  0  0  0  0  3  0  0  0  0  0  0
  -20.8890   -6.4040   24.7720 C   0  0  0  0  0  3  0  0  0  0  0  0
  -21.2310   -5.0420   24.8800 C   0  0  0  0  0  0  0  0  0  0  0  0
  -21.8550   -4.3840   23.8060 C   0  0  0  0  0  3  0  0  0  0  0  0
  -22.1350   -5.0870   22.6200 C   0  0  0  0  0  0  0  0  0  0  0  0
  -22.7180   -4.4430   21.5810 F   0  0  0  0  0  0  0  0  0  0  0  0
  -20.9540   -4.3610   26.0180 F   0  0  0  0  0  0  0  0  0  0  0  0
  -23.2530  -13.7050   21.1980 C   0  0  0  0  0  0  0  0  0  0  0  0
  -22.5790  -13.0070   22.1040 N   0  0  0  0  0  0  0  0  0  0  0  0
  -22.8000  -14.7490   20.7320 O   0  0  0  0  0  0  0  0  0  0  0  0
  -22.9600  -12.1620   22.5050 H   0  0  0  0  0  0  0  0  0  0  0  0
  -21.6660  -13.3230   22.3990 H   0  0  0  0  0  0  0  0  0  0  0  0
  -25.8460  -15.3490   20.2530 N   0  0  0  0  0  0  0  0  0  0  0  0
  -25.0780  -15.9960   20.3950 H   0  0  0  0  0  0  0  0  0  0  0  0
  -26.6390  -15.7780   19.7920 H   0  0  0  0  0  0  0  0  0  0  0  0
  -28.1630  -26.2510   19.4620 O   0  0  0  0  0  0  0  0  0  0  0  0
  -24.5350  -31.5830   22.8770 C   0  0  0  0  0  0  0  0  0  0  0  0
  -27.1320  -27.2220   19.4860 C   0  0  0  0  0  0  0  0  0  0  0  0
  -23.3260  -30.2950   21.1530 C   0  0  0  0  0  3  0  0  0  0  0  0
  -24.7750  -28.8650   19.6000 C   0  0  0  0  0  0  0  0  0  0  0  0
  -25.8640  -30.6360   20.9680 C   0  0  0  0  0  2  0  0  0  0  0  0
  -25.9520  -29.3030   20.2240 C   0  0  0  0  0  0  0  0  0  0  0  0
  -27.1380  -28.4940   20.1610 C   0  0  0  0  0  3  0  0  0  0  0  0
  -25.9370  -26.8610   18.8350 C   0  0  0  0  0  3  0  0  0  0  0  0
  -24.7750  -27.6520   18.8910 C   0  0  0  0  0  3  0  0  0  0  0  0
  -23.5310  -29.7220   19.7280 C   0  0  0  0  0  2  0  0  0  0  0  0
  -24.5960  -30.8540   21.7230 N   0  0  0  0  0  0  0  0  0  0  0  0
  -23.4540  -31.8110   23.4420 O   0  0  0  0  0  0  0  0  0  0  0  0
  -22.6810  -29.2090   22.0500 C   0  0  0  0  0  0  0  0  0  0  0  0
  -21.3470  -29.0620   21.9640 N   0  0  0  0  0  0  0  0  0  0  0  0
  -23.3790  -28.5030   22.7820 O   0  0  0  0  0  0  0  0  0  0  0  0
  -20.8420  -29.6790   21.3420 H   0  0  0  0  0  0  0  0  0  0  0  0
  -17.9650  -27.9540   22.6050 C   0  0  0  0  0  0  0  0  0  0  0  0
  -20.5450  -28.0710   22.6800 C   0  0  0  0  0  3  0  0  0  0  0  0
  -20.5290  -26.7230   21.9200 C   0  0  0  0  0  2  0  0  0  0  0  0
  -19.3290  -26.5810   20.9730 C   0  0  0  0  0  2  0  0  0  0  0  0
  -18.0190  -26.6970   21.7550 C   0  0  0  0  0  2  0  0  0  0  0  0
  -19.1500  -28.6110   23.0250 C   0  0  0  0  0  0  0  0  0  0  0  0
  -19.0440  -29.7940   23.7880 C   0  0  0  0  0  3  0  0  0  0  0  0
  -17.7860  -30.3200   24.1330 C   0  0  0  0  0  3  0  0  0  0  0  0
  -16.6140  -29.6580   23.7260 C   0  0  0  0  0  3  0  0  0  0  0  0
  -16.7050  -28.4760   22.9690 C   0  0  0  0  0  3  0  0  0  0  0  0
  -25.8180  -32.1850   23.5300 C   0  0  0  0  0  3  0  0  0  0  0  0
  -25.4970  -33.5510   23.9710 N   0  0  0  0  0  0  0  0  0  0  0  0
  -25.8280  -34.6650   23.3040 C   0  0  0  0  0  0  0  0  0  0  0  0
  -26.5030  -34.6500   22.2700 O   0  0  0  0  0  0  0  0  0  0  0  0
  -24.9000  -33.6410   24.7800 H   0  0  0  0  0  0  0  0  0  0  0  0
  -24.1060  -36.4850   23.0750 C   0  0  0  0  0  1  0  0  0  0  0  0
  -25.3330  -36.0110   23.8710 C   0  0  0  0  0  3  0  0  0  0  0  0
  -27.4450  -36.8230   24.8230 C   0  0  0  0  0  1  0  0  0  0  0  0
  -26.3690  -37.0680   23.8670 N   0  0  0  0  0  0  0  0  0  0  0  0
  -25.9580  -37.9740   24.0760 H   0  0  0  0  0  0  0  0  0  0  0  0
  -26.3610  -31.3280   24.7380 C   0  0  1  0  0  0  0  0  0  0  0  0
  -25.2830  -30.9850   25.7940 C   0  0  0  0  0  1  0  0  0  0  0  0
  -26.9660  -29.9950   24.2380 C   0  0  0  0  0  1  0  0  0  0  0  0
  -27.5030  -32.0900   25.4500 C   0  0  0  0  0  1  0  0  0  0  0  0
  2  1  2  0
  3  1  1  0
  3  8  2  0
  4  3  1  0
  5  4  2  0
  6  7  1  0
  6  4  1  0
  7  2  1  0
  9 11  2  0
  9 10  1  0
 10 12  2  0
 11 13  1  0
 12 14  1  0
 12  7  1  0
 13 24  1  0
 13 14  2  0
 14 15  1  0
 16 22  1  0
 16 24  1  0
 17 22  1  0
 18 19  1  0
 18 17  1  0
 20 19  1  0
 20 29  1  0
 20 21  1  0
 22 21  1  0
 23 16  2  0
 24 25  1  0
 26 27  2  0
 27 46  1  0
 28 27  1  0
 28 31  1  0
 29 30  1  0
 29 26  1  0
 30 28  2  0
 31 32  1  0
 32 33  2  0
 34 37  1  0
 34 33  1  0
 35 34  2  0
 36 35  1  0
 36 31  2  0
 37 38  1  0
 38 43  2  0
 38 39  1  0
 39 40  2  0
 40 41  1  0
 41 45  1  0
 42 41  2  0
 43 42  1  0
 44 43  1  0
 46 47  1  0
 47 50  1  0
 47 49  1  0
 48 46  2  0
 51 52  1  0
 51 26  1  0
 53 51  1  0
 54 56  1  0
 54  5  1  0
 55 66  2  0
 56 61  1  0
 57 65  1  0
 57 67  1  0
 58 64  1  0
 58 60  1  0
 59 65  1  0
 60 59  1  0
 61 60  2  0
 62 63  1  0
 62 56  2  0
 63 58  2  0
 64 57  1  0
 65 55  1  0
 67 69  2  0
 68 67  1  0
 70 68  1  0
 71 80  2  0
 71 76  1  0
 72 68  1  0
 72 76  1  0
 73 72  1  0
 74 75  1  0
 74 73  1  0
 75 71  1  0
 76 77  2  0
 77 78  1  0
 79 78  2  0
 80 79  1  0
 81 55  1  0
 81 82  1  0
 81 91  1  0
 82 85  1  0
 83 87  1  0
 83 82  1  0
 84 83  2  0
 87 86  1  0
 89 87  1  0
 89 90  1  0
 89 88  1  0
 91 94  1  1
 91 92  1  0
 93 91  1  0
M  ISO  4   5 101  16 100  24 100  54 101
M  END
>  <TORSDO>  (6) 
F 17

>  <SCORE>  (6) 
-13.076

>  <name>  (6) 
5

>  <ligand_id>  (6) 
5

>  <original_smiles>  (6) 
[H]C(Oc1c([H])c([H])c2c(c1[H])C([H])([H])N(C(=O)C([H])(N([H])C(=O)C([H])(N([H])C([H])([H])[H])C([H])([H])[H])C(C([H])([H])[H])(C([H])([H])[H])C([H])([H])[H])C([H])(C(=O)N([H])C1([H])c3c([H])c([H])c([H])c([H])c3C([H])([H])C([H])([H])C1([H])[H])C2([H])[H])=C1C(=O)C([H])=C([H])N(c2c([H])c([H])c([H])c(N([H])C(=O)N3C([H])([H])C([H])([H])C([H])([H])C([H])(n4nc(-c5c([H])c([H])c(Oc6c([H])c([H])c(F)c([H])c6F)c([H])c5[H])c(C(=O)N([H])[H])c4N([H])[H])C3([H])[H])c2F)C1([H])[H]

>  <smiles>  (6) 
[H]C(Oc1c([H])c([H])c2c(c1[H])C([H])([H])N(C(=O)C([H])(N([H])C(=O)C([H])(N([H])C([H])([H])[H])C([H])([H])[H])C(C([H])([H])[H])(C([H])([H])[H])C([H])([H])[H])C([H])(C(=O)N([H])C1([H])c3c([H])c([H])c([H])c([H])c3C([H])([H])C([H])([H])C1([H])[H])C2([H])[H])=C1C(=O)C([H])=C([H])N(c2c([H])c([H])c([H])c(N([H])C(=O)N3C([H])([H])C([H])([H])C([H])([H])C([H])(n4nc(-c5c([H])c([H])c(Oc6c([H])c([H])c(F)c([H])c6F)c([H])c5[H])c(C(=O)N([H])[H])c4N([H])[H])C3([H])[H])c2F)C1([H])[H]

$$$$
6:0:0
     RDKit          3D

 94103  0  0  1  0  0  0  0  0999 V2000
  -28.4540  -21.1040   20.0860 C   0  0  0  0  0  3  0  0  0  0  0  0
  -29.1630  -20.5980   21.1190 C   0  0  0  0  0  0  0  0  0  0  0  0
  -28.0330  -22.5510   19.9540 C   0  0  0  0  0  2  0  0  0  0  0  0
  -29.5530  -21.5180   22.2720 C   0  0  0  0  0  2  0  0  0  0  0  0
  -28.7960  -22.8540   22.2630 C   0  0  0  0  0  2  0  0  0  0  0  0
  -28.7840  -23.4190   20.8950 N   0  0  2  0  0  4  0  0  0  0  0  0
  -29.7490  -23.4080   20.5940 H   0  0  0  0  0  0  0  0  0  0  0  0
  -28.9300  -18.2280   20.2990 C   0  0  0  0  0  3  0  0  0  0  0  0
  -30.5570  -18.7290   22.0450 C   0  0  0  0  0  3  0  0  0  0  0  0
  -29.3320  -16.8860   20.3130 C   0  0  0  0  0  3  0  0  0  0  0  0
  -30.9440  -17.3750   22.0760 C   0  0  0  0  0  3  0  0  0  0  0  0
  -29.5450  -19.1680   21.1580 C   0  0  0  0  0  0  0  0  0  0  0  0
  -30.3420  -16.4540   21.1980 C   0  0  0  0  0  0  0  0  0  0  0  0
  -31.0400  -14.3840   20.1890 C   0  0  0  0  0  0  0  0  0  0  0  0
  -30.5990  -12.3410   18.8900 C   0  0  0  0  0  2  0  0  0  0  0  0
  -29.5880  -12.6210   17.7620 C   0  0  0  0  0  2  0  0  0  0  0  0
  -28.1420  -12.4790   18.2720 C   0  0  0  0  0  2  0  0  0  0  0  0
  -27.8940  -13.2790   19.5760 C   0  0  0  0  0  3  0  0  0  0  0  0
  -28.9980  -12.9780   20.6140 C   0  0  0  0  0  2  0  0  0  0  0  0
  -30.3180  -13.2520   20.0060 N   0  0  0  0  0  0  0  0  0  0  0  0
  -31.9870  -14.7270   19.4710 O   0  0  0  0  0  0  0  0  0  0  0  0
  -30.6890  -15.0910   21.2660 N   0  0  0  0  0  0  0  0  0  0  0  0
  -30.1550  -14.5590   21.9400 H   0  0  0  0  0  0  0  0  0  0  0  0
  -25.5470  -13.9140   20.4340 C   0  0  0  0  0  0  0  0  0  0  0  0
  -24.4850  -13.1490   20.8370 C   0  0  0  0  0  0  0  0  0  0  0  0
  -24.9160  -11.7910   20.7320 C   0  0  0  0  0  0  0  0  0  0  0  0
  -26.5600  -13.0220   20.1140 N   0  0  0  0  0  0  0  0  0  0  0  0
  -26.1840  -11.7380   20.3460 N   0  0  0  0  0  0  0  0  0  0  0  0
  -24.1790  -10.5370   20.9220 C   0  0  0  0  0  0  0  0  0  0  0  0
  -24.6010   -9.5670   21.8590 C   0  0  0  0  0  3  0  0  0  0  0  0
  -23.8660   -8.3750   22.0350 C   0  0  0  0  0  3  0  0  0  0  0  0
  -22.6950   -8.1440   21.2740 C   0  0  0  0  0  0  0  0  0  0  0  0
  -22.2930   -9.1020   20.3270 C   0  0  0  0  0  3  0  0  0  0  0  0
  -23.0280  -10.2850   20.1490 C   0  0  0  0  0  3  0  0  0  0  0  0
  -21.9330   -7.0040   21.3590 O   0  0  0  0  0  0  0  0  0  0  0  0
  -21.8000   -6.3140   22.5390 C   0  0  0  0  0  0  0  0  0  0  0  0
  -21.2890   -6.9250   23.7050 C   0  0  0  0  0  3  0  0  0  0  0  0
  -21.1030   -6.1600   24.8740 C   0  0  0  0  0  3  0  0  0  0  0  0
  -21.4170   -4.7880   24.8790 C   0  0  0  0  0  0  0  0  0  0  0  0
  -21.9220   -4.1790   23.7160 C   0  0  0  0  0  3  0  0  0  0  0  0
  -22.1090   -4.9400   22.5490 C   0  0  0  0  0  0  0  0  0  0  0  0
  -22.5760   -4.3430   21.4250 F   0  0  0  0  0  0  0  0  0  0  0  0
  -21.2320   -4.0530   25.9990 F   0  0  0  0  0  0  0  0  0  0  0  0
  -23.1160  -13.6410   21.2110 C   0  0  0  0  0  0  0  0  0  0  0  0
  -22.4340  -12.9340   22.1050 N   0  0  0  0  0  0  0  0  0  0  0  0
  -22.6620  -14.6860   20.7450 O   0  0  0  0  0  0  0  0  0  0  0  0
  -22.8130  -12.0870   22.5010 H   0  0  0  0  0  0  0  0  0  0  0  0
  -21.5170  -13.2450   22.3970 H   0  0  0  0  0  0  0  0  0  0  0  0
  -25.7300  -15.2870   20.3000 N   0  0  0  0  0  0  0  0  0  0  0  0
  -24.9940  -15.9530   20.5050 H   0  0  0  0  0  0  0  0  0  0  0  0
  -26.5870  -15.7270   19.9900 H   0  0  0  0  0  0  0  0  0  0  0  0
  -28.3490  -24.8320   20.8590 C   0  0  0  0  0  2  0  0  0  0  0  0
  -28.6990  -25.5100   19.5210 C   0  0  0  0  0  2  0  0  0  0  0  0
  -28.6110  -26.9160   19.6660 O   0  0  0  0  0  0  0  0  0  0  0  0
  -24.6740  -31.7160   23.0400 C   0  0  0  0  0  0  0  0  0  0  0  0
  -27.3740  -27.5110   19.7270 C   0  0  0  0  0  0  0  0  0  0  0  0
  -23.4650  -30.3500   21.3670 C   0  0  0  0  0  3  0  0  0  0  0  0
  -24.9260  -28.9060   19.8600 C   0  0  0  0  0  0  0  0  0  0  0  0
  -25.9710  -30.7930   21.1290 C   0  0  0  0  0  2  0  0  0  0  0  0
  -26.0760  -29.4520   20.4400 C   0  0  0  0  0  0  0  0  0  0  0  0
  -27.3000  -28.7590   20.3730 C   0  0  0  0  0  3  0  0  0  0  0  0
  -26.2010  -26.9600   19.1550 C   0  0  0  0  0  3  0  0  0  0  0  0
  -24.9800  -27.6560   19.2200 C   0  0  0  0  0  3  0  0  0  0  0  0
  -23.6610  -29.7260   19.9590 C   0  0  0  0  0  2  0  0  0  0  0  0
  -24.7230  -30.9640   21.9060 N   0  0  0  0  0  0  0  0  0  0  0  0
  -23.5990  -31.9390   23.6130 O   0  0  0  0  0  0  0  0  0  0  0  0
  -22.8620  -29.2750   22.2980 C   0  0  0  0  0  0  0  0  0  0  0  0
  -21.5410  -29.0690   22.1880 N   0  0  0  0  0  0  0  0  0  0  0  0
  -23.5770  -28.6320   23.0710 O   0  0  0  0  0  0  0  0  0  0  0  0
  -21.0250  -29.6460   21.5400 H   0  0  0  0  0  0  0  0  0  0  0  0
  -18.2050  -27.7790   22.6900 C   0  0  0  0  0  0  0  0  0  0  0  0
  -20.7600  -28.0820   22.9310 C   0  0  0  0  0  3  0  0  0  0  0  0
  -20.8860  -26.6790   22.2970 C   0  0  0  0  0  2  0  0  0  0  0  0
  -19.7730  -26.3670   21.2920 C   0  0  0  0  0  2  0  0  0  0  0  0
  -18.4010  -26.4580   21.9650 C   0  0  0  0  0  2  0  0  0  0  0  0
  -19.3140  -28.5490   23.1300 C   0  0  0  0  0  0  0  0  0  0  0  0
  -19.0790  -29.7850   23.7690 C   0  0  0  0  0  3  0  0  0  0  0  0
  -17.7670  -30.2520   23.9740 C   0  0  0  0  0  3  0  0  0  0  0  0
  -16.6740  -29.4800   23.5480 C   0  0  0  0  0  3  0  0  0  0  0  0
  -16.8920  -28.2450   22.9130 C   0  0  0  0  0  3  0  0  0  0  0  0
  -25.9600  -32.3500   23.6590 C   0  0  0  0  0  3  0  0  0  0  0  0
  -26.5350  -31.5260   24.8760 C   0  0  1  0  0  0  0  0  0  0  0  0
  -25.4800  -31.2020   25.9600 C   0  0  0  0  0  1  0  0  0  0  0  0
  -27.1410  -30.1890   24.3900 C   0  0  0  0  0  1  0  0  0  0  0  0
  -27.6830  -32.3140   25.5470 C   0  0  0  0  0  1  0  0  0  0  0  0
  -25.6230  -33.7180   24.0690 N   0  0  0  0  0  0  0  0  0  0  0  0
  -25.9080  -34.8170   23.3550 C   0  0  0  0  0  0  0  0  0  0  0  0
  -26.5530  -34.7830   22.3030 O   0  0  0  0  0  0  0  0  0  0  0  0
  -25.0440  -33.8170   24.8890 H   0  0  0  0  0  0  0  0  0  0  0  0
  -24.1180  -36.5690   23.1330 C   0  0  0  0  0  1  0  0  0  0  0  0
  -25.3930  -36.1650   23.8910 C   0  0  0  0  0  3  0  0  0  0  0  0
  -27.5230  -37.0740   24.7060 C   0  0  0  0  0  1  0  0  0  0  0  0
  -26.3900  -37.2530   23.8010 N   0  0  0  0  0  0  0  0  0  0  0  0
  -25.9630  -38.1530   24.0050 H   0  0  0  0  0  0  0  0  0  0  0  0
  1  2  2  0
  2 12  1  0
  2  4  1  0
  3  1  1  0
  3  6  1  0
  5  4  1  0
  6  5  1  0
  6  7  1  6
  8 10  2  0
  8 12  1  0
  9 11  1  0
 10 13  1  0
 12  9  2  0
 13 22  1  0
 13 11  2  0
 14 22  1  0
 15 20  1  0
 16 17  1  0
 16 15  1  0
 18 17  1  0
 18 27  1  0
 18 19  1  0
 20 14  1  0
 20 19  1  0
 21 14  2  0
 22 23  1  0
 24 25  2  0
 25 44  1  0
 26 25  1  0
 26 29  1  0
 27 28  1  0
 27 24  1  0
 28 26  2  0
 29 30  1  0
 30 31  2  0
 32 35  1  0
 32 31  1  0
 33 32  2  0
 34 33  1  0
 34 29  2  0
 35 36  1  0
 36 41  2  0
 36 37  1  0
 37 38  2  0
 38 39  1  0
 39 43  1  0
 40 39  2  0
 41 40  1  0
 42 41  1  0
 44 45  1  0
 45 48  1  0
 45 47  1  0
 46 44  2  0
 49 24  1  0
 49 50  1  0
 51 49  1  0
 52  6  1  0
 53 54  1  0
 53 52  1  0
 54 56  1  0
 55 66  2  0
 56 61  1  0
 57 65  1  0
 57 67  1  0
 58 64  1  0
 58 60  1  0
 59 65  1  0
 60 59  1  0
 61 60  2  0
 62 63  1  0
 62 56  2  0
 63 58  2  0
 64 57  1  0
 65 55  1  0
 67 69  2  0
 68 67  1  0
 70 68  1  0
 71 80  2  0
 71 76  1  0
 72 68  1  0
 72 76  1  0
 73 72  1  0
 74 75  1  0
 74 73  1  0
 75 71  1  0
 76 77  2  0
 77 78  1  0
 79 78  2  0
 80 79  1  0
 81 55  1  0
 81 86  1  0
 81 82  1  0
 82 85  1  1
 82 83  1  0
 84 82  1  0
 86 89  1  0
 87 91  1  0
 87 86  1  0
 88 87  2  0
 91 90  1  0
 93 91  1  0
 93 94  1  0
 93 92  1  0
M  ISO  4  14 100  22 100  53 101  54 101
M  END
>  <TORSDO>  (7) 
F 19

>  <SCORE>  (7) 
-13.554

>  <name>  (7) 
6

>  <ligand_id>  (7) 
6

>  <original_smiles>  (7) 
[H]C1=C(c2c([H])c([H])c(N([H])C(=O)N3C([H])([H])C([H])([H])C([H])([H])C([H])(n4nc(-c5c([H])c([H])c(Oc6c([H])c([H])c(F)c([H])c6F)c([H])c5[H])c(C(=O)N([H])[H])c4N([H])[H])C3([H])[H])c([H])c2[H])C([H])([H])C([H])([H])[N+]([H])(C([H])([H])C([H])([H])Oc2c([H])c([H])c3c(c2[H])C([H])([H])N(C(=O)C([H])(N([H])C(=O)C([H])(N([H])C([H])([H])[H])C([H])([H])[H])C(C([H])([H])[H])(C([H])([H])[H])C([H])([H])[H])C([H])(C(=O)N([H])C2([H])c4c([H])c([H])c([H])c([H])c4C([H])([H])C([H])([H])C2([H])[H])C3([H])[H])C1([H])[H]

>  <smiles>  (7) 
[H]C1=C(c2c([H])c([H])c(N([H])C(=O)N3C([H])([H])C([H])([H])C([H])([H])C([H])(n4nc(-c5c([H])c([H])c(Oc6c([H])c([H])c(F)c([H])c6F)c([H])c5[H])c(C(=O)N([H])[H])c4N([H])[H])C3([H])[H])c([H])c2[H])C([H])([H])C([H])([H])[N+]([H])(C([H])([H])C([H])([H])Oc2c([H])c([H])c3c(c2[H])C([H])([H])N(C(=O)C([H])(N([H])C(=O)C([H])(N([H])C([H])([H])[H])C([H])([H])[H])C(C([H])([H])[H])(C([H])([H])[H])C([H])([H])[H])C([H])(C(=O)N([H])C2([H])c4c([H])c([H])c([H])c([H])c4C([H])([H])C([H])([H])C2([H])[H])C3([H])[H])C1([H])[H]

$$$$
7:0:0
     RDKit          3D

 93102  0  0  1  0  0  0  0  0999 V2000
  -28.5090  -23.8090   20.4420 C   0  0  0  0  0  0  0  0  0  0  0  0
  -27.9940  -22.5790   21.0360 C   0  0  0  0  0  0  0  0  0  0  0  0
  -28.0060  -25.0990   20.6190 C   0  0  0  0  0  3  0  0  0  0  0  0
  -29.6000  -22.9600   19.7200 C   0  0  0  0  0  2  0  0  0  0  0  0
  -28.9750  -21.7870   20.4070 N   0  0  0  0  0  0  0  0  0  0  0  0
  -27.0560  -22.3910   21.7830 O   0  0  0  0  0  0  0  0  0  0  0  0
  -28.3600  -19.3680   20.7750 C   0  0  0  0  0  3  0  0  0  0  0  0
  -28.5580  -17.9560   20.7890 C   0  0  0  0  0  3  0  0  0  0  0  0
  -30.7280  -18.2570   19.8750 C   0  0  0  0  0  3  0  0  0  0  0  0
  -29.3110  -20.3320   20.3260 C   0  0  0  0  0  0  0  0  0  0  0  0
  -29.7460  -17.3280   20.3400 C   0  0  0  0  0  0  0  0  0  0  0  0
  -30.5260  -19.6990   19.8780 C   0  0  0  0  0  0  0  0  0  0  0  0
  -30.6200  -14.8220   19.9440 C   0  0  0  0  0  0  0  0  0  0  0  0
  -30.3990  -12.5730   18.8640 C   0  0  0  0  0  2  0  0  0  0  0  0
  -29.3700  -12.6940   17.7140 C   0  0  0  0  0  2  0  0  0  0  0  0
  -27.9320  -12.5000   18.2350 C   0  0  0  0  0  2  0  0  0  0  0  0
  -27.6490  -13.3340   19.5130 C   0  0  0  0  0  3  0  0  0  0  0  0
  -28.7840  -13.1780   20.5530 C   0  0  0  0  0  2  0  0  0  0  0  0
  -30.0410  -13.5700   19.8950 N   0  0  0  0  0  0  0  0  0  0  0  0
  -31.7480  -15.0100   19.4800 O   0  0  0  0  0  0  0  0  0  0  0  0
  -29.8010  -15.8410   20.4000 N   0  0  0  0  0  0  0  0  0  0  0  0
  -28.9640  -15.4430   20.7970 H   0  0  0  0  0  0  0  0  0  0  0  0
  -25.3190  -13.9130   20.4190 C   0  0  0  0  0  0  0  0  0  0  0  0
  -24.2770  -13.1310   20.8390 C   0  0  0  0  0  0  0  0  0  0  0  0
  -24.7280  -11.7790   20.7280 C   0  0  0  0  0  0  0  0  0  0  0  0
  -26.3380  -13.0360   20.0810 N   0  0  0  0  0  0  0  0  0  0  0  0
  -25.9940  -11.7470   20.3280 N   0  0  0  0  0  0  0  0  0  0  0  0
  -24.0100  -10.5140   20.9240 C   0  0  0  0  0  0  0  0  0  0  0  0
  -24.4520   -9.5510   21.8580 C   0  0  0  0  0  3  0  0  0  0  0  0
  -23.7340   -8.3500   22.0420 C   0  0  0  0  0  3  0  0  0  0  0  0
  -22.5610   -8.1010   21.2910 C   0  0  0  0  0  0  0  0  0  0  0  0
  -22.1370   -9.0530   20.3450 C   0  0  0  0  0  3  0  0  0  0  0  0
  -22.8560  -10.2460   20.1600 C   0  0  0  0  0  3  0  0  0  0  0  0
  -21.8150   -6.9510   21.3820 O   0  0  0  0  0  0  0  0  0  0  0  0
  -21.6990   -6.2600   22.5610 C   0  0  0  0  0  0  0  0  0  0  0  0
  -21.1800   -6.8630   23.7290 C   0  0  0  0  0  3  0  0  0  0  0  0
  -21.0130   -6.0980   24.9000 C   0  0  0  0  0  3  0  0  0  0  0  0
  -21.3530   -4.7320   24.9060 C   0  0  0  0  0  0  0  0  0  0  0  0
  -21.8630   -4.1290   23.7430 C   0  0  0  0  0  3  0  0  0  0  0  0
  -22.0330   -4.8900   22.5730 C   0  0  0  0  0  0  0  0  0  0  0  0
  -22.5050   -4.2990   21.4500 F   0  0  0  0  0  0  0  0  0  0  0  0
  -21.1840   -3.9950   26.0280 F   0  0  0  0  0  0  0  0  0  0  0  0
  -22.9050  -13.6030   21.2260 C   0  0  0  0  0  0  0  0  0  0  0  0
  -22.2370  -12.8790   22.1170 N   0  0  0  0  0  0  0  0  0  0  0  0
  -22.4350  -14.6460   20.7710 O   0  0  0  0  0  0  0  0  0  0  0  0
  -22.6330  -12.0360   22.5080 H   0  0  0  0  0  0  0  0  0  0  0  0
  -21.3170  -13.1730   22.4140 H   0  0  0  0  0  0  0  0  0  0  0  0
  -25.4790  -15.2880   20.2700 N   0  0  0  0  0  0  0  0  0  0  0  0
  -24.7160  -15.9360   20.4340 H   0  0  0  0  0  0  0  0  0  0  0  0
  -26.2730  -15.7220   19.8160 H   0  0  0  0  0  0  0  0  0  0  0  0
  -32.8600  -20.1240   19.5180 C   0  0  0  0  0  1  0  0  0  0  0  0
  -31.5090  -20.5690   19.4550 O   0  0  0  0  0  0  0  0  0  0  0  0
  -28.3350  -26.4020   20.1370 O   0  0  0  0  0  0  0  0  0  0  0  0
  -24.6170  -31.8610   23.2040 C   0  0  0  0  0  0  0  0  0  0  0  0
  -27.2710  -27.3330   20.0940 C   0  0  0  0  0  0  0  0  0  0  0  0
  -23.4310  -30.4770   21.5410 C   0  0  0  0  0  3  0  0  0  0  0  0
  -24.9020  -28.9580   20.0930 C   0  0  0  0  0  0  0  0  0  0  0  0
  -25.9740  -30.8050   21.3780 C   0  0  0  0  0  2  0  0  0  0  0  0
  -26.0680  -29.4340   20.7090 C   0  0  0  0  0  0  0  0  0  0  0  0
  -27.2570  -28.6340   20.7050 C   0  0  0  0  0  3  0  0  0  0  0  0
  -26.0890  -26.9320   19.4380 C   0  0  0  0  0  3  0  0  0  0  0  0
  -24.9170  -27.7140   19.4460 C   0  0  0  0  0  3  0  0  0  0  0  0
  -23.6590  -29.8270   20.1510 C   0  0  0  0  0  2  0  0  0  0  0  0
  -24.6930  -31.0650   22.0970 N   0  0  0  0  0  0  0  0  0  0  0  0
  -23.5300  -32.1240   23.7390 O   0  0  0  0  0  0  0  0  0  0  0  0
  -22.7710  -29.4430   22.4830 C   0  0  0  0  0  0  0  0  0  0  0  0
  -21.4440  -29.2670   22.3590 N   0  0  0  0  0  0  0  0  0  0  0  0
  -23.4510  -28.8030   23.2890 O   0  0  0  0  0  0  0  0  0  0  0  0
  -20.9510  -29.8370   21.6840 H   0  0  0  0  0  0  0  0  0  0  0  0
  -18.0650  -28.0830   22.8810 C   0  0  0  0  0  0  0  0  0  0  0  0
  -20.6290  -28.3150   23.1160 C   0  0  0  0  0  3  0  0  0  0  0  0
  -20.7090  -26.8990   22.5020 C   0  0  0  0  0  2  0  0  0  0  0  0
  -19.5900  -26.6130   21.4950 C   0  0  0  0  0  2  0  0  0  0  0  0
  -18.2210  -26.7520   22.1640 C   0  0  0  0  0  2  0  0  0  0  0  0
  -19.1960  -28.8240   23.3150 C   0  0  0  0  0  0  0  0  0  0  0  0
  -18.9970  -30.0710   23.9460 C   0  0  0  0  0  3  0  0  0  0  0  0
  -17.6990  -30.5780   24.1470 C   0  0  0  0  0  3  0  0  0  0  0  0
  -16.5830  -29.8340   23.7280 C   0  0  0  0  0  3  0  0  0  0  0  0
  -16.7670  -28.5880   23.1010 C   0  0  0  0  0  3  0  0  0  0  0  0
  -25.8920  -32.4960   23.8380 C   0  0  0  0  0  3  0  0  0  0  0  0
  -25.5760  -33.8950   24.1690 N   0  0  0  0  0  0  0  0  0  0  0  0
  -25.9060  -34.9500   23.4130 C   0  0  0  0  0  0  0  0  0  0  0  0
  -26.5800  -34.8500   22.3830 O   0  0  0  0  0  0  0  0  0  0  0  0
  -24.9760  -34.0430   24.9660 H   0  0  0  0  0  0  0  0  0  0  0  0
  -24.1740  -36.7410   23.0570 C   0  0  0  0  0  1  0  0  0  0  0  0
  -25.4140  -36.3380   23.8710 C   0  0  0  0  0  3  0  0  0  0  0  0
  -27.5440  -37.2300   24.7110 C   0  0  0  0  0  1  0  0  0  0  0  0
  -26.4460  -37.3930   23.7630 N   0  0  0  0  0  0  0  0  0  0  0  0
  -26.0370  -38.3130   23.9050 H   0  0  0  0  0  0  0  0  0  0  0  0
  -26.3970  -31.7250   25.1200 C   0  0  1  0  0  0  0  0  0  0  0  0
  -25.2920  -31.4890   26.1770 C   0  0  0  0  0  1  0  0  0  0  0  0
  -26.9830  -30.3460   24.7370 C   0  0  0  0  0  1  0  0  0  0  0  0
  -27.5390  -32.5190   25.7940 C   0  0  0  0  0  1  0  0  0  0  0  0
  1  3  2  0
  1  2  1  0
  2  6  2  0
  4  5  1  0
  4  1  1  0
  5  2  1  0
  7  8  1  0
  9 12  2  0
  9 11  1  0
 10  5  1  0
 10  7  2  0
 11 21  1  0
 11  8  2  0
 12 10  1  0
 13 21  1  0
 14 19  1  0
 15 16  1  0
 15 14  1  0
 17 16  1  0
 17 26  1  0
 17 18  1  0
 19 13  1  0
 19 18  1  0
 20 13  2  0
 21 22  1  0
 23 24  2  0
 24 43  1  0
 25 24  1  0
 25 28  1  0
 26 27  1  0
 26 23  1  0
 27 25  2  0
 28 29  1  0
 29 30  2  0
 31 34  1  0
 31 30  1  0
 32 31  2  0
 33 32  1  0
 33 28  2  0
 34 35  1  0
 35 40  2  0
 35 36  1  0
 36 37  2  0
 37 38  1  0
 38 42  1  0
 39 38  2  0
 40 39  1  0
 41 40  1  0
 43 44  1  0
 44 47  1  0
 44 46  1  0
 45 43  2  0
 48 23  1  0
 48 49  1  0
 50 48  1  0
 52 51  1  0
 52 12  1  0
 53  3  1  0
 54 65  2  0
 55 53  1  0
 55 60  1  0
 56 64  1  0
 56 66  1  0
 57 63  1  0
 57 59  1  0
 58 64  1  0
 59 58  1  0
 60 59  2  0
 61 62  1  0
 61 55  2  0
 62 57  2  0
 63 56  1  0
 64 54  1  0
 66 68  2  0
 67 66  1  0
 69 67  1  0
 70 79  2  0
 70 75  1  0
 71 67  1  0
 71 75  1  0
 72 71  1  0
 73 74  1  0
 73 72  1  0
 74 70  1  0
 75 76  2  0
 76 77  1  0
 78 77  2  0
 79 78  1  0
 80 54  1  0
 80 81  1  0
 80 90  1  0
 81 84  1  0
 82 86  1  0
 82 81  1  0
 83 82  2  0
 86 85  1  0
 88 86  1  0
 88 89  1  0
 88 87  1  0
 90 93  1  1
 90 91  1  0
 92 90  1  0
M  ISO  4   3 101  13 100  21 100  53 101
M  END
>  <TORSDO>  (8) 
F 18

>  <SCORE>  (8) 
-14.218

>  <name>  (8) 
7

>  <ligand_id>  (8) 
7

>  <original_smiles>  (8) 
[H]C(Oc1c([H])c([H])c2c(c1[H])C([H])([H])N(C(=O)C([H])(N([H])C(=O)C([H])(N([H])C([H])([H])[H])C([H])([H])[H])C(C([H])([H])[H])(C([H])([H])[H])C([H])([H])[H])C([H])(C(=O)N([H])C1([H])c3c([H])c([H])c([H])c([H])c3C([H])([H])C([H])([H])C1([H])[H])C2([H])[H])=C1C(=O)N(c2c([H])c([H])c(N([H])C(=O)N3C([H])([H])C([H])([H])C([H])([H])C([H])(n4nc(-c5c([H])c([H])c(Oc6c([H])c([H])c(F)c([H])c6F)c([H])c5[H])c(C(=O)N([H])[H])c4N([H])[H])C3([H])[H])c([H])c2OC([H])([H])[H])C1([H])[H]

>  <smiles>  (8) 
[H]C(Oc1c([H])c([H])c2c(c1[H])C([H])([H])N(C(=O)C([H])(N([H])C(=O)C([H])(N([H])C([H])([H])[H])C([H])([H])[H])C(C([H])([H])[H])(C([H])([H])[H])C([H])([H])[H])C([H])(C(=O)N([H])C1([H])c3c([H])c([H])c([H])c([H])c3C([H])([H])C([H])([H])C1([H])[H])C2([H])[H])=C1C(=O)N(c2c([H])c([H])c(N([H])C(=O)N3C([H])([H])C([H])([H])C([H])([H])C([H])(n4nc(-c5c([H])c([H])c(Oc6c([H])c([H])c(F)c([H])c6F)c([H])c5[H])c(C(=O)N([H])[H])c4N([H])[H])C3([H])[H])c([H])c2OC([H])([H])[H])C1([H])[H]

$$$$
8:0:0
     RDKit          3D

 96105  0  0  1  0  0  0  0  0999 V2000
  -28.7880  -23.7460   20.3560 C   0  0  0  0  0  0  0  0  0  0  0  0
  -28.3540  -22.3250   20.0990 C   0  0  0  0  0  0  0  0  0  0  0  0
  -30.4570  -22.0930   20.7700 C   0  0  0  0  0  0  0  0  0  0  0  0
  -27.9990  -24.8900   20.1620 C   0  0  0  0  0  3  0  0  0  0  0  0
  -30.2110  -23.6150   20.8140 C   0  0  0  0  0  2  0  0  0  0  0  0
  -29.3700  -21.4030   20.3500 N   0  0  0  0  0  0  0  0  0  0  0  0
  -27.2230  -21.9880   19.7230 O   0  0  0  0  0  0  0  0  0  0  0  0
  -31.5430  -21.5960   21.0980 O   0  0  0  0  0  0  0  0  0  0  0  0
  -29.3900  -19.7920   18.4750 C   0  0  0  0  0  3  0  0  0  0  0  0
  -29.6710  -18.7190   20.6410 C   0  0  0  0  0  3  0  0  0  0  0  0
  -29.7670  -17.3660   18.6140 C   0  0  0  0  0  3  0  0  0  0  0  0
  -29.4530  -19.9630   19.8770 C   0  0  0  0  0  0  0  0  0  0  0  0
  -29.5440  -18.5330   17.8550 C   0  0  0  0  0  0  0  0  0  0  0  0
  -29.8370  -17.3900   20.0250 C   0  0  0  0  0  0  0  0  0  0  0  0
  -30.6580  -14.9040   20.3370 C   0  0  0  0  0  0  0  0  0  0  0  0
  -30.4730  -12.6030   19.3590 C   0  0  0  0  0  2  0  0  0  0  0  0
  -29.5460  -12.6690   18.1240 C   0  0  0  0  0  2  0  0  0  0  0  0
  -28.0750  -12.4880   18.5390 C   0  0  0  0  0  2  0  0  0  0  0  0
  -27.6920  -13.3670   19.7580 C   0  0  0  0  0  3  0  0  0  0  0  0
  -28.7440  -13.2960   20.8870 C   0  0  0  0  0  2  0  0  0  0  0  0
  -30.0440  -13.6630   20.3100 N   0  0  0  0  0  0  0  0  0  0  0  0
  -31.8210  -14.9990   19.9300 O   0  0  0  0  0  0  0  0  0  0  0  0
  -29.9380  -16.0500   20.7020 N   0  0  0  0  0  0  0  0  0  0  0  0
  -29.1650  -15.8510   21.3210 H   0  0  0  0  0  0  0  0  0  0  0  0
  -25.2950  -13.9460   20.4600 C   0  0  0  0  0  0  0  0  0  0  0  0
  -24.2310  -13.1700   20.8300 C   0  0  0  0  0  0  0  0  0  0  0  0
  -24.7010  -11.8210   20.8160 C   0  0  0  0  0  0  0  0  0  0  0  0
  -26.3460  -13.0710   20.2390 N   0  0  0  0  0  0  0  0  0  0  0  0
  -25.9940  -11.7890   20.5130 N   0  0  0  0  0  0  0  0  0  0  0  0
  -23.9770  -10.5580   21.0140 C   0  0  0  0  0  0  0  0  0  0  0  0
  -24.4110   -9.5970   21.9530 C   0  0  0  0  0  3  0  0  0  0  0  0
  -23.6880   -8.4000   22.1410 C   0  0  0  0  0  3  0  0  0  0  0  0
  -22.5160   -8.1540   21.3870 C   0  0  0  0  0  0  0  0  0  0  0  0
  -22.0990   -9.1030   20.4370 C   0  0  0  0  0  3  0  0  0  0  0  0
  -22.8250  -10.2920   20.2490 C   0  0  0  0  0  3  0  0  0  0  0  0
  -21.7640   -7.0070   21.4810 O   0  0  0  0  0  0  0  0  0  0  0  0
  -21.7200   -6.2680   22.6350 C   0  0  0  0  0  0  0  0  0  0  0  0
  -21.2940   -6.8240   23.8610 C   0  0  0  0  0  3  0  0  0  0  0  0
  -21.1960   -6.0120   25.0070 C   0  0  0  0  0  3  0  0  0  0  0  0
  -21.5170   -4.6430   24.9310 C   0  0  0  0  0  0  0  0  0  0  0  0
  -21.9380   -4.0870   23.7100 C   0  0  0  0  0  3  0  0  0  0  0  0
  -22.0380   -4.8960   22.5660 C   0  0  0  0  0  0  0  0  0  0  0  0
  -22.4210   -4.3490   21.3880 F   0  0  0  0  0  0  0  0  0  0  0  0
  -21.4180   -3.8610   26.0310 F   0  0  0  0  0  0  0  0  0  0  0  0
  -22.8300  -13.6460   21.0890 C   0  0  0  0  0  0  0  0  0  0  0  0
  -22.1000  -12.9580   21.9590 N   0  0  0  0  0  0  0  0  0  0  0  0
  -22.3910  -14.6640   20.5550 O   0  0  0  0  0  0  0  0  0  0  0  0
  -22.4690  -12.1360   22.4150 H   0  0  0  0  0  0  0  0  0  0  0  0
  -21.1610  -13.2580   22.1750 H   0  0  0  0  0  0  0  0  0  0  0  0
  -25.4580  -15.3160   20.2710 N   0  0  0  0  0  0  0  0  0  0  0  0
  -24.6910  -15.9710   20.3700 H   0  0  0  0  0  0  0  0  0  0  0  0
  -26.3090  -15.7500   19.9380 H   0  0  0  0  0  0  0  0  0  0  0  0
  -29.4780  -18.4460   16.4650 N   0  0  0  0  0  0  0  0  0  0  0  0
  -29.0790  -19.2120   15.9300 H   0  0  0  0  0  0  0  0  0  0  0  0
  -29.3440  -17.5420   16.0220 H   0  0  0  0  0  0  0  0  0  0  0  0
  -28.2550  -26.3170   20.2680 O   0  0  0  0  0  0  0  0  0  0  0  0
  -24.6130  -31.9460   23.2280 C   0  0  0  0  0  0  0  0  0  0  0  0
  -27.1950  -27.2770   20.1920 C   0  0  0  0  0  0  0  0  0  0  0  0
  -23.4090  -30.5440   21.5950 C   0  0  0  0  0  3  0  0  0  0  0  0
  -24.8600  -28.9850   20.1660 C   0  0  0  0  0  0  0  0  0  0  0  0
  -25.9590  -30.8230   21.4270 C   0  0  0  0  0  2  0  0  0  0  0  0
  -26.0340  -29.4340   20.7830 C   0  0  0  0  0  0  0  0  0  0  0  0
  -27.1990  -28.5910   20.7940 C   0  0  0  0  0  3  0  0  0  0  0  0
  -26.0090  -26.9420   19.4960 C   0  0  0  0  0  3  0  0  0  0  0  0
  -24.8560  -27.7500   19.5100 C   0  0  0  0  0  3  0  0  0  0  0  0
  -23.6270  -29.8720   20.2160 C   0  0  0  0  0  2  0  0  0  0  0  0
  -24.6790  -31.1250   22.1380 N   0  0  0  0  0  0  0  0  0  0  0  0
  -23.5290  -32.2300   23.7590 O   0  0  0  0  0  0  0  0  0  0  0  0
  -22.7420  -29.5310   22.5570 C   0  0  0  0  0  0  0  0  0  0  0  0
  -21.4140  -29.3570   22.4340 N   0  0  0  0  0  0  0  0  0  0  0  0
  -23.4190  -28.9050   23.3770 O   0  0  0  0  0  0  0  0  0  0  0  0
  -20.9270  -29.9130   21.7450 H   0  0  0  0  0  0  0  0  0  0  0  0
  -18.0320  -28.1740   22.9570 C   0  0  0  0  0  0  0  0  0  0  0  0
  -20.5940  -28.4240   23.2100 C   0  0  0  0  0  3  0  0  0  0  0  0
  -20.6860  -26.9920   22.6330 C   0  0  0  0  0  2  0  0  0  0  0  0
  -19.5770  -26.6740   21.6250 C   0  0  0  0  0  2  0  0  0  0  0  0
  -18.2000  -26.8240   22.2790 C   0  0  0  0  0  2  0  0  0  0  0  0
  -19.1560  -28.9310   23.3800 C   0  0  0  0  0  0  0  0  0  0  0  0
  -18.9470  -30.1920   23.9760 C   0  0  0  0  0  3  0  0  0  0  0  0
  -17.6450  -30.6990   24.1500 C   0  0  0  0  0  3  0  0  0  0  0  0
  -16.5350  -29.9380   23.7450 C   0  0  0  0  0  3  0  0  0  0  0  0
  -16.7300  -28.6780   23.1530 C   0  0  0  0  0  3  0  0  0  0  0  0
  -25.8940  -32.5830   23.8480 C   0  0  0  0  0  3  0  0  0  0  0  0
  -25.5840  -33.9810   24.1750 N   0  0  0  0  0  0  0  0  0  0  0  0
  -25.9120  -35.0350   23.4150 C   0  0  0  0  0  0  0  0  0  0  0  0
  -26.5790  -34.9320   22.3820 O   0  0  0  0  0  0  0  0  0  0  0  0
  -24.9920  -34.1350   24.9780 H   0  0  0  0  0  0  0  0  0  0  0  0
  -24.1880  -36.8320   23.0550 C   0  0  0  0  0  1  0  0  0  0  0  0
  -25.4240  -36.4220   23.8720 C   0  0  0  0  0  3  0  0  0  0  0  0
  -27.5550  -37.3040   24.7180 C   0  0  0  0  0  1  0  0  0  0  0  0
  -26.4580  -37.4760   23.7680 N   0  0  0  0  0  0  0  0  0  0  0  0
  -26.0510  -38.3960   23.9130 H   0  0  0  0  0  0  0  0  0  0  0  0
  -26.4090  -31.8170   25.1290 C   0  0  1  0  0  0  0  0  0  0  0  0
  -25.3140  -31.5860   26.1960 C   0  0  0  0  0  1  0  0  0  0  0  0
  -26.9930  -30.4360   24.7500 C   0  0  0  0  0  1  0  0  0  0  0  0
  -27.5610  -32.6130   25.7880 C   0  0  0  0  0  1  0  0  0  0  0  0
  1  5  1  0
  2  6  1  0
  2  1  1  0
  3  5  1  0
  3  8  2  0
  4 56  1  0
  4  1  2  0
  6  3  1  0
  7  2  2  0
  9 12  1  0
 11 14  2  0
 12  6  1  0
 12 10  2  0
 13  9  2  0
 13 11  1  0
 14 10  1  0
 14 23  1  0
 15 23  1  0
 16 21  1  0
 17 18  1  0
 17 16  1  0
 19 18  1  0
 19 28  1  0
 19 20  1  0
 21 15  1  0
 21 20  1  0
 22 15  2  0
 23 24  1  0
 25 26  2  0
 26 45  1  0
 27 26  1  0
 27 30  1  0
 28 25  1  0
 28 29  1  0
 29 27  2  0
 30 31  1  0
 31 32  2  0
 33 36  1  0
 33 32  1  0
 34 33  2  0
 35 34  1  0
 35 30  2  0
 36 37  1  0
 37 38  1  0
 38 39  2  0
 40 39  1  0
 40 44  1  0
 41 40  2  0
 42 37  2  0
 42 41  1  0
 43 42  1  0
 45 46  1  0
 46 49  1  0
 46 48  1  0
 47 45  2  0
 50 51  1  0
 50 25  1  0
 52 50  1  0
 53 13  1  0
 54 53  1  0
 55 53  1  0
 57 68  2  0
 58 56  1  0
 58 63  1  0
 59 67  1  0
 59 69  1  0
 60 66  1  0
 60 62  1  0
 61 67  1  0
 62 63  2  0
 62 61  1  0
 64 65  1  0
 64 58  2  0
 65 60  2  0
 66 59  1  0
 67 57  1  0
 69 71  2  0
 70 69  1  0
 72 70  1  0
 73 82  2  0
 73 78  1  0
 74 70  1  0
 74 78  1  0
 75 74  1  0
 76 77  1  0
 76 75  1  0
 77 73  1  0
 78 79  2  0
 79 80  1  0
 81 80  2  0
 82 81  1  0
 83 57  1  0
 83 84  1  0
 83 93  1  0
 84 87  1  0
 85 89  1  0
 85 84  1  0
 86 85  2  0
 89 88  1  0
 91 89  1  0
 91 92  1  0
 91 90  1  0
 93 96  1  1
 93 94  1  0
 95 93  1  0
M  ISO  4   4 101  15 100  23 100  56 101
M  END
>  <TORSDO>  (9) 
F 18

>  <SCORE>  (9) 
-15.270

>  <name>  (9) 
8

>  <ligand_id>  (9) 
8

>  <original_smiles>  (9) 
[H]C(Oc1c([H])c([H])c2c(c1[H])C([H])([H])N(C(=O)C([H])(N([H])C(=O)C([H])(N([H])C([H])([H])[H])C([H])([H])[H])C(C([H])([H])[H])(C([H])([H])[H])C([H])([H])[H])C([H])(C(=O)N([H])C1([H])c3c([H])c([H])c([H])c([H])c3C([H])([H])C([H])([H])C1([H])[H])C2([H])[H])=C1C(=O)N(c2c([H])c(N([H])[H])c([H])c(N([H])C(=O)N3C([H])([H])C([H])([H])C([H])([H])C([H])(n4nc(-c5c([H])c([H])c(Oc6c([H])c([H])c(F)c([H])c6F)c([H])c5[H])c(C(=O)N([H])[H])c4N([H])[H])C3([H])[H])c2[H])C(=O)C1([H])[H]

>  <smiles>  (9) 
[H]C(Oc1c([H])c([H])c2c(c1[H])C([H])([H])N(C(=O)C([H])(N([H])C(=O)C([H])(N([H])C([H])([H])[H])C([H])([H])[H])C(C([H])([H])[H])(C([H])([H])[H])C([H])([H])[H])C([H])(C(=O)N([H])C1([H])c3c([H])c([H])c([H])c([H])c3C([H])([H])C([H])([H])C1([H])[H])C2([H])[H])=C1C(=O)N(c2c([H])c(N([H])[H])c([H])c(N([H])C(=O)N3C([H])([H])C([H])([H])C([H])([H])C([H])(n4nc(-c5c([H])c([H])c(Oc6c([H])c([H])c(F)c([H])c6F)c([H])c5[H])c(C(=O)N([H])[H])c4N([H])[H])C3([H])[H])c2[H])C(=O)C1([H])[H]

$$$$
9:0:0
     RDKit          3D

 97105  0  0  1  0  0  0  0  0999 V2000
  -28.7060  -18.4540   20.1260 C   0  0  0  0  0  3  0  0  0  0  0  0
  -28.3820  -19.8290   20.2120 C   0  0  0  0  0  3  0  0  0  0  0  0
  -31.0730  -19.0400   20.0400 C   0  0  0  0  0  3  0  0  0  0  0  0
  -30.0570  -18.0620   19.9950 C   0  0  0  0  0  0  0  0  0  0  0  0
  -29.4090  -20.8060   20.1770 C   0  0  0  0  0  0  0  0  0  0  0  0
  -30.7580  -20.4010   20.1410 C   0  0  0  0  0  0  0  0  0  0  0  0
  -30.7260  -14.4530   20.3820 C   0  0  0  0  0  0  0  0  0  0  0  0
  -30.3260  -12.2840   19.3710 C   0  0  0  0  0  2  0  0  0  0  0  0
  -29.4210  -12.5180   18.1460 C   0  0  0  0  0  2  0  0  0  0  0  0
  -27.9440  -12.4130   18.5610 C   0  0  0  0  0  2  0  0  0  0  0  0
  -27.6030  -13.2720   19.8100 C   0  0  0  0  0  3  0  0  0  0  0  0
  -28.6530  -13.1060   20.9350 C   0  0  0  0  0  2  0  0  0  0  0  0
  -29.9830  -13.3180   20.3570 N   0  0  0  0  0  0  0  0  0  0  0  0
  -31.9380  -14.4280   20.1580 O   0  0  0  0  0  0  0  0  0  0  0  0
  -30.4730  -16.6740   19.6200 C   0  0  0  0  0  0  0  0  0  0  0  0
  -30.0460  -15.6170   20.3490 N   0  0  0  0  0  0  0  0  0  0  0  0
  -31.2350  -16.5830   18.6470 O   0  0  0  0  0  0  0  0  0  0  0  0
  -29.1940  -15.7020   20.8760 H   0  0  0  0  0  0  0  0  0  0  0  0
  -25.2050  -13.8850   20.5050 C   0  0  0  0  0  0  0  0  0  0  0  0
  -24.1310  -13.1170   20.8680 C   0  0  0  0  0  0  0  0  0  0  0  0
  -24.5890  -11.7650   20.8490 C   0  0  0  0  0  0  0  0  0  0  0  0
  -26.2490  -13.0000   20.2870 N   0  0  0  0  0  0  0  0  0  0  0  0
  -25.8820  -11.7200   20.5550 N   0  0  0  0  0  0  0  0  0  0  0  0
  -23.8550  -10.5050   21.0370 C   0  0  0  0  0  0  0  0  0  0  0  0
  -24.2740   -9.5400   21.9800 C   0  0  0  0  0  3  0  0  0  0  0  0
  -23.5420   -8.3460   22.1560 C   0  0  0  0  0  3  0  0  0  0  0  0
  -22.3770   -8.1080   21.3880 C   0  0  0  0  0  0  0  0  0  0  0  0
  -21.9780   -9.0610   20.4340 C   0  0  0  0  0  3  0  0  0  0  0  0
  -22.7110  -10.2470   20.2560 C   0  0  0  0  0  3  0  0  0  0  0  0
  -21.6180   -6.9670   21.4730 O   0  0  0  0  0  0  0  0  0  0  0  0
  -21.5500   -6.2310   22.6280 C   0  0  0  0  0  0  0  0  0  0  0  0
  -21.1050   -6.7930   23.8450 C   0  0  0  0  0  3  0  0  0  0  0  0
  -20.9850   -5.9850   24.9930 C   0  0  0  0  0  3  0  0  0  0  0  0
  -21.3010   -4.6140   24.9250 C   0  0  0  0  0  0  0  0  0  0  0  0
  -21.7380   -4.0510   23.7140 C   0  0  0  0  0  3  0  0  0  0  0  0
  -21.8590   -4.8570   22.5680 C   0  0  0  0  0  0  0  0  0  0  0  0
  -22.2610   -4.3060   21.3980 F   0  0  0  0  0  0  0  0  0  0  0  0
  -21.1780   -3.8340   26.0250 F   0  0  0  0  0  0  0  0  0  0  0  0
  -22.7330  -13.6010   21.1230 C   0  0  0  0  0  0  0  0  0  0  0  0
  -21.9920  -12.9070   21.9800 N   0  0  0  0  0  0  0  0  0  0  0  0
  -22.3060  -14.6290   20.5970 O   0  0  0  0  0  0  0  0  0  0  0  0
  -22.3510  -12.0760   22.4260 H   0  0  0  0  0  0  0  0  0  0  0  0
  -21.0520  -13.2110   22.1940 H   0  0  0  0  0  0  0  0  0  0  0  0
  -25.3770  -15.2530   20.3180 N   0  0  0  0  0  0  0  0  0  0  0  0
  -24.6070  -15.9080   20.4050 H   0  0  0  0  0  0  0  0  0  0  0  0
  -26.2230  -15.6810   19.9670 H   0  0  0  0  0  0  0  0  0  0  0  0
  -28.0980  -22.9450   20.1350 C   0  0  0  0  0  0  0  0  0  0  0  0
  -29.2030  -22.2000   20.0450 N   0  0  0  0  0  0  0  0  0  0  0  0
  -26.9860  -22.5660   20.5230 O   0  0  0  0  0  0  0  0  0  0  0  0
  -30.0340  -22.6940   19.7470 H   0  0  0  0  0  0  0  0  0  0  0  0
  -28.3930  -24.3930   19.6920 C   0  0  0  0  0  0  0  0  0  0  0  0
  -28.7020  -24.6730   18.5270 O   0  0  0  0  0  0  0  0  0  0  0  0
  -28.3250  -25.4560   20.7950 C   0  0  0  0  0  2  0  0  0  0  0  0
  -28.4660  -26.7800   20.2630 O   0  0  0  0  0  0  0  0  0  0  0  0
  -24.6030  -31.9130   23.2580 C   0  0  0  0  0  0  0  0  0  0  0  0
  -27.2960  -27.4950   20.2250 C   0  0  0  0  0  0  0  0  0  0  0  0
  -23.4200  -30.5010   21.6080 C   0  0  0  0  0  3  0  0  0  0  0  0
  -24.8930  -28.9700   20.2040 C   0  0  0  0  0  0  0  0  0  0  0  0
  -25.9410  -30.8810   21.4270 C   0  0  0  0  0  2  0  0  0  0  0  0
  -26.0410  -29.5110   20.7940 C   0  0  0  0  0  0  0  0  0  0  0  0
  -27.2490  -28.7820   20.7970 C   0  0  0  0  0  3  0  0  0  0  0  0
  -26.1320  -26.9600   19.6290 C   0  0  0  0  0  3  0  0  0  0  0  0
  -24.9310  -27.6930   19.6160 C   0  0  0  0  0  3  0  0  0  0  0  0
  -23.6440  -29.8170   20.2330 C   0  0  0  0  0  2  0  0  0  0  0  0
  -24.6740  -31.1130   22.1580 N   0  0  0  0  0  0  0  0  0  0  0  0
  -23.5150  -32.1790   23.7880 O   0  0  0  0  0  0  0  0  0  0  0  0
  -22.7660  -29.4770   22.5650 C   0  0  0  0  0  0  0  0  0  0  0  0
  -21.4410  -29.2970   22.4320 N   0  0  0  0  0  0  0  0  0  0  0  0
  -23.4460  -28.8490   23.3800 O   0  0  0  0  0  0  0  0  0  0  0  0
  -20.9550  -29.8560   21.7450 H   0  0  0  0  0  0  0  0  0  0  0  0
  -18.0590  -28.1330   22.9310 C   0  0  0  0  0  0  0  0  0  0  0  0
  -20.6190  -28.3610   23.1970 C   0  0  0  0  0  3  0  0  0  0  0  0
  -20.7050  -26.9350   22.6060 C   0  0  0  0  0  2  0  0  0  0  0  0
  -19.5960  -26.6320   21.5940 C   0  0  0  0  0  2  0  0  0  0  0  0
  -18.2190  -26.7870   22.2440 C   0  0  0  0  0  2  0  0  0  0  0  0
  -19.1870  -28.8790   23.3640 C   0  0  0  0  0  0  0  0  0  0  0  0
  -18.9840  -30.1410   23.9640 C   0  0  0  0  0  3  0  0  0  0  0  0
  -17.6860  -30.6570   24.1360 C   0  0  0  0  0  3  0  0  0  0  0  0
  -16.5720  -29.9060   23.7230 C   0  0  0  0  0  3  0  0  0  0  0  0
  -16.7600  -28.6470   23.1250 C   0  0  0  0  0  3  0  0  0  0  0  0
  -25.8790  -32.5530   23.8890 C   0  0  0  0  0  3  0  0  0  0  0  0
  -26.3880  -31.7910   25.1730 C   0  0  1  0  0  0  0  0  0  0  0  0
  -25.2860  -31.5520   26.2320 C   0  0  0  0  0  1  0  0  0  0  0  0
  -26.9810  -30.4170   24.7880 C   0  0  0  0  0  1  0  0  0  0  0  0
  -27.5280  -32.5940   25.8430 C   0  0  0  0  0  1  0  0  0  0  0  0
  -25.5650  -33.9520   24.2040 N   0  0  0  0  0  0  0  0  0  0  0  0
  -25.9060  -34.9980   23.4390 C   0  0  0  0  0  0  0  0  0  0  0  0
  -26.5920  -34.8890   22.4190 O   0  0  0  0  0  0  0  0  0  0  0  0
  -24.9620  -34.1120   24.9970 H   0  0  0  0  0  0  0  0  0  0  0  0
  -24.1860  -36.7870   23.0340 C   0  0  0  0  0  1  0  0  0  0  0  0
  -25.4080  -36.3880   23.8770 C   0  0  0  0  0  3  0  0  0  0  0  0
  -27.5210  -37.2780   24.7540 C   0  0  0  0  0  1  0  0  0  0  0  0
  -26.4410  -37.4420   23.7840 N   0  0  0  0  0  0  0  0  0  0  0  0
  -26.0300  -38.3610   23.9170 H   0  0  0  0  0  0  0  0  0  0  0  0
  -31.7840  -21.3490   20.1500 N   0  0  0  0  0  0  0  0  0  0  0  0
  -32.7270  -20.9870   20.2570 H   0  0  0  0  0  0  0  0  0  0  0  0
  -31.6430  -22.1420   20.7690 H   0  0  0  0  0  0  0  0  0  0  0  0
  1  2  1  0
  3  6  2  0
  4  3  1  0
  4  1  2  0
  5  2  2  0
  6 95  1  0
  6  5  1  0
  8 13  1  0
  9 10  1  0
  9  8  1  0
 11 10  1  0
 11 22  1  0
 11 12  1  0
 13  7  1  0
 13 12  1  0
 14  7  2  0
 15  4  1  0
 15 16  1  0
 16  7  1  0
 16 18  1  0
 17 15  2  0
 19 20  2  0
 20 39  1  0
 21 20  1  0
 21 24  1  0
 22 19  1  0
 22 23  1  0
 23 21  2  0
 24 25  1  0
 25 26  2  0
 27 30  1  0
 27 26  1  0
 28 27  2  0
 29 28  1  0
 29 24  2  0
 30 31  1  0
 31 32  1  0
 32 33  2  0
 34 33  1  0
 34 38  1  0
 35 34  2  0
 36 31  2  0
 36 35  1  0
 37 36  1  0
 39 40  1  0
 40 43  1  0
 40 42  1  0
 41 39  2  0
 44 45  1  0
 44 19  1  0
 46 44  1  0
 47 49  2  0
 48 47  1  0
 48  5  1  0
 50 48  1  0
 51 47  1  0
 51 53  1  0
 52 51  2  0
 54 53  1  0
 55 66  2  0
 56 54  1  0
 56 61  1  0
 57 65  1  0
 57 67  1  0
 58 64  1  0
 58 60  1  0
 59 65  1  0
 60 61  2  0
 60 59  1  0
 62 56  2  0
 63 62  1  0
 63 58  2  0
 64 57  1  0
 65 55  1  0
 67 69  2  0
 68 67  1  0
 70 68  1  0
 71 80  2  0
 71 76  1  0
 72 68  1  0
 72 76  1  0
 73 72  1  0
 74 75  1  0
 74 73  1  0
 75 71  1  0
 76 77  2  0
 77 78  1  0
 79 78  2  0
 80 79  1  0
 81 55  1  0
 81 86  1  0
 81 82  1  0
 82 85  1  1
 82 83  1  0
 84 82  1  0
 86 89  1  0
 87 91  1  0
 87 86  1  0
 88 87  2  0
 91 90  1  0
 93 91  1  0
 93 94  1  0
 93 92  1  0
 95 96  1  0
 95 97  1  0
M  ISO  4   7 100  16 100  53 101  54 101
M  END
>  <TORSDO>  (10) 
F 20

>  <SCORE>  (10) 
-14.353

>  <name>  (10) 
9

>  <ligand_id>  (10) 
9

>  <original_smiles>  (10) 
[H]c1c([H])c([H])c2c(c1[H])C([H])([H])C([H])([H])C([H])([H])C2([H])N([H])C(=O)C1([H])N(C(=O)C([H])(N([H])C(=O)C([H])(N([H])C([H])([H])[H])C([H])([H])[H])C(C([H])([H])[H])(C([H])([H])[H])C([H])([H])[H])C([H])([H])c2c([H])c(OC([H])([H])C(=O)C(=O)N([H])c3c([H])c([H])c(C(=O)N([H])C(=O)N4C([H])([H])C([H])([H])C([H])([H])C([H])(n5nc(-c6c([H])c([H])c(Oc7c([H])c([H])c(F)c([H])c7F)c([H])c6[H])c(C(=O)N([H])[H])c5N([H])[H])C4([H])[H])c([H])c3N([H])[H])c([H])c([H])c2C1([H])[H]

>  <smiles>  (10) 
[H]c1c([H])c([H])c2c(c1[H])C([H])([H])C([H])([H])C([H])([H])C2([H])N([H])C(=O)C1([H])N(C(=O)C([H])(N([H])C(=O)C([H])(N([H])C([H])([H])[H])C([H])([H])[H])C(C([H])([H])[H])(C([H])([H])[H])C([H])([H])[H])C([H])([H])c2c([H])c(OC([H])([H])C(=O)C(=O)N([H])c3c([H])c([H])c(C(=O)N([H])C(=O)N4C([H])([H])C([H])([H])C([H])([H])C([H])(n5nc(-c6c([H])c([H])c(Oc7c([H])c([H])c(F)c([H])c7F)c([H])c6[H])c(C(=O)N([H])[H])c5N([H])[H])C4([H])[H])c([H])c3N([H])[H])c([H])c([H])c2C1([H])[H]

$$$$
10:0:0
     RDKit          3D

 95103  0  0  1  0  0  0  0  0999 V2000
  -28.5220  -23.2920   20.3990 C   0  0  0  0  0  0  0  0  0  0  0  0
  -28.8770  -22.0400   20.8500 N   0  0  0  0  0  0  0  0  0  0  0  0
  -28.1720  -23.5010   19.2350 O   0  0  0  0  0  0  0  0  0  0  0  0
  -29.3270  -22.0570   21.7520 H   0  0  0  0  0  0  0  0  0  0  0  0
  -27.7440  -19.1470   18.6400 C   0  0  0  0  0  3  0  0  0  0  0  0
  -28.4990  -18.0710   19.1480 C   0  0  0  0  0  3  0  0  0  0  0  0
  -27.8520  -20.4410   19.1940 C   0  0  0  0  0  3  0  0  0  0  0  0
  -29.4950  -19.5870   20.7710 C   0  0  0  0  0  3  0  0  0  0  0  0
  -29.3780  -18.2530   20.2390 C   0  0  0  0  0  0  0  0  0  0  0  0
  -28.7460  -20.7060   20.2600 C   0  0  0  0  0  0  0  0  0  0  0  0
  -30.6280  -14.6680   20.3810 C   0  0  0  0  0  0  0  0  0  0  0  0
  -30.3710  -12.4370   19.3160 C   0  0  0  0  0  2  0  0  0  0  0  0
  -29.4340  -12.5500   18.0970 C   0  0  0  0  0  2  0  0  0  0  0  0
  -27.9630  -12.3910   18.5300 C   0  0  0  0  0  2  0  0  0  0  0  0
  -27.5970  -13.2720   19.7550 C   0  0  0  0  0  3  0  0  0  0  0  0
  -28.6550  -13.1710   20.8750 C   0  0  0  0  0  2  0  0  0  0  0  0
  -29.9580  -13.4810   20.2740 N   0  0  0  0  0  0  0  0  0  0  0  0
  -31.8290  -14.7280   20.1060 O   0  0  0  0  0  0  0  0  0  0  0  0
  -30.2730  -17.0890   20.7030 C   0  0  0  0  0  0  0  0  0  0  0  0
  -29.8580  -15.7940   20.5180 N   0  0  0  0  0  0  0  0  0  0  0  0
  -31.3390  -17.3710   21.2610 O   0  0  0  0  0  0  0  0  0  0  0  0
  -28.8730  -15.6670   20.3680 H   0  0  0  0  0  0  0  0  0  0  0  0
  -25.2090  -13.8680   20.4730 C   0  0  0  0  0  0  0  0  0  0  0  0
  -24.1420  -13.0950   20.8420 C   0  0  0  0  0  0  0  0  0  0  0  0
  -24.6050  -11.7440   20.8180 C   0  0  0  0  0  0  0  0  0  0  0  0
  -26.2530  -12.9880   20.2430 N   0  0  0  0  0  0  0  0  0  0  0  0
  -25.8950  -11.7050   20.5120 N   0  0  0  0  0  0  0  0  0  0  0  0
  -23.8760  -10.4840   21.0130 C   0  0  0  0  0  0  0  0  0  0  0  0
  -24.3030   -9.5240   21.9560 C   0  0  0  0  0  3  0  0  0  0  0  0
  -23.5770   -8.3280   22.1380 C   0  0  0  0  0  3  0  0  0  0  0  0
  -22.4090   -8.0830   21.3740 C   0  0  0  0  0  0  0  0  0  0  0  0
  -22.0000   -9.0340   20.4230 C   0  0  0  0  0  3  0  0  0  0  0  0
  -22.7290  -10.2210   20.2410 C   0  0  0  0  0  3  0  0  0  0  0  0
  -21.6540   -6.9380   21.4640 O   0  0  0  0  0  0  0  0  0  0  0  0
  -21.5940   -6.2050   22.6220 C   0  0  0  0  0  0  0  0  0  0  0  0
  -21.1410   -6.7660   23.8370 C   0  0  0  0  0  3  0  0  0  0  0  0
  -21.0230   -5.9590   24.9850 C   0  0  0  0  0  3  0  0  0  0  0  0
  -21.3550   -4.5930   24.9220 C   0  0  0  0  0  0  0  0  0  0  0  0
  -21.8040   -4.0310   23.7130 C   0  0  0  0  0  3  0  0  0  0  0  0
  -21.9170   -4.8350   22.5650 C   0  0  0  0  0  0  0  0  0  0  0  0
  -22.3290   -4.2840   21.3980 F   0  0  0  0  0  0  0  0  0  0  0  0
  -21.2370   -3.8140   26.0240 F   0  0  0  0  0  0  0  0  0  0  0  0
  -22.7450  -13.5740   21.1040 C   0  0  0  0  0  0  0  0  0  0  0  0
  -22.0170  -12.8800   21.9690 N   0  0  0  0  0  0  0  0  0  0  0  0
  -22.3100  -14.6000   20.5830 O   0  0  0  0  0  0  0  0  0  0  0  0
  -22.3830  -12.0470   22.4050 H   0  0  0  0  0  0  0  0  0  0  0  0
  -21.0820  -13.1850   22.1960 H   0  0  0  0  0  0  0  0  0  0  0  0
  -25.3700  -15.2380   20.2920 N   0  0  0  0  0  0  0  0  0  0  0  0
  -24.5920  -15.8830   20.3880 H   0  0  0  0  0  0  0  0  0  0  0  0
  -26.1990  -15.6740   19.9100 H   0  0  0  0  0  0  0  0  0  0  0  0
  -28.5020  -25.7240   21.2690 C   0  0  0  0  0  3  0  0  0  0  0  0
  -28.6110  -24.3610   21.4360 C   0  0  0  0  0  0  0  0  0  0  0  0
  -28.7680  -23.9570   22.7070 O   0  0  0  0  0  0  0  0  0  0  0  0
  -28.4370  -23.0720   22.7680 H   0  0  0  0  0  0  0  0  0  0  0  0
  -28.3320  -26.5120   20.1390 O   0  0  0  0  0  0  0  0  0  0  0  0
  -24.6060  -31.8810   23.2080 C   0  0  0  0  0  0  0  0  0  0  0  0
  -27.2440  -27.3760   20.1440 C   0  0  0  0  0  0  0  0  0  0  0  0
  -23.4130  -30.4830   21.5590 C   0  0  0  0  0  3  0  0  0  0  0  0
  -24.8750  -28.9490   20.1290 C   0  0  0  0  0  0  0  0  0  0  0  0
  -25.9480  -30.8190   21.3890 C   0  0  0  0  0  2  0  0  0  0  0  0
  -26.0350  -29.4440   20.7410 C   0  0  0  0  0  0  0  0  0  0  0  0
  -27.2240  -28.6640   20.7530 C   0  0  0  0  0  3  0  0  0  0  0  0
  -26.0730  -26.9220   19.5070 C   0  0  0  0  0  3  0  0  0  0  0  0
  -24.8950  -27.6910   19.5030 C   0  0  0  0  0  3  0  0  0  0  0  0
  -23.6330  -29.8140   20.1760 C   0  0  0  0  0  2  0  0  0  0  0  0
  -24.6730  -31.0800   22.1080 N   0  0  0  0  0  0  0  0  0  0  0  0
  -23.5200  -32.1510   23.7410 O   0  0  0  0  0  0  0  0  0  0  0  0
  -22.7550  -29.4580   22.5120 C   0  0  0  0  0  0  0  0  0  0  0  0
  -21.4290  -29.2770   22.3830 N   0  0  0  0  0  0  0  0  0  0  0  0
  -23.4350  -28.8290   23.3270 O   0  0  0  0  0  0  0  0  0  0  0  0
  -20.9410  -29.8380   21.6990 H   0  0  0  0  0  0  0  0  0  0  0  0
  -18.0480  -28.0950   22.8930 C   0  0  0  0  0  0  0  0  0  0  0  0
  -20.6100  -28.3370   23.1510 C   0  0  0  0  0  3  0  0  0  0  0  0
  -20.6980  -26.9110   22.5600 C   0  0  0  0  0  2  0  0  0  0  0  0
  -19.5880  -26.6050   21.5500 C   0  0  0  0  0  2  0  0  0  0  0  0
  -18.2110  -26.7520   22.2030 C   0  0  0  0  0  2  0  0  0  0  0  0
  -19.1730  -28.8470   23.3240 C   0  0  0  0  0  0  0  0  0  0  0  0
  -18.9660  -30.1050   23.9290 C   0  0  0  0  0  3  0  0  0  0  0  0
  -17.6650  -30.6110   24.1070 C   0  0  0  0  0  3  0  0  0  0  0  0
  -16.5540  -29.8560   23.6920 C   0  0  0  0  0  3  0  0  0  0  0  0
  -16.7460  -28.6000   23.0910 C   0  0  0  0  0  3  0  0  0  0  0  0
  -25.8840  -32.5150   23.8370 C   0  0  0  0  0  3  0  0  0  0  0  0
  -26.3980  -31.7410   25.1120 C   0  0  1  0  0  0  0  0  0  0  0  0
  -25.3010  -31.4930   26.1760 C   0  0  0  0  0  1  0  0  0  0  0  0
  -26.9910  -30.3680   24.7160 C   0  0  0  0  0  1  0  0  0  0  0  0
  -27.5440  -32.5390   25.7800 C   0  0  0  0  0  1  0  0  0  0  0  0
  -25.5670  -33.9100   24.1730 N   0  0  0  0  0  0  0  0  0  0  0  0
  -25.8930  -34.9670   23.4160 C   0  0  0  0  0  0  0  0  0  0  0  0
  -26.5630  -34.8710   22.3840 O   0  0  0  0  0  0  0  0  0  0  0  0
  -24.9730  -34.0570   24.9750 H   0  0  0  0  0  0  0  0  0  0  0  0
  -24.1580  -36.7560   23.0640 C   0  0  0  0  0  1  0  0  0  0  0  0
  -25.3990  -36.3530   23.8790 C   0  0  0  0  0  3  0  0  0  0  0  0
  -27.5260  -37.2420   24.7230 C   0  0  0  0  0  1  0  0  0  0  0  0
  -26.4290  -37.4090   23.7730 N   0  0  0  0  0  0  0  0  0  0  0  0
  -26.0180  -38.3280   23.9180 H   0  0  0  0  0  0  0  0  0  0  0  0
  1  2  1  0
  1 52  1  0
  2  4  1  0
  3  1  2  0
  5  6  2  0
  5  7  1  0
  6  9  1  0
  7 10  2  0
  9 19  1  0
  9  8  2  0
 10  8  1  0
 10  2  1  0
 11 20  1  0
 12 17  1  0
 13 14  1  0
 13 12  1  0
 15 14  1  0
 15 26  1  0
 15 16  1  0
 17 11  1  0
 17 16  1  0
 18 11  2  0
 19 21  2  0
 20 19  1  0
 22 20  1  0
 23 24  2  0
 24 43  1  0
 25 24  1  0
 25 28  1  0
 26 23  1  0
 26 27  1  0
 27 25  2  0
 28 29  1  0
 29 30  2  0
 31 34  1  0
 31 30  1  0
 32 31  2  0
 33 32  1  0
 33 28  2  0
 34 35  1  0
 35 36  1  0
 36 37  2  0
 38 37  1  0
 38 42  1  0
 39 38  2  0
 40 35  2  0
 40 39  1  0
 41 40  1  0
 43 44  1  0
 44 47  1  0
 44 46  1  0
 45 43  2  0
 48 49  1  0
 48 23  1  0
 50 48  1  0
 51 52  2  0
 52 53  1  0
 53 54  1  0
 55 57  1  0
 55 51  1  0
 56 67  2  0
 57 62  1  0
 58 66  1  0
 58 68  1  0
 59 65  1  0
 59 61  1  0
 60 66  1  0
 61 62  2  0
 61 60  1  0
 63 57  2  0
 64 63  1  0
 64 59  2  0
 65 58  1  0
 66 56  1  0
 68 70  2  0
 69 68  1  0
 71 69  1  0
 72 81  2  0
 72 77  1  0
 73 69  1  0
 73 77  1  0
 74 73  1  0
 75 76  1  0
 75 74  1  0
 76 72  1  0
 77 78  2  0
 78 79  1  0
 80 79  2  0
 81 80  1  0
 82 56  1  0
 82 87  1  0
 82 83  1  0
 83 86  1  1
 83 84  1  0
 85 83  1  0
 87 90  1  0
 88 92  1  0
 88 87  1  0
 89 88  2  0
 92 91  1  0
 94 92  1  0
 94 95  1  0
 94 93  1  0
M  ISO  4  11 100  20 100  51 101  55 101
M  END
>  <TORSDO>  (11) 
F 19

>  <SCORE>  (11) 
-15.006

>  <name>  (11) 
10

>  <ligand_id>  (11) 
10

>  <original_smiles>  (11) 
[H]OC(C(=O)N([H])c1c([H])c([H])c([H])c(C(=O)N([H])C(=O)N2C([H])([H])C([H])([H])C([H])([H])C([H])(n3nc(-c4c([H])c([H])c(Oc5c([H])c([H])c(F)c([H])c5F)c([H])c4[H])c(C(=O)N([H])[H])c3N([H])[H])C2([H])[H])c1[H])=C([H])Oc1c([H])c([H])c2c(c1[H])C([H])([H])N(C(=O)C([H])(N([H])C(=O)C([H])(N([H])C([H])([H])[H])C([H])([H])[H])C(C([H])([H])[H])(C([H])([H])[H])C([H])([H])[H])C([H])(C(=O)N([H])C1([H])c3c([H])c([H])c([H])c([H])c3C([H])([H])C([H])([H])C1([H])[H])C2([H])[H]

>  <smiles>  (11) 
[H]OC(C(=O)N([H])c1c([H])c([H])c([H])c(C(=O)N([H])C(=O)N2C([H])([H])C([H])([H])C([H])([H])C([H])(n3nc(-c4c([H])c([H])c(Oc5c([H])c([H])c(F)c([H])c5F)c([H])c4[H])c(C(=O)N([H])[H])c3N([H])[H])C2([H])[H])c1[H])=C([H])Oc1c([H])c([H])c2c(c1[H])C([H])([H])N(C(=O)C([H])(N([H])C(=O)C([H])(N([H])C([H])([H])[H])C([H])([H])[H])C(C([H])([H])[H])(C([H])([H])[H])C([H])([H])[H])C([H])(C(=O)N([H])C1([H])c3c([H])c([H])c([H])c([H])c3C([H])([H])C([H])([H])C1([H])[H])C2([H])[H]

$$$$
11:0:0
     RDKit          3D

 93102  0  0  1  0  0  0  0  0999 V2000
  -27.9980  -23.2730   21.0590 C   0  0  0  0  0  3  0  0  0  0  0  0
  -28.6750  -23.8200   20.0410 C   0  0  0  0  0  0  0  0  0  0  0  0
  -28.3500  -21.8590   21.2140 C   0  0  0  0  0  0  0  0  0  0  0  0
  -29.4790  -22.6840   19.5130 C   0  0  0  0  0  0  0  0  0  0  0  0
  -29.2480  -21.5350   20.2540 N   0  0  0  0  0  0  0  0  0  0  0  0
  -27.9060  -21.0810   22.0650 O   0  0  0  0  0  0  0  0  0  0  0  0
  -30.2270  -22.7350   18.5300 O   0  0  0  0  0  0  0  0  0  0  0  0
  -32.3220  -19.3120   20.1680 C   0  0  0  0  0  3  0  0  0  0  0  0
  -31.4430  -20.4060   20.1480 C   0  0  0  0  0  3  0  0  0  0  0  0
  -31.8540  -17.9900   20.2420 C   0  0  0  0  0  3  0  0  0  0  0  0
  -29.5800  -18.8460   20.2910 C   0  0  0  0  0  3  0  0  0  0  0  0
  -30.0400  -20.2460   20.2140 C   0  0  0  0  0  0  0  0  0  0  0  0
  -30.4740  -17.6730   20.2850 C   0  0  0  0  0  0  0  0  0  0  0  0
  -30.7840  -15.0350   20.1030 C   0  0  0  0  0  0  0  0  0  0  0  0
  -30.5330  -12.7510   19.1010 C   0  0  0  0  0  2  0  0  0  0  0  0
  -29.5550  -12.8070   17.9080 C   0  0  0  0  0  2  0  0  0  0  0  0
  -28.1070  -12.6140   18.3940 C   0  0  0  0  0  2  0  0  0  0  0  0
  -27.7690  -13.4970   19.6260 C   0  0  0  0  0  3  0  0  0  0  0  0
  -28.8710  -13.4460   20.7050 C   0  0  0  0  0  2  0  0  0  0  0  0
  -30.1320  -13.8170   20.0550 N   0  0  0  0  0  0  0  0  0  0  0  0
  -31.9610  -15.0600   19.7380 O   0  0  0  0  0  0  0  0  0  0  0  0
  -30.0660  -16.2190   20.3440 N   0  0  0  0  0  0  0  0  0  0  0  0
  -29.0900  -16.0600   20.5460 H   0  0  0  0  0  0  0  0  0  0  0  0
  -25.4180  -14.0540   20.4810 C   0  0  0  0  0  0  0  0  0  0  0  0
  -24.3710  -13.2650   20.8720 C   0  0  0  0  0  0  0  0  0  0  0  0
  -24.8340  -11.9170   20.7790 C   0  0  0  0  0  0  0  0  0  0  0  0
  -26.4510  -13.1850   20.1700 N   0  0  0  0  0  0  0  0  0  0  0  0
  -26.1110  -11.8920   20.4140 N   0  0  0  0  0  0  0  0  0  0  0  0
  -24.1170  -10.6470   20.9590 C   0  0  0  0  0  0  0  0  0  0  0  0
  -24.5490   -9.6800   21.8940 C   0  0  0  0  0  3  0  0  0  0  0  0
  -23.8310   -8.4770   22.0640 C   0  0  0  0  0  3  0  0  0  0  0  0
  -22.6660   -8.2320   21.2970 C   0  0  0  0  0  0  0  0  0  0  0  0
  -22.2540   -9.1880   20.3520 C   0  0  0  0  0  3  0  0  0  0  0  0
  -22.9730  -10.3820   20.1810 C   0  0  0  0  0  3  0  0  0  0  0  0
  -21.9190   -7.0810   21.3760 O   0  0  0  0  0  0  0  0  0  0  0  0
  -21.8130   -6.3700   22.5440 C   0  0  0  0  0  0  0  0  0  0  0  0
  -21.2670   -6.9390   23.7160 C   0  0  0  0  0  3  0  0  0  0  0  0
  -21.1130   -6.1510   24.8740 C   0  0  0  0  0  3  0  0  0  0  0  0
  -21.4940   -4.7970   24.8620 C   0  0  0  0  0  0  0  0  0  0  0  0
  -22.0340   -4.2280   23.6950 C   0  0  0  0  0  3  0  0  0  0  0  0
  -22.1890   -5.0120   22.5390 C   0  0  0  0  0  0  0  0  0  0  0  0
  -22.6900   -4.4530   21.4110 F   0  0  0  0  0  0  0  0  0  0  0  0
  -21.3390   -4.0380   25.9730 F   0  0  0  0  0  0  0  0  0  0  0  0
  -22.9860  -13.7310   21.2170 C   0  0  0  0  0  0  0  0  0  0  0  0
  -22.2960  -13.0060   22.0910 N   0  0  0  0  0  0  0  0  0  0  0  0
  -22.5280  -14.7700   20.7470 O   0  0  0  0  0  0  0  0  0  0  0  0
  -22.6820  -12.1650   22.4920 H   0  0  0  0  0  0  0  0  0  0  0  0
  -21.3690  -13.2990   22.3630 H   0  0  0  0  0  0  0  0  0  0  0  0
  -25.5710  -15.4290   20.3380 N   0  0  0  0  0  0  0  0  0  0  0  0
  -24.8040  -16.0740   20.4960 H   0  0  0  0  0  0  0  0  0  0  0  0
  -26.3920  -15.8800   19.9550 H   0  0  0  0  0  0  0  0  0  0  0  0
  -28.5500  -25.2810   19.3780 C   0  0  0  0  0  2  0  0  0  0  0  0
  -28.4080  -26.5740   20.1490 O   0  0  0  0  0  0  0  0  0  0  0  0
  -24.6300  -31.9660   23.2260 C   0  0  0  0  0  0  0  0  0  0  0  0
  -27.2870  -27.4440   20.0700 C   0  0  0  0  0  0  0  0  0  0  0  0
  -23.4390  -30.5740   21.5730 C   0  0  0  0  0  3  0  0  0  0  0  0
  -24.9030  -29.0680   20.1040 C   0  0  0  0  0  0  0  0  0  0  0  0
  -25.9760  -30.9210   21.3800 C   0  0  0  0  0  2  0  0  0  0  0  0
  -26.0720  -29.5500   20.7050 C   0  0  0  0  0  0  0  0  0  0  0  0
  -27.2610  -28.7490   20.6790 C   0  0  0  0  0  3  0  0  0  0  0  0
  -26.0860  -27.0300   19.4510 C   0  0  0  0  0  3  0  0  0  0  0  0
  -24.9170  -27.8170   19.4680 C   0  0  0  0  0  3  0  0  0  0  0  0
  -23.6540  -29.9260   20.1790 C   0  0  0  0  0  2  0  0  0  0  0  0
  -24.7020  -31.1730   22.1160 N   0  0  0  0  0  0  0  0  0  0  0  0
  -23.5450  -32.2170   23.7720 O   0  0  0  0  0  0  0  0  0  0  0  0
  -22.7980  -29.5320   22.5220 C   0  0  0  0  0  0  0  0  0  0  0  0
  -21.4740  -29.3330   22.4030 N   0  0  0  0  0  0  0  0  0  0  0  0
  -23.4930  -28.9070   23.3280 O   0  0  0  0  0  0  0  0  0  0  0  0
  -20.9710  -29.8920   21.7290 H   0  0  0  0  0  0  0  0  0  0  0  0
  -18.1220  -28.0670   22.9140 C   0  0  0  0  0  0  0  0  0  0  0  0
  -20.6780  -28.3690   23.1650 C   0  0  0  0  0  3  0  0  0  0  0  0
  -20.8000  -26.9500   22.5650 C   0  0  0  0  0  2  0  0  0  0  0  0
  -19.6950  -26.6240   21.5550 C   0  0  0  0  0  2  0  0  0  0  0  0
  -18.3160  -26.7330   22.2130 C   0  0  0  0  0  2  0  0  0  0  0  0
  -19.2310  -28.8420   23.3480 C   0  0  0  0  0  0  0  0  0  0  0  0
  -18.9940  -30.0900   23.9640 C   0  0  0  0  0  3  0  0  0  0  0  0
  -17.6820  -30.5640   24.1510 C   0  0  0  0  0  3  0  0  0  0  0  0
  -16.5880  -29.7860   23.7340 C   0  0  0  0  0  3  0  0  0  0  0  0
  -16.8090  -28.5390   23.1210 C   0  0  0  0  0  3  0  0  0  0  0  0
  -25.9040  -32.6120   23.8500 C   0  0  0  0  0  3  0  0  0  0  0  0
  -25.5820  -34.0100   24.1750 N   0  0  0  0  0  0  0  0  0  0  0  0
  -25.9090  -35.0660   23.4180 C   0  0  0  0  0  0  0  0  0  0  0  0
  -26.5850  -34.9660   22.3910 O   0  0  0  0  0  0  0  0  0  0  0  0
  -24.9810  -34.1600   24.9720 H   0  0  0  0  0  0  0  0  0  0  0  0
  -24.1800  -36.8550   23.0450 C   0  0  0  0  0  1  0  0  0  0  0  0
  -25.4110  -36.4520   23.8730 C   0  0  0  0  0  3  0  0  0  0  0  0
  -27.5250  -37.3480   24.7450 C   0  0  0  0  0  1  0  0  0  0  0  0
  -26.4420  -37.5090   23.7780 N   0  0  0  0  0  0  0  0  0  0  0  0
  -26.0290  -38.4270   23.9140 H   0  0  0  0  0  0  0  0  0  0  0  0
  -26.4220  -31.8530   25.1320 C   0  0  1  0  0  0  0  0  0  0  0  0
  -25.3250  -31.6030   26.1940 C   0  0  0  0  0  1  0  0  0  0  0  0
  -27.0280  -30.4830   24.7520 C   0  0  0  0  0  1  0  0  0  0  0  0
  -27.5560  -32.6660   25.8010 C   0  0  0  0  0  1  0  0  0  0  0  0
  1  3  1  0
  2  1  2  0
  3  6  2  0
  4  2  1  0
  4  5  1  0
  5  3  1  0
  7  4  2  0
  8 10  1  0
  9  8  2  0
  9 12  1  0
 10 13  2  0
 12  5  1  0
 12 11  2  0
 13 11  1  0
 13 22  1  0
 14 22  1  0
 15 20  1  0
 16 17  1  0
 16 15  1  0
 18 17  1  0
 18 27  1  0
 18 19  1  0
 20 14  1  0
 20 19  1  0
 21 14  2  0
 22 23  1  0
 24 25  2  0
 25 44  1  0
 26 25  1  0
 26 29  1  0
 27 28  1  0
 27 24  1  0
 28 26  2  0
 29 30  1  0
 30 31  2  0
 32 35  1  0
 32 31  1  0
 33 32  2  0
 34 33  1  0
 34 29  2  0
 35 36  1  0
 36 37  1  0
 37 38  2  0
 39 38  1  0
 39 43  1  0
 40 39  2  0
 41 36  2  0
 41 40  1  0
 42 41  1  0
 44 45  1  0
 45 48  1  0
 45 47  1  0
 46 44  2  0
 49 24  1  0
 49 50  1  0
 51 49  1  0
 52  2  1  0
 52 53  1  0
 54 65  2  0
 55 53  1  0
 55 60  1  0
 56 64  1  0
 56 66  1  0
 57 63  1  0
 57 59  1  0
 58 64  1  0
 59 58  1  0
 60 59  2  0
 61 62  1  0
 61 55  2  0
 62 57  2  0
 63 56  1  0
 64 54  1  0
 66 68  2  0
 67 66  1  0
 69 67  1  0
 70 79  2  0
 70 75  1  0
 71 67  1  0
 71 75  1  0
 72 71  1  0
 73 74  1  0
 73 72  1  0
 74 70  1  0
 75 76  2  0
 76 77  1  0
 78 77  2  0
 79 78  1  0
 80 54  1  0
 80 81  1  0
 80 90  1  0
 81 84  1  0
 82 86  1  0
 82 81  1  0
 83 82  2  0
 86 85  1  0
 88 86  1  0
 88 89  1  0
 88 87  1  0
 90 93  1  1
 90 91  1  0
 92 90  1  0
M  ISO  4  14 100  22 100  52 101  53 101
M  END
>  <TORSDO>  (12) 
F 18

>  <SCORE>  (12) 
-14.060

>  <name>  (12) 
11

>  <ligand_id>  (12) 
11

>  <original_smiles>  (12) 
[H]C1=C(C([H])([H])Oc2c([H])c([H])c3c(c2[H])C([H])([H])N(C(=O)C([H])(N([H])C(=O)C([H])(N([H])C([H])([H])[H])C([H])([H])[H])C(C([H])([H])[H])(C([H])([H])[H])C([H])([H])[H])C([H])(C(=O)N([H])C2([H])c4c([H])c([H])c([H])c([H])c4C([H])([H])C([H])([H])C2([H])[H])C3([H])[H])C(=O)N(c2c([H])c([H])c([H])c(N([H])C(=O)N3C([H])([H])C([H])([H])C([H])([H])C([H])(n4nc(-c5c([H])c([H])c(Oc6c([H])c([H])c(F)c([H])c6F)c([H])c5[H])c(C(=O)N([H])[H])c4N([H])[H])C3([H])[H])c2[H])C1=O

>  <smiles>  (12) 
[H]C1=C(C([H])([H])Oc2c([H])c([H])c3c(c2[H])C([H])([H])N(C(=O)C([H])(N([H])C(=O)C([H])(N([H])C([H])([H])[H])C([H])([H])[H])C(C([H])([H])[H])(C([H])([H])[H])C([H])([H])[H])C([H])(C(=O)N([H])C2([H])c4c([H])c([H])c([H])c([H])c4C([H])([H])C([H])([H])C2([H])[H])C3([H])[H])C(=O)N(c2c([H])c([H])c([H])c(N([H])C(=O)N3C([H])([H])C([H])([H])C([H])([H])C([H])(n4nc(-c5c([H])c([H])c(Oc6c([H])c([H])c(F)c([H])c6F)c([H])c5[H])c(C(=O)N([H])[H])c4N([H])[H])C3([H])[H])c2[H])C1=O

$$$$
12:0:0
     RDKit          3D

 97105  0  0  1  0  0  0  0  0999 V2000
  -29.1420  -22.7420   20.2860 C   0  0  0  0  0  0  0  0  0  0  0  0
  -30.1470  -22.0130   19.7280 N   0  0  0  0  0  0  0  0  0  0  0  0
  -28.2500  -22.2240   20.9600 O   0  0  0  0  0  0  0  0  0  0  0  0
  -30.7560  -22.6360   19.2110 H   0  0  0  0  0  0  0  0  0  0  0  0
  -32.6020  -19.2130   19.4350 C   0  0  0  0  0  3  0  0  0  0  0  0
  -31.9440  -18.0830   19.9550 C   0  0  0  0  0  3  0  0  0  0  0  0
  -31.9590  -20.4630   19.3740 C   0  0  0  0  0  3  0  0  0  0  0  0
  -29.9600  -19.4680   20.3220 C   0  0  0  0  0  3  0  0  0  0  0  0
  -30.6080  -18.1710   20.3960 C   0  0  0  0  0  0  0  0  0  0  0  0
  -30.6350  -20.6400   19.8350 C   0  0  0  0  0  0  0  0  0  0  0  0
  -30.7780  -14.6450   20.1010 C   0  0  0  0  0  0  0  0  0  0  0  0
  -30.5340  -12.4660   18.9090 C   0  0  0  0  0  2  0  0  0  0  0  0
  -29.5020  -12.6380   17.7710 C   0  0  0  0  0  2  0  0  0  0  0  0
  -28.0590  -12.4550   18.2860 C   0  0  0  0  0  2  0  0  0  0  0  0
  -27.7870  -13.2590   19.5850 C   0  0  0  0  0  3  0  0  0  0  0  0
  -28.9140  -13.0220   20.6160 C   0  0  0  0  0  2  0  0  0  0  0  0
  -30.1880  -13.4120   19.9860 N   0  0  0  0  0  0  0  0  0  0  0  0
  -31.8430  -14.9240   19.5370 O   0  0  0  0  0  0  0  0  0  0  0  0
  -29.9460  -16.9870   21.0600 C   0  0  0  0  0  0  0  0  0  0  0  0
  -29.9990  -15.6210   20.8660 N   0  0  0  0  0  0  0  0  0  0  0  0
  -29.1260  -17.3510   22.0560 N   0  0  0  0  0  4  0  0  0  0  0  0
  -29.2240  -15.2140   21.3480 H   0  0  0  0  0  0  0  0  0  0  0  0
  -29.0890  -18.3320   22.2850 H   0  0  0  0  0  0  0  0  0  0  0  0
  -28.6640  -16.7160   22.6870 H   0  0  0  0  0  0  0  0  0  0  0  0
  -25.4450  -13.8410   20.4810 C   0  0  0  0  0  0  0  0  0  0  0  0
  -24.4010  -13.0570   20.8900 C   0  0  0  0  0  0  0  0  0  0  0  0
  -24.8500  -11.7070   20.7700 C   0  0  0  0  0  0  0  0  0  0  0  0
  -26.4670  -12.9660   20.1410 N   0  0  0  0  0  0  0  0  0  0  0  0
  -26.1170  -11.6760   20.3730 N   0  0  0  0  0  0  0  0  0  0  0  0
  -24.1300  -10.4410   20.9560 C   0  0  0  0  0  0  0  0  0  0  0  0
  -24.5640   -9.4770   21.8920 C   0  0  0  0  0  3  0  0  0  0  0  0
  -23.8450   -8.2740   22.0640 C   0  0  0  0  0  3  0  0  0  0  0  0
  -22.6790   -8.0280   21.3010 C   0  0  0  0  0  0  0  0  0  0  0  0
  -22.2640   -8.9820   20.3550 C   0  0  0  0  0  3  0  0  0  0  0  0
  -22.9830  -10.1760   20.1800 C   0  0  0  0  0  3  0  0  0  0  0  0
  -21.9310   -6.8780   21.3840 O   0  0  0  0  0  0  0  0  0  0  0  0
  -21.8060   -6.1850   22.5610 C   0  0  0  0  0  0  0  0  0  0  0  0
  -21.2710   -6.7810   23.7240 C   0  0  0  0  0  3  0  0  0  0  0  0
  -21.0950   -6.0120   24.8920 C   0  0  0  0  0  3  0  0  0  0  0  0
  -21.4430   -4.6470   24.8970 C   0  0  0  0  0  0  0  0  0  0  0  0
  -21.9690   -4.0500   23.7380 C   0  0  0  0  0  3  0  0  0  0  0  0
  -22.1470   -4.8170   22.5720 C   0  0  0  0  0  0  0  0  0  0  0  0
  -22.6360   -4.2320   21.4520 F   0  0  0  0  0  0  0  0  0  0  0  0
  -21.2650   -3.9070   26.0160 F   0  0  0  0  0  0  0  0  0  0  0  0
  -23.0280  -13.5280   21.2760 C   0  0  0  0  0  0  0  0  0  0  0  0
  -22.3580  -12.8020   22.1640 N   0  0  0  0  0  0  0  0  0  0  0  0
  -22.5590  -14.5730   20.8260 O   0  0  0  0  0  0  0  0  0  0  0  0
  -22.7490  -11.9560   22.5530 H   0  0  0  0  0  0  0  0  0  0  0  0
  -21.4390  -13.0980   22.4610 H   0  0  0  0  0  0  0  0  0  0  0  0
  -25.6070  -15.2180   20.3500 N   0  0  0  0  0  0  0  0  0  0  0  0
  -24.8360  -15.8560   20.5180 H   0  0  0  0  0  0  0  0  0  0  0  0
  -26.4000  -15.6670   19.9120 H   0  0  0  0  0  0  0  0  0  0  0  0
  -28.3580  -25.1480   20.4060 C   0  0  0  0  0  3  0  0  0  0  0  0
  -29.2580  -24.2060   19.9820 C   0  0  0  0  0  0  0  0  0  0  0  0
  -30.3070  -24.6260   19.2570 O   0  0  0  0  0  0  0  0  0  0  0  0
  -30.2150  -25.5670   19.1670 H   0  0  0  0  0  0  0  0  0  0  0  0
  -28.4700  -26.5320   20.1690 O   0  0  0  0  0  0  0  0  0  0  0  0
  -24.5710  -31.8260   23.1520 C   0  0  0  0  0  0  0  0  0  0  0  0
  -27.3220  -27.3280   20.1560 C   0  0  0  0  0  0  0  0  0  0  0  0
  -23.4190  -30.4010   21.4950 C   0  0  0  0  0  3  0  0  0  0  0  0
  -24.9220  -28.8690   20.1030 C   0  0  0  0  0  0  0  0  0  0  0  0
  -25.9530  -30.7700   21.3540 C   0  0  0  0  0  2  0  0  0  0  0  0
  -26.0690  -29.3910   20.7180 C   0  0  0  0  0  0  0  0  0  0  0  0
  -27.2720  -28.6290   20.7370 C   0  0  0  0  0  3  0  0  0  0  0  0
  -26.1560  -26.8490   19.5210 C   0  0  0  0  0  3  0  0  0  0  0  0
  -24.9650  -27.6030   19.4990 C   0  0  0  0  0  3  0  0  0  0  0  0
  -23.6680  -29.7210   20.1220 C   0  0  0  0  0  2  0  0  0  0  0  0
  -24.6650  -31.0160   22.0570 N   0  0  0  0  0  0  0  0  0  0  0  0
  -23.4750  -32.0870   23.6680 O   0  0  0  0  0  0  0  0  0  0  0  0
  -22.7580  -29.3780   22.4470 C   0  0  0  0  0  0  0  0  0  0  0  0
  -21.4320  -29.2050   22.3210 N   0  0  0  0  0  0  0  0  0  0  0  0
  -23.4380  -28.7420   23.2580 O   0  0  0  0  0  0  0  0  0  0  0  0
  -20.9450  -29.7680   21.6390 H   0  0  0  0  0  0  0  0  0  0  0  0
  -18.0500  -28.0250   22.8240 C   0  0  0  0  0  0  0  0  0  0  0  0
  -20.6120  -28.2630   23.0850 C   0  0  0  0  0  3  0  0  0  0  0  0
  -20.7000  -26.8380   22.4910 C   0  0  0  0  0  2  0  0  0  0  0  0
  -19.5910  -26.5360   21.4780 C   0  0  0  0  0  2  0  0  0  0  0  0
  -18.2140  -26.6840   22.1310 C   0  0  0  0  0  2  0  0  0  0  0  0
  -19.1770  -28.7740   23.2580 C   0  0  0  0  0  0  0  0  0  0  0  0
  -18.9700  -30.0310   23.8670 C   0  0  0  0  0  3  0  0  0  0  0  0
  -17.6700  -30.5400   24.0450 C   0  0  0  0  0  3  0  0  0  0  0  0
  -16.5580  -29.7880   23.6280 C   0  0  0  0  0  3  0  0  0  0  0  0
  -16.7490  -28.5320   23.0240 C   0  0  0  0  0  3  0  0  0  0  0  0
  -25.8340  -32.4810   23.7940 C   0  0  0  0  0  3  0  0  0  0  0  0
  -26.3540  -31.7080   25.0680 C   0  0  1  0  0  0  0  0  0  0  0  0
  -25.2550  -31.4320   26.1200 C   0  0  0  0  0  1  0  0  0  0  0  0
  -26.9750  -30.3490   24.6680 C   0  0  0  0  0  1  0  0  0  0  0  0
  -27.4780  -32.5220   25.7510 C   0  0  0  0  0  1  0  0  0  0  0  0
  -25.4900  -33.8680   24.1350 N   0  0  0  0  0  0  0  0  0  0  0  0
  -25.8180  -34.9380   23.3990 C   0  0  0  0  0  0  0  0  0  0  0  0
  -26.5120  -34.8620   22.3820 O   0  0  0  0  0  0  0  0  0  0  0  0
  -24.8740  -33.9990   24.9250 H   0  0  0  0  0  0  0  0  0  0  0  0
  -24.0750  -36.7110   23.0180 C   0  0  0  0  0  1  0  0  0  0  0  0
  -25.2930  -36.3090   23.8650 C   0  0  0  0  0  3  0  0  0  0  0  0
  -27.3830  -37.2100   24.7880 C   0  0  0  0  0  1  0  0  0  0  0  0
  -26.3120  -37.3800   23.8090 N   0  0  0  0  0  0  0  0  0  0  0  0
  -25.8860  -38.2910   23.9620 H   0  0  0  0  0  0  0  0  0  0  0  0
  1  3  2  0
  2 10  1  0
  2  1  1  0
  4  2  1  0
  5  6  1  0
  6  9  2  0
  7  5  2  0
  7 10  1  0
  8  9  1  0
  9 19  1  0
 10  8  2  0
 11 20  1  0
 12 17  1  0
 13 14  1  0
 13 12  1  0
 15 14  1  0
 15 28  1  0
 15 16  1  0
 17 11  1  0
 17 16  1  0
 18 11  2  0
 19 21  2  0
 20 19  1  0
 20 22  1  0
 21 23  1  0
 21 24  1  0
 25 26  2  0
 26 45  1  0
 27 26  1  0
 27 30  1  0
 28 29  1  0
 28 25  1  0
 29 27  2  0
 30 31  1  0
 31 32  2  0
 33 36  1  0
 33 32  1  0
 34 33  2  0
 35 34  1  0
 35 30  2  0
 36 37  1  0
 37 42  2  0
 37 38  1  0
 38 39  2  0
 39 40  1  0
 40 44  1  0
 41 40  2  0
 42 41  1  0
 43 42  1  0
 45 46  1  0
 46 49  1  0
 46 48  1  0
 47 45  2  0
 50 25  1  0
 50 51  1  0
 52 50  1  0
 54  1  1  0
 54 53  2  0
 55 54  1  0
 56 55  1  0
 57 53  1  0
 58 69  2  0
 59 57  1  0
 59 64  1  0
 60 68  1  0
 60 70  1  0
 61 67  1  0
 61 63  1  0
 62 68  1  0
 63 64  2  0
 63 62  1  0
 65 59  2  0
 66 65  1  0
 66 61  2  0
 67 60  1  0
 68 58  1  0
 70 72  2  0
 71 70  1  0
 73 71  1  0
 74 83  2  0
 74 79  1  0
 75 71  1  0
 75 79  1  0
 76 75  1  0
 77 78  1  0
 77 76  1  0
 78 74  1  0
 79 80  2  0
 80 81  1  0
 82 81  2  0
 83 82  1  0
 84 58  1  0
 84 89  1  0
 84 85  1  0
 85 88  1  1
 85 86  1  0
 87 85  1  0
 89 92  1  0
 90 94  1  0
 90 89  1  0
 91 90  2  0
 94 93  1  0
 96 94  1  0
 96 97  1  0
 96 95  1  0
M  ISO  4  11 100  20 100  53 101  57 101
M  END
>  <TORSDO>  (13) 
F 19

>  <SCORE>  (13) 
-13.612

>  <name>  (13) 
12

>  <ligand_id>  (13) 
12

>  <original_smiles>  (13) 
[H]OC(C(=O)N([H])c1c([H])c([H])c([H])c(C(N([H])C(=O)N2C([H])([H])C([H])([H])C([H])([H])C([H])(n3nc(-c4c([H])c([H])c(Oc5c([H])c([H])c(F)c([H])c5F)c([H])c4[H])c(C(=O)N([H])[H])c3N([H])[H])C2([H])[H])=[N+]([H])[H])c1[H])=C([H])Oc1c([H])c([H])c2c(c1[H])C([H])([H])N(C(=O)C([H])(N([H])C(=O)C([H])(N([H])C([H])([H])[H])C([H])([H])[H])C(C([H])([H])[H])(C([H])([H])[H])C([H])([H])[H])C([H])(C(=O)N([H])C1([H])c3c([H])c([H])c([H])c([H])c3C([H])([H])C([H])([H])C1([H])[H])C2([H])[H]

>  <smiles>  (13) 
[H]OC(C(=O)N([H])c1c([H])c([H])c([H])c(C(N([H])C(=O)N2C([H])([H])C([H])([H])C([H])([H])C([H])(n3nc(-c4c([H])c([H])c(Oc5c([H])c([H])c(F)c([H])c5F)c([H])c4[H])c(C(=O)N([H])[H])c3N([H])[H])C2([H])[H])=[N+]([H])[H])c1[H])=C([H])Oc1c([H])c([H])c2c(c1[H])C([H])([H])N(C(=O)C([H])(N([H])C(=O)C([H])(N([H])C([H])([H])[H])C([H])([H])[H])C(C([H])([H])[H])(C([H])([H])[H])C([H])([H])[H])C([H])(C(=O)N([H])C1([H])c3c([H])c([H])c([H])c([H])c3C([H])([H])C([H])([H])C1([H])[H])C2([H])[H]

$$$$
13:0:0
     RDKit          3D

 93102  0  0  1  0  0  0  0  0999 V2000
  -28.6920  -23.8310   19.9970 C   0  0  0  0  0  0  0  0  0  0  0  0
  -29.4180  -23.1860   21.0980 C   0  0  0  0  0  0  0  0  0  0  0  0
  -28.2860  -25.1030   19.5930 C   0  0  0  0  0  3  0  0  0  0  0  0
  -28.5020  -22.4390   19.3520 C   0  0  0  0  0  2  0  0  0  0  0  0
  -29.1520  -21.8930   20.5560 N   0  0  0  0  0  0  0  0  0  0  0  0
  -30.0280  -23.6480   22.0400 O   0  0  0  0  0  0  0  0  0  0  0  0
  -30.7750  -19.8440   20.7170 C   0  0  0  0  0  3  0  0  0  0  0  0
  -31.0330  -18.4240   20.6980 C   0  0  0  0  0  3  0  0  0  0  0  0
  -28.6920  -18.0330   20.7730 C   0  0  0  0  0  3  0  0  0  0  0  0
  -29.4730  -20.4420   20.6870 C   0  0  0  0  0  0  0  0  0  0  0  0
  -29.9900  -17.4490   20.6780 C   0  0  0  0  0  0  0  0  0  0  0  0
  -28.4500  -19.4460   20.7570 C   0  0  0  0  0  0  0  0  0  0  0  0
  -27.1600  -19.8620   20.7660 F   0  0  0  0  0  0  0  0  0  0  0  0
  -30.8440  -14.9470   20.8530 C   0  0  0  0  0  0  0  0  0  0  0  0
  -30.7800  -12.5780   20.0070 C   0  0  0  0  0  2  0  0  0  0  0  0
  -29.9360  -12.4500   18.7160 C   0  0  0  0  0  2  0  0  0  0  0  0
  -28.4310  -12.3350   19.0320 C   0  0  0  0  0  2  0  0  0  0  0  0
  -27.9380  -13.3130   20.1320 C   0  0  0  0  0  3  0  0  0  0  0  0
  -28.9110  -13.3660   21.3300 C   0  0  0  0  0  2  0  0  0  0  0  0
  -30.2360  -13.7030   20.7960 N   0  0  0  0  0  0  0  0  0  0  0  0
  -32.0760  -15.0010   20.8970 O   0  0  0  0  0  0  0  0  0  0  0  0
  -29.9750  -15.8880   18.9170 C   0  0  0  0  0  3  0  0  0  0  0  0
  -30.1620  -16.0220   20.2550 N   0  0  0  0  0  0  0  0  0  0  0  0
  -29.0640  -16.4210   18.2720 O   0  0  0  0  0  0  0  0  0  0  0  0
  -25.5050  -13.9170   20.6670 C   0  0  0  0  0  0  0  0  0  0  0  0
  -24.4110  -13.1470   20.9590 C   0  0  0  0  0  0  0  0  0  0  0  0
  -24.8770  -11.7970   20.9890 C   0  0  0  0  0  0  0  0  0  0  0  0
  -26.5650  -13.0350   20.5340 N   0  0  0  0  0  0  0  0  0  0  0  0
  -26.1900  -11.7570   20.7970 N   0  0  0  0  0  0  0  0  0  0  0  0
  -24.1410  -10.5350   21.1330 C   0  0  0  0  0  0  0  0  0  0  0  0
  -24.5070   -9.5730   22.0980 C   0  0  0  0  0  3  0  0  0  0  0  0
  -23.7710   -8.3750   22.2300 C   0  0  0  0  0  3  0  0  0  0  0  0
  -22.6560   -8.1330   21.3940 C   0  0  0  0  0  0  0  0  0  0  0  0
  -22.3100   -9.0840   20.4180 C   0  0  0  0  0  3  0  0  0  0  0  0
  -23.0470  -10.2720   20.2850 C   0  0  0  0  0  3  0  0  0  0  0  0
  -21.8970   -6.9880   21.4350 O   0  0  0  0  0  0  0  0  0  0  0  0
  -21.7700   -6.2500   22.5840 C   0  0  0  0  0  0  0  0  0  0  0  0
  -21.2530   -6.8080   23.7740 C   0  0  0  0  0  3  0  0  0  0  0  0
  -21.0740   -5.9950   24.9110 C   0  0  0  0  0  3  0  0  0  0  0  0
  -21.4010   -4.6270   24.8590 C   0  0  0  0  0  0  0  0  0  0  0  0
  -21.9110   -4.0690   23.6730 C   0  0  0  0  0  3  0  0  0  0  0  0
  -22.0910   -4.8790   22.5380 C   0  0  0  0  0  0  0  0  0  0  0  0
  -22.5630   -4.3320   21.3920 F   0  0  0  0  0  0  0  0  0  0  0  0
  -21.2220   -3.8440   25.9490 F   0  0  0  0  0  0  0  0  0  0  0  0
  -22.9960  -13.6250   21.0960 C   0  0  0  0  0  0  0  0  0  0  0  0
  -22.1990  -12.9480   21.9150 N   0  0  0  0  0  0  0  0  0  0  0  0
  -22.6000  -14.6330   20.5120 O   0  0  0  0  0  0  0  0  0  0  0  0
  -22.5300  -12.1320   22.4100 H   0  0  0  0  0  0  0  0  0  0  0  0
  -21.2450  -13.2500   22.0510 H   0  0  0  0  0  0  0  0  0  0  0  0
  -25.6800  -15.2830   20.4730 N   0  0  0  0  0  0  0  0  0  0  0  0
  -24.9000  -15.9320   20.4830 H   0  0  0  0  0  0  0  0  0  0  0  0
  -26.5380  -15.7000   20.1370 H   0  0  0  0  0  0  0  0  0  0  0  0
  -28.3750  -26.4230   20.1340 O   0  0  0  0  0  0  0  0  0  0  0  0
  -24.5560  -31.8680   23.0890 C   0  0  0  0  0  0  0  0  0  0  0  0
  -27.2690  -27.3120   20.0480 C   0  0  0  0  0  0  0  0  0  0  0  0
  -23.3940  -30.4560   21.4340 C   0  0  0  0  0  3  0  0  0  0  0  0
  -24.8860  -28.9360   20.0170 C   0  0  0  0  0  0  0  0  0  0  0  0
  -25.9380  -30.8020   21.2850 C   0  0  0  0  0  2  0  0  0  0  0  0
  -26.0460  -29.4250   20.6300 C   0  0  0  0  0  0  0  0  0  0  0  0
  -27.2380  -28.6260   20.6350 C   0  0  0  0  0  3  0  0  0  0  0  0
  -26.0660  -26.8910   19.4250 C   0  0  0  0  0  3  0  0  0  0  0  0
  -24.9010  -27.6770   19.4060 C   0  0  0  0  0  3  0  0  0  0  0  0
  -23.6370  -29.7950   20.0540 C   0  0  0  0  0  2  0  0  0  0  0  0
  -24.6480  -31.0600   21.9920 N   0  0  0  0  0  0  0  0  0  0  0  0
  -23.4600  -32.1260   23.6100 O   0  0  0  0  0  0  0  0  0  0  0  0
  -22.7350  -29.4250   22.3820 C   0  0  0  0  0  0  0  0  0  0  0  0
  -21.4030  -29.2680   22.2790 N   0  0  0  0  0  0  0  0  0  0  0  0
  -23.4210  -28.7710   23.1720 O   0  0  0  0  0  0  0  0  0  0  0  0
  -20.9080  -29.8470   21.6160 H   0  0  0  0  0  0  0  0  0  0  0  0
  -18.0150  -28.1370   22.8610 C   0  0  0  0  0  0  0  0  0  0  0  0
  -20.5880  -28.3230   23.0450 C   0  0  0  0  0  3  0  0  0  0  0  0
  -20.6310  -26.9110   22.4150 C   0  0  0  0  0  2  0  0  0  0  0  0
  -19.4860  -26.6540   21.4320 C   0  0  0  0  0  2  0  0  0  0  0  0
  -18.1320  -26.8090   22.1320 C   0  0  0  0  0  2  0  0  0  0  0  0
  -19.1680  -28.8550   23.2760 C   0  0  0  0  0  0  0  0  0  0  0  0
  -19.0040  -30.1000   23.9220 C   0  0  0  0  0  3  0  0  0  0  0  0
  -17.7190  -30.6260   24.1540 C   0  0  0  0  0  3  0  0  0  0  0  0
  -16.5810  -29.9050   23.7540 C   0  0  0  0  0  3  0  0  0  0  0  0
  -16.7300  -28.6620   23.1140 C   0  0  0  0  0  3  0  0  0  0  0  0
  -25.8190  -32.5210   23.7280 C   0  0  0  0  0  3  0  0  0  0  0  0
  -25.4710  -33.9030   24.0880 N   0  0  0  0  0  0  0  0  0  0  0  0
  -25.8110  -34.9850   23.3750 C   0  0  0  0  0  0  0  0  0  0  0  0
  -26.5200  -34.9250   22.3670 O   0  0  0  0  0  0  0  0  0  0  0  0
  -24.8450  -34.0220   24.8710 H   0  0  0  0  0  0  0  0  0  0  0  0
  -24.0810  -36.7730   22.9990 C   0  0  0  0  0  1  0  0  0  0  0  0
  -25.2840  -36.3510   23.8580 C   0  0  0  0  0  3  0  0  0  0  0  0
  -27.3620  -37.2240   24.8310 C   0  0  0  0  0  1  0  0  0  0  0  0
  -26.3080  -37.4170   23.8390 N   0  0  0  0  0  0  0  0  0  0  0  0
  -25.8830  -38.3270   24.0010 H   0  0  0  0  0  0  0  0  0  0  0  0
  -26.3520  -31.7370   24.9900 C   0  0  1  0  0  0  0  0  0  0  0  0
  -25.2630  -31.4520   26.0510 C   0  0  0  0  0  1  0  0  0  0  0  0
  -26.9690  -30.3810   24.5750 C   0  0  0  0  0  1  0  0  0  0  0  0
  -27.4820  -32.5460   25.6700 C   0  0  0  0  0  1  0  0  0  0  0  0
  1  2  1  0
  2  6  2  0
  3  1  2  0
  3 53  1  0
  4  1  1  0
  4  5  1  0
  5 10  1  0
  5  2  1  0
  8  7  1  0
 10  7  2  0
 10 12  1  0
 11  8  2  0
 11  9  1  0
 12 13  1  0
 12  9  2  0
 14 21  2  0
 15 20  1  0
 16 17  1  0
 16 15  1  0
 18 17  1  0
 18 28  1  0
 18 19  1  0
 20 14  1  0
 20 19  1  0
 22 23  1  0
 23 11  1  0
 23 14  1  0
 24 22  2  0
 25 26  2  0
 26 27  1  0
 26 45  1  0
 27 30  1  0
 28 25  1  0
 28 29  1  0
 29 27  2  0
 30 31  1  0
 31 32  2  0
 33 36  1  0
 33 32  1  0
 34 33  2  0
 35 34  1  0
 35 30  2  0
 36 37  1  0
 37 38  1  0
 38 39  2  0
 40 39  1  0
 40 44  1  0
 41 40  2  0
 42 37  2  0
 42 41  1  0
 43 42  1  0
 45 46  1  0
 46 49  1  0
 46 48  1  0
 47 45  2  0
 50 51  1  0
 50 25  1  0
 52 50  1  0
 54 65  2  0
 55 53  1  0
 55 60  1  0
 56 64  1  0
 56 66  1  0
 57 63  1  0
 57 59  1  0
 58 64  1  0
 59 60  2  0
 59 58  1  0
 61 55  2  0
 62 61  1  0
 62 57  2  0
 63 56  1  0
 64 54  1  0
 66 68  2  0
 67 66  1  0
 69 67  1  0
 70 79  2  0
 70 75  1  0
 71 67  1  0
 71 75  1  0
 72 71  1  0
 73 74  1  0
 73 72  1  0
 74 70  1  0
 75 76  2  0
 76 77  1  0
 78 77  2  0
 79 78  1  0
 80 54  1  0
 80 81  1  0
 80 90  1  0
 81 84  1  0
 82 86  1  0
 82 81  1  0
 83 82  2  0
 86 85  1  0
 88 86  1  0
 88 89  1  0
 88 87  1  0
 90 93  1  1
 90 91  1  0
 92 90  1  0
M  ISO  4   3 101  14 100  23 100  53 101
M  END
>  <TORSDO>  (14) 
F 17

>  <SCORE>  (14) 
-13.999

>  <name>  (14) 
13

>  <ligand_id>  (14) 
13

>  <original_smiles>  (14) 
[H]C(=O)N(C(=O)N1C([H])([H])C([H])([H])C([H])([H])C([H])(n2nc(-c3c([H])c([H])c(Oc4c([H])c([H])c(F)c([H])c4F)c([H])c3[H])c(C(=O)N([H])[H])c2N([H])[H])C1([H])[H])c1c([H])c([H])c(N2C(=O)C(=C([H])Oc3c([H])c([H])c4c(c3[H])C([H])([H])N(C(=O)C([H])(N([H])C(=O)C([H])(N([H])C([H])([H])[H])C([H])([H])[H])C(C([H])([H])[H])(C([H])([H])[H])C([H])([H])[H])C([H])(C(=O)N([H])C3([H])c5c([H])c([H])c([H])c([H])c5C([H])([H])C([H])([H])C3([H])[H])C4([H])[H])C2([H])[H])c(F)c1[H]

>  <smiles>  (14) 
[H]C(=O)N(C(=O)N1C([H])([H])C([H])([H])C([H])([H])C([H])(n2nc(-c3c([H])c([H])c(Oc4c([H])c([H])c(F)c([H])c4F)c([H])c3[H])c(C(=O)N([H])[H])c2N([H])[H])C1([H])[H])c1c([H])c([H])c(N2C(=O)C(=C([H])Oc3c([H])c([H])c4c(c3[H])C([H])([H])N(C(=O)C([H])(N([H])C(=O)C([H])(N([H])C([H])([H])[H])C([H])([H])[H])C(C([H])([H])[H])(C([H])([H])[H])C([H])([H])[H])C([H])(C(=O)N([H])C3([H])c5c([H])c([H])c([H])c([H])c5C([H])([H])C([H])([H])C3([H])[H])C4([H])[H])C2([H])[H])c(F)c1[H]

$$$$
14:0:0
     RDKit          3D

 92101  0  0  1  0  0  0  0  0999 V2000
  -28.7870  -23.6600   20.1430 C   0  0  0  0  0  0  0  0  0  0  0  0
  -30.1090  -23.4770   19.5640 C   0  0  0  0  0  0  0  0  0  0  0  0
  -28.3460  -22.2490   20.4560 C   0  0  0  0  0  0  0  0  0  0  0  0
  -28.0660  -24.8600   20.3670 C   0  0  0  0  0  3  0  0  0  0  0  0
  -30.4530  -21.9670   19.5210 C   0  0  0  0  0  2  0  0  0  0  0  0
  -29.2930  -21.2690   20.1090 N   0  0  0  0  0  0  0  0  0  0  0  0
  -30.8730  -24.3570   19.1570 O   0  0  0  0  0  0  0  0  0  0  0  0
  -27.2540  -21.9750   20.9660 O   0  0  0  0  0  0  0  0  0  0  0  0
  -30.1000  -18.7630   19.9570 C   0  0  0  0  0  3  0  0  0  0  0  0
  -28.2930  -17.9100   20.9190 C   0  0  0  0  0  3  0  0  0  0  0  0
  -29.4770  -17.4810   20.3730 C   0  0  0  0  0  0  0  0  0  0  0  0
  -29.2240  -19.8430   20.2820 C   0  0  0  0  0  0  0  0  0  0  0  0
  -28.1310  -19.2780   20.8750 O   0  0  0  0  0  0  0  0  0  0  0  0
  -30.6080  -14.9580   19.9360 C   0  0  0  0  0  0  0  0  0  0  0  0
  -30.5100  -12.6390   18.9270 C   0  0  0  0  0  2  0  0  0  0  0  0
  -29.4790  -12.6410   17.7710 C   0  0  0  0  0  2  0  0  0  0  0  0
  -28.0480  -12.4080   18.2960 C   0  0  0  0  0  2  0  0  0  0  0  0
  -27.7260  -13.2820   19.5350 C   0  0  0  0  0  3  0  0  0  0  0  0
  -28.8610  -13.2200   20.5820 C   0  0  0  0  0  2  0  0  0  0  0  0
  -30.0940  -13.6690   19.9140 N   0  0  0  0  0  0  0  0  0  0  0  0
  -31.7510  -15.1540   19.5060 O   0  0  0  0  0  0  0  0  0  0  0  0
  -29.7150  -15.9750   20.3220 N   0  0  0  0  0  0  0  0  0  0  0  0
  -28.9080  -15.4920   20.6870 H   0  0  0  0  0  0  0  0  0  0  0  0
  -25.3960  -13.8250   20.4580 C   0  0  0  0  0  0  0  0  0  0  0  0
  -24.3630  -13.0310   20.8770 C   0  0  0  0  0  0  0  0  0  0  0  0
  -24.8300  -11.6850   20.7610 C   0  0  0  0  0  0  0  0  0  0  0  0
  -26.4220  -12.9630   20.1110 N   0  0  0  0  0  0  0  0  0  0  0  0
  -26.0940  -11.6680   20.3560 N   0  0  0  0  0  0  0  0  0  0  0  0
  -24.1250  -10.4120   20.9560 C   0  0  0  0  0  0  0  0  0  0  0  0
  -24.5760   -9.4530   21.8900 C   0  0  0  0  0  3  0  0  0  0  0  0
  -23.8710   -8.2430   22.0730 C   0  0  0  0  0  3  0  0  0  0  0  0
  -22.7000   -7.9840   21.3200 C   0  0  0  0  0  0  0  0  0  0  0  0
  -22.2690   -8.9320   20.3750 C   0  0  0  0  0  3  0  0  0  0  0  0
  -22.9750  -10.1320   20.1900 C   0  0  0  0  0  3  0  0  0  0  0  0
  -21.9650   -6.8270   21.4120 O   0  0  0  0  0  0  0  0  0  0  0  0
  -21.8550   -6.1360   22.5920 C   0  0  0  0  0  0  0  0  0  0  0  0
  -21.3340   -6.7340   23.7590 C   0  0  0  0  0  3  0  0  0  0  0  0
  -21.1740   -5.9670   24.9310 C   0  0  0  0  0  3  0  0  0  0  0  0
  -21.5240   -4.6050   24.9360 C   0  0  0  0  0  0  0  0  0  0  0  0
  -22.0390   -4.0060   23.7720 C   0  0  0  0  0  3  0  0  0  0  0  0
  -22.2000   -4.7700   22.6020 C   0  0  0  0  0  0  0  0  0  0  0  0
  -22.6760   -4.1820   21.4780 F   0  0  0  0  0  0  0  0  0  0  0  0
  -21.3640   -3.8660   26.0590 F   0  0  0  0  0  0  0  0  0  0  0  0
  -22.9880  -13.4870   21.2650 C   0  0  0  0  0  0  0  0  0  0  0  0
  -22.3310  -12.7620   22.1630 N   0  0  0  0  0  0  0  0  0  0  0  0
  -22.5040  -14.5220   20.8060 O   0  0  0  0  0  0  0  0  0  0  0  0
  -22.7370  -11.9240   22.5570 H   0  0  0  0  0  0  0  0  0  0  0  0
  -21.4110  -13.0490   22.4650 H   0  0  0  0  0  0  0  0  0  0  0  0
  -25.5400  -15.2030   20.3180 N   0  0  0  0  0  0  0  0  0  0  0  0
  -24.7660  -15.8370   20.4850 H   0  0  0  0  0  0  0  0  0  0  0  0
  -26.3210  -15.6490   19.8550 H   0  0  0  0  0  0  0  0  0  0  0  0
  -28.3440  -26.2740   20.1540 O   0  0  0  0  0  0  0  0  0  0  0  0
  -24.7150  -31.8900   23.2360 C   0  0  0  0  0  0  0  0  0  0  0  0
  -27.2810  -27.2370   20.1470 C   0  0  0  0  0  0  0  0  0  0  0  0
  -23.4990  -30.5020   21.6010 C   0  0  0  0  0  3  0  0  0  0  0  0
  -24.9370  -28.9430   20.1520 C   0  0  0  0  0  0  0  0  0  0  0  0
  -26.0480  -30.7840   21.4090 C   0  0  0  0  0  2  0  0  0  0  0  0
  -26.1200  -29.3990   20.7520 C   0  0  0  0  0  0  0  0  0  0  0  0
  -27.2920  -28.5590   20.7390 C   0  0  0  0  0  3  0  0  0  0  0  0
  -26.0760  -26.8770   19.5070 C   0  0  0  0  0  3  0  0  0  0  0  0
  -24.9250  -27.6920   19.5160 C   0  0  0  0  0  3  0  0  0  0  0  0
  -23.7060  -29.8320   20.2160 C   0  0  0  0  0  2  0  0  0  0  0  0
  -24.7740  -31.0790   22.1360 N   0  0  0  0  0  0  0  0  0  0  0  0
  -23.6340  -32.1690   23.7780 O   0  0  0  0  0  0  0  0  0  0  0  0
  -22.8350  -29.4870   22.5640 C   0  0  0  0  0  0  0  0  0  0  0  0
  -21.5090  -29.2980   22.4340 N   0  0  0  0  0  0  0  0  0  0  0  0
  -23.5130  -28.8720   23.3900 O   0  0  0  0  0  0  0  0  0  0  0  0
  -21.0180  -29.8460   21.7420 H   0  0  0  0  0  0  0  0  0  0  0  0
  -18.1410  -28.0680   22.9400 C   0  0  0  0  0  0  0  0  0  0  0  0
  -20.6980  -28.3530   23.2060 C   0  0  0  0  0  3  0  0  0  0  0  0
  -20.8120  -26.9220   22.6320 C   0  0  0  0  0  2  0  0  0  0  0  0
  -19.7130  -26.5890   21.6190 C   0  0  0  0  0  2  0  0  0  0  0  0
  -18.3300  -26.7210   22.2640 C   0  0  0  0  0  2  0  0  0  0  0  0
  -19.2520  -28.8410   23.3690 C   0  0  0  0  0  0  0  0  0  0  0  0
  -19.0210  -30.1010   23.9630 C   0  0  0  0  0  3  0  0  0  0  0  0
  -17.7120  -30.5880   24.1320 C   0  0  0  0  0  3  0  0  0  0  0  0
  -16.6150  -29.8130   23.7180 C   0  0  0  0  0  3  0  0  0  0  0  0
  -16.8310  -28.5540   23.1290 C   0  0  0  0  0  3  0  0  0  0  0  0
  -26.0000  -32.5230   23.8520 C   0  0  0  0  0  3  0  0  0  0  0  0
  -25.6940  -33.9230   24.1840 N   0  0  0  0  0  0  0  0  0  0  0  0
  -26.0090  -34.9760   23.4190 C   0  0  0  0  0  0  0  0  0  0  0  0
  -26.6550  -34.8720   22.3720 O   0  0  0  0  0  0  0  0  0  0  0  0
  -25.1150  -34.0780   24.9970 H   0  0  0  0  0  0  0  0  0  0  0  0
  -24.2630  -36.7640   23.1200 C   0  0  0  0  0  1  0  0  0  0  0  0
  -25.5340  -36.3670   23.8870 C   0  0  0  0  0  3  0  0  0  0  0  0
  -27.6910  -37.2690   24.6400 C   0  0  0  0  0  1  0  0  0  0  0  0
  -26.5600  -37.4210   23.7290 N   0  0  0  0  0  0  0  0  0  0  0  0
  -26.1560  -38.3420   23.8750 H   0  0  0  0  0  0  0  0  0  0  0  0
  -26.5180  -31.7540   25.1300 C   0  0  1  0  0  0  0  0  0  0  0  0
  -25.4270  -31.5240   26.2020 C   0  0  0  0  0  1  0  0  0  0  0  0
  -27.0940  -30.3710   24.7450 C   0  0  0  0  0  1  0  0  0  0  0  0
  -27.6730  -32.5460   25.7860 C   0  0  0  0  0  1  0  0  0  0  0  0
  1  4  2  0
  1  3  1  0
  2  1  1  0
  3  8  2  0
  5  2  1  0
  5  6  1  0
  6 12  1  0
  6  3  1  0
  7  2  2  0
  9 12  2  0
  9 11  1  0
 11 10  2  0
 12 13  1  0
 13 10  1  0
 14 22  1  0
 15 20  1  0
 16 17  1  0
 16 15  1  0
 18 17  1  0
 18 27  1  0
 18 19  1  0
 20 14  1  0
 20 19  1  0
 21 14  2  0
 22 11  1  0
 22 23  1  0
 24 25  2  0
 25 44  1  0
 26 25  1  0
 26 29  1  0
 27 28  1  0
 27 24  1  0
 28 26  2  0
 29 30  1  0
 30 31  2  0
 32 35  1  0
 32 31  1  0
 33 32  2  0
 34 33  1  0
 34 29  2  0
 35 36  1  0
 36 41  2  0
 36 37  1  0
 37 38  2  0
 38 39  1  0
 39 43  1  0
 40 39  2  0
 41 40  1  0
 42 41  1  0
 44 45  1  0
 45 48  1  0
 45 47  1  0
 46 44  2  0
 49 24  1  0
 49 50  1  0
 51 49  1  0
 52  4  1  0
 53 64  2  0
 54 52  1  0
 54 59  1  0
 55 63  1  0
 55 65  1  0
 56 62  1  0
 56 58  1  0
 57 63  1  0
 58 57  1  0
 59 58  2  0
 60 61  1  0
 60 54  2  0
 61 56  2  0
 62 55  1  0
 63 53  1  0
 65 67  2  0
 66 65  1  0
 68 66  1  0
 69 78  2  0
 69 74  1  0
 70 66  1  0
 70 74  1  0
 71 70  1  0
 72 73  1  0
 72 71  1  0
 73 69  1  0
 74 75  2  0
 75 76  1  0
 77 76  2  0
 78 77  1  0
 79 53  1  0
 79 80  1  0
 79 89  1  0
 80 83  1  0
 81 85  1  0
 81 80  1  0
 82 81  2  0
 85 84  1  0
 87 88  1  0
 87 85  1  0
 87 86  1  0
 89 92  1  1
 89 90  1  0
 91 89  1  0
M  ISO  4   4 101  14 100  22 100  52 101
M  END
>  <TORSDO>  (15) 
F 17

>  <SCORE>  (15) 
-14.222

>  <name>  (15) 
14

>  <ligand_id>  (15) 
14

>  <original_smiles>  (15) 
[H]C(Oc1c([H])c([H])c2c(c1[H])C([H])([H])N(C(=O)C([H])(N([H])C(=O)C([H])(N([H])C([H])([H])[H])C([H])([H])[H])C(C([H])([H])[H])(C([H])([H])[H])C([H])([H])[H])C([H])(C(=O)N([H])C1([H])c3c([H])c([H])c([H])c([H])c3C([H])([H])C([H])([H])C1([H])[H])C2([H])[H])=C1C(=O)N(c2oc([H])c(N([H])C(=O)N3C([H])([H])C([H])([H])C([H])([H])C([H])(n4nc(-c5c([H])c([H])c(Oc6c([H])c([H])c(F)c([H])c6F)c([H])c5[H])c(C(=O)N([H])[H])c4N([H])[H])C3([H])[H])c2[H])C([H])([H])C1=O

>  <smiles>  (15) 
[H]C(Oc1c([H])c([H])c2c(c1[H])C([H])([H])N(C(=O)C([H])(N([H])C(=O)C([H])(N([H])C([H])([H])[H])C([H])([H])[H])C(C([H])([H])[H])(C([H])([H])[H])C([H])([H])[H])C([H])(C(=O)N([H])C1([H])c3c([H])c([H])c([H])c([H])c3C([H])([H])C([H])([H])C1([H])[H])C2([H])[H])=C1C(=O)N(c2oc([H])c(N([H])C(=O)N3C([H])([H])C([H])([H])C([H])([H])C([H])(n4nc(-c5c([H])c([H])c(Oc6c([H])c([H])c(F)c([H])c6F)c([H])c5[H])c(C(=O)N([H])[H])c4N([H])[H])C3([H])[H])c2[H])C([H])([H])C1=O

$$$$
15:0:0
     RDKit          3D

 91 99  0  0  1  0  0  0  0  0999 V2000
  -28.9240  -18.7910   19.8010 C   0  0  0  0  0  3  0  0  0  0  0  0
  -28.4590  -20.1310   19.6070 C   0  0  0  0  0  3  0  0  0  0  0  0
  -30.4930  -19.6270   21.4120 C   0  0  0  0  0  3  0  0  0  0  0  0
  -29.9710  -18.4980   20.7090 C   0  0  0  0  0  0  0  0  0  0  0  0
  -29.0010  -21.2630   20.2850 C   0  0  0  0  0  0  0  0  0  0  0  0
  -30.0350  -20.9650   21.2150 C   0  0  0  0  0  0  0  0  0  0  0  0
  -30.6080  -21.9610   21.9330 F   0  0  0  0  0  0  0  0  0  0  0  0
  -30.7120  -14.7080   20.3600 C   0  0  0  0  0  0  0  0  0  0  0  0
  -30.3720  -12.4720   19.3220 C   0  0  0  0  0  2  0  0  0  0  0  0
  -29.4270  -12.5690   18.1070 C   0  0  0  0  0  2  0  0  0  0  0  0
  -27.9630  -12.4200   18.5600 C   0  0  0  0  0  2  0  0  0  0  0  0
  -27.6170  -13.3160   19.7810 C   0  0  0  0  0  3  0  0  0  0  0  0
  -28.6930  -13.2390   20.8880 C   0  0  0  0  0  2  0  0  0  0  0  0
  -29.9850  -13.5450   20.2650 N   0  0  0  0  0  0  0  0  0  0  0  0
  -31.8940  -14.6900   20.0110 O   0  0  0  0  0  0  0  0  0  0  0  0
  -30.6820  -17.1270   20.8150 C   0  0  0  0  0  0  0  0  0  0  0  0
  -30.0660  -15.9070   20.6120 N   0  0  0  0  0  0  0  0  0  0  0  0
  -31.8750  -17.1970   21.1390 O   0  0  0  0  0  0  0  0  0  0  0  0
  -29.0610  -15.9040   20.6010 H   0  0  0  0  0  0  0  0  0  0  0  0
  -25.2490  -13.9140   20.5590 C   0  0  0  0  0  0  0  0  0  0  0  0
  -24.1820  -13.1440   20.9330 C   0  0  0  0  0  0  0  0  0  0  0  0
  -24.6340  -11.7890   20.8770 C   0  0  0  0  0  0  0  0  0  0  0  0
  -26.2810  -13.0310   20.2950 N   0  0  0  0  0  0  0  0  0  0  0  0
  -25.9190  -11.7460   20.5480 N   0  0  0  0  0  0  0  0  0  0  0  0
  -23.8970  -10.5300   21.0580 C   0  0  0  0  0  0  0  0  0  0  0  0
  -24.3240   -9.5520   21.9830 C   0  0  0  0  0  3  0  0  0  0  0  0
  -23.5890   -8.3590   22.1540 C   0  0  0  0  0  3  0  0  0  0  0  0
  -22.4120   -8.1360   21.4000 C   0  0  0  0  0  0  0  0  0  0  0  0
  -22.0050   -9.1020   20.4640 C   0  0  0  0  0  3  0  0  0  0  0  0
  -22.7410  -10.2870   20.2910 C   0  0  0  0  0  3  0  0  0  0  0  0
  -21.6480   -6.9970   21.4800 O   0  0  0  0  0  0  0  0  0  0  0  0
  -21.5800   -6.2570   22.6330 C   0  0  0  0  0  0  0  0  0  0  0  0
  -21.1210   -6.8100   23.8480 C   0  0  0  0  0  3  0  0  0  0  0  0
  -21.0020   -5.9960   24.9920 C   0  0  0  0  0  3  0  0  0  0  0  0
  -21.3300   -4.6290   24.9210 C   0  0  0  0  0  0  0  0  0  0  0  0
  -21.7800   -4.0750   23.7110 C   0  0  0  0  0  3  0  0  0  0  0  0
  -21.9020   -4.8860   22.5690 C   0  0  0  0  0  0  0  0  0  0  0  0
  -22.3170   -4.3420   21.4000 F   0  0  0  0  0  0  0  0  0  0  0  0
  -21.2060   -3.8450   26.0180 F   0  0  0  0  0  0  0  0  0  0  0  0
  -22.7920  -13.6290   21.2300 C   0  0  0  0  0  0  0  0  0  0  0  0
  -22.0700  -12.9260   22.0950 N   0  0  0  0  0  0  0  0  0  0  0  0
  -22.3570  -14.6660   20.7310 O   0  0  0  0  0  0  0  0  0  0  0  0
  -22.4360  -12.0860   22.5200 H   0  0  0  0  0  0  0  0  0  0  0  0
  -21.1380  -13.2320   22.3360 H   0  0  0  0  0  0  0  0  0  0  0  0
  -25.4200  -15.2860   20.3980 N   0  0  0  0  0  0  0  0  0  0  0  0
  -24.6570  -15.9410   20.5270 H   0  0  0  0  0  0  0  0  0  0  0  0
  -26.2590  -15.7240   20.0410 H   0  0  0  0  0  0  0  0  0  0  0  0
  -28.8340  -23.7660   20.3140 C   0  0  0  0  0  3  0  0  0  0  0  0
  -28.4350  -22.5600   20.0010 N   0  0  0  0  0  0  0  0  0  0  0  0
  -27.9560  -25.0140   19.9070 C   0  0  0  0  0  2  0  0  0  0  0  0
  -28.2970  -26.4330   20.2280 O   0  0  0  0  0  0  0  0  0  0  0  0
  -24.6330  -31.8960   23.2630 C   0  0  0  0  0  0  0  0  0  0  0  0
  -27.2190  -27.3460   20.1540 C   0  0  0  0  0  0  0  0  0  0  0  0
  -23.4240  -30.5150   21.6180 C   0  0  0  0  0  3  0  0  0  0  0  0
  -24.8680  -28.9910   20.1660 C   0  0  0  0  0  0  0  0  0  0  0  0
  -25.9680  -30.8260   21.4350 C   0  0  0  0  0  2  0  0  0  0  0  0
  -26.0430  -29.4560   20.7710 C   0  0  0  0  0  0  0  0  0  0  0  0
  -27.2230  -28.6440   20.7610 C   0  0  0  0  0  3  0  0  0  0  0  0
  -26.0210  -26.9660   19.4970 C   0  0  0  0  0  3  0  0  0  0  0  0
  -24.8610  -27.7530   19.5200 C   0  0  0  0  0  3  0  0  0  0  0  0
  -23.6340  -29.8650   20.2280 C   0  0  0  0  0  2  0  0  0  0  0  0
  -24.6940  -31.0960   22.1610 N   0  0  0  0  0  0  0  0  0  0  0  0
  -23.5510  -32.1700   23.8030 O   0  0  0  0  0  0  0  0  0  0  0  0
  -22.7660  -29.4840   22.5660 C   0  0  0  0  0  0  0  0  0  0  0  0
  -21.4410  -29.3000   22.4370 N   0  0  0  0  0  0  0  0  0  0  0  0
  -23.4460  -28.8540   23.3810 O   0  0  0  0  0  0  0  0  0  0  0  0
  -20.9500  -29.8600   21.7530 H   0  0  0  0  0  0  0  0  0  0  0  0
  -18.0660  -28.0950   22.9360 C   0  0  0  0  0  0  0  0  0  0  0  0
  -20.6240  -28.3570   23.2020 C   0  0  0  0  0  3  0  0  0  0  0  0
  -20.7270  -26.9290   22.6170 C   0  0  0  0  0  2  0  0  0  0  0  0
  -19.6230  -26.6110   21.6050 C   0  0  0  0  0  2  0  0  0  0  0  0
  -18.2420  -26.7500   22.2510 C   0  0  0  0  0  2  0  0  0  0  0  0
  -19.1840  -28.8560   23.3690 C   0  0  0  0  0  0  0  0  0  0  0  0
  -18.9640  -30.1160   23.9690 C   0  0  0  0  0  3  0  0  0  0  0  0
  -17.6580  -30.6130   24.1410 C   0  0  0  0  0  3  0  0  0  0  0  0
  -16.5540  -29.8490   23.7240 C   0  0  0  0  0  3  0  0  0  0  0  0
  -16.7580  -28.5920   23.1270 C   0  0  0  0  0  3  0  0  0  0  0  0
  -25.9180  -32.5250   23.8850 C   0  0  0  0  0  3  0  0  0  0  0  0
  -25.6090  -33.9220   24.2200 N   0  0  0  0  0  0  0  0  0  0  0  0
  -25.9160  -34.9750   23.4510 C   0  0  0  0  0  0  0  0  0  0  0  0
  -26.5600  -34.8730   22.4030 O   0  0  0  0  0  0  0  0  0  0  0  0
  -25.0360  -34.0760   25.0370 H   0  0  0  0  0  0  0  0  0  0  0  0
  -24.1640  -36.7540   23.1460 C   0  0  0  0  0  1  0  0  0  0  0  0
  -25.4340  -36.3620   23.9190 C   0  0  0  0  0  3  0  0  0  0  0  0
  -27.5830  -37.2680   24.6840 C   0  0  0  0  0  1  0  0  0  0  0  0
  -26.4540  -37.4220   23.7710 N   0  0  0  0  0  0  0  0  0  0  0  0
  -26.0440  -38.3400   23.9240 H   0  0  0  0  0  0  0  0  0  0  0  0
  -26.4330  -31.7480   25.1580 C   0  0  1  0  0  0  0  0  0  0  0  0
  -25.3390  -31.5040   26.2240 C   0  0  0  0  0  1  0  0  0  0  0  0
  -27.0210  -30.3740   24.7650 C   0  0  0  0  0  1  0  0  0  0  0  0
  -27.5820  -32.5430   25.8240 C   0  0  0  0  0  1  0  0  0  0  0  0
  1  4  1  0
  2  1  2  0
  2  5  1  0
  4 16  1  0
  4  3  2  0
  5  6  2  0
  6  3  1  0
  6  7  1  0
  8 17  1  0
  9 14  1  0
 10 11  1  0
 10  9  1  0
 12 11  1  0
 12 23  1  0
 12 13  1  0
 14  8  1  0
 14 13  1  0
 15  8  2  0
 16 18  2  0
 17 16  1  0
 19 17  1  0
 20 21  2  0
 21 40  1  0
 22 21  1  0
 22 25  1  0
 23 24  1  0
 23 20  1  0
 24 22  2  0
 25 26  1  0
 26 27  2  0
 28 31  1  0
 28 27  1  0
 29 28  2  0
 30 29  1  0
 30 25  2  0
 31 32  1  0
 32 33  1  0
 33 34  2  0
 35 34  1  0
 35 39  1  0
 36 35  2  0
 37 32  2  0
 37 36  1  0
 38 37  1  0
 40 41  1  0
 41 44  1  0
 41 43  1  0
 42 40  2  0
 45 46  1  0
 45 20  1  0
 47 45  1  0
 49  5  1  0
 49 48  2  0
 50 51  1  0
 50 48  1  0
 52 63  2  0
 53 51  1  0
 53 58  1  0
 54 62  1  0
 54 64  1  0
 55 61  1  0
 55 57  1  0
 56 62  1  0
 57 56  1  0
 58 57  2  0
 59 60  1  0
 59 53  2  0
 60 55  2  0
 61 54  1  0
 62 52  1  0
 64 66  2  0
 65 64  1  0
 67 65  1  0
 68 77  2  0
 68 73  1  0
 69 65  1  0
 69 73  1  0
 70 69  1  0
 71 72  1  0
 71 70  1  0
 72 68  1  0
 73 74  2  0
 74 75  1  0
 76 75  2  0
 77 76  1  0
 78 52  1  0
 78 79  1  0
 78 88  1  0
 79 82  1  0
 80 84  1  0
 80 79  1  0
 81 80  2  0
 84 83  1  0
 86 84  1  0
 86 87  1  0
 86 85  1  0
 88 91  1  1
 88 89  1  0
 90 88  1  0
M  ISO  4   8 100  17 100  50 101  51 101
M  END
>  <TORSDO>  (16) 
F 18

>  <SCORE>  (16) 
-14.920

>  <name>  (16) 
15

>  <ligand_id>  (16) 
15

>  <original_smiles>  (16) 
[H]C(=Nc1c([H])c([H])c(C(=O)N([H])C(=O)N2C([H])([H])C([H])([H])C([H])([H])C([H])(n3nc(-c4c([H])c([H])c(Oc5c([H])c([H])c(F)c([H])c5F)c([H])c4[H])c(C(=O)N([H])[H])c3N([H])[H])C2([H])[H])c([H])c1F)C([H])([H])Oc1c([H])c([H])c2c(c1[H])C([H])([H])N(C(=O)C([H])(N([H])C(=O)C([H])(N([H])C([H])([H])[H])C([H])([H])[H])C(C([H])([H])[H])(C([H])([H])[H])C([H])([H])[H])C([H])(C(=O)N([H])C1([H])c3c([H])c([H])c([H])c([H])c3C([H])([H])C([H])([H])C1([H])[H])C2([H])[H]

>  <smiles>  (16) 
[H]C(=Nc1c([H])c([H])c(C(=O)N([H])C(=O)N2C([H])([H])C([H])([H])C([H])([H])C([H])(n3nc(-c4c([H])c([H])c(Oc5c([H])c([H])c(F)c([H])c5F)c([H])c4[H])c(C(=O)N([H])[H])c3N([H])[H])C2([H])[H])c([H])c1F)C([H])([H])Oc1c([H])c([H])c2c(c1[H])C([H])([H])N(C(=O)C([H])(N([H])C(=O)C([H])(N([H])C([H])([H])[H])C([H])([H])[H])C(C([H])([H])[H])(C([H])([H])[H])C([H])([H])[H])C([H])(C(=O)N([H])C1([H])c3c([H])c([H])c([H])c([H])c3C([H])([H])C([H])([H])C1([H])[H])C2([H])[H]

$$$$
16:0:0
     RDKit          3D

 99108  0  0  1  0  0  0  0  0999 V2000
  -27.3650  -23.7560   20.6570 C   0  0  0  0  0  3  0  0  0  0  0  0
  -27.7830  -21.4070   20.2490 C   0  0  0  0  0  3  0  0  0  0  0  0
  -28.6660  -24.1240   20.5690 C   0  0  0  0  0  0  0  0  0  0  0  0
  -26.8910  -22.3990   20.4620 C   0  0  0  0  0  0  0  0  0  0  0  0
  -29.6620  -22.9600   20.3270 C   0  0  0  0  0  0  0  0  0  0  0  0
  -29.1820  -21.6060   20.1920 N   0  0  0  0  0  0  0  0  0  0  0  0
  -30.8720  -23.2100   20.2760 O   0  0  0  0  0  0  0  0  0  0  0  0
  -31.0330  -20.3630   18.9690 C   0  0  0  0  0  3  0  0  0  0  0  0
  -29.6820  -18.9580   20.4180 C   0  0  0  0  0  3  0  0  0  0  0  0
  -31.3780  -17.9160   19.0230 C   0  0  0  0  0  3  0  0  0  0  0  0
  -29.9610  -20.3170   19.8960 C   0  0  0  0  0  0  0  0  0  0  0  0
  -31.7200  -19.2010   18.5350 C   0  0  0  0  0  0  0  0  0  0  0  0
  -30.3860  -17.7270   20.0200 C   0  0  0  0  0  0  0  0  0  0  0  0
  -30.8570  -15.1460   20.5450 C   0  0  0  0  0  0  0  0  0  0  0  0
  -30.7070  -12.7820   19.7280 C   0  0  0  0  0  2  0  0  0  0  0  0
  -29.8690  -12.7550   18.4370 C   0  0  0  0  0  2  0  0  0  0  0  0
  -28.3650  -12.6410   18.7700 C   0  0  0  0  0  2  0  0  0  0  0  0
  -27.9130  -13.6170   19.8910 C   0  0  0  0  0  3  0  0  0  0  0  0
  -28.8880  -13.5950   21.0900 C   0  0  0  0  0  2  0  0  0  0  0  0
  -30.2200  -13.9170   20.5570 N   0  0  0  0  0  0  0  0  0  0  0  0
  -32.0800  -15.1690   20.3840 O   0  0  0  0  0  0  0  0  0  0  0  0
  -30.0890  -16.3260   20.5090 N   0  0  0  0  0  0  0  0  0  0  0  0
  -29.1230  -16.1530   20.7280 H   0  0  0  0  0  0  0  0  0  0  0  0
  -25.5090  -14.3030   20.4620 C   0  0  0  0  0  0  0  0  0  0  0  0
  -24.3860  -13.5740   20.7570 C   0  0  0  0  0  0  0  0  0  0  0  0
  -24.7950  -12.2040   20.7610 C   0  0  0  0  0  0  0  0  0  0  0  0
  -26.5310  -13.3800   20.2950 N   0  0  0  0  0  0  0  0  0  0  0  0
  -26.1030  -12.1110   20.5340 N   0  0  0  0  0  0  0  0  0  0  0  0
  -24.0050  -10.9750   20.8920 C   0  0  0  0  0  0  0  0  0  0  0  0
  -24.3190   -9.9950   21.8560 C   0  0  0  0  0  3  0  0  0  0  0  0
  -23.5340   -8.8290   21.9800 C   0  0  0  0  0  3  0  0  0  0  0  0
  -22.4160   -8.6380   21.1350 C   0  0  0  0  0  0  0  0  0  0  0  0
  -22.1190   -9.6040   20.1570 C   0  0  0  0  0  3  0  0  0  0  0  0
  -22.9060  -10.7600   20.0340 C   0  0  0  0  0  3  0  0  0  0  0  0
  -21.6080   -7.5250   21.1670 O   0  0  0  0  0  0  0  0  0  0  0  0
  -21.3970   -6.8200   22.3260 C   0  0  0  0  0  0  0  0  0  0  0  0
  -20.8170   -7.4130   23.4700 C   0  0  0  0  0  3  0  0  0  0  0  0
  -20.5620   -6.6350   24.6160 C   0  0  0  0  0  3  0  0  0  0  0  0
  -20.8760   -5.2630   24.6190 C   0  0  0  0  0  0  0  0  0  0  0  0
  -21.4470   -4.6680   23.4790 C   0  0  0  0  0  3  0  0  0  0  0  0
  -21.7050   -5.4450   22.3360 C   0  0  0  0  0  0  0  0  0  0  0  0
  -22.2380   -4.8640   21.2360 F   0  0  0  0  0  0  0  0  0  0  0  0
  -20.6210   -4.5100   25.7170 F   0  0  0  0  0  0  0  0  0  0  0  0
  -22.9920  -14.1030   20.9360 C   0  0  0  0  0  0  0  0  0  0  0  0
  -22.1910  -13.4470   21.7680 N   0  0  0  0  0  0  0  0  0  0  0  0
  -22.6220  -15.1290   20.3700 O   0  0  0  0  0  0  0  0  0  0  0  0
  -22.5010  -12.6080   22.2390 H   0  0  0  0  0  0  0  0  0  0  0  0
  -21.2500  -13.7720   21.9340 H   0  0  0  0  0  0  0  0  0  0  0  0
  -25.7420  -15.6650   20.2920 N   0  0  0  0  0  0  0  0  0  0  0  0
  -24.9950  -16.3510   20.3520 H   0  0  0  0  0  0  0  0  0  0  0  0
  -26.6020  -16.0560   19.9370 H   0  0  0  0  0  0  0  0  0  0  0  0
  -32.7620  -19.3370   17.6130 N   0  0  0  0  0  0  0  0  0  0  0  0
  -32.8900  -20.2160   17.1140 H   0  0  0  0  0  0  0  0  0  0  0  0
  -33.0880  -18.5370   17.0830 H   0  0  0  0  0  0  0  0  0  0  0  0
  -28.9900  -25.4550   21.1110 N   0  0  0  0  0  0  0  0  0  0  0  0
  -28.4200  -25.6860   21.9150 H   0  0  0  0  0  0  0  0  0  0  0  0
  -28.9630  -26.6990   20.2280 O   0  0  0  0  0  0  0  0  0  0  0  0
  -24.8310  -31.9180   23.4090 C   0  0  0  0  0  0  0  0  0  0  0  0
  -27.8440  -27.5750   20.3230 C   0  0  0  0  0  0  0  0  0  0  0  0
  -23.8030  -30.5480   21.6300 C   0  0  0  0  0  3  0  0  0  0  0  0
  -25.4230  -29.1500   20.2180 C   0  0  0  0  0  0  0  0  0  0  0  0
  -26.3390  -30.9830   21.6290 C   0  0  0  0  0  2  0  0  0  0  0  0
  -26.5330  -29.6340   20.9300 C   0  0  0  0  0  0  0  0  0  0  0  0
  -27.7500  -28.8650   20.9680 C   0  0  0  0  0  3  0  0  0  0  0  0
  -26.7090  -27.1650   19.5980 C   0  0  0  0  0  3  0  0  0  0  0  0
  -25.5220  -27.9250   19.5410 C   0  0  0  0  0  3  0  0  0  0  0  0
  -24.1400  -29.9660   20.2300 C   0  0  0  0  0  2  0  0  0  0  0  0
  -25.0050  -31.1700   22.2770 N   0  0  0  0  0  0  0  0  0  0  0  0
  -23.7040  -32.1050   23.8930 O   0  0  0  0  0  0  0  0  0  0  0  0
  -23.1510  -29.4410   22.4990 C   0  0  0  0  0  0  0  0  0  0  0  0
  -21.8360  -29.2240   22.3170 N   0  0  0  0  0  0  0  0  0  0  0  0
  -23.8210  -28.7890   23.3020 O   0  0  0  0  0  0  0  0  0  0  0  0
  -21.3490  -29.8040   21.6460 H   0  0  0  0  0  0  0  0  0  0  0  0
  -18.4750  -27.9300   22.7090 C   0  0  0  0  0  0  0  0  0  0  0  0
  -21.0370  -28.2030   22.9990 C   0  0  0  0  0  3  0  0  0  0  0  0
  -21.1530  -26.8430   22.2810 C   0  0  0  0  0  2  0  0  0  0  0  0
  -20.0470  -26.6030   21.2490 C   0  0  0  0  0  2  0  0  0  0  0  0
  -18.6630  -26.6620   21.9000 C   0  0  0  0  0  2  0  0  0  0  0  0
  -19.5870  -28.6630   23.2050 C   0  0  0  0  0  0  0  0  0  0  0  0
  -19.3490  -29.8600   23.9150 C   0  0  0  0  0  3  0  0  0  0  0  0
  -18.0390  -30.3230   24.1370 C   0  0  0  0  0  3  0  0  0  0  0  0
  -16.9440  -29.5900   23.6530 C   0  0  0  0  0  3  0  0  0  0  0  0
  -17.1640  -28.3940   22.9460 C   0  0  0  0  0  3  0  0  0  0  0  0
  -26.0340  -32.5950   24.1340 C   0  0  0  0  0  3  0  0  0  0  0  0
  -26.4110  -31.8800   25.4890 C   0  0  1  0  0  0  0  0  0  0  0  0
  -25.1930  -31.5810   26.3970 C   0  0  0  0  0  1  0  0  0  0  0  0
  -27.1450  -30.5440   25.2240 C   0  0  0  0  0  1  0  0  0  0  0  0
  -27.3970  -32.7650   26.2870 C   0  0  0  0  0  1  0  0  0  0  0  0
  -25.6720  -33.9980   24.3780 N   0  0  0  0  0  0  0  0  0  0  0  0
  -26.0190  -35.0220   23.5880 C   0  0  0  0  0  0  0  0  0  0  0  0
  -26.7390  -34.8840   22.5950 O   0  0  0  0  0  0  0  0  0  0  0  0
  -25.0270  -34.1620   25.1360 H   0  0  0  0  0  0  0  0  0  0  0  0
  -24.2430  -36.7420   23.0960 C   0  0  0  0  0  1  0  0  0  0  0  0
  -25.4760  -36.4190   23.9540 C   0  0  0  0  0  3  0  0  0  0  0  0
  -27.5520  -37.4240   24.7940 C   0  0  0  0  0  1  0  0  0  0  0  0
  -26.4760  -37.4960   23.8090 N   0  0  0  0  0  0  0  0  0  0  0  0
  -26.0420  -38.4110   23.8820 H   0  0  0  0  0  0  0  0  0  0  0  0
  -25.5760  -22.1460   20.5510 O   0  0  0  0  0  0  0  0  0  0  0  0
  -25.4340  -21.2050   20.5520 H   0  0  0  0  0  0  0  0  0  0  0  0
  2  4  2  0
  3  1  2  0
  3 55  1  0
  4 98  1  0
  4  1  1  0
  5  3  1  0
  6  2  1  0
  6  5  1  0
  7  5  2  0
  8 11  1  0
 10 13  2  0
 11  6  1  0
 11  9  2  0
 12  8  2  0
 12 10  1  0
 13  9  1  0
 13 22  1  0
 14 20  1  0
 15 20  1  0
 16 17  1  0
 16 15  1  0
 18 17  1  0
 18 27  1  0
 18 19  1  0
 20 19  1  0
 21 14  2  0
 22 14  1  0
 22 23  1  0
 24 25  2  0
 25 26  1  0
 25 44  1  0
 26 29  1  0
 27 24  1  0
 27 28  1  0
 28 26  2  0
 29 30  1  0
 30 31  2  0
 32 35  1  0
 32 31  1  0
 33 32  2  0
 34 33  1  0
 34 29  2  0
 35 36  1  0
 36 41  2  0
 36 37  1  0
 37 38  2  0
 38 39  1  0
 39 43  1  0
 40 39  2  0
 41 40  1  0
 42 41  1  0
 44 45  1  0
 45 48  1  0
 45 47  1  0
 46 44  2  0
 49 50  1  0
 49 24  1  0
 51 49  1  0
 52 12  1  0
 53 52  1  0
 54 52  1  0
 55 56  1  0
 57 59  1  0
 57 55  1  0
 58 69  2  0
 59 64  1  0
 60 68  1  0
 60 70  1  0
 61 67  1  0
 61 63  1  0
 62 68  1  0
 63 64  2  0
 63 62  1  0
 65 59  2  0
 66 65  1  0
 66 61  2  0
 67 60  1  0
 68 58  1  0
 70 72  2  0
 71 70  1  0
 73 71  1  0
 74 83  2  0
 74 79  1  0
 75 71  1  0
 75 79  1  0
 76 75  1  0
 77 78  1  0
 77 76  1  0
 78 74  1  0
 79 80  2  0
 80 81  1  0
 82 81  2  0
 83 82  1  0
 84 58  1  0
 84 89  1  0
 84 85  1  0
 85 88  1  1
 85 86  1  0
 87 85  1  0
 89 92  1  0
 90 94  1  0
 90 89  1  0
 91 90  2  0
 94 93  1  0
 96 97  1  0
 96 94  1  0
 96 95  1  0
 98 99  1  0
M  ISO  4  14 100  22 100  55 101  57 101
M  END
>  <TORSDO>  (17) 
F 20

>  <SCORE>  (17) 
-12.654

>  <name>  (17) 
16

>  <ligand_id>  (17) 
16

>  <original_smiles>  (17) 
[H]Oc1c([H])c(N([H])Oc2c([H])c([H])c3c(c2[H])C([H])([H])N(C(=O)C([H])(N([H])C(=O)C([H])(N([H])C([H])([H])[H])C([H])([H])[H])C(C([H])([H])[H])(C([H])([H])[H])C([H])([H])[H])C([H])(C(=O)N([H])C2([H])c4c([H])c([H])c([H])c([H])c4C([H])([H])C([H])([H])C2([H])[H])C3([H])[H])c(=O)n(-c2c([H])c(N([H])[H])c([H])c(N([H])C(=O)N3C([H])([H])C([H])([H])C([H])([H])C([H])(n4nc(-c5c([H])c([H])c(Oc6c([H])c([H])c(F)c([H])c6F)c([H])c5[H])c(C(=O)N([H])[H])c4N([H])[H])C3([H])[H])c2[H])c1[H]

>  <smiles>  (17) 
[H]Oc1c([H])c(N([H])Oc2c([H])c([H])c3c(c2[H])C([H])([H])N(C(=O)C([H])(N([H])C(=O)C([H])(N([H])C([H])([H])[H])C([H])([H])[H])C(C([H])([H])[H])(C([H])([H])[H])C([H])([H])[H])C([H])(C(=O)N([H])C2([H])c4c([H])c([H])c([H])c([H])c4C([H])([H])C([H])([H])C2([H])[H])C3([H])[H])c(=O)n(-c2c([H])c(N([H])[H])c([H])c(N([H])C(=O)N3C([H])([H])C([H])([H])C([H])([H])C([H])(n4nc(-c5c([H])c([H])c(Oc6c([H])c([H])c(F)c([H])c6F)c([H])c5[H])c(C(=O)N([H])[H])c4N([H])[H])C3([H])[H])c2[H])c1[H]

$$$$
17:0:0
     RDKit          3D

 92101  0  0  1  0  0  0  0  0999 V2000
  -28.4140  -23.5790   20.4900 C   0  0  0  0  0  0  0  0  0  0  0  0
  -29.5630  -22.9240   19.8510 C   0  0  0  0  0  0  0  0  0  0  0  0
  -27.8820  -24.8840   20.6570 C   0  0  0  0  0  3  0  0  0  0  0  0
  -28.0030  -22.1550   21.0090 C   0  0  0  0  0  2  0  0  0  0  0  0
  -29.1120  -21.5890   20.1950 N   0  0  0  0  0  0  0  0  0  0  0  0
  -30.5600  -23.4030   19.3520 O   0  0  0  0  0  0  0  0  0  0  0  0
  -31.9610  -19.2260   21.1120 C   0  0  0  0  0  3  0  0  0  0  0  0
  -31.1280  -20.3310   20.8570 C   0  0  0  0  0  3  0  0  0  0  0  0
  -31.5100  -17.9020   20.9770 C   0  0  0  0  0  3  0  0  0  0  0  0
  -29.7720  -20.2340   20.4620 C   0  0  0  0  0  0  0  0  0  0  0  0
  -30.1880  -17.6090   20.5800 C   0  0  0  0  0  0  0  0  0  0  0  0
  -29.3380  -18.8100   20.3540 C   0  0  0  0  0  0  0  0  0  0  0  0
  -28.0540  -18.5850   19.9850 F   0  0  0  0  0  0  0  0  0  0  0  0
  -30.5520  -14.9460   20.3560 C   0  0  0  0  0  0  0  0  0  0  0  0
  -30.3940  -12.6170   19.3890 C   0  0  0  0  0  2  0  0  0  0  0  0
  -29.4680  -12.6020   18.1520 C   0  0  0  0  0  2  0  0  0  0  0  0
  -28.0010  -12.4010   18.5770 C   0  0  0  0  0  2  0  0  0  0  0  0
  -27.5940  -13.3190   19.7600 C   0  0  0  0  0  3  0  0  0  0  0  0
  -28.6450  -13.3180   20.8910 C   0  0  0  0  0  2  0  0  0  0  0  0
  -29.9240  -13.7080   20.2870 N   0  0  0  0  0  0  0  0  0  0  0  0
  -31.7560  -14.9810   20.0840 O   0  0  0  0  0  0  0  0  0  0  0  0
  -29.7950  -16.1380   20.4810 N   0  0  0  0  0  0  0  0  0  0  0  0
  -28.8000  -15.9800   20.5010 H   0  0  0  0  0  0  0  0  0  0  0  0
  -25.2060  -13.8930   20.4800 C   0  0  0  0  0  0  0  0  0  0  0  0
  -24.1420  -13.1130   20.8440 C   0  0  0  0  0  0  0  0  0  0  0  0
  -24.6120  -11.7650   20.8210 C   0  0  0  0  0  0  0  0  0  0  0  0
  -26.2540  -13.0190   20.2510 N   0  0  0  0  0  0  0  0  0  0  0  0
  -25.9070  -11.7340   20.5220 N   0  0  0  0  0  0  0  0  0  0  0  0
  -23.8900  -10.4990   21.0070 C   0  0  0  0  0  0  0  0  0  0  0  0
  -24.3080   -9.5420   21.9580 C   0  0  0  0  0  3  0  0  0  0  0  0
  -23.5830   -8.3430   22.1320 C   0  0  0  0  0  3  0  0  0  0  0  0
  -22.4260   -8.0930   21.3570 C   0  0  0  0  0  0  0  0  0  0  0  0
  -22.0280   -9.0390   20.3960 C   0  0  0  0  0  3  0  0  0  0  0  0
  -22.7530  -10.2290   20.2190 C   0  0  0  0  0  3  0  0  0  0  0  0
  -21.6750   -6.9460   21.4390 O   0  0  0  0  0  0  0  0  0  0  0  0
  -21.5910   -6.2230   22.6030 C   0  0  0  0  0  0  0  0  0  0  0  0
  -21.0930   -6.7880   23.7970 C   0  0  0  0  0  3  0  0  0  0  0  0
  -20.9590   -5.9900   24.9500 C   0  0  0  0  0  3  0  0  0  0  0  0
  -21.3120   -4.6290   24.9110 C   0  0  0  0  0  0  0  0  0  0  0  0
  -21.8030   -4.0630   23.7220 C   0  0  0  0  0  3  0  0  0  0  0  0
  -21.9390   -4.8570   22.5700 C   0  0  0  0  0  0  0  0  0  0  0  0
  -22.3920   -4.3020   21.4200 F   0  0  0  0  0  0  0  0  0  0  0  0
  -21.1760   -3.8600   26.0170 F   0  0  0  0  0  0  0  0  0  0  0  0
  -22.7400  -13.5850   21.1000 C   0  0  0  0  0  0  0  0  0  0  0  0
  -22.0060  -12.8890   21.9600 N   0  0  0  0  0  0  0  0  0  0  0  0
  -22.3040  -14.6080   20.5720 O   0  0  0  0  0  0  0  0  0  0  0  0
  -22.3730  -12.0620   22.4090 H   0  0  0  0  0  0  0  0  0  0  0  0
  -21.0660  -13.1870   22.1740 H   0  0  0  0  0  0  0  0  0  0  0  0
  -25.3620  -15.2640   20.2980 N   0  0  0  0  0  0  0  0  0  0  0  0
  -24.5850  -15.9070   20.3990 H   0  0  0  0  0  0  0  0  0  0  0  0
  -26.1970  -15.7090   19.9440 H   0  0  0  0  0  0  0  0  0  0  0  0
  -28.2260  -26.2430   20.2670 O   0  0  0  0  0  0  0  0  0  0  0  0
  -24.6140  -31.9210   23.2510 C   0  0  0  0  0  0  0  0  0  0  0  0
  -27.1920  -27.2360   20.2270 C   0  0  0  0  0  0  0  0  0  0  0  0
  -23.4120  -30.5240   21.6120 C   0  0  0  0  0  3  0  0  0  0  0  0
  -24.8620  -28.9540   20.1890 C   0  0  0  0  0  0  0  0  0  0  0  0
  -25.9640  -30.7980   21.4470 C   0  0  0  0  0  2  0  0  0  0  0  0
  -26.0400  -29.4080   20.8000 C   0  0  0  0  0  0  0  0  0  0  0  0
  -27.2090  -28.5620   20.8080 C   0  0  0  0  0  3  0  0  0  0  0  0
  -25.9950  -26.8780   19.5720 C   0  0  0  0  0  3  0  0  0  0  0  0
  -24.8500  -27.7000   19.5610 C   0  0  0  0  0  3  0  0  0  0  0  0
  -23.6340  -29.8460   20.2350 C   0  0  0  0  0  2  0  0  0  0  0  0
  -24.6830  -31.1020   22.1590 N   0  0  0  0  0  0  0  0  0  0  0  0
  -23.5280  -32.2060   23.7790 O   0  0  0  0  0  0  0  0  0  0  0  0
  -22.7350  -29.5160   22.5740 C   0  0  0  0  0  0  0  0  0  0  0  0
  -21.4080  -29.3450   22.4460 N   0  0  0  0  0  0  0  0  0  0  0  0
  -23.4070  -28.8920   23.4000 O   0  0  0  0  0  0  0  0  0  0  0  0
  -20.9230  -29.8990   21.7540 H   0  0  0  0  0  0  0  0  0  0  0  0
  -18.0240  -28.1540   22.9490 C   0  0  0  0  0  0  0  0  0  0  0  0
  -20.5840  -28.4110   23.2180 C   0  0  0  0  0  3  0  0  0  0  0  0
  -20.6830  -26.9770   22.6450 C   0  0  0  0  0  2  0  0  0  0  0  0
  -19.5800  -26.6550   21.6310 C   0  0  0  0  0  2  0  0  0  0  0  0
  -18.1990  -26.8030   22.2740 C   0  0  0  0  0  2  0  0  0  0  0  0
  -19.1450  -28.9150   23.3780 C   0  0  0  0  0  0  0  0  0  0  0  0
  -18.9270  -30.1780   23.9710 C   0  0  0  0  0  3  0  0  0  0  0  0
  -17.6220  -30.6800   24.1370 C   0  0  0  0  0  3  0  0  0  0  0  0
  -16.5170  -29.9160   23.7240 C   0  0  0  0  0  3  0  0  0  0  0  0
  -16.7200  -28.6550   23.1360 C   0  0  0  0  0  3  0  0  0  0  0  0
  -25.8930  -32.5550   23.8760 C   0  0  0  0  0  3  0  0  0  0  0  0
  -25.5830  -33.9550   24.2060 N   0  0  0  0  0  0  0  0  0  0  0  0
  -25.9050  -35.0090   23.4430 C   0  0  0  0  0  0  0  0  0  0  0  0
  -26.5610  -34.9040   22.4040 O   0  0  0  0  0  0  0  0  0  0  0  0
  -24.9980  -34.1090   25.0140 H   0  0  0  0  0  0  0  0  0  0  0  0
  -24.1680  -36.8010   23.1160 C   0  0  0  0  0  1  0  0  0  0  0  0
  -25.4230  -36.3980   23.9060 C   0  0  0  0  0  3  0  0  0  0  0  0
  -27.5680  -37.2930   24.7010 C   0  0  0  0  0  1  0  0  0  0  0  0
  -26.4520  -37.4520   23.7730 N   0  0  0  0  0  0  0  0  0  0  0  0
  -26.0470  -38.3730   23.9190 H   0  0  0  0  0  0  0  0  0  0  0  0
  -26.4020  -31.7870   25.1580 C   0  0  1  0  0  0  0  0  0  0  0  0
  -25.3030  -31.5550   26.2220 C   0  0  0  0  0  1  0  0  0  0  0  0
  -26.9860  -30.4070   24.7780 C   0  0  0  0  0  1  0  0  0  0  0  0
  -27.5500  -32.5830   25.8240 C   0  0  0  0  0  1  0  0  0  0  0  0
  1  3  2  0
  1  4  1  0
  2  5  1  0
  2  1  1  0
  5 10  1  0
  5  4  1  0
  6  2  2  0
  8  7  2  0
  9  7  1  0
 10  8  1  0
 11  9  2  0
 12 10  2  0
 12 11  1  0
 13 12  1  0
 14 22  1  0
 15 20  1  0
 16 17  1  0
 16 15  1  0
 18 17  1  0
 18 27  1  0
 18 19  1  0
 20 14  1  0
 20 19  1  0
 21 14  2  0
 22 23  1  0
 22 11  1  0
 24 25  2  0
 25 44  1  0
 26 25  1  0
 26 29  1  0
 27 24  1  0
 27 28  1  0
 28 26  2  0
 29 30  1  0
 30 31  2  0
 32 35  1  0
 32 31  1  0
 33 32  2  0
 34 33  1  0
 34 29  2  0
 35 36  1  0
 36 37  1  0
 37 38  2  0
 39 38  1  0
 39 43  1  0
 40 39  2  0
 41 36  2  0
 41 40  1  0
 42 41  1  0
 44 45  1  0
 45 48  1  0
 45 47  1  0
 46 44  2  0
 49 50  1  0
 49 24  1  0
 51 49  1  0
 52  3  1  0
 53 64  2  0
 54 52  1  0
 54 59  1  0
 55 63  1  0
 55 65  1  0
 56 62  1  0
 56 58  1  0
 57 63  1  0
 58 59  2  0
 58 57  1  0
 60 54  2  0
 61 60  1  0
 61 56  2  0
 62 55  1  0
 63 53  1  0
 65 67  2  0
 66 65  1  0
 68 66  1  0
 69 78  2  0
 69 74  1  0
 70 66  1  0
 70 74  1  0
 71 70  1  0
 72 73  1  0
 72 71  1  0
 73 69  1  0
 74 75  2  0
 75 76  1  0
 77 76  2  0
 78 77  1  0
 79 53  1  0
 79 80  1  0
 79 89  1  0
 80 83  1  0
 81 85  1  0
 81 80  1  0
 82 81  2  0
 85 84  1  0
 87 85  1  0
 87 88  1  0
 87 86  1  0
 89 92  1  1
 89 90  1  0
 91 89  1  0
M  ISO  4   3 101  14 100  22 100  52 101
M  END
>  <TORSDO>  (18) 
F 17

>  <SCORE>  (18) 
-15.413

>  <name>  (18) 
17

>  <ligand_id>  (18) 
17

>  <original_smiles>  (18) 
[H]C(Oc1c([H])c([H])c2c(c1[H])C([H])([H])N(C(=O)C([H])(N([H])C(=O)C([H])(N([H])C([H])([H])[H])C([H])([H])[H])C(C([H])([H])[H])(C([H])([H])[H])C([H])([H])[H])C([H])(C(=O)N([H])C1([H])c3c([H])c([H])c([H])c([H])c3C([H])([H])C([H])([H])C1([H])[H])C2([H])[H])=C1C(=O)N(c2c([H])c([H])c([H])c(N([H])C(=O)N3C([H])([H])C([H])([H])C([H])([H])C([H])(n4nc(-c5c([H])c([H])c(Oc6c([H])c([H])c(F)c([H])c6F)c([H])c5[H])c(C(=O)N([H])[H])c4N([H])[H])C3([H])[H])c2F)C1([H])[H]

>  <smiles>  (18) 
[H]C(Oc1c([H])c([H])c2c(c1[H])C([H])([H])N(C(=O)C([H])(N([H])C(=O)C([H])(N([H])C([H])([H])[H])C([H])([H])[H])C(C([H])([H])[H])(C([H])([H])[H])C([H])([H])[H])C([H])(C(=O)N([H])C1([H])c3c([H])c([H])c([H])c([H])c3C([H])([H])C([H])([H])C1([H])[H])C2([H])[H])=C1C(=O)N(c2c([H])c([H])c([H])c(N([H])C(=O)N3C([H])([H])C([H])([H])C([H])([H])C([H])(n4nc(-c5c([H])c([H])c(Oc6c([H])c([H])c(F)c([H])c6F)c([H])c5[H])c(C(=O)N([H])[H])c4N([H])[H])C3([H])[H])c2F)C1([H])[H]

$$$$
18:0:0
     RDKit          3D

 96105  0  0  1  0  0  0  0  0999 V2000
  -28.8630  -23.9580   20.3220 C   0  0  0  0  0  0  0  0  0  0  0  0
  -30.2880  -23.9510   20.0790 C   0  0  0  0  0  0  0  0  0  0  0  0
  -28.4590  -22.5390   20.4900 C   0  0  0  0  0  0  0  0  0  0  0  0
  -28.0240  -25.0570   20.3990 C   0  0  0  0  0  3  0  0  0  0  0  0
  -30.7730  -22.5040   20.1630 C   0  0  0  0  0  2  0  0  0  0  0  0
  -29.5520  -21.7010   20.3590 N   0  0  0  0  0  0  0  0  0  0  0  0
  -31.0280  -24.9160   19.8570 O   0  0  0  0  0  0  0  0  0  0  0  0
  -27.3070  -22.1500   20.7180 O   0  0  0  0  0  0  0  0  0  0  0  0
  -30.8080  -19.5120   20.7990 C   0  0  0  0  0  3  0  0  0  0  0  0
  -30.8990  -18.0810   20.8510 C   0  0  0  0  0  3  0  0  0  0  0  0
  -28.5400  -19.3630   20.0380 C   0  0  0  0  0  3  0  0  0  0  0  0
  -29.6190  -20.2130   20.4140 C   0  0  0  0  0  0  0  0  0  0  0  0
  -29.8060  -17.2490   20.4900 C   0  0  0  0  0  0  0  0  0  0  0  0
  -28.6390  -17.9360   20.0560 C   0  0  0  0  0  0  0  0  0  0  0  0
  -30.5700  -14.7340   20.3830 C   0  0  0  0  0  0  0  0  0  0  0  0
  -30.3840  -12.4750   19.3440 C   0  0  0  0  0  2  0  0  0  0  0  0
  -29.4270  -12.5780   18.1330 C   0  0  0  0  0  2  0  0  0  0  0  0
  -27.9580  -12.4090   18.5730 C   0  0  0  0  0  2  0  0  0  0  0  0
  -27.5980  -13.2760   19.8080 C   0  0  0  0  0  3  0  0  0  0  0  0
  -28.6690  -13.1430   20.9150 C   0  0  0  0  0  2  0  0  0  0  0  0
  -29.9680  -13.4980   20.3220 N   0  0  0  0  0  0  0  0  0  0  0  0
  -31.7460  -14.8880   20.0440 O   0  0  0  0  0  0  0  0  0  0  0  0
  -29.7230  -15.7870   20.6270 N   0  0  0  0  0  0  0  0  0  0  0  0
  -28.7720  -15.4840   20.7670 H   0  0  0  0  0  0  0  0  0  0  0  0
  -25.2090  -13.8670   20.5520 C   0  0  0  0  0  0  0  0  0  0  0  0
  -24.1440  -13.0900   20.9150 C   0  0  0  0  0  0  0  0  0  0  0  0
  -24.6080  -11.7400   20.8700 C   0  0  0  0  0  0  0  0  0  0  0  0
  -26.2550  -12.9910   20.3030 N   0  0  0  0  0  0  0  0  0  0  0  0
  -25.8970  -11.7050   20.5570 N   0  0  0  0  0  0  0  0  0  0  0  0
  -23.8820  -10.4780   21.0550 C   0  0  0  0  0  0  0  0  0  0  0  0
  -24.3150   -9.5050   21.9830 C   0  0  0  0  0  3  0  0  0  0  0  0
  -23.5890   -8.3070   22.1550 C   0  0  0  0  0  3  0  0  0  0  0  0
  -22.4150   -8.0740   21.4010 C   0  0  0  0  0  0  0  0  0  0  0  0
  -22.0000   -9.0350   20.4630 C   0  0  0  0  0  3  0  0  0  0  0  0
  -22.7270  -10.2250   20.2890 C   0  0  0  0  0  3  0  0  0  0  0  0
  -21.6600   -6.9290   21.4830 O   0  0  0  0  0  0  0  0  0  0  0  0
  -21.6080   -6.1830   22.6340 C   0  0  0  0  0  0  0  0  0  0  0  0
  -21.1640   -6.7310   23.8570 C   0  0  0  0  0  3  0  0  0  0  0  0
  -21.0600   -5.9110   24.9980 C   0  0  0  0  0  3  0  0  0  0  0  0
  -21.3870   -4.5440   24.9180 C   0  0  0  0  0  0  0  0  0  0  0  0
  -21.8240   -3.9960   23.6990 C   0  0  0  0  0  3  0  0  0  0  0  0
  -21.9300   -4.8130   22.5590 C   0  0  0  0  0  0  0  0  0  0  0  0
  -22.3310   -4.2760   21.3820 F   0  0  0  0  0  0  0  0  0  0  0  0
  -21.2800   -3.7550   26.0110 F   0  0  0  0  0  0  0  0  0  0  0  0
  -22.7480  -13.5660   21.1980 C   0  0  0  0  0  0  0  0  0  0  0  0
  -22.0280  -12.8680   22.0680 N   0  0  0  0  0  0  0  0  0  0  0  0
  -22.3070  -14.5940   20.6850 O   0  0  0  0  0  0  0  0  0  0  0  0
  -22.3980  -12.0370   22.5050 H   0  0  0  0  0  0  0  0  0  0  0  0
  -21.0920  -13.1690   22.3000 H   0  0  0  0  0  0  0  0  0  0  0  0
  -25.3580  -15.2410   20.4000 N   0  0  0  0  0  0  0  0  0  0  0  0
  -24.5790  -15.8700   20.5560 H   0  0  0  0  0  0  0  0  0  0  0  0
  -26.2150  -15.7490   20.1790 H   0  0  0  0  0  0  0  0  0  0  0  0
  -27.5660  -17.1780   19.5930 N   0  0  0  0  0  0  0  0  0  0  0  0
  -26.8310  -17.7240   19.1550 H   0  0  0  0  0  0  0  0  0  0  0  0
  -27.8590  -16.4460   18.9550 H   0  0  0  0  0  0  0  0  0  0  0  0
  -28.2890  -26.4440   20.2270 O   0  0  0  0  0  0  0  0  0  0  0  0
  -24.6360  -31.9250   23.2560 C   0  0  0  0  0  0  0  0  0  0  0  0
  -27.2010  -27.3400   20.1850 C   0  0  0  0  0  0  0  0  0  0  0  0
  -23.4160  -30.5370   21.6200 C   0  0  0  0  0  3  0  0  0  0  0  0
  -24.8510  -28.9820   20.1810 C   0  0  0  0  0  0  0  0  0  0  0  0
  -25.9580  -30.8340   21.4290 C   0  0  0  0  0  2  0  0  0  0  0  0
  -26.0250  -29.4540   20.7820 C   0  0  0  0  0  0  0  0  0  0  0  0
  -27.2020  -28.6410   20.7820 C   0  0  0  0  0  3  0  0  0  0  0  0
  -26.0100  -26.9400   19.5350 C   0  0  0  0  0  3  0  0  0  0  0  0
  -24.8460  -27.7310   19.5480 C   0  0  0  0  0  3  0  0  0  0  0  0
  -23.6200  -29.8630   20.2370 C   0  0  0  0  0  2  0  0  0  0  0  0
  -24.6890  -31.1160   22.1580 N   0  0  0  0  0  0  0  0  0  0  0  0
  -23.5580  -32.2110   23.7960 O   0  0  0  0  0  0  0  0  0  0  0  0
  -22.7500  -29.5250   22.5820 C   0  0  0  0  0  0  0  0  0  0  0  0
  -21.4220  -29.3540   22.4580 N   0  0  0  0  0  0  0  0  0  0  0  0
  -23.4270  -28.8950   23.3990 O   0  0  0  0  0  0  0  0  0  0  0  0
  -20.9350  -29.9140   21.7720 H   0  0  0  0  0  0  0  0  0  0  0  0
  -18.0400  -28.1710   22.9660 C   0  0  0  0  0  0  0  0  0  0  0  0
  -20.6000  -28.4210   23.2320 C   0  0  0  0  0  3  0  0  0  0  0  0
  -20.6950  -26.9880   22.6600 C   0  0  0  0  0  2  0  0  0  0  0  0
  -19.5910  -26.6660   21.6480 C   0  0  0  0  0  2  0  0  0  0  0  0
  -18.2100  -26.8190   22.2940 C   0  0  0  0  0  2  0  0  0  0  0  0
  -19.1620  -28.9310   23.3920 C   0  0  0  0  0  0  0  0  0  0  0  0
  -18.9490  -30.1950   23.9820 C   0  0  0  0  0  3  0  0  0  0  0  0
  -17.6460  -30.7020   24.1470 C   0  0  0  0  0  3  0  0  0  0  0  0
  -16.5380  -29.9400   23.7360 C   0  0  0  0  0  3  0  0  0  0  0  0
  -16.7370  -28.6770   23.1510 C   0  0  0  0  0  3  0  0  0  0  0  0
  -25.9270  -32.5490   23.8730 C   0  0  0  0  0  3  0  0  0  0  0  0
  -25.6260  -33.9470   24.2120 N   0  0  0  0  0  0  0  0  0  0  0  0
  -25.9320  -35.0010   23.4420 C   0  0  0  0  0  0  0  0  0  0  0  0
  -26.5670  -34.8980   22.3890 O   0  0  0  0  0  0  0  0  0  0  0  0
  -25.0590  -34.1010   25.0320 H   0  0  0  0  0  0  0  0  0  0  0  0
  -24.1800  -36.7840   23.1610 C   0  0  0  0  0  1  0  0  0  0  0  0
  -25.4590  -36.3890   23.9160 C   0  0  0  0  0  3  0  0  0  0  0  0
  -27.6250  -37.2890   24.6440 C   0  0  0  0  0  1  0  0  0  0  0  0
  -26.4800  -37.4460   23.7510 N   0  0  0  0  0  0  0  0  0  0  0  0
  -26.0770  -38.3650   23.9110 H   0  0  0  0  0  0  0  0  0  0  0  0
  -26.4470  -31.7680   25.1420 C   0  0  1  0  0  0  0  0  0  0  0  0
  -25.3600  -31.5330   26.2160 C   0  0  0  0  0  1  0  0  0  0  0  0
  -27.0180  -30.3890   24.7410 C   0  0  0  0  0  1  0  0  0  0  0  0
  -27.6070  -32.5540   25.7990 C   0  0  0  0  0  1  0  0  0  0  0  0
  1  4  2  0
  1  3  1  0
  2  5  1  0
  2  1  1  0
  3  8  2  0
  5  6  1  0
  6 12  1  0
  6  3  1  0
  7  2  2  0
  9 10  1  0
 11 14  2  0
 11 12  1  0
 12  9  2  0
 13 23  1  0
 13 10  2  0
 14 13  1  0
 15 23  1  0
 16 21  1  0
 17 18  1  0
 17 16  1  0
 19 18  1  0
 19 28  1  0
 19 20  1  0
 21 15  1  0
 21 20  1  0
 22 15  2  0
 23 24  1  0
 25 26  2  0
 26 45  1  0
 27 26  1  0
 27 30  1  0
 28 25  1  0
 28 29  1  0
 29 27  2  0
 30 31  1  0
 31 32  2  0
 33 36  1  0
 33 32  1  0
 34 33  2  0
 35 34  1  0
 35 30  2  0
 36 37  1  0
 37 38  1  0
 38 39  2  0
 40 39  1  0
 40 44  1  0
 41 40  2  0
 42 37  2  0
 42 41  1  0
 43 42  1  0
 45 46  1  0
 46 49  1  0
 46 48  1  0
 47 45  2  0
 50 25  1  0
 50 51  1  0
 52 50  1  0
 53 14  1  0
 54 53  1  0
 55 53  1  0
 56  4  1  0
 57 68  2  0
 58 56  1  0
 58 63  1  0
 59 67  1  0
 59 69  1  0
 60 66  1  0
 60 62  1  0
 61 67  1  0
 62 63  2  0
 62 61  1  0
 64 65  1  0
 64 58  2  0
 65 60  2  0
 66 59  1  0
 67 57  1  0
 69 71  2  0
 70 69  1  0
 72 70  1  0
 73 82  2  0
 73 78  1  0
 74 70  1  0
 74 78  1  0
 75 74  1  0
 76 77  1  0
 76 75  1  0
 77 73  1  0
 78 79  2  0
 79 80  1  0
 81 80  2  0
 82 81  1  0
 83 57  1  0
 83 84  1  0
 83 93  1  0
 84 87  1  0
 85 89  1  0
 85 84  1  0
 86 85  2  0
 89 88  1  0
 91 92  1  0
 91 89  1  0
 91 90  1  0
 93 96  1  1
 93 94  1  0
 95 93  1  0
M  ISO  4   4 101  15 100  23 100  56 101
M  END
>  <TORSDO>  (19) 
F 18

>  <SCORE>  (19) 
-15.346

>  <name>  (19) 
18

>  <ligand_id>  (19) 
18

>  <original_smiles>  (19) 
[H]C(Oc1c([H])c([H])c2c(c1[H])C([H])([H])N(C(=O)C([H])(N([H])C(=O)C([H])(N([H])C([H])([H])[H])C([H])([H])[H])C(C([H])([H])[H])(C([H])([H])[H])C([H])([H])[H])C([H])(C(=O)N([H])C1([H])c3c([H])c([H])c([H])c([H])c3C([H])([H])C([H])([H])C1([H])[H])C2([H])[H])=C1C(=O)N(c2c([H])c([H])c(N([H])C(=O)N3C([H])([H])C([H])([H])C([H])([H])C([H])(n4nc(-c5c([H])c([H])c(Oc6c([H])c([H])c(F)c([H])c6F)c([H])c5[H])c(C(=O)N([H])[H])c4N([H])[H])C3([H])[H])c(N([H])[H])c2[H])C([H])([H])C1=O

>  <smiles>  (19) 
[H]C(Oc1c([H])c([H])c2c(c1[H])C([H])([H])N(C(=O)C([H])(N([H])C(=O)C([H])(N([H])C([H])([H])[H])C([H])([H])[H])C(C([H])([H])[H])(C([H])([H])[H])C([H])([H])[H])C([H])(C(=O)N([H])C1([H])c3c([H])c([H])c([H])c([H])c3C([H])([H])C([H])([H])C1([H])[H])C2([H])[H])=C1C(=O)N(c2c([H])c([H])c(N([H])C(=O)N3C([H])([H])C([H])([H])C([H])([H])C([H])(n4nc(-c5c([H])c([H])c(Oc6c([H])c([H])c(F)c([H])c6F)c([H])c5[H])c(C(=O)N([H])[H])c4N([H])[H])C3([H])[H])c(N([H])[H])c2[H])C([H])([H])C1=O

$$$$
19:0:0
     RDKit          3D

 92101  0  0  1  0  0  0  0  0999 V2000
  -28.5250  -23.6620   20.3990 C   0  0  0  0  0  0  0  0  0  0  0  0
  -28.1030  -22.3290   20.8960 C   0  0  0  0  0  0  0  0  0  0  0  0
  -27.9510  -24.9400   20.5920 C   0  0  0  0  0  3  0  0  0  0  0  0
  -29.7120  -22.9490   19.6980 C   0  0  0  0  0  2  0  0  0  0  0  0
  -29.1740  -21.6510   20.2430 N   0  0  0  0  0  0  0  0  0  0  0  0
  -27.1740  -22.0120   21.6090 O   0  0  0  0  0  0  0  0  0  0  0  0
  -29.4620  -18.8750   20.4120 C   0  0  0  0  0  3  0  0  0  0  0  0
  -30.9930  -20.3030   19.2480 C   0  0  0  0  0  3  0  0  0  0  0  0
  -31.3710  -17.8800   19.2910 C   0  0  0  0  0  3  0  0  0  0  0  0
  -29.8030  -20.2730   20.0170 C   0  0  0  0  0  0  0  0  0  0  0  0
  -30.2270  -17.6380   20.0830 C   0  0  0  0  0  0  0  0  0  0  0  0
  -31.7440  -19.1690   18.8900 C   0  0  0  0  0  0  0  0  0  0  0  0
  -32.8550  -19.3270   18.1310 F   0  0  0  0  0  0  0  0  0  0  0  0
  -30.6460  -14.9810   20.2800 C   0  0  0  0  0  0  0  0  0  0  0  0
  -30.4650  -12.6560   19.3340 C   0  0  0  0  0  2  0  0  0  0  0  0
  -29.5290  -12.6620   18.1050 C   0  0  0  0  0  2  0  0  0  0  0  0
  -28.0650  -12.4690   18.5420 C   0  0  0  0  0  2  0  0  0  0  0  0
  -27.6760  -13.3740   19.7430 C   0  0  0  0  0  3  0  0  0  0  0  0
  -28.7410  -13.3590   20.8610 C   0  0  0  0  0  2  0  0  0  0  0  0
  -30.0160  -13.7450   20.2450 N   0  0  0  0  0  0  0  0  0  0  0  0
  -31.8490  -14.9990   20.0090 O   0  0  0  0  0  0  0  0  0  0  0  0
  -29.9070  -16.1840   20.4360 N   0  0  0  0  0  0  0  0  0  0  0  0
  -28.9640  -16.0290   20.7590 H   0  0  0  0  0  0  0  0  0  0  0  0
  -25.2990  -13.9380   20.5080 C   0  0  0  0  0  0  0  0  0  0  0  0
  -24.2400  -13.1550   20.8780 C   0  0  0  0  0  0  0  0  0  0  0  0
  -24.7090  -11.8060   20.8290 C   0  0  0  0  0  0  0  0  0  0  0  0
  -26.3430  -13.0660   20.2490 N   0  0  0  0  0  0  0  0  0  0  0  0
  -25.9980  -11.7780   20.5090 N   0  0  0  0  0  0  0  0  0  0  0  0
  -23.9880  -10.5400   21.0100 C   0  0  0  0  0  0  0  0  0  0  0  0
  -24.4030   -9.5800   21.9590 C   0  0  0  0  0  3  0  0  0  0  0  0
  -23.6800   -8.3790   22.1290 C   0  0  0  0  0  3  0  0  0  0  0  0
  -22.5250   -8.1300   21.3480 C   0  0  0  0  0  0  0  0  0  0  0  0
  -22.1300   -9.0790   20.3890 C   0  0  0  0  0  3  0  0  0  0  0  0
  -22.8540  -10.2710   20.2180 C   0  0  0  0  0  3  0  0  0  0  0  0
  -21.7750   -6.9830   21.4270 O   0  0  0  0  0  0  0  0  0  0  0  0
  -21.6760   -6.2650   22.5910 C   0  0  0  0  0  0  0  0  0  0  0  0
  -21.1570   -6.8340   23.7760 C   0  0  0  0  0  3  0  0  0  0  0  0
  -21.0080   -6.0420   24.9310 C   0  0  0  0  0  3  0  0  0  0  0  0
  -21.3660   -4.6810   24.9040 C   0  0  0  0  0  0  0  0  0  0  0  0
  -21.8770   -4.1110   23.7240 C   0  0  0  0  0  3  0  0  0  0  0  0
  -22.0290   -4.9010   22.5710 C   0  0  0  0  0  0  0  0  0  0  0  0
  -22.5010   -4.3410   21.4320 F   0  0  0  0  0  0  0  0  0  0  0  0
  -21.2160   -3.9170   26.0110 F   0  0  0  0  0  0  0  0  0  0  0  0
  -22.8440  -13.6250   21.1610 C   0  0  0  0  0  0  0  0  0  0  0  0
  -22.1220  -12.9150   22.0220 N   0  0  0  0  0  0  0  0  0  0  0  0
  -22.4010  -14.6550   20.6560 O   0  0  0  0  0  0  0  0  0  0  0  0
  -22.4940  -12.0820   22.4530 H   0  0  0  0  0  0  0  0  0  0  0  0
  -21.1850  -13.2110   22.2550 H   0  0  0  0  0  0  0  0  0  0  0  0
  -25.4540  -15.3120   20.3430 N   0  0  0  0  0  0  0  0  0  0  0  0
  -24.6830  -15.9580   20.4760 H   0  0  0  0  0  0  0  0  0  0  0  0
  -26.2880  -15.7610   19.9890 H   0  0  0  0  0  0  0  0  0  0  0  0
  -28.2670  -26.3010   20.1920 O   0  0  0  0  0  0  0  0  0  0  0  0
  -24.6060  -31.9080   23.2230 C   0  0  0  0  0  0  0  0  0  0  0  0
  -27.2200  -27.2740   20.1610 C   0  0  0  0  0  0  0  0  0  0  0  0
  -23.4130  -30.5100   21.5800 C   0  0  0  0  0  3  0  0  0  0  0  0
  -24.8730  -28.9640   20.1420 C   0  0  0  0  0  0  0  0  0  0  0  0
  -25.9610  -30.8110   21.4080 C   0  0  0  0  0  2  0  0  0  0  0  0
  -26.0460  -29.4260   20.7530 C   0  0  0  0  0  0  0  0  0  0  0  0
  -27.2240  -28.5950   20.7510 C   0  0  0  0  0  3  0  0  0  0  0  0
  -26.0250  -26.9060   19.5060 C   0  0  0  0  0  3  0  0  0  0  0  0
  -24.8710  -27.7140   19.5060 C   0  0  0  0  0  3  0  0  0  0  0  0
  -23.6370  -29.8450   20.1960 C   0  0  0  0  0  2  0  0  0  0  0  0
  -24.6800  -31.0970   22.1250 N   0  0  0  0  0  0  0  0  0  0  0  0
  -23.5200  -32.1790   23.7560 O   0  0  0  0  0  0  0  0  0  0  0  0
  -22.7500  -29.4890   22.5370 C   0  0  0  0  0  0  0  0  0  0  0  0
  -21.4230  -29.3060   22.4130 N   0  0  0  0  0  0  0  0  0  0  0  0
  -23.4300  -28.8630   23.3550 O   0  0  0  0  0  0  0  0  0  0  0  0
  -20.9310  -29.8630   21.7290 H   0  0  0  0  0  0  0  0  0  0  0  0
  -18.0520  -28.0840   22.9210 C   0  0  0  0  0  0  0  0  0  0  0  0
  -20.6100  -28.3600   23.1810 C   0  0  0  0  0  3  0  0  0  0  0  0
  -20.7180  -26.9310   22.5990 C   0  0  0  0  0  2  0  0  0  0  0  0
  -19.6150  -26.6060   21.5870 C   0  0  0  0  0  2  0  0  0  0  0  0
  -18.2340  -26.7400   22.2370 C   0  0  0  0  0  2  0  0  0  0  0  0
  -19.1670  -28.8510   23.3500 C   0  0  0  0  0  0  0  0  0  0  0  0
  -18.9410  -30.1090   23.9520 C   0  0  0  0  0  3  0  0  0  0  0  0
  -17.6340  -30.5990   24.1280 C   0  0  0  0  0  3  0  0  0  0  0  0
  -16.5330  -29.8290   23.7130 C   0  0  0  0  0  3  0  0  0  0  0  0
  -16.7440  -28.5740   23.1160 C   0  0  0  0  0  3  0  0  0  0  0  0
  -25.8820  -32.5500   23.8490 C   0  0  0  0  0  3  0  0  0  0  0  0
  -25.5610  -33.9470   24.1820 N   0  0  0  0  0  0  0  0  0  0  0  0
  -25.8790  -35.0050   23.4240 C   0  0  0  0  0  0  0  0  0  0  0  0
  -26.5390  -34.9090   22.3870 O   0  0  0  0  0  0  0  0  0  0  0  0
  -24.9720  -34.0940   24.9880 H   0  0  0  0  0  0  0  0  0  0  0  0
  -24.1360  -36.7910   23.0930 C   0  0  0  0  0  1  0  0  0  0  0  0
  -25.3870  -36.3890   23.8920 C   0  0  0  0  0  3  0  0  0  0  0  0
  -27.5180  -37.2910   24.7120 C   0  0  0  0  0  1  0  0  0  0  0  0
  -26.4110  -37.4500   23.7740 N   0  0  0  0  0  0  0  0  0  0  0  0
  -25.9990  -38.3660   23.9220 H   0  0  0  0  0  0  0  0  0  0  0  0
  -26.3990  -31.7830   25.1280 C   0  0  1  0  0  0  0  0  0  0  0  0
  -25.3030  -31.5400   26.1930 C   0  0  0  0  0  1  0  0  0  0  0  0
  -26.9910  -30.4080   24.7420 C   0  0  0  0  0  1  0  0  0  0  0  0
  -27.5400  -32.5850   25.7940 C   0  0  0  0  0  1  0  0  0  0  0  0
  1  3  2  0
  1  2  1  0
  2  6  2  0
  4  5  1  0
  4  1  1  0
  5  2  1  0
  8 10  1  0
  9 11  2  0
 10  5  1  0
 10  7  2  0
 11  7  1  0
 11 22  1  0
 12  8  2  0
 12  9  1  0
 13 12  1  0
 14 22  1  0
 15 20  1  0
 16 17  1  0
 16 15  1  0
 18 17  1  0
 18 27  1  0
 18 19  1  0
 20 14  1  0
 20 19  1  0
 21 14  2  0
 22 23  1  0
 24 25  2  0
 25 44  1  0
 26 25  1  0
 26 29  1  0
 27 24  1  0
 27 28  1  0
 28 26  2  0
 29 30  1  0
 30 31  2  0
 32 35  1  0
 32 31  1  0
 33 32  2  0
 34 33  1  0
 34 29  2  0
 35 36  1  0
 36 37  1  0
 37 38  2  0
 39 38  1  0
 39 43  1  0
 40 39  2  0
 41 36  2  0
 41 40  1  0
 42 41  1  0
 44 45  1  0
 45 48  1  0
 45 47  1  0
 46 44  2  0
 49 50  1  0
 49 24  1  0
 51 49  1  0
 52  3  1  0
 53 64  2  0
 54 52  1  0
 54 59  1  0
 55 63  1  0
 55 65  1  0
 56 62  1  0
 56 58  1  0
 57 63  1  0
 58 57  1  0
 59 58  2  0
 60 61  1  0
 60 54  2  0
 61 56  2  0
 62 55  1  0
 63 53  1  0
 65 67  2  0
 66 65  1  0
 68 66  1  0
 69 78  2  0
 69 74  1  0
 70 66  1  0
 70 74  1  0
 71 70  1  0
 72 73  1  0
 72 71  1  0
 73 69  1  0
 74 75  2  0
 75 76  1  0
 77 76  2  0
 78 77  1  0
 79 53  1  0
 79 80  1  0
 79 89  1  0
 80 83  1  0
 81 85  1  0
 81 80  1  0
 82 81  2  0
 85 84  1  0
 87 85  1  0
 87 88  1  0
 87 86  1  0
 89 92  1  1
 89 90  1  0
 91 89  1  0
M  ISO  4   3 101  14 100  22 100  52 101
M  END
>  <TORSDO>  (20) 
F 17

>  <SCORE>  (20) 
-14.984

>  <name>  (20) 
19

>  <ligand_id>  (20) 
19

>  <original_smiles>  (20) 
[H]C(Oc1c([H])c([H])c2c(c1[H])C([H])([H])N(C(=O)C([H])(N([H])C(=O)C([H])(N([H])C([H])([H])[H])C([H])([H])[H])C(C([H])([H])[H])(C([H])([H])[H])C([H])([H])[H])C([H])(C(=O)N([H])C1([H])c3c([H])c([H])c([H])c([H])c3C([H])([H])C([H])([H])C1([H])[H])C2([H])[H])=C1C(=O)N(c2c([H])c(F)c([H])c(N([H])C(=O)N3C([H])([H])C([H])([H])C([H])([H])C([H])(n4nc(-c5c([H])c([H])c(Oc6c([H])c([H])c(F)c([H])c6F)c([H])c5[H])c(C(=O)N([H])[H])c4N([H])[H])C3([H])[H])c2[H])C1([H])[H]

>  <smiles>  (20) 
[H]C(Oc1c([H])c([H])c2c(c1[H])C([H])([H])N(C(=O)C([H])(N([H])C(=O)C([H])(N([H])C([H])([H])[H])C([H])([H])[H])C(C([H])([H])[H])(C([H])([H])[H])C([H])([H])[H])C([H])(C(=O)N([H])C1([H])c3c([H])c([H])c([H])c([H])c3C([H])([H])C([H])([H])C1([H])[H])C2([H])[H])=C1C(=O)N(c2c([H])c(F)c([H])c(N([H])C(=O)N3C([H])([H])C([H])([H])C([H])([H])C([H])(n4nc(-c5c([H])c([H])c(Oc6c([H])c([H])c(F)c([H])c6F)c([H])c5[H])c(C(=O)N([H])[H])c4N([H])[H])C3([H])[H])c2[H])C1([H])[H]

$$$$
20:0:0
     RDKit          3D

 96105  0  0  1  0  0  0  0  0999 V2000
  -28.4820  -21.6590   20.0270 C   0  0  0  0  0  2  0  0  0  0  0  0
  -28.6980  -25.2950   20.7410 C   0  0  0  0  0  0  0  0  0  0  0  0
  -28.4310  -24.1920   19.8270 C   0  0  0  0  0  0  0  0  0  0  0  0
  -28.5290  -26.6180   20.5000 C   0  0  0  0  0  3  0  0  0  0  0  0
  -29.1510  -24.7620   22.0730 C   0  0  0  0  0  3  0  0  0  0  0  0
  -29.0560  -23.2470   21.9040 C   0  0  0  0  0  3  0  0  0  0  0  0
  -28.6430  -23.0460   20.5160 N   0  0  0  0  0  0  0  0  0  0  0  0
  -28.0710  -24.2510   18.6480 O   0  0  0  0  0  0  0  0  0  0  0  0
  -28.0580  -27.2020   19.3490 O   0  0  0  0  0  0  0  0  0  0  0  0
  -24.5840  -32.0040   23.3330 C   0  0  0  0  0  0  0  0  0  0  0  0
  -26.9390  -27.9820   19.5260 C   0  0  0  0  0  0  0  0  0  0  0  0
  -23.2330  -30.7740   21.6640 C   0  0  0  0  0  3  0  0  0  0  0  0
  -24.5510  -29.4350   19.9350 C   0  0  0  0  0  0  0  0  0  0  0  0
  -25.7250  -31.1980   21.2680 C   0  0  0  0  0  2  0  0  0  0  0  0
  -25.7570  -29.9090   20.4690 C   0  0  0  0  0  0  0  0  0  0  0  0
  -26.9580  -29.1890   20.2640 C   0  0  0  0  0  3  0  0  0  0  0  0
  -25.7210  -27.5240   18.9870 C   0  0  0  0  0  3  0  0  0  0  0  0
  -24.5270  -28.2400   19.1910 C   0  0  0  0  0  3  0  0  0  0  0  0
  -23.3100  -30.2580   20.2010 C   0  0  0  0  0  2  0  0  0  0  0  0
  -24.5370  -31.3340   22.1460 N   0  0  0  0  0  0  0  0  0  0  0  0
  -23.5590  -32.1970   24.0010 O   0  0  0  0  0  0  0  0  0  0  0  0
  -22.6850  -29.6410   22.5610 C   0  0  0  0  0  0  0  0  0  0  0  0
  -21.3790  -29.3550   22.4320 N   0  0  0  0  0  0  0  0  0  0  0  0
  -23.4300  -29.0260   23.3280 O   0  0  0  0  0  0  0  0  0  0  0  0
  -20.8380  -29.9110   21.7850 H   0  0  0  0  0  0  0  0  0  0  0  0
  -18.1660  -27.7280   22.7380 C   0  0  0  0  0  0  0  0  0  0  0  0
  -20.6530  -28.3030   23.1430 C   0  0  0  0  0  3  0  0  0  0  0  0
  -20.9650  -26.9110   22.5470 C   0  0  0  0  0  2  0  0  0  0  0  0
  -19.9630  -26.4750   21.4730 C   0  0  0  0  0  2  0  0  0  0  0  0
  -18.5450  -26.4280   22.0490 C   0  0  0  0  0  2  0  0  0  0  0  0
  -19.1550  -28.6160   23.2370 C   0  0  0  0  0  0  0  0  0  0  0  0
  -18.7490  -29.8280   23.8360 C   0  0  0  0  0  3  0  0  0  0  0  0
  -17.3840  -30.1550   23.9440 C   0  0  0  0  0  3  0  0  0  0  0  0
  -16.4080  -29.2660   23.4630 C   0  0  0  0  0  3  0  0  0  0  0  0
  -16.7990  -28.0550   22.8660 C   0  0  0  0  0  3  0  0  0  0  0  0
  -25.9220  -32.5810   23.8940 C   0  0  0  0  0  3  0  0  0  0  0  0
  -26.5050  -31.7410   25.0960 C   0  0  1  0  0  0  0  0  0  0  0  0
  -25.4790  -31.4740   26.2230 C   0  0  0  0  0  1  0  0  0  0  0  0
  -27.0300  -30.3730   24.6030 C   0  0  0  0  0  1  0  0  0  0  0  0
  -27.7130  -32.4830   25.7160 C   0  0  0  0  0  1  0  0  0  0  0  0
  -25.6670  -33.9680   24.3020 N   0  0  0  0  0  0  0  0  0  0  0  0
  -26.0010  -35.0470   23.5810 C   0  0  0  0  0  0  0  0  0  0  0  0
  -26.6290  -34.9750   22.5220 O   0  0  0  0  0  0  0  0  0  0  0  0
  -25.1050  -34.0990   25.1310 H   0  0  0  0  0  0  0  0  0  0  0  0
  -24.3200  -36.9050   23.3710 C   0  0  0  0  0  1  0  0  0  0  0  0
  -25.5710  -36.4230   24.1220 C   0  0  0  0  0  3  0  0  0  0  0  0
  -27.7500  -37.2070   24.9410 C   0  0  0  0  0  1  0  0  0  0  0  0
  -26.6330  -37.4490   24.0300 N   0  0  0  0  0  0  0  0  0  0  0  0
  -26.2590  -38.3730   24.2270 H   0  0  0  0  0  0  0  0  0  0  0  0
  -29.8020  -21.1040   19.4700 C   0  0  0  0  0  0  0  0  0  0  0  0
  -30.3910  -21.7410   18.5910 O   0  0  0  0  0  0  0  0  0  0  0  0
  -29.8440  -18.5640   19.9440 C   0  0  0  0  0  3  0  0  0  0  0  0
  -31.6450  -20.0230   20.7210 C   0  0  0  0  0  3  0  0  0  0  0  0
  -31.7850  -17.6240   21.0970 C   0  0  0  0  0  3  0  0  0  0  0  0
  -30.3980  -19.8710   20.0770 C   0  0  0  0  0  0  0  0  0  0  0  0
  -30.5580  -17.4290   20.4230 C   0  0  0  0  0  0  0  0  0  0  0  0
  -32.3250  -18.9120   21.2440 C   0  0  0  0  0  0  0  0  0  0  0  0
  -33.5100  -19.0810   21.8760 F   0  0  0  0  0  0  0  0  0  0  0  0
  -30.8100  -15.0410   19.8480 C   0  0  0  0  0  0  0  0  0  0  0  0
  -30.6270  -12.7340   18.9910 C   0  0  0  0  0  2  0  0  0  0  0  0
  -29.6330  -12.6980   17.8130 C   0  0  0  0  0  2  0  0  0  0  0  0
  -28.1930  -12.5060   18.3250 C   0  0  0  0  0  2  0  0  0  0  0  0
  -27.8290  -13.4800   19.4770 C   0  0  0  0  0  3  0  0  0  0  0  0
  -28.9350  -13.5050   20.5560 C   0  0  0  0  0  2  0  0  0  0  0  0
  -30.2050  -13.8230   19.8860 N   0  0  0  0  0  0  0  0  0  0  0  0
  -31.9150  -15.2140   19.3260 O   0  0  0  0  0  0  0  0  0  0  0  0
  -30.0660  -16.0970   20.2480 N   0  0  0  0  0  0  0  0  0  0  0  0
  -29.0950  -15.9230   20.4560 H   0  0  0  0  0  0  0  0  0  0  0  0
  -25.4930  -14.0290   20.4010 C   0  0  0  0  0  0  0  0  0  0  0  0
  -24.4620  -13.2290   20.8160 C   0  0  0  0  0  0  0  0  0  0  0  0
  -24.9290  -11.8840   20.6880 C   0  0  0  0  0  0  0  0  0  0  0  0
  -26.5220  -13.1700   20.0480 N   0  0  0  0  0  0  0  0  0  0  0  0
  -26.1920  -11.8730   20.2790 N   0  0  0  0  0  0  0  0  0  0  0  0
  -24.2290  -10.6080   20.8760 C   0  0  0  0  0  0  0  0  0  0  0  0
  -24.6300   -9.6840   21.8650 C   0  0  0  0  0  3  0  0  0  0  0  0
  -23.9290   -8.4700   22.0380 C   0  0  0  0  0  3  0  0  0  0  0  0
  -22.8130   -8.1730   21.2210 C   0  0  0  0  0  0  0  0  0  0  0  0
  -22.4310   -9.0870   20.2220 C   0  0  0  0  0  3  0  0  0  0  0  0
  -23.1330  -10.2910   20.0470 C   0  0  0  0  0  3  0  0  0  0  0  0
  -22.0880   -7.0090   21.3010 O   0  0  0  0  0  0  0  0  0  0  0  0
  -21.8600   -6.3830   22.5000 C   0  0  0  0  0  0  0  0  0  0  0  0
  -21.1390   -7.0080   23.5410 C   0  0  0  0  0  3  0  0  0  0  0  0
  -20.8670   -6.3030   24.7300 C   0  0  0  0  0  3  0  0  0  0  0  0
  -21.3070   -4.9730   24.8790 C   0  0  0  0  0  0  0  0  0  0  0  0
  -22.0200   -4.3480   23.8410 C   0  0  0  0  0  3  0  0  0  0  0  0
  -22.2930   -5.0510   22.6540 C   0  0  0  0  0  0  0  0  0  0  0  0
  -22.9630   -4.4360   21.6490 F   0  0  0  0  0  0  0  0  0  0  0  0
  -21.0400   -4.2930   26.0180 F   0  0  0  0  0  0  0  0  0  0  0  0
  -23.0870  -13.6800   21.2180 C   0  0  0  0  0  0  0  0  0  0  0  0
  -22.4320  -12.9360   22.1030 N   0  0  0  0  0  0  0  0  0  0  0  0
  -22.6040  -14.7240   20.7830 O   0  0  0  0  0  0  0  0  0  0  0  0
  -22.8370  -12.0910   22.4770 H   0  0  0  0  0  0  0  0  0  0  0  0
  -21.5130  -13.2190   22.4120 H   0  0  0  0  0  0  0  0  0  0  0  0
  -25.6330  -15.4080   20.2730 N   0  0  0  0  0  0  0  0  0  0  0  0
  -24.8690  -16.0460   20.4660 H   0  0  0  0  0  0  0  0  0  0  0  0
  -26.4450  -15.8700   19.8850 H   0  0  0  0  0  0  0  0  0  0  0  0
  1  7  1  0
  2  5  1  0
  3  7  1  0
  3  2  1  0
  4  2  2  0
  6  5  2  0
  7  6  1  0
  8  3  2  0
  9 11  1  0
  9  4  1  0
 10 21  2  0
 11 16  1  0
 12 20  1  0
 12 22  1  0
 13 19  1  0
 13 15  1  0
 14 20  1  0
 15 14  1  0
 16 15  2  0
 17 18  1  0
 17 11  2  0
 18 13  2  0
 19 12  1  0
 20 10  1  0
 22 24  2  0
 23 22  1  0
 25 23  1  0
 26 35  2  0
 26 31  1  0
 27 23  1  0
 27 31  1  0
 28 27  1  0
 29 30  1  0
 29 28  1  0
 30 26  1  0
 31 32  2  0
 32 33  1  0
 34 33  2  0
 35 34  1  0
 36 10  1  0
 36 41  1  0
 36 37  1  0
 37 40  1  1
 37 38  1  0
 39 37  1  0
 41 44  1  0
 42 46  1  0
 42 41  1  0
 43 42  2  0
 46 45  1  0
 48 46  1  0
 48 49  1  0
 48 47  1  0
 50  1  1  0
 50 55  1  0
 51 50  2  0
 52 55  2  0
 52 56  1  0
 53 57  2  0
 54 57  1  0
 55 53  1  0
 56 54  2  0
 57 58  1  0
 59 65  1  0
 59 67  1  0
 60 65  1  0
 61 62  1  0
 61 60  1  0
 63 62  1  0
 63 72  1  0
 63 64  1  0
 65 64  1  0
 66 59  2  0
 67 56  1  0
 67 68  1  0
 69 70  2  0
 70 89  1  0
 71 70  1  0
 71 74  1  0
 72 73  1  0
 72 69  1  0
 73 71  2  0
 74 75  1  0
 75 76  2  0
 77 80  1  0
 77 76  1  0
 78 77  2  0
 79 78  1  0
 79 74  2  0
 80 81  1  0
 81 86  2  0
 81 82  1  0
 82 83  2  0
 83 84  1  0
 84 88  1  0
 85 84  2  0
 86 85  1  0
 87 86  1  0
 89 90  1  0
 90 93  1  0
 90 92  1  0
 91 89  2  0
 94 69  1  0
 94 95  1  0
 96 94  1  0
M  ISO  4   4 101   9 101  59 100  67 100
M  END
>  <TORSDO>  (21) 
F 19

>  <SCORE>  (21) 
-13.515

>  <name>  (21) 
20

>  <ligand_id>  (21) 
20

>  <original_smiles>  (21) 
[H]C(Oc1c([H])c([H])c2c(c1[H])C([H])([H])N(C(=O)C([H])(N([H])C(=O)C([H])(N([H])C([H])([H])[H])C([H])([H])[H])C(C([H])([H])[H])(C([H])([H])[H])C([H])([H])[H])C([H])(C(=O)N([H])C1([H])c3c([H])c([H])c([H])c([H])c3C([H])([H])C([H])([H])C1([H])[H])C2([H])[H])=C1C(=O)N(C([H])([H])C(=O)c2c([H])c(F)c([H])c(N([H])C(=O)N3C([H])([H])C([H])([H])C([H])([H])C([H])(n4nc(-c5c([H])c([H])c(Oc6c([H])c([H])c(F)c([H])c6F)c([H])c5[H])c(C(=O)N([H])[H])c4N([H])[H])C3([H])[H])c2[H])C([H])([H])C1([H])[H]

>  <smiles>  (21) 
[H]C(Oc1c([H])c([H])c2c(c1[H])C([H])([H])N(C(=O)C([H])(N([H])C(=O)C([H])(N([H])C([H])([H])[H])C([H])([H])[H])C(C([H])([H])[H])(C([H])([H])[H])C([H])([H])[H])C([H])(C(=O)N([H])C1([H])c3c([H])c([H])c([H])c([H])c3C([H])([H])C([H])([H])C1([H])[H])C2([H])[H])=C1C(=O)N(C([H])([H])C(=O)c2c([H])c(F)c([H])c(N([H])C(=O)N3C([H])([H])C([H])([H])C([H])([H])C([H])(n4nc(-c5c([H])c([H])c(Oc6c([H])c([H])c(F)c([H])c6F)c([H])c5[H])c(C(=O)N([H])[H])c4N([H])[H])C3([H])[H])c2[H])C([H])([H])C1([H])[H]

$$$$
21:0:0
     RDKit          3D

 95104  0  0  1  0  0  0  0  0999 V2000
  -28.8180  -24.1000   19.2850 C   0  0  0  0  0  0  0  0  0  0  0  0
  -29.2230  -23.3080   20.4610 C   0  0  0  0  0  0  0  0  0  0  0  0
  -28.4020  -25.4090   19.1800 C   0  0  0  0  0  3  0  0  0  0  0  0
  -28.8930  -23.2120   18.0760 C   0  0  0  0  0  3  0  0  0  0  0  0
  -29.3570  -21.8600   18.6190 C   0  0  0  0  0  3  0  0  0  0  0  0
  -29.5020  -22.0080   20.0680 N   0  0  0  0  0  0  0  0  0  0  0  0
  -29.3120  -23.7480   21.6120 O   0  0  0  0  0  0  0  0  0  0  0  0
  -29.9190  -20.8900   22.2790 C   0  0  0  0  0  3  0  0  0  0  0  0
  -30.2550  -19.7670   23.0570 C   0  0  0  0  0  3  0  0  0  0  0  0
  -30.1800  -19.5300   20.2900 C   0  0  0  0  0  3  0  0  0  0  0  0
  -30.5280  -18.3550   21.0580 C   0  0  0  0  0  0  0  0  0  0  0  0
  -29.8730  -20.8220   20.8700 C   0  0  0  0  0  0  0  0  0  0  0  0
  -30.5640  -18.5230   22.4730 C   0  0  0  0  0  0  0  0  0  0  0  0
  -30.9320  -17.4980   23.3490 N   0  0  0  0  0  0  0  0  0  0  0  0
  -30.9400  -16.5510   22.9790 H   0  0  0  0  0  0  0  0  0  0  0  0
  -30.6720  -17.5500   24.3300 H   0  0  0  0  0  0  0  0  0  0  0  0
  -30.9010  -17.0220   20.3780 C   0  0  0  0  0  3  0  0  0  0  0  0
  -30.7520  -15.8050   20.8340 N   0  0  0  0  0  0  0  0  0  0  0  0
  -31.3700  -14.7270   20.1560 C   0  0  0  0  0  0  0  0  0  0  0  0
  -30.9290  -12.5900   18.9530 C   0  0  0  0  0  2  0  0  0  0  0  0
  -29.9760  -12.8670   17.7710 C   0  0  0  0  0  2  0  0  0  0  0  0
  -28.5060  -12.7890   18.2280 C   0  0  0  0  0  2  0  0  0  0  0  0
  -28.2410  -13.6040   19.5240 C   0  0  0  0  0  3  0  0  0  0  0  0
  -29.3100  -13.3130   20.5990 C   0  0  0  0  0  2  0  0  0  0  0  0
  -30.6300  -13.5810   20.0090 N   0  0  0  0  0  0  0  0  0  0  0  0
  -32.4800  -14.8030   19.6230 O   0  0  0  0  0  0  0  0  0  0  0  0
  -25.8950  -14.3260   20.2880 C   0  0  0  0  0  0  0  0  0  0  0  0
  -24.7930  -13.6100   20.6680 C   0  0  0  0  0  0  0  0  0  0  0  0
  -25.1780  -12.2350   20.6170 C   0  0  0  0  0  0  0  0  0  0  0  0
  -26.8860  -13.3920   20.0290 N   0  0  0  0  0  0  0  0  0  0  0  0
  -26.4580  -12.1270   20.2830 N   0  0  0  0  0  0  0  0  0  0  0  0
  -24.3860  -11.0130   20.8110 C   0  0  0  0  0  0  0  0  0  0  0  0
  -24.7770  -10.0150   21.7300 C   0  0  0  0  0  3  0  0  0  0  0  0
  -23.9870   -8.8590   21.9110 C   0  0  0  0  0  3  0  0  0  0  0  0
  -22.7910   -8.6940   21.1720 C   0  0  0  0  0  0  0  0  0  0  0  0
  -22.4180   -9.6790   20.2420 C   0  0  0  0  0  3  0  0  0  0  0  0
  -23.2080  -10.8260   20.0580 C   0  0  0  0  0  3  0  0  0  0  0  0
  -21.9750   -7.5910   21.2630 O   0  0  0  0  0  0  0  0  0  0  0  0
  -21.8670   -6.8700   22.4240 C   0  0  0  0  0  0  0  0  0  0  0  0
  -21.4960   -7.4750   23.6450 C   0  0  0  0  0  3  0  0  0  0  0  0
  -21.3280   -6.6850   24.8000 C   0  0  0  0  0  3  0  0  0  0  0  0
  -21.5200   -5.2910   24.7350 C   0  0  0  0  0  0  0  0  0  0  0  0
  -21.8850   -4.6870   23.5190 C   0  0  0  0  0  3  0  0  0  0  0  0
  -22.0540   -5.4740   22.3660 C   0  0  0  0  0  0  0  0  0  0  0  0
  -22.3840   -4.8830   21.1920 F   0  0  0  0  0  0  0  0  0  0  0  0
  -21.3520   -4.5310   25.8420 F   0  0  0  0  0  0  0  0  0  0  0  0
  -23.4300  -14.1630   20.9700 C   0  0  0  0  0  0  0  0  0  0  0  0
  -22.6930  -13.5210   21.8700 N   0  0  0  0  0  0  0  0  0  0  0  0
  -23.0290  -15.2000   20.4420 O   0  0  0  0  0  0  0  0  0  0  0  0
  -23.0280  -12.6800   22.3180 H   0  0  0  0  0  0  0  0  0  0  0  0
  -21.7780  -13.8730   22.1110 H   0  0  0  0  0  0  0  0  0  0  0  0
  -26.1310  -15.6870   20.1240 N   0  0  0  0  0  0  0  0  0  0  0  0
  -25.4090  -16.3850   20.2640 H   0  0  0  0  0  0  0  0  0  0  0  0
  -27.0180  -16.0840   19.8390 H   0  0  0  0  0  0  0  0  0  0  0  0
  -28.2630  -26.4280   20.1250 O   0  0  0  0  0  0  0  0  0  0  0  0
  -24.6280  -31.8360   23.1770 C   0  0  0  0  0  0  0  0  0  0  0  0
  -27.1620  -27.2900   20.0560 C   0  0  0  0  0  0  0  0  0  0  0  0
  -23.3860  -30.4500   21.5550 C   0  0  0  0  0  3  0  0  0  0  0  0
  -24.8020  -28.8980   20.0970 C   0  0  0  0  0  0  0  0  0  0  0  0
  -25.9230  -30.7580   21.3260 C   0  0  0  0  0  2  0  0  0  0  0  0
  -25.9830  -29.3850   20.6720 C   0  0  0  0  0  0  0  0  0  0  0  0
  -27.1650  -28.5900   20.6450 C   0  0  0  0  0  3  0  0  0  0  0  0
  -25.9530  -26.8450   19.4730 C   0  0  0  0  0  3  0  0  0  0  0  0
  -24.7870  -27.6320   19.4910 C   0  0  0  0  0  3  0  0  0  0  0  0
  -23.5700  -29.7770   20.1700 C   0  0  0  0  0  2  0  0  0  0  0  0
  -24.6650  -31.0320   22.0760 N   0  0  0  0  0  0  0  0  0  0  0  0
  -23.5570  -32.1200   23.7320 O   0  0  0  0  0  0  0  0  0  0  0  0
  -22.7310  -29.4380   22.5240 C   0  0  0  0  0  0  0  0  0  0  0  0
  -21.4020  -29.2720   22.4200 N   0  0  0  0  0  0  0  0  0  0  0  0
  -23.4190  -28.8040   23.3300 O   0  0  0  0  0  0  0  0  0  0  0  0
  -20.9050  -29.8350   21.7450 H   0  0  0  0  0  0  0  0  0  0  0  0
  -18.0330  -28.0720   22.9400 C   0  0  0  0  0  0  0  0  0  0  0  0
  -20.5910  -28.3360   23.2010 C   0  0  0  0  0  3  0  0  0  0  0  0
  -20.6960  -26.9010   22.6310 C   0  0  0  0  0  2  0  0  0  0  0  0
  -19.5910  -26.5750   21.6210 C   0  0  0  0  0  2  0  0  0  0  0  0
  -18.2110  -26.7180   22.2710 C   0  0  0  0  0  2  0  0  0  0  0  0
  -19.1510  -28.8380   23.3610 C   0  0  0  0  0  0  0  0  0  0  0  0
  -18.9330  -30.1060   23.9410 C   0  0  0  0  0  3  0  0  0  0  0  0
  -17.6270  -30.6070   24.1090 C   0  0  0  0  0  3  0  0  0  0  0  0
  -16.5220  -29.8350   23.7070 C   0  0  0  0  0  3  0  0  0  0  0  0
  -16.7260  -28.5710   23.1250 C   0  0  0  0  0  3  0  0  0  0  0  0
  -25.9270  -32.4560   23.7780 C   0  0  0  0  0  3  0  0  0  0  0  0
  -26.4770  -31.6580   25.0230 C   0  0  1  0  0  0  0  0  0  0  0  0
  -25.4130  -31.3990   26.1150 C   0  0  0  0  0  1  0  0  0  0  0  0
  -27.0490  -30.2890   24.5900 C   0  0  0  0  0  1  0  0  0  0  0  0
  -27.6440  -32.4380   25.6730 C   0  0  0  0  0  1  0  0  0  0  0  0
  -25.6270  -33.8470   24.1470 N   0  0  0  0  0  0  0  0  0  0  0  0
  -25.9310  -34.9140   23.3970 C   0  0  0  0  0  0  0  0  0  0  0  0
  -26.5630  -34.8340   22.3410 O   0  0  0  0  0  0  0  0  0  0  0  0
  -25.0640  -33.9840   24.9730 H   0  0  0  0  0  0  0  0  0  0  0  0
  -24.1860  -36.7080   23.1400 C   0  0  0  0  0  1  0  0  0  0  0  0
  -25.4560  -36.2920   23.8990 C   0  0  0  0  0  3  0  0  0  0  0  0
  -27.6160  -37.1680   24.6730 C   0  0  0  0  0  1  0  0  0  0  0  0
  -26.4810  -37.3510   23.7710 N   0  0  0  0  0  0  0  0  0  0  0  0
  -26.0780  -38.2660   23.9490 H   0  0  0  0  0  0  0  0  0  0  0  0
  1  2  1  0
  2  7  2  0
  3  1  2  0
  3 55  1  0
  4  5  2  0
  4  1  1  0
  5  6  1  0
  6  2  1  0
  6 12  1  0
  8  9  1  0
 10 12  1  0
 10 11  2  0
 11 13  1  0
 12  8  2  0
 13  9  2  0
 13 14  1  0
 14 16  1  0
 15 14  1  0
 17 18  2  0
 17 11  1  0
 19 18  1  0
 20 25  1  0
 21 22  1  0
 21 20  1  0
 23 22  1  0
 23 30  1  0
 23 24  1  0
 25 19  1  0
 25 24  1  0
 26 19  2  0
 27 28  2  0
 28 47  1  0
 29 28  1  0
 29 32  1  0
 30 31  1  0
 30 27  1  0
 31 29  2  0
 32 33  1  0
 33 34  2  0
 35 38  1  0
 35 34  1  0
 36 35  2  0
 37 36  1  0
 37 32  2  0
 38 39  1  0
 39 40  1  0
 40 41  2  0
 42 41  1  0
 42 46  1  0
 43 42  2  0
 44 39  2  0
 44 43  1  0
 45 44  1  0
 47 48  1  0
 48 51  1  0
 48 50  1  0
 49 47  2  0
 52 53  1  0
 52 27  1  0
 54 52  1  0
 56 67  2  0
 57 55  1  0
 57 62  1  0
 58 66  1  0
 58 68  1  0
 59 65  1  0
 59 61  1  0
 60 66  1  0
 61 60  1  0
 62 61  2  0
 63 64  1  0
 63 57  2  0
 64 59  2  0
 65 58  1  0
 66 56  1  0
 68 70  2  0
 69 68  1  0
 71 69  1  0
 72 81  2  0
 72 77  1  0
 73 69  1  0
 73 77  1  0
 74 73  1  0
 75 76  1  0
 75 74  1  0
 76 72  1  0
 77 78  2  0
 78 79  1  0
 80 79  2  0
 81 80  1  0
 82 56  1  0
 82 87  1  0
 82 83  1  0
 83 86  1  1
 83 84  1  0
 85 83  1  0
 87 90  1  0
 88 92  1  0
 88 87  1  0
 89 88  2  0
 92 91  1  0
 94 92  1  0
 94 95  1  0
 94 93  1  0
M  ISO  4   3 101  18 100  19 100  55 101
M  END
>  <TORSDO>  (22) 
F 19

>  <SCORE>  (22) 
-12.850

>  <name>  (22) 
21

>  <ligand_id>  (22) 
21

>  <original_smiles>  (22) 
[H]C(=NC(=O)N1C([H])([H])C([H])([H])C([H])([H])C([H])(n2nc(-c3c([H])c([H])c(Oc4c([H])c([H])c(F)c([H])c4F)c([H])c3[H])c(C(=O)N([H])[H])c2N([H])[H])C1([H])[H])c1c([H])c(N2C(=O)C(=C([H])Oc3c([H])c([H])c4c(c3[H])C([H])([H])N(C(=O)C([H])(N([H])C(=O)C([H])(N([H])C([H])([H])[H])C([H])([H])[H])C(C([H])([H])[H])(C([H])([H])[H])C([H])([H])[H])C([H])(C(=O)N([H])C3([H])c5c([H])c([H])c([H])c([H])c5C([H])([H])C([H])([H])C3([H])[H])C4([H])[H])C([H])([H])C2([H])[H])c([H])c([H])c1N([H])[H]

>  <smiles>  (22) 
[H]C(=NC(=O)N1C([H])([H])C([H])([H])C([H])([H])C([H])(n2nc(-c3c([H])c([H])c(Oc4c([H])c([H])c(F)c([H])c4F)c([H])c3[H])c(C(=O)N([H])[H])c2N([H])[H])C1([H])[H])c1c([H])c(N2C(=O)C(=C([H])Oc3c([H])c([H])c4c(c3[H])C([H])([H])N(C(=O)C([H])(N([H])C(=O)C([H])(N([H])C([H])([H])[H])C([H])([H])[H])C(C([H])([H])[H])(C([H])([H])[H])C([H])([H])[H])C([H])(C(=O)N([H])C3([H])c5c([H])c([H])c([H])c([H])c5C([H])([H])C([H])([H])C3([H])[H])C4([H])[H])C([H])([H])C2([H])[H])c([H])c([H])c1N([H])[H]

$$$$
22:0:0
     RDKit          3D

 94103  0  0  1  0  0  0  0  0999 V2000
  -30.5810  -19.6810   20.8020 C   0  0  0  0  0  3  0  0  0  0  0  0
  -30.7730  -18.2470   20.7960 C   0  0  0  0  0  3  0  0  0  0  0  0
  -28.3430  -19.4040   20.1190 C   0  0  0  0  0  3  0  0  0  0  0  0
  -29.3400  -20.3450   20.5110 C   0  0  0  0  0  0  0  0  0  0  0  0
  -29.7260  -17.3430   20.4540 C   0  0  0  0  0  0  0  0  0  0  0  0
  -28.5220  -17.9850   20.0650 C   0  0  0  0  0  0  0  0  0  0  0  0
  -30.5380  -14.8010   20.3640 C   0  0  0  0  0  0  0  0  0  0  0  0
  -30.3500  -12.5280   19.3350 C   0  0  0  0  0  2  0  0  0  0  0  0
  -29.3890  -12.6190   18.1270 C   0  0  0  0  0  2  0  0  0  0  0  0
  -27.9220  -12.4520   18.5710 C   0  0  0  0  0  2  0  0  0  0  0  0
  -27.5660  -13.3280   19.8030 C   0  0  0  0  0  3  0  0  0  0  0  0
  -28.6400  -13.2040   20.9070 C   0  0  0  0  0  2  0  0  0  0  0  0
  -29.9370  -13.5630   20.3080 N   0  0  0  0  0  0  0  0  0  0  0  0
  -31.7200  -14.9430   20.0380 O   0  0  0  0  0  0  0  0  0  0  0  0
  -29.6880  -15.8660   20.5830 N   0  0  0  0  0  0  0  0  0  0  0  0
  -28.7400  -15.5490   20.7160 H   0  0  0  0  0  0  0  0  0  0  0  0
  -25.1820  -13.9310   20.5500 C   0  0  0  0  0  0  0  0  0  0  0  0
  -24.1130  -13.1610   20.9160 C   0  0  0  0  0  0  0  0  0  0  0  0
  -24.5700  -11.8100   20.8740 C   0  0  0  0  0  0  0  0  0  0  0  0
  -26.2230  -13.0490   20.3020 N   0  0  0  0  0  0  0  0  0  0  0  0
  -25.8580  -11.7660   20.5590 N   0  0  0  0  0  0  0  0  0  0  0  0
  -23.8350  -10.5530   21.0620 C   0  0  0  0  0  0  0  0  0  0  0  0
  -24.2710   -9.5730   21.9820 C   0  0  0  0  0  3  0  0  0  0  0  0
  -23.5370   -8.3820   22.1590 C   0  0  0  0  0  3  0  0  0  0  0  0
  -22.3520   -8.1610   21.4160 C   0  0  0  0  0  0  0  0  0  0  0  0
  -21.9350   -9.1290   20.4870 C   0  0  0  0  0  3  0  0  0  0  0  0
  -22.6700  -10.3120   20.3080 C   0  0  0  0  0  3  0  0  0  0  0  0
  -21.5890   -7.0220   21.5040 O   0  0  0  0  0  0  0  0  0  0  0  0
  -21.5550   -6.2650   22.6470 C   0  0  0  0  0  0  0  0  0  0  0  0
  -21.1560   -6.8080   23.8880 C   0  0  0  0  0  3  0  0  0  0  0  0
  -21.0680   -5.9770   25.0240 C   0  0  0  0  0  3  0  0  0  0  0  0
  -21.3670   -4.6060   24.9200 C   0  0  0  0  0  0  0  0  0  0  0  0
  -21.7590   -4.0630   23.6830 C   0  0  0  0  0  3  0  0  0  0  0  0
  -21.8500   -4.8900   22.5500 C   0  0  0  0  0  0  0  0  0  0  0  0
  -22.2070   -4.3580   21.3560 F   0  0  0  0  0  0  0  0  0  0  0  0
  -21.2750   -3.8070   26.0080 F   0  0  0  0  0  0  0  0  0  0  0  0
  -22.7210  -13.6480   21.1980 C   0  0  0  0  0  0  0  0  0  0  0  0
  -21.9930  -12.9530   22.0640 N   0  0  0  0  0  0  0  0  0  0  0  0
  -22.2880  -14.6810   20.6880 O   0  0  0  0  0  0  0  0  0  0  0  0
  -22.3560  -12.1170   22.5000 H   0  0  0  0  0  0  0  0  0  0  0  0
  -21.0590  -13.2590   22.2970 H   0  0  0  0  0  0  0  0  0  0  0  0
  -25.3350  -15.3030   20.3950 N   0  0  0  0  0  0  0  0  0  0  0  0
  -24.5570  -15.9350   20.5490 H   0  0  0  0  0  0  0  0  0  0  0  0
  -26.1880  -15.8080   20.1520 H   0  0  0  0  0  0  0  0  0  0  0  0
  -28.4970  -23.7960   20.5930 C   0  0  0  0  0  0  0  0  0  0  0  0
  -27.8780  -22.5430   21.0110 C   0  0  0  0  0  0  0  0  0  0  0  0
  -27.9450  -25.0720   20.6980 C   0  0  0  0  0  3  0  0  0  0  0  0
  -29.7220  -22.9770   20.0880 C   0  0  0  0  0  2  0  0  0  0  0  0
  -29.0180  -21.7920   20.6670 N   0  0  0  0  0  0  0  0  0  0  0  0
  -26.7620  -22.3090   21.4290 O   0  0  0  0  0  0  0  0  0  0  0  0
  -28.3220  -26.3960   20.3140 O   0  0  0  0  0  0  0  0  0  0  0  0
  -24.6340  -31.9470   23.2410 C   0  0  0  0  0  0  0  0  0  0  0  0
  -27.2680  -27.3400   20.2330 C   0  0  0  0  0  0  0  0  0  0  0  0
  -23.4460  -30.5380   21.6010 C   0  0  0  0  0  3  0  0  0  0  0  0
  -24.9120  -28.9830   20.1870 C   0  0  0  0  0  0  0  0  0  0  0  0
  -25.9910  -30.8460   21.4420 C   0  0  0  0  0  2  0  0  0  0  0  0
  -26.0770  -29.4620   20.8000 C   0  0  0  0  0  0  0  0  0  0  0  0
  -27.2600  -28.6500   20.8190 C   0  0  0  0  0  3  0  0  0  0  0  0
  -26.0850  -26.9430   19.5670 C   0  0  0  0  0  3  0  0  0  0  0  0
  -24.9200  -27.7300   19.5590 C   0  0  0  0  0  3  0  0  0  0  0  0
  -23.6730  -29.8580   20.2260 C   0  0  0  0  0  2  0  0  0  0  0  0
  -24.7090  -31.1290   22.1500 N   0  0  0  0  0  0  0  0  0  0  0  0
  -23.5460  -32.2280   23.7650 O   0  0  0  0  0  0  0  0  0  0  0  0
  -22.7740  -29.5270   22.5630 C   0  0  0  0  0  0  0  0  0  0  0  0
  -21.4460  -29.3600   22.4370 N   0  0  0  0  0  0  0  0  0  0  0  0
  -23.4480  -28.8980   23.3820 O   0  0  0  0  0  0  0  0  0  0  0  0
  -20.9610  -29.9180   21.7490 H   0  0  0  0  0  0  0  0  0  0  0  0
  -18.0570  -28.1960   22.9530 C   0  0  0  0  0  0  0  0  0  0  0  0
  -20.6210  -28.4290   23.2090 C   0  0  0  0  0  3  0  0  0  0  0  0
  -20.7040  -26.9980   22.6310 C   0  0  0  0  0  2  0  0  0  0  0  0
  -19.5940  -26.6880   21.6220 C   0  0  0  0  0  2  0  0  0  0  0  0
  -18.2170  -26.8470   22.2740 C   0  0  0  0  0  2  0  0  0  0  0  0
  -19.1870  -28.9450   23.3790 C   0  0  0  0  0  0  0  0  0  0  0  0
  -18.9840  -30.2090   23.9760 C   0  0  0  0  0  3  0  0  0  0  0  0
  -17.6850  -30.7220   24.1510 C   0  0  0  0  0  3  0  0  0  0  0  0
  -16.5710  -29.9690   23.7410 C   0  0  0  0  0  3  0  0  0  0  0  0
  -16.7580  -28.7080   23.1480 C   0  0  0  0  0  3  0  0  0  0  0  0
  -25.9120  -32.5860   23.8680 C   0  0  0  0  0  3  0  0  0  0  0  0
  -25.5950  -33.9840   24.1920 N   0  0  0  0  0  0  0  0  0  0  0  0
  -25.9180  -35.0350   23.4270 C   0  0  0  0  0  0  0  0  0  0  0  0
  -26.5810  -34.9310   22.3920 O   0  0  0  0  0  0  0  0  0  0  0  0
  -25.0050  -34.1400   24.9960 H   0  0  0  0  0  0  0  0  0  0  0  0
  -24.1730  -36.8160   23.0840 C   0  0  0  0  0  1  0  0  0  0  0  0
  -25.4280  -36.4240   23.8820 C   0  0  0  0  0  3  0  0  0  0  0  0
  -27.5670  -37.3290   24.6790 C   0  0  0  0  0  1  0  0  0  0  0  0
  -26.4520  -37.4830   23.7470 N   0  0  0  0  0  0  0  0  0  0  0  0
  -26.0420  -38.4020   23.8920 H   0  0  0  0  0  0  0  0  0  0  0  0
  -26.4200  -31.8210   25.1510 C   0  0  1  0  0  0  0  0  0  0  0  0
  -25.3210  -31.5860   26.2130 C   0  0  0  0  0  1  0  0  0  0  0  0
  -27.0110  -30.4430   24.7720 C   0  0  0  0  0  1  0  0  0  0  0  0
  -27.5640  -32.6210   25.8180 C   0  0  0  0  0  1  0  0  0  0  0  0
  -27.4780  -17.1880   19.5960 N   0  0  0  0  0  0  0  0  0  0  0  0
  -26.7110  -17.7100   19.1850 H   0  0  0  0  0  0  0  0  0  0  0  0
  -27.7940  -16.4860   18.9360 H   0  0  0  0  0  0  0  0  0  0  0  0
  2  1  1  0
  3  4  1  0
  4 49  1  0
  4  1  2  0
  5 15  1  0
  5  2  2  0
  6  3  2  0
  6  5  1  0
  7 15  1  0
  8 13  1  0
  9 10  1  0
  9  8  1  0
 11 10  1  0
 11 20  1  0
 11 12  1  0
 13  7  1  0
 13 12  1  0
 14  7  2  0
 15 16  1  0
 17 18  2  0
 18 37  1  0
 19 18  1  0
 19 22  1  0
 20 17  1  0
 20 21  1  0
 21 19  2  0
 22 23  1  0
 23 24  2  0
 25 28  1  0
 25 24  1  0
 26 25  2  0
 27 26  1  0
 27 22  2  0
 28 29  1  0
 29 30  1  0
 30 31  2  0
 32 31  1  0
 32 36  1  0
 33 32  2  0
 34 29  2  0
 34 33  1  0
 35 34  1  0
 37 38  1  0
 38 41  1  0
 38 40  1  0
 39 37  2  0
 42 43  1  0
 42 17  1  0
 44 42  1  0
 45 47  2  0
 45 46  1  0
 46 50  2  0
 48 45  1  0
 48 49  1  0
 49 46  1  0
 51 47  1  0
 52 63  2  0
 53 51  1  0
 53 58  1  0
 54 62  1  0
 54 64  1  0
 55 61  1  0
 55 57  1  0
 56 62  1  0
 57 58  2  0
 57 56  1  0
 59 53  2  0
 60 59  1  0
 60 55  2  0
 61 54  1  0
 62 52  1  0
 64 66  2  0
 65 64  1  0
 67 65  1  0
 68 77  2  0
 68 73  1  0
 69 65  1  0
 69 73  1  0
 70 69  1  0
 71 72  1  0
 71 70  1  0
 72 68  1  0
 73 74  2  0
 74 75  1  0
 76 75  2  0
 77 76  1  0
 78 52  1  0
 78 79  1  0
 78 88  1  0
 79 82  1  0
 80 84  1  0
 80 79  1  0
 81 80  2  0
 84 83  1  0
 86 84  1  0
 86 87  1  0
 86 85  1  0
 88 91  1  1
 88 89  1  0
 90 88  1  0
 92  6  1  0
 93 92  1  0
 94 92  1  0
M  ISO  4   7 100  15 100  47 101  51 101
M  END
>  <TORSDO>  (23) 
F 18

>  <SCORE>  (23) 
-15.146

>  <name>  (23) 
22

>  <ligand_id>  (23) 
22

>  <original_smiles>  (23) 
[H]C(Oc1c([H])c([H])c2c(c1[H])C([H])([H])N(C(=O)C([H])(N([H])C(=O)C([H])(N([H])C([H])([H])[H])C([H])([H])[H])C(C([H])([H])[H])(C([H])([H])[H])C([H])([H])[H])C([H])(C(=O)N([H])C1([H])c3c([H])c([H])c([H])c([H])c3C([H])([H])C([H])([H])C1([H])[H])C2([H])[H])=C1C(=O)N(c2c([H])c([H])c(N([H])C(=O)N3C([H])([H])C([H])([H])C([H])([H])C([H])(n4nc(-c5c([H])c([H])c(Oc6c([H])c([H])c(F)c([H])c6F)c([H])c5[H])c(C(=O)N([H])[H])c4N([H])[H])C3([H])[H])c(N([H])[H])c2[H])C1([H])[H]

>  <smiles>  (23) 
[H]C(Oc1c([H])c([H])c2c(c1[H])C([H])([H])N(C(=O)C([H])(N([H])C(=O)C([H])(N([H])C([H])([H])[H])C([H])([H])[H])C(C([H])([H])[H])(C([H])([H])[H])C([H])([H])[H])C([H])(C(=O)N([H])C1([H])c3c([H])c([H])c([H])c([H])c3C([H])([H])C([H])([H])C1([H])[H])C2([H])[H])=C1C(=O)N(c2c([H])c([H])c(N([H])C(=O)N3C([H])([H])C([H])([H])C([H])([H])C([H])(n4nc(-c5c([H])c([H])c(Oc6c([H])c([H])c(F)c([H])c6F)c([H])c5[H])c(C(=O)N([H])[H])c4N([H])[H])C3([H])[H])c(N([H])[H])c2[H])C1([H])[H]

$$$$
23:0:0
     RDKit          3D

 98107  0  0  1  0  0  0  0  0999 V2000
  -28.6100  -23.7240   18.5750 C   0  0  0  0  0  3  0  0  0  0  0  0
  -29.2220  -21.3820   18.5240 C   0  0  0  0  0  3  0  0  0  0  0  0
  -28.5330  -23.7530   19.9210 C   0  0  0  0  0  0  0  0  0  0  0  0
  -28.9560  -22.5150   17.8480 C   0  0  0  0  0  0  0  0  0  0  0  0
  -28.8320  -22.4510   20.6590 C   0  0  0  0  0  0  0  0  0  0  0  0
  -29.2040  -21.2950   19.9300 N   0  0  0  0  0  0  0  0  0  0  0  0
  -28.7160  -22.3980   21.8870 O   0  0  0  0  0  0  0  0  0  0  0  0
  -30.6360  -20.0650   21.5710 C   0  0  0  0  0  3  0  0  0  0  0  0
  -29.4450  -18.6380   20.0060 C   0  0  0  0  0  3  0  0  0  0  0  0
  -30.9840  -17.6300   21.6040 C   0  0  0  0  0  3  0  0  0  0  0  0
  -29.7140  -19.9950   20.4990 C   0  0  0  0  0  0  0  0  0  0  0  0
  -31.2540  -18.9190   22.1100 C   0  0  0  0  0  0  0  0  0  0  0  0
  -30.0740  -17.4300   20.5450 C   0  0  0  0  0  0  0  0  0  0  0  0
  -30.5650  -14.8900   20.0540 C   0  0  0  0  0  0  0  0  0  0  0  0
  -30.3520  -12.6170   19.0200 C   0  0  0  0  0  2  0  0  0  0  0  0
  -29.3490  -12.6670   17.8470 C   0  0  0  0  0  2  0  0  0  0  0  0
  -27.9040  -12.4730   18.3530 C   0  0  0  0  0  2  0  0  0  0  0  0
  -27.5780  -13.3590   19.5850 C   0  0  0  0  0  3  0  0  0  0  0  0
  -28.6930  -13.2850   20.6490 C   0  0  0  0  0  2  0  0  0  0  0  0
  -29.9470  -13.6610   19.9850 N   0  0  0  0  0  0  0  0  0  0  0  0
  -31.7560  -14.9890   19.7440 O   0  0  0  0  0  0  0  0  0  0  0  0
  -29.7590  -16.0200   20.1720 N   0  0  0  0  0  0  0  0  0  0  0  0
  -28.7740  -15.8200   20.1000 H   0  0  0  0  0  0  0  0  0  0  0  0
  -25.2370  -13.9340   20.4640 C   0  0  0  0  0  0  0  0  0  0  0  0
  -24.1910  -13.1510   20.8700 C   0  0  0  0  0  0  0  0  0  0  0  0
  -24.6510  -11.8010   20.7820 C   0  0  0  0  0  0  0  0  0  0  0  0
  -26.2640  -13.0600   20.1480 N   0  0  0  0  0  0  0  0  0  0  0  0
  -25.9230  -11.7700   20.4040 N   0  0  0  0  0  0  0  0  0  0  0  0
  -23.9330  -10.5350   20.9790 C   0  0  0  0  0  0  0  0  0  0  0  0
  -24.3850   -9.5660   21.9010 C   0  0  0  0  0  3  0  0  0  0  0  0
  -23.6690   -8.3640   22.0850 C   0  0  0  0  0  3  0  0  0  0  0  0
  -22.4840   -8.1250   21.3500 C   0  0  0  0  0  0  0  0  0  0  0  0
  -22.0500   -9.0830   20.4170 C   0  0  0  0  0  3  0  0  0  0  0  0
  -22.7680  -10.2770   20.2310 C   0  0  0  0  0  3  0  0  0  0  0  0
  -21.7350   -6.9760   21.4460 O   0  0  0  0  0  0  0  0  0  0  0  0
  -21.6830   -6.2470   22.6060 C   0  0  0  0  0  0  0  0  0  0  0  0
  -21.1990   -6.7980   23.8130 C   0  0  0  0  0  3  0  0  0  0  0  0
  -21.0980   -5.9910   24.9640 C   0  0  0  0  0  3  0  0  0  0  0  0
  -21.4690   -4.6340   24.9100 C   0  0  0  0  0  0  0  0  0  0  0  0
  -21.9460   -4.0830   23.7070 C   0  0  0  0  0  3  0  0  0  0  0  0
  -22.0490   -4.8870   22.5590 C   0  0  0  0  0  0  0  0  0  0  0  0
  -22.4900   -4.3460   21.3970 F   0  0  0  0  0  0  0  0  0  0  0  0
  -21.3650   -3.8570   26.0130 F   0  0  0  0  0  0  0  0  0  0  0  0
  -22.8110  -13.6220   21.2240 C   0  0  0  0  0  0  0  0  0  0  0  0
  -22.1230  -12.9030   22.1020 N   0  0  0  0  0  0  0  0  0  0  0  0
  -22.3520  -14.6630   20.7550 O   0  0  0  0  0  0  0  0  0  0  0  0
  -22.5060  -12.0600   22.5070 H   0  0  0  0  0  0  0  0  0  0  0  0
  -21.1980  -13.2000   22.3790 H   0  0  0  0  0  0  0  0  0  0  0  0
  -25.3910  -15.3100   20.3120 N   0  0  0  0  0  0  0  0  0  0  0  0
  -24.6270  -15.9550   20.4830 H   0  0  0  0  0  0  0  0  0  0  0  0
  -26.2100  -15.7620   19.9280 H   0  0  0  0  0  0  0  0  0  0  0  0
  -32.1460  -19.0610   23.1720 N   0  0  0  0  0  0  0  0  0  0  0  0
  -32.4790  -19.9800   23.4480 H   0  0  0  0  0  0  0  0  0  0  0  0
  -32.7770  -18.3030   23.4170 H   0  0  0  0  0  0  0  0  0  0  0  0
  -29.0210  -22.5220   16.5120 O   0  0  0  0  0  0  0  0  0  0  0  0
  -28.8020  -23.3950   16.2100 H   0  0  0  0  0  0  0  0  0  0  0  0
  -28.0610  -25.0760   20.6890 C   0  0  0  0  0  2  0  0  0  0  0  0
  -28.2510  -26.4630   20.1250 O   0  0  0  0  0  0  0  0  0  0  0  0
  -24.5440  -31.9030   23.2610 C   0  0  0  0  0  0  0  0  0  0  0  0
  -27.1550  -27.3550   20.1430 C   0  0  0  0  0  0  0  0  0  0  0  0
  -23.3430  -30.5240   21.6040 C   0  0  0  0  0  3  0  0  0  0  0  0
  -24.7950  -28.9910   20.1570 C   0  0  0  0  0  0  0  0  0  0  0  0
  -25.8840  -30.8430   21.4220 C   0  0  0  0  0  2  0  0  0  0  0  0
  -25.9680  -29.4690   20.7550 C   0  0  0  0  0  0  0  0  0  0  0  0
  -27.1550  -28.6640   20.7320 C   0  0  0  0  0  3  0  0  0  0  0  0
  -25.9570  -26.9400   19.5250 C   0  0  0  0  0  3  0  0  0  0  0  0
  -24.7940  -27.7350   19.5300 C   0  0  0  0  0  3  0  0  0  0  0  0
  -23.5580  -29.8670   20.2160 C   0  0  0  0  0  2  0  0  0  0  0  0
  -24.6100  -31.1070   22.1530 N   0  0  0  0  0  0  0  0  0  0  0  0
  -23.4590  -32.1710   23.7990 O   0  0  0  0  0  0  0  0  0  0  0  0
  -22.6800  -29.4960   22.5530 C   0  0  0  0  0  0  0  0  0  0  0  0
  -21.3540  -29.3170   22.4260 N   0  0  0  0  0  0  0  0  0  0  0  0
  -23.3620  -28.8610   23.3630 O   0  0  0  0  0  0  0  0  0  0  0  0
  -20.8640  -29.8770   21.7440 H   0  0  0  0  0  0  0  0  0  0  0  0
  -17.9810  -28.1060   22.9230 C   0  0  0  0  0  0  0  0  0  0  0  0
  -20.5390  -28.3670   23.1870 C   0  0  0  0  0  3  0  0  0  0  0  0
  -20.6430  -26.9450   22.5910 C   0  0  0  0  0  2  0  0  0  0  0  0
  -19.5370  -26.6340   21.5760 C   0  0  0  0  0  2  0  0  0  0  0  0
  -18.1570  -26.7670   22.2260 C   0  0  0  0  0  2  0  0  0  0  0  0
  -19.0990  -28.8630   23.3610 C   0  0  0  0  0  0  0  0  0  0  0  0
  -18.8790  -30.1160   23.9740 C   0  0  0  0  0  3  0  0  0  0  0  0
  -17.5730  -30.6120   24.1500 C   0  0  0  0  0  3  0  0  0  0  0  0
  -16.4700  -29.8500   23.7280 C   0  0  0  0  0  3  0  0  0  0  0  0
  -16.6750  -28.5980   23.1220 C   0  0  0  0  0  3  0  0  0  0  0  0
  -25.8230  -32.5320   23.8920 C   0  0  0  0  0  3  0  0  0  0  0  0
  -26.3150  -31.7720   25.1860 C   0  0  1  0  0  0  0  0  0  0  0  0
  -25.2040  -31.5570   26.2390 C   0  0  0  0  0  1  0  0  0  0  0  0
  -26.8920  -30.3850   24.8200 C   0  0  0  0  0  1  0  0  0  0  0  0
  -27.4640  -32.5660   25.8540 C   0  0  0  0  0  1  0  0  0  0  0  0
  -25.5220  -33.9370   24.2030 N   0  0  0  0  0  0  0  0  0  0  0  0
  -25.8670  -34.9790   23.4340 C   0  0  0  0  0  0  0  0  0  0  0  0
  -26.5410  -34.8580   22.4070 O   0  0  0  0  0  0  0  0  0  0  0  0
  -24.9220  -34.1050   24.9970 H   0  0  0  0  0  0  0  0  0  0  0  0
  -24.1710  -36.7930   23.0360 C   0  0  0  0  0  1  0  0  0  0  0  0
  -25.3900  -36.3780   23.8730 C   0  0  0  0  0  3  0  0  0  0  0  0
  -27.5170  -37.2440   24.7430 C   0  0  0  0  0  1  0  0  0  0  0  0
  -26.4390  -37.4150   23.7720 N   0  0  0  0  0  0  0  0  0  0  0  0
  -26.0420  -38.3430   23.9000 H   0  0  0  0  0  0  0  0  0  0  0  0
  1  3  2  0
  2  6  1  0
  3  5  1  0
  3 57  1  0
  4  2  2  0
  4  1  1  0
  5  7  2  0
  6 11  1  0
  6  5  1  0
  8 12  1  0
  9 11  1  0
  9 13  2  0
 10 12  2  0
 11  8  2  0
 12 52  1  0
 13 10  1  0
 14 22  1  0
 15 20  1  0
 16 17  1  0
 16 15  1  0
 18 17  1  0
 18 27  1  0
 18 19  1  0
 20 14  1  0
 20 19  1  0
 21 14  2  0
 22 13  1  0
 23 22  1  0
 24 25  2  0
 25 44  1  0
 26 25  1  0
 26 29  1  0
 27 28  1  0
 27 24  1  0
 28 26  2  0
 29 30  1  0
 30 31  2  0
 32 35  1  0
 32 31  1  0
 33 32  2  0
 34 33  1  0
 34 29  2  0
 35 36  1  0
 36 37  1  0
 37 38  2  0
 39 38  1  0
 39 43  1  0
 40 39  2  0
 41 36  2  0
 41 40  1  0
 42 41  1  0
 44 45  1  0
 45 48  1  0
 45 47  1  0
 46 44  2  0
 49 24  1  0
 49 50  1  0
 51 49  1  0
 52 54  1  0
 52 53  1  0
 55  4  1  0
 56 55  1  0
 58 60  1  0
 58 57  1  0
 59 70  2  0
 60 65  1  0
 61 69  1  0
 61 71  1  0
 62 68  1  0
 62 64  1  0
 63 69  1  0
 64 63  1  0
 65 64  2  0
 66 67  1  0
 66 60  2  0
 67 62  2  0
 68 61  1  0
 69 59  1  0
 71 73  2  0
 72 71  1  0
 74 72  1  0
 75 84  2  0
 75 80  1  0
 76 72  1  0
 76 80  1  0
 77 76  1  0
 78 79  1  0
 78 77  1  0
 79 75  1  0
 80 81  2  0
 81 82  1  0
 83 82  2  0
 84 83  1  0
 85 59  1  0
 85 90  1  0
 85 86  1  0
 86 89  1  1
 86 87  1  0
 88 86  1  0
 90 93  1  0
 91 95  1  0
 91 90  1  0
 92 91  2  0
 95 94  1  0
 97 95  1  0
 97 98  1  0
 97 96  1  0
M  ISO  4  14 100  22 100  57 101  58 101
M  END
>  <TORSDO>  (24) 
F 20

>  <SCORE>  (24) 
-14.344

>  <name>  (24) 
23

>  <ligand_id>  (24) 
23

>  <original_smiles>  (24) 
[H]Oc1c([H])c(C([H])([H])Oc2c([H])c([H])c3c(c2[H])C([H])([H])N(C(=O)C([H])(N([H])C(=O)C([H])(N([H])C([H])([H])[H])C([H])([H])[H])C(C([H])([H])[H])(C([H])([H])[H])C([H])([H])[H])C([H])(C(=O)N([H])C2([H])c4c([H])c([H])c([H])c([H])c4C([H])([H])C([H])([H])C2([H])[H])C3([H])[H])c(=O)n(-c2c([H])c(N([H])[H])c([H])c(N([H])C(=O)N3C([H])([H])C([H])([H])C([H])([H])C([H])(n4nc(-c5c([H])c([H])c(Oc6c([H])c([H])c(F)c([H])c6F)c([H])c5[H])c(C(=O)N([H])[H])c4N([H])[H])C3([H])[H])c2[H])c1[H]

>  <smiles>  (24) 
[H]Oc1c([H])c(C([H])([H])Oc2c([H])c([H])c3c(c2[H])C([H])([H])N(C(=O)C([H])(N([H])C(=O)C([H])(N([H])C([H])([H])[H])C([H])([H])[H])C(C([H])([H])[H])(C([H])([H])[H])C([H])([H])[H])C([H])(C(=O)N([H])C2([H])c4c([H])c([H])c([H])c([H])c4C([H])([H])C([H])([H])C2([H])[H])C3([H])[H])c(=O)n(-c2c([H])c(N([H])[H])c([H])c(N([H])C(=O)N3C([H])([H])C([H])([H])C([H])([H])C([H])(n4nc(-c5c([H])c([H])c(Oc6c([H])c([H])c(F)c([H])c6F)c([H])c5[H])c(C(=O)N([H])[H])c4N([H])[H])C3([H])[H])c2[H])c1[H]

$$$$
24:0:0
     RDKit          3D

 95103  0  0  1  0  0  0  0  0999 V2000
  -28.7890  -20.5860   20.7940 C   0  0  0  0  0  0  0  0  0  0  0  0
  -28.3260  -22.9870   20.8420 C   0  0  0  0  0  0  0  0  0  0  0  0
  -29.0850  -21.8950   20.5550 N   0  0  0  0  0  0  0  0  0  0  0  0
  -27.6710  -20.1840   21.1370 O   0  0  0  0  0  0  0  0  0  0  0  0
  -27.2540  -22.9180   21.4570 O   0  0  0  0  0  0  0  0  0  0  0  0
  -29.9760  -22.1030   20.1320 H   0  0  0  0  0  0  0  0  0  0  0  0
  -32.2510  -18.9320   20.5580 C   0  0  0  0  0  3  0  0  0  0  0  0
  -31.2420  -19.9140   20.6040 C   0  0  0  0  0  3  0  0  0  0  0  0
  -31.9230  -17.5630   20.5250 C   0  0  0  0  0  3  0  0  0  0  0  0
  -29.5650  -18.1430   20.5730 C   0  0  0  0  0  3  0  0  0  0  0  0
  -29.8800  -19.5390   20.6150 C   0  0  0  0  0  0  0  0  0  0  0  0
  -30.5730  -17.1350   20.5170 C   0  0  0  0  0  0  0  0  0  0  0  0
  -30.8970  -14.6690   20.0150 C   0  0  0  0  0  0  0  0  0  0  0  0
  -30.5630  -12.4670   18.9380 C   0  0  0  0  0  2  0  0  0  0  0  0
  -29.5620  -12.6230   17.7750 C   0  0  0  0  0  2  0  0  0  0  0  0
  -28.1160  -12.4660   18.2810 C   0  0  0  0  0  2  0  0  0  0  0  0
  -27.8250  -13.3270   19.5400 C   0  0  0  0  0  3  0  0  0  0  0  0
  -28.9410  -13.1720   20.6000 C   0  0  0  0  0  2  0  0  0  0  0  0
  -30.2240  -13.4830   19.9530 N   0  0  0  0  0  0  0  0  0  0  0  0
  -32.0110  -14.7990   19.5030 O   0  0  0  0  0  0  0  0  0  0  0  0
  -30.2050  -15.7330   20.5040 N   0  0  0  0  0  0  0  0  0  0  0  0
  -29.2670  -15.5170   20.8010 H   0  0  0  0  0  0  0  0  0  0  0  0
  -25.4790  -13.9140   20.4140 C   0  0  0  0  0  0  0  0  0  0  0  0
  -24.4320  -13.1330   20.8230 C   0  0  0  0  0  0  0  0  0  0  0  0
  -24.8840  -11.7810   20.7210 C   0  0  0  0  0  0  0  0  0  0  0  0
  -26.5040  -13.0370   20.0940 N   0  0  0  0  0  0  0  0  0  0  0  0
  -26.1530  -11.7480   20.3360 N   0  0  0  0  0  0  0  0  0  0  0  0
  -24.1640  -10.5160   20.9120 C   0  0  0  0  0  0  0  0  0  0  0  0
  -24.5780   -9.5690   21.8750 C   0  0  0  0  0  3  0  0  0  0  0  0
  -23.8580   -8.3670   22.0550 C   0  0  0  0  0  3  0  0  0  0  0  0
  -22.7100   -8.1050   21.2700 C   0  0  0  0  0  0  0  0  0  0  0  0
  -22.3150   -9.0410   20.2980 C   0  0  0  0  0  3  0  0  0  0  0  0
  -23.0350  -10.2330   20.1180 C   0  0  0  0  0  3  0  0  0  0  0  0
  -21.9640   -6.9540   21.3570 O   0  0  0  0  0  0  0  0  0  0  0  0
  -21.7970   -6.2920   22.5470 C   0  0  0  0  0  0  0  0  0  0  0  0
  -21.1640   -6.8980   23.6540 C   0  0  0  0  0  3  0  0  0  0  0  0
  -20.9510   -6.1570   24.8340 C   0  0  0  0  0  3  0  0  0  0  0  0
  -21.3620   -4.8130   24.9070 C   0  0  0  0  0  0  0  0  0  0  0  0
  -21.9890   -4.2070   23.8040 C   0  0  0  0  0  3  0  0  0  0  0  0
  -22.2030   -4.9450   22.6250 C   0  0  0  0  0  0  0  0  0  0  0  0
  -22.7880   -4.3500   21.5580 F   0  0  0  0  0  0  0  0  0  0  0  0
  -21.1520   -4.0990   26.0370 F   0  0  0  0  0  0  0  0  0  0  0  0
  -23.0560  -13.6050   21.1930 C   0  0  0  0  0  0  0  0  0  0  0  0
  -22.3760  -12.8820   22.0770 N   0  0  0  0  0  0  0  0  0  0  0  0
  -22.5930  -14.6490   20.7330 O   0  0  0  0  0  0  0  0  0  0  0  0
  -22.7650  -12.0380   22.4680 H   0  0  0  0  0  0  0  0  0  0  0  0
  -21.4560  -13.1790   22.3670 H   0  0  0  0  0  0  0  0  0  0  0  0
  -25.6400  -15.2880   20.2680 N   0  0  0  0  0  0  0  0  0  0  0  0
  -24.8810  -15.9400   20.4370 H   0  0  0  0  0  0  0  0  0  0  0  0
  -26.4610  -15.7340   19.8790 H   0  0  0  0  0  0  0  0  0  0  0  0
  -28.1890  -25.4190   20.6290 C   0  0  0  0  0  3  0  0  0  0  0  0
  -28.8780  -24.2750   20.3640 C   0  0  0  0  0  0  0  0  0  0  0  0
  -30.0240  -24.3040   19.6690 O   0  0  0  0  0  0  0  0  0  0  0  0
  -30.1880  -25.2150   19.4570 H   0  0  0  0  0  0  0  0  0  0  0  0
  -28.4870  -26.7150   20.2120 O   0  0  0  0  0  0  0  0  0  0  0  0
  -24.6290  -31.9280   23.2430 C   0  0  0  0  0  0  0  0  0  0  0  0
  -27.3830  -27.5520   20.1330 C   0  0  0  0  0  0  0  0  0  0  0  0
  -23.4820  -30.5560   21.5370 C   0  0  0  0  0  3  0  0  0  0  0  0
  -24.9890  -29.0740   20.1060 C   0  0  0  0  0  0  0  0  0  0  0  0
  -26.0140  -30.9330   21.4190 C   0  0  0  0  0  2  0  0  0  0  0  0
  -26.1300  -29.5790   20.7440 C   0  0  0  0  0  0  0  0  0  0  0  0
  -27.3340  -28.8240   20.7570 C   0  0  0  0  0  3  0  0  0  0  0  0
  -26.2300  -27.0880   19.4610 C   0  0  0  0  0  3  0  0  0  0  0  0
  -25.0370  -27.8300   19.4570 C   0  0  0  0  0  3  0  0  0  0  0  0
  -23.7350  -29.9190   20.1460 C   0  0  0  0  0  2  0  0  0  0  0  0
  -24.7250  -31.1530   22.1250 N   0  0  0  0  0  0  0  0  0  0  0  0
  -23.5320  -32.1760   23.7610 O   0  0  0  0  0  0  0  0  0  0  0  0
  -22.8160  -29.5040   22.4540 C   0  0  0  0  0  0  0  0  0  0  0  0
  -21.4950  -29.3160   22.2940 N   0  0  0  0  0  0  0  0  0  0  0  0
  -23.4840  -28.8620   23.2690 O   0  0  0  0  0  0  0  0  0  0  0  0
  -21.0160  -29.8880   21.6130 H   0  0  0  0  0  0  0  0  0  0  0  0
  -18.1060  -28.1430   22.7470 C   0  0  0  0  0  0  0  0  0  0  0  0
  -20.6680  -28.3530   23.0210 C   0  0  0  0  0  3  0  0  0  0  0  0
  -20.7490  -26.9520   22.3750 C   0  0  0  0  0  2  0  0  0  0  0  0
  -19.6400  -26.6940   21.3510 C   0  0  0  0  0  2  0  0  0  0  0  0
  -18.2620  -26.8250   22.0070 C   0  0  0  0  0  2  0  0  0  0  0  0
  -19.2360  -28.8680   23.2090 C   0  0  0  0  0  0  0  0  0  0  0  0
  -19.0360  -30.1050   23.8620 C   0  0  0  0  0  3  0  0  0  0  0  0
  -17.7390  -30.6140   24.0560 C   0  0  0  0  0  3  0  0  0  0  0  0
  -16.6230  -29.8860   23.6100 C   0  0  0  0  0  3  0  0  0  0  0  0
  -16.8070  -28.6520   22.9610 C   0  0  0  0  0  3  0  0  0  0  0  0
  -25.8910  -32.5570   23.9100 C   0  0  0  0  0  3  0  0  0  0  0  0
  -26.3560  -31.7890   25.2090 C   0  0  1  0  0  0  0  0  0  0  0  0
  -25.2170  -31.5430   26.2260 C   0  0  0  0  0  1  0  0  0  0  0  0
  -26.9660  -30.4170   24.8410 C   0  0  0  0  0  1  0  0  0  0  0  0
  -27.4700  -32.5910   25.9210 C   0  0  0  0  0  1  0  0  0  0  0  0
  -25.5760  -33.9590   24.2210 N   0  0  0  0  0  0  0  0  0  0  0  0
  -25.9220  -35.0030   23.4560 C   0  0  0  0  0  0  0  0  0  0  0  0
  -26.6090  -34.8880   22.4380 O   0  0  0  0  0  0  0  0  0  0  0  0
  -24.9670  -34.1210   25.0090 H   0  0  0  0  0  0  0  0  0  0  0  0
  -24.1980  -36.7880   23.0510 C   0  0  0  0  0  1  0  0  0  0  0  0
  -25.4250  -36.3950   23.8890 C   0  0  0  0  0  3  0  0  0  0  0  0
  -27.5370  -37.3000   24.7570 C   0  0  0  0  0  1  0  0  0  0  0  0
  -26.4590  -37.4480   23.7810 N   0  0  0  0  0  0  0  0  0  0  0  0
  -26.0480  -38.3700   23.8990 H   0  0  0  0  0  0  0  0  0  0  0  0
  1  4  2  0
  2  5  2  0
  3  1  1  0
  3  2  1  0
  6  3  1  0
  7  8  1  0
  8 11  2  0
  9  7  2  0
 10 11  1  0
 11  1  1  0
 12  9  1  0
 12 10  2  0
 13 21  1  0
 14 19  1  0
 15 16  1  0
 15 14  1  0
 17 16  1  0
 17 26  1  0
 17 18  1  0
 19 13  1  0
 19 18  1  0
 20 13  2  0
 21 12  1  0
 21 22  1  0
 23 24  2  0
 24 43  1  0
 25 24  1  0
 25 28  1  0
 26 27  1  0
 26 23  1  0
 27 25  2  0
 28 29  1  0
 29 30  2  0
 31 34  1  0
 31 30  1  0
 32 31  2  0
 33 32  1  0
 33 28  2  0
 34 35  1  0
 35 40  2  0
 35 36  1  0
 36 37  2  0
 37 38  1  0
 38 42  1  0
 39 38  2  0
 40 39  1  0
 41 40  1  0
 43 44  1  0
 44 47  1  0
 44 46  1  0
 45 43  2  0
 48 23  1  0
 48 49  1  0
 50 48  1  0
 52 51  2  0
 52  2  1  0
 53 52  1  0
 54 53  1  0
 55 51  1  0
 56 67  2  0
 57 55  1  0
 57 62  1  0
 58 66  1  0
 58 68  1  0
 59 65  1  0
 59 61  1  0
 60 66  1  0
 61 62  2  0
 61 60  1  0
 63 57  2  0
 64 63  1  0
 64 59  2  0
 65 58  1  0
 66 56  1  0
 68 70  2  0
 69 68  1  0
 71 69  1  0
 72 81  2  0
 72 77  1  0
 73 69  1  0
 73 77  1  0
 74 73  1  0
 75 76  1  0
 75 74  1  0
 76 72  1  0
 77 78  2  0
 78 79  1  0
 80 79  2  0
 81 80  1  0
 82 56  1  0
 82 87  1  0
 82 83  1  0
 83 86  1  1
 83 84  1  0
 85 83  1  0
 87 90  1  0
 88 92  1  0
 88 87  1  0
 89 88  2  0
 92 91  1  0
 94 92  1  0
 94 95  1  0
 94 93  1  0
M  ISO  4  13 100  21 100  51 101  55 101
M  END
>  <TORSDO>  (25) 
F 19

>  <SCORE>  (25) 
-14.055

>  <name>  (25) 
24

>  <ligand_id>  (25) 
24

>  <original_smiles>  (25) 
[H]OC(C(=O)N([H])C(=O)c1c([H])c([H])c([H])c(N([H])C(=O)N2C([H])([H])C([H])([H])C([H])([H])C([H])(n3nc(-c4c([H])c([H])c(Oc5c([H])c([H])c(F)c([H])c5F)c([H])c4[H])c(C(=O)N([H])[H])c3N([H])[H])C2([H])[H])c1[H])=C([H])Oc1c([H])c([H])c2c(c1[H])C([H])([H])N(C(=O)C([H])(N([H])C(=O)C([H])(N([H])C([H])([H])[H])C([H])([H])[H])C(C([H])([H])[H])(C([H])([H])[H])C([H])([H])[H])C([H])(C(=O)N([H])C1([H])c3c([H])c([H])c([H])c([H])c3C([H])([H])C([H])([H])C1([H])[H])C2([H])[H]

>  <smiles>  (25) 
[H]OC(C(=O)N([H])C(=O)c1c([H])c([H])c([H])c(N([H])C(=O)N2C([H])([H])C([H])([H])C([H])([H])C([H])(n3nc(-c4c([H])c([H])c(Oc5c([H])c([H])c(F)c([H])c5F)c([H])c4[H])c(C(=O)N([H])[H])c3N([H])[H])C2([H])[H])c1[H])=C([H])Oc1c([H])c([H])c2c(c1[H])C([H])([H])N(C(=O)C([H])(N([H])C(=O)C([H])(N([H])C([H])([H])[H])C([H])([H])[H])C(C([H])([H])[H])(C([H])([H])[H])C([H])([H])[H])C([H])(C(=O)N([H])C1([H])c3c([H])c([H])c([H])c([H])c3C([H])([H])C([H])([H])C1([H])[H])C2([H])[H]

$$$$
25:0:0
     RDKit          3D

 92101  0  0  1  0  0  0  0  0999 V2000
  -28.7960  -23.6970   20.3460 C   0  0  0  0  0  0  0  0  0  0  0  0
  -28.4170  -22.2930   19.9600 C   0  0  0  0  0  0  0  0  0  0  0  0
  -28.0400  -24.8390   20.0460 C   0  0  0  0  0  3  0  0  0  0  0  0
  -30.1130  -23.5910   21.0700 C   0  0  0  0  0  3  0  0  0  0  0  0
  -30.4250  -22.0600   21.0960 C   0  0  0  0  0  3  0  0  0  0  0  0
  -29.3490  -21.3500   20.3870 N   0  0  0  0  0  0  0  0  0  0  0  0
  -27.3900  -21.9860   19.3460 O   0  0  0  0  0  0  0  0  0  0  0  0
  -30.2500  -18.6270   17.8980 C   0  0  0  0  0  3  0  0  0  0  0  0
  -29.9040  -19.8530   18.5020 C   0  0  0  0  0  3  0  0  0  0  0  0
  -30.2760  -17.4220   18.6310 C   0  0  0  0  0  3  0  0  0  0  0  0
  -29.5880  -18.6730   20.6110 C   0  0  0  0  0  3  0  0  0  0  0  0
  -29.5690  -19.9480   19.8720 C   0  0  0  0  0  0  0  0  0  0  0  0
  -29.9380  -17.3740   20.0060 C   0  0  0  0  0  0  0  0  0  0  0  0
  -30.6050  -14.8450   20.3550 C   0  0  0  0  0  0  0  0  0  0  0  0
  -30.4160  -12.5440   19.3870 C   0  0  0  0  0  2  0  0  0  0  0  0
  -29.4940  -12.6080   18.1480 C   0  0  0  0  0  2  0  0  0  0  0  0
  -28.0190  -12.4320   18.5570 C   0  0  0  0  0  2  0  0  0  0  0  0
  -27.6340  -13.3140   19.7740 C   0  0  0  0  0  3  0  0  0  0  0  0
  -28.6820  -13.2460   20.9070 C   0  0  0  0  0  2  0  0  0  0  0  0
  -29.9810  -13.6080   20.3300 N   0  0  0  0  0  0  0  0  0  0  0  0
  -31.7830  -14.9170   19.9920 O   0  0  0  0  0  0  0  0  0  0  0  0
  -29.8800  -16.0080   20.6450 N   0  0  0  0  0  0  0  0  0  0  0  0
  -29.0520  -15.8440   21.2020 H   0  0  0  0  0  0  0  0  0  0  0  0
  -25.2390  -13.8990   20.4640 C   0  0  0  0  0  0  0  0  0  0  0  0
  -24.1690  -13.1260   20.8250 C   0  0  0  0  0  0  0  0  0  0  0  0
  -24.6350  -11.7750   20.8130 C   0  0  0  0  0  0  0  0  0  0  0  0
  -26.2870  -13.0210   20.2490 N   0  0  0  0  0  0  0  0  0  0  0  0
  -25.9310  -11.7380   20.5220 N   0  0  0  0  0  0  0  0  0  0  0  0
  -23.9040  -10.5140   21.0050 C   0  0  0  0  0  0  0  0  0  0  0  0
  -24.3300   -9.5530   21.9470 C   0  0  0  0  0  3  0  0  0  0  0  0
  -23.6010   -8.3560   22.1280 C   0  0  0  0  0  3  0  0  0  0  0  0
  -22.4310   -8.1140   21.3700 C   0  0  0  0  0  0  0  0  0  0  0  0
  -22.0250   -9.0660   20.4180 C   0  0  0  0  0  3  0  0  0  0  0  0
  -22.7530  -10.2530   20.2330 C   0  0  0  0  0  3  0  0  0  0  0  0
  -21.6740   -6.9720   21.4610 O   0  0  0  0  0  0  0  0  0  0  0  0
  -21.6240   -6.2300   22.6140 C   0  0  0  0  0  0  0  0  0  0  0  0
  -21.2100   -6.7920   23.8430 C   0  0  0  0  0  3  0  0  0  0  0  0
  -21.1030   -5.9780   24.9870 C   0  0  0  0  0  3  0  0  0  0  0  0
  -21.4050   -4.6040   24.9070 C   0  0  0  0  0  0  0  0  0  0  0  0
  -21.8160   -4.0430   23.6850 C   0  0  0  0  0  3  0  0  0  0  0  0
  -21.9220   -4.8550   22.5420 C   0  0  0  0  0  0  0  0  0  0  0  0
  -22.2950   -4.3060   21.3610 F   0  0  0  0  0  0  0  0  0  0  0  0
  -21.2990   -3.8210   26.0040 F   0  0  0  0  0  0  0  0  0  0  0  0
  -22.7700  -13.6040   21.0720 C   0  0  0  0  0  0  0  0  0  0  0  0
  -22.0310  -12.9180   21.9370 N   0  0  0  0  0  0  0  0  0  0  0  0
  -22.3380  -14.6230   20.5350 O   0  0  0  0  0  0  0  0  0  0  0  0
  -22.3900  -12.0900   22.3910 H   0  0  0  0  0  0  0  0  0  0  0  0
  -21.0900  -13.2230   22.1470 H   0  0  0  0  0  0  0  0  0  0  0  0
  -25.4060  -15.2690   20.2790 N   0  0  0  0  0  0  0  0  0  0  0  0
  -24.6410  -15.9300   20.3660 H   0  0  0  0  0  0  0  0  0  0  0  0
  -26.2630  -15.7030   19.9650 H   0  0  0  0  0  0  0  0  0  0  0  0
  -28.2530  -26.2630   20.2410 O   0  0  0  0  0  0  0  0  0  0  0  0
  -24.6240  -31.8810   23.2360 C   0  0  0  0  0  0  0  0  0  0  0  0
  -27.1840  -27.2160   20.1700 C   0  0  0  0  0  0  0  0  0  0  0  0
  -23.4130  -30.4880   21.6030 C   0  0  0  0  0  3  0  0  0  0  0  0
  -24.8530  -28.9350   20.1630 C   0  0  0  0  0  0  0  0  0  0  0  0
  -25.9660  -30.7620   21.4290 C   0  0  0  0  0  2  0  0  0  0  0  0
  -26.0320  -29.3780   20.7750 C   0  0  0  0  0  0  0  0  0  0  0  0
  -27.1960  -28.5290   20.7760 C   0  0  0  0  0  3  0  0  0  0  0  0
  -25.9850  -26.8840   19.4930 C   0  0  0  0  0  3  0  0  0  0  0  0
  -24.8400  -27.6970   19.5120 C   0  0  0  0  0  3  0  0  0  0  0  0
  -23.6260  -29.8250   20.2190 C   0  0  0  0  0  2  0  0  0  0  0  0
  -24.6870  -31.0650   22.1430 N   0  0  0  0  0  0  0  0  0  0  0  0
  -23.5420  -32.1610   23.7720 O   0  0  0  0  0  0  0  0  0  0  0  0
  -22.7470  -29.4710   22.5630 C   0  0  0  0  0  0  0  0  0  0  0  0
  -21.4190  -29.2980   22.4430 N   0  0  0  0  0  0  0  0  0  0  0  0
  -23.4260  -28.8430   23.3810 O   0  0  0  0  0  0  0  0  0  0  0  0
  -20.9310  -29.8550   21.7540 H   0  0  0  0  0  0  0  0  0  0  0  0
  -18.0420  -28.0990   22.9600 C   0  0  0  0  0  0  0  0  0  0  0  0
  -20.6020  -28.3630   23.2180 C   0  0  0  0  0  3  0  0  0  0  0  0
  -20.7040  -26.9300   22.6470 C   0  0  0  0  0  2  0  0  0  0  0  0
  -19.5970  -26.6030   21.6390 C   0  0  0  0  0  2  0  0  0  0  0  0
  -18.2170  -26.7490   22.2850 C   0  0  0  0  0  2  0  0  0  0  0  0
  -19.1620  -28.8630   23.3830 C   0  0  0  0  0  0  0  0  0  0  0  0
  -18.9410  -30.1260   23.9740 C   0  0  0  0  0  3  0  0  0  0  0  0
  -17.6360  -30.6250   24.1470 C   0  0  0  0  0  3  0  0  0  0  0  0
  -16.5310  -29.8580   23.7380 C   0  0  0  0  0  3  0  0  0  0  0  0
  -16.7350  -28.5970   23.1500 C   0  0  0  0  0  3  0  0  0  0  0  0
  -25.9100  -32.5130   23.8530 C   0  0  0  0  0  3  0  0  0  0  0  0
  -25.6030  -33.9120   24.1900 N   0  0  0  0  0  0  0  0  0  0  0  0
  -25.9190  -34.9670   23.4290 C   0  0  0  0  0  0  0  0  0  0  0  0
  -26.5730  -34.8680   22.3870 O   0  0  0  0  0  0  0  0  0  0  0  0
  -25.0330  -34.0680   25.0070 H   0  0  0  0  0  0  0  0  0  0  0  0
  -24.1800  -36.7570   23.1070 C   0  0  0  0  0  1  0  0  0  0  0  0
  -25.4350  -36.3540   23.8990 C   0  0  0  0  0  3  0  0  0  0  0  0
  -27.5780  -37.2420   24.6990 C   0  0  0  0  0  1  0  0  0  0  0  0
  -26.4610  -37.4110   23.7720 N   0  0  0  0  0  0  0  0  0  0  0  0
  -26.0540  -38.3290   23.9350 H   0  0  0  0  0  0  0  0  0  0  0  0
  -26.4320  -31.7410   25.1260 C   0  0  1  0  0  0  0  0  0  0  0  0
  -25.3460  -31.5020   26.1990 C   0  0  0  0  0  1  0  0  0  0  0  0
  -27.0140  -30.3640   24.7370 C   0  0  0  0  0  1  0  0  0  0  0  0
  -27.5900  -32.5330   25.7800 C   0  0  0  0  0  1  0  0  0  0  0  0
  1  4  1  0
  2  1  1  0
  2  6  1  0
  3 52  1  0
  3  1  2  0
  4  5  2  0
  6  5  1  0
  7  2  2  0
  8  9  2  0
  8 10  1  0
  9 12  1  0
 10 13  2  0
 12  6  1  0
 12 11  2  0
 13 11  1  0
 13 22  1  0
 14 22  1  0
 15 20  1  0
 16 17  1  0
 16 15  1  0
 18 17  1  0
 18 27  1  0
 18 19  1  0
 20 14  1  0
 20 19  1  0
 21 14  2  0
 22 23  1  0
 24 25  2  0
 25 44  1  0
 26 25  1  0
 26 29  1  0
 27 24  1  0
 27 28  1  0
 28 26  2  0
 29 30  1  0
 30 31  2  0
 32 35  1  0
 32 31  1  0
 33 32  2  0
 34 33  1  0
 34 29  2  0
 35 36  1  0
 36 37  1  0
 37 38  2  0
 39 38  1  0
 39 43  1  0
 40 39  2  0
 41 36  2  0
 41 40  1  0
 42 41  1  0
 44 45  1  0
 45 48  1  0
 45 47  1  0
 46 44  2  0
 49 50  1  0
 49 24  1  0
 51 49  1  0
 53 64  2  0
 54 52  1  0
 54 59  1  0
 55 63  1  0
 55 65  1  0
 56 62  1  0
 56 58  1  0
 57 63  1  0
 58 59  2  0
 58 57  1  0
 60 61  1  0
 60 54  2  0
 61 56  2  0
 62 55  1  0
 63 53  1  0
 65 67  2  0
 66 65  1  0
 68 66  1  0
 69 78  2  0
 69 74  1  0
 70 66  1  0
 70 74  1  0
 71 70  1  0
 72 73  1  0
 72 71  1  0
 73 69  1  0
 74 75  2  0
 75 76  1  0
 77 76  2  0
 78 77  1  0
 79 53  1  0
 79 80  1  0
 79 89  1  0
 80 83  1  0
 81 85  1  0
 81 80  1  0
 82 81  2  0
 85 84  1  0
 87 85  1  0
 87 88  1  0
 87 86  1  0
 89 92  1  1
 89 90  1  0
 91 89  1  0
M  ISO  4   3 101  14 100  22 100  52 101
M  END
>  <TORSDO>  (26) 
F 17

>  <SCORE>  (26) 
-15.217

>  <name>  (26) 
25

>  <ligand_id>  (26) 
25

>  <original_smiles>  (26) 
[H]C(Oc1c([H])c([H])c2c(c1[H])C([H])([H])N(C(=O)C([H])(N([H])C(=O)C([H])(N([H])C([H])([H])[H])C([H])([H])[H])C(C([H])([H])[H])(C([H])([H])[H])C([H])([H])[H])C([H])(C(=O)N([H])C1([H])c3c([H])c([H])c([H])c([H])c3C([H])([H])C([H])([H])C1([H])[H])C2([H])[H])=C1C(=O)N(c2c([H])c([H])c([H])c(N([H])C(=O)N3C([H])([H])C([H])([H])C([H])([H])C([H])(n4nc(-c5c([H])c([H])c(Oc6c([H])c([H])c(F)c([H])c6F)c([H])c5[H])c(C(=O)N([H])[H])c4N([H])[H])C3([H])[H])c2[H])C([H])([H])C1([H])[H]

>  <smiles>  (26) 
[H]C(Oc1c([H])c([H])c2c(c1[H])C([H])([H])N(C(=O)C([H])(N([H])C(=O)C([H])(N([H])C([H])([H])[H])C([H])([H])[H])C(C([H])([H])[H])(C([H])([H])[H])C([H])([H])[H])C([H])(C(=O)N([H])C1([H])c3c([H])c([H])c([H])c([H])c3C([H])([H])C([H])([H])C1([H])[H])C2([H])[H])=C1C(=O)N(c2c([H])c([H])c([H])c(N([H])C(=O)N3C([H])([H])C([H])([H])C([H])([H])C([H])(n4nc(-c5c([H])c([H])c(Oc6c([H])c([H])c(F)c([H])c6F)c([H])c5[H])c(C(=O)N([H])[H])c4N([H])[H])C3([H])[H])c2[H])C([H])([H])C1([H])[H]

$$$$
26:0:0
     RDKit          3D

 92100  0  0  1  0  0  0  0  0999 V2000
  -30.5970  -21.3410   20.3450 C   0  0  0  0  0  0  0  0  0  0  0  0
  -29.5290  -22.1550   20.1830 N   0  0  0  0  0  0  0  0  0  0  0  0
  -31.7470  -21.7970   20.3610 O   0  0  0  0  0  0  0  0  0  0  0  0
  -28.5910  -21.7800   20.2170 H   0  0  0  0  0  0  0  0  0  0  0  0
  -31.5380  -18.9870   20.4040 C   0  0  0  0  0  3  0  0  0  0  0  0
  -29.1430  -19.2200   20.6590 C   0  0  0  0  0  3  0  0  0  0  0  0
  -31.4290  -17.5850   20.5220 C   0  0  0  0  0  3  0  0  0  0  0  0
  -29.0330  -17.8080   20.7710 C   0  0  0  0  0  3  0  0  0  0  0  0
  -30.4030  -19.8360   20.4620 C   0  0  0  0  0  0  0  0  0  0  0  0
  -30.1690  -16.9650   20.6920 C   0  0  0  0  0  0  0  0  0  0  0  0
  -30.6860  -14.5320   20.2300 C   0  0  0  0  0  0  0  0  0  0  0  0
  -30.3380  -12.3970   19.0450 C   0  0  0  0  0  2  0  0  0  0  0  0
  -29.3470  -12.6420   17.8870 C   0  0  0  0  0  2  0  0  0  0  0  0
  -27.8920  -12.4990   18.3750 C   0  0  0  0  0  2  0  0  0  0  0  0
  -27.6150  -13.2950   19.6780 C   0  0  0  0  0  3  0  0  0  0  0  0
  -28.7140  -13.0350   20.7320 C   0  0  0  0  0  2  0  0  0  0  0  0
  -30.0150  -13.3520   20.1160 N   0  0  0  0  0  0  0  0  0  0  0  0
  -31.8000  -14.6970   19.7260 O   0  0  0  0  0  0  0  0  0  0  0  0
  -29.9840  -15.5410   20.7990 N   0  0  0  0  0  0  0  0  0  0  0  0
  -29.0960  -15.2470   21.1760 H   0  0  0  0  0  0  0  0  0  0  0  0
  -25.2500  -13.8900   20.5010 C   0  0  0  0  0  0  0  0  0  0  0  0
  -24.1950  -13.1120   20.8960 C   0  0  0  0  0  0  0  0  0  0  0  0
  -24.6500  -11.7610   20.8140 C   0  0  0  0  0  0  0  0  0  0  0  0
  -26.2810  -13.0130   20.2050 N   0  0  0  0  0  0  0  0  0  0  0  0
  -25.9260  -11.7250   20.4500 N   0  0  0  0  0  0  0  0  0  0  0  0
  -23.9280  -10.4960   21.0040 C   0  0  0  0  0  0  0  0  0  0  0  0
  -24.3780   -9.5190   21.9190 C   0  0  0  0  0  3  0  0  0  0  0  0
  -23.6580   -8.3180   22.0980 C   0  0  0  0  0  3  0  0  0  0  0  0
  -22.4720   -8.0870   21.3610 C   0  0  0  0  0  0  0  0  0  0  0  0
  -22.0410   -9.0520   20.4360 C   0  0  0  0  0  3  0  0  0  0  0  0
  -22.7620  -10.2440   20.2540 C   0  0  0  0  0  3  0  0  0  0  0  0
  -21.7210   -6.9400   21.4510 O   0  0  0  0  0  0  0  0  0  0  0  0
  -21.6710   -6.2000   22.6050 C   0  0  0  0  0  0  0  0  0  0  0  0
  -21.2040   -6.7450   23.8200 C   0  0  0  0  0  3  0  0  0  0  0  0
  -21.1040   -5.9310   24.9660 C   0  0  0  0  0  3  0  0  0  0  0  0
  -21.4610   -4.5710   24.8970 C   0  0  0  0  0  0  0  0  0  0  0  0
  -21.9200   -4.0240   23.6840 C   0  0  0  0  0  3  0  0  0  0  0  0
  -22.0220   -4.8360   22.5420 C   0  0  0  0  0  0  0  0  0  0  0  0
  -22.4460   -4.3000   21.3720 F   0  0  0  0  0  0  0  0  0  0  0  0
  -21.3570   -3.7850   25.9940 F   0  0  0  0  0  0  0  0  0  0  0  0
  -22.8130  -13.5860   21.2380 C   0  0  0  0  0  0  0  0  0  0  0  0
  -22.1150  -12.8660   22.1110 N   0  0  0  0  0  0  0  0  0  0  0  0
  -22.3600  -14.6290   20.7670 O   0  0  0  0  0  0  0  0  0  0  0  0
  -22.4940  -12.0210   22.5120 H   0  0  0  0  0  0  0  0  0  0  0  0
  -21.1900  -13.1660   22.3830 H   0  0  0  0  0  0  0  0  0  0  0  0
  -25.4140  -15.2640   20.3510 N   0  0  0  0  0  0  0  0  0  0  0  0
  -24.6540  -15.9180   20.5040 H   0  0  0  0  0  0  0  0  0  0  0  0
  -26.2480  -15.7050   19.9840 H   0  0  0  0  0  0  0  0  0  0  0  0
  -28.6380  -24.2740   19.8030 C   0  0  0  0  0  3  0  0  0  0  0  0
  -29.6640  -23.4860   19.8440 N   0  0  0  0  0  0  0  0  0  0  0  0
  -28.7520  -25.6870   19.2370 C   0  0  0  0  0  2  0  0  0  0  0  0
  -28.4900  -26.7460   20.1800 O   0  0  0  0  0  0  0  0  0  0  0  0
  -24.6160  -31.8900   23.2280 C   0  0  0  0  0  0  0  0  0  0  0  0
  -27.2960  -27.4500   20.1450 C   0  0  0  0  0  0  0  0  0  0  0  0
  -23.4230  -30.4880   21.5770 C   0  0  0  0  0  3  0  0  0  0  0  0
  -24.8900  -28.9560   20.1550 C   0  0  0  0  0  0  0  0  0  0  0  0
  -25.9500  -30.8500   21.3950 C   0  0  0  0  0  2  0  0  0  0  0  0
  -26.0420  -29.4780   20.7530 C   0  0  0  0  0  0  0  0  0  0  0  0
  -27.2420  -28.7290   20.7520 C   0  0  0  0  0  3  0  0  0  0  0  0
  -26.1160  -26.9370   19.5550 C   0  0  0  0  0  3  0  0  0  0  0  0
  -24.9220  -27.6840   19.5570 C   0  0  0  0  0  3  0  0  0  0  0  0
  -23.6420  -29.8100   20.1970 C   0  0  0  0  0  2  0  0  0  0  0  0
  -24.6810  -31.0920   22.1240 N   0  0  0  0  0  0  0  0  0  0  0  0
  -23.5300  -32.1570   23.7630 O   0  0  0  0  0  0  0  0  0  0  0  0
  -22.7710  -29.4630   22.5320 C   0  0  0  0  0  0  0  0  0  0  0  0
  -21.4460  -29.2810   22.4030 N   0  0  0  0  0  0  0  0  0  0  0  0
  -23.4530  -28.8320   23.3450 O   0  0  0  0  0  0  0  0  0  0  0  0
  -20.9570  -29.8420   21.7180 H   0  0  0  0  0  0  0  0  0  0  0  0
  -18.0670  -28.1040   22.9030 C   0  0  0  0  0  0  0  0  0  0  0  0
  -20.6270  -28.3410   23.1670 C   0  0  0  0  0  3  0  0  0  0  0  0
  -20.7170  -26.9150   22.5740 C   0  0  0  0  0  2  0  0  0  0  0  0
  -19.6090  -26.6130   21.5610 C   0  0  0  0  0  2  0  0  0  0  0  0
  -18.2310  -26.7610   22.2120 C   0  0  0  0  0  2  0  0  0  0  0  0
  -19.1930  -28.8520   23.3380 C   0  0  0  0  0  0  0  0  0  0  0  0
  -18.9860  -30.1110   23.9430 C   0  0  0  0  0  3  0  0  0  0  0  0
  -17.6850  -30.6200   24.1180 C   0  0  0  0  0  3  0  0  0  0  0  0
  -16.5740  -29.8680   23.7010 C   0  0  0  0  0  3  0  0  0  0  0  0
  -16.7660  -28.6110   23.1000 C   0  0  0  0  0  3  0  0  0  0  0  0
  -25.8960  -32.5240   23.8570 C   0  0  0  0  0  3  0  0  0  0  0  0
  -26.4090  -31.7530   25.1350 C   0  0  1  0  0  0  0  0  0  0  0  0
  -25.3100  -31.5120   26.1960 C   0  0  0  0  0  1  0  0  0  0  0  0
  -26.9970  -30.3780   24.7440 C   0  0  0  0  0  1  0  0  0  0  0  0
  -27.5530  -32.5510   25.8050 C   0  0  0  0  0  1  0  0  0  0  0  0
  -25.5830  -33.9210   24.1840 N   0  0  0  0  0  0  0  0  0  0  0  0
  -25.9210  -34.9730   23.4260 C   0  0  0  0  0  0  0  0  0  0  0  0
  -26.6000  -34.8710   22.4010 O   0  0  0  0  0  0  0  0  0  0  0  0
  -24.9810  -34.0750   24.9780 H   0  0  0  0  0  0  0  0  0  0  0  0
  -24.2020  -36.7690   23.0440 C   0  0  0  0  0  1  0  0  0  0  0  0
  -25.4270  -36.3610   23.8790 C   0  0  0  0  0  3  0  0  0  0  0  0
  -27.5450  -37.2420   24.7550 C   0  0  0  0  0  1  0  0  0  0  0  0
  -26.4630  -37.4140   23.7890 N   0  0  0  0  0  0  0  0  0  0  0  0
  -26.0550  -38.3330   23.9290 H   0  0  0  0  0  0  0  0  0  0  0  0
  1  3  2  0
  1  9  1  0
  2  4  1  0
  2  1  1  0
  5  9  2  0
  5  7  1  0
  6  8  2  0
  7 10  2  0
  9  6  1  0
 10  8  1  0
 10 19  1  0
 11 19  1  0
 12 17  1  0
 13 14  1  0
 13 12  1  0
 15 14  1  0
 15 24  1  0
 15 16  1  0
 17 11  1  0
 17 16  1  0
 18 11  2  0
 19 20  1  0
 21 22  2  0
 22 41  1  0
 23 22  1  0
 23 26  1  0
 24 25  1  0
 24 21  1  0
 25 23  2  0
 26 27  1  0
 27 28  2  0
 29 32  1  0
 29 28  1  0
 30 29  2  0
 31 30  1  0
 31 26  2  0
 32 33  1  0
 33 34  1  0
 34 35  2  0
 36 35  1  0
 36 40  1  0
 37 36  2  0
 38 33  2  0
 38 37  1  0
 39 38  1  0
 41 42  1  0
 42 45  1  0
 42 44  1  0
 43 41  2  0
 46 21  1  0
 46 47  1  0
 48 46  1  0
 49 50  2  0
 50  2  1  0
 51 49  1  0
 51 52  1  0
 53 64  2  0
 54 52  1  0
 54 59  1  0
 55 63  1  0
 55 65  1  0
 56 62  1  0
 56 58  1  0
 57 63  1  0
 58 57  1  0
 59 58  2  0
 60 61  1  0
 60 54  2  0
 61 56  2  0
 62 55  1  0
 63 53  1  0
 65 67  2  0
 66 65  1  0
 68 66  1  0
 69 78  2  0
 69 74  1  0
 70 66  1  0
 70 74  1  0
 71 70  1  0
 72 73  1  0
 72 71  1  0
 73 69  1  0
 74 75  2  0
 75 76  1  0
 77 76  2  0
 78 77  1  0
 79 53  1  0
 79 84  1  0
 79 80  1  0
 80 83  1  1
 80 81  1  0
 82 80  1  0
 84 87  1  0
 85 89  1  0
 85 84  1  0
 86 85  2  0
 89 88  1  0
 91 89  1  0
 91 92  1  0
 91 90  1  0
M  ISO  4  11 100  19 100  51 101  52 101
M  END
>  <TORSDO>  (27) 
F 19

>  <SCORE>  (27) 
-14.315

>  <name>  (27) 
26

>  <ligand_id>  (27) 
26

>  <original_smiles>  (27) 
[H]C(=NN([H])C(=O)c1c([H])c([H])c(N([H])C(=O)N2C([H])([H])C([H])([H])C([H])([H])C([H])(n3nc(-c4c([H])c([H])c(Oc5c([H])c([H])c(F)c([H])c5F)c([H])c4[H])c(C(=O)N([H])[H])c3N([H])[H])C2([H])[H])c([H])c1[H])C([H])([H])Oc1c([H])c([H])c2c(c1[H])C([H])([H])N(C(=O)C([H])(N([H])C(=O)C([H])(N([H])C([H])([H])[H])C([H])([H])[H])C(C([H])([H])[H])(C([H])([H])[H])C([H])([H])[H])C([H])(C(=O)N([H])C1([H])c3c([H])c([H])c([H])c([H])c3C([H])([H])C([H])([H])C1([H])[H])C2([H])[H]

>  <smiles>  (27) 
[H]C(=NN([H])C(=O)c1c([H])c([H])c(N([H])C(=O)N2C([H])([H])C([H])([H])C([H])([H])C([H])(n3nc(-c4c([H])c([H])c(Oc5c([H])c([H])c(F)c([H])c5F)c([H])c4[H])c(C(=O)N([H])[H])c3N([H])[H])C2([H])[H])c([H])c1[H])C([H])([H])Oc1c([H])c([H])c2c(c1[H])C([H])([H])N(C(=O)C([H])(N([H])C(=O)C([H])(N([H])C([H])([H])[H])C([H])([H])[H])C(C([H])([H])[H])(C([H])([H])[H])C([H])([H])[H])C([H])(C(=O)N([H])C1([H])c3c([H])c([H])c([H])c([H])c3C([H])([H])C([H])([H])C1([H])[H])C2([H])[H]

$$$$
28:0:0
     RDKit          3D

 98106  0  0  1  0  0  0  0  0999 V2000
  -28.8300  -20.6400   20.8020 C   0  0  0  0  0  0  0  0  0  0  0  0
  -28.3670  -23.0430   20.8450 C   0  0  0  0  0  0  0  0  0  0  0  0
  -29.1150  -21.9470   20.5380 N   0  0  0  0  0  0  0  0  0  0  0  0
  -27.7240  -20.2410   21.1910 O   0  0  0  0  0  0  0  0  0  0  0  0
  -27.3210  -22.9790   21.5030 O   0  0  0  0  0  0  0  0  0  0  0  0
  -29.9860  -22.1510   20.0770 H   0  0  0  0  0  0  0  0  0  0  0  0
  -31.2700  -19.9650   20.5500 C   0  0  0  0  0  3  0  0  0  0  0  0
  -29.5880  -18.1950   20.5600 C   0  0  0  0  0  3  0  0  0  0  0  0
  -31.9420  -17.6150   20.4410 C   0  0  0  0  0  3  0  0  0  0  0  0
  -29.9100  -19.5890   20.5920 C   0  0  0  0  0  0  0  0  0  0  0  0
  -32.2770  -18.9850   20.4740 C   0  0  0  0  0  0  0  0  0  0  0  0
  -30.5910  -17.1850   20.4710 C   0  0  0  0  0  0  0  0  0  0  0  0
  -30.9130  -14.7090   19.9920 C   0  0  0  0  0  0  0  0  0  0  0  0
  -30.5830  -12.4970   18.9370 C   0  0  0  0  0  2  0  0  0  0  0  0
  -29.5810  -12.6420   17.7730 C   0  0  0  0  0  2  0  0  0  0  0  0
  -28.1360  -12.4870   18.2820 C   0  0  0  0  0  2  0  0  0  0  0  0
  -27.8440  -13.3560   19.5360 C   0  0  0  0  0  3  0  0  0  0  0  0
  -28.9620  -13.2130   20.5950 C   0  0  0  0  0  2  0  0  0  0  0  0
  -30.2430  -13.5190   19.9430 N   0  0  0  0  0  0  0  0  0  0  0  0
  -32.0270  -14.8330   19.4800 O   0  0  0  0  0  0  0  0  0  0  0  0
  -30.2200  -15.7810   20.4660 N   0  0  0  0  0  0  0  0  0  0  0  0
  -29.2790  -15.5680   20.7600 H   0  0  0  0  0  0  0  0  0  0  0  0
  -25.5030  -13.9440   20.4190 C   0  0  0  0  0  0  0  0  0  0  0  0
  -24.4560  -13.1640   20.8300 C   0  0  0  0  0  0  0  0  0  0  0  0
  -24.9050  -11.8120   20.7230 C   0  0  0  0  0  0  0  0  0  0  0  0
  -26.5260  -13.0670   20.0930 N   0  0  0  0  0  0  0  0  0  0  0  0
  -26.1740  -11.7780   20.3340 N   0  0  0  0  0  0  0  0  0  0  0  0
  -24.1830  -10.5480   20.9150 C   0  0  0  0  0  0  0  0  0  0  0  0
  -24.5990   -9.5970   21.8730 C   0  0  0  0  0  3  0  0  0  0  0  0
  -23.8780   -8.3970   22.0520 C   0  0  0  0  0  3  0  0  0  0  0  0
  -22.7240   -8.1400   21.2740 C   0  0  0  0  0  0  0  0  0  0  0  0
  -22.3260   -9.0790   20.3060 C   0  0  0  0  0  3  0  0  0  0  0  0
  -23.0490  -10.2700   20.1250 C   0  0  0  0  0  3  0  0  0  0  0  0
  -21.9750   -6.9910   21.3620 O   0  0  0  0  0  0  0  0  0  0  0  0
  -21.8200   -6.3210   22.5490 C   0  0  0  0  0  0  0  0  0  0  0  0
  -21.2000   -6.9200   23.6680 C   0  0  0  0  0  3  0  0  0  0  0  0
  -21.0000   -6.1720   24.8460 C   0  0  0  0  0  3  0  0  0  0  0  0
  -21.4090   -4.8270   24.9050 C   0  0  0  0  0  0  0  0  0  0  0  0
  -22.0210   -4.2270   23.7900 C   0  0  0  0  0  3  0  0  0  0  0  0
  -22.2230   -4.9720   22.6140 C   0  0  0  0  0  0  0  0  0  0  0  0
  -22.7940   -4.3840   21.5360 F   0  0  0  0  0  0  0  0  0  0  0  0
  -21.2080   -4.1050   26.0320 F   0  0  0  0  0  0  0  0  0  0  0  0
  -23.0820  -13.6390   21.2050 C   0  0  0  0  0  0  0  0  0  0  0  0
  -22.4020  -12.9140   22.0860 N   0  0  0  0  0  0  0  0  0  0  0  0
  -22.6220  -14.6860   20.7540 O   0  0  0  0  0  0  0  0  0  0  0  0
  -22.7840  -12.0630   22.4720 H   0  0  0  0  0  0  0  0  0  0  0  0
  -21.4850  -13.2150   22.3810 H   0  0  0  0  0  0  0  0  0  0  0  0
  -25.6660  -15.3190   20.2770 N   0  0  0  0  0  0  0  0  0  0  0  0
  -24.9110  -15.9730   20.4500 H   0  0  0  0  0  0  0  0  0  0  0  0
  -26.4900  -15.7590   19.8870 H   0  0  0  0  0  0  0  0  0  0  0  0
  -33.6150  -19.3750   20.4480 N   0  0  0  0  0  0  0  0  0  0  0  0
  -33.8650  -20.3070   20.7650 H   0  0  0  0  0  0  0  0  0  0  0  0
  -34.3350  -18.6850   20.6460 H   0  0  0  0  0  0  0  0  0  0  0  0
  -28.2310  -25.4760   20.6340 C   0  0  0  0  0  3  0  0  0  0  0  0
  -28.8940  -24.3260   20.3320 C   0  0  0  0  0  0  0  0  0  0  0  0
  -29.9950  -24.3470   19.5660 O   0  0  0  0  0  0  0  0  0  0  0  0
  -30.1480  -25.2550   19.3390 H   0  0  0  0  0  0  0  0  0  0  0  0
  -28.5180  -26.7660   20.1960 O   0  0  0  0  0  0  0  0  0  0  0  0
  -24.6840  -31.9730   23.2640 C   0  0  0  0  0  0  0  0  0  0  0  0
  -27.4130  -27.6020   20.1290 C   0  0  0  0  0  0  0  0  0  0  0  0
  -23.5240  -30.6080   21.5600 C   0  0  0  0  0  3  0  0  0  0  0  0
  -25.0200  -29.1240   20.1180 C   0  0  0  0  0  0  0  0  0  0  0  0
  -26.0550  -30.9820   21.4270 C   0  0  0  0  0  2  0  0  0  0  0  0
  -26.1660  -29.6290   20.7480 C   0  0  0  0  0  0  0  0  0  0  0  0
  -27.3700  -28.8760   20.7500 C   0  0  0  0  0  3  0  0  0  0  0  0
  -26.2540  -27.1340   19.4690 C   0  0  0  0  0  3  0  0  0  0  0  0
  -25.0600  -27.8780   19.4740 C   0  0  0  0  0  3  0  0  0  0  0  0
  -23.7680  -29.9710   20.1670 C   0  0  0  0  0  2  0  0  0  0  0  0
  -24.7710  -31.2010   22.1420 N   0  0  0  0  0  0  0  0  0  0  0  0
  -23.5890  -32.2220   23.7880 O   0  0  0  0  0  0  0  0  0  0  0  0
  -22.8610  -29.5560   22.4790 C   0  0  0  0  0  0  0  0  0  0  0  0
  -21.5400  -29.3700   22.3240 N   0  0  0  0  0  0  0  0  0  0  0  0
  -23.5330  -28.9120   23.2890 O   0  0  0  0  0  0  0  0  0  0  0  0
  -21.0600  -29.9420   21.6430 H   0  0  0  0  0  0  0  0  0  0  0  0
  -18.1500  -28.1990   22.7850 C   0  0  0  0  0  0  0  0  0  0  0  0
  -20.7130  -28.4070   23.0520 C   0  0  0  0  0  3  0  0  0  0  0  0
  -20.7910  -27.0050   22.4050 C   0  0  0  0  0  2  0  0  0  0  0  0
  -19.6780  -26.7490   21.3840 C   0  0  0  0  0  2  0  0  0  0  0  0
  -18.3030  -26.8810   22.0420 C   0  0  0  0  0  2  0  0  0  0  0  0
  -19.2820  -28.9220   23.2450 C   0  0  0  0  0  0  0  0  0  0  0  0
  -19.0850  -30.1580   23.8980 C   0  0  0  0  0  3  0  0  0  0  0  0
  -17.7890  -30.6690   24.0980 C   0  0  0  0  0  3  0  0  0  0  0  0
  -16.6710  -29.9400   23.6550 C   0  0  0  0  0  3  0  0  0  0  0  0
  -16.8530  -28.7060   23.0050 C   0  0  0  0  0  3  0  0  0  0  0  0
  -25.9510  -32.5980   23.9260 C   0  0  0  0  0  3  0  0  0  0  0  0
  -26.4230  -31.8240   25.2180 C   0  0  1  0  0  0  0  0  0  0  0  0
  -25.2920  -31.5770   26.2430 C   0  0  0  0  0  1  0  0  0  0  0  0
  -27.0250  -30.4500   24.8420 C   0  0  0  0  0  1  0  0  0  0  0  0
  -27.5440  -32.6200   25.9250 C   0  0  0  0  0  1  0  0  0  0  0  0
  -25.6390  -33.9980   24.2450 N   0  0  0  0  0  0  0  0  0  0  0  0
  -25.9910  -35.0460   23.4880 C   0  0  0  0  0  0  0  0  0  0  0  0
  -26.6820  -34.9370   22.4710 O   0  0  0  0  0  0  0  0  0  0  0  0
  -25.0310  -34.1570   25.0330 H   0  0  0  0  0  0  0  0  0  0  0  0
  -24.2790  -36.8420   23.0820 C   0  0  0  0  0  1  0  0  0  0  0  0
  -25.4960  -36.4370   23.9290 C   0  0  0  0  0  3  0  0  0  0  0  0
  -27.6020  -37.3240   24.8260 C   0  0  0  0  0  1  0  0  0  0  0  0
  -26.5340  -37.4870   23.8420 N   0  0  0  0  0  0  0  0  0  0  0  0
  -26.1260  -38.4090   23.9670 H   0  0  0  0  0  0  0  0  0  0  0  0
  1  4  2  0
  2  5  2  0
  3  1  1  0
  3  2  1  0
  6  3  1  0
  7 10  1  0
  8 10  2  0
  9 12  2  0
  9 11  1  0
 10  1  1  0
 11  7  2  0
 12  8  1  0
 13 21  1  0
 14 19  1  0
 15 16  1  0
 15 14  1  0
 17 16  1  0
 17 26  1  0
 17 18  1  0
 19 13  1  0
 19 18  1  0
 20 13  2  0
 21 12  1  0
 21 22  1  0
 23 24  2  0
 24 43  1  0
 25 24  1  0
 25 28  1  0
 26 27  1  0
 26 23  1  0
 27 25  2  0
 28 29  1  0
 29 30  2  0
 31 34  1  0
 31 30  1  0
 32 31  2  0
 33 32  1  0
 33 28  2  0
 34 35  1  0
 35 40  2  0
 35 36  1  0
 36 37  2  0
 37 38  1  0
 38 42  1  0
 39 38  2  0
 40 39  1  0
 41 40  1  0
 43 44  1  0
 44 47  1  0
 44 46  1  0
 45 43  2  0
 48 23  1  0
 48 49  1  0
 50 48  1  0
 51 11  1  0
 51 53  1  0
 51 52  1  0
 55 54  2  0
 55  2  1  0
 56 55  1  0
 57 56  1  0
 58 54  1  0
 59 70  2  0
 60 58  1  0
 60 65  1  0
 61 69  1  0
 61 71  1  0
 62 68  1  0
 62 64  1  0
 63 69  1  0
 64 65  2  0
 64 63  1  0
 66 67  1  0
 66 60  2  0
 67 62  2  0
 68 61  1  0
 69 59  1  0
 71 73  2  0
 72 71  1  0
 74 72  1  0
 75 84  2  0
 75 80  1  0
 76 72  1  0
 76 80  1  0
 77 76  1  0
 78 79  1  0
 78 77  1  0
 79 75  1  0
 80 81  2  0
 81 82  1  0
 83 82  2  0
 84 83  1  0
 85 59  1  0
 85 90  1  0
 85 86  1  0
 86 89  1  1
 86 87  1  0
 88 86  1  0
 90 93  1  0
 91 95  1  0
 91 90  1  0
 92 91  2  0
 95 94  1  0
 97 95  1  0
 97 98  1  0
 97 96  1  0
M  ISO  4  13 100  21 100  54 101  58 101
M  END
>  <TORSDO>  (28) 
F 20

>  <SCORE>  (28) 
-13.822

>  <name>  (28) 
28

>  <ligand_id>  (28) 
28

>  <original_smiles>  (28) 
[H]OC(C(=O)N([H])C(=O)c1c([H])c(N([H])[H])c([H])c(N([H])C(=O)N2C([H])([H])C([H])([H])C([H])([H])C([H])(n3nc(-c4c([H])c([H])c(Oc5c([H])c([H])c(F)c([H])c5F)c([H])c4[H])c(C(=O)N([H])[H])c3N([H])[H])C2([H])[H])c1[H])=C([H])Oc1c([H])c([H])c2c(c1[H])C([H])([H])N(C(=O)C([H])(N([H])C(=O)C([H])(N([H])C([H])([H])[H])C([H])([H])[H])C(C([H])([H])[H])(C([H])([H])[H])C([H])([H])[H])C([H])(C(=O)N([H])C1([H])c3c([H])c([H])c([H])c([H])c3C([H])([H])C([H])([H])C1([H])[H])C2([H])[H]

>  <smiles>  (28) 
[H]OC(C(=O)N([H])C(=O)c1c([H])c(N([H])[H])c([H])c(N([H])C(=O)N2C([H])([H])C([H])([H])C([H])([H])C([H])(n3nc(-c4c([H])c([H])c(Oc5c([H])c([H])c(F)c([H])c5F)c([H])c4[H])c(C(=O)N([H])[H])c3N([H])[H])C2([H])[H])c1[H])=C([H])Oc1c([H])c([H])c2c(c1[H])C([H])([H])N(C(=O)C([H])(N([H])C(=O)C([H])(N([H])C([H])([H])[H])C([H])([H])[H])C(C([H])([H])[H])(C([H])([H])[H])C([H])([H])[H])C([H])(C(=O)N([H])C1([H])c3c([H])c([H])c([H])c([H])c3C([H])([H])C([H])([H])C1([H])[H])C2([H])[H]

$$$$
29:0:0
     RDKit          3D

 92101  0  0  1  0  0  0  0  0999 V2000
  -28.5230  -23.8100   20.4520 C   0  0  0  0  0  0  0  0  0  0  0  0
  -28.0310  -22.5950   21.0920 C   0  0  0  0  0  0  0  0  0  0  0  0
  -28.0320  -25.1060   20.6200 C   0  0  0  0  0  3  0  0  0  0  0  0
  -29.5810  -22.9420   19.7040 C   0  0  0  0  0  2  0  0  0  0  0  0
  -28.9830  -21.7870   20.4400 N   0  0  0  0  0  0  0  0  0  0  0  0
  -27.1220  -22.4250   21.8780 O   0  0  0  0  0  0  0  0  0  0  0  0
  -28.5270  -19.3820   21.0880 C   0  0  0  0  0  3  0  0  0  0  0  0
  -28.7370  -17.9690   21.1070 C   0  0  0  0  0  3  0  0  0  0  0  0
  -30.6250  -18.2380   19.6960 C   0  0  0  0  0  3  0  0  0  0  0  0
  -29.3220  -20.3310   20.3770 C   0  0  0  0  0  0  0  0  0  0  0  0
  -29.7940  -17.3250   20.4130 C   0  0  0  0  0  0  0  0  0  0  0  0
  -30.3930  -19.6680   19.6800 C   0  0  0  0  0  0  0  0  0  0  0  0
  -31.2420  -20.4350   18.9530 F   0  0  0  0  0  0  0  0  0  0  0  0
  -30.6670  -14.8230   19.9960 C   0  0  0  0  0  0  0  0  0  0  0  0
  -30.4710  -12.5660   18.9260 C   0  0  0  0  0  2  0  0  0  0  0  0
  -29.4460  -12.6620   17.7710 C   0  0  0  0  0  2  0  0  0  0  0  0
  -28.0060  -12.4670   18.2880 C   0  0  0  0  0  2  0  0  0  0  0  0
  -27.7090  -13.3150   19.5530 C   0  0  0  0  0  3  0  0  0  0  0  0
  -28.8370  -13.1690   20.5990 C   0  0  0  0  0  2  0  0  0  0  0  0
  -30.0970  -13.5680   19.9500 N   0  0  0  0  0  0  0  0  0  0  0  0
  -31.7910  -15.0170   19.5220 O   0  0  0  0  0  0  0  0  0  0  0  0
  -29.8570  -15.8370   20.4770 N   0  0  0  0  0  0  0  0  0  0  0  0
  -29.0460  -15.4360   20.9230 H   0  0  0  0  0  0  0  0  0  0  0  0
  -25.3720  -13.8870   20.4490 C   0  0  0  0  0  0  0  0  0  0  0  0
  -24.3300  -13.1030   20.8620 C   0  0  0  0  0  0  0  0  0  0  0  0
  -24.7840  -11.7530   20.7510 C   0  0  0  0  0  0  0  0  0  0  0  0
  -26.3950  -13.0150   20.1150 N   0  0  0  0  0  0  0  0  0  0  0  0
  -26.0510  -11.7240   20.3570 N   0  0  0  0  0  0  0  0  0  0  0  0
  -24.0670  -10.4850   20.9430 C   0  0  0  0  0  0  0  0  0  0  0  0
  -24.5060   -9.5230   21.8790 C   0  0  0  0  0  3  0  0  0  0  0  0
  -23.7890   -8.3200   22.0580 C   0  0  0  0  0  3  0  0  0  0  0  0
  -22.6190   -8.0710   21.3010 C   0  0  0  0  0  0  0  0  0  0  0  0
  -22.1990   -9.0220   20.3550 C   0  0  0  0  0  3  0  0  0  0  0  0
  -22.9170  -10.2180   20.1740 C   0  0  0  0  0  3  0  0  0  0  0  0
  -21.8740   -6.9210   21.3900 O   0  0  0  0  0  0  0  0  0  0  0  0
  -21.7590   -6.2260   22.5680 C   0  0  0  0  0  0  0  0  0  0  0  0
  -21.2490   -6.8260   23.7390 C   0  0  0  0  0  3  0  0  0  0  0  0
  -21.0830   -6.0570   24.9080 C   0  0  0  0  0  3  0  0  0  0  0  0
  -21.4170   -4.6900   24.9070 C   0  0  0  0  0  0  0  0  0  0  0  0
  -21.9200   -4.0890   23.7390 C   0  0  0  0  0  3  0  0  0  0  0  0
  -22.0870   -4.8550   22.5720 C   0  0  0  0  0  0  0  0  0  0  0  0
  -22.5520   -4.2670   21.4430 F   0  0  0  0  0  0  0  0  0  0  0  0
  -21.2500   -3.9490   26.0270 F   0  0  0  0  0  0  0  0  0  0  0  0
  -22.9550  -13.5710   21.2420 C   0  0  0  0  0  0  0  0  0  0  0  0
  -22.2850  -12.8480   22.1320 N   0  0  0  0  0  0  0  0  0  0  0  0
  -22.4850  -14.6120   20.7840 O   0  0  0  0  0  0  0  0  0  0  0  0
  -22.6790  -12.0060   22.5220 H   0  0  0  0  0  0  0  0  0  0  0  0
  -21.3650  -13.1430   22.4290 H   0  0  0  0  0  0  0  0  0  0  0  0
  -25.5290  -15.2640   20.3100 N   0  0  0  0  0  0  0  0  0  0  0  0
  -24.7680  -15.9110   20.4830 H   0  0  0  0  0  0  0  0  0  0  0  0
  -26.3420  -15.7110   19.9040 H   0  0  0  0  0  0  0  0  0  0  0  0
  -28.3480  -26.3960   20.1000 O   0  0  0  0  0  0  0  0  0  0  0  0
  -24.6840  -31.8830   23.1820 C   0  0  0  0  0  0  0  0  0  0  0  0
  -27.2880  -27.3320   20.0660 C   0  0  0  0  0  0  0  0  0  0  0  0
  -23.4770  -30.4970   21.5360 C   0  0  0  0  0  3  0  0  0  0  0  0
  -24.9260  -28.9650   20.0810 C   0  0  0  0  0  0  0  0  0  0  0  0
  -26.0170  -30.8160   21.3440 C   0  0  0  0  0  2  0  0  0  0  0  0
  -26.1010  -29.4420   20.6800 C   0  0  0  0  0  0  0  0  0  0  0  0
  -27.2860  -28.6360   20.6660 C   0  0  0  0  0  3  0  0  0  0  0  0
  -26.0950  -26.9270   19.4310 C   0  0  0  0  0  3  0  0  0  0  0  0
  -24.9270  -27.7150   19.4440 C   0  0  0  0  0  3  0  0  0  0  0  0
  -23.6860  -29.8370   20.1490 C   0  0  0  0  0  2  0  0  0  0  0  0
  -24.7460  -31.0830   22.0770 N   0  0  0  0  0  0  0  0  0  0  0  0
  -23.6030  -32.1510   23.7260 O   0  0  0  0  0  0  0  0  0  0  0  0
  -22.8210  -29.4700   22.4910 C   0  0  0  0  0  0  0  0  0  0  0  0
  -21.4930  -29.2910   22.3730 N   0  0  0  0  0  0  0  0  0  0  0  0
  -23.5060  -28.8370   23.3000 O   0  0  0  0  0  0  0  0  0  0  0  0
  -20.9990  -29.8530   21.6950 H   0  0  0  0  0  0  0  0  0  0  0  0
  -18.1220  -28.0820   22.8930 C   0  0  0  0  0  0  0  0  0  0  0  0
  -20.6830  -28.3420   23.1400 C   0  0  0  0  0  3  0  0  0  0  0  0
  -20.7810  -26.9180   22.5480 C   0  0  0  0  0  2  0  0  0  0  0  0
  -19.6700  -26.6060   21.5400 C   0  0  0  0  0  2  0  0  0  0  0  0
  -18.2940  -26.7410   22.2000 C   0  0  0  0  0  2  0  0  0  0  0  0
  -19.2440  -28.8410   23.3210 C   0  0  0  0  0  0  0  0  0  0  0  0
  -19.0290  -30.0950   23.9320 C   0  0  0  0  0  3  0  0  0  0  0  0
  -17.7250  -30.5920   24.1170 C   0  0  0  0  0  3  0  0  0  0  0  0
  -16.6180  -29.8310   23.7050 C   0  0  0  0  0  3  0  0  0  0  0  0
  -16.8170  -28.5770   23.0980 C   0  0  0  0  0  3  0  0  0  0  0  0
  -25.9670  -32.5160   23.8030 C   0  0  0  0  0  3  0  0  0  0  0  0
  -25.6530  -33.9070   24.1560 N   0  0  0  0  0  0  0  0  0  0  0  0
  -25.9720  -34.9740   23.4110 C   0  0  0  0  0  0  0  0  0  0  0  0
  -26.6330  -34.8880   22.3720 O   0  0  0  0  0  0  0  0  0  0  0  0
  -25.0640  -34.0460   24.9640 H   0  0  0  0  0  0  0  0  0  0  0  0
  -24.2350  -36.7670   23.0980 C   0  0  0  0  0  1  0  0  0  0  0  0
  -25.4840  -36.3530   23.8940 C   0  0  0  0  0  3  0  0  0  0  0  0
  -27.6190  -37.2350   24.7260 C   0  0  0  0  0  1  0  0  0  0  0  0
  -26.5110  -37.4120   23.7890 N   0  0  0  0  0  0  0  0  0  0  0  0
  -26.1030  -38.3290   23.9500 H   0  0  0  0  0  0  0  0  0  0  0  0
  -26.4980  -31.7300   25.0650 C   0  0  1  0  0  0  0  0  0  0  0  0
  -25.4140  -31.4740   26.1390 C   0  0  0  0  0  1  0  0  0  0  0  0
  -27.0850  -30.3600   24.6540 C   0  0  0  0  0  1  0  0  0  0  0  0
  -27.6490  -32.5220   25.7290 C   0  0  0  0  0  1  0  0  0  0  0  0
  1  3  2  0
  1  2  1  0
  2  6  2  0
  4  5  1  0
  4  1  1  0
  5  2  1  0
  7  8  1  0
  9 11  1  0
 10  5  1  0
 10  7  2  0
 11 22  1  0
 11  8  2  0
 12  9  2  0
 12 10  1  0
 13 12  1  0
 14 22  1  0
 15 20  1  0
 16 17  1  0
 16 15  1  0
 18 17  1  0
 18 27  1  0
 18 19  1  0
 20 14  1  0
 20 19  1  0
 21 14  2  0
 22 23  1  0
 24 25  2  0
 25 44  1  0
 26 25  1  0
 26 29  1  0
 27 28  1  0
 27 24  1  0
 28 26  2  0
 29 30  1  0
 30 31  2  0
 32 35  1  0
 32 31  1  0
 33 32  2  0
 34 33  1  0
 34 29  2  0
 35 36  1  0
 36 41  2  0
 36 37  1  0
 37 38  2  0
 39 38  1  0
 39 43  1  0
 40 39  2  0
 41 40  1  0
 42 41  1  0
 44 45  1  0
 45 48  1  0
 45 47  1  0
 46 44  2  0
 49 24  1  0
 49 50  1  0
 51 49  1  0
 52  3  1  0
 53 64  2  0
 54 52  1  0
 54 59  1  0
 55 63  1  0
 55 65  1  0
 56 62  1  0
 56 58  1  0
 57 63  1  0
 58 57  1  0
 59 58  2  0
 60 61  1  0
 60 54  2  0
 61 56  2  0
 62 55  1  0
 63 53  1  0
 65 67  2  0
 66 65  1  0
 68 66  1  0
 69 78  2  0
 69 74  1  0
 70 66  1  0
 70 74  1  0
 71 70  1  0
 72 73  1  0
 72 71  1  0
 73 69  1  0
 74 75  2  0
 75 76  1  0
 77 76  2  0
 78 77  1  0
 79 53  1  0
 79 80  1  0
 79 89  1  0
 80 83  1  0
 81 85  1  0
 81 80  1  0
 82 81  2  0
 85 84  1  0
 87 85  1  0
 87 88  1  0
 87 86  1  0
 89 92  1  1
 89 90  1  0
 91 89  1  0
M  ISO  4   3 101  14 100  22 100  52 101
M  END
>  <TORSDO>  (29) 
F 17

>  <SCORE>  (29) 
-14.033

>  <name>  (29) 
29

>  <ligand_id>  (29) 
29

>  <original_smiles>  (29) 
[H]C(Oc1c([H])c([H])c2c(c1[H])C([H])([H])N(C(=O)C([H])(N([H])C(=O)C([H])(N([H])C([H])([H])[H])C([H])([H])[H])C(C([H])([H])[H])(C([H])([H])[H])C([H])([H])[H])C([H])(C(=O)N([H])C1([H])c3c([H])c([H])c([H])c([H])c3C([H])([H])C([H])([H])C1([H])[H])C2([H])[H])=C1C(=O)N(c2c([H])c([H])c(N([H])C(=O)N3C([H])([H])C([H])([H])C([H])([H])C([H])(n4nc(-c5c([H])c([H])c(Oc6c([H])c([H])c(F)c([H])c6F)c([H])c5[H])c(C(=O)N([H])[H])c4N([H])[H])C3([H])[H])c([H])c2F)C1([H])[H]

>  <smiles>  (29) 
[H]C(Oc1c([H])c([H])c2c(c1[H])C([H])([H])N(C(=O)C([H])(N([H])C(=O)C([H])(N([H])C([H])([H])[H])C([H])([H])[H])C(C([H])([H])[H])(C([H])([H])[H])C([H])([H])[H])C([H])(C(=O)N([H])C1([H])c3c([H])c([H])c([H])c([H])c3C([H])([H])C([H])([H])C1([H])[H])C2([H])[H])=C1C(=O)N(c2c([H])c([H])c(N([H])C(=O)N3C([H])([H])C([H])([H])C([H])([H])C([H])(n4nc(-c5c([H])c([H])c(Oc6c([H])c([H])c(F)c([H])c6F)c([H])c5[H])c(C(=O)N([H])[H])c4N([H])[H])C3([H])[H])c([H])c2F)C1([H])[H]

$$$$
30:0:0
     RDKit          3D

 94103  0  0  1  0  0  0  0  0999 V2000
  -29.0220  -24.0160   20.0720 C   0  0  0  0  0  0  0  0  0  0  0  0
  -30.3380  -24.0020   19.4650 C   0  0  0  0  0  0  0  0  0  0  0  0
  -28.6840  -22.6060   20.3690 C   0  0  0  0  0  0  0  0  0  0  0  0
  -28.1930  -25.0980   20.3320 C   0  0  0  0  0  3  0  0  0  0  0  0
  -30.8110  -22.5430   19.4010 C   0  0  0  0  0  2  0  0  0  0  0  0
  -29.7030  -21.7480   19.9770 N   0  0  0  0  0  0  0  0  0  0  0  0
  -31.0070  -24.9630   19.0640 O   0  0  0  0  0  0  0  0  0  0  0  0
  -27.6290  -22.2450   20.9040 O   0  0  0  0  0  0  0  0  0  0  0  0
  -30.9370  -19.5030   19.6840 C   0  0  0  0  0  3  0  0  0  0  0  0
  -31.0180  -18.0680   19.7550 C   0  0  0  0  0  3  0  0  0  0  0  0
  -28.6960  -19.4320   20.5110 C   0  0  0  0  0  3  0  0  0  0  0  0
  -29.7720  -20.2540   20.0610 C   0  0  0  0  0  0  0  0  0  0  0  0
  -29.9270  -17.2730   20.2110 C   0  0  0  0  0  0  0  0  0  0  0  0
  -28.7680  -18.0090   20.5750 C   0  0  0  0  0  0  0  0  0  0  0  0
  -27.6790  -17.3180   20.9910 F   0  0  0  0  0  0  0  0  0  0  0  0
  -30.6380  -14.7370   19.9810 C   0  0  0  0  0  0  0  0  0  0  0  0
  -30.3690  -12.4980   18.9200 C   0  0  0  0  0  2  0  0  0  0  0  0
  -29.3420  -12.6210   17.7730 C   0  0  0  0  0  2  0  0  0  0  0  0
  -27.9020  -12.4510   18.2960 C   0  0  0  0  0  2  0  0  0  0  0  0
  -27.6210  -13.2900   19.5710 C   0  0  0  0  0  3  0  0  0  0  0  0
  -28.7590  -13.1410   20.6070 C   0  0  0  0  0  2  0  0  0  0  0  0
  -30.0200  -13.5070   19.9420 N   0  0  0  0  0  0  0  0  0  0  0  0
  -31.7890  -14.8820   19.5680 O   0  0  0  0  0  0  0  0  0  0  0  0
  -29.8370  -15.8040   20.3140 N   0  0  0  0  0  0  0  0  0  0  0  0
  -28.9350  -15.5060   20.6530 H   0  0  0  0  0  0  0  0  0  0  0  0
  -25.2780  -13.8580   20.4630 C   0  0  0  0  0  0  0  0  0  0  0  0
  -24.2330  -13.0710   20.8670 C   0  0  0  0  0  0  0  0  0  0  0  0
  -24.6940  -11.7220   20.7630 C   0  0  0  0  0  0  0  0  0  0  0  0
  -26.3070  -12.9880   20.1380 N   0  0  0  0  0  0  0  0  0  0  0  0
  -25.9640  -11.6970   20.3790 N   0  0  0  0  0  0  0  0  0  0  0  0
  -23.9770  -10.4530   20.9540 C   0  0  0  0  0  0  0  0  0  0  0  0
  -24.4190   -9.4890   21.8870 C   0  0  0  0  0  3  0  0  0  0  0  0
  -23.7040   -8.2850   22.0660 C   0  0  0  0  0  3  0  0  0  0  0  0
  -22.5320   -8.0360   21.3120 C   0  0  0  0  0  0  0  0  0  0  0  0
  -22.1090   -8.9900   20.3700 C   0  0  0  0  0  3  0  0  0  0  0  0
  -22.8240  -10.1860   20.1880 C   0  0  0  0  0  3  0  0  0  0  0  0
  -21.7870   -6.8850   21.4030 O   0  0  0  0  0  0  0  0  0  0  0  0
  -21.6880   -6.1820   22.5770 C   0  0  0  0  0  0  0  0  0  0  0  0
  -21.1830   -6.7700   23.7570 C   0  0  0  0  0  3  0  0  0  0  0  0
  -21.0310   -5.9920   24.9220 C   0  0  0  0  0  3  0  0  0  0  0  0
  -21.3750   -4.6270   24.9080 C   0  0  0  0  0  0  0  0  0  0  0  0
  -21.8700   -4.0370   23.7310 C   0  0  0  0  0  3  0  0  0  0  0  0
  -22.0250   -4.8140   22.5690 C   0  0  0  0  0  0  0  0  0  0  0  0
  -22.4830   -4.2360   21.4320 F   0  0  0  0  0  0  0  0  0  0  0  0
  -21.2220   -3.8780   26.0240 F   0  0  0  0  0  0  0  0  0  0  0  0
  -22.8540  -13.5360   21.2370 C   0  0  0  0  0  0  0  0  0  0  0  0
  -22.1800  -12.8120   22.1240 N   0  0  0  0  0  0  0  0  0  0  0  0
  -22.3840  -14.5750   20.7780 O   0  0  0  0  0  0  0  0  0  0  0  0
  -22.5750  -11.9710   22.5150 H   0  0  0  0  0  0  0  0  0  0  0  0
  -21.2570  -13.1020   22.4150 H   0  0  0  0  0  0  0  0  0  0  0  0
  -25.4330  -15.2350   20.3320 N   0  0  0  0  0  0  0  0  0  0  0  0
  -24.6860  -15.8850   20.5570 H   0  0  0  0  0  0  0  0  0  0  0  0
  -26.2970  -15.7020   20.0900 H   0  0  0  0  0  0  0  0  0  0  0  0
  -28.3740  -26.4890   20.1140 O   0  0  0  0  0  0  0  0  0  0  0  0
  -24.5970  -31.8610   23.2230 C   0  0  0  0  0  0  0  0  0  0  0  0
  -27.2470  -27.3370   20.1260 C   0  0  0  0  0  0  0  0  0  0  0  0
  -23.4030  -30.4740   21.5670 C   0  0  0  0  0  3  0  0  0  0  0  0
  -24.8640  -28.9320   20.1410 C   0  0  0  0  0  0  0  0  0  0  0  0
  -25.9410  -30.8020   21.3910 C   0  0  0  0  0  2  0  0  0  0  0  0
  -26.0310  -29.4250   20.7390 C   0  0  0  0  0  0  0  0  0  0  0  0
  -27.2250  -28.6380   20.7240 C   0  0  0  0  0  3  0  0  0  0  0  0
  -26.0530  -26.9020   19.5070 C   0  0  0  0  0  3  0  0  0  0  0  0
  -24.8750  -27.6730   19.5230 C   0  0  0  0  0  3  0  0  0  0  0  0
  -23.6230  -29.8020   20.1860 C   0  0  0  0  0  2  0  0  0  0  0  0
  -24.6640  -31.0630   22.1160 N   0  0  0  0  0  0  0  0  0  0  0  0
  -23.5100  -32.1290   23.7600 O   0  0  0  0  0  0  0  0  0  0  0  0
  -22.7340  -29.4520   22.5180 C   0  0  0  0  0  0  0  0  0  0  0  0
  -21.4070  -29.2810   22.3890 N   0  0  0  0  0  0  0  0  0  0  0  0
  -23.4110  -28.8170   23.3310 O   0  0  0  0  0  0  0  0  0  0  0  0
  -20.9210  -29.8430   21.7050 H   0  0  0  0  0  0  0  0  0  0  0  0
  -18.0230  -28.1130   22.8990 C   0  0  0  0  0  0  0  0  0  0  0  0
  -20.5860  -28.3400   23.1530 C   0  0  0  0  0  3  0  0  0  0  0  0
  -20.6660  -26.9170   22.5520 C   0  0  0  0  0  2  0  0  0  0  0  0
  -19.5520  -26.6250   21.5420 C   0  0  0  0  0  2  0  0  0  0  0  0
  -18.1790  -26.7740   22.2000 C   0  0  0  0  0  2  0  0  0  0  0  0
  -19.1540  -28.8550   23.3340 C   0  0  0  0  0  0  0  0  0  0  0  0
  -18.9530  -30.1100   23.9480 C   0  0  0  0  0  3  0  0  0  0  0  0
  -17.6550  -30.6210   24.1380 C   0  0  0  0  0  3  0  0  0  0  0  0
  -16.5390  -29.8770   23.7210 C   0  0  0  0  0  3  0  0  0  0  0  0
  -16.7230  -28.6260   23.1050 C   0  0  0  0  0  3  0  0  0  0  0  0
  -25.8740  -32.4900   23.8550 C   0  0  0  0  0  3  0  0  0  0  0  0
  -25.5630  -33.8850   24.1930 N   0  0  0  0  0  0  0  0  0  0  0  0
  -25.8840  -34.9440   23.4380 C   0  0  0  0  0  0  0  0  0  0  0  0
  -26.5410  -34.8500   22.3980 O   0  0  0  0  0  0  0  0  0  0  0  0
  -24.9680  -34.0300   24.9960 H   0  0  0  0  0  0  0  0  0  0  0  0
  -24.1380  -36.7300   23.1320 C   0  0  0  0  0  1  0  0  0  0  0  0
  -25.4000  -36.3290   23.9110 C   0  0  0  0  0  3  0  0  0  0  0  0
  -27.5420  -37.2330   24.7000 C   0  0  0  0  0  1  0  0  0  0  0  0
  -26.4250  -37.3850   23.7700 N   0  0  0  0  0  0  0  0  0  0  0  0
  -26.0180  -38.3080   23.9110 H   0  0  0  0  0  0  0  0  0  0  0  0
  -26.3870  -31.7090   25.1270 C   0  0  1  0  0  0  0  0  0  0  0  0
  -25.2880  -31.4610   26.1840 C   0  0  0  0  0  1  0  0  0  0  0  0
  -26.9770  -30.3360   24.7290 C   0  0  0  0  0  1  0  0  0  0  0  0
  -27.5290  -32.5030   25.8030 C   0  0  0  0  0  1  0  0  0  0  0  0
  1  4  2  0
  1  3  1  0
  2  1  1  0
  3  8  2  0
  5  2  1  0
  5  6  1  0
  6 12  1  0
  6  3  1  0
  7  2  2  0
  9 10  2  0
  9 12  1  0
 10 13  1  0
 11 14  1  0
 12 11  2  0
 13 24  1  0
 13 14  2  0
 14 15  1  0
 16 24  1  0
 17 22  1  0
 18 19  1  0
 18 17  1  0
 20 19  1  0
 20 29  1  0
 20 21  1  0
 22 16  1  0
 22 21  1  0
 23 16  2  0
 24 25  1  0
 26 27  2  0
 27 46  1  0
 28 27  1  0
 28 31  1  0
 29 30  1  0
 29 26  1  0
 30 28  2  0
 31 32  1  0
 32 33  2  0
 34 37  1  0
 34 33  1  0
 35 34  2  0
 36 35  1  0
 36 31  2  0
 37 38  1  0
 38 39  1  0
 39 40  2  0
 41 40  1  0
 41 45  1  0
 42 41  2  0
 43 38  2  0
 43 42  1  0
 44 43  1  0
 46 47  1  0
 47 50  1  0
 47 49  1  0
 48 46  2  0
 51 26  1  0
 51 52  1  0
 53 51  1  0
 54 56  1  0
 54  4  1  0
 55 66  2  0
 56 61  1  0
 57 65  1  0
 57 67  1  0
 58 64  1  0
 58 60  1  0
 59 65  1  0
 60 59  1  0
 61 60  2  0
 62 63  1  0
 62 56  2  0
 63 58  2  0
 64 57  1  0
 65 55  1  0
 67 69  2  0
 68 67  1  0
 70 68  1  0
 71 80  2  0
 71 76  1  0
 72 68  1  0
 72 76  1  0
 73 72  1  0
 74 75  1  0
 74 73  1  0
 75 71  1  0
 76 77  2  0
 77 78  1  0
 79 78  2  0
 80 79  1  0
 81 55  1  0
 81 82  1  0
 81 91  1  0
 82 85  1  0
 83 87  1  0
 83 82  1  0
 84 83  2  0
 87 86  1  0
 89 90  1  0
 89 87  1  0
 89 88  1  0
 91 94  1  1
 91 92  1  0
 93 91  1  0
M  ISO  4   4 101  16 100  24 100  54 101
M  END
>  <TORSDO>  (30) 
F 17

>  <SCORE>  (30) 
-15.045

>  <name>  (30) 
30

>  <ligand_id>  (30) 
30

>  <original_smiles>  (30) 
[H]C(Oc1c([H])c([H])c2c(c1[H])C([H])([H])N(C(=O)C([H])(N([H])C(=O)C([H])(N([H])C([H])([H])[H])C([H])([H])[H])C(C([H])([H])[H])(C([H])([H])[H])C([H])([H])[H])C([H])(C(=O)N([H])C1([H])c3c([H])c([H])c([H])c([H])c3C([H])([H])C([H])([H])C1([H])[H])C2([H])[H])=C1C(=O)N(c2c([H])c([H])c(N([H])C(=O)N3C([H])([H])C([H])([H])C([H])([H])C([H])(n4nc(-c5c([H])c([H])c(Oc6c([H])c([H])c(F)c([H])c6F)c([H])c5[H])c(C(=O)N([H])[H])c4N([H])[H])C3([H])[H])c(F)c2[H])C([H])([H])C1=O

>  <smiles>  (30) 
[H]C(Oc1c([H])c([H])c2c(c1[H])C([H])([H])N(C(=O)C([H])(N([H])C(=O)C([H])(N([H])C([H])([H])[H])C([H])([H])[H])C(C([H])([H])[H])(C([H])([H])[H])C([H])([H])[H])C([H])(C(=O)N([H])C1([H])c3c([H])c([H])c([H])c([H])c3C([H])([H])C([H])([H])C1([H])[H])C2([H])[H])=C1C(=O)N(c2c([H])c([H])c(N([H])C(=O)N3C([H])([H])C([H])([H])C([H])([H])C([H])(n4nc(-c5c([H])c([H])c(Oc6c([H])c([H])c(F)c([H])c6F)c([H])c5[H])c(C(=O)N([H])[H])c4N([H])[H])C3([H])[H])c(F)c2[H])C([H])([H])C1=O

$$$$
31:0:0
     RDKit          3D

 92101  0  0  1  0  0  0  0  0999 V2000
  -28.6310  -23.6250   19.7640 C   0  0  0  0  0  0  0  0  0  0  0  0
  -28.5240  -22.4330   18.9040 C   0  0  0  0  0  0  0  0  0  0  0  0
  -28.2300  -24.9570   19.4950 C   0  0  0  0  0  3  0  0  0  0  0  0
  -29.3330  -22.6990   20.8050 C   0  0  0  0  0  2  0  0  0  0  0  0
  -29.0090  -21.5310   19.9030 N   0  0  0  0  0  0  0  0  0  0  0  0
  -28.2540  -22.3490   17.7250 O   0  0  0  0  0  0  0  0  0  0  0  0
  -32.1040  -19.3470   19.3910 C   0  0  0  0  0  3  0  0  0  0  0  0
  -31.2040  -20.4210   19.5260 C   0  0  0  0  0  3  0  0  0  0  0  0
  -31.7120  -18.0050   19.5550 C   0  0  0  0  0  3  0  0  0  0  0  0
  -29.4880  -18.8250   20.0110 C   0  0  0  0  0  3  0  0  0  0  0  0
  -29.8370  -20.2580   19.8380 C   0  0  0  0  0  0  0  0  0  0  0  0
  -30.3850  -17.6390   19.8830 C   0  0  0  0  0  0  0  0  0  0  0  0
  -30.7330  -14.9580   19.6850 C   0  0  0  0  0  0  0  0  0  0  0  0
  -30.4560  -12.6860   18.5810 C   0  0  0  0  0  2  0  0  0  0  0  0
  -29.3790  -12.7440   17.4720 C   0  0  0  0  0  2  0  0  0  0  0  0
  -27.9750  -12.4970   18.0580 C   0  0  0  0  0  2  0  0  0  0  0  0
  -27.7290  -13.3250   19.3480 C   0  0  0  0  0  3  0  0  0  0  0  0
  -28.9130  -13.1810   20.3220 C   0  0  0  0  0  2  0  0  0  0  0  0
  -30.1050  -13.7030   19.6230 N   0  0  0  0  0  0  0  0  0  0  0  0
  -31.8380  -15.0160   19.1350 O   0  0  0  0  0  0  0  0  0  0  0  0
  -30.0910  -16.1530   20.1810 N   0  0  0  0  0  0  0  0  0  0  0  0
  -25.4490  -13.8550   20.3920 C   0  0  0  0  0  0  0  0  0  0  0  0
  -24.4400  -13.0590   20.8530 C   0  0  0  0  0  0  0  0  0  0  0  0
  -24.8860  -11.7160   20.6710 C   0  0  0  0  0  0  0  0  0  0  0  0
  -26.4550  -12.9980   19.9780 N   0  0  0  0  0  0  0  0  0  0  0  0
  -26.1270  -11.6990   20.1990 N   0  0  0  0  0  0  0  0  0  0  0  0
  -24.1760  -10.4450   20.8600 C   0  0  0  0  0  0  0  0  0  0  0  0
  -24.6370   -9.4710   21.7730 C   0  0  0  0  0  3  0  0  0  0  0  0
  -23.9230   -8.2660   21.9530 C   0  0  0  0  0  3  0  0  0  0  0  0
  -22.7370   -8.0270   21.2190 C   0  0  0  0  0  0  0  0  0  0  0  0
  -22.2960   -8.9910   20.2960 C   0  0  0  0  0  3  0  0  0  0  0  0
  -23.0100  -10.1870   20.1130 C   0  0  0  0  0  3  0  0  0  0  0  0
  -21.9930   -6.8750   21.3090 O   0  0  0  0  0  0  0  0  0  0  0  0
  -21.8620   -6.1950   22.4930 C   0  0  0  0  0  0  0  0  0  0  0  0
  -21.3070   -6.8000   23.6420 C   0  0  0  0  0  3  0  0  0  0  0  0
  -21.1260   -6.0440   24.8180 C   0  0  0  0  0  3  0  0  0  0  0  0
  -21.4910   -4.6840   24.8450 C   0  0  0  0  0  0  0  0  0  0  0  0
  -22.0400   -4.0800   23.7010 C   0  0  0  0  0  3  0  0  0  0  0  0
  -22.2220   -4.8330   22.5280 C   0  0  0  0  0  0  0  0  0  0  0  0
  -22.7310   -4.2400   21.4200 F   0  0  0  0  0  0  0  0  0  0  0  0
  -21.3110   -3.9560   25.9710 F   0  0  0  0  0  0  0  0  0  0  0  0
  -23.0950  -13.5190   21.3380 C   0  0  0  0  0  0  0  0  0  0  0  0
  -22.4880  -12.7730   22.2540 N   0  0  0  0  0  0  0  0  0  0  0  0
  -22.6010  -14.5740   20.9450 O   0  0  0  0  0  0  0  0  0  0  0  0
  -22.9030  -11.9140   22.5870 H   0  0  0  0  0  0  0  0  0  0  0  0
  -21.5970  -13.0640   22.6280 H   0  0  0  0  0  0  0  0  0  0  0  0
  -25.5770  -15.2320   20.2640 N   0  0  0  0  0  0  0  0  0  0  0  0
  -24.8260  -15.8720   20.4990 H   0  0  0  0  0  0  0  0  0  0  0  0
  -26.3870  -15.6900   19.8710 H   0  0  0  0  0  0  0  0  0  0  0  0
  -28.0770  -16.2910   21.5560 C   0  0  0  0  0  2  0  0  0  0  0  0
  -29.3730  -15.9950   21.3710 C   0  0  0  0  0  3  0  0  0  0  0  0
  -28.3070  -26.2430   20.1610 O   0  0  0  0  0  0  0  0  0  0  0  0
  -24.7530  -31.8470   23.2780 C   0  0  0  0  0  0  0  0  0  0  0  0
  -27.2590  -27.2240   20.0890 C   0  0  0  0  0  0  0  0  0  0  0  0
  -23.5240  -30.5160   21.6060 C   0  0  0  0  0  3  0  0  0  0  0  0
  -24.9440  -28.9720   20.1270 C   0  0  0  0  0  0  0  0  0  0  0  0
  -26.0780  -30.7630   21.4320 C   0  0  0  0  0  2  0  0  0  0  0  0
  -26.1300  -29.3920   20.7420 C   0  0  0  0  0  0  0  0  0  0  0  0
  -27.2860  -28.5310   20.7120 C   0  0  0  0  0  3  0  0  0  0  0  0
  -26.0420  -26.8990   19.4440 C   0  0  0  0  0  3  0  0  0  0  0  0
  -24.9090  -27.7370   19.4660 C   0  0  0  0  0  3  0  0  0  0  0  0
  -23.7270  -29.8790   20.2070 C   0  0  0  0  0  2  0  0  0  0  0  0
  -24.8060  -31.0600   22.1620 N   0  0  0  0  0  0  0  0  0  0  0  0
  -23.6730  -32.1330   23.8190 O   0  0  0  0  0  0  0  0  0  0  0  0
  -22.8370  -29.4900   22.5410 C   0  0  0  0  0  0  0  0  0  0  0  0
  -21.5150  -29.2990   22.3740 N   0  0  0  0  0  0  0  0  0  0  0  0
  -23.4940  -28.8690   23.3780 O   0  0  0  0  0  0  0  0  0  0  0  0
  -21.0430  -29.8510   21.6710 H   0  0  0  0  0  0  0  0  0  0  0  0
  -18.1510  -28.0060   22.7350 C   0  0  0  0  0  0  0  0  0  0  0  0
  -20.6870  -28.3460   23.1160 C   0  0  0  0  0  3  0  0  0  0  0  0
  -20.8570  -26.9120   22.5630 C   0  0  0  0  0  2  0  0  0  0  0  0
  -19.8130  -26.5480   21.5040 C   0  0  0  0  0  2  0  0  0  0  0  0
  -18.3980  -26.6570   22.0820 C   0  0  0  0  0  2  0  0  0  0  0  0
  -19.2260  -28.8060   23.2070 C   0  0  0  0  0  0  0  0  0  0  0  0
  -18.9410  -30.0660   23.7790 C   0  0  0  0  0  3  0  0  0  0  0  0
  -17.6160  -30.5260   23.8820 C   0  0  0  0  0  3  0  0  0  0  0  0
  -16.5550  -29.7260   23.4250 C   0  0  0  0  0  3  0  0  0  0  0  0
  -16.8240  -28.4670   22.8580 C   0  0  0  0  0  3  0  0  0  0  0  0
  -26.0440  -32.4450   23.9170 C   0  0  0  0  0  3  0  0  0  0  0  0
  -25.7780  -33.8580   24.2260 N   0  0  0  0  0  0  0  0  0  0  0  0
  -26.1270  -34.8880   23.4430 C   0  0  0  0  0  0  0  0  0  0  0  0
  -26.7720  -34.7450   22.4020 O   0  0  0  0  0  0  0  0  0  0  0  0
  -25.2030  -34.0430   25.0350 H   0  0  0  0  0  0  0  0  0  0  0  0
  -24.4290  -36.7150   23.1100 C   0  0  0  0  0  1  0  0  0  0  0  0
  -25.6900  -36.3000   23.8830 C   0  0  0  0  0  3  0  0  0  0  0  0
  -27.8670  -37.1630   24.6210 C   0  0  0  0  0  1  0  0  0  0  0  0
  -26.7430  -37.3220   23.7020 N   0  0  0  0  0  0  0  0  0  0  0  0
  -26.3660  -38.2570   23.8260 H   0  0  0  0  0  0  0  0  0  0  0  0
  -26.5070  -31.6740   25.2150 C   0  0  1  0  0  0  0  0  0  0  0  0
  -25.3850  -31.4870   26.2630 C   0  0  0  0  0  1  0  0  0  0  0  0
  -27.0510  -30.2710   24.8560 C   0  0  0  0  0  1  0  0  0  0  0  0
  -27.6710  -32.4370   25.8890 C   0  0  0  0  0  1  0  0  0  0  0  0
  1  4  1  0
  2  1  1  0
  2  5  1  0
  3  1  2  0
  3 52  1  0
  5  4  1  0
  6  2  2  0
  7  8  2  0
  7  9  1  0
  8 11  1  0
  9 12  2  0
 11  5  1  0
 11 10  2  0
 12 10  1  0
 12 21  1  0
 13 21  1  0
 14 19  1  0
 15 16  1  0
 15 14  1  0
 17 16  1  0
 17 25  1  0
 17 18  1  0
 19 13  1  0
 19 18  1  0
 20 13  2  0
 21 51  1  0
 22 23  2  0
 23 42  1  0
 24 23  1  0
 24 27  1  0
 25 26  1  0
 25 22  1  0
 26 24  2  0
 27 28  1  0
 28 29  2  0
 30 33  1  0
 30 29  1  0
 31 30  2  0
 32 31  1  0
 32 27  2  0
 33 34  1  0
 34 39  2  0
 34 35  1  0
 35 36  2  0
 36 37  1  0
 37 41  1  0
 38 37  2  0
 39 38  1  0
 40 39  1  0
 42 43  1  0
 43 45  1  0
 43 46  1  0
 44 42  2  0
 47 22  1  0
 47 48  1  0
 49 47  1  0
 51 50  2  0
 53 64  2  0
 54 52  1  0
 54 59  1  0
 55 63  1  0
 55 65  1  0
 56 62  1  0
 56 58  1  0
 57 63  1  0
 58 57  1  0
 59 58  2  0
 60 61  1  0
 60 54  2  0
 61 56  2  0
 62 55  1  0
 63 53  1  0
 65 67  2  0
 66 65  1  0
 68 66  1  0
 69 78  2  0
 69 74  1  0
 70 66  1  0
 70 74  1  0
 71 70  1  0
 72 73  1  0
 72 71  1  0
 73 69  1  0
 74 75  2  0
 75 76  1  0
 77 76  2  0
 78 77  1  0
 79 53  1  0
 79 80  1  0
 79 89  1  0
 80 83  1  0
 81 85  1  0
 81 80  1  0
 82 81  2  0
 85 84  1  0
 87 88  1  0
 87 85  1  0
 87 86  1  0
 89 92  1  1
 89 90  1  0
 91 89  1  0
M  ISO  4   3 101  13 100  21 100  52 101
M  END
>  <TORSDO>  (31) 
F 18

>  <SCORE>  (31) 
-12.234

>  <name>  (31) 
31

>  <ligand_id>  (31) 
31

>  <original_smiles>  (31) 
[H]C([H])=C([H])N(C(=O)N1C([H])([H])C([H])([H])C([H])([H])C([H])(n2nc(-c3c([H])c([H])c(Oc4c([H])c([H])c(F)c([H])c4F)c([H])c3[H])c(C(=O)N([H])[H])c2N([H])[H])C1([H])[H])c1c([H])c([H])c([H])c(N2C(=O)C(=C([H])Oc3c([H])c([H])c4c(c3[H])C([H])([H])N(C(=O)C([H])(N([H])C(=O)C([H])(N([H])C([H])([H])[H])C([H])([H])[H])C(C([H])([H])[H])(C([H])([H])[H])C([H])([H])[H])C([H])(C(=O)N([H])C3([H])c5c([H])c([H])c([H])c([H])c5C([H])([H])C([H])([H])C3([H])[H])C4([H])[H])C2([H])[H])c1[H]

>  <smiles>  (31) 
[H]C([H])=C([H])N(C(=O)N1C([H])([H])C([H])([H])C([H])([H])C([H])(n2nc(-c3c([H])c([H])c(Oc4c([H])c([H])c(F)c([H])c4F)c([H])c3[H])c(C(=O)N([H])[H])c2N([H])[H])C1([H])[H])c1c([H])c([H])c([H])c(N2C(=O)C(=C([H])Oc3c([H])c([H])c4c(c3[H])C([H])([H])N(C(=O)C([H])(N([H])C(=O)C([H])(N([H])C([H])([H])[H])C([H])([H])[H])C(C([H])([H])[H])(C([H])([H])[H])C([H])([H])[H])C([H])(C(=O)N([H])C3([H])c5c([H])c([H])c([H])c([H])c5C([H])([H])C([H])([H])C3([H])[H])C4([H])[H])C2([H])[H])c1[H]

$$$$
32:0:0
     RDKit          3D

 98107  0  0  1  0  0  0  0  0999 V2000
  -28.6100  -23.7240   18.5750 C   0  0  0  0  0  3  0  0  0  0  0  0
  -29.2220  -21.3820   18.5240 C   0  0  0  0  0  3  0  0  0  0  0  0
  -28.5330  -23.7530   19.9210 C   0  0  0  0  0  0  0  0  0  0  0  0
  -28.9560  -22.5150   17.8480 C   0  0  0  0  0  0  0  0  0  0  0  0
  -28.8320  -22.4510   20.6590 C   0  0  0  0  0  0  0  0  0  0  0  0
  -29.2040  -21.2950   19.9300 N   0  0  0  0  0  0  0  0  0  0  0  0
  -28.7160  -22.3980   21.8870 O   0  0  0  0  0  0  0  0  0  0  0  0
  -30.6360  -20.0650   21.5710 C   0  0  0  0  0  3  0  0  0  0  0  0
  -29.4450  -18.6380   20.0060 C   0  0  0  0  0  3  0  0  0  0  0  0
  -30.9840  -17.6300   21.6040 C   0  0  0  0  0  3  0  0  0  0  0  0
  -29.7140  -19.9950   20.4990 C   0  0  0  0  0  0  0  0  0  0  0  0
  -31.2540  -18.9190   22.1100 C   0  0  0  0  0  0  0  0  0  0  0  0
  -30.0740  -17.4300   20.5450 C   0  0  0  0  0  0  0  0  0  0  0  0
  -30.5650  -14.8900   20.0540 C   0  0  0  0  0  0  0  0  0  0  0  0
  -30.3520  -12.6170   19.0200 C   0  0  0  0  0  2  0  0  0  0  0  0
  -29.3490  -12.6670   17.8470 C   0  0  0  0  0  2  0  0  0  0  0  0
  -27.9040  -12.4730   18.3530 C   0  0  0  0  0  2  0  0  0  0  0  0
  -27.5780  -13.3590   19.5850 C   0  0  0  0  0  3  0  0  0  0  0  0
  -28.6930  -13.2850   20.6490 C   0  0  0  0  0  2  0  0  0  0  0  0
  -29.9470  -13.6610   19.9850 N   0  0  0  0  0  0  0  0  0  0  0  0
  -31.7560  -14.9890   19.7440 O   0  0  0  0  0  0  0  0  0  0  0  0
  -29.7590  -16.0200   20.1720 N   0  0  0  0  0  0  0  0  0  0  0  0
  -28.7740  -15.8200   20.1000 H   0  0  0  0  0  0  0  0  0  0  0  0
  -25.2370  -13.9340   20.4640 C   0  0  0  0  0  0  0  0  0  0  0  0
  -24.1910  -13.1510   20.8700 C   0  0  0  0  0  0  0  0  0  0  0  0
  -24.6510  -11.8010   20.7820 C   0  0  0  0  0  0  0  0  0  0  0  0
  -26.2640  -13.0600   20.1480 N   0  0  0  0  0  0  0  0  0  0  0  0
  -25.9230  -11.7700   20.4040 N   0  0  0  0  0  0  0  0  0  0  0  0
  -23.9330  -10.5350   20.9790 C   0  0  0  0  0  0  0  0  0  0  0  0
  -24.3850   -9.5660   21.9010 C   0  0  0  0  0  3  0  0  0  0  0  0
  -23.6690   -8.3640   22.0850 C   0  0  0  0  0  3  0  0  0  0  0  0
  -22.4840   -8.1250   21.3500 C   0  0  0  0  0  0  0  0  0  0  0  0
  -22.0500   -9.0830   20.4170 C   0  0  0  0  0  3  0  0  0  0  0  0
  -22.7680  -10.2770   20.2310 C   0  0  0  0  0  3  0  0  0  0  0  0
  -21.7350   -6.9760   21.4460 O   0  0  0  0  0  0  0  0  0  0  0  0
  -21.6830   -6.2470   22.6060 C   0  0  0  0  0  0  0  0  0  0  0  0
  -21.1990   -6.7980   23.8130 C   0  0  0  0  0  3  0  0  0  0  0  0
  -21.0980   -5.9910   24.9640 C   0  0  0  0  0  3  0  0  0  0  0  0
  -21.4690   -4.6340   24.9100 C   0  0  0  0  0  0  0  0  0  0  0  0
  -21.9460   -4.0830   23.7070 C   0  0  0  0  0  3  0  0  0  0  0  0
  -22.0490   -4.8870   22.5590 C   0  0  0  0  0  0  0  0  0  0  0  0
  -22.4900   -4.3460   21.3970 F   0  0  0  0  0  0  0  0  0  0  0  0
  -21.3650   -3.8570   26.0130 F   0  0  0  0  0  0  0  0  0  0  0  0
  -22.8110  -13.6220   21.2240 C   0  0  0  0  0  0  0  0  0  0  0  0
  -22.1230  -12.9030   22.1020 N   0  0  0  0  0  0  0  0  0  0  0  0
  -22.3520  -14.6630   20.7550 O   0  0  0  0  0  0  0  0  0  0  0  0
  -22.5060  -12.0600   22.5070 H   0  0  0  0  0  0  0  0  0  0  0  0
  -21.1980  -13.2000   22.3790 H   0  0  0  0  0  0  0  0  0  0  0  0
  -25.3910  -15.3100   20.3120 N   0  0  0  0  0  0  0  0  0  0  0  0
  -24.6270  -15.9550   20.4830 H   0  0  0  0  0  0  0  0  0  0  0  0
  -26.2100  -15.7620   19.9280 H   0  0  0  0  0  0  0  0  0  0  0  0
  -32.1460  -19.0610   23.1720 N   0  0  0  0  0  0  0  0  0  0  0  0
  -32.4790  -19.9800   23.4480 H   0  0  0  0  0  0  0  0  0  0  0  0
  -32.7770  -18.3030   23.4170 H   0  0  0  0  0  0  0  0  0  0  0  0
  -29.0210  -22.5220   16.5120 O   0  0  0  0  0  0  0  0  0  0  0  0
  -28.8020  -23.3950   16.2100 H   0  0  0  0  0  0  0  0  0  0  0  0
  -28.0610  -25.0760   20.6890 C   0  0  0  0  0  2  0  0  0  0  0  0
  -28.2510  -26.4630   20.1250 O   0  0  0  0  0  0  0  0  0  0  0  0
  -24.5440  -31.9030   23.2610 C   0  0  0  0  0  0  0  0  0  0  0  0
  -27.1550  -27.3550   20.1430 C   0  0  0  0  0  0  0  0  0  0  0  0
  -23.3430  -30.5240   21.6040 C   0  0  0  0  0  3  0  0  0  0  0  0
  -24.7950  -28.9910   20.1570 C   0  0  0  0  0  0  0  0  0  0  0  0
  -25.8840  -30.8430   21.4220 C   0  0  0  0  0  2  0  0  0  0  0  0
  -25.9680  -29.4690   20.7550 C   0  0  0  0  0  0  0  0  0  0  0  0
  -27.1550  -28.6640   20.7320 C   0  0  0  0  0  3  0  0  0  0  0  0
  -25.9570  -26.9400   19.5250 C   0  0  0  0  0  3  0  0  0  0  0  0
  -24.7940  -27.7350   19.5300 C   0  0  0  0  0  3  0  0  0  0  0  0
  -23.5580  -29.8670   20.2160 C   0  0  0  0  0  2  0  0  0  0  0  0
  -24.6100  -31.1070   22.1530 N   0  0  0  0  0  0  0  0  0  0  0  0
  -23.4590  -32.1710   23.7990 O   0  0  0  0  0  0  0  0  0  0  0  0
  -22.6800  -29.4960   22.5530 C   0  0  0  0  0  0  0  0  0  0  0  0
  -21.3540  -29.3170   22.4260 N   0  0  0  0  0  0  0  0  0  0  0  0
  -23.3620  -28.8610   23.3630 O   0  0  0  0  0  0  0  0  0  0  0  0
  -20.8640  -29.8770   21.7440 H   0  0  0  0  0  0  0  0  0  0  0  0
  -17.9810  -28.1060   22.9230 C   0  0  0  0  0  0  0  0  0  0  0  0
  -20.5390  -28.3670   23.1870 C   0  0  0  0  0  3  0  0  0  0  0  0
  -20.6430  -26.9450   22.5910 C   0  0  0  0  0  2  0  0  0  0  0  0
  -19.5370  -26.6340   21.5760 C   0  0  0  0  0  2  0  0  0  0  0  0
  -18.1570  -26.7670   22.2260 C   0  0  0  0  0  2  0  0  0  0  0  0
  -19.0990  -28.8630   23.3610 C   0  0  0  0  0  0  0  0  0  0  0  0
  -18.8790  -30.1160   23.9740 C   0  0  0  0  0  3  0  0  0  0  0  0
  -17.5730  -30.6120   24.1500 C   0  0  0  0  0  3  0  0  0  0  0  0
  -16.4700  -29.8500   23.7280 C   0  0  0  0  0  3  0  0  0  0  0  0
  -16.6750  -28.5980   23.1220 C   0  0  0  0  0  3  0  0  0  0  0  0
  -25.8230  -32.5320   23.8920 C   0  0  0  0  0  3  0  0  0  0  0  0
  -26.3150  -31.7720   25.1860 C   0  0  1  0  0  0  0  0  0  0  0  0
  -25.2040  -31.5570   26.2390 C   0  0  0  0  0  1  0  0  0  0  0  0
  -26.8920  -30.3850   24.8200 C   0  0  0  0  0  1  0  0  0  0  0  0
  -27.4640  -32.5660   25.8540 C   0  0  0  0  0  1  0  0  0  0  0  0
  -25.5220  -33.9370   24.2030 N   0  0  0  0  0  0  0  0  0  0  0  0
  -25.8670  -34.9790   23.4340 C   0  0  0  0  0  0  0  0  0  0  0  0
  -26.5410  -34.8580   22.4070 O   0  0  0  0  0  0  0  0  0  0  0  0
  -24.9220  -34.1050   24.9970 H   0  0  0  0  0  0  0  0  0  0  0  0
  -24.1710  -36.7930   23.0360 C   0  0  0  0  0  1  0  0  0  0  0  0
  -25.3900  -36.3780   23.8730 C   0  0  0  0  0  3  0  0  0  0  0  0
  -27.5170  -37.2440   24.7430 C   0  0  0  0  0  1  0  0  0  0  0  0
  -26.4390  -37.4150   23.7720 N   0  0  0  0  0  0  0  0  0  0  0  0
  -26.0420  -38.3430   23.9000 H   0  0  0  0  0  0  0  0  0  0  0  0
  1  3  2  0
  2  6  1  0
  3  5  1  0
  3 57  1  0
  4  2  2  0
  4  1  1  0
  5  7  2  0
  6 11  1  0
  6  5  1  0
  8 12  1  0
  9 11  1  0
  9 13  2  0
 10 12  2  0
 11  8  2  0
 12 52  1  0
 13 10  1  0
 14 22  1  0
 15 20  1  0
 16 17  1  0
 16 15  1  0
 18 17  1  0
 18 27  1  0
 18 19  1  0
 20 14  1  0
 20 19  1  0
 21 14  2  0
 22 13  1  0
 23 22  1  0
 24 25  2  0
 25 44  1  0
 26 25  1  0
 26 29  1  0
 27 28  1  0
 27 24  1  0
 28 26  2  0
 29 30  1  0
 30 31  2  0
 32 35  1  0
 32 31  1  0
 33 32  2  0
 34 33  1  0
 34 29  2  0
 35 36  1  0
 36 37  1  0
 37 38  2  0
 39 38  1  0
 39 43  1  0
 40 39  2  0
 41 36  2  0
 41 40  1  0
 42 41  1  0
 44 45  1  0
 45 48  1  0
 45 47  1  0
 46 44  2  0
 49 24  1  0
 49 50  1  0
 51 49  1  0
 52 54  1  0
 52 53  1  0
 55  4  1  0
 56 55  1  0
 58 60  1  0
 58 57  1  0
 59 70  2  0
 60 65  1  0
 61 69  1  0
 61 71  1  0
 62 68  1  0
 62 64  1  0
 63 69  1  0
 64 63  1  0
 65 64  2  0
 66 67  1  0
 66 60  2  0
 67 62  2  0
 68 61  1  0
 69 59  1  0
 71 73  2  0
 72 71  1  0
 74 72  1  0
 75 84  2  0
 75 80  1  0
 76 72  1  0
 76 80  1  0
 77 76  1  0
 78 79  1  0
 78 77  1  0
 79 75  1  0
 80 81  2  0
 81 82  1  0
 83 82  2  0
 84 83  1  0
 85 59  1  0
 85 90  1  0
 85 86  1  0
 86 89  1  1
 86 87  1  0
 88 86  1  0
 90 93  1  0
 91 95  1  0
 91 90  1  0
 92 91  2  0
 95 94  1  0
 97 95  1  0
 97 98  1  0
 97 96  1  0
M  ISO  4  14 100  22 100  57 101  58 101
M  END
>  <TORSDO>  (32) 
F 20

>  <SCORE>  (32) 
-14.344

>  <name>  (32) 
32

>  <ligand_id>  (32) 
32

>  <original_smiles>  (32) 
[H]Oc1c([H])c(C([H])([H])Oc2c([H])c([H])c3c(c2[H])C([H])([H])N(C(=O)C([H])(N([H])C(=O)C([H])(N([H])C([H])([H])[H])C([H])([H])[H])C(C([H])([H])[H])(C([H])([H])[H])C([H])([H])[H])C([H])(C(=O)N([H])C2([H])c4c([H])c([H])c([H])c([H])c4C([H])([H])C([H])([H])C2([H])[H])C3([H])[H])c(=O)n(-c2c([H])c(N([H])[H])c([H])c(N([H])C(=O)N3C([H])([H])C([H])([H])C([H])([H])C([H])(n4nc(-c5c([H])c([H])c(Oc6c([H])c([H])c(F)c([H])c6F)c([H])c5[H])c(C(=O)N([H])[H])c4N([H])[H])C3([H])[H])c2[H])c1[H]

>  <smiles>  (32) 
[H]Oc1c([H])c(C([H])([H])Oc2c([H])c([H])c3c(c2[H])C([H])([H])N(C(=O)C([H])(N([H])C(=O)C([H])(N([H])C([H])([H])[H])C([H])([H])[H])C(C([H])([H])[H])(C([H])([H])[H])C([H])([H])[H])C([H])(C(=O)N([H])C2([H])c4c([H])c([H])c([H])c([H])c4C([H])([H])C([H])([H])C2([H])[H])C3([H])[H])c(=O)n(-c2c([H])c(N([H])[H])c([H])c(N([H])C(=O)N3C([H])([H])C([H])([H])C([H])([H])C([H])(n4nc(-c5c([H])c([H])c(Oc6c([H])c([H])c(F)c([H])c6F)c([H])c5[H])c(C(=O)N([H])[H])c4N([H])[H])C3([H])[H])c2[H])c1[H]

$$$$
33:0:0
     RDKit          3D

 95104  0  0  1  0  0  0  0  0999 V2000
  -29.2630  -24.2070   19.8820 C   0  0  0  0  0  0  0  0  0  0  0  0
  -29.0530  -22.7300   20.1800 C   0  0  0  0  0  0  0  0  0  0  0  0
  -31.6180  -23.6960   19.3000 C   0  0  0  0  0  0  0  0  0  0  0  0
  -32.8470  -24.1090   19.6560 C   0  0  0  0  0  2  0  0  0  0  0  0
  -28.3800  -25.1790   20.3150 C   0  0  0  0  0  3  0  0  0  0  0  0
  -30.4720  -24.6400   19.0680 C   0  0  0  0  0  2  0  0  0  0  0  0
  -31.2500  -22.2430   19.0880 C   0  0  0  0  0  2  0  0  0  0  0  0
  -30.0230  -21.7970   19.7840 N   0  0  0  0  0  0  0  0  0  0  0  0
  -28.0320  -22.3420   20.7580 O   0  0  0  0  0  0  0  0  0  0  0  0
  -29.3970  -19.6340   21.0520 C   0  0  0  0  0  3  0  0  0  0  0  0
  -29.4200  -18.2030   21.1790 C   0  0  0  0  0  3  0  0  0  0  0  0
  -30.4850  -19.4280   18.9340 C   0  0  0  0  0  3  0  0  0  0  0  0
  -29.9340  -20.3100   19.9210 C   0  0  0  0  0  0  0  0  0  0  0  0
  -29.9810  -17.3340   20.1960 C   0  0  0  0  0  0  0  0  0  0  0  0
  -30.5010  -18.0000   19.0500 C   0  0  0  0  0  0  0  0  0  0  0  0
  -30.9940  -17.2800   18.0140 F   0  0  0  0  0  0  0  0  0  0  0  0
  -30.6730  -14.8020   19.9750 C   0  0  0  0  0  0  0  0  0  0  0  0
  -30.4610  -12.5200   18.9890 C   0  0  0  0  0  2  0  0  0  0  0  0
  -29.4620  -12.5820   17.8100 C   0  0  0  0  0  2  0  0  0  0  0  0
  -28.0160  -12.4000   18.3080 C   0  0  0  0  0  2  0  0  0  0  0  0
  -27.6910  -13.2940   19.5350 C   0  0  0  0  0  3  0  0  0  0  0  0
  -28.8000  -13.2040   20.6070 C   0  0  0  0  0  2  0  0  0  0  0  0
  -30.0720  -13.5650   19.9630 N   0  0  0  0  0  0  0  0  0  0  0  0
  -31.8210  -14.9400   19.5460 O   0  0  0  0  0  0  0  0  0  0  0  0
  -29.8920  -15.8680   20.3750 N   0  0  0  0  0  0  0  0  0  0  0  0
  -29.0420  -15.5650   20.8240 H   0  0  0  0  0  0  0  0  0  0  0  0
  -25.3470  -13.8790   20.4080 C   0  0  0  0  0  0  0  0  0  0  0  0
  -24.2960  -13.1010   20.8120 C   0  0  0  0  0  0  0  0  0  0  0  0
  -24.7460  -11.7490   20.7150 C   0  0  0  0  0  0  0  0  0  0  0  0
  -26.3700  -13.0020   20.0870 N   0  0  0  0  0  0  0  0  0  0  0  0
  -26.0180  -11.7130   20.3340 N   0  0  0  0  0  0  0  0  0  0  0  0
  -24.0220  -10.4870   20.9070 C   0  0  0  0  0  0  0  0  0  0  0  0
  -24.4350   -9.5400   21.8700 C   0  0  0  0  0  3  0  0  0  0  0  0
  -23.7100   -8.3400   22.0510 C   0  0  0  0  0  3  0  0  0  0  0  0
  -22.5600   -8.0810   21.2690 C   0  0  0  0  0  0  0  0  0  0  0  0
  -22.1660   -9.0180   20.2980 C   0  0  0  0  0  3  0  0  0  0  0  0
  -22.8910  -10.2080   20.1150 C   0  0  0  0  0  3  0  0  0  0  0  0
  -21.8090   -6.9320   21.3560 O   0  0  0  0  0  0  0  0  0  0  0  0
  -21.6630   -6.2580   22.5420 C   0  0  0  0  0  0  0  0  0  0  0  0
  -21.0600   -6.8560   23.6700 C   0  0  0  0  0  3  0  0  0  0  0  0
  -20.8630   -6.1040   24.8450 C   0  0  0  0  0  3  0  0  0  0  0  0
  -21.2610   -4.7560   24.8930 C   0  0  0  0  0  0  0  0  0  0  0  0
  -21.8580   -4.1560   23.7700 C   0  0  0  0  0  3  0  0  0  0  0  0
  -22.0560   -4.9060   22.5970 C   0  0  0  0  0  0  0  0  0  0  0  0
  -22.6120   -4.3180   21.5100 F   0  0  0  0  0  0  0  0  0  0  0  0
  -21.0660   -4.0300   26.0200 F   0  0  0  0  0  0  0  0  0  0  0  0
  -22.9190  -13.5790   21.1700 C   0  0  0  0  0  0  0  0  0  0  0  0
  -22.2380  -12.8700   22.0640 N   0  0  0  0  0  0  0  0  0  0  0  0
  -22.4550  -14.6140   20.6940 O   0  0  0  0  0  0  0  0  0  0  0  0
  -22.6250  -12.0340   22.4750 H   0  0  0  0  0  0  0  0  0  0  0  0
  -21.3170  -13.1720   22.3460 H   0  0  0  0  0  0  0  0  0  0  0  0
  -25.5090  -15.2540   20.2640 N   0  0  0  0  0  0  0  0  0  0  0  0
  -24.7510  -15.9050   20.4380 H   0  0  0  0  0  0  0  0  0  0  0  0
  -26.3350  -15.7040   19.8910 H   0  0  0  0  0  0  0  0  0  0  0  0
  -28.4760  -26.5770   20.0860 O   0  0  0  0  0  0  0  0  0  0  0  0
  -24.6150  -31.9000   23.1240 C   0  0  0  0  0  0  0  0  0  0  0  0
  -27.3270  -27.3900   20.0740 C   0  0  0  0  0  0  0  0  0  0  0  0
  -23.4380  -30.4790   21.4830 C   0  0  0  0  0  3  0  0  0  0  0  0
  -24.9210  -28.9520   20.0570 C   0  0  0  0  0  0  0  0  0  0  0  0
  -25.9680  -30.8470   21.2990 C   0  0  0  0  0  2  0  0  0  0  0  0
  -26.0780  -29.4680   20.6570 C   0  0  0  0  0  0  0  0  0  0  0  0
  -27.2810  -28.6980   20.6550 C   0  0  0  0  0  3  0  0  0  0  0  0
  -26.1480  -26.9300   19.4460 C   0  0  0  0  0  3  0  0  0  0  0  0
  -24.9580  -27.6890   19.4430 C   0  0  0  0  0  3  0  0  0  0  0  0
  -23.6670  -29.8030   20.1030 C   0  0  0  0  0  2  0  0  0  0  0  0
  -24.6920  -31.0920   22.0260 N   0  0  0  0  0  0  0  0  0  0  0  0
  -23.5270  -32.1570   23.6590 O   0  0  0  0  0  0  0  0  0  0  0  0
  -22.7900  -29.4530   22.4440 C   0  0  0  0  0  0  0  0  0  0  0  0
  -21.4680  -29.2530   22.3150 N   0  0  0  0  0  0  0  0  0  0  0  0
  -23.4780  -28.8410   23.2650 O   0  0  0  0  0  0  0  0  0  0  0  0
  -20.9710  -29.7970   21.6230 H   0  0  0  0  0  0  0  0  0  0  0  0
  -18.1130  -27.9890   22.7990 C   0  0  0  0  0  0  0  0  0  0  0  0
  -20.6630  -28.3020   23.0850 C   0  0  0  0  0  3  0  0  0  0  0  0
  -20.7980  -26.8720   22.5160 C   0  0  0  0  0  2  0  0  0  0  0  0
  -19.7100  -26.5240   21.4940 C   0  0  0  0  0  2  0  0  0  0  0  0
  -18.3210  -26.6420   22.1290 C   0  0  0  0  0  2  0  0  0  0  0  0
  -19.2130  -28.7760   23.2340 C   0  0  0  0  0  0  0  0  0  0  0  0
  -18.9650  -30.0360   23.8210 C   0  0  0  0  0  3  0  0  0  0  0  0
  -17.6480  -30.5090   23.9770 C   0  0  0  0  0  3  0  0  0  0  0  0
  -16.5620  -29.7200   23.5580 C   0  0  0  0  0  3  0  0  0  0  0  0
  -16.7950  -28.4620   22.9750 C   0  0  0  0  0  3  0  0  0  0  0  0
  -25.8850  -32.5540   23.7500 C   0  0  0  0  0  3  0  0  0  0  0  0
  -25.5440  -33.9410   24.1000 N   0  0  0  0  0  0  0  0  0  0  0  0
  -25.8400  -35.0110   23.3510 C   0  0  0  0  0  0  0  0  0  0  0  0
  -26.4990  -34.9360   22.3100 O   0  0  0  0  0  0  0  0  0  0  0  0
  -24.9500  -34.0680   24.9070 H   0  0  0  0  0  0  0  0  0  0  0  0
  -24.0740  -36.7710   23.0310 C   0  0  0  0  0  1  0  0  0  0  0  0
  -25.3260  -36.3830   23.8320 C   0  0  0  0  0  3  0  0  0  0  0  0
  -27.4370  -37.3100   24.6760 C   0  0  0  0  0  1  0  0  0  0  0  0
  -26.3370  -37.4590   23.7280 N   0  0  0  0  0  0  0  0  0  0  0  0
  -25.9090  -38.3700   23.8730 H   0  0  0  0  0  0  0  0  0  0  0  0
  -26.4230  -31.7790   25.0150 C   0  0  1  0  0  0  0  0  0  0  0  0
  -25.3370  -31.4960   26.0810 C   0  0  0  0  0  1  0  0  0  0  0  0
  -27.0410  -30.4230   24.6040 C   0  0  0  0  0  1  0  0  0  0  0  0
  -27.5560  -32.5930   25.6840 C   0  0  0  0  0  1  0  0  0  0  0  0
  1  2  1  0
  1  5  2  0
  2  9  2  0
  3  4  2  0
  6  3  1  0
  6  1  1  0
  7  3  1  0
  7  8  1  0
  8 13  1  0
  8  2  1  0
 10 11  1  0
 12 15  2  0
 12 13  1  0
 13 10  2  0
 14 25  1  0
 14 11  2  0
 15 14  1  0
 16 15  1  0
 17 25  1  0
 18 23  1  0
 19 20  1  0
 19 18  1  0
 21 20  1  0
 21 30  1  0
 21 22  1  0
 23 17  1  0
 23 22  1  0
 24 17  2  0
 25 26  1  0
 27 28  2  0
 28 47  1  0
 29 28  1  0
 29 32  1  0
 30 31  1  0
 30 27  1  0
 31 29  2  0
 32 33  1  0
 33 34  2  0
 35 38  1  0
 35 34  1  0
 36 35  2  0
 37 36  1  0
 37 32  2  0
 38 39  1  0
 39 44  2  0
 39 40  1  0
 40 41  2  0
 41 42  1  0
 42 46  1  0
 43 42  2  0
 44 43  1  0
 45 44  1  0
 47 48  1  0
 48 51  1  0
 48 50  1  0
 49 47  2  0
 52 27  1  0
 52 53  1  0
 54 52  1  0
 55  5  1  0
 56 67  2  0
 57 55  1  0
 57 62  1  0
 58 66  1  0
 58 68  1  0
 59 65  1  0
 59 61  1  0
 60 66  1  0
 61 60  1  0
 62 61  2  0
 63 57  2  0
 64 63  1  0
 64 59  2  0
 65 58  1  0
 66 56  1  0
 68 70  2  0
 69 68  1  0
 71 69  1  0
 72 81  2  0
 72 77  1  0
 73 69  1  0
 73 77  1  0
 74 73  1  0
 75 76  1  0
 75 74  1  0
 76 72  1  0
 77 78  2  0
 78 79  1  0
 80 79  2  0
 81 80  1  0
 82 56  1  0
 82 83  1  0
 82 92  1  0
 83 86  1  0
 84 88  1  0
 84 83  1  0
 85 84  2  0
 88 87  1  0
 90 88  1  0
 90 91  1  0
 90 89  1  0
 92 95  1  1
 92 93  1  0
 94 92  1  0
M  ISO  4   5 101  17 100  25 100  55 101
M  END
>  <TORSDO>  (33) 
F 17

>  <SCORE>  (33) 
-14.734

>  <name>  (33) 
33

>  <ligand_id>  (33) 
33

>  <original_smiles>  (33) 
[H]C([H])=C1C([H])([H])C(=C([H])Oc2c([H])c([H])c3c(c2[H])C([H])([H])N(C(=O)C([H])(N([H])C(=O)C([H])(N([H])C([H])([H])[H])C([H])([H])[H])C(C([H])([H])[H])(C([H])([H])[H])C([H])([H])[H])C([H])(C(=O)N([H])C2([H])c4c([H])c([H])c([H])c([H])c4C([H])([H])C([H])([H])C2([H])[H])C3([H])[H])C(=O)N(c2c([H])c([H])c(N([H])C(=O)N3C([H])([H])C([H])([H])C([H])([H])C([H])(n4nc(-c5c([H])c([H])c(Oc6c([H])c([H])c(F)c([H])c6F)c([H])c5[H])c(C(=O)N([H])[H])c4N([H])[H])C3([H])[H])c(F)c2[H])C1([H])[H]

>  <smiles>  (33) 
[H]C([H])=C1C([H])([H])C(=C([H])Oc2c([H])c([H])c3c(c2[H])C([H])([H])N(C(=O)C([H])(N([H])C(=O)C([H])(N([H])C([H])([H])[H])C([H])([H])[H])C(C([H])([H])[H])(C([H])([H])[H])C([H])([H])[H])C([H])(C(=O)N([H])C2([H])c4c([H])c([H])c([H])c([H])c4C([H])([H])C([H])([H])C2([H])[H])C3([H])[H])C(=O)N(c2c([H])c([H])c(N([H])C(=O)N3C([H])([H])C([H])([H])C([H])([H])C([H])(n4nc(-c5c([H])c([H])c(Oc6c([H])c([H])c(F)c([H])c6F)c([H])c5[H])c(C(=O)N([H])[H])c4N([H])[H])C3([H])[H])c(F)c2[H])C1([H])[H]

$$$$
34:0:0
     RDKit          3D

 94103  0  0  1  0  0  0  0  0999 V2000
  -30.0020  -19.9400   18.4380 C   0  0  0  0  0  3  0  0  0  0  0  0
  -29.4550  -18.7880   20.4630 C   0  0  0  0  0  3  0  0  0  0  0  0
  -30.3320  -17.5060   18.5900 C   0  0  0  0  0  3  0  0  0  0  0  0
  -29.5140  -20.1050   19.7650 C   0  0  0  0  0  0  0  0  0  0  0  0
  -30.3770  -18.7050   17.8580 C   0  0  0  0  0  0  0  0  0  0  0  0
  -29.8720  -17.4680   19.9200 C   0  0  0  0  0  0  0  0  0  0  0  0
  -30.5360  -14.9080   20.3040 C   0  0  0  0  0  0  0  0  0  0  0  0
  -30.3830  -12.5770   19.3700 C   0  0  0  0  0  2  0  0  0  0  0  0
  -29.4660  -12.6120   18.1280 C   0  0  0  0  0  2  0  0  0  0  0  0
  -27.9810  -12.4720   18.5280 C   0  0  0  0  0  2  0  0  0  0  0  0
  -27.5970  -13.3440   19.7550 C   0  0  0  0  0  3  0  0  0  0  0  0
  -28.6480  -13.2700   20.8810 C   0  0  0  0  0  2  0  0  0  0  0  0
  -29.9350  -13.6560   20.2920 N   0  0  0  0  0  0  0  0  0  0  0  0
  -31.7250  -14.9770   19.9730 O   0  0  0  0  0  0  0  0  0  0  0  0
  -29.7740  -16.0780   20.5360 N   0  0  0  0  0  0  0  0  0  0  0  0
  -28.9010  -15.9010   21.0130 H   0  0  0  0  0  0  0  0  0  0  0  0
  -25.2140  -13.9310   20.4810 C   0  0  0  0  0  0  0  0  0  0  0  0
  -24.1450  -13.1580   20.8460 C   0  0  0  0  0  0  0  0  0  0  0  0
  -24.6060  -11.8040   20.8150 C   0  0  0  0  0  0  0  0  0  0  0  0
  -26.2540  -13.0490   20.2400 N   0  0  0  0  0  0  0  0  0  0  0  0
  -25.8980  -11.7670   20.5090 N   0  0  0  0  0  0  0  0  0  0  0  0
  -23.8770  -10.5430   21.0050 C   0  0  0  0  0  0  0  0  0  0  0  0
  -24.2950   -9.5760   21.9460 C   0  0  0  0  0  3  0  0  0  0  0  0
  -23.5600   -8.3840   22.1230 C   0  0  0  0  0  3  0  0  0  0  0  0
  -22.3910   -8.1490   21.3600 C   0  0  0  0  0  0  0  0  0  0  0  0
  -21.9900   -9.1080   20.4140 C   0  0  0  0  0  3  0  0  0  0  0  0
  -22.7250  -10.2910   20.2330 C   0  0  0  0  0  3  0  0  0  0  0  0
  -21.6310   -7.0080   21.4450 O   0  0  0  0  0  0  0  0  0  0  0  0
  -21.5650   -6.2710   22.6010 C   0  0  0  0  0  0  0  0  0  0  0  0
  -21.1130   -6.8300   23.8160 C   0  0  0  0  0  3  0  0  0  0  0  0
  -20.9970   -6.0190   24.9630 C   0  0  0  0  0  3  0  0  0  0  0  0
  -21.3230   -4.6510   24.8960 C   0  0  0  0  0  0  0  0  0  0  0  0
  -21.7680   -4.0940   23.6850 C   0  0  0  0  0  3  0  0  0  0  0  0
  -21.8870   -4.9010   22.5390 C   0  0  0  0  0  0  0  0  0  0  0  0
  -22.2940   -4.3510   21.3710 F   0  0  0  0  0  0  0  0  0  0  0  0
  -21.2060   -3.8700   25.9950 F   0  0  0  0  0  0  0  0  0  0  0  0
  -22.7480  -13.6390   21.1070 C   0  0  0  0  0  0  0  0  0  0  0  0
  -22.0130  -12.9470   21.9680 N   0  0  0  0  0  0  0  0  0  0  0  0
  -22.3180  -14.6660   20.5840 O   0  0  0  0  0  0  0  0  0  0  0  0
  -22.3720  -12.1170   22.4180 H   0  0  0  0  0  0  0  0  0  0  0  0
  -21.0770  -13.2540   22.1850 H   0  0  0  0  0  0  0  0  0  0  0  0
  -25.3800  -15.3030   20.3160 N   0  0  0  0  0  0  0  0  0  0  0  0
  -24.6220  -15.9590   20.4760 H   0  0  0  0  0  0  0  0  0  0  0  0
  -26.2390  -15.7520   20.0230 H   0  0  0  0  0  0  0  0  0  0  0  0
  -28.6170  -23.5950   20.4040 C   0  0  0  0  0  0  0  0  0  0  0  0
  -28.3170  -22.2950   21.0540 C   0  0  0  0  0  0  0  0  0  0  0  0
  -28.1460  -24.9030   20.6980 C   0  0  0  0  0  3  0  0  0  0  0  0
  -29.5370  -22.8000   19.4260 C   0  0  0  0  0  2  0  0  0  0  0  0
  -29.1460  -21.5450   20.1660 N   0  0  0  0  0  0  0  0  0  0  0  0
  -27.5750  -22.0330   21.9810 O   0  0  0  0  0  0  0  0  0  0  0  0
  -28.3740  -26.2560   20.2050 O   0  0  0  0  0  0  0  0  0  0  0  0
  -24.6710  -31.8860   23.2310 C   0  0  0  0  0  0  0  0  0  0  0  0
  -27.3140  -27.2240   20.2090 C   0  0  0  0  0  0  0  0  0  0  0  0
  -23.4870  -30.4730   21.5950 C   0  0  0  0  0  3  0  0  0  0  0  0
  -24.9560  -28.9140   20.1790 C   0  0  0  0  0  0  0  0  0  0  0  0
  -26.0370  -30.7750   21.4280 C   0  0  0  0  0  2  0  0  0  0  0  0
  -26.1300  -29.3850   20.7820 C   0  0  0  0  0  0  0  0  0  0  0  0
  -27.3130  -28.5560   20.7810 C   0  0  0  0  0  3  0  0  0  0  0  0
  -26.1110  -26.8420   19.5770 C   0  0  0  0  0  3  0  0  0  0  0  0
  -24.9560  -27.6520   19.5650 C   0  0  0  0  0  3  0  0  0  0  0  0
  -23.7210  -29.7960   20.2180 C   0  0  0  0  0  2  0  0  0  0  0  0
  -24.7510  -31.0660   22.1400 N   0  0  0  0  0  0  0  0  0  0  0  0
  -23.5810  -32.1610   23.7580 O   0  0  0  0  0  0  0  0  0  0  0  0
  -22.8200  -29.4600   22.5570 C   0  0  0  0  0  0  0  0  0  0  0  0
  -21.4930  -29.2730   22.4250 N   0  0  0  0  0  0  0  0  0  0  0  0
  -23.4970  -28.8430   23.3830 O   0  0  0  0  0  0  0  0  0  0  0  0
  -21.0060  -29.8220   21.7320 H   0  0  0  0  0  0  0  0  0  0  0  0
  -18.1220  -28.0430   22.9190 C   0  0  0  0  0  0  0  0  0  0  0  0
  -20.6780  -28.3290   23.1940 C   0  0  0  0  0  3  0  0  0  0  0  0
  -20.7950  -26.8950   22.6220 C   0  0  0  0  0  2  0  0  0  0  0  0
  -19.6980  -26.5610   21.6070 C   0  0  0  0  0  2  0  0  0  0  0  0
  -18.3130  -26.6950   22.2450 C   0  0  0  0  0  2  0  0  0  0  0  0
  -19.2320  -28.8160   23.3500 C   0  0  0  0  0  0  0  0  0  0  0  0
  -18.9990  -30.0780   23.9420 C   0  0  0  0  0  3  0  0  0  0  0  0
  -17.6880  -30.5650   24.1080 C   0  0  0  0  0  3  0  0  0  0  0  0
  -16.5930  -29.7870   23.6930 C   0  0  0  0  0  3  0  0  0  0  0  0
  -16.8110  -28.5300   23.1040 C   0  0  0  0  0  3  0  0  0  0  0  0
  -25.9420  -32.5330   23.8590 C   0  0  0  0  0  3  0  0  0  0  0  0
  -25.6180  -33.9330   24.1790 N   0  0  0  0  0  0  0  0  0  0  0  0
  -25.9360  -34.9870   23.4140 C   0  0  0  0  0  0  0  0  0  0  0  0
  -26.5980  -34.8840   22.3770 O   0  0  0  0  0  0  0  0  0  0  0  0
  -25.0300  -34.0870   24.9840 H   0  0  0  0  0  0  0  0  0  0  0  0
  -24.1850  -36.7610   23.0740 C   0  0  0  0  0  1  0  0  0  0  0  0
  -25.4410  -36.3720   23.8700 C   0  0  0  0  0  3  0  0  0  0  0  0
  -27.5750  -37.2870   24.6700 C   0  0  0  0  0  1  0  0  0  0  0  0
  -26.4590  -37.4360   23.7380 N   0  0  0  0  0  0  0  0  0  0  0  0
  -26.0460  -38.3510   23.8860 H   0  0  0  0  0  0  0  0  0  0  0  0
  -26.4520  -31.7760   25.1470 C   0  0  1  0  0  0  0  0  0  0  0  0
  -25.3540  -31.5470   26.2100 C   0  0  0  0  0  1  0  0  0  0  0  0
  -27.0400  -30.3950   24.7730 C   0  0  0  0  0  1  0  0  0  0  0  0
  -27.5920  -32.5820   25.8100 C   0  0  0  0  0  1  0  0  0  0  0  0
  -30.7870  -18.6520   16.5210 N   0  0  0  0  0  0  0  0  0  0  0  0
  -30.4060  -19.3360   15.8720 H   0  0  0  0  0  0  0  0  0  0  0  0
  -30.8650  -17.7360   16.0870 H   0  0  0  0  0  0  0  0  0  0  0  0
  1  4  1  0
  3  6  2  0
  4 49  1  0
  4  2  2  0
  5  1  2  0
  5  3  1  0
  6  2  1  0
  6 15  1  0
  7 15  1  0
  8 13  1  0
  9 10  1  0
  9  8  1  0
 11 10  1  0
 11 20  1  0
 11 12  1  0
 13  7  1  0
 13 12  1  0
 14  7  2  0
 15 16  1  0
 17 18  2  0
 18 37  1  0
 19 18  1  0
 19 22  1  0
 20 17  1  0
 20 21  1  0
 21 19  2  0
 22 23  1  0
 23 24  2  0
 25 28  1  0
 25 24  1  0
 26 25  2  0
 27 26  1  0
 27 22  2  0
 28 29  1  0
 29 30  1  0
 30 31  2  0
 32 31  1  0
 32 36  1  0
 33 32  2  0
 34 29  2  0
 34 33  1  0
 35 34  1  0
 37 38  1  0
 38 41  1  0
 38 40  1  0
 39 37  2  0
 42 43  1  0
 42 17  1  0
 44 42  1  0
 45 47  2  0
 45 46  1  0
 46 50  2  0
 48 49  1  0
 48 45  1  0
 49 46  1  0
 51 53  1  0
 51 47  1  0
 52 63  2  0
 53 58  1  0
 54 62  1  0
 54 64  1  0
 55 61  1  0
 55 57  1  0
 56 62  1  0
 57 56  1  0
 58 57  2  0
 59 53  2  0
 60 59  1  0
 60 55  2  0
 61 54  1  0
 62 52  1  0
 64 66  2  0
 65 64  1  0
 67 65  1  0
 68 77  2  0
 68 73  1  0
 69 65  1  0
 69 73  1  0
 70 69  1  0
 71 72  1  0
 71 70  1  0
 72 68  1  0
 73 74  2  0
 74 75  1  0
 76 75  2  0
 77 76  1  0
 78 52  1  0
 78 79  1  0
 78 88  1  0
 79 82  1  0
 80 84  1  0
 80 79  1  0
 81 80  2  0
 84 83  1  0
 86 84  1  0
 86 87  1  0
 86 85  1  0
 88 91  1  1
 88 89  1  0
 90 88  1  0
 92  5  1  0
 93 92  1  0
 94 92  1  0
M  ISO  4   7 100  15 100  47 101  51 101
M  END
>  <TORSDO>  (34) 
F 18

>  <SCORE>  (34) 
-14.860

>  <name>  (34) 
34

>  <ligand_id>  (34) 
34

>  <original_smiles>  (34) 
[H]C(Oc1c([H])c([H])c2c(c1[H])C([H])([H])N(C(=O)C([H])(N([H])C(=O)C([H])(N([H])C([H])([H])[H])C([H])([H])[H])C(C([H])([H])[H])(C([H])([H])[H])C([H])([H])[H])C([H])(C(=O)N([H])C1([H])c3c([H])c([H])c([H])c([H])c3C([H])([H])C([H])([H])C1([H])[H])C2([H])[H])=C1C(=O)N(c2c([H])c(N([H])[H])c([H])c(N([H])C(=O)N3C([H])([H])C([H])([H])C([H])([H])C([H])(n4nc(-c5c([H])c([H])c(Oc6c([H])c([H])c(F)c([H])c6F)c([H])c5[H])c(C(=O)N([H])[H])c4N([H])[H])C3([H])[H])c2[H])C1([H])[H]

>  <smiles>  (34) 
[H]C(Oc1c([H])c([H])c2c(c1[H])C([H])([H])N(C(=O)C([H])(N([H])C(=O)C([H])(N([H])C([H])([H])[H])C([H])([H])[H])C(C([H])([H])[H])(C([H])([H])[H])C([H])([H])[H])C([H])(C(=O)N([H])C1([H])c3c([H])c([H])c([H])c([H])c3C([H])([H])C([H])([H])C1([H])[H])C2([H])[H])=C1C(=O)N(c2c([H])c(N([H])[H])c([H])c(N([H])C(=O)N3C([H])([H])C([H])([H])C([H])([H])C([H])(n4nc(-c5c([H])c([H])c(Oc6c([H])c([H])c(F)c([H])c6F)c([H])c5[H])c(C(=O)N([H])[H])c4N([H])[H])C3([H])[H])c2[H])C1([H])[H]

$$$$
35:0:0
     RDKit          3D

 97105  0  0  1  0  0  0  0  0999 V2000
  -29.8200  -19.5810   21.5280 C   0  0  0  0  0  3  0  0  0  0  0  0
  -29.4500  -20.9440   21.3020 C   0  0  0  0  0  3  0  0  0  0  0  0
  -29.4590  -19.0740   19.2020 C   0  0  0  0  0  3  0  0  0  0  0  0
  -29.8520  -18.6110   20.4840 C   0  0  0  0  0  0  0  0  0  0  0  0
  -29.1180  -21.4200   20.0060 C   0  0  0  0  0  0  0  0  0  0  0  0
  -29.1280  -20.4440   18.9640 C   0  0  0  0  0  0  0  0  0  0  0  0
  -30.6870  -14.7290   20.2560 C   0  0  0  0  0  0  0  0  0  0  0  0
  -30.3890  -12.5070   19.1900 C   0  0  0  0  0  2  0  0  0  0  0  0
  -29.4380  -12.6220   17.9820 C   0  0  0  0  0  2  0  0  0  0  0  0
  -27.9770  -12.4530   18.4420 C   0  0  0  0  0  2  0  0  0  0  0  0
  -27.6260  -13.3320   19.6720 C   0  0  0  0  0  3  0  0  0  0  0  0
  -28.7020  -13.2330   20.7750 C   0  0  0  0  0  2  0  0  0  0  0  0
  -29.9900  -13.5540   20.1520 N   0  0  0  0  0  0  0  0  0  0  0  0
  -31.8900  -14.7800   19.9810 O   0  0  0  0  0  0  0  0  0  0  0  0
  -30.4990  -17.2540   20.6810 C   0  0  0  0  0  0  0  0  0  0  0  0
  -29.9580  -16.0100   20.4110 N   0  0  0  0  0  0  0  0  0  0  0  0
  -31.7470  -17.3340   21.1590 N   0  0  0  0  0  4  0  0  0  0  0  0
  -28.9550  -16.0460   20.3740 H   0  0  0  0  0  0  0  0  0  0  0  0
  -32.1630  -18.2360   21.3380 H   0  0  0  0  0  0  0  0  0  0  0  0
  -32.3390  -16.5140   21.1310 H   0  0  0  0  0  0  0  0  0  0  0  0
  -25.2450  -13.9120   20.4360 C   0  0  0  0  0  0  0  0  0  0  0  0
  -24.1900  -13.1330   20.8220 C   0  0  0  0  0  0  0  0  0  0  0  0
  -24.6610  -11.7850   20.7850 C   0  0  0  0  0  0  0  0  0  0  0  0
  -26.2910  -13.0380   20.1840 N   0  0  0  0  0  0  0  0  0  0  0  0
  -25.9460  -11.7550   20.4580 N   0  0  0  0  0  0  0  0  0  0  0  0
  -23.9420  -10.5180   20.9820 C   0  0  0  0  0  0  0  0  0  0  0  0
  -24.3780   -9.5630   21.9260 C   0  0  0  0  0  3  0  0  0  0  0  0
  -23.6620   -8.3610   22.1100 C   0  0  0  0  0  3  0  0  0  0  0  0
  -22.4960   -8.1060   21.3510 C   0  0  0  0  0  0  0  0  0  0  0  0
  -22.0790   -9.0500   20.3950 C   0  0  0  0  0  3  0  0  0  0  0  0
  -22.7970  -10.2440   20.2090 C   0  0  0  0  0  3  0  0  0  0  0  0
  -21.7500   -6.9560   21.4440 O   0  0  0  0  0  0  0  0  0  0  0  0
  -21.6910   -6.2290   22.6050 C   0  0  0  0  0  0  0  0  0  0  0  0
  -21.2080   -6.7870   23.8090 C   0  0  0  0  0  3  0  0  0  0  0  0
  -21.1000   -5.9840   24.9620 C   0  0  0  0  0  3  0  0  0  0  0  0
  -21.4640   -4.6250   24.9120 C   0  0  0  0  0  0  0  0  0  0  0  0
  -21.9390   -4.0670   23.7120 C   0  0  0  0  0  3  0  0  0  0  0  0
  -22.0490   -4.8660   22.5610 C   0  0  0  0  0  0  0  0  0  0  0  0
  -22.4880   -4.3190   21.4030 F   0  0  0  0  0  0  0  0  0  0  0  0
  -21.3530   -3.8510   26.0180 F   0  0  0  0  0  0  0  0  0  0  0  0
  -22.7940  -13.6020   21.1080 C   0  0  0  0  0  0  0  0  0  0  0  0
  -22.0710  -12.8950   21.9700 N   0  0  0  0  0  0  0  0  0  0  0  0
  -22.3510  -14.6330   20.6020 O   0  0  0  0  0  0  0  0  0  0  0  0
  -22.4410  -12.0620   22.4050 H   0  0  0  0  0  0  0  0  0  0  0  0
  -21.1340  -13.1950   22.2020 H   0  0  0  0  0  0  0  0  0  0  0  0
  -25.3940  -15.2850   20.2560 N   0  0  0  0  0  0  0  0  0  0  0  0
  -24.6070  -15.9160   20.3580 H   0  0  0  0  0  0  0  0  0  0  0  0
  -26.2010  -15.7280   19.8370 H   0  0  0  0  0  0  0  0  0  0  0  0
  -28.7210  -23.9880   20.3290 C   0  0  0  0  0  0  0  0  0  0  0  0
  -28.7940  -22.8030   19.6440 N   0  0  0  0  0  0  0  0  0  0  0  0
  -28.8490  -24.0560   21.5540 O   0  0  0  0  0  0  0  0  0  0  0  0
  -28.6000  -22.8920   18.6580 H   0  0  0  0  0  0  0  0  0  0  0  0
  -28.4670  -25.3070   19.4860 C   0  0  0  0  0  2  0  0  0  0  0  0
  -28.3330  -26.5840   20.2290 O   0  0  0  0  0  0  0  0  0  0  0  0
  -24.5750  -31.9510   23.2390 C   0  0  0  0  0  0  0  0  0  0  0  0
  -27.1820  -27.3890   20.1710 C   0  0  0  0  0  0  0  0  0  0  0  0
  -23.3630  -30.5400   21.6150 C   0  0  0  0  0  3  0  0  0  0  0  0
  -24.8050  -28.9910   20.1850 C   0  0  0  0  0  0  0  0  0  0  0  0
  -25.9000  -30.8680   21.4110 C   0  0  0  0  0  2  0  0  0  0  0  0
  -25.9760  -29.4870   20.7680 C   0  0  0  0  0  0  0  0  0  0  0  0
  -27.1620  -28.6950   20.7550 C   0  0  0  0  0  3  0  0  0  0  0  0
  -25.9760  -26.9390   19.5840 C   0  0  0  0  0  3  0  0  0  0  0  0
  -24.8060  -27.7210   19.5890 C   0  0  0  0  0  3  0  0  0  0  0  0
  -23.5680  -29.8600   20.2350 C   0  0  0  0  0  2  0  0  0  0  0  0
  -24.6320  -31.1370   22.1440 N   0  0  0  0  0  0  0  0  0  0  0  0
  -23.4940  -32.2280   23.7800 O   0  0  0  0  0  0  0  0  0  0  0  0
  -22.7140  -29.5250   22.5840 C   0  0  0  0  0  0  0  0  0  0  0  0
  -21.3900  -29.3330   22.4590 N   0  0  0  0  0  0  0  0  0  0  0  0
  -23.3990  -28.9130   23.4080 O   0  0  0  0  0  0  0  0  0  0  0  0
  -20.8970  -29.8790   21.7660 H   0  0  0  0  0  0  0  0  0  0  0  0
  -18.0210  -28.1200   22.9770 C   0  0  0  0  0  0  0  0  0  0  0  0
  -20.5780  -28.3970   23.2380 C   0  0  0  0  0  3  0  0  0  0  0  0
  -20.6860  -26.9630   22.6730 C   0  0  0  0  0  2  0  0  0  0  0  0
  -19.5840  -26.6250   21.6640 C   0  0  0  0  0  2  0  0  0  0  0  0
  -18.2030  -26.7680   22.3100 C   0  0  0  0  0  2  0  0  0  0  0  0
  -19.1370  -28.8920   23.3990 C   0  0  0  0  0  0  0  0  0  0  0  0
  -18.9120  -30.1570   23.9830 C   0  0  0  0  0  3  0  0  0  0  0  0
  -17.6050  -30.6520   24.1520 C   0  0  0  0  0  3  0  0  0  0  0  0
  -16.5050  -29.8780   23.7460 C   0  0  0  0  0  3  0  0  0  0  0  0
  -16.7120  -28.6150   23.1650 C   0  0  0  0  0  3  0  0  0  0  0  0
  -25.8600  -32.5910   23.8470 C   0  0  0  0  0  3  0  0  0  0  0  0
  -26.3780  -31.8370   25.1340 C   0  0  1  0  0  0  0  0  0  0  0  0
  -25.2850  -31.6120   26.2050 C   0  0  0  0  0  1  0  0  0  0  0  0
  -26.9650  -30.4570   24.7610 C   0  0  0  0  0  1  0  0  0  0  0  0
  -27.5250  -32.6440   25.7850 C   0  0  0  0  0  1  0  0  0  0  0  0
  -25.5520  -33.9940   24.1590 N   0  0  0  0  0  0  0  0  0  0  0  0
  -25.8900  -35.0380   23.3890 C   0  0  0  0  0  0  0  0  0  0  0  0
  -26.5650  -34.9190   22.3630 O   0  0  0  0  0  0  0  0  0  0  0  0
  -24.9540  -34.1590   24.9550 H   0  0  0  0  0  0  0  0  0  0  0  0
  -24.1820  -36.8400   22.9890 C   0  0  0  0  0  1  0  0  0  0  0  0
  -25.4040  -36.4330   23.8270 C   0  0  0  0  0  3  0  0  0  0  0  0
  -27.5250  -37.3130   24.6960 C   0  0  0  0  0  1  0  0  0  0  0  0
  -26.4460  -37.4780   23.7260 N   0  0  0  0  0  0  0  0  0  0  0  0
  -26.0420  -38.4020   23.8530 H   0  0  0  0  0  0  0  0  0  0  0  0
  -28.8580  -20.8450   17.6520 N   0  0  0  0  0  0  0  0  0  0  0  0
  -29.0230  -20.1440   16.9370 H   0  0  0  0  0  0  0  0  0  0  0  0
  -29.2690  -21.7270   17.3660 H   0  0  0  0  0  0  0  0  0  0  0  0
  2  1  1  0
  3  4  1  0
  4 15  1  0
  4  1  2  0
  5  2  2  0
  6  3  2  0
  6  5  1  0
  7 16  1  0
  8 13  1  0
  9 10  1  0
  9  8  1  0
 11 10  1  0
 11 24  1  0
 11 12  1  0
 13  7  1  0
 13 12  1  0
 14  7  2  0
 15 17  2  0
 16 15  1  0
 17 19  1  0
 18 16  1  0
 20 17  1  0
 21 22  2  0
 22 41  1  0
 23 22  1  0
 23 26  1  0
 24 21  1  0
 24 25  1  0
 25 23  2  0
 26 27  1  0
 27 28  2  0
 29 32  1  0
 29 28  1  0
 30 29  2  0
 31 30  1  0
 31 26  2  0
 32 33  1  0
 33 34  1  0
 34 35  2  0
 36 35  1  0
 36 40  1  0
 37 36  2  0
 38 33  2  0
 38 37  1  0
 39 38  1  0
 41 42  1  0
 42 45  1  0
 42 44  1  0
 43 41  2  0
 46 47  1  0
 46 21  1  0
 48 46  1  0
 49 51  2  0
 50  5  1  0
 50 49  1  0
 52 50  1  0
 53 54  1  0
 53 49  1  0
 55 66  2  0
 56 54  1  0
 56 61  1  0
 57 65  1  0
 57 67  1  0
 58 64  1  0
 58 60  1  0
 59 65  1  0
 60 59  1  0
 61 60  2  0
 62 63  1  0
 62 56  2  0
 63 58  2  0
 64 57  1  0
 65 55  1  0
 67 69  2  0
 68 67  1  0
 70 68  1  0
 71 80  2  0
 71 76  1  0
 72 68  1  0
 72 76  1  0
 73 72  1  0
 74 75  1  0
 74 73  1  0
 75 71  1  0
 76 77  2  0
 77 78  1  0
 79 78  2  0
 80 79  1  0
 81 55  1  0
 81 86  1  0
 81 82  1  0
 82 85  1  1
 82 83  1  0
 84 82  1  0
 86 89  1  0
 87 91  1  0
 87 86  1  0
 88 87  2  0
 91 90  1  0
 93 91  1  0
 93 94  1  0
 93 92  1  0
 95  6  1  0
 96 95  1  0
 97 95  1  0
M  ISO  4   7 100  16 100  53 101  54 101
M  END
>  <TORSDO>  (35) 
F 19

>  <SCORE>  (35) 
-14.364

>  <name>  (35) 
35

>  <ligand_id>  (35) 
35

>  <original_smiles>  (35) 
[H]c1c([H])c([H])c2c(c1[H])C([H])([H])C([H])([H])C([H])([H])C2([H])N([H])C(=O)C1([H])N(C(=O)C([H])(N([H])C(=O)C([H])(N([H])C([H])([H])[H])C([H])([H])[H])C(C([H])([H])[H])(C([H])([H])[H])C([H])([H])[H])C([H])([H])c2c([H])c(OC([H])([H])C(=O)N([H])c3c([H])c([H])c(C(N([H])C(=O)N4C([H])([H])C([H])([H])C([H])([H])C([H])(n5nc(-c6c([H])c([H])c(Oc7c([H])c([H])c(F)c([H])c7F)c([H])c6[H])c(C(=O)N([H])[H])c5N([H])[H])C4([H])[H])=[N+]([H])[H])c([H])c3N([H])[H])c([H])c([H])c2C1([H])[H]

>  <smiles>  (35) 
[H]c1c([H])c([H])c2c(c1[H])C([H])([H])C([H])([H])C([H])([H])C2([H])N([H])C(=O)C1([H])N(C(=O)C([H])(N([H])C(=O)C([H])(N([H])C([H])([H])[H])C([H])([H])[H])C(C([H])([H])[H])(C([H])([H])[H])C([H])([H])[H])C([H])([H])c2c([H])c(OC([H])([H])C(=O)N([H])c3c([H])c([H])c(C(N([H])C(=O)N4C([H])([H])C([H])([H])C([H])([H])C([H])(n5nc(-c6c([H])c([H])c(Oc7c([H])c([H])c(F)c([H])c7F)c([H])c6[H])c(C(=O)N([H])[H])c5N([H])[H])C4([H])[H])=[N+]([H])[H])c([H])c3N([H])[H])c([H])c([H])c2C1([H])[H]

$$$$
36:0:0
     RDKit          3D

104114  0  0  1  0  0  0  0  0999 V2000
  -29.6230  -23.8760   19.2240 C   0  0  0  0  0  3  0  0  0  0  0  0
  -28.6540  -23.0990   16.7020 C   0  0  0  0  0  3  0  0  0  0  0  0
  -29.9220  -22.5650   18.7240 C   0  0  0  0  0  0  0  0  0  0  0  0
  -29.4260  -22.1880   17.4520 C   0  0  0  0  0  0  0  0  0  0  0  0
  -28.8310  -24.7910   18.4690 C   0  0  0  0  0  0  0  0  0  0  0  0
  -28.3580  -24.3780   17.2050 C   0  0  0  0  0  0  0  0  0  0  0  0
  -30.3550  -19.9450   17.7590 C   0  0  0  0  0  3  0  0  0  0  0  0
  -29.7180  -20.8290   16.9730 C   0  0  0  0  0  0  0  0  0  0  0  0
  -30.7610  -21.5550   19.5100 C   0  0  0  0  0  0  0  0  0  0  0  0
  -30.8130  -20.2460   19.0620 N   0  0  0  0  0  0  0  0  0  0  0  0
  -31.3750  -21.9610   20.5040 O   0  0  0  0  0  0  0  0  0  0  0  0
  -27.6140  -25.2290   16.4570 F   0  0  0  0  0  0  0  0  0  0  0  0
  -30.7280  -19.0040   21.2120 C   0  0  0  0  0  3  0  0  0  0  0  0
  -32.0530  -18.0330   19.4090 C   0  0  0  0  0  3  0  0  0  0  0  0
  -31.7750  -16.8320   21.5170 C   0  0  0  0  0  3  0  0  0  0  0  0
  -31.2380  -19.1150   19.8900 C   0  0  0  0  0  0  0  0  0  0  0  0
  -31.0210  -17.8960   22.0240 C   0  0  0  0  0  0  0  0  0  0  0  0
  -32.2880  -16.8770   20.2090 C   0  0  0  0  0  0  0  0  0  0  0  0
  -33.2060  -15.1840   18.5920 C   0  0  0  0  0  0  0  0  0  0  0  0
  -33.3420  -13.1100   17.2520 C   0  0  0  0  0  2  0  0  0  0  0  0
  -32.0590  -12.9310   16.4160 C   0  0  0  0  0  2  0  0  0  0  0  0
  -30.9650  -12.2160   17.2310 C   0  0  0  0  0  2  0  0  0  0  0  0
  -30.7560  -12.8450   18.6310 C   0  0  0  0  0  3  0  0  0  0  0  0
  -32.1130  -13.0390   19.3480 C   0  0  0  0  0  2  0  0  0  0  0  0
  -33.0040  -13.8410   18.4800 N   0  0  0  0  0  0  0  0  0  0  0  0
  -33.7280  -15.8780   17.7160 O   0  0  0  0  0  0  0  0  0  0  0  0
  -32.9310  -15.6700   19.8060 N   0  0  0  0  0  0  0  0  0  0  0  0
  -32.9250  -14.9440   20.5080 H   0  0  0  0  0  0  0  0  0  0  0  0
  -28.4750  -12.2820   19.6980 C   0  0  0  0  0  0  0  0  0  0  0  0
  -28.0520  -11.2130   20.4430 C   0  0  0  0  0  0  0  0  0  0  0  0
  -29.1890  -10.3610   20.5900 C   0  0  0  0  0  0  0  0  0  0  0  0
  -29.8210  -12.0570   19.4360 N   0  0  0  0  0  0  0  0  0  0  0  0
  -30.2550  -10.9120   20.0240 N   0  0  0  0  0  0  0  0  0  0  0  0
  -29.3100   -9.0250   21.1910 C   0  0  0  0  0  0  0  0  0  0  0  0
  -30.5250   -8.5770   21.7530 C   0  0  0  0  0  3  0  0  0  0  0  0
  -30.6140   -7.2970   22.3390 C   0  0  0  0  0  3  0  0  0  0  0  0
  -29.4800   -6.4510   22.3740 C   0  0  0  0  0  0  0  0  0  0  0  0
  -28.2780   -6.8920   21.7930 C   0  0  0  0  0  3  0  0  0  0  0  0
  -28.1930   -8.1650   21.2050 C   0  0  0  0  0  3  0  0  0  0  0  0
  -29.4800   -5.1810   22.9000 O   0  0  0  0  0  0  0  0  0  0  0  0
  -30.5870   -4.6590   23.5220 C   0  0  0  0  0  0  0  0  0  0  0  0
  -31.5540   -5.4850   24.1390 C   0  0  0  0  0  3  0  0  0  0  0  0
  -32.6380   -4.9050   24.8270 C   0  0  0  0  0  3  0  0  0  0  0  0
  -32.7520   -3.5040   24.9120 C   0  0  0  0  0  0  0  0  0  0  0  0
  -31.7890   -2.6810   24.3040 C   0  0  0  0  0  3  0  0  0  0  0  0
  -30.7070   -3.2580   23.6150 C   0  0  0  0  0  0  0  0  0  0  0  0
  -29.7680   -2.4590   23.0500 F   0  0  0  0  0  0  0  0  0  0  0  0
  -33.7890   -2.9490   25.5790 F   0  0  0  0  0  0  0  0  0  0  0  0
  -26.6500  -10.9470   20.9130 C   0  0  0  0  0  0  0  0  0  0  0  0
  -26.4980  -10.2210   22.0150 N   0  0  0  0  0  0  0  0  0  0  0  0
  -25.6790  -11.4210   20.3250 O   0  0  0  0  0  0  0  0  0  0  0  0
  -27.2940   -9.8460   22.5090 H   0  0  0  0  0  0  0  0  0  0  0  0
  -25.5720  -10.0380   22.3720 H   0  0  0  0  0  0  0  0  0  0  0  0
  -27.8310  -13.4110   19.2040 N   0  0  0  0  0  0  0  0  0  0  0  0
  -26.8380  -13.5700   19.3300 H   0  0  0  0  0  0  0  0  0  0  0  0
  -28.2730  -14.1070   18.6160 H   0  0  0  0  0  0  0  0  0  0  0  0
  -30.5460  -17.8330   23.3300 N   0  0  0  0  0  0  0  0  0  0  0  0
  -30.2580  -18.7010   23.7700 H   0  0  0  0  0  0  0  0  0  0  0  0
  -31.0430  -17.2210   23.9680 H   0  0  0  0  0  0  0  0  0  0  0  0
  -28.5350  -26.1320   18.8250 N   0  0  0  0  0  0  0  0  0  0  0  0
  -28.0250  -26.6320   18.1010 H   0  0  0  0  0  0  0  0  0  0  0  0
  -27.8960  -26.3830   20.0920 O   0  0  0  0  0  0  0  0  0  0  0  0
  -24.5770  -31.9380   23.1230 C   0  0  0  0  0  0  0  0  0  0  0  0
  -26.8110  -27.2480   20.0250 C   0  0  0  0  0  0  0  0  0  0  0  0
  -23.2070  -30.5510   21.6010 C   0  0  0  0  0  3  0  0  0  0  0  0
  -24.4980  -28.8950   20.1350 C   0  0  0  0  0  0  0  0  0  0  0  0
  -25.7340  -30.7640   21.2450 C   0  0  0  0  0  2  0  0  0  0  0  0
  -25.7140  -29.3710   20.6350 C   0  0  0  0  0  0  0  0  0  0  0  0
  -26.8750  -28.5540   20.5770 C   0  0  0  0  0  3  0  0  0  0  0  0
  -25.5710  -26.7920   19.5270 C   0  0  0  0  0  3  0  0  0  0  0  0
  -24.4220  -27.6090   19.5730 C   0  0  0  0  0  3  0  0  0  0  0  0
  -23.2990  -29.8170   20.2350 C   0  0  0  0  0  2  0  0  0  0  0  0
  -24.5280  -31.1000   22.0460 N   0  0  0  0  0  0  0  0  0  0  0  0
  -23.5480  -32.2860   23.7190 O   0  0  0  0  0  0  0  0  0  0  0  0
  -22.5600  -29.6010   22.6370 C   0  0  0  0  0  0  0  0  0  0  0  0
  -21.2380  -29.3990   22.5250 N   0  0  0  0  0  0  0  0  0  0  0  0
  -23.2480  -29.0450   23.4960 O   0  0  0  0  0  0  0  0  0  0  0  0
  -20.7450  -29.9010   21.7980 H   0  0  0  0  0  0  0  0  0  0  0  0
  -17.8830  -28.1650   23.0690 C   0  0  0  0  0  0  0  0  0  0  0  0
  -20.4280  -28.5110   23.3600 C   0  0  0  0  0  3  0  0  0  0  0  0
  -20.5770  -27.0380   22.9140 C   0  0  0  0  0  2  0  0  0  0  0  0
  -19.5030  -26.6020   21.9130 C   0  0  0  0  0  2  0  0  0  0  0  0
  -18.1060  -26.7680   22.5180 C   0  0  0  0  0  2  0  0  0  0  0  0
  -18.9750  -28.9890   23.4520 C   0  0  0  0  0  0  0  0  0  0  0  0
  -18.7160  -30.2920   23.9270 C   0  0  0  0  0  3  0  0  0  0  0  0
  -17.3970  -30.7740   24.0270 C   0  0  0  0  0  3  0  0  0  0  0  0
  -16.3190  -29.9500   23.6630 C   0  0  0  0  0  3  0  0  0  0  0  0
  -16.5630  -28.6470   23.1910 C   0  0  0  0  0  3  0  0  0  0  0  0
  -25.9280  -32.5210   23.6440 C   0  0  0  0  0  3  0  0  0  0  0  0
  -26.5720  -31.6590   24.7990 C   0  0  1  0  0  0  0  0  0  0  0  0
  -25.5810  -31.2950   25.9280 C   0  0  0  0  0  1  0  0  0  0  0  0
  -27.1560  -30.3430   24.2360 C   0  0  0  0  0  1  0  0  0  0  0  0
  -27.7520  -32.4320   25.4360 C   0  0  0  0  0  1  0  0  0  0  0  0
  -25.6730  -33.8920   24.1050 N   0  0  0  0  0  0  0  0  0  0  0  0
  -25.8950  -34.9930   23.3750 C   0  0  0  0  0  0  0  0  0  0  0  0
  -26.4080  -34.9600   22.2520 O   0  0  0  0  0  0  0  0  0  0  0  0
  -25.2020  -33.9910   24.9920 H   0  0  0  0  0  0  0  0  0  0  0  0
  -24.1140  -36.7690   23.4190 C   0  0  0  0  0  1  0  0  0  0  0  0
  -25.4800  -36.3460   23.9850 C   0  0  0  0  0  3  0  0  0  0  0  0
  -27.7210  -37.2220   24.4790 C   0  0  0  0  0  1  0  0  0  0  0  0
  -26.4680  -37.4240   23.7560 N   0  0  0  0  0  0  0  0  0  0  0  0
  -26.0880  -38.3270   24.0270 H   0  0  0  0  0  0  0  0  0  0  0  0
  -29.3070  -20.5150   15.7360 O   0  0  0  0  0  0  0  0  0  0  0  0
  -29.5510  -19.6110   15.5680 H   0  0  0  0  0  0  0  0  0  0  0  0
  2  6  2  0
  2  4  1  0
  3  1  1  0
  3  9  1  0
  4  3  2  0
  5 60  1  0
  5  1  2  0
  6  5  1  0
  7 10  1  0
  8  4  1  0
  8  7  2  0
  9 11  2  0
 10  9  1  0
 10 16  1  0
 12  6  1  0
 13 17  1  0
 14 16  1  0
 14 18  2  0
 15 17  2  0
 16 13  2  0
 17 57  1  0
 18 15  1  0
 19 27  1  0
 20 25  1  0
 21 22  1  0
 21 20  1  0
 23 22  1  0
 23 24  1  0
 23 32  1  0
 25 19  1  0
 25 24  1  0
 26 19  2  0
 27 18  1  0
 27 28  1  0
 29 30  2  0
 30 31  1  0
 30 49  1  0
 31 34  1  0
 32 29  1  0
 32 33  1  0
 33 31  2  0
 34 39  2  0
 34 35  1  0
 35 36  2  0
 36 37  1  0
 37 40  1  0
 38 37  2  0
 39 38  1  0
 40 41  1  0
 41 46  2  0
 41 42  1  0
 42 43  2  0
 43 44  1  0
 44 48  1  0
 45 44  2  0
 46 45  1  0
 47 46  1  0
 49 50  1  0
 50 53  1  0
 50 52  1  0
 51 49  2  0
 54 55  1  0
 54 29  1  0
 56 54  1  0
 57 58  1  0
 57 59  1  0
 60 62  1  0
 61 60  1  0
 63 74  2  0
 64 62  1  0
 64 69  1  0
 65 73  1  0
 65 75  1  0
 66 72  1  0
 66 68  1  0
 67 73  1  0
 68 67  1  0
 69 68  2  0
 70 71  1  0
 70 64  2  0
 71 66  2  0
 72 65  1  0
 73 63  1  0
 75 77  2  0
 76 75  1  0
 78 76  1  0
 79 88  2  0
 79 84  1  0
 80 76  1  0
 80 84  1  0
 81 80  1  0
 82 83  1  0
 82 81  1  0
 83 79  1  0
 84 85  2  0
 85 86  1  0
 87 86  2  0
 88 87  1  0
 89 63  1  0
 89 94  1  0
 89 90  1  0
 90 93  1  1
 90 91  1  0
 92 90  1  0
 94 97  1  0
 95 99  1  0
 95 94  1  0
 96 95  2  0
 99 98  1  0
101 99  1  0
101102  1  0
101100  1  0
103  8  1  0
104103  1  0
M  ISO  4  19 100  27 100  60 101  62 101
M  END
>  <TORSDO>  (36) 
F 20

>  <SCORE>  (36) 
-9.508

>  <name>  (36) 
36

>  <ligand_id>  (36) 
36

>  <original_smiles>  (36) 
[H]Oc1c([H])n(-c2c([H])c(N([H])[H])c([H])c(N([H])C(=O)N3C([H])([H])C([H])([H])C([H])([H])C([H])(n4nc(-c5c([H])c([H])c(Oc6c([H])c([H])c(F)c([H])c6F)c([H])c5[H])c(C(=O)N([H])[H])c4N([H])[H])C3([H])[H])c2[H])c(=O)c2c([H])c(N([H])Oc3c([H])c([H])c4c(c3[H])C([H])([H])N(C(=O)C([H])(N([H])C(=O)C([H])(N([H])C([H])([H])[H])C([H])([H])[H])C(C([H])([H])[H])(C([H])([H])[H])C([H])([H])[H])C([H])(C(=O)N([H])C3([H])c5c([H])c([H])c([H])c([H])c5C([H])([H])C([H])([H])C3([H])[H])C4([H])[H])c(F)c([H])c12

>  <smiles>  (36) 
[H]Oc1c([H])n(-c2c([H])c(N([H])[H])c([H])c(N([H])C(=O)N3C([H])([H])C([H])([H])C([H])([H])C([H])(n4nc(-c5c([H])c([H])c(Oc6c([H])c([H])c(F)c([H])c6F)c([H])c5[H])c(C(=O)N([H])[H])c4N([H])[H])C3([H])[H])c2[H])c(=O)c2c([H])c(N([H])Oc3c([H])c([H])c4c(c3[H])C([H])([H])N(C(=O)C([H])(N([H])C(=O)C([H])(N([H])C([H])([H])[H])C([H])([H])[H])C(C([H])([H])[H])(C([H])([H])[H])C([H])([H])[H])C([H])(C(=O)N([H])C3([H])c5c([H])c([H])c([H])c([H])c5C([H])([H])C([H])([H])C3([H])[H])C4([H])[H])c(F)c([H])c12

$$$$
37:0:0
     RDKit          3D

 95104  0  0  1  0  0  0  0  0999 V2000
  -28.6880  -23.1270   19.8900 C   0  0  0  0  0  3  0  0  0  0  0  0
  -27.4770  -22.3560   19.4710 C   0  0  0  0  0  0  0  0  0  0  0  0
  -28.7680  -22.0730   17.2670 C   0  0  0  0  0  0  0  0  0  0  0  0
  -28.2850  -24.5210   20.1390 C   0  0  0  0  0  2  0  0  0  0  0  0
  -27.4550  -21.7790   18.0260 C   0  0  0  0  0  2  0  0  0  0  0  0
  -30.0700  -22.1520   18.0920 C   0  0  0  0  0  2  0  0  0  0  0  0
  -29.8000  -22.1540   19.5440 N   0  0  0  0  0  0  0  0  0  0  0  0
  -26.5100  -22.1500   20.2150 O   0  0  0  0  0  0  0  0  0  0  0  0
  -28.7730  -22.2190   16.0370 O   0  0  0  0  0  0  0  0  0  0  0  0
  -30.2210  -19.3590   19.5360 C   0  0  0  0  0  3  0  0  0  0  0  0
  -30.3900  -20.7770   21.4910 C   0  0  0  0  0  3  0  0  0  0  0  0
  -30.9010  -18.3420   21.6240 C   0  0  0  0  0  3  0  0  0  0  0  0
  -30.0980  -20.7680   20.1180 C   0  0  0  0  0  0  0  0  0  0  0  0
  -30.6220  -18.0840   20.2610 C   0  0  0  0  0  0  0  0  0  0  0  0
  -30.7770  -19.6260   22.2120 C   0  0  0  0  0  0  0  0  0  0  0  0
  -31.0420  -19.7590   23.5340 F   0  0  0  0  0  0  0  0  0  0  0  0
  -31.2890  -15.3150   20.0720 C   0  0  0  0  0  0  0  0  0  0  0  0
  -31.1590  -12.8940   19.2190 C   0  0  0  0  0  2  0  0  0  0  0  0
  -30.2310  -12.7370   17.9900 C   0  0  0  0  0  2  0  0  0  0  0  0
  -28.7720  -12.5430   18.4480 C   0  0  0  0  0  2  0  0  0  0  0  0
  -28.3500  -13.5450   19.5490 C   0  0  0  0  0  3  0  0  0  0  0  0
  -29.4070  -13.6440   20.6670 C   0  0  0  0  0  2  0  0  0  0  0  0
  -30.6610  -14.0570   20.0160 N   0  0  0  0  0  0  0  0  0  0  0  0
  -32.5230  -15.2880   19.9790 O   0  0  0  0  0  0  0  0  0  0  0  0
  -30.5490  -16.5540   19.8670 N   0  0  0  0  0  0  0  0  0  0  0  0
  -29.6210  -16.3220   19.5510 H   0  0  0  0  0  0  0  0  0  0  0  0
  -26.0010  -14.1960   20.3130 C   0  0  0  0  0  0  0  0  0  0  0  0
  -24.9080  -13.4590   20.6780 C   0  0  0  0  0  0  0  0  0  0  0  0
  -25.3310  -12.0950   20.6600 C   0  0  0  0  0  0  0  0  0  0  0  0
  -27.0110  -13.2840   20.0670 N   0  0  0  0  0  0  0  0  0  0  0  0
  -26.6210  -12.0140   20.3420 N   0  0  0  0  0  0  0  0  0  0  0  0
  -24.5650  -10.8580   20.8560 C   0  0  0  0  0  0  0  0  0  0  0  0
  -24.9070   -9.9200   21.8570 C   0  0  0  0  0  3  0  0  0  0  0  0
  -24.1350   -8.7530   22.0380 C   0  0  0  0  0  3  0  0  0  0  0  0
  -23.0090   -8.5150   21.2170 C   0  0  0  0  0  0  0  0  0  0  0  0
  -22.6880   -9.4350   20.2050 C   0  0  0  0  0  3  0  0  0  0  0  0
  -23.4590  -10.5950   20.0230 C   0  0  0  0  0  3  0  0  0  0  0  0
  -22.2190   -7.3940   21.3030 O   0  0  0  0  0  0  0  0  0  0  0  0
  -22.0030   -6.7600   22.4980 C   0  0  0  0  0  0  0  0  0  0  0  0
  -21.4140   -7.4210   23.5980 C   0  0  0  0  0  3  0  0  0  0  0  0
  -21.1380   -6.7100   24.7820 C   0  0  0  0  0  3  0  0  0  0  0  0
  -21.4410   -5.3360   24.8680 C   0  0  0  0  0  0  0  0  0  0  0  0
  -22.0270   -4.6760   23.7730 C   0  0  0  0  0  3  0  0  0  0  0  0
  -22.3000   -5.3850   22.5890 C   0  0  0  0  0  0  0  0  0  0  0  0
  -22.8410   -4.7370   21.5310 F   0  0  0  0  0  0  0  0  0  0  0  0
  -21.1720   -4.6510   26.0020 F   0  0  0  0  0  0  0  0  0  0  0  0
  -23.5260  -13.9890   20.9310 C   0  0  0  0  0  0  0  0  0  0  0  0
  -22.7630  -13.3380   21.8000 N   0  0  0  0  0  0  0  0  0  0  0  0
  -23.1300  -15.0200   20.3870 O   0  0  0  0  0  0  0  0  0  0  0  0
  -23.0910  -12.5100   22.2720 H   0  0  0  0  0  0  0  0  0  0  0  0
  -21.8340  -13.6820   21.9960 H   0  0  0  0  0  0  0  0  0  0  0  0
  -26.2110  -15.5620   20.1420 N   0  0  0  0  0  0  0  0  0  0  0  0
  -25.4700  -16.2360   20.3030 H   0  0  0  0  0  0  0  0  0  0  0  0
  -27.0790  -15.9880   19.8450 H   0  0  0  0  0  0  0  0  0  0  0  0
  -28.6770  -25.9760   20.2570 O   0  0  0  0  0  0  0  0  0  0  0  0
  -24.7820  -31.7760   23.1210 C   0  0  0  0  0  0  0  0  0  0  0  0
  -27.6510  -27.0470   20.1980 C   0  0  0  0  0  0  0  0  0  0  0  0
  -23.6880  -30.3020   21.4760 C   0  0  0  0  0  3  0  0  0  0  0  0
  -25.2520  -28.7730   20.0870 C   0  0  0  0  0  0  0  0  0  0  0  0
  -26.2370  -30.6350   21.3880 C   0  0  0  0  0  2  0  0  0  0  0  0
  -26.3930  -29.2300   20.7600 C   0  0  0  0  0  0  0  0  0  0  0  0
  -27.5830  -28.3830   20.8160 C   0  0  0  0  0  3  0  0  0  0  0  0
  -26.5000  -26.7630   19.4320 C   0  0  0  0  0  3  0  0  0  0  0  0
  -25.3390  -27.5640   19.3900 C   0  0  0  0  0  3  0  0  0  0  0  0
  -23.9750  -29.6160   20.1080 C   0  0  0  0  0  2  0  0  0  0  0  0
  -24.9180  -30.9330   22.0480 N   0  0  0  0  0  0  0  0  0  0  0  0
  -23.6720  -32.0210   23.6170 O   0  0  0  0  0  0  0  0  0  0  0  0
  -23.0340  -29.2810   22.4440 C   0  0  0  0  0  0  0  0  0  0  0  0
  -21.7140  -29.0580   22.3070 N   0  0  0  0  0  0  0  0  0  0  0  0
  -23.7170  -28.6970   23.2890 O   0  0  0  0  0  0  0  0  0  0  0  0
  -21.2120  -29.5970   21.6140 H   0  0  0  0  0  0  0  0  0  0  0  0
  -18.3980  -27.6720   22.7710 C   0  0  0  0  0  0  0  0  0  0  0  0
  -20.9300  -28.0920   23.0780 C   0  0  0  0  0  3  0  0  0  0  0  0
  -21.1200  -26.6570   22.5350 C   0  0  0  0  0  2  0  0  0  0  0  0
  -20.0620  -26.2480   21.5050 C   0  0  0  0  0  2  0  0  0  0  0  0
  -18.6660  -26.3240   22.1240 C   0  0  0  0  0  2  0  0  0  0  0  0
  -19.4610  -28.5080   23.2080 C   0  0  0  0  0  0  0  0  0  0  0  0
  -19.1560  -29.7630   23.7810 C   0  0  0  0  0  3  0  0  0  0  0  0
  -17.8220  -30.1880   23.9100 C   0  0  0  0  0  3  0  0  0  0  0  0
  -16.7730  -29.3530   23.4850 C   0  0  0  0  0  3  0  0  0  0  0  0
  -17.0620  -28.0940   22.9260 C   0  0  0  0  0  3  0  0  0  0  0  0
  -26.0090  -32.4930   23.7620 C   0  0  0  0  0  3  0  0  0  0  0  0
  -25.6050  -33.8680   24.1040 N   0  0  0  0  0  0  0  0  0  0  0  0
  -25.9620  -34.9650   23.4210 C   0  0  0  0  0  0  0  0  0  0  0  0
  -26.7330  -34.9270   22.4610 O   0  0  0  0  0  0  0  0  0  0  0  0
  -24.9310  -33.9660   24.8480 H   0  0  0  0  0  0  0  0  0  0  0  0
  -24.2250  -36.7290   22.9370 C   0  0  0  0  0  1  0  0  0  0  0  0
  -25.3750  -36.3200   23.8750 C   0  0  0  0  0  3  0  0  0  0  0  0
  -27.3710  -37.2310   24.9890 C   0  0  0  0  0  1  0  0  0  0  0  0
  -26.3790  -37.4080   23.9310 N   0  0  0  0  0  0  0  0  0  0  0  0
  -25.9300  -38.3100   24.0570 H   0  0  0  0  0  0  0  0  0  0  0  0
  -26.5550  -31.7560   25.0500 C   0  0  1  0  0  0  0  0  0  0  0  0
  -25.4600  -31.4420   26.0990 C   0  0  0  0  0  1  0  0  0  0  0  0
  -27.2360  -30.4160   24.6770 C   0  0  0  0  0  1  0  0  0  0  0  0
  -27.6340  -32.6250   25.7410 C   0  0  0  0  0  1  0  0  0  0  0  0
  1  4  1  0
  2  1  1  0
  2  8  2  0
  3  5  1  0
  3  6  1  0
  4 55  1  0
  5  2  1  0
  6  7  1  0
  7  1  1  0
  7 13  1  0
  9  3  2  0
 10 13  2  0
 10 14  1  0
 11 15  2  0
 12 15  1  0
 13 11  1  0
 14 12  2  0
 15 16  1  0
 18 23  1  0
 19 20  1  0
 19 18  1  0
 21 20  1  0
 21 30  1  0
 21 22  1  0
 23 17  1  0
 23 22  1  0
 24 17  2  0
 25 17  1  0
 25 14  1  0
 26 25  1  0
 27 28  2  0
 28 47  1  0
 29 28  1  0
 29 32  1  0
 30 27  1  0
 30 31  1  0
 31 29  2  0
 32 33  1  0
 33 34  2  0
 35 38  1  0
 35 34  1  0
 36 35  2  0
 37 36  1  0
 37 32  2  0
 38 39  1  0
 39 44  2  0
 39 40  1  0
 40 41  2  0
 41 42  1  0
 42 46  1  0
 43 42  2  0
 44 43  1  0
 45 44  1  0
 47 48  1  0
 48 51  1  0
 48 50  1  0
 49 47  2  0
 52 53  1  0
 52 27  1  0
 54 52  1  0
 56 67  2  0
 57 55  1  0
 57 62  1  0
 58 66  1  0
 58 68  1  0
 59 65  1  0
 59 61  1  0
 60 66  1  0
 61 62  2  0
 61 60  1  0
 63 57  2  0
 64 63  1  0
 64 59  2  0
 65 58  1  0
 66 56  1  0
 68 70  2  0
 69 68  1  0
 71 69  1  0
 72 81  2  0
 72 77  1  0
 73 69  1  0
 73 77  1  0
 74 73  1  0
 75 76  1  0
 75 74  1  0
 76 72  1  0
 77 78  2  0
 78 79  1  0
 80 79  2  0
 81 80  1  0
 82 56  1  0
 82 83  1  0
 82 92  1  0
 83 86  1  0
 84 88  1  0
 84 83  1  0
 85 84  2  0
 88 87  1  0
 88 90  1  0
 90 91  1  0
 90 89  1  0
 92 95  1  1
 92 93  1  0
 94 92  1  0
M  ISO  4   4 101  17 100  25 100  55 101
M  END
>  <TORSDO>  (37) 
F 17

>  <SCORE>  (37) 
-13.789

>  <name>  (37) 
37

>  <ligand_id>  (37) 
37

>  <original_smiles>  (37) 
[H]C(Oc1c([H])c([H])c2c(c1[H])C([H])([H])N(C(=O)C([H])(N([H])C(=O)C([H])(N([H])C([H])([H])[H])C([H])([H])[H])C(C([H])([H])[H])(C([H])([H])[H])C([H])([H])[H])C([H])(C(=O)N([H])C1([H])c3c([H])c([H])c([H])c([H])c3C([H])([H])C([H])([H])C1([H])[H])C2([H])[H])=C1C(=O)C([H])([H])C(=O)C([H])([H])N1c1c([H])c(F)c([H])c(N([H])C(=O)N2C([H])([H])C([H])([H])C([H])([H])C([H])(n3nc(-c4c([H])c([H])c(Oc5c([H])c([H])c(F)c([H])c5F)c([H])c4[H])c(C(=O)N([H])[H])c3N([H])[H])C2([H])[H])c1[H]

>  <smiles>  (37) 
[H]C(Oc1c([H])c([H])c2c(c1[H])C([H])([H])N(C(=O)C([H])(N([H])C(=O)C([H])(N([H])C([H])([H])[H])C([H])([H])[H])C(C([H])([H])[H])(C([H])([H])[H])C([H])([H])[H])C([H])(C(=O)N([H])C1([H])c3c([H])c([H])c([H])c([H])c3C([H])([H])C([H])([H])C1([H])[H])C2([H])[H])=C1C(=O)C([H])([H])C(=O)C([H])([H])N1c1c([H])c(F)c([H])c(N([H])C(=O)N2C([H])([H])C([H])([H])C([H])([H])C([H])(n3nc(-c4c([H])c([H])c(Oc5c([H])c([H])c(F)c([H])c5F)c([H])c4[H])c(C(=O)N([H])[H])c3N([H])[H])C2([H])[H])c1[H]

$$$$
38:0:0
     RDKit          3D

 93101  0  0  1  0  0  0  0  0999 V2000
  -28.5690  -22.9200   20.6860 C   0  0  0  0  0  0  0  0  0  0  0  0
  -29.1830  -21.9110   20.0090 N   0  0  0  0  0  0  0  0  0  0  0  0
  -27.7380  -22.7010   21.5720 O   0  0  0  0  0  0  0  0  0  0  0  0
  -29.9500  -22.1880   19.4110 H   0  0  0  0  0  0  0  0  0  0  0  0
  -27.2590  -18.6450   19.9550 C   0  0  0  0  0  3  0  0  0  0  0  0
  -28.2970  -17.6960   20.0400 C   0  0  0  0  0  3  0  0  0  0  0  0
  -27.5440  -20.0250   19.9490 C   0  0  0  0  0  3  0  0  0  0  0  0
  -29.9150  -19.5210   20.0930 C   0  0  0  0  0  3  0  0  0  0  0  0
  -29.6450  -18.1150   20.1000 C   0  0  0  0  0  0  0  0  0  0  0  0
  -28.8750  -20.4960   20.0360 C   0  0  0  0  0  0  0  0  0  0  0  0
  -31.2830  -14.7220   20.4850 C   0  0  0  0  0  0  0  0  0  0  0  0
  -31.2050  -12.3060   19.9680 C   0  0  0  0  0  2  0  0  0  0  0  0
  -30.3750  -12.1000   18.6840 C   0  0  0  0  0  2  0  0  0  0  0  0
  -28.8790  -11.9570   19.0270 C   0  0  0  0  0  2  0  0  0  0  0  0
  -28.3750  -13.0700   19.9850 C   0  0  0  0  0  3  0  0  0  0  0  0
  -29.3340  -13.2620   21.1810 C   0  0  0  0  0  2  0  0  0  0  0  0
  -30.6790  -13.5070   20.6430 N   0  0  0  0  0  0  0  0  0  0  0  0
  -32.4740  -14.7930   20.1720 O   0  0  0  0  0  0  0  0  0  0  0  0
  -30.7770  -17.1040   20.2320 C   0  0  0  0  0  0  0  0  0  0  0  0
  -30.4570  -15.8040   20.4940 N   0  0  0  0  0  0  0  0  0  0  0  0
  -31.9310  -17.5130   20.0590 O   0  0  0  0  0  0  0  0  0  0  0  0
  -29.4850  -15.6170   20.6550 H   0  0  0  0  0  0  0  0  0  0  0  0
  -25.9730  -13.7250   20.6230 C   0  0  0  0  0  0  0  0  0  0  0  0
  -24.8770  -12.9750   20.9530 C   0  0  0  0  0  0  0  0  0  0  0  0
  -25.3090  -11.6130   20.9330 C   0  0  0  0  0  0  0  0  0  0  0  0
  -27.0040  -12.8220   20.4210 N   0  0  0  0  0  0  0  0  0  0  0  0
  -26.6080  -11.5460   20.6680 N   0  0  0  0  0  0  0  0  0  0  0  0
  -24.5480  -10.3680   21.0920 C   0  0  0  0  0  0  0  0  0  0  0  0
  -24.8710   -9.4280   22.0960 C   0  0  0  0  0  3  0  0  0  0  0  0
  -24.1140   -8.2460   22.2420 C   0  0  0  0  0  3  0  0  0  0  0  0
  -23.0190   -7.9950   21.3810 C   0  0  0  0  0  0  0  0  0  0  0  0
  -22.7160   -8.9220   20.3690 C   0  0  0  0  0  3  0  0  0  0  0  0
  -23.4740  -10.0960   20.2220 C   0  0  0  0  0  3  0  0  0  0  0  0
  -22.2420   -6.8630   21.4320 O   0  0  0  0  0  0  0  0  0  0  0  0
  -21.9780   -6.2240   22.6170 C   0  0  0  0  0  0  0  0  0  0  0  0
  -21.3490   -6.8830   23.6960 C   0  0  0  0  0  3  0  0  0  0  0  0
  -21.0340   -6.1700   24.8690 C   0  0  0  0  0  3  0  0  0  0  0  0
  -21.3360   -4.7990   24.9630 C   0  0  0  0  0  0  0  0  0  0  0  0
  -21.9580   -4.1390   23.8880 C   0  0  0  0  0  3  0  0  0  0  0  0
  -22.2750   -4.8500   22.7170 C   0  0  0  0  0  0  0  0  0  0  0  0
  -22.8550   -4.2050   21.6760 F   0  0  0  0  0  0  0  0  0  0  0  0
  -21.0260   -4.1110   26.0870 F   0  0  0  0  0  0  0  0  0  0  0  0
  -23.4820  -13.4830   21.1780 C   0  0  0  0  0  0  0  0  0  0  0  0
  -22.7140  -12.8080   22.0260 N   0  0  0  0  0  0  0  0  0  0  0  0
  -23.0820  -14.5120   20.6360 O   0  0  0  0  0  0  0  0  0  0  0  0
  -23.0500  -11.9750   22.4870 H   0  0  0  0  0  0  0  0  0  0  0  0
  -21.7770  -13.1320   22.2190 H   0  0  0  0  0  0  0  0  0  0  0  0
  -26.1740  -15.0920   20.4520 N   0  0  0  0  0  0  0  0  0  0  0  0
  -25.4070  -15.7520   20.5130 H   0  0  0  0  0  0  0  0  0  0  0  0
  -27.0220  -15.5090   20.0890 H   0  0  0  0  0  0  0  0  0  0  0  0
  -28.9920  -24.2780   20.3030 C   0  0  0  0  0  3  0  0  0  0  0  0
  -28.3470  -25.3640   20.8100 C   0  0  0  0  0  3  0  0  0  0  0  0
  -28.6200  -26.6960   20.5200 O   0  0  0  0  0  0  0  0  0  0  0  0
  -24.7830  -31.9800   23.4610 C   0  0  0  0  0  0  0  0  0  0  0  0
  -27.5100  -27.5210   20.4530 C   0  0  0  0  0  0  0  0  0  0  0  0
  -23.6380  -30.6060   21.7550 C   0  0  0  0  0  3  0  0  0  0  0  0
  -25.1400  -29.0740   20.3700 C   0  0  0  0  0  0  0  0  0  0  0  0
  -26.1750  -30.9410   21.6690 C   0  0  0  0  0  2  0  0  0  0  0  0
  -26.2790  -29.5740   21.0150 C   0  0  0  0  0  0  0  0  0  0  0  0
  -27.4730  -28.8060   21.0510 C   0  0  0  0  0  3  0  0  0  0  0  0
  -26.3560  -27.0500   19.7920 C   0  0  0  0  0  3  0  0  0  0  0  0
  -25.1750  -27.8130   19.7520 C   0  0  0  0  0  3  0  0  0  0  0  0
  -23.9000  -29.9410   20.3770 C   0  0  0  0  0  2  0  0  0  0  0  0
  -24.8810  -31.1900   22.3540 N   0  0  0  0  0  0  0  0  0  0  0  0
  -23.6810  -32.2540   23.9580 O   0  0  0  0  0  0  0  0  0  0  0  0
  -22.9370  -29.5790   22.6760 C   0  0  0  0  0  0  0  0  0  0  0  0
  -21.6160  -29.4170   22.4990 N   0  0  0  0  0  0  0  0  0  0  0  0
  -23.5830  -28.9340   23.5060 O   0  0  0  0  0  0  0  0  0  0  0  0
  -21.1570  -29.9890   21.8050 H   0  0  0  0  0  0  0  0  0  0  0  0
  -18.2100  -28.2660   22.8710 C   0  0  0  0  0  0  0  0  0  0  0  0
  -20.7620  -28.4750   23.2250 C   0  0  0  0  0  3  0  0  0  0  0  0
  -20.8580  -27.0560   22.6200 C   0  0  0  0  0  2  0  0  0  0  0  0
  -19.7810  -26.7730   21.5670 C   0  0  0  0  0  2  0  0  0  0  0  0
  -18.3840  -26.9280   22.1740 C   0  0  0  0  0  2  0  0  0  0  0  0
  -19.3280  -29.0000   23.3510 C   0  0  0  0  0  0  0  0  0  0  0  0
  -19.1120  -30.2550   23.9600 C   0  0  0  0  0  3  0  0  0  0  0  0
  -17.8120  -30.7760   24.0960 C   0  0  0  0  0  3  0  0  0  0  0  0
  -16.7080  -30.0390   23.6330 C   0  0  0  0  0  3  0  0  0  0  0  0
  -16.9080  -28.7850   23.0270 C   0  0  0  0  0  3  0  0  0  0  0  0
  -26.0450  -32.5950   24.1410 C   0  0  0  0  0  3  0  0  0  0  0  0
  -26.4790  -31.8330   25.4530 C   0  0  1  0  0  0  0  0  0  0  0  0
  -25.3200  -31.6080   26.4530 C   0  0  0  0  0  1  0  0  0  0  0  0
  -27.0780  -30.4500   25.1080 C   0  0  0  0  0  1  0  0  0  0  0  0
  -27.5900  -32.6280   26.1780 C   0  0  0  0  0  1  0  0  0  0  0  0
  -25.7480  -34.0040   24.4340 N   0  0  0  0  0  0  0  0  0  0  0  0
  -26.1120  -35.0350   23.6580 C   0  0  0  0  0  0  0  0  0  0  0  0
  -26.8040  -34.9000   22.6460 O   0  0  0  0  0  0  0  0  0  0  0  0
  -25.1370  -34.1850   25.2160 H   0  0  0  0  0  0  0  0  0  0  0  0
  -24.4070  -36.8340   23.2330 C   0  0  0  0  0  1  0  0  0  0  0  0
  -25.6320  -36.4400   24.0740 C   0  0  0  0  0  3  0  0  0  0  0  0
  -27.7630  -37.3240   24.9130 C   0  0  0  0  0  1  0  0  0  0  0  0
  -26.6780  -37.4780   23.9490 N   0  0  0  0  0  0  0  0  0  0  0  0
  -26.2800  -38.4060   24.0650 H   0  0  0  0  0  0  0  0  0  0  0  0
  1  3  2  0
  2 10  1  0
  2  1  1  0
  4  2  1  0
  5  6  1  0
  6  9  2  0
  7  5  2  0
  7 10  1  0
  8  9  1  0
  9 19  1  0
 10  8  2  0
 11 20  1  0
 11 17  1  0
 12 17  1  0
 13 14  1  0
 13 12  1  0
 15 14  1  0
 15 26  1  0
 15 16  1  0
 17 16  1  0
 18 11  2  0
 19 20  1  0
 20 22  1  0
 21 19  2  0
 23 24  2  0
 24 43  1  0
 25 24  1  0
 25 28  1  0
 26 23  1  0
 26 27  1  0
 27 25  2  0
 28 29  1  0
 29 30  2  0
 31 34  1  0
 31 30  1  0
 32 31  2  0
 33 32  1  0
 33 28  2  0
 34 35  1  0
 35 40  2  0
 35 36  1  0
 36 37  2  0
 37 38  1  0
 38 42  1  0
 39 38  2  0
 40 39  1  0
 41 40  1  0
 43 44  1  0
 44 47  1  0
 44 46  1  0
 45 43  2  0
 48 49  1  0
 48 23  1  0
 50 48  1  0
 51  1  1  0
 51 52  2  0
 53 52  1  0
 54 65  2  0
 55 53  1  0
 55 60  1  0
 56 64  1  0
 56 66  1  0
 57 63  1  0
 57 59  1  0
 58 64  1  0
 59 60  2  0
 59 58  1  0
 61 55  2  0
 62 61  1  0
 62 57  2  0
 63 56  1  0
 64 54  1  0
 66 68  2  0
 67 66  1  0
 69 67  1  0
 70 79  2  0
 70 75  1  0
 71 67  1  0
 71 75  1  0
 72 71  1  0
 73 74  1  0
 73 72  1  0
 74 70  1  0
 75 76  2  0
 76 77  1  0
 78 77  2  0
 79 78  1  0
 80 54  1  0
 80 85  1  0
 80 81  1  0
 81 84  1  1
 81 82  1  0
 83 81  1  0
 85 88  1  0
 86 90  1  0
 86 85  1  0
 87 86  2  0
 90 89  1  0
 92 93  1  0
 92 90  1  0
 92 91  1  0
M  ISO  4  11 100  20 100  52 101  53 101
M  END
>  <TORSDO>  (38) 
F 18

>  <SCORE>  (38) 
-13.495

>  <name>  (38) 
38

>  <ligand_id>  (38) 
38

>  <original_smiles>  (38) 
[H]C(Oc1c([H])c([H])c2c(c1[H])C([H])([H])N(C(=O)C([H])(N([H])C(=O)C([H])(N([H])C([H])([H])[H])C([H])([H])[H])C(C([H])([H])[H])(C([H])([H])[H])C([H])([H])[H])C([H])(C(=O)N([H])C1([H])c3c([H])c([H])c([H])c([H])c3C([H])([H])C([H])([H])C1([H])[H])C2([H])[H])=C([H])C(=O)N([H])c1c([H])c([H])c([H])c(C(=O)N([H])C(=O)N2C([H])([H])C([H])([H])C([H])([H])C([H])(n3nc(-c4c([H])c([H])c(Oc5c([H])c([H])c(F)c([H])c5F)c([H])c4[H])c(C(=O)N([H])[H])c3N([H])[H])C2([H])[H])c1[H]

>  <smiles>  (38) 
[H]C(Oc1c([H])c([H])c2c(c1[H])C([H])([H])N(C(=O)C([H])(N([H])C(=O)C([H])(N([H])C([H])([H])[H])C([H])([H])[H])C(C([H])([H])[H])(C([H])([H])[H])C([H])([H])[H])C([H])(C(=O)N([H])C1([H])c3c([H])c([H])c([H])c([H])c3C([H])([H])C([H])([H])C1([H])[H])C2([H])[H])=C([H])C(=O)N([H])c1c([H])c([H])c([H])c(C(=O)N([H])C(=O)N2C([H])([H])C([H])([H])C([H])([H])C([H])(n3nc(-c4c([H])c([H])c(Oc5c([H])c([H])c(F)c([H])c5F)c([H])c4[H])c(C(=O)N([H])[H])c3N([H])[H])C2([H])[H])c1[H]

$$$$
39:0:0
     RDKit          3D

 94103  0  0  1  0  0  0  0  0999 V2000
  -27.3980  -22.7620   20.3370 C   0  0  0  0  0  3  0  0  0  0  0  0
  -28.4970  -23.6520   20.5220 C   0  0  0  0  0  0  0  0  0  0  0  0
  -29.6030  -22.7880   20.3690 C   0  0  0  0  0  0  0  0  0  0  0  0
  -27.8370  -21.4620   20.2730 C   0  0  0  0  0  0  0  0  0  0  0  0
  -31.0340  -23.2310   20.2670 C   0  0  0  0  0  1  0  0  0  0  0  0
  -29.2240  -21.3790   20.3580 N   0  0  0  0  0  0  0  0  0  0  0  0
  -32.1270  -19.1140   21.4000 C   0  0  0  0  0  3  0  0  0  0  0  0
  -31.3130  -20.2260   21.1090 C   0  0  0  0  0  3  0  0  0  0  0  0
  -31.6990  -17.8010   21.1430 C   0  0  0  0  0  3  0  0  0  0  0  0
  -29.6290  -18.7130   20.2460 C   0  0  0  0  0  3  0  0  0  0  0  0
  -30.0340  -20.1080   20.5130 C   0  0  0  0  0  0  0  0  0  0  0  0
  -30.4400  -17.5280   20.5610 C   0  0  0  0  0  0  0  0  0  0  0  0
  -30.7930  -14.9190   20.2860 C   0  0  0  0  0  0  0  0  0  0  0  0
  -30.5810  -12.6200   19.2990 C   0  0  0  0  0  2  0  0  0  0  0  0
  -29.6210  -12.6580   18.0900 C   0  0  0  0  0  2  0  0  0  0  0  0
  -28.1590  -12.4870   18.5470 C   0  0  0  0  0  2  0  0  0  0  0  0
  -27.7980  -13.3770   19.7650 C   0  0  0  0  0  3  0  0  0  0  0  0
  -28.8850  -13.3250   20.8600 C   0  0  0  0  0  2  0  0  0  0  0  0
  -30.1560  -13.6960   20.2270 N   0  0  0  0  0  0  0  0  0  0  0  0
  -31.9910  -14.9750   19.9910 O   0  0  0  0  0  0  0  0  0  0  0  0
  -30.0340  -16.0900   20.4030 N   0  0  0  0  0  0  0  0  0  0  0  0
  -29.0400  -15.9250   20.3950 H   0  0  0  0  0  0  0  0  0  0  0  0
  -25.4280  -13.9360   20.5600 C   0  0  0  0  0  0  0  0  0  0  0  0
  -24.3750  -13.1460   20.9340 C   0  0  0  0  0  0  0  0  0  0  0  0
  -24.8460  -11.8000   20.8710 C   0  0  0  0  0  0  0  0  0  0  0  0
  -26.4710  -13.0680   20.2850 N   0  0  0  0  0  0  0  0  0  0  0  0
  -26.1310  -11.7780   20.5380 N   0  0  0  0  0  0  0  0  0  0  0  0
  -24.1270  -10.5310   21.0480 C   0  0  0  0  0  0  0  0  0  0  0  0
  -24.5560   -9.5600   21.9790 C   0  0  0  0  0  3  0  0  0  0  0  0
  -23.8340   -8.3590   22.1450 C   0  0  0  0  0  3  0  0  0  0  0  0
  -22.6690   -8.1190   21.3760 C   0  0  0  0  0  0  0  0  0  0  0  0
  -22.2600   -9.0780   20.4320 C   0  0  0  0  0  3  0  0  0  0  0  0
  -22.9840  -10.2710   20.2670 C   0  0  0  0  0  3  0  0  0  0  0  0
  -21.9190   -6.9720   21.4540 O   0  0  0  0  0  0  0  0  0  0  0  0
  -21.8290   -6.2450   22.6150 C   0  0  0  0  0  0  0  0  0  0  0  0
  -21.3050   -6.7990   23.8040 C   0  0  0  0  0  3  0  0  0  0  0  0
  -21.1690   -5.9960   24.9540 C   0  0  0  0  0  3  0  0  0  0  0  0
  -21.5480   -4.6400   24.9170 C   0  0  0  0  0  0  0  0  0  0  0  0
  -22.0630   -4.0860   23.7320 C   0  0  0  0  0  3  0  0  0  0  0  0
  -22.2010   -4.8860   22.5830 C   0  0  0  0  0  0  0  0  0  0  0  0
  -22.6790   -4.3390   21.4380 F   0  0  0  0  0  0  0  0  0  0  0  0
  -21.4090   -3.8660   26.0170 F   0  0  0  0  0  0  0  0  0  0  0  0
  -22.9800  -13.6110   21.2360 C   0  0  0  0  0  0  0  0  0  0  0  0
  -22.2690  -12.8930   22.1000 N   0  0  0  0  0  0  0  0  0  0  0  0
  -22.5280  -14.6430   20.7430 O   0  0  0  0  0  0  0  0  0  0  0  0
  -22.6470  -12.0540   22.5160 H   0  0  0  0  0  0  0  0  0  0  0  0
  -21.3360  -13.1880   22.3510 H   0  0  0  0  0  0  0  0  0  0  0  0
  -25.5750  -15.3110   20.4060 N   0  0  0  0  0  0  0  0  0  0  0  0
  -24.8040  -15.9530   20.5560 H   0  0  0  0  0  0  0  0  0  0  0  0
  -26.3990  -15.7690   20.0330 H   0  0  0  0  0  0  0  0  0  0  0  0
  -27.0700  -20.3380   20.2160 O   0  0  0  0  0  0  0  0  0  0  0  0
  -26.1580  -20.6070   20.2690 H   0  0  0  0  0  0  0  0  0  0  0  0
  -28.3210  -25.1790   21.0430 C   0  0  0  0  0  2  0  0  0  0  0  0
  -28.4200  -26.4570   20.2550 O   0  0  0  0  0  0  0  0  0  0  0  0
  -24.6130  -31.9540   23.2640 C   0  0  0  0  0  0  0  0  0  0  0  0
  -27.3230  -27.3540   20.2790 C   0  0  0  0  0  0  0  0  0  0  0  0
  -23.4580  -30.5340   21.6100 C   0  0  0  0  0  3  0  0  0  0  0  0
  -24.9550  -28.9780   20.2250 C   0  0  0  0  0  0  0  0  0  0  0  0
  -26.0020  -30.8630   21.4760 C   0  0  0  0  0  2  0  0  0  0  0  0
  -26.1130  -29.4750   20.8370 C   0  0  0  0  0  0  0  0  0  0  0  0
  -27.3050  -28.6780   20.8470 C   0  0  0  0  0  3  0  0  0  0  0  0
  -26.1370  -26.9180   19.6590 C   0  0  0  0  0  3  0  0  0  0  0  0
  -24.9690  -27.7070   19.6310 C   0  0  0  0  0  3  0  0  0  0  0  0
  -23.7100  -29.8450   20.2420 C   0  0  0  0  0  2  0  0  0  0  0  0
  -24.7090  -31.1380   22.1720 N   0  0  0  0  0  0  0  0  0  0  0  0
  -23.5170  -32.2280   23.7720 O   0  0  0  0  0  0  0  0  0  0  0  0
  -22.7820  -29.5200   22.5650 C   0  0  0  0  0  0  0  0  0  0  0  0
  -21.4580  -29.3440   22.4270 N   0  0  0  0  0  0  0  0  0  0  0  0
  -23.4520  -28.8930   23.3910 O   0  0  0  0  0  0  0  0  0  0  0  0
  -20.9770  -29.9000   21.7340 H   0  0  0  0  0  0  0  0  0  0  0  0
  -18.0710  -28.1660   22.9290 C   0  0  0  0  0  0  0  0  0  0  0  0
  -20.6330  -28.4080   23.1920 C   0  0  0  0  0  3  0  0  0  0  0  0
  -20.7210  -26.9830   22.6020 C   0  0  0  0  0  2  0  0  0  0  0  0
  -19.6140  -26.6760   21.5890 C   0  0  0  0  0  2  0  0  0  0  0  0
  -18.2350  -26.8250   22.2360 C   0  0  0  0  0  2  0  0  0  0  0  0
  -19.1970  -28.9190   23.3610 C   0  0  0  0  0  0  0  0  0  0  0  0
  -18.9840  -30.1750   23.9690 C   0  0  0  0  0  3  0  0  0  0  0  0
  -17.6830  -30.6810   24.1440 C   0  0  0  0  0  3  0  0  0  0  0  0
  -16.5740  -29.9280   23.7250 C   0  0  0  0  0  3  0  0  0  0  0  0
  -16.7680  -28.6710   23.1260 C   0  0  0  0  0  3  0  0  0  0  0  0
  -25.8740  -32.6060   23.9090 C   0  0  0  0  0  3  0  0  0  0  0  0
  -26.3660  -31.8600   25.2100 C   0  0  1  0  0  0  0  0  0  0  0  0
  -25.2450  -31.6240   26.2500 C   0  0  0  0  0  1  0  0  0  0  0  0
  -26.9770  -30.4840   24.8580 C   0  0  0  0  0  1  0  0  0  0  0  0
  -27.4900  -32.6790   25.8910 C   0  0  0  0  0  1  0  0  0  0  0  0
  -25.5490  -34.0080   24.2100 N   0  0  0  0  0  0  0  0  0  0  0  0
  -25.8940  -35.0520   23.4450 C   0  0  0  0  0  0  0  0  0  0  0  0
  -26.5880  -34.9390   22.4300 O   0  0  0  0  0  0  0  0  0  0  0  0
  -24.9360  -34.1720   24.9960 H   0  0  0  0  0  0  0  0  0  0  0  0
  -24.1770  -36.8420   23.0210 C   0  0  0  0  0  1  0  0  0  0  0  0
  -25.3920  -36.4470   23.8740 C   0  0  0  0  0  3  0  0  0  0  0  0
  -27.4910  -37.3450   24.7760 C   0  0  0  0  0  1  0  0  0  0  0  0
  -26.4260  -37.4990   23.7880 N   0  0  0  0  0  0  0  0  0  0  0  0
  -26.0130  -38.4180   23.9100 H   0  0  0  0  0  0  0  0  0  0  0  0
  1  2  1  0
  2 53  1  0
  3  2  2  0
  4  1  2  0
  4  6  1  0
  5  3  1  0
  6  3  1  0
  6 11  1  0
  8  7  2  0
  9  7  1  0
 10 11  2  0
 10 12  1  0
 11  8  1  0
 12  9  2  0
 13 21  1  0
 14 19  1  0
 15 16  1  0
 15 14  1  0
 17 16  1  0
 17 26  1  0
 17 18  1  0
 19 13  1  0
 19 18  1  0
 20 13  2  0
 21 12  1  0
 22 21  1  0
 23 24  2  0
 24 43  1  0
 25 24  1  0
 25 28  1  0
 26 27  1  0
 26 23  1  0
 27 25  2  0
 28 29  1  0
 29 30  2  0
 31 34  1  0
 31 30  1  0
 32 31  2  0
 33 32  1  0
 33 28  2  0
 34 35  1  0
 35 36  1  0
 36 37  2  0
 38 37  1  0
 38 42  1  0
 39 38  2  0
 40 35  2  0
 40 39  1  0
 41 40  1  0
 43 44  1  0
 44 47  1  0
 44 46  1  0
 45 43  2  0
 48 49  1  0
 48 23  1  0
 50 48  1  0
 51 52  1  0
 51  4  1  0
 54 56  1  0
 54 53  1  0
 55 66  2  0
 56 61  1  0
 57 65  1  0
 57 67  1  0
 58 64  1  0
 58 60  1  0
 59 65  1  0
 60 61  2  0
 60 59  1  0
 62 56  2  0
 63 62  1  0
 63 58  2  0
 64 57  1  0
 65 55  1  0
 67 69  2  0
 68 67  1  0
 70 68  1  0
 71 80  2  0
 71 76  1  0
 72 68  1  0
 72 76  1  0
 73 72  1  0
 74 75  1  0
 74 73  1  0
 75 71  1  0
 76 77  2  0
 77 78  1  0
 79 78  2  0
 80 79  1  0
 81 55  1  0
 81 86  1  0
 81 82  1  0
 82 85  1  1
 82 83  1  0
 84 82  1  0
 86 89  1  0
 87 91  1  0
 87 86  1  0
 88 87  2  0
 91 90  1  0
 93 91  1  0
 93 94  1  0
 93 92  1  0
M  ISO  4  13 100  21 100  53 101  54 101
M  END
>  <TORSDO>  (39) 
F 19

>  <SCORE>  (39) 
-14.482

>  <name>  (39) 
39

>  <ligand_id>  (39) 
39

>  <original_smiles>  (39) 
[H]Oc1c([H])c(C([H])([H])Oc2c([H])c([H])c3c(c2[H])C([H])([H])N(C(=O)C([H])(N([H])C(=O)C([H])(N([H])C([H])([H])[H])C([H])([H])[H])C(C([H])([H])[H])(C([H])([H])[H])C([H])([H])[H])C([H])(C(=O)N([H])C2([H])c4c([H])c([H])c([H])c([H])c4C([H])([H])C([H])([H])C2([H])[H])C3([H])[H])c(C([H])([H])[H])n1-c1c([H])c([H])c([H])c(N([H])C(=O)N2C([H])([H])C([H])([H])C([H])([H])C([H])(n3nc(-c4c([H])c([H])c(Oc5c([H])c([H])c(F)c([H])c5F)c([H])c4[H])c(C(=O)N([H])[H])c3N([H])[H])C2([H])[H])c1[H]

>  <smiles>  (39) 
[H]Oc1c([H])c(C([H])([H])Oc2c([H])c([H])c3c(c2[H])C([H])([H])N(C(=O)C([H])(N([H])C(=O)C([H])(N([H])C([H])([H])[H])C([H])([H])[H])C(C([H])([H])[H])(C([H])([H])[H])C([H])([H])[H])C([H])(C(=O)N([H])C2([H])c4c([H])c([H])c([H])c([H])c4C([H])([H])C([H])([H])C2([H])[H])C3([H])[H])c(C([H])([H])[H])n1-c1c([H])c([H])c([H])c(N([H])C(=O)N2C([H])([H])C([H])([H])C([H])([H])C([H])(n3nc(-c4c([H])c([H])c(Oc5c([H])c([H])c(F)c([H])c5F)c([H])c4[H])c(C(=O)N([H])[H])c3N([H])[H])C2([H])[H])c1[H]

$$$$
40:0:0
     RDKit          3D

 90 99  0  0  1  0  0  0  0  0999 V2000
  -30.6980  -14.8710   20.4580 C   0  0  0  0  0  0  0  0  0  0  0  0
  -30.3620  -12.5960   19.4530 C   0  0  0  0  0  2  0  0  0  0  0  0
  -29.4540  -12.5660   18.2120 C   0  0  0  0  0  2  0  0  0  0  0  0
  -27.9970  -12.3550   18.6490 C   0  0  0  0  0  2  0  0  0  0  0  0
  -27.5850  -13.3040   19.8020 C   0  0  0  0  0  3  0  0  0  0  0  0
  -28.6350  -13.3790   20.9340 C   0  0  0  0  0  2  0  0  0  0  0  0
  -29.9120  -13.7360   20.3050 N   0  0  0  0  0  0  0  0  0  0  0  0
  -31.9010  -14.7070   20.2500 O   0  0  0  0  0  0  0  0  0  0  0  0
  -31.3560  -19.8770   21.0210 C   0  0  0  0  0  3  0  0  0  0  0  0
  -30.5920  -21.0610   20.8220 C   0  0  0  0  0  3  0  0  0  0  0  0
  -28.6500  -19.6880   20.3050 C   0  0  0  0  0  3  0  0  0  0  0  0
  -29.4350  -18.4790   20.5160 C   0  0  0  0  0  0  0  0  0  0  0  0
  -30.7550  -18.6100   20.8570 C   0  0  0  0  0  0  0  0  0  0  0  0
  -29.2150  -21.0350   20.4520 C   0  0  0  0  0  0  0  0  0  0  0  0
  -29.1360  -16.9620   20.4050 C   0  0  0  0  0  0  0  0  0  0  0  0
  -31.3630  -17.2220   20.9640 C   0  0  0  0  0  2  0  0  0  0  0  0
  -30.2920  -16.2200   20.6330 N   0  0  0  0  0  0  0  0  0  0  0  0
  -28.0190  -16.5340   20.1110 O   0  0  0  0  0  0  0  0  0  0  0  0
  -25.2060  -13.8880   20.5320 C   0  0  0  0  0  0  0  0  0  0  0  0
  -24.1370  -13.1130   20.8860 C   0  0  0  0  0  0  0  0  0  0  0  0
  -24.6040  -11.7630   20.8650 C   0  0  0  0  0  0  0  0  0  0  0  0
  -26.2500  -13.0100   20.3030 N   0  0  0  0  0  0  0  0  0  0  0  0
  -25.8990  -11.7270   20.5760 N   0  0  0  0  0  0  0  0  0  0  0  0
  -23.8800  -10.5000   21.0490 C   0  0  0  0  0  0  0  0  0  0  0  0
  -24.3020   -9.5360   21.9910 C   0  0  0  0  0  3  0  0  0  0  0  0
  -23.5760   -8.3370   22.1620 C   0  0  0  0  0  3  0  0  0  0  0  0
  -22.4130   -8.0950   21.3920 C   0  0  0  0  0  0  0  0  0  0  0  0
  -22.0100   -9.0490   20.4400 C   0  0  0  0  0  3  0  0  0  0  0  0
  -22.7370  -10.2380   20.2670 C   0  0  0  0  0  3  0  0  0  0  0  0
  -21.6590   -6.9500   21.4730 O   0  0  0  0  0  0  0  0  0  0  0  0
  -21.5930   -6.2120   22.6270 C   0  0  0  0  0  0  0  0  0  0  0  0
  -21.1250   -6.7650   23.8390 C   0  0  0  0  0  3  0  0  0  0  0  0
  -21.0060   -5.9520   24.9840 C   0  0  0  0  0  3  0  0  0  0  0  0
  -21.3480   -4.5890   24.9190 C   0  0  0  0  0  0  0  0  0  0  0  0
  -21.8100   -4.0350   23.7120 C   0  0  0  0  0  3  0  0  0  0  0  0
  -21.9290   -4.8440   22.5690 C   0  0  0  0  0  0  0  0  0  0  0  0
  -22.3550   -4.3010   21.4030 F   0  0  0  0  0  0  0  0  0  0  0  0
  -21.2270   -3.8060   26.0180 F   0  0  0  0  0  0  0  0  0  0  0  0
  -22.7360  -13.5880   21.1340 C   0  0  0  0  0  0  0  0  0  0  0  0
  -21.9980  -12.8970   21.9940 N   0  0  0  0  0  0  0  0  0  0  0  0
  -22.3030  -14.6090   20.6000 O   0  0  0  0  0  0  0  0  0  0  0  0
  -22.3600  -12.0710   22.4470 H   0  0  0  0  0  0  0  0  0  0  0  0
  -21.0580  -13.1980   22.2060 H   0  0  0  0  0  0  0  0  0  0  0  0
  -25.3750  -15.2580   20.3610 N   0  0  0  0  0  0  0  0  0  0  0  0
  -24.6320  -15.9310   20.5130 H   0  0  0  0  0  0  0  0  0  0  0  0
  -26.2730  -15.6970   20.1500 H   0  0  0  0  0  0  0  0  0  0  0  0
  -28.7980  -23.5480   20.3860 C   0  0  0  0  0  3  0  0  0  0  0  0
  -28.4550  -22.2710   20.2050 N   0  0  0  0  0  0  0  0  0  0  0  0
  -27.8880  -24.8380   20.0030 C   0  0  0  0  0  2  0  0  0  0  0  0
  -28.2350  -26.2970   20.3000 O   0  0  0  0  0  0  0  0  0  0  0  0
  -24.6300  -31.9230   23.2810 C   0  0  0  0  0  0  0  0  0  0  0  0
  -27.1860  -27.2650   20.2210 C   0  0  0  0  0  0  0  0  0  0  0  0
  -23.4200  -30.5340   21.6450 C   0  0  0  0  0  3  0  0  0  0  0  0
  -24.8590  -28.9770   20.2070 C   0  0  0  0  0  0  0  0  0  0  0  0
  -25.9710  -30.8090   21.4690 C   0  0  0  0  0  2  0  0  0  0  0  0
  -26.0390  -29.4260   20.8130 C   0  0  0  0  0  0  0  0  0  0  0  0
  -27.2060  -28.5840   20.8100 C   0  0  0  0  0  3  0  0  0  0  0  0
  -25.9830  -26.9150   19.5640 C   0  0  0  0  0  3  0  0  0  0  0  0
  -24.8390  -27.7310   19.5700 C   0  0  0  0  0  3  0  0  0  0  0  0
  -23.6310  -29.8650   20.2630 C   0  0  0  0  0  2  0  0  0  0  0  0
  -24.6940  -31.1080   22.1870 N   0  0  0  0  0  0  0  0  0  0  0  0
  -23.5470  -32.2090   23.8130 O   0  0  0  0  0  0  0  0  0  0  0  0
  -22.7490  -29.5190   22.6030 C   0  0  0  0  0  0  0  0  0  0  0  0
  -21.4220  -29.3470   22.4740 N   0  0  0  0  0  0  0  0  0  0  0  0
  -23.4220  -28.8910   23.4240 O   0  0  0  0  0  0  0  0  0  0  0  0
  -20.9370  -29.9080   21.7890 H   0  0  0  0  0  0  0  0  0  0  0  0
  -18.0380  -28.1520   22.9690 C   0  0  0  0  0  0  0  0  0  0  0  0
  -20.5970  -28.4110   23.2430 C   0  0  0  0  0  3  0  0  0  0  0  0
  -20.6980  -26.9770   22.6710 C   0  0  0  0  0  2  0  0  0  0  0  0
  -19.5990  -26.6520   21.6560 C   0  0  0  0  0  2  0  0  0  0  0  0
  -18.2140  -26.8020   22.2950 C   0  0  0  0  0  2  0  0  0  0  0  0
  -19.1570  -28.9140   23.3980 C   0  0  0  0  0  0  0  0  0  0  0  0
  -18.9370  -30.1780   23.9890 C   0  0  0  0  0  3  0  0  0  0  0  0
  -17.6330  -30.6800   24.1540 C   0  0  0  0  0  3  0  0  0  0  0  0
  -16.5290  -29.9140   23.7400 C   0  0  0  0  0  3  0  0  0  0  0  0
  -16.7320  -28.6520   23.1530 C   0  0  0  0  0  3  0  0  0  0  0  0
  -25.9130  -32.5530   23.9030 C   0  0  0  0  0  3  0  0  0  0  0  0
  -25.6110  -33.9540   24.2280 N   0  0  0  0  0  0  0  0  0  0  0  0
  -25.9290  -35.0030   23.4590 C   0  0  0  0  0  0  0  0  0  0  0  0
  -26.5800  -34.8930   22.4150 O   0  0  0  0  0  0  0  0  0  0  0  0
  -25.0360  -34.1150   25.0420 H   0  0  0  0  0  0  0  0  0  0  0  0
  -24.1910  -36.7950   23.1350 C   0  0  0  0  0  1  0  0  0  0  0  0
  -25.4530  -36.3950   23.9180 C   0  0  0  0  0  3  0  0  0  0  0  0
  -27.6060  -37.2880   24.6890 C   0  0  0  0  0  1  0  0  0  0  0  0
  -26.4810  -37.4490   23.7730 N   0  0  0  0  0  0  0  0  0  0  0  0
  -26.0780  -38.3690   23.9260 H   0  0  0  0  0  0  0  0  0  0  0  0
  -26.4190  -31.7880   25.1880 C   0  0  1  0  0  0  0  0  0  0  0  0
  -25.3200  -31.5640   26.2520 C   0  0  0  0  0  1  0  0  0  0  0  0
  -26.9980  -30.4040   24.8100 C   0  0  0  0  0  1  0  0  0  0  0  0
  -27.5700  -32.5810   25.8500 C   0  0  0  0  0  1  0  0  0  0  0  0
  1 17  1  0
  2  7  1  0
  3  4  1  0
  3  2  1  0
  5  4  1  0
  5 22  1  0
  5  6  1  0
  7  1  1  0
  7  6  1  0
  8  1  2  0
 10  9  2  0
 11 14  2  0
 11 12  1  0
 12 13  2  0
 13 16  1  0
 13  9  1  0
 14 10  1  0
 15 12  1  0
 15 17  1  0
 17 16  1  0
 18 15  2  0
 19 20  2  0
 20 39  1  0
 21 20  1  0
 21 24  1  0
 22 19  1  0
 22 23  1  0
 23 21  2  0
 24 25  1  0
 25 26  2  0
 27 30  1  0
 27 26  1  0
 28 27  2  0
 29 28  1  0
 29 24  2  0
 30 31  1  0
 31 32  1  0
 32 33  2  0
 34 33  1  0
 34 38  1  0
 35 34  2  0
 36 31  2  0
 36 35  1  0
 37 36  1  0
 39 40  1  0
 40 43  1  0
 40 42  1  0
 41 39  2  0
 44 45  1  0
 44 19  1  0
 46 44  1  0
 48 47  2  0
 48 14  1  0
 49 50  1  0
 49 47  1  0
 51 62  2  0
 52 50  1  0
 52 57  1  0
 53 61  1  0
 53 63  1  0
 54 60  1  0
 54 56  1  0
 55 61  1  0
 56 55  1  0
 57 56  2  0
 58 59  1  0
 58 52  2  0
 59 54  2  0
 60 53  1  0
 61 51  1  0
 63 65  2  0
 64 63  1  0
 66 64  1  0
 67 76  2  0
 67 72  1  0
 68 64  1  0
 68 72  1  0
 69 68  1  0
 70 71  1  0
 70 69  1  0
 71 67  1  0
 72 73  2  0
 73 74  1  0
 75 74  2  0
 76 75  1  0
 77 51  1  0
 77 78  1  0
 77 87  1  0
 78 81  1  0
 79 83  1  0
 79 78  1  0
 80 79  2  0
 83 82  1  0
 85 83  1  0
 85 86  1  0
 85 84  1  0
 87 90  1  1
 87 88  1  0
 89 87  1  0
M  ISO  4   1 100  17 100  49 101  50 101
M  END
>  <TORSDO>  (40) 
F 17

>  <SCORE>  (40) 
-15.441

>  <name>  (40) 
40

>  <ligand_id>  (40) 
40

>  <original_smiles>  (40) 
[H]C(=Nc1c([H])c([H])c2c(c1[H])C(=O)N(C(=O)N1C([H])([H])C([H])([H])C([H])([H])C([H])(n3nc(-c4c([H])c([H])c(Oc5c([H])c([H])c(F)c([H])c5F)c([H])c4[H])c(C(=O)N([H])[H])c3N([H])[H])C1([H])[H])C2([H])[H])C([H])([H])Oc1c([H])c([H])c2c(c1[H])C([H])([H])N(C(=O)C([H])(N([H])C(=O)C([H])(N([H])C([H])([H])[H])C([H])([H])[H])C(C([H])([H])[H])(C([H])([H])[H])C([H])([H])[H])C([H])(C(=O)N([H])C1([H])c3c([H])c([H])c([H])c([H])c3C([H])([H])C([H])([H])C1([H])[H])C2([H])[H]

>  <smiles>  (40) 
[H]C(=Nc1c([H])c([H])c2c(c1[H])C(=O)N(C(=O)N1C([H])([H])C([H])([H])C([H])([H])C([H])(n3nc(-c4c([H])c([H])c(Oc5c([H])c([H])c(F)c([H])c5F)c([H])c4[H])c(C(=O)N([H])[H])c3N([H])[H])C1([H])[H])C2([H])[H])C([H])([H])Oc1c([H])c([H])c2c(c1[H])C([H])([H])N(C(=O)C([H])(N([H])C(=O)C([H])(N([H])C([H])([H])[H])C([H])([H])[H])C(C([H])([H])[H])(C([H])([H])[H])C([H])([H])[H])C([H])(C(=O)N([H])C1([H])c3c([H])c([H])c([H])c([H])c3C([H])([H])C([H])([H])C1([H])[H])C2([H])[H]

$$$$
41:0:0
     RDKit          3D

103113  0  0  1  0  0  0  0  0999 V2000
  -35.1810  -23.4810   19.6140 C   0  0  0  0  0  3  0  0  0  0  0  0
  -34.5180  -24.6940   19.9010 C   0  0  0  0  0  3  0  0  0  0  0  0
  -34.4450  -22.3090   19.3680 C   0  0  0  0  0  3  0  0  0  0  0  0
  -32.3860  -23.5940   19.6670 C   0  0  0  0  0  3  0  0  0  0  0  0
  -33.1050  -24.7970   19.9170 C   0  0  0  0  0  0  0  0  0  0  0  0
  -33.0390  -22.3580   19.4280 C   0  0  0  0  0  0  0  0  0  0  0  0
  -31.5800  -20.4590   20.1210 C   0  0  0  0  0  0  0  0  0  0  0  0
  -31.5370  -20.9140   21.3770 N   0  0  0  0  0  4  0  0  0  0  0  0
  -32.2970  -21.1330   19.1890 N   0  0  0  0  0  0  0  0  0  0  0  0
  -30.8640  -20.5400   22.0260 H   0  0  0  0  0  0  0  0  0  0  0  0
  -32.1670  -21.6360   21.6890 H   0  0  0  0  0  0  0  0  0  0  0  0
  -32.5160  -20.5550   18.3830 H   0  0  0  0  0  0  0  0  0  0  0  0
  -29.3850  -18.1020   18.1380 C   0  0  0  0  0  3  0  0  0  0  0  0
  -30.1660  -19.2140   18.5040 C   0  0  0  0  0  3  0  0  0  0  0  0
  -29.2820  -16.9950   18.9960 C   0  0  0  0  0  3  0  0  0  0  0  0
  -30.7480  -18.1030   20.6080 C   0  0  0  0  0  3  0  0  0  0  0  0
  -30.8370  -19.2380   19.7510 C   0  0  0  0  0  0  0  0  0  0  0  0
  -29.9730  -16.9740   20.2230 C   0  0  0  0  0  0  0  0  0  0  0  0
  -30.6420  -14.7320   20.7040 C   0  0  0  0  0  0  0  0  0  0  0  0
  -30.4300  -12.5450   19.6140 C   0  0  0  0  0  2  0  0  0  0  0  0
  -29.5200  -12.6740   18.3750 C   0  0  0  0  0  2  0  0  0  0  0  0
  -28.0330  -12.5400   18.7470 C   0  0  0  0  0  2  0  0  0  0  0  0
  -27.6260  -13.3770   19.9920 C   0  0  0  0  0  3  0  0  0  0  0  0
  -28.6540  -13.2320   21.1370 C   0  0  0  0  0  2  0  0  0  0  0  0
  -29.9910  -13.5440   20.5990 N   0  0  0  0  0  0  0  0  0  0  0  0
  -31.8080  -14.8970   20.3400 O   0  0  0  0  0  0  0  0  0  0  0  0
  -29.8810  -15.7940   21.0100 N   0  0  0  0  0  0  0  0  0  0  0  0
  -28.9460  -15.5320   21.2870 H   0  0  0  0  0  0  0  0  0  0  0  0
  -25.1850  -13.9150   20.6160 C   0  0  0  0  0  0  0  0  0  0  0  0
  -24.1300  -13.1100   20.9610 C   0  0  0  0  0  0  0  0  0  0  0  0
  -24.6350  -11.7750   20.9550 C   0  0  0  0  0  0  0  0  0  0  0  0
  -26.2650  -13.0670   20.4290 N   0  0  0  0  0  0  0  0  0  0  0  0
  -25.9350  -11.7750   20.6880 N   0  0  0  0  0  0  0  0  0  0  0  0
  -23.9440  -10.4900   21.1340 C   0  0  0  0  0  0  0  0  0  0  0  0
  -24.3810   -9.5470   22.0880 C   0  0  0  0  0  3  0  0  0  0  0  0
  -23.6890   -8.3280   22.2560 C   0  0  0  0  0  3  0  0  0  0  0  0
  -22.5490   -8.0440   21.4680 C   0  0  0  0  0  0  0  0  0  0  0  0
  -22.1360   -8.9790   20.5040 C   0  0  0  0  0  3  0  0  0  0  0  0
  -22.8270  -10.1890   20.3340 C   0  0  0  0  0  3  0  0  0  0  0  0
  -21.8310   -6.8760   21.5410 O   0  0  0  0  0  0  0  0  0  0  0  0
  -21.7640   -6.1420   22.6980 C   0  0  0  0  0  0  0  0  0  0  0  0
  -21.2640   -6.6890   23.9010 C   0  0  0  0  0  3  0  0  0  0  0  0
  -21.1440   -5.8810   25.0480 C   0  0  0  0  0  3  0  0  0  0  0  0
  -21.5190   -4.5250   24.9970 C   0  0  0  0  0  0  0  0  0  0  0  0
  -22.0130   -3.9770   23.8000 C   0  0  0  0  0  3  0  0  0  0  0  0
  -22.1300   -4.7810   22.6540 C   0  0  0  0  0  0  0  0  0  0  0  0
  -22.5840   -4.2400   21.4970 F   0  0  0  0  0  0  0  0  0  0  0  0
  -21.4010   -3.7460   26.0970 F   0  0  0  0  0  0  0  0  0  0  0  0
  -22.7090  -13.5430   21.1810 C   0  0  0  0  0  0  0  0  0  0  0  0
  -21.9750  -12.8270   22.0260 N   0  0  0  0  0  0  0  0  0  0  0  0
  -22.2530  -14.5460   20.6380 O   0  0  0  0  0  0  0  0  0  0  0  0
  -22.3560  -12.0190   22.4970 H   0  0  0  0  0  0  0  0  0  0  0  0
  -21.0150  -13.0880   22.2020 H   0  0  0  0  0  0  0  0  0  0  0  0
  -25.3060  -15.2900   20.4240 N   0  0  0  0  0  0  0  0  0  0  0  0
  -24.5020  -15.9060   20.4880 H   0  0  0  0  0  0  0  0  0  0  0  0
  -26.1310  -15.7620   20.0730 H   0  0  0  0  0  0  0  0  0  0  0  0
  -30.5870  -26.5980   20.6220 C   0  0  0  0  0  0  0  0  0  0  0  0
  -31.4090  -26.6590   19.4480 C   0  0  0  0  0  0  0  0  0  0  0  0
  -29.2750  -26.8270   20.8010 C   0  0  0  0  0  3  0  0  0  0  0  0
  -31.7550  -26.1510   21.4550 C   0  0  0  0  0  2  0  0  0  0  0  0
  -32.4590  -26.0530   20.1540 N   0  0  0  0  0  0  0  0  0  0  0  0
  -31.2220  -27.1500   18.3550 O   0  0  0  0  0  0  0  0  0  0  0  0
  -28.4680  -27.0850   19.7370 O   0  0  0  0  0  0  0  0  0  0  0  0
  -24.5050  -31.9900   23.1180 C   0  0  0  0  0  0  0  0  0  0  0  0
  -27.2730  -27.7210   19.9290 C   0  0  0  0  0  0  0  0  0  0  0  0
  -23.3400  -30.5820   21.4520 C   0  0  0  0  0  3  0  0  0  0  0  0
  -24.8340  -29.1160   20.0010 C   0  0  0  0  0  0  0  0  0  0  0  0
  -25.8390  -31.0380   21.2390 C   0  0  0  0  0  2  0  0  0  0  0  0
  -25.9690  -29.6680   20.6080 C   0  0  0  0  0  0  0  0  0  0  0  0
  -27.1950  -28.9680   20.5850 C   0  0  0  0  0  3  0  0  0  0  0  0
  -26.1200  -27.1610   19.3370 C   0  0  0  0  0  3  0  0  0  0  0  0
  -24.9010  -27.8660   19.3590 C   0  0  0  0  0  3  0  0  0  0  0  0
  -23.5670  -29.9330   20.0590 C   0  0  0  0  0  2  0  0  0  0  0  0
  -24.5810  -31.2180   21.9990 N   0  0  0  0  0  0  0  0  0  0  0  0
  -23.4180  -32.2150   23.6650 O   0  0  0  0  0  0  0  0  0  0  0  0
  -22.7190  -29.5240   22.3950 C   0  0  0  0  0  0  0  0  0  0  0  0
  -21.3960  -29.3220   22.2800 N   0  0  0  0  0  0  0  0  0  0  0  0
  -23.4280  -28.8890   23.1820 O   0  0  0  0  0  0  0  0  0  0  0  0
  -20.8990  -29.8930   21.6090 H   0  0  0  0  0  0  0  0  0  0  0  0
  -18.0360  -28.0840   22.7770 C   0  0  0  0  0  0  0  0  0  0  0  0
  -20.5960  -28.3530   23.0260 C   0  0  0  0  0  3  0  0  0  0  0  0
  -20.7030  -26.9460   22.3960 C   0  0  0  0  0  2  0  0  0  0  0  0
  -19.5870  -26.6490   21.3880 C   0  0  0  0  0  2  0  0  0  0  0  0
  -18.2130  -26.7580   22.0590 C   0  0  0  0  0  2  0  0  0  0  0  0
  -19.1560  -28.8400   23.2180 C   0  0  0  0  0  0  0  0  0  0  0  0
  -18.9340  -30.0810   23.8540 C   0  0  0  0  0  3  0  0  0  0  0  0
  -17.6270  -30.5650   24.0530 C   0  0  0  0  0  3  0  0  0  0  0  0
  -16.5220  -29.8080   23.6210 C   0  0  0  0  0  3  0  0  0  0  0  0
  -16.7300  -28.5680   22.9890 C   0  0  0  0  0  3  0  0  0  0  0  0
  -25.7720  -32.6430   23.7560 C   0  0  0  0  0  3  0  0  0  0  0  0
  -25.4190  -34.0200   24.1290 N   0  0  0  0  0  0  0  0  0  0  0  0
  -25.7420  -35.1040   23.4090 C   0  0  0  0  0  0  0  0  0  0  0  0
  -26.4340  -35.0480   22.3880 O   0  0  0  0  0  0  0  0  0  0  0  0
  -24.8070  -34.1370   24.9230 H   0  0  0  0  0  0  0  0  0  0  0  0
  -23.9980  -36.8800   23.0550 C   0  0  0  0  0  1  0  0  0  0  0  0
  -25.2130  -36.4640   23.9000 C   0  0  0  0  0  3  0  0  0  0  0  0
  -27.3010  -37.3430   24.8460 C   0  0  0  0  0  1  0  0  0  0  0  0
  -26.2320  -37.5370   23.8700 N   0  0  0  0  0  0  0  0  0  0  0  0
  -25.8050  -38.4450   24.0400 H   0  0  0  0  0  0  0  0  0  0  0  0
  -26.3180  -31.8470   25.0010 C   0  0  1  0  0  0  0  0  0  0  0  0
  -25.2420  -31.5430   26.0730 C   0  0  0  0  0  1  0  0  0  0  0  0
  -26.9320  -30.5050   24.5400 C   0  0  0  0  0  1  0  0  0  0  0  0
  -27.4440  -32.6560   25.6830 C   0  0  0  0  0  1  0  0  0  0  0  0
  1  2  1  0
  2  5  2  0
  3  6  1  0
  3  1  2  0
  4  5  1  0
  5 61  1  0
  6  4  2  0
  7  8  2  0
  8 11  1  0
  8 10  1  0
  9  6  1  0
  9  7  1  0
 12  9  1  0
 13 14  2  0
 13 15  1  0
 14 17  1  0
 15 18  2  0
 17  7  1  0
 17 16  2  0
 18 16  1  0
 18 27  1  0
 19 27  1  0
 20 25  1  0
 21 22  1  0
 21 20  1  0
 23 22  1  0
 23 32  1  0
 23 24  1  0
 25 19  1  0
 25 24  1  0
 26 19  2  0
 27 28  1  0
 29 30  2  0
 30 49  1  0
 31 30  1  0
 31 34  1  0
 32 29  1  0
 32 33  1  0
 33 31  2  0
 34 35  1  0
 35 36  2  0
 37 40  1  0
 37 36  1  0
 38 37  2  0
 39 38  1  0
 39 34  2  0
 40 41  1  0
 41 42  1  0
 42 43  2  0
 44 43  1  0
 44 48  1  0
 45 44  2  0
 46 41  2  0
 46 45  1  0
 47 46  1  0
 49 50  1  0
 50 53  1  0
 50 52  1  0
 51 49  2  0
 54 55  1  0
 54 29  1  0
 56 54  1  0
 57 59  2  0
 57 60  1  0
 58 61  1  0
 58 57  1  0
 61 60  1  0
 62 58  2  0
 63 65  1  0
 63 59  1  0
 64 75  2  0
 65 70  1  0
 66 74  1  0
 66 76  1  0
 67 73  1  0
 67 69  1  0
 68 74  1  0
 69 68  1  0
 70 69  2  0
 71 72  1  0
 71 65  2  0
 72 67  2  0
 73 66  1  0
 74 64  1  0
 76 78  2  0
 77 76  1  0
 79 77  1  0
 80 89  2  0
 80 85  1  0
 81 77  1  0
 81 85  1  0
 82 81  1  0
 83 84  1  0
 83 82  1  0
 84 80  1  0
 85 86  2  0
 86 87  1  0
 88 87  2  0
 89 88  1  0
 90 64  1  0
 90 91  1  0
 90100  1  0
 91 94  1  0
 92 96  1  0
 92 91  1  0
 93 92  2  0
 96 95  1  0
 98 96  1  0
 98 99  1  0
 98 97  1  0
100103  1  1
100101  1  0
102100  1  0
M  ISO  4  19 100  27 100  59 101  63 101
M  END
>  <TORSDO>  (41) 
F 19

>  <SCORE>  (41) 
-14.225

>  <name>  (41) 
41

>  <ligand_id>  (41) 
41

>  <original_smiles>  (41) 
[H]C(Oc1c([H])c([H])c2c(c1[H])C([H])([H])N(C(=O)C([H])(N([H])C(=O)C([H])(N([H])C([H])([H])[H])C([H])([H])[H])C(C([H])([H])[H])(C([H])([H])[H])C([H])([H])[H])C([H])(C(=O)N([H])C1([H])c3c([H])c([H])c([H])c([H])c3C([H])([H])C([H])([H])C1([H])[H])C2([H])[H])=C1C(=O)N(c2c([H])c([H])c([H])c([N+]([H])=C(c3c([H])c([H])c([H])c(N([H])C(=O)N4C([H])([H])C([H])([H])C([H])([H])C([H])(n5nc(-c6c([H])c([H])c(Oc7c([H])c([H])c(F)c([H])c7F)c([H])c6[H])c(C(=O)N([H])[H])c5N([H])[H])C4([H])[H])c3[H])N([H])[H])c2[H])C1([H])[H]

>  <smiles>  (41) 
[H]C(Oc1c([H])c([H])c2c(c1[H])C([H])([H])N(C(=O)C([H])(N([H])C(=O)C([H])(N([H])C([H])([H])[H])C([H])([H])[H])C(C([H])([H])[H])(C([H])([H])[H])C([H])([H])[H])C([H])(C(=O)N([H])C1([H])c3c([H])c([H])c([H])c([H])c3C([H])([H])C([H])([H])C1([H])[H])C2([H])[H])=C1C(=O)N(c2c([H])c([H])c([H])c([N+]([H])=C(c3c([H])c([H])c([H])c(N([H])C(=O)N4C([H])([H])C([H])([H])C([H])([H])C([H])(n5nc(-c6c([H])c([H])c(Oc7c([H])c([H])c(F)c([H])c7F)c([H])c6[H])c(C(=O)N([H])[H])c5N([H])[H])C4([H])[H])c3[H])N([H])[H])c2[H])C1([H])[H]

$$$$
42:0:0
     RDKit          3D

 93102  0  0  1  0  0  0  0  0999 V2000
  -28.9260  -23.9930   20.1190 C   0  0  0  0  0  0  0  0  0  0  0  0
  -30.0830  -23.9130   19.2510 C   0  0  0  0  0  0  0  0  0  0  0  0
  -28.6460  -22.6030   20.5630 C   0  0  0  0  0  0  0  0  0  0  0  0
  -28.1990  -25.1210   20.4710 C   0  0  0  0  0  3  0  0  0  0  0  0
  -30.5070  -22.4470   19.1570 C   0  0  0  0  0  2  0  0  0  0  0  0
  -29.5460  -21.7090   20.0010 N   0  0  0  0  0  0  0  0  0  0  0  0
  -30.6600  -24.8370   18.6660 O   0  0  0  0  0  0  0  0  0  0  0  0
  -27.7340  -22.2870   21.3370 O   0  0  0  0  0  0  0  0  0  0  0  0
  -28.7020  -19.4190   20.8410 C   0  0  0  0  0  3  0  0  0  0  0  0
  -30.6760  -19.4550   19.4970 C   0  0  0  0  0  3  0  0  0  0  0  0
  -28.7900  -17.9940   20.9170 C   0  0  0  0  0  3  0  0  0  0  0  0
  -30.7720  -18.0240   19.5790 C   0  0  0  0  0  3  0  0  0  0  0  0
  -29.6350  -20.2180   20.1220 C   0  0  0  0  0  0  0  0  0  0  0  0
  -29.8260  -17.2410   20.2970 C   0  0  0  0  0  0  0  0  0  0  0  0
  -30.6080  -14.7350   19.9970 C   0  0  0  0  0  0  0  0  0  0  0  0
  -30.3890  -12.4950   18.9270 C   0  0  0  0  0  2  0  0  0  0  0  0
  -29.3650  -12.6090   17.7750 C   0  0  0  0  0  2  0  0  0  0  0  0
  -27.9240  -12.4320   18.2940 C   0  0  0  0  0  2  0  0  0  0  0  0
  -27.6320  -13.2800   19.5600 C   0  0  0  0  0  3  0  0  0  0  0  0
  -28.7580  -13.1150   20.6050 C   0  0  0  0  0  2  0  0  0  0  0  0
  -30.0230  -13.4930   19.9540 N   0  0  0  0  0  0  0  0  0  0  0  0
  -31.7490  -14.9130   19.5620 O   0  0  0  0  0  0  0  0  0  0  0  0
  -29.7870  -15.7690   20.3970 N   0  0  0  0  0  0  0  0  0  0  0  0
  -28.9180  -15.4170   20.7710 H   0  0  0  0  0  0  0  0  0  0  0  0
  -25.2890  -13.8600   20.4410 C   0  0  0  0  0  0  0  0  0  0  0  0
  -24.2470  -13.0770   20.8620 C   0  0  0  0  0  0  0  0  0  0  0  0
  -24.7010  -11.7270   20.7570 C   0  0  0  0  0  0  0  0  0  0  0  0
  -26.3150  -12.9850   20.1190 N   0  0  0  0  0  0  0  0  0  0  0  0
  -25.9700  -11.6950   20.3670 N   0  0  0  0  0  0  0  0  0  0  0  0
  -23.9830  -10.4610   20.9440 C   0  0  0  0  0  0  0  0  0  0  0  0
  -24.4200   -9.4940   21.8760 C   0  0  0  0  0  3  0  0  0  0  0  0
  -23.7000   -8.2920   22.0520 C   0  0  0  0  0  3  0  0  0  0  0  0
  -22.5300   -8.0500   21.2960 C   0  0  0  0  0  0  0  0  0  0  0  0
  -22.1110   -9.0050   20.3530 C   0  0  0  0  0  3  0  0  0  0  0  0
  -22.8310  -10.1970   20.1750 C   0  0  0  0  0  3  0  0  0  0  0  0
  -21.7820   -6.9000   21.3830 O   0  0  0  0  0  0  0  0  0  0  0  0
  -21.6700   -6.2000   22.5580 C   0  0  0  0  0  0  0  0  0  0  0  0
  -21.1480   -6.7900   23.7300 C   0  0  0  0  0  3  0  0  0  0  0  0
  -20.9850   -6.0160   24.8970 C   0  0  0  0  0  3  0  0  0  0  0  0
  -21.3360   -4.6530   24.8910 C   0  0  0  0  0  0  0  0  0  0  0  0
  -21.8520   -4.0620   23.7250 C   0  0  0  0  0  3  0  0  0  0  0  0
  -22.0160   -4.8330   22.5600 C   0  0  0  0  0  0  0  0  0  0  0  0
  -22.4930   -4.2550   21.4330 F   0  0  0  0  0  0  0  0  0  0  0  0
  -21.1740   -3.9080   26.0090 F   0  0  0  0  0  0  0  0  0  0  0  0
  -22.8710  -13.5490   21.2350 C   0  0  0  0  0  0  0  0  0  0  0  0
  -22.1940  -12.8270   22.1200 N   0  0  0  0  0  0  0  0  0  0  0  0
  -22.4070  -14.5920   20.7730 O   0  0  0  0  0  0  0  0  0  0  0  0
  -22.5830  -11.9840   22.5140 H   0  0  0  0  0  0  0  0  0  0  0  0
  -21.2740  -13.1240   22.4120 H   0  0  0  0  0  0  0  0  0  0  0  0
  -25.4370  -15.2330   20.2720 N   0  0  0  0  0  0  0  0  0  0  0  0
  -24.6190  -15.8320   20.3330 H   0  0  0  0  0  0  0  0  0  0  0  0
  -26.1590  -15.6220   19.6770 H   0  0  0  0  0  0  0  0  0  0  0  0
  -28.3820  -26.4830   20.1220 O   0  0  0  0  0  0  0  0  0  0  0  0
  -24.6020  -31.8660   23.2010 C   0  0  0  0  0  0  0  0  0  0  0  0
  -27.2610  -27.3370   20.1270 C   0  0  0  0  0  0  0  0  0  0  0  0
  -23.4100  -30.4670   21.5520 C   0  0  0  0  0  3  0  0  0  0  0  0
  -24.8740  -28.9230   20.1310 C   0  0  0  0  0  0  0  0  0  0  0  0
  -25.9480  -30.8040   21.3700 C   0  0  0  0  0  2  0  0  0  0  0  0
  -26.0420  -29.4250   20.7200 C   0  0  0  0  0  0  0  0  0  0  0  0
  -27.2410  -28.6460   20.7050 C   0  0  0  0  0  3  0  0  0  0  0  0
  -26.0650  -26.8820   19.5260 C   0  0  0  0  0  3  0  0  0  0  0  0
  -24.8860  -27.6550   19.5300 C   0  0  0  0  0  3  0  0  0  0  0  0
  -23.6300  -29.7900   20.1740 C   0  0  0  0  0  2  0  0  0  0  0  0
  -24.6720  -31.0610   22.0990 N   0  0  0  0  0  0  0  0  0  0  0  0
  -23.5160  -32.1330   23.7360 O   0  0  0  0  0  0  0  0  0  0  0  0
  -22.7490  -29.4460   22.5100 C   0  0  0  0  0  0  0  0  0  0  0  0
  -21.4230  -29.2700   22.3870 N   0  0  0  0  0  0  0  0  0  0  0  0
  -23.4300  -28.8130   23.3200 O   0  0  0  0  0  0  0  0  0  0  0  0
  -20.9310  -29.8320   21.7040 H   0  0  0  0  0  0  0  0  0  0  0  0
  -18.0410  -28.0990   22.9170 C   0  0  0  0  0  0  0  0  0  0  0  0
  -20.6060  -28.3300   23.1560 C   0  0  0  0  0  3  0  0  0  0  0  0
  -20.6860  -26.9070   22.5570 C   0  0  0  0  0  2  0  0  0  0  0  0
  -19.5660  -26.6100   21.5520 C   0  0  0  0  0  2  0  0  0  0  0  0
  -18.1960  -26.7590   22.2170 C   0  0  0  0  0  2  0  0  0  0  0  0
  -19.1730  -28.8430   23.3430 C   0  0  0  0  0  0  0  0  0  0  0  0
  -18.9760  -30.0990   23.9580 C   0  0  0  0  0  3  0  0  0  0  0  0
  -17.6780  -30.6100   24.1520 C   0  0  0  0  0  3  0  0  0  0  0  0
  -16.5600  -29.8630   23.7430 C   0  0  0  0  0  3  0  0  0  0  0  0
  -16.7430  -28.6100   23.1300 C   0  0  0  0  0  3  0  0  0  0  0  0
  -25.8780  -32.5080   23.8260 C   0  0  0  0  0  3  0  0  0  0  0  0
  -25.5540  -33.9010   24.1650 N   0  0  0  0  0  0  0  0  0  0  0  0
  -25.8690  -34.9610   23.4110 C   0  0  0  0  0  0  0  0  0  0  0  0
  -26.5320  -34.8710   22.3740 O   0  0  0  0  0  0  0  0  0  0  0  0
  -24.9540  -34.0400   24.9640 H   0  0  0  0  0  0  0  0  0  0  0  0
  -24.1230  -36.7430   23.0900 C   0  0  0  0  0  1  0  0  0  0  0  0
  -25.3780  -36.3440   23.8820 C   0  0  0  0  0  3  0  0  0  0  0  0
  -27.5000  -37.2600   24.7060 C   0  0  0  0  0  1  0  0  0  0  0  0
  -26.4040  -37.4000   23.7520 N   0  0  0  0  0  0  0  0  0  0  0  0
  -25.9930  -38.3230   23.8680 H   0  0  0  0  0  0  0  0  0  0  0  0
  -26.3960  -31.7340   25.0990 C   0  0  1  0  0  0  0  0  0  0  0  0
  -25.3010  -31.4780   26.1600 C   0  0  0  0  0  1  0  0  0  0  0  0
  -26.9940  -30.3640   24.7020 C   0  0  0  0  0  1  0  0  0  0  0  0
  -27.5330  -32.5380   25.7720 C   0  0  0  0  0  1  0  0  0  0  0  0
  1  4  2  0
  1  3  1  0
  2  1  1  0
  3  8  2  0
  5  2  1  0
  5  6  1  0
  6 13  1  0
  6  3  1  0
  7  2  2  0
  9 11  1  0
 10 12  2  0
 10 13  1  0
 12 14  1  0
 13  9  2  0
 14 23  1  0
 14 11  2  0
 15 23  1  0
 16 21  1  0
 17 18  1  0
 17 16  1  0
 19 18  1  0
 19 28  1  0
 19 20  1  0
 21 15  1  0
 21 20  1  0
 22 15  2  0
 23 24  1  0
 25 26  2  0
 26 45  1  0
 27 26  1  0
 27 30  1  0
 28 29  1  0
 28 25  1  0
 29 27  2  0
 30 31  1  0
 31 32  2  0
 33 36  1  0
 33 32  1  0
 34 33  2  0
 35 34  1  0
 35 30  2  0
 36 37  1  0
 37 42  2  0
 37 38  1  0
 38 39  2  0
 40 39  1  0
 40 44  1  0
 41 40  2  0
 42 41  1  0
 43 42  1  0
 45 46  1  0
 46 49  1  0
 46 48  1  0
 47 45  2  0
 50 51  1  0
 50 25  1  0
 52 50  1  0
 53 55  1  0
 53  4  1  0
 54 65  2  0
 55 60  1  0
 56 64  1  0
 56 66  1  0
 57 63  1  0
 57 59  1  0
 58 64  1  0
 59 58  1  0
 60 59  2  0
 61 62  1  0
 61 55  2  0
 62 57  2  0
 63 56  1  0
 64 54  1  0
 66 68  2  0
 67 66  1  0
 69 67  1  0
 70 79  2  0
 70 75  1  0
 71 67  1  0
 71 75  1  0
 72 71  1  0
 73 74  1  0
 73 72  1  0
 74 70  1  0
 75 76  2  0
 76 77  1  0
 78 77  2  0
 79 78  1  0
 80 54  1  0
 80 81  1  0
 80 90  1  0
 81 84  1  0
 82 86  1  0
 82 81  1  0
 83 82  2  0
 86 85  1  0
 88 89  1  0
 88 86  1  0
 88 87  1  0
 90 93  1  1
 90 91  1  0
 92 90  1  0
M  ISO  4   4 101  15 100  23 100  53 101
M  END
>  <TORSDO>  (42) 
F 17

>  <SCORE>  (42) 
-14.759

>  <name>  (42) 
42

>  <ligand_id>  (42) 
42

>  <original_smiles>  (42) 
[H]C(Oc1c([H])c([H])c2c(c1[H])C([H])([H])N(C(=O)C([H])(N([H])C(=O)C([H])(N([H])C([H])([H])[H])C([H])([H])[H])C(C([H])([H])[H])(C([H])([H])[H])C([H])([H])[H])C([H])(C(=O)N([H])C1([H])c3c([H])c([H])c([H])c([H])c3C([H])([H])C([H])([H])C1([H])[H])C2([H])[H])=C1C(=O)N(c2c([H])c([H])c(N([H])C(=O)N3C([H])([H])C([H])([H])C([H])([H])C([H])(n4nc(-c5c([H])c([H])c(Oc6c([H])c([H])c(F)c([H])c6F)c([H])c5[H])c(C(=O)N([H])[H])c4N([H])[H])C3([H])[H])c([H])c2[H])C([H])([H])C1=O

>  <smiles>  (42) 
[H]C(Oc1c([H])c([H])c2c(c1[H])C([H])([H])N(C(=O)C([H])(N([H])C(=O)C([H])(N([H])C([H])([H])[H])C([H])([H])[H])C(C([H])([H])[H])(C([H])([H])[H])C([H])([H])[H])C([H])(C(=O)N([H])C1([H])c3c([H])c([H])c([H])c([H])c3C([H])([H])C([H])([H])C1([H])[H])C2([H])[H])=C1C(=O)N(c2c([H])c([H])c(N([H])C(=O)N3C([H])([H])C([H])([H])C([H])([H])C([H])(n4nc(-c5c([H])c([H])c(Oc6c([H])c([H])c(F)c([H])c6F)c([H])c5[H])c(C(=O)N([H])[H])c4N([H])[H])C3([H])[H])c([H])c2[H])C([H])([H])C1=O

$$$$
43:0:0
     RDKit          3D

 98107  0  0  1  0  0  0  0  0999 V2000
  -30.8390  -18.1180   19.3390 C   0  0  0  0  0  3  0  0  0  0  0  0
  -29.0800  -18.2160   20.9480 C   0  0  0  0  0  3  0  0  0  0  0  0
  -30.7220  -19.5360   19.1190 C   0  0  0  0  0  0  0  0  0  0  0  0
  -29.7700  -20.3570   19.8330 C   0  0  0  0  0  0  0  0  0  0  0  0
  -30.0260  -17.4090   20.2580 C   0  0  0  0  0  0  0  0  0  0  0  0
  -28.9530  -19.6300   20.7580 C   0  0  0  0  0  0  0  0  0  0  0  0
  -30.8240  -14.9100   20.0350 C   0  0  0  0  0  0  0  0  0  0  0  0
  -30.6660  -12.6040   19.0930 C   0  0  0  0  0  2  0  0  0  0  0  0
  -29.6930  -12.6400   17.8920 C   0  0  0  0  0  2  0  0  0  0  0  0
  -28.2350  -12.4650   18.3600 C   0  0  0  0  0  2  0  0  0  0  0  0
  -27.8810  -13.3800   19.5610 C   0  0  0  0  0  3  0  0  0  0  0  0
  -28.9650  -13.3060   20.6610 C   0  0  0  0  0  2  0  0  0  0  0  0
  -30.2530  -13.6610   20.0420 N   0  0  0  0  0  0  0  0  0  0  0  0
  -31.9520  -15.0870   19.5650 O   0  0  0  0  0  0  0  0  0  0  0  0
  -30.0270  -15.9480   20.4690 N   0  0  0  0  0  0  0  0  0  0  0  0
  -29.2130  -15.6070   20.9580 H   0  0  0  0  0  0  0  0  0  0  0  0
  -25.5240  -13.9800   20.3870 C   0  0  0  0  0  0  0  0  0  0  0  0
  -24.4630  -13.2070   20.7740 C   0  0  0  0  0  0  0  0  0  0  0  0
  -24.9090  -11.8530   20.6850 C   0  0  0  0  0  0  0  0  0  0  0  0
  -26.5490  -13.0980   20.0870 N   0  0  0  0  0  0  0  0  0  0  0  0
  -26.1850  -11.8100   20.3250 N   0  0  0  0  0  0  0  0  0  0  0  0
  -24.1750  -10.5930   20.8670 C   0  0  0  0  0  0  0  0  0  0  0  0
  -24.6150   -9.6070   21.7790 C   0  0  0  0  0  3  0  0  0  0  0  0
  -23.8840   -8.4130   21.9500 C   0  0  0  0  0  3  0  0  0  0  0  0
  -22.6970   -8.1960   21.2100 C   0  0  0  0  0  0  0  0  0  0  0  0
  -22.2740   -9.1700   20.2880 C   0  0  0  0  0  3  0  0  0  0  0  0
  -23.0080  -10.3560   20.1150 C   0  0  0  0  0  3  0  0  0  0  0  0
  -21.9350   -7.0540   21.2910 O   0  0  0  0  0  0  0  0  0  0  0  0
  -21.8700   -6.3130   22.4440 C   0  0  0  0  0  0  0  0  0  0  0  0
  -21.3860   -6.8600   23.6530 C   0  0  0  0  0  3  0  0  0  0  0  0
  -21.2690   -6.0440   24.7970 C   0  0  0  0  0  3  0  0  0  0  0  0
  -21.6250   -4.6840   24.7320 C   0  0  0  0  0  0  0  0  0  0  0  0
  -22.1030   -4.1370   23.5280 C   0  0  0  0  0  3  0  0  0  0  0  0
  -22.2220   -4.9500   22.3870 C   0  0  0  0  0  0  0  0  0  0  0  0
  -22.6630   -4.4120   21.2230 F   0  0  0  0  0  0  0  0  0  0  0  0
  -21.5050   -3.8990   25.8280 F   0  0  0  0  0  0  0  0  0  0  0  0
  -23.0840  -13.6910   21.1140 C   0  0  0  0  0  0  0  0  0  0  0  0
  -22.3850  -12.9840   21.9970 N   0  0  0  0  0  0  0  0  0  0  0  0
  -22.6340  -14.7310   20.6360 O   0  0  0  0  0  0  0  0  0  0  0  0
  -22.7600  -12.1400   22.4050 H   0  0  0  0  0  0  0  0  0  0  0  0
  -21.4630  -13.2920   22.2670 H   0  0  0  0  0  0  0  0  0  0  0  0
  -25.6990  -15.3540   20.2460 N   0  0  0  0  0  0  0  0  0  0  0  0
  -24.9430  -16.0110   20.4090 H   0  0  0  0  0  0  0  0  0  0  0  0
  -26.5350  -15.7950   19.8880 H   0  0  0  0  0  0  0  0  0  0  0  0
  -28.9630  -24.0840   19.4420 C   0  0  0  0  0  0  0  0  0  0  0  0
  -28.5760  -22.6530   19.5620 C   0  0  0  0  0  0  0  0  0  0  0  0
  -28.0620  -25.1280   19.3380 C   0  0  0  0  0  3  0  0  0  0  0  0
  -30.4610  -24.1570   19.4590 C   0  0  0  0  0  3  0  0  0  0  0  0
  -30.8890  -22.7060   19.7850 C   0  0  0  0  0  3  0  0  0  0  0  0
  -29.6880  -21.8500   19.7010 N   0  0  0  0  0  0  0  0  0  0  0  0
  -27.4180  -22.2230   19.5230 O   0  0  0  0  0  0  0  0  0  0  0  0
  -28.2830  -26.5270   19.1630 O   0  0  0  0  0  0  0  0  0  0  0  0
  -24.7060  -31.4960   23.0590 C   0  0  0  0  0  0  0  0  0  0  0  0
  -27.1930  -27.4200   19.2760 C   0  0  0  0  0  0  0  0  0  0  0  0
  -23.4450  -30.3580   21.2680 C   0  0  0  0  0  3  0  0  0  0  0  0
  -24.8420  -29.0420   19.5760 C   0  0  0  0  0  0  0  0  0  0  0  0
  -25.9820  -30.6890   21.0590 C   0  0  0  0  0  2  0  0  0  0  0  0
  -26.0320  -29.4200   20.2120 C   0  0  0  0  0  0  0  0  0  0  0  0
  -27.2070  -28.6190   20.0610 C   0  0  0  0  0  3  0  0  0  0  0  0
  -25.9870  -27.1310   18.5940 C   0  0  0  0  0  3  0  0  0  0  0  0
  -24.8220  -27.9030   18.7580 C   0  0  0  0  0  3  0  0  0  0  0  0
  -23.6130  -29.9000   19.7960 C   0  0  0  0  0  2  0  0  0  0  0  0
  -24.7310  -30.8580   21.8530 N   0  0  0  0  0  0  0  0  0  0  0  0
  -23.6430  -31.6930   23.6630 O   0  0  0  0  0  0  0  0  0  0  0  0
  -22.8070  -29.2090   22.0860 C   0  0  0  0  0  0  0  0  0  0  0  0
  -21.4740  -29.0620   21.9890 N   0  0  0  0  0  0  0  0  0  0  0  0
  -23.5090  -28.4610   22.7720 O   0  0  0  0  0  0  0  0  0  0  0  0
  -20.9670  -29.7200   21.4140 H   0  0  0  0  0  0  0  0  0  0  0  0
  -18.0970  -27.8710   22.5020 C   0  0  0  0  0  0  0  0  0  0  0  0
  -20.6740  -28.0240   22.6410 C   0  0  0  0  0  3  0  0  0  0  0  0
  -20.6920  -26.7120   21.8230 C   0  0  0  0  0  2  0  0  0  0  0  0
  -19.5190  -26.5940   20.8450 C   0  0  0  0  0  2  0  0  0  0  0  0
  -18.1860  -26.6560   21.5950 C   0  0  0  0  0  2  0  0  0  0  0  0
  -19.2640  -28.5230   22.9810 C   0  0  0  0  0  0  0  0  0  0  0  0
  -19.1240  -29.6680   23.7960 C   0  0  0  0  0  3  0  0  0  0  0  0
  -17.8480  -30.1590   24.1310 C   0  0  0  0  0  3  0  0  0  0  0  0
  -16.6960  -29.5020   23.6660 C   0  0  0  0  0  3  0  0  0  0  0  0
  -16.8210  -28.3570   22.8580 C   0  0  0  0  0  3  0  0  0  0  0  0
  -26.0120  -32.0270   23.7270 C   0  0  0  0  0  3  0  0  0  0  0  0
  -26.5600  -31.0770   24.8610 C   0  0  1  0  0  0  0  0  0  0  0  0
  -25.4980  -30.6950   25.9190 C   0  0  0  0  0  1  0  0  0  0  0  0
  -27.1150  -29.7650   24.2590 C   0  0  0  0  0  1  0  0  0  0  0  0
  -27.7410  -31.7610   25.5900 C   0  0  0  0  0  1  0  0  0  0  0  0
  -25.7220  -33.3630   24.2670 N   0  0  0  0  0  0  0  0  0  0  0  0
  -26.0190  -34.5150   23.6510 C   0  0  0  0  0  0  0  0  0  0  0  0
  -26.6370  -34.5630   22.5840 O   0  0  0  0  0  0  0  0  0  0  0  0
  -25.1640  -33.3990   25.1070 H   0  0  0  0  0  0  0  0  0  0  0  0
  -24.2700  -36.3240   23.6520 C   0  0  0  0  0  1  0  0  0  0  0  0
  -25.5570  -35.8220   24.3250 C   0  0  0  0  0  3  0  0  0  0  0  0
  -27.7350  -36.6050   25.1480 C   0  0  0  0  0  1  0  0  0  0  0  0
  -26.5790  -36.8920   24.3030 N   0  0  0  0  0  0  0  0  0  0  0  0
  -26.1780  -37.7760   24.6060 H   0  0  0  0  0  0  0  0  0  0  0  0
  -31.5630  -20.0890   18.0210 C   0  0  0  0  0  0  0  0  0  0  0  0
  -33.0230  -19.6490   17.9800 C   0  0  0  0  0  1  0  0  0  0  0  0
  -31.1490  -20.8880   17.1760 O   0  0  0  0  0  0  0  0  0  0  0  0
  -28.0020  -20.2900   21.5360 N   0  0  0  0  0  0  0  0  0  0  0  0
  -27.3100  -19.7110   22.0010 H   0  0  0  0  0  0  0  0  0  0  0  0
  -27.5630  -21.0930   21.0940 H   0  0  0  0  0  0  0  0  0  0  0  0
  1  5  1  0
  3  1  2  0
  3  4  1  0
  4  6  2  0
  5 15  1  0
  5  2  2  0
  6  2  1  0
  6 96  1  0
  7 13  1  0
  7 15  1  0
  8 13  1  0
  9 10  1  0
  9  8  1  0
 11 10  1  0
 11 20  1  0
 11 12  1  0
 13 12  1  0
 14  7  2  0
 15 16  1  0
 17 18  2  0
 18 37  1  0
 19 18  1  0
 19 22  1  0
 20 21  1  0
 20 17  1  0
 21 19  2  0
 22 23  1  0
 23 24  2  0
 25 28  1  0
 25 24  1  0
 26 25  2  0
 27 26  1  0
 27 22  2  0
 28 29  1  0
 29 30  1  0
 30 31  2  0
 32 31  1  0
 32 36  1  0
 33 32  2  0
 34 29  2  0
 34 33  1  0
 35 34  1  0
 37 38  1  0
 38 41  1  0
 38 40  1  0
 39 37  2  0
 42 17  1  0
 42 43  1  0
 44 42  1  0
 45 48  1  0
 45 46  1  0
 46 50  1  0
 47 45  2  0
 48 49  2  0
 50 49  1  0
 50  4  1  0
 51 46  2  0
 52 54  1  0
 52 47  1  0
 53 64  2  0
 54 59  1  0
 55 63  1  0
 55 65  1  0
 56 62  1  0
 56 58  1  0
 57 63  1  0
 58 57  1  0
 59 58  2  0
 60 61  1  0
 60 54  2  0
 61 56  2  0
 62 55  1  0
 63 53  1  0
 65 67  2  0
 66 65  1  0
 68 66  1  0
 69 78  2  0
 69 74  1  0
 70 66  1  0
 70 74  1  0
 71 70  1  0
 72 73  1  0
 72 71  1  0
 73 69  1  0
 74 75  2  0
 75 76  1  0
 77 76  2  0
 78 77  1  0
 79 53  1  0
 79 84  1  0
 79 80  1  0
 80 83  1  1
 80 81  1  0
 82 80  1  0
 84 87  1  0
 85 84  1  0
 85 89  1  0
 86 85  2  0
 89 88  1  0
 91 89  1  0
 91 92  1  0
 91 90  1  0
 93  3  1  0
 94 93  1  0
 95 93  2  0
 96 97  1  0
 98 96  1  0
M  ISO  4   7 100  15 100  47 101  52 101
M  END
>  <TORSDO>  (43) 
F 19

>  <SCORE>  (43) 
-12.737

>  <name>  (43) 
43

>  <ligand_id>  (43) 
43

>  <original_smiles>  (43) 
[H]C(Oc1c([H])c([H])c2c(c1[H])C([H])([H])N(C(=O)C([H])(N([H])C(=O)C([H])(N([H])C([H])([H])[H])C([H])([H])[H])C(C([H])([H])[H])(C([H])([H])[H])C([H])([H])[H])C([H])(C(=O)N([H])C1([H])c3c([H])c([H])c([H])c([H])c3C([H])([H])C([H])([H])C1([H])[H])C2([H])[H])=C1C(=O)N(c2c(C(=O)C([H])([H])[H])c([H])c(N([H])C(=O)N3C([H])([H])C([H])([H])C([H])([H])C([H])(n4nc(-c5c([H])c([H])c(Oc6c([H])c([H])c(F)c([H])c6F)c([H])c5[H])c(C(=O)N([H])[H])c4N([H])[H])C3([H])[H])c([H])c2N([H])[H])C([H])([H])C1([H])[H]

>  <smiles>  (43) 
[H]C(Oc1c([H])c([H])c2c(c1[H])C([H])([H])N(C(=O)C([H])(N([H])C(=O)C([H])(N([H])C([H])([H])[H])C([H])([H])[H])C(C([H])([H])[H])(C([H])([H])[H])C([H])([H])[H])C([H])(C(=O)N([H])C1([H])c3c([H])c([H])c([H])c([H])c3C([H])([H])C([H])([H])C1([H])[H])C2([H])[H])=C1C(=O)N(c2c(C(=O)C([H])([H])[H])c([H])c(N([H])C(=O)N3C([H])([H])C([H])([H])C([H])([H])C([H])(n4nc(-c5c([H])c([H])c(Oc6c([H])c([H])c(F)c([H])c6F)c([H])c5[H])c(C(=O)N([H])[H])c4N([H])[H])C3([H])[H])c([H])c2N([H])[H])C([H])([H])C1([H])[H]

$$$$
44:0:0
     RDKit          3D

 98107  0  0  1  0  0  0  0  0999 V2000
  -27.0970  -23.5000   20.1530 C   0  0  0  0  0  3  0  0  0  0  0  0
  -27.6800  -21.1560   20.1720 C   0  0  0  0  0  3  0  0  0  0  0  0
  -28.3570  -23.8980   20.4140 C   0  0  0  0  0  0  0  0  0  0  0  0
  -26.7500  -22.1080   19.9560 C   0  0  0  0  0  0  0  0  0  0  0  0
  -29.4180  -22.7960   20.4600 C   0  0  0  0  0  0  0  0  0  0  0  0
  -29.0320  -21.4260   20.4940 N   0  0  0  0  0  0  0  0  0  0  0  0
  -30.6080  -23.1200   20.3940 O   0  0  0  0  0  0  0  0  0  0  0  0
  -31.5150  -17.8630   21.5520 C   0  0  0  0  0  3  0  0  0  0  0  0
  -31.8620  -19.1670   21.9380 C   0  0  0  0  0  3  0  0  0  0  0  0
  -29.5680  -18.7980   20.4470 C   0  0  0  0  0  3  0  0  0  0  0  0
  -29.8950  -20.1960   20.8080 C   0  0  0  0  0  0  0  0  0  0  0  0
  -30.3460  -17.6080   20.8160 C   0  0  0  0  0  0  0  0  0  0  0  0
  -31.0860  -20.2980   21.6030 C   0  0  0  0  0  0  0  0  0  0  0  0
  -30.7650  -15.0290   20.3950 C   0  0  0  0  0  0  0  0  0  0  0  0
  -30.5990  -12.7500   19.3600 C   0  0  0  0  0  2  0  0  0  0  0  0
  -29.6530  -12.7970   18.1390 C   0  0  0  0  0  2  0  0  0  0  0  0
  -28.1890  -12.5970   18.5760 C   0  0  0  0  0  2  0  0  0  0  0  0
  -27.8030  -13.4790   19.7920 C   0  0  0  0  0  3  0  0  0  0  0  0
  -28.8670  -13.4100   20.9090 C   0  0  0  0  0  2  0  0  0  0  0  0
  -30.1480  -13.7990   20.3070 N   0  0  0  0  0  0  0  0  0  0  0  0
  -31.9580  -15.1190   20.0840 O   0  0  0  0  0  0  0  0  0  0  0  0
  -29.9780  -16.1740   20.5790 N   0  0  0  0  0  0  0  0  0  0  0  0
  -28.9910  -15.9780   20.6170 H   0  0  0  0  0  0  0  0  0  0  0  0
  -25.4190  -14.0390   20.5530 C   0  0  0  0  0  0  0  0  0  0  0  0
  -24.3590  -13.2500   20.9110 C   0  0  0  0  0  0  0  0  0  0  0  0
  -24.8300  -11.9020   20.8450 C   0  0  0  0  0  0  0  0  0  0  0  0
  -26.4650  -13.1700   20.2870 N   0  0  0  0  0  0  0  0  0  0  0  0
  -26.1180  -11.8800   20.5260 N   0  0  0  0  0  0  0  0  0  0  0  0
  -24.1100  -10.6330   21.0060 C   0  0  0  0  0  0  0  0  0  0  0  0
  -24.5120   -9.6720   21.9610 C   0  0  0  0  0  3  0  0  0  0  0  0
  -23.7920   -8.4680   22.1110 C   0  0  0  0  0  3  0  0  0  0  0  0
  -22.6560   -8.2140   21.3060 C   0  0  0  0  0  0  0  0  0  0  0  0
  -22.2730   -9.1630   20.3420 C   0  0  0  0  0  3  0  0  0  0  0  0
  -22.9940  -10.3600   20.1900 C   0  0  0  0  0  3  0  0  0  0  0  0
  -21.9120   -7.0600   21.3640 O   0  0  0  0  0  0  0  0  0  0  0  0
  -21.7740   -6.3500   22.5300 C   0  0  0  0  0  0  0  0  0  0  0  0
  -21.1900   -6.9190   23.6830 C   0  0  0  0  0  3  0  0  0  0  0  0
  -21.0050   -6.1320   24.8390 C   0  0  0  0  0  3  0  0  0  0  0  0
  -21.3930   -4.7790   24.8400 C   0  0  0  0  0  0  0  0  0  0  0  0
  -21.9700   -4.2100   23.6910 C   0  0  0  0  0  3  0  0  0  0  0  0
  -22.1570   -4.9940   22.5380 C   0  0  0  0  0  0  0  0  0  0  0  0
  -22.6930   -4.4350   21.4260 F   0  0  0  0  0  0  0  0  0  0  0  0
  -21.2080   -4.0220   25.9460 F   0  0  0  0  0  0  0  0  0  0  0  0
  -22.9610  -13.7150   21.2000 C   0  0  0  0  0  0  0  0  0  0  0  0
  -22.2400  -12.9950   22.0530 N   0  0  0  0  0  0  0  0  0  0  0  0
  -22.5170  -14.7510   20.7080 O   0  0  0  0  0  0  0  0  0  0  0  0
  -22.6110  -12.1560   22.4740 H   0  0  0  0  0  0  0  0  0  0  0  0
  -21.3030  -13.2900   22.2890 H   0  0  0  0  0  0  0  0  0  0  0  0
  -25.5760  -15.4140   20.4070 N   0  0  0  0  0  0  0  0  0  0  0  0
  -24.8050  -16.0600   20.5320 H   0  0  0  0  0  0  0  0  0  0  0  0
  -26.4050  -15.8580   20.0350 H   0  0  0  0  0  0  0  0  0  0  0  0
  -31.5560  -21.4860   22.1610 N   0  0  0  0  0  0  0  0  0  0  0  0
  -32.5160  -21.4720   22.4920 H   0  0  0  0  0  0  0  0  0  0  0  0
  -31.4020  -22.3090   21.5730 H   0  0  0  0  0  0  0  0  0  0  0  0
  -25.4970  -21.7620   19.6420 O   0  0  0  0  0  0  0  0  0  0  0  0
  -24.9820  -22.5570   19.5800 H   0  0  0  0  0  0  0  0  0  0  0  0
  -28.5680  -25.3820   20.9910 C   0  0  0  0  0  2  0  0  0  0  0  0
  -28.4380  -26.6500   20.1920 O   0  0  0  0  0  0  0  0  0  0  0  0
  -24.5260  -32.0240   23.2580 C   0  0  0  0  0  0  0  0  0  0  0  0
  -27.3000  -27.4820   20.2680 C   0  0  0  0  0  0  0  0  0  0  0  0
  -23.3840  -30.5830   21.6110 C   0  0  0  0  0  3  0  0  0  0  0  0
  -24.8980  -29.0580   20.2150 C   0  0  0  0  0  0  0  0  0  0  0  0
  -25.9190  -30.9650   21.4550 C   0  0  0  0  0  2  0  0  0  0  0  0
  -26.0490  -29.5780   20.8220 C   0  0  0  0  0  0  0  0  0  0  0  0
  -27.2550  -28.8040   20.8330 C   0  0  0  0  0  3  0  0  0  0  0  0
  -26.1240  -27.0230   19.6430 C   0  0  0  0  0  3  0  0  0  0  0  0
  -24.9390  -27.7880   19.6180 C   0  0  0  0  0  3  0  0  0  0  0  0
  -23.6370  -29.9050   20.2380 C   0  0  0  0  0  2  0  0  0  0  0  0
  -24.6280  -31.2100   22.1650 N   0  0  0  0  0  0  0  0  0  0  0  0
  -23.4290  -32.2720   23.7770 O   0  0  0  0  0  0  0  0  0  0  0  0
  -22.7360  -29.5560   22.5670 C   0  0  0  0  0  0  0  0  0  0  0  0
  -21.4140  -29.3490   22.4340 N   0  0  0  0  0  0  0  0  0  0  0  0
  -23.4230  -28.9460   23.3910 O   0  0  0  0  0  0  0  0  0  0  0  0
  -20.9170  -29.8970   21.7460 H   0  0  0  0  0  0  0  0  0  0  0  0
  -18.0570  -28.0950   22.9330 C   0  0  0  0  0  0  0  0  0  0  0  0
  -20.6130  -28.3910   23.1970 C   0  0  0  0  0  3  0  0  0  0  0  0
  -20.7350  -26.9660   22.6060 C   0  0  0  0  0  2  0  0  0  0  0  0
  -19.6330  -26.6340   21.5950 C   0  0  0  0  0  2  0  0  0  0  0  0
  -18.2510  -26.7550   22.2450 C   0  0  0  0  0  2  0  0  0  0  0  0
  -19.1670  -28.8700   23.3650 C   0  0  0  0  0  0  0  0  0  0  0  0
  -18.9310  -30.1220   23.9720 C   0  0  0  0  0  3  0  0  0  0  0  0
  -17.6190  -30.6000   24.1520 C   0  0  0  0  0  3  0  0  0  0  0  0
  -16.5250  -29.8230   23.7360 C   0  0  0  0  0  3  0  0  0  0  0  0
  -16.7450  -28.5720   23.1310 C   0  0  0  0  0  3  0  0  0  0  0  0
  -25.7820  -32.6970   23.8930 C   0  0  0  0  0  3  0  0  0  0  0  0
  -26.2910  -31.9600   25.1920 C   0  0  1  0  0  0  0  0  0  0  0  0
  -25.1740  -31.6800   26.2250 C   0  0  0  0  0  1  0  0  0  0  0  0
  -26.9530  -30.6090   24.8340 C   0  0  0  0  0  1  0  0  0  0  0  0
  -27.3770  -32.8140   25.8880 C   0  0  0  0  0  1  0  0  0  0  0  0
  -25.4350  -34.0930   24.1970 N   0  0  0  0  0  0  0  0  0  0  0  0
  -25.7440  -35.1410   23.4230 C   0  0  0  0  0  0  0  0  0  0  0  0
  -26.4210  -35.0380   22.3980 O   0  0  0  0  0  0  0  0  0  0  0  0
  -24.8360  -34.2470   24.9950 H   0  0  0  0  0  0  0  0  0  0  0  0
  -23.9690  -36.8840   23.0390 C   0  0  0  0  0  1  0  0  0  0  0  0
  -25.2210  -36.5250   23.8570 C   0  0  0  0  0  3  0  0  0  0  0  0
  -27.3250  -37.4880   24.6780 C   0  0  0  0  0  1  0  0  0  0  0  0
  -26.2250  -37.6030   23.7250 N   0  0  0  0  0  0  0  0  0  0  0  0
  -25.7910  -38.5140   23.8480 H   0  0  0  0  0  0  0  0  0  0  0  0
  1  3  2  0
  2  6  1  0
  3  5  1  0
  3 57  1  0
  4  1  1  0
  4  2  2  0
  5  6  1  0
  6 11  1  0
  7  5  2  0
  8  9  1  0
 10 11  2  0
 10 12  1  0
 11 13  1  0
 12  8  2  0
 13  9  2  0
 13 52  1  0
 14 22  1  0
 15 20  1  0
 16 17  1  0
 16 15  1  0
 18 17  1  0
 18 27  1  0
 18 19  1  0
 20 14  1  0
 20 19  1  0
 21 14  2  0
 22 23  1  0
 22 12  1  0
 24 25  2  0
 25 44  1  0
 26 25  1  0
 26 29  1  0
 27 28  1  0
 27 24  1  0
 28 26  2  0
 29 30  1  0
 30 31  2  0
 32 35  1  0
 32 31  1  0
 33 32  2  0
 34 33  1  0
 34 29  2  0
 35 36  1  0
 36 41  2  0
 36 37  1  0
 37 38  2  0
 38 39  1  0
 39 43  1  0
 40 39  2  0
 41 40  1  0
 42 41  1  0
 44 45  1  0
 45 48  1  0
 45 47  1  0
 46 44  2  0
 49 50  1  0
 49 24  1  0
 51 49  1  0
 52 53  1  0
 54 52  1  0
 55  4  1  0
 56 55  1  0
 58 60  1  0
 58 57  1  0
 59 70  2  0
 60 65  1  0
 61 69  1  0
 61 71  1  0
 62 68  1  0
 62 64  1  0
 63 69  1  0
 64 65  2  0
 64 63  1  0
 66 60  2  0
 67 66  1  0
 67 62  2  0
 68 61  1  0
 69 59  1  0
 71 73  2  0
 72 71  1  0
 74 72  1  0
 75 84  2  0
 75 80  1  0
 76 72  1  0
 76 80  1  0
 77 76  1  0
 78 79  1  0
 78 77  1  0
 79 75  1  0
 80 81  2  0
 81 82  1  0
 83 82  2  0
 84 83  1  0
 85 59  1  0
 85 90  1  0
 85 86  1  0
 86 89  1  1
 86 87  1  0
 88 86  1  0
 90 93  1  0
 91 95  1  0
 91 90  1  0
 92 91  2  0
 95 94  1  0
 97 98  1  0
 97 95  1  0
 97 96  1  0
M  ISO  4  14 100  22 100  57 101  58 101
M  END
>  <TORSDO>  (44) 
F 20

>  <SCORE>  (44) 
-14.090

>  <name>  (44) 
44

>  <ligand_id>  (44) 
44

>  <original_smiles>  (44) 
[H]Oc1c([H])c(C([H])([H])Oc2c([H])c([H])c3c(c2[H])C([H])([H])N(C(=O)C([H])(N([H])C(=O)C([H])(N([H])C([H])([H])[H])C([H])([H])[H])C(C([H])([H])[H])(C([H])([H])[H])C([H])([H])[H])C([H])(C(=O)N([H])C2([H])c4c([H])c([H])c([H])c([H])c4C([H])([H])C([H])([H])C2([H])[H])C3([H])[H])c(=O)n(-c2c([H])c(N([H])C(=O)N3C([H])([H])C([H])([H])C([H])([H])C([H])(n4nc(-c5c([H])c([H])c(Oc6c([H])c([H])c(F)c([H])c6F)c([H])c5[H])c(C(=O)N([H])[H])c4N([H])[H])C3([H])[H])c([H])c([H])c2N([H])[H])c1[H]

>  <smiles>  (44) 
[H]Oc1c([H])c(C([H])([H])Oc2c([H])c([H])c3c(c2[H])C([H])([H])N(C(=O)C([H])(N([H])C(=O)C([H])(N([H])C([H])([H])[H])C([H])([H])[H])C(C([H])([H])[H])(C([H])([H])[H])C([H])([H])[H])C([H])(C(=O)N([H])C2([H])c4c([H])c([H])c([H])c([H])c4C([H])([H])C([H])([H])C2([H])[H])C3([H])[H])c(=O)n(-c2c([H])c(N([H])C(=O)N3C([H])([H])C([H])([H])C([H])([H])C([H])(n4nc(-c5c([H])c([H])c(Oc6c([H])c([H])c(F)c([H])c6F)c([H])c5[H])c(C(=O)N([H])[H])c4N([H])[H])C3([H])[H])c([H])c([H])c2N([H])[H])c1[H]

$$$$
45:0:0
     RDKit          3D

 93101  0  0  1  0  0  0  0  0999 V2000
  -29.8860  -21.6550   19.8420 C   0  0  0  0  0  0  0  0  0  0  0  0
  -30.8080  -22.0030   18.9930 N   0  0  0  0  0  4  0  0  0  0  0  0
  -31.4160  -21.3180   18.5470 H   0  0  0  0  0  0  0  0  0  0  0  0
  -30.9700  -22.9550   18.6830 H   0  0  0  0  0  0  0  0  0  0  0  0
  -31.0730  -19.3570   20.0860 C   0  0  0  0  0  3  0  0  0  0  0  0
  -31.0960  -17.9340   20.2220 C   0  0  0  0  0  3  0  0  0  0  0  0
  -28.6870  -19.3830   20.3350 C   0  0  0  0  0  3  0  0  0  0  0  0
  -29.8710  -20.1290   20.1140 C   0  0  0  0  0  0  0  0  0  0  0  0
  -29.9030  -17.1910   20.4050 C   0  0  0  0  0  0  0  0  0  0  0  0
  -28.7050  -17.9590   20.4720 C   0  0  0  0  0  0  0  0  0  0  0  0
  -27.5350  -17.2990   20.6530 F   0  0  0  0  0  0  0  0  0  0  0  0
  -30.5960  -14.6860   20.1360 C   0  0  0  0  0  0  0  0  0  0  0  0
  -30.3430  -12.4770   19.0190 C   0  0  0  0  0  2  0  0  0  0  0  0
  -29.3500  -12.6410   17.8460 C   0  0  0  0  0  2  0  0  0  0  0  0
  -27.8950  -12.4720   18.3290 C   0  0  0  0  0  2  0  0  0  0  0  0
  -27.5900  -13.2970   19.6070 C   0  0  0  0  0  3  0  0  0  0  0  0
  -28.6920  -13.1060   20.6730 C   0  0  0  0  0  2  0  0  0  0  0  0
  -29.9780  -13.4640   20.0540 N   0  0  0  0  0  0  0  0  0  0  0  0
  -31.7450  -14.8480   19.7130 O   0  0  0  0  0  0  0  0  0  0  0  0
  -29.8060  -15.7320   20.5430 N   0  0  0  0  0  0  0  0  0  0  0  0
  -28.9000  -15.4270   20.8650 H   0  0  0  0  0  0  0  0  0  0  0  0
  -25.2190  -13.8800   20.4080 C   0  0  0  0  0  0  0  0  0  0  0  0
  -24.1670  -13.0980   20.8050 C   0  0  0  0  0  0  0  0  0  0  0  0
  -24.6350  -11.7500   20.7520 C   0  0  0  0  0  0  0  0  0  0  0  0
  -26.2600  -13.0060   20.1360 N   0  0  0  0  0  0  0  0  0  0  0  0
  -25.9160  -11.7200   20.4020 N   0  0  0  0  0  0  0  0  0  0  0  0
  -23.9220  -10.4830   20.9600 C   0  0  0  0  0  0  0  0  0  0  0  0
  -24.3760   -9.5230   21.8910 C   0  0  0  0  0  3  0  0  0  0  0  0
  -23.6610   -8.3210   22.0850 C   0  0  0  0  0  3  0  0  0  0  0  0
  -22.4790   -8.0710   21.3470 C   0  0  0  0  0  0  0  0  0  0  0  0
  -22.0450   -9.0200   20.4050 C   0  0  0  0  0  3  0  0  0  0  0  0
  -22.7600  -10.2140   20.2090 C   0  0  0  0  0  3  0  0  0  0  0  0
  -21.7350   -6.9210   21.4510 O   0  0  0  0  0  0  0  0  0  0  0  0
  -21.6920   -6.1930   22.6130 C   0  0  0  0  0  0  0  0  0  0  0  0
  -21.2460   -6.7560   23.8290 C   0  0  0  0  0  3  0  0  0  0  0  0
  -21.1530   -5.9530   24.9830 C   0  0  0  0  0  3  0  0  0  0  0  0
  -21.4960   -4.5880   24.9230 C   0  0  0  0  0  0  0  0  0  0  0  0
  -21.9350   -4.0250   23.7110 C   0  0  0  0  0  3  0  0  0  0  0  0
  -22.0300   -4.8250   22.5590 C   0  0  0  0  0  0  0  0  0  0  0  0
  -22.4340   -4.2740   21.3900 F   0  0  0  0  0  0  0  0  0  0  0  0
  -21.3990   -3.8150   26.0300 F   0  0  0  0  0  0  0  0  0  0  0  0
  -22.7780  -13.5680   21.1280 C   0  0  0  0  0  0  0  0  0  0  0  0
  -22.0820  -12.8610   22.0110 N   0  0  0  0  0  0  0  0  0  0  0  0
  -22.3200  -14.5960   20.6320 O   0  0  0  0  0  0  0  0  0  0  0  0
  -22.4660  -12.0290   22.4340 H   0  0  0  0  0  0  0  0  0  0  0  0
  -21.1510  -13.1570   22.2700 H   0  0  0  0  0  0  0  0  0  0  0  0
  -25.3670  -15.2530   20.2400 N   0  0  0  0  0  0  0  0  0  0  0  0
  -24.6050  -15.8970   20.4160 H   0  0  0  0  0  0  0  0  0  0  0  0
  -26.2250  -15.7270   19.9870 H   0  0  0  0  0  0  0  0  0  0  0  0
  -29.0880  -23.9500   20.0830 C   0  0  0  0  0  3  0  0  0  0  0  0
  -29.0400  -22.6560   20.3490 N   0  0  0  0  0  0  0  0  0  0  0  0
  -28.1380  -25.0790   20.6400 C   0  0  0  0  0  2  0  0  0  0  0  0
  -28.3650  -26.4870   20.2090 O   0  0  0  0  0  0  0  0  0  0  0  0
  -24.6080  -31.8790   23.2280 C   0  0  0  0  0  0  0  0  0  0  0  0
  -27.2490  -27.3370   20.1820 C   0  0  0  0  0  0  0  0  0  0  0  0
  -23.4160  -30.4790   21.5800 C   0  0  0  0  0  3  0  0  0  0  0  0
  -24.8790  -28.9360   20.1580 C   0  0  0  0  0  0  0  0  0  0  0  0
  -25.9540  -30.8090   21.4070 C   0  0  0  0  0  2  0  0  0  0  0  0
  -26.0430  -29.4320   20.7610 C   0  0  0  0  0  0  0  0  0  0  0  0
  -27.2320  -28.6440   20.7620 C   0  0  0  0  0  3  0  0  0  0  0  0
  -26.0670  -26.9010   19.5440 C   0  0  0  0  0  3  0  0  0  0  0  0
  -24.8930  -27.6770   19.5400 C   0  0  0  0  0  3  0  0  0  0  0  0
  -23.6380  -29.8060   20.1990 C   0  0  0  0  0  2  0  0  0  0  0  0
  -24.6780  -31.0730   22.1280 N   0  0  0  0  0  0  0  0  0  0  0  0
  -23.5220  -32.1520   23.7590 O   0  0  0  0  0  0  0  0  0  0  0  0
  -22.7520  -29.4590   22.5360 C   0  0  0  0  0  0  0  0  0  0  0  0
  -21.4250  -29.2880   22.4110 N   0  0  0  0  0  0  0  0  0  0  0  0
  -23.4300  -28.8250   23.3480 O   0  0  0  0  0  0  0  0  0  0  0  0
  -20.9380  -29.8520   21.7280 H   0  0  0  0  0  0  0  0  0  0  0  0
  -18.0410  -28.1220   22.9270 C   0  0  0  0  0  0  0  0  0  0  0  0
  -20.6040  -28.3510   23.1770 C   0  0  0  0  0  3  0  0  0  0  0  0
  -20.6840  -26.9250   22.5840 C   0  0  0  0  0  2  0  0  0  0  0  0
  -19.5700  -26.6270   21.5760 C   0  0  0  0  0  2  0  0  0  0  0  0
  -18.1960  -26.7790   22.2340 C   0  0  0  0  0  2  0  0  0  0  0  0
  -19.1710  -28.8670   23.3560 C   0  0  0  0  0  0  0  0  0  0  0  0
  -18.9700  -30.1250   23.9640 C   0  0  0  0  0  3  0  0  0  0  0  0
  -17.6720  -30.6380   24.1480 C   0  0  0  0  0  3  0  0  0  0  0  0
  -16.5560  -29.8900   23.7360 C   0  0  0  0  0  3  0  0  0  0  0  0
  -16.7410  -28.6340   23.1310 C   0  0  0  0  0  3  0  0  0  0  0  0
  -25.8870  -32.5140   23.8560 C   0  0  0  0  0  3  0  0  0  0  0  0
  -26.3930  -31.7480   25.1400 C   0  0  1  0  0  0  0  0  0  0  0  0
  -25.2920  -31.5120   26.2000 C   0  0  0  0  0  1  0  0  0  0  0  0
  -26.9810  -30.3690   24.7580 C   0  0  0  0  0  1  0  0  0  0  0  0
  -27.5370  -32.5450   25.8080 C   0  0  0  0  0  1  0  0  0  0  0  0
  -25.5750  -33.9140   24.1800 N   0  0  0  0  0  0  0  0  0  0  0  0
  -25.9120  -34.9640   23.4200 C   0  0  0  0  0  0  0  0  0  0  0  0
  -26.5890  -34.8570   22.3940 O   0  0  0  0  0  0  0  0  0  0  0  0
  -24.9750  -34.0700   24.9760 H   0  0  0  0  0  0  0  0  0  0  0  0
  -24.1910  -36.7590   23.0450 C   0  0  0  0  0  1  0  0  0  0  0  0
  -25.4230  -36.3540   23.8710 C   0  0  0  0  0  3  0  0  0  0  0  0
  -27.5480  -37.2380   24.7260 C   0  0  0  0  0  1  0  0  0  0  0  0
  -26.4580  -37.4050   23.7670 N   0  0  0  0  0  0  0  0  0  0  0  0
  -26.0510  -38.3260   23.9060 H   0  0  0  0  0  0  0  0  0  0  0  0
  1  8  1  0
  1 51  1  0
  2  1  2  0
  3  2  1  0
  4  2  1  0
  5  8  2  0
  5  6  1  0
  6  9  2  0
  7 10  2  0
  8  7  1  0
  9 10  1  0
  9 20  1  0
 10 11  1  0
 12 20  1  0
 13 18  1  0
 14 15  1  0
 14 13  1  0
 16 15  1  0
 16 25  1  0
 16 17  1  0
 18 12  1  0
 18 17  1  0
 19 12  2  0
 20 21  1  0
 22 23  2  0
 23 42  1  0
 24 23  1  0
 24 27  1  0
 25 26  1  0
 25 22  1  0
 26 24  2  0
 27 28  1  0
 28 29  2  0
 30 33  1  0
 30 29  1  0
 31 30  2  0
 32 31  1  0
 32 27  2  0
 33 34  1  0
 34 35  1  0
 35 36  2  0
 37 36  1  0
 37 41  1  0
 38 37  2  0
 39 34  2  0
 39 38  1  0
 40 39  1  0
 42 43  1  0
 43 46  1  0
 43 45  1  0
 44 42  2  0
 47 22  1  0
 47 48  1  0
 49 47  1  0
 50 51  2  0
 50 52  1  0
 53 52  1  0
 54 65  2  0
 55 53  1  0
 55 60  1  0
 56 64  1  0
 56 66  1  0
 57 63  1  0
 57 59  1  0
 58 64  1  0
 59 60  2  0
 59 58  1  0
 61 55  2  0
 62 61  1  0
 62 57  2  0
 63 56  1  0
 64 54  1  0
 66 68  2  0
 67 66  1  0
 69 67  1  0
 70 79  2  0
 70 75  1  0
 71 67  1  0
 71 75  1  0
 72 71  1  0
 73 74  1  0
 73 72  1  0
 74 70  1  0
 75 76  2  0
 76 77  1  0
 78 77  2  0
 79 78  1  0
 80 54  1  0
 80 85  1  0
 80 81  1  0
 81 84  1  1
 81 82  1  0
 83 81  1  0
 85 88  1  0
 86 90  1  0
 86 85  1  0
 87 86  2  0
 90 89  1  0
 92 90  1  0
 92 93  1  0
 92 91  1  0
M  ISO  4  12 100  20 100  52 101  53 101
M  END
>  <TORSDO>  (45) 
F 19

>  <SCORE>  (45) 
-14.393

>  <name>  (45) 
45

>  <ligand_id>  (45) 
45

>  <original_smiles>  (45) 
[H]C(=NC(c1c([H])c([H])c(N([H])C(=O)N2C([H])([H])C([H])([H])C([H])([H])C([H])(n3nc(-c4c([H])c([H])c(Oc5c([H])c([H])c(F)c([H])c5F)c([H])c4[H])c(C(=O)N([H])[H])c3N([H])[H])C2([H])[H])c(F)c1[H])=[N+]([H])[H])C([H])([H])Oc1c([H])c([H])c2c(c1[H])C([H])([H])N(C(=O)C([H])(N([H])C(=O)C([H])(N([H])C([H])([H])[H])C([H])([H])[H])C(C([H])([H])[H])(C([H])([H])[H])C([H])([H])[H])C([H])(C(=O)N([H])C1([H])c3c([H])c([H])c([H])c([H])c3C([H])([H])C([H])([H])C1([H])[H])C2([H])[H]

>  <smiles>  (45) 
[H]C(=NC(c1c([H])c([H])c(N([H])C(=O)N2C([H])([H])C([H])([H])C([H])([H])C([H])(n3nc(-c4c([H])c([H])c(Oc5c([H])c([H])c(F)c([H])c5F)c([H])c4[H])c(C(=O)N([H])[H])c3N([H])[H])C2([H])[H])c(F)c1[H])=[N+]([H])[H])C([H])([H])Oc1c([H])c([H])c2c(c1[H])C([H])([H])N(C(=O)C([H])(N([H])C(=O)C([H])(N([H])C([H])([H])[H])C([H])([H])[H])C(C([H])([H])[H])(C([H])([H])[H])C([H])([H])[H])C([H])(C(=O)N([H])C1([H])c3c([H])c([H])c([H])c([H])c3C([H])([H])C([H])([H])C1([H])[H])C2([H])[H]

$$$$
46:0:0
     RDKit          3D

 93102  0  0  1  0  0  0  0  0999 V2000
  -29.3170  -23.2220   21.5520 C   0  0  0  0  0  3  0  0  0  0  0  0
  -28.7990  -22.3000   19.6180 C   0  0  0  0  0  3  0  0  0  0  0  0
  -28.7120  -23.5320   20.2890 C   0  0  0  0  0  0  0  0  0  0  0  0
  -29.7050  -21.8960   21.5730 C   0  0  0  0  0  0  0  0  0  0  0  0
  -29.4110  -21.2570   20.3750 N   0  0  0  0  0  0  0  0  0  0  0  0
  -30.9700  -18.6380   18.1660 C   0  0  0  0  0  3  0  0  0  0  0  0
  -30.4920  -19.8440   18.7060 C   0  0  0  0  0  3  0  0  0  0  0  0
  -30.7700  -17.4100   18.8210 C   0  0  0  0  0  3  0  0  0  0  0  0
  -29.6090  -18.5950   20.6030 C   0  0  0  0  0  3  0  0  0  0  0  0
  -29.7960  -19.8860   19.9320 C   0  0  0  0  0  0  0  0  0  0  0  0
  -30.0970  -17.3190   20.0620 C   0  0  0  0  0  0  0  0  0  0  0  0
  -30.6030  -14.7720   20.3740 C   0  0  0  0  0  0  0  0  0  0  0  0
  -30.3700  -12.4930   19.3810 C   0  0  0  0  0  2  0  0  0  0  0  0
  -29.4500  -12.5890   18.1450 C   0  0  0  0  0  2  0  0  0  0  0  0
  -27.9750  -12.4240   18.5540 C   0  0  0  0  0  2  0  0  0  0  0  0
  -27.5960  -13.3010   19.7770 C   0  0  0  0  0  3  0  0  0  0  0  0
  -28.6440  -13.2170   20.9110 C   0  0  0  0  0  2  0  0  0  0  0  0
  -29.9500  -13.5560   20.3300 N   0  0  0  0  0  0  0  0  0  0  0  0
  -31.7890  -14.8200   20.0360 O   0  0  0  0  0  0  0  0  0  0  0  0
  -29.8940  -15.9480   20.6330 N   0  0  0  0  0  0  0  0  0  0  0  0
  -29.0300  -15.8150   21.1380 H   0  0  0  0  0  0  0  0  0  0  0  0
  -25.1970  -13.8910   20.4650 C   0  0  0  0  0  0  0  0  0  0  0  0
  -24.1280  -13.1200   20.8300 C   0  0  0  0  0  0  0  0  0  0  0  0
  -24.5910  -11.7690   20.8200 C   0  0  0  0  0  0  0  0  0  0  0  0
  -26.2460  -13.0110   20.2520 N   0  0  0  0  0  0  0  0  0  0  0  0
  -25.8870  -11.7300   20.5270 N   0  0  0  0  0  0  0  0  0  0  0  0
  -23.8600  -10.5070   21.0170 C   0  0  0  0  0  0  0  0  0  0  0  0
  -24.2910   -9.5430   21.9540 C   0  0  0  0  0  3  0  0  0  0  0  0
  -23.5620   -8.3490   22.1400 C   0  0  0  0  0  3  0  0  0  0  0  0
  -22.3850   -8.1100   21.3890 C   0  0  0  0  0  0  0  0  0  0  0  0
  -21.9730   -9.0640   20.4420 C   0  0  0  0  0  3  0  0  0  0  0  0
  -22.7040  -10.2500   20.2540 C   0  0  0  0  0  3  0  0  0  0  0  0
  -21.6300   -6.9660   21.4800 O   0  0  0  0  0  0  0  0  0  0  0  0
  -21.5930   -6.2200   22.6310 C   0  0  0  0  0  0  0  0  0  0  0  0
  -21.1960   -6.7750   23.8670 C   0  0  0  0  0  3  0  0  0  0  0  0
  -21.1050   -5.9560   25.0090 C   0  0  0  0  0  3  0  0  0  0  0  0
  -21.3990   -4.5820   24.9180 C   0  0  0  0  0  0  0  0  0  0  0  0
  -21.7910   -4.0280   23.6870 C   0  0  0  0  0  3  0  0  0  0  0  0
  -21.8840   -4.8440   22.5470 C   0  0  0  0  0  0  0  0  0  0  0  0
  -22.2410   -4.2990   21.3570 F   0  0  0  0  0  0  0  0  0  0  0  0
  -21.3050   -3.7940   26.0140 F   0  0  0  0  0  0  0  0  0  0  0  0
  -22.7280  -13.6010   21.0800 C   0  0  0  0  0  0  0  0  0  0  0  0
  -21.9900  -12.9180   21.9480 N   0  0  0  0  0  0  0  0  0  0  0  0
  -22.2960  -14.6190   20.5400 O   0  0  0  0  0  0  0  0  0  0  0  0
  -22.3510  -12.0940   22.4070 H   0  0  0  0  0  0  0  0  0  0  0  0
  -21.0510  -13.2270   22.1590 H   0  0  0  0  0  0  0  0  0  0  0  0
  -25.3660  -15.2580   20.2730 N   0  0  0  0  0  0  0  0  0  0  0  0
  -24.5990  -15.9170   20.3550 H   0  0  0  0  0  0  0  0  0  0  0  0
  -26.2160  -15.6850   19.9300 H   0  0  0  0  0  0  0  0  0  0  0  0
  -30.3280  -21.2140   22.5730 O   0  0  0  0  0  0  0  0  0  0  0  0
  -30.4700  -21.8180   23.2940 H   0  0  0  0  0  0  0  0  0  0  0  0
  -27.9640  -24.8660   19.8000 C   0  0  0  0  0  2  0  0  0  0  0  0
  -28.2390  -26.2910   20.2490 O   0  0  0  0  0  0  0  0  0  0  0  0
  -24.6140  -31.8790   23.2340 C   0  0  0  0  0  0  0  0  0  0  0  0
  -27.1800  -27.2430   20.1570 C   0  0  0  0  0  0  0  0  0  0  0  0
  -23.4020  -30.4870   21.5990 C   0  0  0  0  0  3  0  0  0  0  0  0
  -24.8400  -28.9370   20.1550 C   0  0  0  0  0  0  0  0  0  0  0  0
  -25.9500  -30.7700   21.4170 C   0  0  0  0  0  2  0  0  0  0  0  0
  -26.0170  -29.3880   20.7640 C   0  0  0  0  0  0  0  0  0  0  0  0
  -27.1860  -28.5500   20.7640 C   0  0  0  0  0  3  0  0  0  0  0  0
  -25.9830  -26.8980   19.4790 C   0  0  0  0  0  3  0  0  0  0  0  0
  -24.8310  -27.7010   19.5000 C   0  0  0  0  0  3  0  0  0  0  0  0
  -23.6090  -29.8220   20.2140 C   0  0  0  0  0  2  0  0  0  0  0  0
  -24.6750  -31.0640   22.1380 N   0  0  0  0  0  0  0  0  0  0  0  0
  -23.5320  -32.1600   23.7710 O   0  0  0  0  0  0  0  0  0  0  0  0
  -22.7360  -29.4680   22.5580 C   0  0  0  0  0  0  0  0  0  0  0  0
  -21.4080  -29.2960   22.4390 N   0  0  0  0  0  0  0  0  0  0  0  0
  -23.4160  -28.8380   23.3730 O   0  0  0  0  0  0  0  0  0  0  0  0
  -20.9170  -29.8570   21.7570 H   0  0  0  0  0  0  0  0  0  0  0  0
  -18.0300  -28.1020   22.9560 C   0  0  0  0  0  0  0  0  0  0  0  0
  -20.5900  -28.3620   23.2170 C   0  0  0  0  0  3  0  0  0  0  0  0
  -20.6880  -26.9270   22.6450 C   0  0  0  0  0  2  0  0  0  0  0  0
  -19.5820  -26.6040   21.6350 C   0  0  0  0  0  2  0  0  0  0  0  0
  -18.2020  -26.7510   22.2830 C   0  0  0  0  0  2  0  0  0  0  0  0
  -19.1500  -28.8650   23.3810 C   0  0  0  0  0  0  0  0  0  0  0  0
  -18.9320  -30.1280   23.9730 C   0  0  0  0  0  3  0  0  0  0  0  0
  -17.6280  -30.6280   24.1420 C   0  0  0  0  0  3  0  0  0  0  0  0
  -16.5230  -29.8630   23.7320 C   0  0  0  0  0  3  0  0  0  0  0  0
  -16.7250  -28.6010   23.1450 C   0  0  0  0  0  3  0  0  0  0  0  0
  -25.8980  -32.5100   23.8500 C   0  0  0  0  0  3  0  0  0  0  0  0
  -26.4200  -31.7330   25.1210 C   0  0  1  0  0  0  0  0  0  0  0  0
  -25.3340  -31.4970   26.1970 C   0  0  0  0  0  1  0  0  0  0  0  0
  -26.9950  -30.3540   24.7260 C   0  0  0  0  0  1  0  0  0  0  0  0
  -27.5770  -32.5240   25.7760 C   0  0  0  0  0  1  0  0  0  0  0  0
  -25.5880  -33.9060   24.1900 N   0  0  0  0  0  0  0  0  0  0  0  0
  -25.9030  -34.9640   23.4320 C   0  0  0  0  0  0  0  0  0  0  0  0
  -26.5580  -34.8680   22.3890 O   0  0  0  0  0  0  0  0  0  0  0  0
  -25.0060  -34.0540   25.0020 H   0  0  0  0  0  0  0  0  0  0  0  0
  -24.1640  -36.7540   23.1190 C   0  0  0  0  0  1  0  0  0  0  0  0
  -25.4210  -36.3500   23.9040 C   0  0  0  0  0  3  0  0  0  0  0  0
  -27.5700  -37.2400   24.6920 C   0  0  0  0  0  1  0  0  0  0  0  0
  -26.4480  -37.4080   23.7730 N   0  0  0  0  0  0  0  0  0  0  0  0
  -26.0410  -38.3250   23.9330 H   0  0  0  0  0  0  0  0  0  0  0  0
  1  4  2  0
  2  3  2  0
  2  5  1  0
  3  1  1  0
  4 50  1  0
  5  4  1  0
  6  7  2  0
  6  8  1  0
  7 10  1  0
  8 11  2  0
 10  5  1  0
 10  9  2  0
 11  9  1  0
 11 20  1  0
 12 20  1  0
 13 18  1  0
 14 15  1  0
 14 13  1  0
 16 15  1  0
 16 25  1  0
 16 17  1  0
 18 12  1  0
 18 17  1  0
 19 12  2  0
 20 21  1  0
 22 23  2  0
 23 42  1  0
 24 23  1  0
 24 27  1  0
 25 22  1  0
 25 26  1  0
 26 24  2  0
 27 28  1  0
 28 29  2  0
 30 33  1  0
 30 29  1  0
 31 30  2  0
 32 31  1  0
 32 27  2  0
 33 34  1  0
 34 35  1  0
 35 36  2  0
 37 36  1  0
 37 41  1  0
 38 37  2  0
 39 34  2  0
 39 38  1  0
 40 39  1  0
 42 43  1  0
 43 46  1  0
 43 45  1  0
 44 42  2  0
 47 48  1  0
 47 22  1  0
 49 47  1  0
 50 51  1  0
 52 53  1  0
 52  3  1  0
 54 65  2  0
 55 53  1  0
 55 60  1  0
 56 64  1  0
 56 66  1  0
 57 63  1  0
 57 59  1  0
 58 64  1  0
 59 60  2  0
 59 58  1  0
 61 62  1  0
 61 55  2  0
 62 57  2  0
 63 56  1  0
 64 54  1  0
 66 68  2  0
 67 66  1  0
 69 67  1  0
 70 79  2  0
 70 75  1  0
 71 67  1  0
 71 75  1  0
 72 71  1  0
 73 74  1  0
 73 72  1  0
 74 70  1  0
 75 76  2  0
 76 77  1  0
 78 77  2  0
 79 78  1  0
 80 54  1  0
 80 85  1  0
 80 81  1  0
 81 84  1  1
 81 82  1  0
 83 81  1  0
 85 88  1  0
 86 90  1  0
 86 85  1  0
 87 86  2  0
 90 89  1  0
 92 90  1  0
 92 93  1  0
 92 91  1  0
M  ISO  4  12 100  20 100  52 101  53 101
M  END
>  <TORSDO>  (46) 
F 19

>  <SCORE>  (46) 
-14.648

>  <name>  (46) 
46

>  <ligand_id>  (46) 
46

>  <original_smiles>  (46) 
[H]Oc1c([H])c(C([H])([H])Oc2c([H])c([H])c3c(c2[H])C([H])([H])N(C(=O)C([H])(N([H])C(=O)C([H])(N([H])C([H])([H])[H])C([H])([H])[H])C(C([H])([H])[H])(C([H])([H])[H])C([H])([H])[H])C([H])(C(=O)N([H])C2([H])c4c([H])c([H])c([H])c([H])c4C([H])([H])C([H])([H])C2([H])[H])C3([H])[H])c([H])n1-c1c([H])c([H])c([H])c(N([H])C(=O)N2C([H])([H])C([H])([H])C([H])([H])C([H])(n3nc(-c4c([H])c([H])c(Oc5c([H])c([H])c(F)c([H])c5F)c([H])c4[H])c(C(=O)N([H])[H])c3N([H])[H])C2([H])[H])c1[H]

>  <smiles>  (46) 
[H]Oc1c([H])c(C([H])([H])Oc2c([H])c([H])c3c(c2[H])C([H])([H])N(C(=O)C([H])(N([H])C(=O)C([H])(N([H])C([H])([H])[H])C([H])([H])[H])C(C([H])([H])[H])(C([H])([H])[H])C([H])([H])[H])C([H])(C(=O)N([H])C2([H])c4c([H])c([H])c([H])c([H])c4C([H])([H])C([H])([H])C2([H])[H])C3([H])[H])c([H])n1-c1c([H])c([H])c([H])c(N([H])C(=O)N2C([H])([H])C([H])([H])C([H])([H])C([H])(n3nc(-c4c([H])c([H])c(Oc5c([H])c([H])c(F)c([H])c5F)c([H])c4[H])c(C(=O)N([H])[H])c3N([H])[H])C2([H])[H])c1[H]

$$$$
47:0:0
     RDKit          3D

 96105  0  0  1  0  0  0  0  0999 V2000
  -30.2650  -23.8180   20.1610 C   0  0  0  0  0  3  0  0  0  0  0  0
  -28.9340  -23.8280   20.1970 C   0  0  0  0  0  0  0  0  0  0  0  0
  -30.7370  -22.4430   20.2280 C   0  0  0  0  0  0  0  0  0  0  0  0
  -28.5300  -22.4140   20.3110 C   0  0  0  0  0  0  0  0  0  0  0  0
  -29.6540  -21.6260   20.3170 N   0  0  0  0  0  0  0  0  0  0  0  0
  -31.9190  -22.0870   20.1730 O   0  0  0  0  0  0  0  0  0  0  0  0
  -27.3680  -22.0000   20.3980 O   0  0  0  0  0  0  0  0  0  0  0  0
  -30.7750  -19.4140   21.0160 C   0  0  0  0  0  3  0  0  0  0  0  0
  -30.8330  -17.9870   21.0790 C   0  0  0  0  0  3  0  0  0  0  0  0
  -28.7090  -19.2980   19.8050 C   0  0  0  0  0  3  0  0  0  0  0  0
  -29.7100  -20.1340   20.3840 C   0  0  0  0  0  0  0  0  0  0  0  0
  -29.8150  -17.1780   20.5140 C   0  0  0  0  0  0  0  0  0  0  0  0
  -28.7580  -17.8700   19.8680 C   0  0  0  0  0  0  0  0  0  0  0  0
  -30.5550  -14.6860   20.4290 C   0  0  0  0  0  0  0  0  0  0  0  0
  -30.3740  -12.4480   19.3650 C   0  0  0  0  0  2  0  0  0  0  0  0
  -29.4250  -12.5810   18.1520 C   0  0  0  0  0  2  0  0  0  0  0  0
  -27.9520  -12.4140   18.5780 C   0  0  0  0  0  2  0  0  0  0  0  0
  -27.5890  -13.2710   19.8200 C   0  0  0  0  0  3  0  0  0  0  0  0
  -28.6480  -13.1020   20.9330 C   0  0  0  0  0  2  0  0  0  0  0  0
  -29.9560  -13.4560   20.3570 N   0  0  0  0  0  0  0  0  0  0  0  0
  -31.7330  -14.8530   20.0990 O   0  0  0  0  0  0  0  0  0  0  0  0
  -29.7030  -15.7280   20.6700 N   0  0  0  0  0  0  0  0  0  0  0  0
  -28.7450  -15.4290   20.7730 H   0  0  0  0  0  0  0  0  0  0  0  0
  -25.1980  -13.8790   20.5380 C   0  0  0  0  0  0  0  0  0  0  0  0
  -24.1260  -13.1070   20.8970 C   0  0  0  0  0  0  0  0  0  0  0  0
  -24.5850  -11.7540   20.8640 C   0  0  0  0  0  0  0  0  0  0  0  0
  -26.2390  -12.9950   20.3010 N   0  0  0  0  0  0  0  0  0  0  0  0
  -25.8770  -11.7130   20.5590 N   0  0  0  0  0  0  0  0  0  0  0  0
  -23.8560  -10.4940   21.0500 C   0  0  0  0  0  0  0  0  0  0  0  0
  -24.2830   -9.5260   21.9870 C   0  0  0  0  0  3  0  0  0  0  0  0
  -23.5550   -8.3280   22.1600 C   0  0  0  0  0  3  0  0  0  0  0  0
  -22.3870   -8.0920   21.3970 C   0  0  0  0  0  0  0  0  0  0  0  0
  -21.9800   -9.0490   20.4500 C   0  0  0  0  0  3  0  0  0  0  0  0
  -22.7080  -10.2370   20.2750 C   0  0  0  0  0  3  0  0  0  0  0  0
  -21.6310   -6.9480   21.4800 O   0  0  0  0  0  0  0  0  0  0  0  0
  -21.5710   -6.2070   22.6330 C   0  0  0  0  0  0  0  0  0  0  0  0
  -21.1110   -6.7560   23.8490 C   0  0  0  0  0  3  0  0  0  0  0  0
  -20.9990   -5.9390   24.9930 C   0  0  0  0  0  3  0  0  0  0  0  0
  -21.3380   -4.5760   24.9210 C   0  0  0  0  0  0  0  0  0  0  0  0
  -21.7930   -4.0260   23.7080 C   0  0  0  0  0  3  0  0  0  0  0  0
  -21.9060   -4.8390   22.5680 C   0  0  0  0  0  0  0  0  0  0  0  0
  -22.3240   -4.3000   21.3970 F   0  0  0  0  0  0  0  0  0  0  0  0
  -21.2240   -3.7890   26.0160 F   0  0  0  0  0  0  0  0  0  0  0  0
  -22.7290  -13.5870   21.1620 C   0  0  0  0  0  0  0  0  0  0  0  0
  -21.9970  -12.8910   22.0240 N   0  0  0  0  0  0  0  0  0  0  0  0
  -22.2930  -14.6130   20.6400 O   0  0  0  0  0  0  0  0  0  0  0  0
  -22.3600  -12.0600   22.4650 H   0  0  0  0  0  0  0  0  0  0  0  0
  -21.0600  -13.1940   22.2470 H   0  0  0  0  0  0  0  0  0  0  0  0
  -25.3580  -15.2530   20.3800 N   0  0  0  0  0  0  0  0  0  0  0  0
  -24.5910  -15.8920   20.5520 H   0  0  0  0  0  0  0  0  0  0  0  0
  -26.2040  -15.7420   20.0880 H   0  0  0  0  0  0  0  0  0  0  0  0
  -27.7500  -17.1280   19.2510 N   0  0  0  0  0  0  0  0  0  0  0  0
  -27.1370  -17.6680   18.6470 H   0  0  0  0  0  0  0  0  0  0  0  0
  -28.1010  -16.3250   18.7420 H   0  0  0  0  0  0  0  0  0  0  0  0
  -27.9250  -25.0100   19.9960 C   0  0  0  0  0  2  0  0  0  0  0  0
  -28.2700  -26.4430   20.2190 O   0  0  0  0  0  0  0  0  0  0  0  0
  -24.6110  -31.8870   23.3060 C   0  0  0  0  0  0  0  0  0  0  0  0
  -27.1780  -27.3390   20.1810 C   0  0  0  0  0  0  0  0  0  0  0  0
  -23.3930  -30.5130   21.6610 C   0  0  0  0  0  3  0  0  0  0  0  0
  -24.8260  -28.9840   20.2100 C   0  0  0  0  0  0  0  0  0  0  0  0
  -25.9360  -30.8220   21.4650 C   0  0  0  0  0  2  0  0  0  0  0  0
  -26.0080  -29.4510   20.8030 C   0  0  0  0  0  0  0  0  0  0  0  0
  -27.1870  -28.6430   20.7780 C   0  0  0  0  0  3  0  0  0  0  0  0
  -25.9640  -26.9450   19.5620 C   0  0  0  0  0  3  0  0  0  0  0  0
  -24.8090  -27.7370   19.5820 C   0  0  0  0  0  3  0  0  0  0  0  0
  -23.5960  -29.8630   20.2720 C   0  0  0  0  0  2  0  0  0  0  0  0
  -24.6670  -31.0890   22.2020 N   0  0  0  0  0  0  0  0  0  0  0  0
  -23.5310  -32.1620   23.8480 O   0  0  0  0  0  0  0  0  0  0  0  0
  -22.7310  -29.4840   22.6100 C   0  0  0  0  0  0  0  0  0  0  0  0
  -21.4070  -29.2960   22.4740 N   0  0  0  0  0  0  0  0  0  0  0  0
  -23.4110  -28.8590   23.4290 O   0  0  0  0  0  0  0  0  0  0  0  0
  -20.9160  -29.8590   21.7940 H   0  0  0  0  0  0  0  0  0  0  0  0
  -18.0380  -28.0630   22.9370 C   0  0  0  0  0  0  0  0  0  0  0  0
  -20.5900  -28.3500   23.2370 C   0  0  0  0  0  3  0  0  0  0  0  0
  -20.7140  -26.9180   22.6660 C   0  0  0  0  0  2  0  0  0  0  0  0
  -19.6280  -26.5800   21.6410 C   0  0  0  0  0  2  0  0  0  0  0  0
  -18.2360  -26.7130   22.2660 C   0  0  0  0  0  2  0  0  0  0  0  0
  -19.1430  -28.8370   23.3790 C   0  0  0  0  0  0  0  0  0  0  0  0
  -18.9050  -30.0990   23.9650 C   0  0  0  0  0  3  0  0  0  0  0  0
  -17.5930  -30.5880   24.1130 C   0  0  0  0  0  3  0  0  0  0  0  0
  -16.5020  -29.8100   23.6890 C   0  0  0  0  0  3  0  0  0  0  0  0
  -16.7240  -28.5490   23.1070 C   0  0  0  0  0  3  0  0  0  0  0  0
  -25.8980  -32.5110   23.9270 C   0  0  0  0  0  3  0  0  0  0  0  0
  -26.4040  -31.7370   25.2050 C   0  0  1  0  0  0  0  0  0  0  0  0
  -25.3030  -31.5160   26.2700 C   0  0  0  0  0  1  0  0  0  0  0  0
  -26.9710  -30.3530   24.8150 C   0  0  0  0  0  1  0  0  0  0  0  0
  -27.5630  -32.5190   25.8670 C   0  0  0  0  0  1  0  0  0  0  0  0
  -25.6030  -33.9120   24.2530 N   0  0  0  0  0  0  0  0  0  0  0  0
  -25.9130  -34.9580   23.4740 C   0  0  0  0  0  0  0  0  0  0  0  0
  -26.5500  -34.8440   22.4230 O   0  0  0  0  0  0  0  0  0  0  0  0
  -25.0410  -34.0780   25.0750 H   0  0  0  0  0  0  0  0  0  0  0  0
  -24.1690  -36.7410   23.1680 C   0  0  0  0  0  1  0  0  0  0  0  0
  -25.4440  -36.3500   23.9330 C   0  0  0  0  0  3  0  0  0  0  0  0
  -27.6090  -37.2500   24.6630 C   0  0  0  0  0  1  0  0  0  0  0  0
  -26.4680  -37.4040   23.7640 N   0  0  0  0  0  0  0  0  0  0  0  0
  -26.0650  -38.3240   23.9200 H   0  0  0  0  0  0  0  0  0  0  0  0
  1  2  2  0
  1  3  1  0
  2  4  1  0
  3  5  1  0
  4  5  1  0
  4  7  2  0
  5 11  1  0
  6  3  2  0
  8  9  1  0
 10 13  2  0
 10 11  1  0
 11  8  2  0
 12 22  1  0
 12  9  2  0
 13 12  1  0
 14 22  1  0
 15 20  1  0
 16 17  1  0
 16 15  1  0
 18 17  1  0
 18 27  1  0
 18 19  1  0
 20 14  1  0
 20 19  1  0
 21 14  2  0
 22 23  1  0
 24 25  2  0
 25 44  1  0
 26 25  1  0
 26 29  1  0
 27 24  1  0
 27 28  1  0
 28 26  2  0
 29 30  1  0
 30 31  2  0
 32 35  1  0
 32 31  1  0
 33 32  2  0
 34 33  1  0
 34 29  2  0
 35 36  1  0
 36 37  1  0
 37 38  2  0
 39 38  1  0
 39 43  1  0
 40 39  2  0
 41 36  2  0
 41 40  1  0
 42 41  1  0
 44 45  1  0
 45 48  1  0
 45 47  1  0
 46 44  2  0
 49 24  1  0
 49 50  1  0
 51 49  1  0
 52 13  1  0
 53 52  1  0
 54 52  1  0
 55  2  1  0
 55 56  1  0
 57 68  2  0
 58 56  1  0
 58 63  1  0
 59 67  1  0
 59 69  1  0
 60 66  1  0
 60 62  1  0
 61 67  1  0
 62 61  1  0
 63 62  2  0
 64 65  1  0
 64 58  2  0
 65 60  2  0
 66 59  1  0
 67 57  1  0
 69 71  2  0
 70 69  1  0
 72 70  1  0
 73 82  2  0
 73 78  1  0
 74 70  1  0
 74 78  1  0
 75 74  1  0
 76 77  1  0
 76 75  1  0
 77 73  1  0
 78 79  2  0
 79 80  1  0
 81 80  2  0
 82 81  1  0
 83 57  1  0
 83 88  1  0
 83 84  1  0
 84 87  1  1
 84 85  1  0
 86 84  1  0
 88 91  1  0
 89 93  1  0
 89 88  1  0
 90 89  2  0
 93 92  1  0
 95 96  1  0
 95 93  1  0
 95 94  1  0
M  ISO  4  14 100  22 100  55 101  56 101
M  END
>  <TORSDO>  (47) 
F 19

>  <SCORE>  (47) 
-14.862

>  <name>  (47) 
47

>  <ligand_id>  (47) 
47

>  <original_smiles>  (47) 
[H]C1=C(C([H])([H])Oc2c([H])c([H])c3c(c2[H])C([H])([H])N(C(=O)C([H])(N([H])C(=O)C([H])(N([H])C([H])([H])[H])C([H])([H])[H])C(C([H])([H])[H])(C([H])([H])[H])C([H])([H])[H])C([H])(C(=O)N([H])C2([H])c4c([H])c([H])c([H])c([H])c4C([H])([H])C([H])([H])C2([H])[H])C3([H])[H])C(=O)N(c2c([H])c([H])c(N([H])C(=O)N3C([H])([H])C([H])([H])C([H])([H])C([H])(n4nc(-c5c([H])c([H])c(Oc6c([H])c([H])c(F)c([H])c6F)c([H])c5[H])c(C(=O)N([H])[H])c4N([H])[H])C3([H])[H])c(N([H])[H])c2[H])C1=O

>  <smiles>  (47) 
[H]C1=C(C([H])([H])Oc2c([H])c([H])c3c(c2[H])C([H])([H])N(C(=O)C([H])(N([H])C(=O)C([H])(N([H])C([H])([H])[H])C([H])([H])[H])C(C([H])([H])[H])(C([H])([H])[H])C([H])([H])[H])C([H])(C(=O)N([H])C2([H])c4c([H])c([H])c([H])c([H])c4C([H])([H])C([H])([H])C2([H])[H])C3([H])[H])C(=O)N(c2c([H])c([H])c(N([H])C(=O)N3C([H])([H])C([H])([H])C([H])([H])C([H])(n4nc(-c5c([H])c([H])c(Oc6c([H])c([H])c(F)c([H])c6F)c([H])c5[H])c(C(=O)N([H])[H])c4N([H])[H])C3([H])[H])c(N([H])[H])c2[H])C1=O

$$$$
48:0:0
     RDKit          3D

 93102  0  0  1  0  0  0  0  0999 V2000
  -27.9980  -23.2730   21.0590 C   0  0  0  0  0  3  0  0  0  0  0  0
  -28.6750  -23.8200   20.0410 C   0  0  0  0  0  0  0  0  0  0  0  0
  -28.3500  -21.8590   21.2140 C   0  0  0  0  0  0  0  0  0  0  0  0
  -29.4790  -22.6840   19.5130 C   0  0  0  0  0  0  0  0  0  0  0  0
  -29.2480  -21.5350   20.2540 N   0  0  0  0  0  0  0  0  0  0  0  0
  -27.9060  -21.0810   22.0650 O   0  0  0  0  0  0  0  0  0  0  0  0
  -30.2270  -22.7350   18.5300 O   0  0  0  0  0  0  0  0  0  0  0  0
  -32.3220  -19.3120   20.1680 C   0  0  0  0  0  3  0  0  0  0  0  0
  -31.4430  -20.4060   20.1480 C   0  0  0  0  0  3  0  0  0  0  0  0
  -31.8540  -17.9900   20.2420 C   0  0  0  0  0  3  0  0  0  0  0  0
  -29.5800  -18.8460   20.2910 C   0  0  0  0  0  3  0  0  0  0  0  0
  -30.0400  -20.2460   20.2140 C   0  0  0  0  0  0  0  0  0  0  0  0
  -30.4740  -17.6730   20.2850 C   0  0  0  0  0  0  0  0  0  0  0  0
  -30.7840  -15.0350   20.1030 C   0  0  0  0  0  0  0  0  0  0  0  0
  -30.5330  -12.7510   19.1010 C   0  0  0  0  0  2  0  0  0  0  0  0
  -29.5550  -12.8070   17.9080 C   0  0  0  0  0  2  0  0  0  0  0  0
  -28.1070  -12.6140   18.3940 C   0  0  0  0  0  2  0  0  0  0  0  0
  -27.7690  -13.4970   19.6260 C   0  0  0  0  0  3  0  0  0  0  0  0
  -28.8710  -13.4460   20.7050 C   0  0  0  0  0  2  0  0  0  0  0  0
  -30.1320  -13.8170   20.0550 N   0  0  0  0  0  0  0  0  0  0  0  0
  -31.9610  -15.0600   19.7380 O   0  0  0  0  0  0  0  0  0  0  0  0
  -30.0660  -16.2190   20.3440 N   0  0  0  0  0  0  0  0  0  0  0  0
  -29.0900  -16.0600   20.5460 H   0  0  0  0  0  0  0  0  0  0  0  0
  -25.4180  -14.0540   20.4810 C   0  0  0  0  0  0  0  0  0  0  0  0
  -24.3710  -13.2650   20.8720 C   0  0  0  0  0  0  0  0  0  0  0  0
  -24.8340  -11.9170   20.7790 C   0  0  0  0  0  0  0  0  0  0  0  0
  -26.4510  -13.1850   20.1700 N   0  0  0  0  0  0  0  0  0  0  0  0
  -26.1110  -11.8920   20.4140 N   0  0  0  0  0  0  0  0  0  0  0  0
  -24.1170  -10.6470   20.9590 C   0  0  0  0  0  0  0  0  0  0  0  0
  -24.5490   -9.6800   21.8940 C   0  0  0  0  0  3  0  0  0  0  0  0
  -23.8310   -8.4770   22.0640 C   0  0  0  0  0  3  0  0  0  0  0  0
  -22.6660   -8.2320   21.2970 C   0  0  0  0  0  0  0  0  0  0  0  0
  -22.2540   -9.1880   20.3520 C   0  0  0  0  0  3  0  0  0  0  0  0
  -22.9730  -10.3820   20.1810 C   0  0  0  0  0  3  0  0  0  0  0  0
  -21.9190   -7.0810   21.3760 O   0  0  0  0  0  0  0  0  0  0  0  0
  -21.8130   -6.3700   22.5440 C   0  0  0  0  0  0  0  0  0  0  0  0
  -21.2670   -6.9390   23.7160 C   0  0  0  0  0  3  0  0  0  0  0  0
  -21.1130   -6.1510   24.8740 C   0  0  0  0  0  3  0  0  0  0  0  0
  -21.4940   -4.7970   24.8620 C   0  0  0  0  0  0  0  0  0  0  0  0
  -22.0340   -4.2280   23.6950 C   0  0  0  0  0  3  0  0  0  0  0  0
  -22.1890   -5.0120   22.5390 C   0  0  0  0  0  0  0  0  0  0  0  0
  -22.6900   -4.4530   21.4110 F   0  0  0  0  0  0  0  0  0  0  0  0
  -21.3390   -4.0380   25.9730 F   0  0  0  0  0  0  0  0  0  0  0  0
  -22.9860  -13.7310   21.2170 C   0  0  0  0  0  0  0  0  0  0  0  0
  -22.2960  -13.0060   22.0910 N   0  0  0  0  0  0  0  0  0  0  0  0
  -22.5280  -14.7700   20.7470 O   0  0  0  0  0  0  0  0  0  0  0  0
  -22.6820  -12.1650   22.4920 H   0  0  0  0  0  0  0  0  0  0  0  0
  -21.3690  -13.2990   22.3630 H   0  0  0  0  0  0  0  0  0  0  0  0
  -25.5710  -15.4290   20.3380 N   0  0  0  0  0  0  0  0  0  0  0  0
  -24.8040  -16.0740   20.4960 H   0  0  0  0  0  0  0  0  0  0  0  0
  -26.3920  -15.8800   19.9550 H   0  0  0  0  0  0  0  0  0  0  0  0
  -28.5500  -25.2810   19.3780 C   0  0  0  0  0  2  0  0  0  0  0  0
  -28.4080  -26.5740   20.1490 O   0  0  0  0  0  0  0  0  0  0  0  0
  -24.6300  -31.9660   23.2260 C   0  0  0  0  0  0  0  0  0  0  0  0
  -27.2870  -27.4440   20.0700 C   0  0  0  0  0  0  0  0  0  0  0  0
  -23.4390  -30.5740   21.5730 C   0  0  0  0  0  3  0  0  0  0  0  0
  -24.9030  -29.0680   20.1040 C   0  0  0  0  0  0  0  0  0  0  0  0
  -25.9760  -30.9210   21.3800 C   0  0  0  0  0  2  0  0  0  0  0  0
  -26.0720  -29.5500   20.7050 C   0  0  0  0  0  0  0  0  0  0  0  0
  -27.2610  -28.7490   20.6790 C   0  0  0  0  0  3  0  0  0  0  0  0
  -26.0860  -27.0300   19.4510 C   0  0  0  0  0  3  0  0  0  0  0  0
  -24.9170  -27.8170   19.4680 C   0  0  0  0  0  3  0  0  0  0  0  0
  -23.6540  -29.9260   20.1790 C   0  0  0  0  0  2  0  0  0  0  0  0
  -24.7020  -31.1730   22.1160 N   0  0  0  0  0  0  0  0  0  0  0  0
  -23.5450  -32.2170   23.7720 O   0  0  0  0  0  0  0  0  0  0  0  0
  -22.7980  -29.5320   22.5220 C   0  0  0  0  0  0  0  0  0  0  0  0
  -21.4740  -29.3330   22.4030 N   0  0  0  0  0  0  0  0  0  0  0  0
  -23.4930  -28.9070   23.3280 O   0  0  0  0  0  0  0  0  0  0  0  0
  -20.9710  -29.8920   21.7290 H   0  0  0  0  0  0  0  0  0  0  0  0
  -18.1220  -28.0670   22.9140 C   0  0  0  0  0  0  0  0  0  0  0  0
  -20.6780  -28.3690   23.1650 C   0  0  0  0  0  3  0  0  0  0  0  0
  -20.8000  -26.9500   22.5650 C   0  0  0  0  0  2  0  0  0  0  0  0
  -19.6950  -26.6240   21.5550 C   0  0  0  0  0  2  0  0  0  0  0  0
  -18.3160  -26.7330   22.2130 C   0  0  0  0  0  2  0  0  0  0  0  0
  -19.2310  -28.8420   23.3480 C   0  0  0  0  0  0  0  0  0  0  0  0
  -18.9940  -30.0900   23.9640 C   0  0  0  0  0  3  0  0  0  0  0  0
  -17.6820  -30.5640   24.1510 C   0  0  0  0  0  3  0  0  0  0  0  0
  -16.5880  -29.7860   23.7340 C   0  0  0  0  0  3  0  0  0  0  0  0
  -16.8090  -28.5390   23.1210 C   0  0  0  0  0  3  0  0  0  0  0  0
  -25.9040  -32.6120   23.8500 C   0  0  0  0  0  3  0  0  0  0  0  0
  -25.5820  -34.0100   24.1750 N   0  0  0  0  0  0  0  0  0  0  0  0
  -25.9090  -35.0660   23.4180 C   0  0  0  0  0  0  0  0  0  0  0  0
  -26.5850  -34.9660   22.3910 O   0  0  0  0  0  0  0  0  0  0  0  0
  -24.9810  -34.1600   24.9720 H   0  0  0  0  0  0  0  0  0  0  0  0
  -24.1800  -36.8550   23.0450 C   0  0  0  0  0  1  0  0  0  0  0  0
  -25.4110  -36.4520   23.8730 C   0  0  0  0  0  3  0  0  0  0  0  0
  -27.5250  -37.3480   24.7450 C   0  0  0  0  0  1  0  0  0  0  0  0
  -26.4420  -37.5090   23.7780 N   0  0  0  0  0  0  0  0  0  0  0  0
  -26.0290  -38.4270   23.9140 H   0  0  0  0  0  0  0  0  0  0  0  0
  -26.4220  -31.8530   25.1320 C   0  0  1  0  0  0  0  0  0  0  0  0
  -25.3250  -31.6030   26.1940 C   0  0  0  0  0  1  0  0  0  0  0  0
  -27.0280  -30.4830   24.7520 C   0  0  0  0  0  1  0  0  0  0  0  0
  -27.5560  -32.6660   25.8010 C   0  0  0  0  0  1  0  0  0  0  0  0
  1  3  1  0
  2  1  2  0
  3  6  2  0
  4  2  1  0
  4  5  1  0
  5  3  1  0
  7  4  2  0
  8 10  1  0
  9  8  2  0
  9 12  1  0
 10 13  2  0
 12  5  1  0
 12 11  2  0
 13 11  1  0
 13 22  1  0
 14 22  1  0
 15 20  1  0
 16 17  1  0
 16 15  1  0
 18 17  1  0
 18 27  1  0
 18 19  1  0
 20 14  1  0
 20 19  1  0
 21 14  2  0
 22 23  1  0
 24 25  2  0
 25 44  1  0
 26 25  1  0
 26 29  1  0
 27 28  1  0
 27 24  1  0
 28 26  2  0
 29 30  1  0
 30 31  2  0
 32 35  1  0
 32 31  1  0
 33 32  2  0
 34 33  1  0
 34 29  2  0
 35 36  1  0
 36 37  1  0
 37 38  2  0
 39 38  1  0
 39 43  1  0
 40 39  2  0
 41 36  2  0
 41 40  1  0
 42 41  1  0
 44 45  1  0
 45 48  1  0
 45 47  1  0
 46 44  2  0
 49 24  1  0
 49 50  1  0
 51 49  1  0
 52  2  1  0
 52 53  1  0
 54 65  2  0
 55 53  1  0
 55 60  1  0
 56 64  1  0
 56 66  1  0
 57 63  1  0
 57 59  1  0
 58 64  1  0
 59 58  1  0
 60 59  2  0
 61 62  1  0
 61 55  2  0
 62 57  2  0
 63 56  1  0
 64 54  1  0
 66 68  2  0
 67 66  1  0
 69 67  1  0
 70 79  2  0
 70 75  1  0
 71 67  1  0
 71 75  1  0
 72 71  1  0
 73 74  1  0
 73 72  1  0
 74 70  1  0
 75 76  2  0
 76 77  1  0
 78 77  2  0
 79 78  1  0
 80 54  1  0
 80 81  1  0
 80 90  1  0
 81 84  1  0
 82 86  1  0
 82 81  1  0
 83 82  2  0
 86 85  1  0
 88 86  1  0
 88 89  1  0
 88 87  1  0
 90 93  1  1
 90 91  1  0
 92 90  1  0
M  ISO  4  14 100  22 100  52 101  53 101
M  END
>  <TORSDO>  (48) 
F 18

>  <SCORE>  (48) 
-14.060

>  <name>  (48) 
48

>  <ligand_id>  (48) 
48

>  <original_smiles>  (48) 
[H]C1=C(C([H])([H])Oc2c([H])c([H])c3c(c2[H])C([H])([H])N(C(=O)C([H])(N([H])C(=O)C([H])(N([H])C([H])([H])[H])C([H])([H])[H])C(C([H])([H])[H])(C([H])([H])[H])C([H])([H])[H])C([H])(C(=O)N([H])C2([H])c4c([H])c([H])c([H])c([H])c4C([H])([H])C([H])([H])C2([H])[H])C3([H])[H])C(=O)N(c2c([H])c([H])c([H])c(N([H])C(=O)N3C([H])([H])C([H])([H])C([H])([H])C([H])(n4nc(-c5c([H])c([H])c(Oc6c([H])c([H])c(F)c([H])c6F)c([H])c5[H])c(C(=O)N([H])[H])c4N([H])[H])C3([H])[H])c2[H])C1=O

>  <smiles>  (48) 
[H]C1=C(C([H])([H])Oc2c([H])c([H])c3c(c2[H])C([H])([H])N(C(=O)C([H])(N([H])C(=O)C([H])(N([H])C([H])([H])[H])C([H])([H])[H])C(C([H])([H])[H])(C([H])([H])[H])C([H])([H])[H])C([H])(C(=O)N([H])C2([H])c4c([H])c([H])c([H])c([H])c4C([H])([H])C([H])([H])C2([H])[H])C3([H])[H])C(=O)N(c2c([H])c([H])c([H])c(N([H])C(=O)N3C([H])([H])C([H])([H])C([H])([H])C([H])(n4nc(-c5c([H])c([H])c(Oc6c([H])c([H])c(F)c([H])c6F)c([H])c5[H])c(C(=O)N([H])[H])c4N([H])[H])C3([H])[H])c2[H])C1=O

$$$$
49:0:0
     RDKit          3D

 97106  0  0  1  0  0  0  0  0999 V2000
  -27.6610  -21.5790   19.9630 C   0  0  0  0  0  0  0  0  0  0  0  0
  -29.5180  -22.6780   20.3070 C   0  0  0  0  0  0  0  0  0  0  0  0
  -27.2210  -23.0610   20.0340 C   0  0  0  0  0  2  0  0  0  0  0  0
  -28.5190  -23.8990   20.0530 C   0  0  0  0  0  3  0  0  0  0  0  0
  -28.9860  -21.4090   20.1160 N   0  0  0  0  0  0  0  0  0  0  0  0
  -26.8380  -20.6690   19.7970 O   0  0  0  0  0  0  0  0  0  0  0  0
  -30.6870  -22.8850   20.6570 O   0  0  0  0  0  0  0  0  0  0  0  0
  -30.6310  -20.2630   18.6870 C   0  0  0  0  0  3  0  0  0  0  0  0
  -31.2490  -19.1500   18.0990 C   0  0  0  0  0  3  0  0  0  0  0  0
  -29.5120  -18.7450   20.2230 C   0  0  0  0  0  3  0  0  0  0  0  0
  -29.7060  -20.1290   19.7440 C   0  0  0  0  0  0  0  0  0  0  0  0
  -31.0260  -17.8350   18.5480 C   0  0  0  0  0  0  0  0  0  0  0  0
  -30.1950  -17.5540   19.6740 C   0  0  0  0  0  0  0  0  0  0  0  0
  -30.7350  -14.9420   19.9940 C   0  0  0  0  0  0  0  0  0  0  0  0
  -30.5100  -12.6420   19.0310 C   0  0  0  0  0  2  0  0  0  0  0  0
  -29.5210  -12.6820   17.8460 C   0  0  0  0  0  2  0  0  0  0  0  0
  -28.0750  -12.4910   18.3440 C   0  0  0  0  0  2  0  0  0  0  0  0
  -27.7420  -13.3790   19.5740 C   0  0  0  0  0  3  0  0  0  0  0  0
  -28.8540  -13.3380   20.6440 C   0  0  0  0  0  2  0  0  0  0  0  0
  -30.1070  -13.7110   19.9800 N   0  0  0  0  0  0  0  0  0  0  0  0
  -31.9370  -14.9720   19.7130 O   0  0  0  0  0  0  0  0  0  0  0  0
  -29.9790  -16.1210   20.1320 N   0  0  0  0  0  0  0  0  0  0  0  0
  -29.0660  -15.9550   20.5200 H   0  0  0  0  0  0  0  0  0  0  0  0
  -25.4040  -13.9390   20.4540 C   0  0  0  0  0  0  0  0  0  0  0  0
  -24.3600  -13.1520   20.8600 C   0  0  0  0  0  0  0  0  0  0  0  0
  -24.8240  -11.8030   20.7680 C   0  0  0  0  0  0  0  0  0  0  0  0
  -26.4320  -13.0690   20.1340 N   0  0  0  0  0  0  0  0  0  0  0  0
  -26.0960  -11.7780   20.3910 N   0  0  0  0  0  0  0  0  0  0  0  0
  -24.1080  -10.5350   20.9620 C   0  0  0  0  0  0  0  0  0  0  0  0
  -24.5490   -9.5730   21.8980 C   0  0  0  0  0  3  0  0  0  0  0  0
  -23.8330   -8.3700   22.0800 C   0  0  0  0  0  3  0  0  0  0  0  0
  -22.6620   -8.1200   21.3270 C   0  0  0  0  0  0  0  0  0  0  0  0
  -22.2410   -9.0700   20.3800 C   0  0  0  0  0  3  0  0  0  0  0  0
  -22.9570  -10.2650   20.1950 C   0  0  0  0  0  3  0  0  0  0  0  0
  -21.9170   -6.9690   21.4180 O   0  0  0  0  0  0  0  0  0  0  0  0
  -21.8280   -6.2600   22.5880 C   0  0  0  0  0  0  0  0  0  0  0  0
  -21.2760   -6.8210   23.7610 C   0  0  0  0  0  3  0  0  0  0  0  0
  -21.1400   -6.0350   24.9210 C   0  0  0  0  0  3  0  0  0  0  0  0
  -21.5470   -4.6870   24.9120 C   0  0  0  0  0  0  0  0  0  0  0  0
  -22.0920   -4.1240   23.7440 C   0  0  0  0  0  3  0  0  0  0  0  0
  -22.2300   -4.9080   22.5850 C   0  0  0  0  0  0  0  0  0  0  0  0
  -22.7370   -4.3560   21.4570 F   0  0  0  0  0  0  0  0  0  0  0  0
  -21.4110   -3.9280   26.0250 F   0  0  0  0  0  0  0  0  0  0  0  0
  -22.9780  -13.6180   21.2130 C   0  0  0  0  0  0  0  0  0  0  0  0
  -22.2930  -12.8920   22.0890 N   0  0  0  0  0  0  0  0  0  0  0  0
  -22.5170  -14.6590   20.7470 O   0  0  0  0  0  0  0  0  0  0  0  0
  -22.6840  -12.0510   22.4890 H   0  0  0  0  0  0  0  0  0  0  0  0
  -21.3660  -13.1830   22.3640 H   0  0  0  0  0  0  0  0  0  0  0  0
  -25.5570  -15.3140   20.3040 N   0  0  0  0  0  0  0  0  0  0  0  0
  -24.7910  -15.9590   20.4680 H   0  0  0  0  0  0  0  0  0  0  0  0
  -26.3710  -15.7640   19.9080 H   0  0  0  0  0  0  0  0  0  0  0  0
  -31.6250  -16.8390   17.7820 N   0  0  0  0  0  0  0  0  0  0  0  0
  -32.3740  -17.1280   17.1630 H   0  0  0  0  0  0  0  0  0  0  0  0
  -31.8920  -16.0180   18.3350 H   0  0  0  0  0  0  0  0  0  0  0  0
  -28.4480  -25.1020   21.0000 N   0  0  0  0  0  0  0  0  0  0  0  0
  -27.5530  -25.1230   21.4760 H   0  0  0  0  0  0  0  0  0  0  0  0
  -28.5880  -26.4820   20.3190 O   0  0  0  0  0  0  0  0  0  0  0  0
  -24.6610  -31.9080   23.3000 C   0  0  0  0  0  0  0  0  0  0  0  0
  -27.4610  -27.3370   20.3620 C   0  0  0  0  0  0  0  0  0  0  0  0
  -23.5460  -30.4860   21.6180 C   0  0  0  0  0  3  0  0  0  0  0  0
  -25.0790  -28.9480   20.2540 C   0  0  0  0  0  0  0  0  0  0  0  0
  -26.0890  -30.8340   21.5330 C   0  0  0  0  0  2  0  0  0  0  0  0
  -26.2180  -29.4460   20.9000 C   0  0  0  0  0  0  0  0  0  0  0  0
  -27.4120  -28.6520   20.9470 C   0  0  0  0  0  3  0  0  0  0  0  0
  -26.2990  -26.9060   19.6930 C   0  0  0  0  0  3  0  0  0  0  0  0
  -25.1240  -27.6840   19.6430 C   0  0  0  0  0  3  0  0  0  0  0  0
  -23.8280  -29.8090   20.2490 C   0  0  0  0  0  2  0  0  0  0  0  0
  -24.7820  -31.0970   22.2070 N   0  0  0  0  0  0  0  0  0  0  0  0
  -23.5530  -32.1640   23.7960 O   0  0  0  0  0  0  0  0  0  0  0  0
  -22.8650  -29.4600   22.5560 C   0  0  0  0  0  0  0  0  0  0  0  0
  -21.5410  -29.2850   22.4070 N   0  0  0  0  0  0  0  0  0  0  0  0
  -23.5290  -28.8250   23.3780 O   0  0  0  0  0  0  0  0  0  0  0  0
  -21.0620  -29.8500   21.7200 H   0  0  0  0  0  0  0  0  0  0  0  0
  -18.1470  -28.1210   22.8870 C   0  0  0  0  0  0  0  0  0  0  0  0
  -20.7110  -28.3360   23.1510 C   0  0  0  0  0  3  0  0  0  0  0  0
  -20.7890  -26.9220   22.5320 C   0  0  0  0  0  2  0  0  0  0  0  0
  -19.6780  -26.6470   21.5130 C   0  0  0  0  0  2  0  0  0  0  0  0
  -18.3010  -26.7920   22.1680 C   0  0  0  0  0  2  0  0  0  0  0  0
  -19.2790  -28.8540   23.3350 C   0  0  0  0  0  0  0  0  0  0  0  0
  -19.0800  -30.1000   23.9680 C   0  0  0  0  0  3  0  0  0  0  0  0
  -17.7830  -30.6140   24.1570 C   0  0  0  0  0  3  0  0  0  0  0  0
  -16.6660  -29.8770   23.7260 C   0  0  0  0  0  3  0  0  0  0  0  0
  -16.8490  -28.6330   23.0960 C   0  0  0  0  0  3  0  0  0  0  0  0
  -25.9050  -32.5680   23.9690 C   0  0  0  0  0  3  0  0  0  0  0  0
  -26.3640  -31.8330   25.2890 C   0  0  1  0  0  0  0  0  0  0  0  0
  -25.2200  -31.6090   26.3060 C   0  0  0  0  0  1  0  0  0  0  0  0
  -26.9800  -30.4540   24.9640 C   0  0  0  0  0  1  0  0  0  0  0  0
  -27.4660  -32.6590   25.9910 C   0  0  0  0  0  1  0  0  0  0  0  0
  -25.5690  -33.9720   24.2510 N   0  0  0  0  0  0  0  0  0  0  0  0
  -25.9100  -35.0090   23.4740 C   0  0  0  0  0  0  0  0  0  0  0  0
  -26.6080  -34.8850   22.4630 O   0  0  0  0  0  0  0  0  0  0  0  0
  -24.9520  -34.1400   25.0310 H   0  0  0  0  0  0  0  0  0  0  0  0
  -24.1760  -36.7760   23.0250 C   0  0  0  0  0  1  0  0  0  0  0  0
  -25.3970  -36.4030   23.8810 C   0  0  0  0  0  3  0  0  0  0  0  0
  -27.4900  -37.3440   24.7610 C   0  0  0  0  0  1  0  0  0  0  0  0
  -26.4220  -37.4650   23.7710 N   0  0  0  0  0  0  0  0  0  0  0  0
  -26.0000  -38.3840   23.8700 H   0  0  0  0  0  0  0  0  0  0  0  0
  1  3  1  0
  1  5  1  0
  2  7  2  0
  3  4  1  0
  4  2  1  0
  4 55  1  0
  5  2  1  0
  6  1  2  0
  8 11  1  0
  9 12  1  0
  9  8  2  0
 11  5  1  0
 11 10  2  0
 12 13  2  0
 13 22  1  0
 13 10  1  0
 14 22  1  0
 15 20  1  0
 16 17  1  0
 16 15  1  0
 18 17  1  0
 18 27  1  0
 18 19  1  0
 20 14  1  0
 20 19  1  0
 21 14  2  0
 22 23  1  0
 24 25  2  0
 25 44  1  0
 26 25  1  0
 26 29  1  0
 27 28  1  0
 27 24  1  0
 28 26  2  0
 29 30  1  0
 30 31  2  0
 32 35  1  0
 32 31  1  0
 33 32  2  0
 34 33  1  0
 34 29  2  0
 35 36  1  0
 36 37  1  0
 37 38  2  0
 39 38  1  0
 39 43  1  0
 40 39  2  0
 41 36  2  0
 41 40  1  0
 42 41  1  0
 44 45  1  0
 45 48  1  0
 45 47  1  0
 46 44  2  0
 49 24  1  0
 49 50  1  0
 51 49  1  0
 52 54  1  0
 52 12  1  0
 53 52  1  0
 55 56  1  0
 57 59  1  0
 57 55  1  0
 58 69  2  0
 59 64  1  0
 60 68  1  0
 60 70  1  0
 61 63  1  0
 62 68  1  0
 63 64  2  0
 63 62  1  0
 65 59  2  0
 66 65  1  0
 66 61  2  0
 67 61  1  0
 67 60  1  0
 68 58  1  0
 70 72  2  0
 71 70  1  0
 73 71  1  0
 74 83  2  0
 74 79  1  0
 75 71  1  0
 75 79  1  0
 76 75  1  0
 77 78  1  0
 77 76  1  0
 78 74  1  0
 79 80  2  0
 80 81  1  0
 82 81  2  0
 83 82  1  0
 84 58  1  0
 84 89  1  0
 84 85  1  0
 85 88  1  1
 85 86  1  0
 87 85  1  0
 89 92  1  0
 90 94  1  0
 90 89  1  0
 91 90  2  0
 94 93  1  0
 96 97  1  0
 96 94  1  0
 96 95  1  0
M  ISO  4  14 100  22 100  55 101  57 101
M  END
>  <TORSDO>  (49) 
F 19

>  <SCORE>  (49) 
-14.179

>  <name>  (49) 
49

>  <ligand_id>  (49) 
49

>  <original_smiles>  (49) 
[H]c1c([H])c([H])c2c(c1[H])C([H])([H])C([H])([H])C([H])([H])C2([H])N([H])C(=O)C1([H])N(C(=O)C([H])(N([H])C(=O)C([H])(N([H])C([H])([H])[H])C([H])([H])[H])C(C([H])([H])[H])(C([H])([H])[H])C([H])([H])[H])C([H])([H])c2c([H])c(ON([H])C3([H])C(=O)N(c4c([H])c([H])c(N([H])[H])c(N([H])C(=O)N5C([H])([H])C([H])([H])C([H])([H])C([H])(n6nc(-c7c([H])c([H])c(Oc8c([H])c([H])c(F)c([H])c8F)c([H])c7[H])c(C(=O)N([H])[H])c6N([H])[H])C5([H])[H])c4[H])C(=O)C3([H])[H])c([H])c([H])c2C1([H])[H]

>  <smiles>  (49) 
[H]c1c([H])c([H])c2c(c1[H])C([H])([H])C([H])([H])C([H])([H])C2([H])N([H])C(=O)C1([H])N(C(=O)C([H])(N([H])C(=O)C([H])(N([H])C([H])([H])[H])C([H])([H])[H])C(C([H])([H])[H])(C([H])([H])[H])C([H])([H])[H])C([H])([H])c2c([H])c(ON([H])C3([H])C(=O)N(c4c([H])c([H])c(N([H])[H])c(N([H])C(=O)N5C([H])([H])C([H])([H])C([H])([H])C([H])(n6nc(-c7c([H])c([H])c(Oc8c([H])c([H])c(F)c([H])c8F)c([H])c7[H])c(C(=O)N([H])[H])c6N([H])[H])C5([H])[H])c4[H])C(=O)C3([H])[H])c([H])c([H])c2C1([H])[H]

$$$$
50:0:0
     RDKit          3D

 94103  0  0  1  0  0  0  0  0999 V2000
  -28.9070  -23.9910   20.3020 C   0  0  0  0  0  0  0  0  0  0  0  0
  -30.0770  -23.9870   21.1500 C   0  0  0  0  0  0  0  0  0  0  0  0
  -28.6460  -22.5770   19.9350 C   0  0  0  0  0  0  0  0  0  0  0  0
  -28.1590  -25.0770   19.8850 C   0  0  0  0  0  3  0  0  0  0  0  0
  -30.5830  -22.5460   21.2400 C   0  0  0  0  0  2  0  0  0  0  0  0
  -29.5860  -21.7390   20.5050 N   0  0  0  0  0  0  0  0  0  0  0  0
  -30.6170  -24.9480   21.7100 O   0  0  0  0  0  0  0  0  0  0  0  0
  -27.7230  -22.1870   19.2090 O   0  0  0  0  0  0  0  0  0  0  0  0
  -28.4990  -19.4270   20.3890 C   0  0  0  0  0  3  0  0  0  0  0  0
  -28.5590  -17.9990   20.4220 C   0  0  0  0  0  3  0  0  0  0  0  0
  -30.9470  -18.0800   20.5420 C   0  0  0  0  0  3  0  0  0  0  0  0
  -29.6590  -20.2490   20.4570 C   0  0  0  0  0  0  0  0  0  0  0  0
  -29.7780  -17.2700   20.5010 C   0  0  0  0  0  0  0  0  0  0  0  0
  -30.8900  -19.5160   20.5310 C   0  0  0  0  0  0  0  0  0  0  0  0
  -32.0640  -20.1890   20.5880 F   0  0  0  0  0  0  0  0  0  0  0  0
  -30.5420  -14.7580   20.2210 C   0  0  0  0  0  0  0  0  0  0  0  0
  -30.3230  -12.5200   19.1380 C   0  0  0  0  0  2  0  0  0  0  0  0
  -29.3300  -12.6410   17.9590 C   0  0  0  0  0  2  0  0  0  0  0  0
  -27.8760  -12.4620   18.4420 C   0  0  0  0  0  2  0  0  0  0  0  0
  -27.5580  -13.3130   19.7000 C   0  0  0  0  0  3  0  0  0  0  0  0
  -28.6600  -13.1550   20.7730 C   0  0  0  0  0  2  0  0  0  0  0  0
  -29.9410  -13.5240   20.1520 N   0  0  0  0  0  0  0  0  0  0  0  0
  -31.6960  -14.9290   19.8140 O   0  0  0  0  0  0  0  0  0  0  0  0
  -29.7160  -15.7980   20.5860 N   0  0  0  0  0  0  0  0  0  0  0  0
  -28.8090  -15.4500   20.8570 H   0  0  0  0  0  0  0  0  0  0  0  0
  -25.1980  -13.9030   20.5260 C   0  0  0  0  0  0  0  0  0  0  0  0
  -24.1420  -13.1260   20.9180 C   0  0  0  0  0  0  0  0  0  0  0  0
  -24.5950  -11.7730   20.8330 C   0  0  0  0  0  0  0  0  0  0  0  0
  -26.2280  -13.0240   20.2290 N   0  0  0  0  0  0  0  0  0  0  0  0
  -25.8730  -11.7370   20.4730 N   0  0  0  0  0  0  0  0  0  0  0  0
  -23.8690  -10.5110   21.0140 C   0  0  0  0  0  0  0  0  0  0  0  0
  -24.3070   -9.5330   21.9350 C   0  0  0  0  0  3  0  0  0  0  0  0
  -23.5820   -8.3350   22.1060 C   0  0  0  0  0  3  0  0  0  0  0  0
  -22.4040   -8.1050   21.3560 C   0  0  0  0  0  0  0  0  0  0  0  0
  -21.9840   -9.0720   20.4240 C   0  0  0  0  0  3  0  0  0  0  0  0
  -22.7110  -10.2620   20.2510 C   0  0  0  0  0  3  0  0  0  0  0  0
  -21.6480   -6.9600   21.4380 O   0  0  0  0  0  0  0  0  0  0  0  0
  -21.5720   -6.2300   22.5960 C   0  0  0  0  0  0  0  0  0  0  0  0
  -21.0730   -6.7840   23.7950 C   0  0  0  0  0  3  0  0  0  0  0  0
  -20.9470   -5.9780   24.9440 C   0  0  0  0  0  3  0  0  0  0  0  0
  -21.3090   -4.6190   24.8950 C   0  0  0  0  0  0  0  0  0  0  0  0
  -21.8000   -4.0630   23.7000 C   0  0  0  0  0  3  0  0  0  0  0  0
  -21.9280   -4.8670   22.5530 C   0  0  0  0  0  0  0  0  0  0  0  0
  -22.3820   -4.3210   21.3990 F   0  0  0  0  0  0  0  0  0  0  0  0
  -21.1810   -3.8420   25.9950 F   0  0  0  0  0  0  0  0  0  0  0  0
  -22.7590  -13.6030   21.2540 C   0  0  0  0  0  0  0  0  0  0  0  0
  -22.0610  -12.8870   22.1290 N   0  0  0  0  0  0  0  0  0  0  0  0
  -22.3080  -14.6440   20.7780 O   0  0  0  0  0  0  0  0  0  0  0  0
  -22.4400  -12.0450   22.5350 H   0  0  0  0  0  0  0  0  0  0  0  0
  -21.1330  -13.1860   22.3950 H   0  0  0  0  0  0  0  0  0  0  0  0
  -25.3630  -15.2770   20.3740 N   0  0  0  0  0  0  0  0  0  0  0  0
  -24.5930  -15.9230   20.5090 H   0  0  0  0  0  0  0  0  0  0  0  0
  -26.1680  -15.7070   19.9400 H   0  0  0  0  0  0  0  0  0  0  0  0
  -28.2970  -26.4760   20.1400 O   0  0  0  0  0  0  0  0  0  0  0  0
  -24.6220  -31.9110   23.2550 C   0  0  0  0  0  0  0  0  0  0  0  0
  -27.1770  -27.3450   20.1150 C   0  0  0  0  0  0  0  0  0  0  0  0
  -23.3920  -30.5290   21.6250 C   0  0  0  0  0  3  0  0  0  0  0  0
  -24.8180  -28.9920   20.1650 C   0  0  0  0  0  0  0  0  0  0  0  0
  -25.9340  -30.8320   21.4120 C   0  0  0  0  0  2  0  0  0  0  0  0
  -26.0000  -29.4580   20.7540 C   0  0  0  0  0  0  0  0  0  0  0  0
  -27.1770  -28.6440   20.7270 C   0  0  0  0  0  3  0  0  0  0  0  0
  -25.9650  -26.9580   19.4890 C   0  0  0  0  0  3  0  0  0  0  0  0
  -24.8040  -27.7480   19.5270 C   0  0  0  0  0  3  0  0  0  0  0  0
  -23.5850  -29.8700   20.2360 C   0  0  0  0  0  2  0  0  0  0  0  0
  -24.6700  -31.1080   22.1530 N   0  0  0  0  0  0  0  0  0  0  0  0
  -23.5450  -32.1880   23.8060 O   0  0  0  0  0  0  0  0  0  0  0  0
  -22.7420  -29.5040   22.5850 C   0  0  0  0  0  0  0  0  0  0  0  0
  -21.4180  -29.3120   22.4610 N   0  0  0  0  0  0  0  0  0  0  0  0
  -23.4290  -28.8840   23.4030 O   0  0  0  0  0  0  0  0  0  0  0  0
  -20.9220  -29.8620   21.7730 H   0  0  0  0  0  0  0  0  0  0  0  0
  -18.0530  -28.0780   22.9660 C   0  0  0  0  0  0  0  0  0  0  0  0
  -20.6090  -28.3680   23.2360 C   0  0  0  0  0  3  0  0  0  0  0  0
  -20.7280  -26.9360   22.6660 C   0  0  0  0  0  2  0  0  0  0  0  0
  -19.6300  -26.5950   21.6540 C   0  0  0  0  0  2  0  0  0  0  0  0
  -18.2460  -26.7280   22.2970 C   0  0  0  0  0  2  0  0  0  0  0  0
  -19.1640  -28.8540   23.3930 C   0  0  0  0  0  0  0  0  0  0  0  0
  -18.9300  -30.1170   23.9810 C   0  0  0  0  0  3  0  0  0  0  0  0
  -17.6190  -30.6020   24.1470 C   0  0  0  0  0  3  0  0  0  0  0  0
  -16.5240  -29.8230   23.7360 C   0  0  0  0  0  3  0  0  0  0  0  0
  -16.7420  -28.5620   23.1500 C   0  0  0  0  0  3  0  0  0  0  0  0
  -25.9140  -32.5380   23.8620 C   0  0  0  0  0  3  0  0  0  0  0  0
  -25.6090  -33.9340   24.2080 N   0  0  0  0  0  0  0  0  0  0  0  0
  -25.9060  -34.9910   23.4400 C   0  0  0  0  0  0  0  0  0  0  0  0
  -26.5360  -34.8940   22.3830 O   0  0  0  0  0  0  0  0  0  0  0  0
  -25.0450  -34.0830   25.0310 H   0  0  0  0  0  0  0  0  0  0  0  0
  -24.1530  -36.7740   23.1640 C   0  0  0  0  0  1  0  0  0  0  0  0
  -25.4300  -36.3760   23.9200 C   0  0  0  0  0  3  0  0  0  0  0  0
  -27.5900  -37.2770   24.6660 C   0  0  0  0  0  1  0  0  0  0  0  0
  -26.4510  -37.4360   23.7660 N   0  0  0  0  0  0  0  0  0  0  0  0
  -26.0430  -38.3530   23.9290 H   0  0  0  0  0  0  0  0  0  0  0  0
  -26.4480  -31.7570   25.1250 C   0  0  1  0  0  0  0  0  0  0  0  0
  -25.3680  -31.5090   26.2050 C   0  0  0  0  0  1  0  0  0  0  0  0
  -27.0280  -30.3820   24.7170 C   0  0  0  0  0  1  0  0  0  0  0  0
  -27.6060  -32.5470   25.7780 C   0  0  0  0  0  1  0  0  0  0  0  0
  1  2  1  0
  2  5  1  0
  2  7  2  0
  3  1  1  0
  3  6  1  0
  4 54  1  0
  4  1  2  0
  6  5  1  0
  8  3  2  0
  9 10  2  0
  9 12  1  0
 10 13  1  0
 12  6  1  0
 12 14  2  0
 13 11  2  0
 13 24  1  0
 14 11  1  0
 14 15  1  0
 16 24  1  0
 17 22  1  0
 18 19  1  0
 18 17  1  0
 20 19  1  0
 20 29  1  0
 20 21  1  0
 22 16  1  0
 22 21  1  0
 23 16  2  0
 24 25  1  0
 26 27  2  0
 27 46  1  0
 28 27  1  0
 28 31  1  0
 29 30  1  0
 29 26  1  0
 30 28  2  0
 31 32  1  0
 32 33  2  0
 34 37  1  0
 34 33  1  0
 35 34  2  0
 36 35  1  0
 36 31  2  0
 37 38  1  0
 38 39  1  0
 39 40  2  0
 41 40  1  0
 41 45  1  0
 42 41  2  0
 43 38  2  0
 43 42  1  0
 44 43  1  0
 46 47  1  0
 47 50  1  0
 47 49  1  0
 48 46  2  0
 51 52  1  0
 51 26  1  0
 53 51  1  0
 55 66  2  0
 56 54  1  0
 56 61  1  0
 57 65  1  0
 57 67  1  0
 58 64  1  0
 58 60  1  0
 59 65  1  0
 60 59  1  0
 61 60  2  0
 62 63  1  0
 62 56  2  0
 63 58  2  0
 64 57  1  0
 65 55  1  0
 67 69  2  0
 68 67  1  0
 70 68  1  0
 71 80  2  0
 71 76  1  0
 72 68  1  0
 72 76  1  0
 73 72  1  0
 74 75  1  0
 74 73  1  0
 75 71  1  0
 76 77  2  0
 77 78  1  0
 79 78  2  0
 80 79  1  0
 81 55  1  0
 81 82  1  0
 81 91  1  0
 82 85  1  0
 83 87  1  0
 83 82  1  0
 84 83  2  0
 87 86  1  0
 89 87  1  0
 89 90  1  0
 89 88  1  0
 91 94  1  1
 91 92  1  0
 93 91  1  0
M  ISO  4   4 101  16 100  24 100  54 101
M  END
>  <TORSDO>  (50) 
F 17

>  <SCORE>  (50) 
-15.579

>  <name>  (50) 
50

>  <ligand_id>  (50) 
50

>  <original_smiles>  (50) 
[H]C(Oc1c([H])c([H])c2c(c1[H])C([H])([H])N(C(=O)C([H])(N([H])C(=O)C([H])(N([H])C([H])([H])[H])C([H])([H])[H])C(C([H])([H])[H])(C([H])([H])[H])C([H])([H])[H])C([H])(C(=O)N([H])C1([H])c3c([H])c([H])c([H])c([H])c3C([H])([H])C([H])([H])C1([H])[H])C2([H])[H])=C1C(=O)N(c2c([H])c([H])c(N([H])C(=O)N3C([H])([H])C([H])([H])C([H])([H])C([H])(n4nc(-c5c([H])c([H])c(Oc6c([H])c([H])c(F)c([H])c6F)c([H])c5[H])c(C(=O)N([H])[H])c4N([H])[H])C3([H])[H])c([H])c2F)C([H])([H])C1=O

>  <smiles>  (50) 
[H]C(Oc1c([H])c([H])c2c(c1[H])C([H])([H])N(C(=O)C([H])(N([H])C(=O)C([H])(N([H])C([H])([H])[H])C([H])([H])[H])C(C([H])([H])[H])(C([H])([H])[H])C([H])([H])[H])C([H])(C(=O)N([H])C1([H])c3c([H])c([H])c([H])c([H])c3C([H])([H])C([H])([H])C1([H])[H])C2([H])[H])=C1C(=O)N(c2c([H])c([H])c(N([H])C(=O)N3C([H])([H])C([H])([H])C([H])([H])C([H])(n4nc(-c5c([H])c([H])c(Oc6c([H])c([H])c(F)c([H])c6F)c([H])c5[H])c(C(=O)N([H])[H])c4N([H])[H])C3([H])[H])c([H])c2F)C([H])([H])C1=O

$$$$
51:0:0
     RDKit          3D

 96105  0  0  1  0  0  0  0  0999 V2000
  -30.3720  -23.8120   21.0350 C   0  0  0  0  0  2  0  0  0  0  0  0
  -29.1890  -24.1360   20.4870 C   0  0  0  0  0  3  0  0  0  0  0  0
  -29.0270  -22.7380   20.1820 C   0  0  0  0  0  0  0  0  0  0  0  0
  -31.1640  -21.3770   20.9520 C   0  0  0  0  0  0  0  0  0  0  0  0
  -30.2860  -22.4490   20.7030 N   0  0  0  0  0  0  0  0  0  0  0  0
  -28.1510  -22.0180   19.6950 O   0  0  0  0  0  0  0  0  0  0  0  0
  -32.2860  -21.6530   21.3940 O   0  0  0  0  0  0  0  0  0  0  0  0
  -31.9400  -18.9840   20.6660 C   0  0  0  0  0  3  0  0  0  0  0  0
  -31.7370  -17.5850   20.6350 C   0  0  0  0  0  3  0  0  0  0  0  0
  -29.5530  -19.3590   20.6890 C   0  0  0  0  0  3  0  0  0  0  0  0
  -30.8610  -19.9020   20.7040 C   0  0  0  0  0  0  0  0  0  0  0  0
  -30.4310  -17.0360   20.6480 C   0  0  0  0  0  0  0  0  0  0  0  0
  -29.3450  -17.9510   20.6670 C   0  0  0  0  0  0  0  0  0  0  0  0
  -30.8330  -14.5630   20.1520 C   0  0  0  0  0  0  0  0  0  0  0  0
  -30.4710  -12.4080   18.9970 C   0  0  0  0  0  2  0  0  0  0  0  0
  -29.4840  -12.6280   17.8320 C   0  0  0  0  0  2  0  0  0  0  0  0
  -28.0280  -12.4920   18.3190 C   0  0  0  0  0  2  0  0  0  0  0  0
  -27.7460  -13.3120   19.6070 C   0  0  0  0  0  3  0  0  0  0  0  0
  -28.8460  -13.0840   20.6690 C   0  0  0  0  0  2  0  0  0  0  0  0
  -30.1430  -13.3900   20.0470 N   0  0  0  0  0  0  0  0  0  0  0  0
  -31.9680  -14.6850   19.6870 O   0  0  0  0  0  0  0  0  0  0  0  0
  -30.1350  -15.6190   20.6430 N   0  0  0  0  0  0  0  0  0  0  0  0
  -29.1980  -15.4020   20.9390 H   0  0  0  0  0  0  0  0  0  0  0  0
  -25.3850  -13.9190   20.4280 C   0  0  0  0  0  0  0  0  0  0  0  0
  -24.3250  -13.1450   20.8200 C   0  0  0  0  0  0  0  0  0  0  0  0
  -24.7740  -11.7920   20.7460 C   0  0  0  0  0  0  0  0  0  0  0  0
  -26.4120  -13.0350   20.1380 N   0  0  0  0  0  0  0  0  0  0  0  0
  -26.0520  -11.7500   20.3890 N   0  0  0  0  0  0  0  0  0  0  0  0
  -24.0450  -10.5320   20.9410 C   0  0  0  0  0  0  0  0  0  0  0  0
  -24.4640   -9.5740   21.8910 C   0  0  0  0  0  3  0  0  0  0  0  0
  -23.7360   -8.3790   22.0710 C   0  0  0  0  0  3  0  0  0  0  0  0
  -22.5740   -8.1310   21.3010 C   0  0  0  0  0  0  0  0  0  0  0  0
  -22.1740   -9.0780   20.3410 C   0  0  0  0  0  3  0  0  0  0  0  0
  -22.9040  -10.2650   20.1580 C   0  0  0  0  0  3  0  0  0  0  0  0
  -21.8180   -6.9870   21.3900 O   0  0  0  0  0  0  0  0  0  0  0  0
  -21.7030   -6.2910   22.5670 C   0  0  0  0  0  0  0  0  0  0  0  0
  -21.1940   -6.8900   23.7400 C   0  0  0  0  0  3  0  0  0  0  0  0
  -21.0260   -6.1190   24.9090 C   0  0  0  0  0  3  0  0  0  0  0  0
  -21.3560   -4.7510   24.9030 C   0  0  0  0  0  0  0  0  0  0  0  0
  -21.8580   -4.1520   23.7340 C   0  0  0  0  0  3  0  0  0  0  0  0
  -22.0270   -4.9200   22.5680 C   0  0  0  0  0  0  0  0  0  0  0  0
  -22.4900   -4.3320   21.4390 F   0  0  0  0  0  0  0  0  0  0  0  0
  -21.1890   -4.0080   26.0220 F   0  0  0  0  0  0  0  0  0  0  0  0
  -22.9440  -13.6290   21.1570 C   0  0  0  0  0  0  0  0  0  0  0  0
  -22.2480  -12.9260   22.0450 N   0  0  0  0  0  0  0  0  0  0  0  0
  -22.4910  -14.6620   20.6690 O   0  0  0  0  0  0  0  0  0  0  0  0
  -22.6290  -12.0890   22.4630 H   0  0  0  0  0  0  0  0  0  0  0  0
  -21.3230  -13.2320   22.3140 H   0  0  0  0  0  0  0  0  0  0  0  0
  -25.5540  -15.2910   20.2770 N   0  0  0  0  0  0  0  0  0  0  0  0
  -24.8090  -15.9510   20.4710 H   0  0  0  0  0  0  0  0  0  0  0  0
  -26.4240  -15.7510   20.0290 H   0  0  0  0  0  0  0  0  0  0  0  0
  -28.0410  -17.4580   20.6960 N   0  0  0  0  0  0  0  0  0  0  0  0
  -27.3090  -18.1480   20.8240 H   0  0  0  0  0  0  0  0  0  0  0  0
  -27.8770  -16.6650   21.3050 H   0  0  0  0  0  0  0  0  0  0  0  0
  -28.1810  -25.2720   20.7320 C   0  0  0  0  0  2  0  0  0  0  0  0
  -28.4050  -26.5330   20.0390 O   0  0  0  0  0  0  0  0  0  0  0  0
  -24.5780  -31.7360   23.1350 C   0  0  0  0  0  0  0  0  0  0  0  0
  -27.2770  -27.3400   20.0040 C   0  0  0  0  0  0  0  0  0  0  0  0
  -23.3970  -30.3450   21.4680 C   0  0  0  0  0  3  0  0  0  0  0  0
  -24.8760  -28.8510   20.0180 C   0  0  0  0  0  0  0  0  0  0  0  0
  -25.9230  -30.7290   21.2890 C   0  0  0  0  0  2  0  0  0  0  0  0
  -26.0290  -29.3680   20.6240 C   0  0  0  0  0  0  0  0  0  0  0  0
  -27.2370  -28.6210   20.6120 C   0  0  0  0  0  3  0  0  0  0  0  0
  -26.1120  -26.8610   19.3680 C   0  0  0  0  0  3  0  0  0  0  0  0
  -24.9150  -27.5980   19.3840 C   0  0  0  0  0  3  0  0  0  0  0  0
  -23.6200  -29.6940   20.0780 C   0  0  0  0  0  2  0  0  0  0  0  0
  -24.6500  -30.9520   22.0220 N   0  0  0  0  0  0  0  0  0  0  0  0
  -23.4910  -31.9860   23.6750 O   0  0  0  0  0  0  0  0  0  0  0  0
  -22.7520  -29.3020   22.4100 C   0  0  0  0  0  0  0  0  0  0  0  0
  -21.4310  -29.0990   22.2700 N   0  0  0  0  0  0  0  0  0  0  0  0
  -23.4380  -28.6780   23.2240 O   0  0  0  0  0  0  0  0  0  0  0  0
  -20.9380  -29.6550   21.5840 H   0  0  0  0  0  0  0  0  0  0  0  0
  -18.0740  -27.8370   22.7230 C   0  0  0  0  0  0  0  0  0  0  0  0
  -20.6250  -28.1390   23.0220 C   0  0  0  0  0  3  0  0  0  0  0  0
  -20.7590  -26.7170   22.4320 C   0  0  0  0  0  2  0  0  0  0  0  0
  -19.6720  -26.3850   21.4030 C   0  0  0  0  0  2  0  0  0  0  0  0
  -18.2820  -26.4990   22.0340 C   0  0  0  0  0  2  0  0  0  0  0  0
  -19.1740  -28.6150   23.1720 C   0  0  0  0  0  0  0  0  0  0  0  0
  -18.9260  -29.8670   23.7740 C   0  0  0  0  0  3  0  0  0  0  0  0
  -17.6120  -30.3420   23.9330 C   0  0  0  0  0  3  0  0  0  0  0  0
  -16.5260  -29.5630   23.4980 C   0  0  0  0  0  3  0  0  0  0  0  0
  -16.7580  -28.3120   22.8990 C   0  0  0  0  0  3  0  0  0  0  0  0
  -25.8530  -32.3740   23.7690 C   0  0  0  0  0  3  0  0  0  0  0  0
  -26.3760  -31.5900   25.0350 C   0  0  1  0  0  0  0  0  0  0  0  0
  -25.2850  -31.3200   26.0970 C   0  0  0  0  0  1  0  0  0  0  0  0
  -26.9780  -30.2260   24.6230 C   0  0  0  0  0  1  0  0  0  0  0  0
  -27.5150  -32.3900   25.7120 C   0  0  0  0  0  1  0  0  0  0  0  0
  -25.5250  -33.7630   24.1160 N   0  0  0  0  0  0  0  0  0  0  0  0
  -25.8600  -34.8300   23.3780 C   0  0  0  0  0  0  0  0  0  0  0  0
  -26.5450  -34.7480   22.3550 O   0  0  0  0  0  0  0  0  0  0  0  0
  -24.9180  -33.8990   24.9110 H   0  0  0  0  0  0  0  0  0  0  0  0
  -24.1280  -36.6190   23.0150 C   0  0  0  0  0  1  0  0  0  0  0  0
  -25.3520  -36.2070   23.8500 C   0  0  0  0  0  3  0  0  0  0  0  0
  -27.4570  -37.0900   24.7540 C   0  0  0  0  0  1  0  0  0  0  0  0
  -26.3810  -37.2680   23.7830 N   0  0  0  0  0  0  0  0  0  0  0  0
  -25.9650  -38.1830   23.9350 H   0  0  0  0  0  0  0  0  0  0  0  0
  2 55  1  0
  2  1  1  0
  3  2  1  0
  3  5  1  0
  4  7  2  0
  5  4  1  0
  5  1  1  0
  6  3  2  0
  8 11  1  0
  9 12  1  0
  9  8  2  0
 10 11  2  0
 11  4  1  0
 12 13  2  0
 13 10  1  0
 13 52  1  0
 14 22  1  0
 15 20  1  0
 16 17  1  0
 16 15  1  0
 18 17  1  0
 18 27  1  0
 18 19  1  0
 20 14  1  0
 20 19  1  0
 21 14  2  0
 22 12  1  0
 22 23  1  0
 24 25  2  0
 25 44  1  0
 26 25  1  0
 26 29  1  0
 27 28  1  0
 27 24  1  0
 28 26  2  0
 29 30  1  0
 30 31  2  0
 32 35  1  0
 32 31  1  0
 33 32  2  0
 34 33  1  0
 34 29  2  0
 35 36  1  0
 36 41  2  0
 36 37  1  0
 37 38  2  0
 39 38  1  0
 39 43  1  0
 40 39  2  0
 41 40  1  0
 42 41  1  0
 44 45  1  0
 45 48  1  0
 45 47  1  0
 46 44  2  0
 49 24  1  0
 49 50  1  0
 51 49  1  0
 52 53  1  0
 52 54  1  0
 56 55  1  0
 57 68  2  0
 58 56  1  0
 58 63  1  0
 59 67  1  0
 59 69  1  0
 60 66  1  0
 60 62  1  0
 61 67  1  0
 62 61  1  0
 63 62  2  0
 64 65  1  0
 64 58  2  0
 65 60  2  0
 66 59  1  0
 67 57  1  0
 69 71  2  0
 70 69  1  0
 72 70  1  0
 73 82  2  0
 73 78  1  0
 74 70  1  0
 74 78  1  0
 75 74  1  0
 76 77  1  0
 76 75  1  0
 77 73  1  0
 78 79  2  0
 79 80  1  0
 81 80  2  0
 82 81  1  0
 83 57  1  0
 83 88  1  0
 83 84  1  0
 84 87  1  1
 84 85  1  0
 86 84  1  0
 88 91  1  0
 89 93  1  0
 89 88  1  0
 90 89  2  0
 93 92  1  0
 95 93  1  0
 95 96  1  0
 95 94  1  0
M  ISO  4  14 100  22 100  55 101  56 101
M  END
>  <TORSDO>  (51) 
F 19

>  <SCORE>  (51) 
-14.577

>  <name>  (51) 
51

>  <ligand_id>  (51) 
51

>  <original_smiles>  (51) 
[H]C1=C(C([H])([H])Oc2c([H])c([H])c3c(c2[H])C([H])([H])N(C(=O)C([H])(N([H])C(=O)C([H])(N([H])C([H])([H])[H])C([H])([H])[H])C(C([H])([H])[H])(C([H])([H])[H])C([H])([H])[H])C([H])(C(=O)N([H])C2([H])c4c([H])c([H])c([H])c([H])c4C([H])([H])C([H])([H])C2([H])[H])C3([H])[H])C(=O)N1C(=O)c1c([H])c([H])c(N([H])C(=O)N2C([H])([H])C([H])([H])C([H])([H])C([H])(n3nc(-c4c([H])c([H])c(Oc5c([H])c([H])c(F)c([H])c5F)c([H])c4[H])c(C(=O)N([H])[H])c3N([H])[H])C2([H])[H])c(N([H])[H])c1[H]

>  <smiles>  (51) 
[H]C1=C(C([H])([H])Oc2c([H])c([H])c3c(c2[H])C([H])([H])N(C(=O)C([H])(N([H])C(=O)C([H])(N([H])C([H])([H])[H])C([H])([H])[H])C(C([H])([H])[H])(C([H])([H])[H])C([H])([H])[H])C([H])(C(=O)N([H])C2([H])c4c([H])c([H])c([H])c([H])c4C([H])([H])C([H])([H])C2([H])[H])C3([H])[H])C(=O)N1C(=O)c1c([H])c([H])c(N([H])C(=O)N2C([H])([H])C([H])([H])C([H])([H])C([H])(n3nc(-c4c([H])c([H])c(Oc5c([H])c([H])c(F)c([H])c5F)c([H])c4[H])c(C(=O)N([H])[H])c3N([H])[H])C2([H])[H])c(N([H])[H])c1[H]

$$$$
52:0:0
     RDKit          3D

 94103  0  0  1  0  0  0  0  0999 V2000
  -31.3610  -17.8920   21.3190 C   0  0  0  0  0  3  0  0  0  0  0  0
  -31.7310  -19.2000   21.6760 C   0  0  0  0  0  3  0  0  0  0  0  0
  -29.3270  -18.8390   20.4020 C   0  0  0  0  0  3  0  0  0  0  0  0
  -29.6770  -20.2540   20.7150 C   0  0  0  0  0  0  0  0  0  0  0  0
  -30.1330  -17.6240   20.6870 C   0  0  0  0  0  0  0  0  0  0  0  0
  -30.9190  -20.3250   21.4120 C   0  0  0  0  0  0  0  0  0  0  0  0
  -30.5460  -14.9780   20.3520 C   0  0  0  0  0  0  0  0  0  0  0  0
  -30.3880  -12.6630   19.3520 C   0  0  0  0  0  2  0  0  0  0  0  0
  -29.4500  -12.6620   18.1250 C   0  0  0  0  0  2  0  0  0  0  0  0
  -27.9860  -12.4580   18.5580 C   0  0  0  0  0  2  0  0  0  0  0  0
  -27.5890  -13.3630   19.7550 C   0  0  0  0  0  3  0  0  0  0  0  0
  -28.6500  -13.3420   20.8770 C   0  0  0  0  0  2  0  0  0  0  0  0
  -29.9230  -13.7400   20.2660 N   0  0  0  0  0  0  0  0  0  0  0  0
  -31.7530  -15.0290   20.0920 O   0  0  0  0  0  0  0  0  0  0  0  0
  -29.7730  -16.1620   20.4620 N   0  0  0  0  0  0  0  0  0  0  0  0
  -28.7820  -15.9810   20.4200 H   0  0  0  0  0  0  0  0  0  0  0  0
  -25.2010  -13.9320   20.4830 C   0  0  0  0  0  0  0  0  0  0  0  0
  -24.1420  -13.1500   20.8550 C   0  0  0  0  0  0  0  0  0  0  0  0
  -24.6170  -11.8030   20.8360 C   0  0  0  0  0  0  0  0  0  0  0  0
  -26.2520  -13.0600   20.2530 N   0  0  0  0  0  0  0  0  0  0  0  0
  -25.9090  -11.7750   20.5310 N   0  0  0  0  0  0  0  0  0  0  0  0
  -23.8990  -10.5370   21.0300 C   0  0  0  0  0  0  0  0  0  0  0  0
  -24.3380   -9.5750   21.9660 C   0  0  0  0  0  3  0  0  0  0  0  0
  -23.6200   -8.3730   22.1480 C   0  0  0  0  0  3  0  0  0  0  0  0
  -22.4470   -8.1270   21.3950 C   0  0  0  0  0  0  0  0  0  0  0  0
  -22.0270   -9.0770   20.4500 C   0  0  0  0  0  3  0  0  0  0  0  0
  -22.7470  -10.2700   20.2650 C   0  0  0  0  0  3  0  0  0  0  0  0
  -21.6980   -6.9780   21.4880 O   0  0  0  0  0  0  0  0  0  0  0  0
  -21.6580   -6.2370   22.6420 C   0  0  0  0  0  0  0  0  0  0  0  0
  -21.2280   -6.7890   23.8680 C   0  0  0  0  0  3  0  0  0  0  0  0
  -21.1360   -5.9730   25.0140 C   0  0  0  0  0  3  0  0  0  0  0  0
  -21.4630   -4.6070   24.9340 C   0  0  0  0  0  0  0  0  0  0  0  0
  -21.8860   -4.0540   23.7130 C   0  0  0  0  0  3  0  0  0  0  0  0
  -21.9800   -4.8660   22.5690 C   0  0  0  0  0  0  0  0  0  0  0  0
  -22.3680   -4.3240   21.3900 F   0  0  0  0  0  0  0  0  0  0  0  0
  -21.3670   -3.8210   26.0320 F   0  0  0  0  0  0  0  0  0  0  0  0
  -22.7390  -13.6190   21.1140 C   0  0  0  0  0  0  0  0  0  0  0  0
  -22.0130  -12.9250   21.9830 N   0  0  0  0  0  0  0  0  0  0  0  0
  -22.2980  -14.6360   20.5810 O   0  0  0  0  0  0  0  0  0  0  0  0
  -22.3840  -12.1020   22.4350 H   0  0  0  0  0  0  0  0  0  0  0  0
  -21.0720  -13.2210   22.1990 H   0  0  0  0  0  0  0  0  0  0  0  0
  -25.3510  -15.3030   20.2940 N   0  0  0  0  0  0  0  0  0  0  0  0
  -24.5730  -15.9440   20.3930 H   0  0  0  0  0  0  0  0  0  0  0  0
  -26.1820  -15.7470   19.9270 H   0  0  0  0  0  0  0  0  0  0  0  0
  -28.4590  -23.6440   20.5870 C   0  0  0  0  0  0  0  0  0  0  0  0
  -28.0720  -22.3940   21.2680 C   0  0  0  0  0  0  0  0  0  0  0  0
  -27.9830  -24.9630   20.7960 C   0  0  0  0  0  3  0  0  0  0  0  0
  -29.4810  -22.7840   19.7800 C   0  0  0  0  0  2  0  0  0  0  0  0
  -28.9170  -21.5620   20.4730 N   0  0  0  0  0  0  0  0  0  0  0  0
  -27.3760  -22.2290   22.2500 O   0  0  0  0  0  0  0  0  0  0  0  0
  -28.2840  -26.2970   20.3050 O   0  0  0  0  0  0  0  0  0  0  0  0
  -24.6580  -31.9740   23.2770 C   0  0  0  0  0  0  0  0  0  0  0  0
  -27.2450  -27.2810   20.2760 C   0  0  0  0  0  0  0  0  0  0  0  0
  -23.4600  -30.5710   21.6390 C   0  0  0  0  0  3  0  0  0  0  0  0
  -24.9140  -28.9950   20.2270 C   0  0  0  0  0  0  0  0  0  0  0  0
  -26.0120  -30.8460   21.4780 C   0  0  0  0  0  2  0  0  0  0  0  0
  -26.0900  -29.4530   20.8370 C   0  0  0  0  0  0  0  0  0  0  0  0
  -27.2600  -28.6100   20.8470 C   0  0  0  0  0  3  0  0  0  0  0  0
  -26.0470  -26.9140   19.6280 C   0  0  0  0  0  3  0  0  0  0  0  0
  -24.9020  -27.7350   19.6090 C   0  0  0  0  0  3  0  0  0  0  0  0
  -23.6850  -29.8880   20.2640 C   0  0  0  0  0  2  0  0  0  0  0  0
  -24.7300  -31.1520   22.1860 N   0  0  0  0  0  0  0  0  0  0  0  0
  -23.5700  -32.2600   23.8010 O   0  0  0  0  0  0  0  0  0  0  0  0
  -22.7810  -29.5670   22.6040 C   0  0  0  0  0  0  0  0  0  0  0  0
  -21.4540  -29.3970   22.4730 N   0  0  0  0  0  0  0  0  0  0  0  0
  -23.4500  -28.9430   23.4310 O   0  0  0  0  0  0  0  0  0  0  0  0
  -20.9700  -29.9510   21.7810 H   0  0  0  0  0  0  0  0  0  0  0  0
  -18.0670  -28.2120   22.9760 C   0  0  0  0  0  0  0  0  0  0  0  0
  -20.6270  -28.4660   23.2460 C   0  0  0  0  0  3  0  0  0  0  0  0
  -20.7240  -27.0310   22.6770 C   0  0  0  0  0  2  0  0  0  0  0  0
  -19.6220  -26.7080   21.6630 C   0  0  0  0  0  2  0  0  0  0  0  0
  -18.2400  -26.8600   22.3050 C   0  0  0  0  0  2  0  0  0  0  0  0
  -19.1890  -28.9730   23.4040 C   0  0  0  0  0  0  0  0  0  0  0  0
  -18.9730  -30.2370   23.9940 C   0  0  0  0  0  3  0  0  0  0  0  0
  -17.6680  -30.7420   24.1580 C   0  0  0  0  0  3  0  0  0  0  0  0
  -16.5620  -29.9790   23.7450 C   0  0  0  0  0  3  0  0  0  0  0  0
  -16.7630  -28.7160   23.1600 C   0  0  0  0  0  3  0  0  0  0  0  0
  -25.9360  -32.6090   23.9030 C   0  0  0  0  0  3  0  0  0  0  0  0
  -25.6240  -34.0090   24.2300 N   0  0  0  0  0  0  0  0  0  0  0  0
  -25.9420  -35.0620   23.4640 C   0  0  0  0  0  0  0  0  0  0  0  0
  -26.5960  -34.9560   22.4230 O   0  0  0  0  0  0  0  0  0  0  0  0
  -25.0400  -34.1650   25.0400 H   0  0  0  0  0  0  0  0  0  0  0  0
  -24.1960  -36.8470   23.1430 C   0  0  0  0  0  1  0  0  0  0  0  0
  -25.4600  -36.4510   23.9250 C   0  0  0  0  0  3  0  0  0  0  0  0
  -27.6080  -37.3560   24.6980 C   0  0  0  0  0  1  0  0  0  0  0  0
  -26.4840  -37.5090   23.7780 N   0  0  0  0  0  0  0  0  0  0  0  0
  -26.0780  -38.4280   23.9240 H   0  0  0  0  0  0  0  0  0  0  0  0
  -26.4430  -31.8440   25.1870 C   0  0  1  0  0  0  0  0  0  0  0  0
  -25.3430  -31.6130   26.2500 C   0  0  0  0  0  1  0  0  0  0  0  0
  -27.0270  -30.4630   24.8100 C   0  0  0  0  0  1  0  0  0  0  0  0
  -27.5900  -32.6400   25.8520 C   0  0  0  0  0  1  0  0  0  0  0  0
  -31.3800  -21.5400   21.9180 N   0  0  0  0  0  0  0  0  0  0  0  0
  -32.0690  -21.5090   22.6620 H   0  0  0  0  0  0  0  0  0  0  0  0
  -30.6850  -22.2610   22.0710 H   0  0  0  0  0  0  0  0  0  0  0  0
  1  2  1  0
  3  5  1  0
  3  4  2  0
  4  6  1  0
  5  1  2  0
  6  2  2  0
  6 92  1  0
  7 15  1  0
  8 13  1  0
  9 10  1  0
  9  8  1  0
 11 10  1  0
 11 20  1  0
 11 12  1  0
 13  7  1  0
 13 12  1  0
 14  7  2  0
 15  5  1  0
 16 15  1  0
 17 18  2  0
 18 37  1  0
 19 18  1  0
 19 22  1  0
 20 17  1  0
 20 21  1  0
 21 19  2  0
 22 23  1  0
 23 24  2  0
 25 28  1  0
 25 24  1  0
 26 25  2  0
 27 26  1  0
 27 22  2  0
 28 29  1  0
 29 30  1  0
 30 31  2  0
 32 31  1  0
 32 36  1  0
 33 32  2  0
 34 29  2  0
 34 33  1  0
 35 34  1  0
 37 38  1  0
 38 41  1  0
 38 40  1  0
 39 37  2  0
 42 43  1  0
 42 17  1  0
 44 42  1  0
 45 47  2  0
 45 46  1  0
 46 50  2  0
 48 49  1  0
 48 45  1  0
 49  4  1  0
 49 46  1  0
 51 47  1  0
 52 63  2  0
 53 51  1  0
 53 58  1  0
 54 62  1  0
 54 64  1  0
 55 61  1  0
 55 57  1  0
 56 62  1  0
 57 58  2  0
 57 56  1  0
 59 53  2  0
 60 59  1  0
 60 55  2  0
 61 54  1  0
 62 52  1  0
 64 66  2  0
 65 64  1  0
 67 65  1  0
 68 77  2  0
 68 73  1  0
 69 65  1  0
 69 73  1  0
 70 69  1  0
 71 72  1  0
 71 70  1  0
 72 68  1  0
 73 74  2  0
 74 75  1  0
 76 75  2  0
 77 76  1  0
 78 52  1  0
 78 79  1  0
 78 88  1  0
 79 82  1  0
 80 84  1  0
 80 79  1  0
 81 80  2  0
 84 83  1  0
 86 87  1  0
 86 84  1  0
 86 85  1  0
 88 91  1  1
 88 89  1  0
 90 88  1  0
 92 94  1  0
 92 93  1  0
M  ISO  4   7 100  15 100  47 101  51 101
M  END
>  <TORSDO>  (52) 
F 18

>  <SCORE>  (52) 
-15.011

>  <name>  (52) 
52

>  <ligand_id>  (52) 
52

>  <original_smiles>  (52) 
[H]C(Oc1c([H])c([H])c2c(c1[H])C([H])([H])N(C(=O)C([H])(N([H])C(=O)C([H])(N([H])C([H])([H])[H])C([H])([H])[H])C(C([H])([H])[H])(C([H])([H])[H])C([H])([H])[H])C([H])(C(=O)N([H])C1([H])c3c([H])c([H])c([H])c([H])c3C([H])([H])C([H])([H])C1([H])[H])C2([H])[H])=C1C(=O)N(c2c([H])c(N([H])C(=O)N3C([H])([H])C([H])([H])C([H])([H])C([H])(n4nc(-c5c([H])c([H])c(Oc6c([H])c([H])c(F)c([H])c6F)c([H])c5[H])c(C(=O)N([H])[H])c4N([H])[H])C3([H])[H])c([H])c([H])c2N([H])[H])C1([H])[H]

>  <smiles>  (52) 
[H]C(Oc1c([H])c([H])c2c(c1[H])C([H])([H])N(C(=O)C([H])(N([H])C(=O)C([H])(N([H])C([H])([H])[H])C([H])([H])[H])C(C([H])([H])[H])(C([H])([H])[H])C([H])([H])[H])C([H])(C(=O)N([H])C1([H])c3c([H])c([H])c([H])c([H])c3C([H])([H])C([H])([H])C1([H])[H])C2([H])[H])=C1C(=O)N(c2c([H])c(N([H])C(=O)N3C([H])([H])C([H])([H])C([H])([H])C([H])(n4nc(-c5c([H])c([H])c(Oc6c([H])c([H])c(F)c([H])c6F)c([H])c5[H])c(C(=O)N([H])[H])c4N([H])[H])C3([H])[H])c([H])c([H])c2N([H])[H])C1([H])[H]

$$$$
53:0:0
     RDKit          3D

 95103  0  0  1  0  0  0  0  0999 V2000
  -28.7890  -20.5860   20.7940 C   0  0  0  0  0  0  0  0  0  0  0  0
  -28.3260  -22.9870   20.8420 C   0  0  0  0  0  0  0  0  0  0  0  0
  -29.0850  -21.8950   20.5550 N   0  0  0  0  0  0  0  0  0  0  0  0
  -27.6710  -20.1840   21.1370 O   0  0  0  0  0  0  0  0  0  0  0  0
  -27.2540  -22.9180   21.4570 O   0  0  0  0  0  0  0  0  0  0  0  0
  -29.9760  -22.1030   20.1320 H   0  0  0  0  0  0  0  0  0  0  0  0
  -32.2510  -18.9320   20.5580 C   0  0  0  0  0  3  0  0  0  0  0  0
  -31.2420  -19.9140   20.6040 C   0  0  0  0  0  3  0  0  0  0  0  0
  -31.9230  -17.5630   20.5250 C   0  0  0  0  0  3  0  0  0  0  0  0
  -29.5650  -18.1430   20.5730 C   0  0  0  0  0  3  0  0  0  0  0  0
  -29.8800  -19.5390   20.6150 C   0  0  0  0  0  0  0  0  0  0  0  0
  -30.5730  -17.1350   20.5170 C   0  0  0  0  0  0  0  0  0  0  0  0
  -30.8970  -14.6690   20.0150 C   0  0  0  0  0  0  0  0  0  0  0  0
  -30.5630  -12.4670   18.9380 C   0  0  0  0  0  2  0  0  0  0  0  0
  -29.5620  -12.6230   17.7750 C   0  0  0  0  0  2  0  0  0  0  0  0
  -28.1160  -12.4660   18.2810 C   0  0  0  0  0  2  0  0  0  0  0  0
  -27.8250  -13.3270   19.5400 C   0  0  0  0  0  3  0  0  0  0  0  0
  -28.9410  -13.1720   20.6000 C   0  0  0  0  0  2  0  0  0  0  0  0
  -30.2240  -13.4830   19.9530 N   0  0  0  0  0  0  0  0  0  0  0  0
  -32.0110  -14.7990   19.5030 O   0  0  0  0  0  0  0  0  0  0  0  0
  -30.2050  -15.7330   20.5040 N   0  0  0  0  0  0  0  0  0  0  0  0
  -29.2670  -15.5170   20.8010 H   0  0  0  0  0  0  0  0  0  0  0  0
  -25.4790  -13.9140   20.4140 C   0  0  0  0  0  0  0  0  0  0  0  0
  -24.4320  -13.1330   20.8230 C   0  0  0  0  0  0  0  0  0  0  0  0
  -24.8840  -11.7810   20.7210 C   0  0  0  0  0  0  0  0  0  0  0  0
  -26.5040  -13.0370   20.0940 N   0  0  0  0  0  0  0  0  0  0  0  0
  -26.1530  -11.7480   20.3360 N   0  0  0  0  0  0  0  0  0  0  0  0
  -24.1640  -10.5160   20.9120 C   0  0  0  0  0  0  0  0  0  0  0  0
  -24.5780   -9.5690   21.8750 C   0  0  0  0  0  3  0  0  0  0  0  0
  -23.8580   -8.3670   22.0550 C   0  0  0  0  0  3  0  0  0  0  0  0
  -22.7100   -8.1050   21.2700 C   0  0  0  0  0  0  0  0  0  0  0  0
  -22.3150   -9.0410   20.2980 C   0  0  0  0  0  3  0  0  0  0  0  0
  -23.0350  -10.2330   20.1180 C   0  0  0  0  0  3  0  0  0  0  0  0
  -21.9640   -6.9540   21.3570 O   0  0  0  0  0  0  0  0  0  0  0  0
  -21.7970   -6.2920   22.5470 C   0  0  0  0  0  0  0  0  0  0  0  0
  -21.1640   -6.8980   23.6540 C   0  0  0  0  0  3  0  0  0  0  0  0
  -20.9510   -6.1570   24.8340 C   0  0  0  0  0  3  0  0  0  0  0  0
  -21.3620   -4.8130   24.9070 C   0  0  0  0  0  0  0  0  0  0  0  0
  -21.9890   -4.2070   23.8040 C   0  0  0  0  0  3  0  0  0  0  0  0
  -22.2030   -4.9450   22.6250 C   0  0  0  0  0  0  0  0  0  0  0  0
  -22.7880   -4.3500   21.5580 F   0  0  0  0  0  0  0  0  0  0  0  0
  -21.1520   -4.0990   26.0370 F   0  0  0  0  0  0  0  0  0  0  0  0
  -23.0560  -13.6050   21.1930 C   0  0  0  0  0  0  0  0  0  0  0  0
  -22.3760  -12.8820   22.0770 N   0  0  0  0  0  0  0  0  0  0  0  0
  -22.5930  -14.6490   20.7330 O   0  0  0  0  0  0  0  0  0  0  0  0
  -22.7650  -12.0380   22.4680 H   0  0  0  0  0  0  0  0  0  0  0  0
  -21.4560  -13.1790   22.3670 H   0  0  0  0  0  0  0  0  0  0  0  0
  -25.6400  -15.2880   20.2680 N   0  0  0  0  0  0  0  0  0  0  0  0
  -24.8810  -15.9400   20.4370 H   0  0  0  0  0  0  0  0  0  0  0  0
  -26.4610  -15.7340   19.8790 H   0  0  0  0  0  0  0  0  0  0  0  0
  -28.1890  -25.4190   20.6290 C   0  0  0  0  0  3  0  0  0  0  0  0
  -28.8780  -24.2750   20.3640 C   0  0  0  0  0  0  0  0  0  0  0  0
  -30.0240  -24.3040   19.6690 O   0  0  0  0  0  0  0  0  0  0  0  0
  -30.1880  -25.2150   19.4570 H   0  0  0  0  0  0  0  0  0  0  0  0
  -28.4870  -26.7150   20.2120 O   0  0  0  0  0  0  0  0  0  0  0  0
  -24.6290  -31.9280   23.2430 C   0  0  0  0  0  0  0  0  0  0  0  0
  -27.3830  -27.5520   20.1330 C   0  0  0  0  0  0  0  0  0  0  0  0
  -23.4820  -30.5560   21.5370 C   0  0  0  0  0  3  0  0  0  0  0  0
  -24.9890  -29.0740   20.1060 C   0  0  0  0  0  0  0  0  0  0  0  0
  -26.0140  -30.9330   21.4190 C   0  0  0  0  0  2  0  0  0  0  0  0
  -26.1300  -29.5790   20.7440 C   0  0  0  0  0  0  0  0  0  0  0  0
  -27.3340  -28.8240   20.7570 C   0  0  0  0  0  3  0  0  0  0  0  0
  -26.2300  -27.0880   19.4610 C   0  0  0  0  0  3  0  0  0  0  0  0
  -25.0370  -27.8300   19.4570 C   0  0  0  0  0  3  0  0  0  0  0  0
  -23.7350  -29.9190   20.1460 C   0  0  0  0  0  2  0  0  0  0  0  0
  -24.7250  -31.1530   22.1250 N   0  0  0  0  0  0  0  0  0  0  0  0
  -23.5320  -32.1760   23.7610 O   0  0  0  0  0  0  0  0  0  0  0  0
  -22.8160  -29.5040   22.4540 C   0  0  0  0  0  0  0  0  0  0  0  0
  -21.4950  -29.3160   22.2940 N   0  0  0  0  0  0  0  0  0  0  0  0
  -23.4840  -28.8620   23.2690 O   0  0  0  0  0  0  0  0  0  0  0  0
  -21.0160  -29.8880   21.6130 H   0  0  0  0  0  0  0  0  0  0  0  0
  -18.1060  -28.1430   22.7470 C   0  0  0  0  0  0  0  0  0  0  0  0
  -20.6680  -28.3530   23.0210 C   0  0  0  0  0  3  0  0  0  0  0  0
  -20.7490  -26.9520   22.3750 C   0  0  0  0  0  2  0  0  0  0  0  0
  -19.6400  -26.6940   21.3510 C   0  0  0  0  0  2  0  0  0  0  0  0
  -18.2620  -26.8250   22.0070 C   0  0  0  0  0  2  0  0  0  0  0  0
  -19.2360  -28.8680   23.2090 C   0  0  0  0  0  0  0  0  0  0  0  0
  -19.0360  -30.1050   23.8620 C   0  0  0  0  0  3  0  0  0  0  0  0
  -17.7390  -30.6140   24.0560 C   0  0  0  0  0  3  0  0  0  0  0  0
  -16.6230  -29.8860   23.6100 C   0  0  0  0  0  3  0  0  0  0  0  0
  -16.8070  -28.6520   22.9610 C   0  0  0  0  0  3  0  0  0  0  0  0
  -25.8910  -32.5570   23.9100 C   0  0  0  0  0  3  0  0  0  0  0  0
  -26.3560  -31.7890   25.2090 C   0  0  1  0  0  0  0  0  0  0  0  0
  -25.2170  -31.5430   26.2260 C   0  0  0  0  0  1  0  0  0  0  0  0
  -26.9660  -30.4170   24.8410 C   0  0  0  0  0  1  0  0  0  0  0  0
  -27.4700  -32.5910   25.9210 C   0  0  0  0  0  1  0  0  0  0  0  0
  -25.5760  -33.9590   24.2210 N   0  0  0  0  0  0  0  0  0  0  0  0
  -25.9220  -35.0030   23.4560 C   0  0  0  0  0  0  0  0  0  0  0  0
  -26.6090  -34.8880   22.4380 O   0  0  0  0  0  0  0  0  0  0  0  0
  -24.9670  -34.1210   25.0090 H   0  0  0  0  0  0  0  0  0  0  0  0
  -24.1980  -36.7880   23.0510 C   0  0  0  0  0  1  0  0  0  0  0  0
  -25.4250  -36.3950   23.8890 C   0  0  0  0  0  3  0  0  0  0  0  0
  -27.5370  -37.3000   24.7570 C   0  0  0  0  0  1  0  0  0  0  0  0
  -26.4590  -37.4480   23.7810 N   0  0  0  0  0  0  0  0  0  0  0  0
  -26.0480  -38.3700   23.8990 H   0  0  0  0  0  0  0  0  0  0  0  0
  1  4  2  0
  2  5  2  0
  3  1  1  0
  3  2  1  0
  6  3  1  0
  7  8  1  0
  8 11  2  0
  9  7  2  0
 10 11  1  0
 11  1  1  0
 12  9  1  0
 12 10  2  0
 13 21  1  0
 14 19  1  0
 15 16  1  0
 15 14  1  0
 17 16  1  0
 17 26  1  0
 17 18  1  0
 19 13  1  0
 19 18  1  0
 20 13  2  0
 21 12  1  0
 21 22  1  0
 23 24  2  0
 24 43  1  0
 25 24  1  0
 25 28  1  0
 26 27  1  0
 26 23  1  0
 27 25  2  0
 28 29  1  0
 29 30  2  0
 31 34  1  0
 31 30  1  0
 32 31  2  0
 33 32  1  0
 33 28  2  0
 34 35  1  0
 35 40  2  0
 35 36  1  0
 36 37  2  0
 37 38  1  0
 38 42  1  0
 39 38  2  0
 40 39  1  0
 41 40  1  0
 43 44  1  0
 44 47  1  0
 44 46  1  0
 45 43  2  0
 48 23  1  0
 48 49  1  0
 50 48  1  0
 52 51  2  0
 52  2  1  0
 53 52  1  0
 54 53  1  0
 55 51  1  0
 56 67  2  0
 57 55  1  0
 57 62  1  0
 58 66  1  0
 58 68  1  0
 59 65  1  0
 59 61  1  0
 60 66  1  0
 61 62  2  0
 61 60  1  0
 63 57  2  0
 64 63  1  0
 64 59  2  0
 65 58  1  0
 66 56  1  0
 68 70  2  0
 69 68  1  0
 71 69  1  0
 72 81  2  0
 72 77  1  0
 73 69  1  0
 73 77  1  0
 74 73  1  0
 75 76  1  0
 75 74  1  0
 76 72  1  0
 77 78  2  0
 78 79  1  0
 80 79  2  0
 81 80  1  0
 82 56  1  0
 82 87  1  0
 82 83  1  0
 83 86  1  1
 83 84  1  0
 85 83  1  0
 87 90  1  0
 88 92  1  0
 88 87  1  0
 89 88  2  0
 92 91  1  0
 94 92  1  0
 94 95  1  0
 94 93  1  0
M  ISO  4  13 100  21 100  51 101  55 101
M  END
>  <TORSDO>  (53) 
F 19

>  <SCORE>  (53) 
-14.055

>  <name>  (53) 
53

>  <ligand_id>  (53) 
53

>  <original_smiles>  (53) 
[H]OC(C(=O)N([H])C(=O)c1c([H])c([H])c([H])c(N([H])C(=O)N2C([H])([H])C([H])([H])C([H])([H])C([H])(n3nc(-c4c([H])c([H])c(Oc5c([H])c([H])c(F)c([H])c5F)c([H])c4[H])c(C(=O)N([H])[H])c3N([H])[H])C2([H])[H])c1[H])=C([H])Oc1c([H])c([H])c2c(c1[H])C([H])([H])N(C(=O)C([H])(N([H])C(=O)C([H])(N([H])C([H])([H])[H])C([H])([H])[H])C(C([H])([H])[H])(C([H])([H])[H])C([H])([H])[H])C([H])(C(=O)N([H])C1([H])c3c([H])c([H])c([H])c([H])c3C([H])([H])C([H])([H])C1([H])[H])C2([H])[H]

>  <smiles>  (53) 
[H]OC(C(=O)N([H])C(=O)c1c([H])c([H])c([H])c(N([H])C(=O)N2C([H])([H])C([H])([H])C([H])([H])C([H])(n3nc(-c4c([H])c([H])c(Oc5c([H])c([H])c(F)c([H])c5F)c([H])c4[H])c(C(=O)N([H])[H])c3N([H])[H])C2([H])[H])c1[H])=C([H])Oc1c([H])c([H])c2c(c1[H])C([H])([H])N(C(=O)C([H])(N([H])C(=O)C([H])(N([H])C([H])([H])[H])C([H])([H])[H])C(C([H])([H])[H])(C([H])([H])[H])C([H])([H])[H])C([H])(C(=O)N([H])C1([H])c3c([H])c([H])c([H])c([H])c3C([H])([H])C([H])([H])C1([H])[H])C2([H])[H]

$$$$
54:0:0
     RDKit          3D

 92101  0  0  1  0  0  0  0  0999 V2000
  -28.5230  -23.8100   20.4520 C   0  0  0  0  0  0  0  0  0  0  0  0
  -28.0310  -22.5950   21.0920 C   0  0  0  0  0  0  0  0  0  0  0  0
  -28.0320  -25.1060   20.6200 C   0  0  0  0  0  3  0  0  0  0  0  0
  -29.5810  -22.9420   19.7040 C   0  0  0  0  0  2  0  0  0  0  0  0
  -28.9830  -21.7870   20.4400 N   0  0  0  0  0  0  0  0  0  0  0  0
  -27.1220  -22.4250   21.8780 O   0  0  0  0  0  0  0  0  0  0  0  0
  -28.5270  -19.3820   21.0880 C   0  0  0  0  0  3  0  0  0  0  0  0
  -28.7370  -17.9690   21.1070 C   0  0  0  0  0  3  0  0  0  0  0  0
  -30.6250  -18.2380   19.6960 C   0  0  0  0  0  3  0  0  0  0  0  0
  -29.3220  -20.3310   20.3770 C   0  0  0  0  0  0  0  0  0  0  0  0
  -29.7940  -17.3250   20.4130 C   0  0  0  0  0  0  0  0  0  0  0  0
  -30.3930  -19.6680   19.6800 C   0  0  0  0  0  0  0  0  0  0  0  0
  -31.2420  -20.4350   18.9530 F   0  0  0  0  0  0  0  0  0  0  0  0
  -30.6670  -14.8230   19.9960 C   0  0  0  0  0  0  0  0  0  0  0  0
  -30.4710  -12.5660   18.9260 C   0  0  0  0  0  2  0  0  0  0  0  0
  -29.4460  -12.6620   17.7710 C   0  0  0  0  0  2  0  0  0  0  0  0
  -28.0060  -12.4670   18.2880 C   0  0  0  0  0  2  0  0  0  0  0  0
  -27.7090  -13.3150   19.5530 C   0  0  0  0  0  3  0  0  0  0  0  0
  -28.8370  -13.1690   20.5990 C   0  0  0  0  0  2  0  0  0  0  0  0
  -30.0970  -13.5680   19.9500 N   0  0  0  0  0  0  0  0  0  0  0  0
  -31.7910  -15.0170   19.5220 O   0  0  0  0  0  0  0  0  0  0  0  0
  -29.8570  -15.8370   20.4770 N   0  0  0  0  0  0  0  0  0  0  0  0
  -29.0460  -15.4360   20.9230 H   0  0  0  0  0  0  0  0  0  0  0  0
  -25.3720  -13.8870   20.4490 C   0  0  0  0  0  0  0  0  0  0  0  0
  -24.3300  -13.1030   20.8620 C   0  0  0  0  0  0  0  0  0  0  0  0
  -24.7840  -11.7530   20.7510 C   0  0  0  0  0  0  0  0  0  0  0  0
  -26.3950  -13.0150   20.1150 N   0  0  0  0  0  0  0  0  0  0  0  0
  -26.0510  -11.7240   20.3570 N   0  0  0  0  0  0  0  0  0  0  0  0
  -24.0670  -10.4850   20.9430 C   0  0  0  0  0  0  0  0  0  0  0  0
  -24.5060   -9.5230   21.8790 C   0  0  0  0  0  3  0  0  0  0  0  0
  -23.7890   -8.3200   22.0580 C   0  0  0  0  0  3  0  0  0  0  0  0
  -22.6190   -8.0710   21.3010 C   0  0  0  0  0  0  0  0  0  0  0  0
  -22.1990   -9.0220   20.3550 C   0  0  0  0  0  3  0  0  0  0  0  0
  -22.9170  -10.2180   20.1740 C   0  0  0  0  0  3  0  0  0  0  0  0
  -21.8740   -6.9210   21.3900 O   0  0  0  0  0  0  0  0  0  0  0  0
  -21.7590   -6.2260   22.5680 C   0  0  0  0  0  0  0  0  0  0  0  0
  -21.2490   -6.8260   23.7390 C   0  0  0  0  0  3  0  0  0  0  0  0
  -21.0830   -6.0570   24.9080 C   0  0  0  0  0  3  0  0  0  0  0  0
  -21.4170   -4.6900   24.9070 C   0  0  0  0  0  0  0  0  0  0  0  0
  -21.9200   -4.0890   23.7390 C   0  0  0  0  0  3  0  0  0  0  0  0
  -22.0870   -4.8550   22.5720 C   0  0  0  0  0  0  0  0  0  0  0  0
  -22.5520   -4.2670   21.4430 F   0  0  0  0  0  0  0  0  0  0  0  0
  -21.2500   -3.9490   26.0270 F   0  0  0  0  0  0  0  0  0  0  0  0
  -22.9550  -13.5710   21.2420 C   0  0  0  0  0  0  0  0  0  0  0  0
  -22.2850  -12.8480   22.1320 N   0  0  0  0  0  0  0  0  0  0  0  0
  -22.4850  -14.6120   20.7840 O   0  0  0  0  0  0  0  0  0  0  0  0
  -22.6790  -12.0060   22.5220 H   0  0  0  0  0  0  0  0  0  0  0  0
  -21.3650  -13.1430   22.4290 H   0  0  0  0  0  0  0  0  0  0  0  0
  -25.5290  -15.2640   20.3100 N   0  0  0  0  0  0  0  0  0  0  0  0
  -24.7680  -15.9110   20.4830 H   0  0  0  0  0  0  0  0  0  0  0  0
  -26.3420  -15.7110   19.9040 H   0  0  0  0  0  0  0  0  0  0  0  0
  -28.3480  -26.3960   20.1000 O   0  0  0  0  0  0  0  0  0  0  0  0
  -24.6840  -31.8830   23.1820 C   0  0  0  0  0  0  0  0  0  0  0  0
  -27.2880  -27.3320   20.0660 C   0  0  0  0  0  0  0  0  0  0  0  0
  -23.4770  -30.4970   21.5360 C   0  0  0  0  0  3  0  0  0  0  0  0
  -24.9260  -28.9650   20.0810 C   0  0  0  0  0  0  0  0  0  0  0  0
  -26.0170  -30.8160   21.3440 C   0  0  0  0  0  2  0  0  0  0  0  0
  -26.1010  -29.4420   20.6800 C   0  0  0  0  0  0  0  0  0  0  0  0
  -27.2860  -28.6360   20.6660 C   0  0  0  0  0  3  0  0  0  0  0  0
  -26.0950  -26.9270   19.4310 C   0  0  0  0  0  3  0  0  0  0  0  0
  -24.9270  -27.7150   19.4440 C   0  0  0  0  0  3  0  0  0  0  0  0
  -23.6860  -29.8370   20.1490 C   0  0  0  0  0  2  0  0  0  0  0  0
  -24.7460  -31.0830   22.0770 N   0  0  0  0  0  0  0  0  0  0  0  0
  -23.6030  -32.1510   23.7260 O   0  0  0  0  0  0  0  0  0  0  0  0
  -22.8210  -29.4700   22.4910 C   0  0  0  0  0  0  0  0  0  0  0  0
  -21.4930  -29.2910   22.3730 N   0  0  0  0  0  0  0  0  0  0  0  0
  -23.5060  -28.8370   23.3000 O   0  0  0  0  0  0  0  0  0  0  0  0
  -20.9990  -29.8530   21.6950 H   0  0  0  0  0  0  0  0  0  0  0  0
  -18.1220  -28.0820   22.8930 C   0  0  0  0  0  0  0  0  0  0  0  0
  -20.6830  -28.3420   23.1400 C   0  0  0  0  0  3  0  0  0  0  0  0
  -20.7810  -26.9180   22.5480 C   0  0  0  0  0  2  0  0  0  0  0  0
  -19.6700  -26.6060   21.5400 C   0  0  0  0  0  2  0  0  0  0  0  0
  -18.2940  -26.7410   22.2000 C   0  0  0  0  0  2  0  0  0  0  0  0
  -19.2440  -28.8410   23.3210 C   0  0  0  0  0  0  0  0  0  0  0  0
  -19.0290  -30.0950   23.9320 C   0  0  0  0  0  3  0  0  0  0  0  0
  -17.7250  -30.5920   24.1170 C   0  0  0  0  0  3  0  0  0  0  0  0
  -16.6180  -29.8310   23.7050 C   0  0  0  0  0  3  0  0  0  0  0  0
  -16.8170  -28.5770   23.0980 C   0  0  0  0  0  3  0  0  0  0  0  0
  -25.9670  -32.5160   23.8030 C   0  0  0  0  0  3  0  0  0  0  0  0
  -25.6530  -33.9070   24.1560 N   0  0  0  0  0  0  0  0  0  0  0  0
  -25.9720  -34.9740   23.4110 C   0  0  0  0  0  0  0  0  0  0  0  0
  -26.6330  -34.8880   22.3720 O   0  0  0  0  0  0  0  0  0  0  0  0
  -25.0640  -34.0460   24.9640 H   0  0  0  0  0  0  0  0  0  0  0  0
  -24.2350  -36.7670   23.0980 C   0  0  0  0  0  1  0  0  0  0  0  0
  -25.4840  -36.3530   23.8940 C   0  0  0  0  0  3  0  0  0  0  0  0
  -27.6190  -37.2350   24.7260 C   0  0  0  0  0  1  0  0  0  0  0  0
  -26.5110  -37.4120   23.7890 N   0  0  0  0  0  0  0  0  0  0  0  0
  -26.1030  -38.3290   23.9500 H   0  0  0  0  0  0  0  0  0  0  0  0
  -26.4980  -31.7300   25.0650 C   0  0  1  0  0  0  0  0  0  0  0  0
  -25.4140  -31.4740   26.1390 C   0  0  0  0  0  1  0  0  0  0  0  0
  -27.0850  -30.3600   24.6540 C   0  0  0  0  0  1  0  0  0  0  0  0
  -27.6490  -32.5220   25.7290 C   0  0  0  0  0  1  0  0  0  0  0  0
  1  3  2  0
  1  2  1  0
  2  6  2  0
  4  5  1  0
  4  1  1  0
  5  2  1  0
  7  8  1  0
  9 11  1  0
 10  5  1  0
 10  7  2  0
 11 22  1  0
 11  8  2  0
 12  9  2  0
 12 10  1  0
 13 12  1  0
 14 22  1  0
 15 20  1  0
 16 17  1  0
 16 15  1  0
 18 17  1  0
 18 27  1  0
 18 19  1  0
 20 14  1  0
 20 19  1  0
 21 14  2  0
 22 23  1  0
 24 25  2  0
 25 44  1  0
 26 25  1  0
 26 29  1  0
 27 28  1  0
 27 24  1  0
 28 26  2  0
 29 30  1  0
 30 31  2  0
 32 35  1  0
 32 31  1  0
 33 32  2  0
 34 33  1  0
 34 29  2  0
 35 36  1  0
 36 41  2  0
 36 37  1  0
 37 38  2  0
 39 38  1  0
 39 43  1  0
 40 39  2  0
 41 40  1  0
 42 41  1  0
 44 45  1  0
 45 48  1  0
 45 47  1  0
 46 44  2  0
 49 24  1  0
 49 50  1  0
 51 49  1  0
 52  3  1  0
 53 64  2  0
 54 52  1  0
 54 59  1  0
 55 63  1  0
 55 65  1  0
 56 62  1  0
 56 58  1  0
 57 63  1  0
 58 57  1  0
 59 58  2  0
 60 61  1  0
 60 54  2  0
 61 56  2  0
 62 55  1  0
 63 53  1  0
 65 67  2  0
 66 65  1  0
 68 66  1  0
 69 78  2  0
 69 74  1  0
 70 66  1  0
 70 74  1  0
 71 70  1  0
 72 73  1  0
 72 71  1  0
 73 69  1  0
 74 75  2  0
 75 76  1  0
 77 76  2  0
 78 77  1  0
 79 53  1  0
 79 80  1  0
 79 89  1  0
 80 83  1  0
 81 85  1  0
 81 80  1  0
 82 81  2  0
 85 84  1  0
 87 85  1  0
 87 88  1  0
 87 86  1  0
 89 92  1  1
 89 90  1  0
 91 89  1  0
M  ISO  4   3 101  14 100  22 100  52 101
M  END
>  <TORSDO>  (54) 
F 17

>  <SCORE>  (54) 
-14.033

>  <name>  (54) 
54

>  <ligand_id>  (54) 
54

>  <original_smiles>  (54) 
[H]C(Oc1c([H])c([H])c2c(c1[H])C([H])([H])N(C(=O)C([H])(N([H])C(=O)C([H])(N([H])C([H])([H])[H])C([H])([H])[H])C(C([H])([H])[H])(C([H])([H])[H])C([H])([H])[H])C([H])(C(=O)N([H])C1([H])c3c([H])c([H])c([H])c([H])c3C([H])([H])C([H])([H])C1([H])[H])C2([H])[H])=C1C(=O)N(c2c([H])c([H])c(N([H])C(=O)N3C([H])([H])C([H])([H])C([H])([H])C([H])(n4nc(-c5c([H])c([H])c(Oc6c([H])c([H])c(F)c([H])c6F)c([H])c5[H])c(C(=O)N([H])[H])c4N([H])[H])C3([H])[H])c([H])c2F)C1([H])[H]

>  <smiles>  (54) 
[H]C(Oc1c([H])c([H])c2c(c1[H])C([H])([H])N(C(=O)C([H])(N([H])C(=O)C([H])(N([H])C([H])([H])[H])C([H])([H])[H])C(C([H])([H])[H])(C([H])([H])[H])C([H])([H])[H])C([H])(C(=O)N([H])C1([H])c3c([H])c([H])c([H])c([H])c3C([H])([H])C([H])([H])C1([H])[H])C2([H])[H])=C1C(=O)N(c2c([H])c([H])c(N([H])C(=O)N3C([H])([H])C([H])([H])C([H])([H])C([H])(n4nc(-c5c([H])c([H])c(Oc6c([H])c([H])c(F)c([H])c6F)c([H])c5[H])c(C(=O)N([H])[H])c4N([H])[H])C3([H])[H])c([H])c2F)C1([H])[H]

$$$$
55:0:0
     RDKit          3D

 91 99  0  0  1  0  0  0  0  0999 V2000
  -31.4400  -18.1630   20.5120 C   0  0  0  0  0  3  0  0  0  0  0  0
  -31.8830  -19.5000   20.4920 C   0  0  0  0  0  3  0  0  0  0  0  0
  -29.1870  -19.0330   20.3920 C   0  0  0  0  0  3  0  0  0  0  0  0
  -29.6000  -20.4860   20.3660 C   0  0  0  0  0  0  0  0  0  0  0  0
  -30.0750  -17.8150   20.4510 C   0  0  0  0  0  0  0  0  0  0  0  0
  -31.0180  -20.6150   20.4120 C   0  0  0  0  0  0  0  0  0  0  0  0
  -30.4870  -15.0710   20.3540 C   0  0  0  0  0  0  0  0  0  0  0  0
  -30.3790  -12.7030   19.4180 C   0  0  0  0  0  2  0  0  0  0  0  0
  -29.4610  -12.6260   18.1770 C   0  0  0  0  0  2  0  0  0  0  0  0
  -27.9990  -12.3950   18.5990 C   0  0  0  0  0  2  0  0  0  0  0  0
  -27.5690  -13.3250   19.7620 C   0  0  0  0  0  3  0  0  0  0  0  0
  -28.6140  -13.3770   20.8980 C   0  0  0  0  0  2  0  0  0  0  0  0
  -29.8800  -13.8100   20.2920 N   0  0  0  0  0  0  0  0  0  0  0  0
  -31.6990  -15.0840   20.1030 O   0  0  0  0  0  0  0  0  0  0  0  0
  -29.7290  -16.2940   20.4750 N   0  0  0  0  0  0  0  0  0  0  0  0
  -28.7430  -16.1070   20.5780 H   0  0  0  0  0  0  0  0  0  0  0  0
  -25.1780  -13.8800   20.4750 C   0  0  0  0  0  0  0  0  0  0  0  0
  -24.1180  -13.0960   20.8380 C   0  0  0  0  0  0  0  0  0  0  0  0
  -24.5980  -11.7500   20.8220 C   0  0  0  0  0  0  0  0  0  0  0  0
  -26.2320  -13.0110   20.2520 N   0  0  0  0  0  0  0  0  0  0  0  0
  -25.8930  -11.7260   20.5290 N   0  0  0  0  0  0  0  0  0  0  0  0
  -23.8800  -10.4810   21.0110 C   0  0  0  0  0  0  0  0  0  0  0  0
  -24.2990   -9.5300   21.9670 C   0  0  0  0  0  3  0  0  0  0  0  0
  -23.5790   -8.3290   22.1440 C   0  0  0  0  0  3  0  0  0  0  0  0
  -22.4260   -8.0700   21.3650 C   0  0  0  0  0  0  0  0  0  0  0  0
  -22.0270   -9.0100   20.3990 C   0  0  0  0  0  3  0  0  0  0  0  0
  -22.7480  -10.2040   20.2200 C   0  0  0  0  0  3  0  0  0  0  0  0
  -21.6800   -6.9190   21.4490 O   0  0  0  0  0  0  0  0  0  0  0  0
  -21.5950   -6.2010   22.6140 C   0  0  0  0  0  0  0  0  0  0  0  0
  -21.1070   -6.7730   23.8100 C   0  0  0  0  0  3  0  0  0  0  0  0
  -20.9720   -5.9800   24.9660 C   0  0  0  0  0  3  0  0  0  0  0  0
  -21.3140   -4.6150   24.9290 C   0  0  0  0  0  0  0  0  0  0  0  0
  -21.7960   -4.0420   23.7390 C   0  0  0  0  0  3  0  0  0  0  0  0
  -21.9330   -4.8320   22.5850 C   0  0  0  0  0  0  0  0  0  0  0  0
  -22.3770   -4.2700   21.4350 F   0  0  0  0  0  0  0  0  0  0  0  0
  -21.1780   -3.8510   26.0380 F   0  0  0  0  0  0  0  0  0  0  0  0
  -22.7130  -13.5610   21.0840 C   0  0  0  0  0  0  0  0  0  0  0  0
  -21.9820  -12.8700   21.9510 N   0  0  0  0  0  0  0  0  0  0  0  0
  -22.2720  -14.5740   20.5430 O   0  0  0  0  0  0  0  0  0  0  0  0
  -22.3510  -12.0510   22.4100 H   0  0  0  0  0  0  0  0  0  0  0  0
  -21.0380  -13.1660   22.1600 H   0  0  0  0  0  0  0  0  0  0  0  0
  -25.3280  -15.2510   20.2870 N   0  0  0  0  0  0  0  0  0  0  0  0
  -24.5480  -15.8940   20.3790 H   0  0  0  0  0  0  0  0  0  0  0  0
  -26.1630  -15.6940   19.9260 H   0  0  0  0  0  0  0  0  0  0  0  0
  -31.6370  -21.8590   20.3460 N   0  0  0  0  0  0  0  0  0  0  0  0
  -32.5990  -21.8880   20.0220 H   0  0  0  0  0  0  0  0  0  0  0  0
  -31.0790  -22.6070   19.9530 H   0  0  0  0  0  0  0  0  0  0  0  0
  -28.6880  -21.8470   20.2700 C   0  0  0  0  0  3  0  0  0  0  0  0
  -28.8820  -23.2750   20.3530 C   0  0  0  0  0  3  0  0  0  0  0  0
  -27.8620  -24.5800   20.1530 C   0  0  0  0  0  2  0  0  0  0  0  0
  -28.2020  -26.1140   20.3190 O   0  0  0  0  0  0  0  0  0  0  0  0
  -24.6420  -31.9090   23.2860 C   0  0  0  0  0  0  0  0  0  0  0  0
  -27.1750  -27.1430   20.2490 C   0  0  0  0  0  0  0  0  0  0  0  0
  -23.4330  -30.5250   21.6460 C   0  0  0  0  0  3  0  0  0  0  0  0
  -24.8680  -28.9400   20.2150 C   0  0  0  0  0  0  0  0  0  0  0  0
  -25.9920  -30.7610   21.4840 C   0  0  0  0  0  2  0  0  0  0  0  0
  -26.0550  -29.3650   20.8270 C   0  0  0  0  0  0  0  0  0  0  0  0
  -27.2080  -28.4860   20.8240 C   0  0  0  0  0  3  0  0  0  0  0  0
  -25.9610  -26.8350   19.5950 C   0  0  0  0  0  3  0  0  0  0  0  0
  -24.8380  -27.6910   19.5810 C   0  0  0  0  0  3  0  0  0  0  0  0
  -23.6500  -29.8500   20.2660 C   0  0  0  0  0  2  0  0  0  0  0  0
  -24.7090  -31.0870   22.1930 N   0  0  0  0  0  0  0  0  0  0  0  0
  -23.5570  -32.2010   23.8140 O   0  0  0  0  0  0  0  0  0  0  0  0
  -22.7440  -29.5230   22.6080 C   0  0  0  0  0  0  0  0  0  0  0  0
  -21.4150  -29.3570   22.4780 N   0  0  0  0  0  0  0  0  0  0  0  0
  -23.4090  -28.8950   23.4360 O   0  0  0  0  0  0  0  0  0  0  0  0
  -20.9350  -29.9140   21.7850 H   0  0  0  0  0  0  0  0  0  0  0  0
  -18.0290  -28.1590   22.9640 C   0  0  0  0  0  0  0  0  0  0  0  0
  -20.5870  -28.4240   23.2470 C   0  0  0  0  0  3  0  0  0  0  0  0
  -20.6920  -26.9880   22.6810 C   0  0  0  0  0  2  0  0  0  0  0  0
  -19.5970  -26.6610   21.6610 C   0  0  0  0  0  2  0  0  0  0  0  0
  -18.2110  -26.8070   22.2950 C   0  0  0  0  0  2  0  0  0  0  0  0
  -19.1450  -28.9250   23.3970 C   0  0  0  0  0  0  0  0  0  0  0  0
  -18.9200  -30.1890   23.9850 C   0  0  0  0  0  3  0  0  0  0  0  0
  -17.6120  -30.6870   24.1440 C   0  0  0  0  0  3  0  0  0  0  0  0
  -16.5120  -29.9180   23.7260 C   0  0  0  0  0  3  0  0  0  0  0  0
  -16.7220  -28.6560   23.1410 C   0  0  0  0  0  3  0  0  0  0  0  0
  -25.9230  -32.5370   23.9140 C   0  0  0  0  0  3  0  0  0  0  0  0
  -26.4240  -31.7670   25.1980 C   0  0  1  0  0  0  0  0  0  0  0  0
  -25.3240  -31.5450   26.2620 C   0  0  0  0  0  1  0  0  0  0  0  0
  -26.9970  -30.3830   24.8210 C   0  0  0  0  0  1  0  0  0  0  0  0
  -27.5790  -32.5540   25.8610 C   0  0  0  0  0  1  0  0  0  0  0  0
  -25.6190  -33.9380   24.2450 N   0  0  0  0  0  0  0  0  0  0  0  0
  -25.9340  -34.9920   23.4790 C   0  0  0  0  0  0  0  0  0  0  0  0
  -26.5780  -34.8860   22.4320 O   0  0  0  0  0  0  0  0  0  0  0  0
  -25.0440  -34.0960   25.0610 H   0  0  0  0  0  0  0  0  0  0  0  0
  -24.1890  -36.7830   23.1920 C   0  0  0  0  0  1  0  0  0  0  0  0
  -25.4650  -36.3830   23.9500 C   0  0  0  0  0  3  0  0  0  0  0  0
  -27.6290  -37.2830   24.6860 C   0  0  0  0  0  1  0  0  0  0  0  0
  -26.4890  -37.4380   23.7860 N   0  0  0  0  0  0  0  0  0  0  0  0
  -26.0860  -38.3590   23.9410 H   0  0  0  0  0  0  0  0  0  0  0  0
  2  1  1  0
  3  5  1  0
  4  3  2  0
  4  6  1  0
  5 15  1  0
  5  1  2  0
  6  2  2  0
  7 15  1  0
  8 13  1  0
  9 10  1  0
  9  8  1  0
 11 10  1  0
 11 20  1  0
 11 12  1  0
 13  7  1  0
 13 12  1  0
 14  7  2  0
 15 16  1  0
 17 18  2  0
 18 37  1  0
 19 18  1  0
 19 22  1  0
 20 17  1  0
 20 21  1  0
 21 19  2  0
 22 23  1  0
 23 24  2  0
 25 28  1  0
 25 24  1  0
 26 25  2  0
 27 26  1  0
 27 22  2  0
 28 29  1  0
 29 30  1  0
 30 31  2  0
 32 31  1  0
 32 36  1  0
 33 32  2  0
 34 29  2  0
 34 33  1  0
 35 34  1  0
 37 38  1  0
 38 41  1  0
 38 40  1  0
 39 37  2  0
 42 43  1  0
 42 17  1  0
 44 42  1  0
 45  6  1  0
 46 45  1  0
 47 45  1  0
 48 49  2  0
 48  4  1  0
 50 51  1  0
 50 49  1  0
 52 63  2  0
 53 51  1  0
 53 58  1  0
 54 62  1  0
 54 64  1  0
 55 61  1  0
 55 57  1  0
 56 62  1  0
 57 56  1  0
 58 57  2  0
 59 53  2  0
 60 59  1  0
 60 55  2  0
 61 54  1  0
 62 52  1  0
 64 66  2  0
 65 64  1  0
 67 65  1  0
 68 77  2  0
 68 73  1  0
 69 65  1  0
 69 73  1  0
 70 69  1  0
 71 72  1  0
 71 70  1  0
 72 68  1  0
 73 74  2  0
 74 75  1  0
 76 75  2  0
 77 76  1  0
 78 52  1  0
 78 83  1  0
 78 79  1  0
 79 82  1  1
 79 80  1  0
 81 79  1  0
 83 86  1  0
 84 88  1  0
 84 83  1  0
 85 84  2  0
 88 87  1  0
 90 91  1  0
 90 88  1  0
 90 89  1  0
M  ISO  4   7 100  15 100  50 101  51 101
M  END
>  <TORSDO>  (55) 
F 19

>  <SCORE>  (55) 
-14.378

>  <name>  (55) 
55

>  <ligand_id>  (55) 
55

>  <original_smiles>  (55) 
[H]C(=C([H])C([H])([H])Oc1c([H])c([H])c2c(c1[H])C([H])([H])N(C(=O)C([H])(N([H])C(=O)C([H])(N([H])C([H])([H])[H])C([H])([H])[H])C(C([H])([H])[H])(C([H])([H])[H])C([H])([H])[H])C([H])(C(=O)N([H])C1([H])c3c([H])c([H])c([H])c([H])c3C([H])([H])C([H])([H])C1([H])[H])C2([H])[H])c1c([H])c(N([H])C(=O)N2C([H])([H])C([H])([H])C([H])([H])C([H])(n3nc(-c4c([H])c([H])c(Oc5c([H])c([H])c(F)c([H])c5F)c([H])c4[H])c(C(=O)N([H])[H])c3N([H])[H])C2([H])[H])c([H])c([H])c1N([H])[H]

>  <smiles>  (55) 
[H]C(=C([H])C([H])([H])Oc1c([H])c([H])c2c(c1[H])C([H])([H])N(C(=O)C([H])(N([H])C(=O)C([H])(N([H])C([H])([H])[H])C([H])([H])[H])C(C([H])([H])[H])(C([H])([H])[H])C([H])([H])[H])C([H])(C(=O)N([H])C1([H])c3c([H])c([H])c([H])c([H])c3C([H])([H])C([H])([H])C1([H])[H])C2([H])[H])c1c([H])c(N([H])C(=O)N2C([H])([H])C([H])([H])C([H])([H])C([H])(n3nc(-c4c([H])c([H])c(Oc5c([H])c([H])c(F)c([H])c5F)c([H])c4[H])c(C(=O)N([H])[H])c3N([H])[H])C2([H])[H])c([H])c([H])c1N([H])[H]

$$$$
56:0:0
     RDKit          3D

 98108  0  0  1  0  0  0  0  0999 V2000
  -28.3010  -19.5130   20.4310 C   0  0  0  0  0  3  0  0  0  0  0  0
  -30.3930  -18.4820   21.1910 C   0  0  0  0  0  3  0  0  0  0  0  0
  -28.5800  -17.0830   20.3800 C   0  0  0  0  0  3  0  0  0  0  0  0
  -29.5940  -19.7080   20.9600 C   0  0  0  0  0  0  0  0  0  0  0  0
  -27.7890  -18.2300   20.1630 C   0  0  0  0  0  0  0  0  0  0  0  0
  -29.8950  -17.1310   20.8910 C   0  0  0  0  0  0  0  0  0  0  0  0
  -31.1140  -14.7070   20.5720 C   0  0  0  0  0  0  0  0  0  0  0  0
  -30.9860  -12.3670   19.6390 C   0  0  0  0  0  2  0  0  0  0  0  0
  -30.1210  -12.3800   18.3550 C   0  0  0  0  0  2  0  0  0  0  0  0
  -28.6230  -12.2560   18.6940 C   0  0  0  0  0  2  0  0  0  0  0  0
  -28.1970  -13.2120   19.8390 C   0  0  0  0  0  3  0  0  0  0  0  0
  -29.1740  -13.1240   21.0340 C   0  0  0  0  0  2  0  0  0  0  0  0
  -30.5210  -13.4550   20.5340 N   0  0  0  0  0  0  0  0  0  0  0  0
  -32.2610  -14.8580   20.1380 O   0  0  0  0  0  0  0  0  0  0  0  0
  -30.3710  -15.7290   21.1480 N   0  0  0  0  0  0  0  0  0  0  0  0
  -29.6680  -15.2460   21.6890 H   0  0  0  0  0  0  0  0  0  0  0  0
  -25.7910  -13.9140   20.4010 C   0  0  0  0  0  0  0  0  0  0  0  0
  -24.6760  -13.1930   20.7290 C   0  0  0  0  0  0  0  0  0  0  0  0
  -25.0830  -11.8230   20.7460 C   0  0  0  0  0  0  0  0  0  0  0  0
  -26.8130  -12.9900   20.2490 N   0  0  0  0  0  0  0  0  0  0  0  0
  -26.3870  -11.7270   20.5140 N   0  0  0  0  0  0  0  0  0  0  0  0
  -24.2930  -10.5970   20.9100 C   0  0  0  0  0  0  0  0  0  0  0  0
  -24.6140   -9.6370   21.8950 C   0  0  0  0  0  3  0  0  0  0  0  0
  -23.8270   -8.4760   22.0470 C   0  0  0  0  0  3  0  0  0  0  0  0
  -22.7050   -8.2640   21.2110 C   0  0  0  0  0  0  0  0  0  0  0  0
  -22.4040   -9.2100   20.2160 C   0  0  0  0  0  3  0  0  0  0  0  0
  -23.1910  -10.3630   20.0630 C   0  0  0  0  0  3  0  0  0  0  0  0
  -21.8990   -7.1520   21.2680 O   0  0  0  0  0  0  0  0  0  0  0  0
  -21.6860   -6.4770   22.4440 C   0  0  0  0  0  0  0  0  0  0  0  0
  -21.1320   -7.1110   23.5770 C   0  0  0  0  0  3  0  0  0  0  0  0
  -20.8660   -6.3660   24.7410 C   0  0  0  0  0  3  0  0  0  0  0  0
  -21.1430   -4.9850   24.7720 C   0  0  0  0  0  0  0  0  0  0  0  0
  -21.6880   -4.3510   23.6430 C   0  0  0  0  0  3  0  0  0  0  0  0
  -21.9550   -5.0940   22.4820 C   0  0  0  0  0  0  0  0  0  0  0  0
  -22.4620   -4.4730   21.3890 F   0  0  0  0  0  0  0  0  0  0  0  0
  -20.8800   -4.2660   25.8890 F   0  0  0  0  0  0  0  0  0  0  0  0
  -23.2880  -13.7330   20.9120 C   0  0  0  0  0  0  0  0  0  0  0  0
  -22.4950  -13.1020   21.7710 N   0  0  0  0  0  0  0  0  0  0  0  0
  -22.9170  -14.7510   20.3290 O   0  0  0  0  0  0  0  0  0  0  0  0
  -22.8080  -12.2780   22.2620 H   0  0  0  0  0  0  0  0  0  0  0  0
  -21.5590  -13.4470   21.9360 H   0  0  0  0  0  0  0  0  0  0  0  0
  -26.0140  -15.2710   20.1900 N   0  0  0  0  0  4  0  0  0  0  0  0
  -25.2140  -15.8730   20.0330 H   0  0  0  0  0  0  0  0  0  0  0  0
  -26.8390  -15.5950   19.6990 H   0  0  0  0  0  0  0  0  0  0  0  0
  -24.3050  -17.4320   19.6600 C   0  0  0  0  0  3  0  0  0  0  0  0
  -24.4930  -18.3070   18.6720 C   0  0  0  0  0  3  0  0  0  0  0  0
  -25.5500  -17.2740   20.3630 C   0  0  0  0  0  0  0  0  0  0  0  0
  -25.8700  -18.7490   18.7150 C   0  0  0  0  0  0  0  0  0  0  0  0
  -23.4750  -18.7960   17.6580 C   0  0  0  0  0  1  0  0  0  0  0  0
  -26.4330  -18.0850   19.7470 N   0  0  0  0  0  0  0  0  0  0  0  0
  -25.7720  -16.5520   21.3430 O   0  0  0  0  0  0  0  0  0  0  0  0
  -26.4260  -19.5610   17.9680 O   0  0  0  0  0  0  0  0  0  0  0  0
  -29.9790  -21.1920   21.3220 C   0  0  0  0  0  0  0  0  0  0  0  0
  -31.0170  -21.3490   21.9660 O   0  0  0  0  0  0  0  0  0  0  0  0
  -29.4320  -23.5790   21.0210 C   0  0  0  0  0  3  0  0  0  0  0  0
  -29.1280  -22.2880   20.8990 N   0  0  0  0  0  0  0  0  0  0  0  0
  -28.5540  -24.8120   20.4300 C   0  0  0  0  0  2  0  0  0  0  0  0
  -28.8100  -26.2890   20.7070 O   0  0  0  0  0  0  0  0  0  0  0  0
  -24.9430  -31.9220   23.3140 C   0  0  0  0  0  0  0  0  0  0  0  0
  -27.7200  -27.2020   20.5640 C   0  0  0  0  0  0  0  0  0  0  0  0
  -23.8220  -30.4320   21.7000 C   0  0  0  0  0  3  0  0  0  0  0  0
  -25.3450  -28.8410   20.3950 C   0  0  0  0  0  0  0  0  0  0  0  0
  -26.3690  -30.7630   21.5990 C   0  0  0  0  0  2  0  0  0  0  0  0
  -26.4930  -29.3520   21.0160 C   0  0  0  0  0  0  0  0  0  0  0  0
  -27.6820  -28.5460   21.0900 C   0  0  0  0  0  3  0  0  0  0  0  0
  -26.5440  -26.7770   19.9020 C   0  0  0  0  0  3  0  0  0  0  0  0
  -25.3790  -27.5610   19.8280 C   0  0  0  0  0  3  0  0  0  0  0  0
  -24.0970  -29.7030   20.3600 C   0  0  0  0  0  2  0  0  0  0  0  0
  -25.0620  -31.0600   22.2600 N   0  0  0  0  0  0  0  0  0  0  0  0
  -23.8360  -32.2070   23.7940 O   0  0  0  0  0  0  0  0  0  0  0  0
  -23.1340  -29.4510   22.6820 C   0  0  0  0  0  0  0  0  0  0  0  0
  -21.8410  -29.1640   22.4510 N   0  0  0  0  0  0  0  0  0  0  0  0
  -23.7700  -28.9470   23.6120 O   0  0  0  0  0  0  0  0  0  0  0  0
  -21.3820  -29.6250   21.6780 H   0  0  0  0  0  0  0  0  0  0  0  0
  -18.4970  -27.8260   22.8160 C   0  0  0  0  0  0  0  0  0  0  0  0
  -21.0180  -28.2320   23.2260 C   0  0  0  0  0  3  0  0  0  0  0  0
  -21.2230  -26.7750   22.7490 C   0  0  0  0  0  2  0  0  0  0  0  0
  -20.2080  -26.3400   21.6880 C   0  0  0  0  0  2  0  0  0  0  0  0
  -18.7820  -26.4500   22.2340 C   0  0  0  0  0  2  0  0  0  0  0  0
  -19.5480  -28.6680   23.2670 C   0  0  0  0  0  0  0  0  0  0  0  0
  -19.2310  -29.9490   23.7680 C   0  0  0  0  0  3  0  0  0  0  0  0
  -17.8970  -30.3920   23.8210 C   0  0  0  0  0  3  0  0  0  0  0  0
  -16.8580  -29.5500   23.3870 C   0  0  0  0  0  3  0  0  0  0  0  0
  -17.1600  -28.2670   22.8920 C   0  0  0  0  0  3  0  0  0  0  0  0
  -26.1900  -32.6060   23.9510 C   0  0  0  0  0  3  0  0  0  0  0  0
  -26.7830  -31.8010   25.1730 C   0  0  1  0  0  0  0  0  0  0  0  0
  -25.7160  -31.3380   26.1910 C   0  0  0  0  0  1  0  0  0  0  0  0
  -27.5420  -30.5460   24.6870 C   0  0  0  0  0  1  0  0  0  0  0  0
  -27.8130  -32.6770   25.9260 C   0  0  0  0  0  1  0  0  0  0  0  0
  -25.7930  -33.9590   24.3680 N   0  0  0  0  0  0  0  0  0  0  0  0
  -26.0130  -35.0720   23.6560 C   0  0  0  0  0  0  0  0  0  0  0  0
  -26.6410  -35.0730   22.5930 O   0  0  0  0  0  0  0  0  0  0  0  0
  -25.2250  -34.0270   25.1990 H   0  0  0  0  0  0  0  0  0  0  0  0
  -24.1360  -36.7390   23.4880 C   0  0  0  0  0  1  0  0  0  0  0  0
  -25.4490  -36.3960   24.2090 C   0  0  0  0  0  3  0  0  0  0  0  0
  -27.5550  -37.4060   24.9670 C   0  0  0  0  0  1  0  0  0  0  0  0
  -26.3900  -37.5310   24.0960 N   0  0  0  0  0  0  0  0  0  0  0  0
  -25.9240  -38.4070   24.3130 H   0  0  0  0  0  0  0  0  0  0  0  0
  1  4  1  0
  3  6  2  0
  4  2  2  0
  4 53  1  0
  5  3  1  0
  5  1  2  0
  6 15  1  0
  6  2  1  0
  7 15  1  0
  8 13  1  0
  9 10  1  0
  9  8  1  0
 11 10  1  0
 11 20  1  0
 11 12  1  0
 13  7  1  0
 13 12  1  0
 14  7  2  0
 15 16  1  0
 17 18  2  0
 18 19  1  0
 18 37  1  0
 19 22  1  0
 20 17  1  0
 20 21  1  0
 21 19  2  0
 22 23  1  0
 23 24  2  0
 25 28  1  0
 25 24  1  0
 26 25  2  0
 27 26  1  0
 27 22  2  0
 28 29  1  0
 29 34  2  0
 29 30  1  0
 30 31  2  0
 31 32  1  0
 32 36  1  0
 33 32  2  0
 34 33  1  0
 35 34  1  0
 37 38  1  0
 38 41  1  0
 38 40  1  0
 39 37  2  0
 42 17  1  0
 42 51  1  0
 43 42  1  0
 44 42  1  0
 45 47  2  0
 46 49  1  0
 46 48  1  0
 46 45  1  0
 47 51  1  0
 48 50  1  0
 50  5  1  0
 50 47  1  0
 52 48  2  0
 53 54  2  0
 56 55  2  0
 56 53  1  0
 57 58  1  0
 57 55  1  0
 59 70  2  0
 60 58  1  0
 60 65  1  0
 61 69  1  0
 61 71  1  0
 62 64  1  0
 63 69  1  0
 64 65  2  0
 64 63  1  0
 66 60  2  0
 67 66  1  0
 67 62  2  0
 68 62  1  0
 68 61  1  0
 69 59  1  0
 71 73  2  0
 72 71  1  0
 74 72  1  0
 75 84  2  0
 75 80  1  0
 76 72  1  0
 76 80  1  0
 77 76  1  0
 78 79  1  0
 78 77  1  0
 79 75  1  0
 80 81  2  0
 81 82  1  0
 83 82  2  0
 84 83  1  0
 85 59  1  0
 85 90  1  0
 85 86  1  0
 86 89  1  1
 86 87  1  0
 88 86  1  0
 90 93  1  0
 91 95  1  0
 91 90  1  0
 92 91  2  0
 95 94  1  0
 97 95  1  0
 97 98  1  0
 97 96  1  0
M  ISO  4   7 100  15 100  57 101  58 101
M  END
>  <TORSDO>  (56) 
F 20

>  <SCORE>  (56) 
-7.171

>  <name>  (56) 
56

>  <ligand_id>  (56) 
56

>  <original_smiles>  (56) 
[H]C(=NC(=O)c1c([H])c(N([H])C(=O)N2C([H])([H])C([H])([H])C([H])([H])C([H])(n3nc(-c4c([H])c([H])c(Oc5c([H])c([H])c(F)c([H])c5F)c([H])c4[H])c(C(=O)N([H])[H])c3N([H])[H])C2([H])[H])c([H])c(N2C(=O)C([H])=C(C([H])([H])[H])C2=O)c1[H])C([H])([H])Oc1c([H])c([H])c2c(c1[H])C([H])([H])N(C(=O)C([H])(N([H])C(=O)C([H])(N([H])C([H])([H])[H])C([H])([H])[H])C(C([H])([H])[H])(C([H])([H])[H])C([H])([H])[H])C([H])(C(=O)N([H])C1([H])c3c([H])c([H])c([H])c([H])c3C([H])([H])C([H])([H])C1([H])[H])C2([H])[H]

>  <smiles>  (56) 
[H]C(=NC(=O)c1c([H])c(N([H])C(=O)N2C([H])([H])C([H])([H])C([H])([H])C([H])(n3nc(-c4c([H])c([H])c(Oc5c([H])c([H])c(F)c([H])c5F)c([H])c4[H])c(C(=O)N([H])[H])c3N([H])[H])C2([H])[H])c([H])c(N2C(=O)C([H])=C(C([H])([H])[H])C2=O)c1[H])C([H])([H])Oc1c([H])c([H])c2c(c1[H])C([H])([H])N(C(=O)C([H])(N([H])C(=O)C([H])(N([H])C([H])([H])[H])C([H])([H])[H])C(C([H])([H])[H])(C([H])([H])[H])C([H])([H])[H])C([H])(C(=O)N([H])C1([H])c3c([H])c([H])c([H])c([H])c3C([H])([H])C([H])([H])C1([H])[H])C2([H])[H]

$$$$
57:0:0
     RDKit          3D

 94103  0  0  1  0  0  0  0  0999 V2000
  -28.5650  -23.7010   20.4020 C   0  0  0  0  0  0  0  0  0  0  0  0
  -29.1460  -23.4450   21.7100 C   0  0  0  0  0  0  0  0  0  0  0  0
  -28.5530  -22.3560   19.7390 C   0  0  0  0  0  0  0  0  0  0  0  0
  -28.1500  -24.9220   19.8440 C   0  0  0  0  0  3  0  0  0  0  0  0
  -29.4650  -21.9420   21.8430 C   0  0  0  0  0  2  0  0  0  0  0  0
  -29.1170  -21.3550   20.5330 N   0  0  0  0  0  0  0  0  0  0  0  0
  -29.3520  -24.2650   22.6110 O   0  0  0  0  0  0  0  0  0  0  0  0
  -28.0810  -22.1310   18.6190 O   0  0  0  0  0  0  0  0  0  0  0  0
  -29.4590  -18.6650   20.6570 C   0  0  0  0  0  3  0  0  0  0  0  0
  -30.5660  -20.0700   19.0020 C   0  0  0  0  0  3  0  0  0  0  0  0
  -31.0010  -17.6520   19.0780 C   0  0  0  0  0  3  0  0  0  0  0  0
  -29.6650  -20.0170   20.0880 C   0  0  0  0  0  0  0  0  0  0  0  0
  -30.1110  -17.4390   20.1540 C   0  0  0  0  0  0  0  0  0  0  0  0
  -31.2240  -18.9250   18.5200 C   0  0  0  0  0  0  0  0  0  0  0  0
  -32.0930  -19.0480   17.4940 F   0  0  0  0  0  0  0  0  0  0  0  0
  -30.5970  -14.8340   20.3540 C   0  0  0  0  0  0  0  0  0  0  0  0
  -30.3780  -12.5400   19.3700 C   0  0  0  0  0  2  0  0  0  0  0  0
  -29.4560  -12.5970   18.1320 C   0  0  0  0  0  2  0  0  0  0  0  0
  -27.9840  -12.4210   18.5520 C   0  0  0  0  0  2  0  0  0  0  0  0
  -27.5990  -13.3130   19.7610 C   0  0  0  0  0  3  0  0  0  0  0  0
  -28.6520  -13.2530   20.8910 C   0  0  0  0  0  2  0  0  0  0  0  0
  -29.9500  -13.6110   20.3050 N   0  0  0  0  0  0  0  0  0  0  0  0
  -31.7860  -14.8790   20.0260 O   0  0  0  0  0  0  0  0  0  0  0  0
  -29.8770  -16.0140   20.6080 N   0  0  0  0  0  0  0  0  0  0  0  0
  -28.9760  -15.8560   21.0350 H   0  0  0  0  0  0  0  0  0  0  0  0
  -25.2110  -13.9020   20.4720 C   0  0  0  0  0  0  0  0  0  0  0  0
  -24.1420  -13.1300   20.8420 C   0  0  0  0  0  0  0  0  0  0  0  0
  -24.6060  -11.7760   20.8250 C   0  0  0  0  0  0  0  0  0  0  0  0
  -26.2540  -13.0220   20.2470 N   0  0  0  0  0  0  0  0  0  0  0  0
  -25.8990  -11.7380   20.5230 N   0  0  0  0  0  0  0  0  0  0  0  0
  -23.8780  -10.5160   21.0200 C   0  0  0  0  0  0  0  0  0  0  0  0
  -24.3080   -9.5520   21.9570 C   0  0  0  0  0  3  0  0  0  0  0  0
  -23.5790   -8.3560   22.1420 C   0  0  0  0  0  3  0  0  0  0  0  0
  -22.4080   -8.1160   21.3850 C   0  0  0  0  0  0  0  0  0  0  0  0
  -21.9950   -9.0710   20.4390 C   0  0  0  0  0  3  0  0  0  0  0  0
  -22.7240  -10.2570   20.2530 C   0  0  0  0  0  3  0  0  0  0  0  0
  -21.6520   -6.9730   21.4780 O   0  0  0  0  0  0  0  0  0  0  0  0
  -21.6060   -6.2320   22.6310 C   0  0  0  0  0  0  0  0  0  0  0  0
  -21.1890   -6.7890   23.8600 C   0  0  0  0  0  3  0  0  0  0  0  0
  -21.0890   -5.9740   25.0060 C   0  0  0  0  0  3  0  0  0  0  0  0
  -21.3960   -4.6020   24.9240 C   0  0  0  0  0  0  0  0  0  0  0  0
  -21.8080   -4.0450   23.7000 C   0  0  0  0  0  3  0  0  0  0  0  0
  -21.9090   -4.8570   22.5570 C   0  0  0  0  0  0  0  0  0  0  0  0
  -22.2830   -4.3110   21.3750 F   0  0  0  0  0  0  0  0  0  0  0  0
  -21.2950   -3.8160   26.0220 F   0  0  0  0  0  0  0  0  0  0  0  0
  -22.7440  -13.6090   21.0980 C   0  0  0  0  0  0  0  0  0  0  0  0
  -22.0060  -12.9220   21.9640 N   0  0  0  0  0  0  0  0  0  0  0  0
  -22.3080  -14.6290   20.5660 O   0  0  0  0  0  0  0  0  0  0  0  0
  -22.3660  -12.0940   22.4150 H   0  0  0  0  0  0  0  0  0  0  0  0
  -21.0680  -13.2300   22.1810 H   0  0  0  0  0  0  0  0  0  0  0  0
  -25.3730  -15.2710   20.2880 N   0  0  0  0  0  0  0  0  0  0  0  0
  -24.6080  -15.9270   20.3970 H   0  0  0  0  0  0  0  0  0  0  0  0
  -26.2250  -15.7090   19.9620 H   0  0  0  0  0  0  0  0  0  0  0  0
  -28.2410  -26.2940   20.2980 O   0  0  0  0  0  0  0  0  0  0  0  0
  -24.6180  -31.8750   23.2370 C   0  0  0  0  0  0  0  0  0  0  0  0
  -27.1760  -27.2330   20.1820 C   0  0  0  0  0  0  0  0  0  0  0  0
  -23.4060  -30.4830   21.6020 C   0  0  0  0  0  3  0  0  0  0  0  0
  -24.8430  -28.9370   20.1560 C   0  0  0  0  0  0  0  0  0  0  0  0
  -25.9550  -30.7720   21.4220 C   0  0  0  0  0  2  0  0  0  0  0  0
  -26.0200  -29.3910   20.7620 C   0  0  0  0  0  0  0  0  0  0  0  0
  -27.1870  -28.5510   20.7640 C   0  0  0  0  0  3  0  0  0  0  0  0
  -25.9750  -26.8630   19.5360 C   0  0  0  0  0  3  0  0  0  0  0  0
  -24.8270  -27.6800   19.5300 C   0  0  0  0  0  3  0  0  0  0  0  0
  -23.6130  -29.8240   20.2130 C   0  0  0  0  0  2  0  0  0  0  0  0
  -24.6770  -31.0630   22.1410 N   0  0  0  0  0  0  0  0  0  0  0  0
  -23.5340  -32.1560   23.7730 O   0  0  0  0  0  0  0  0  0  0  0  0
  -22.7440  -29.4640   22.5600 C   0  0  0  0  0  0  0  0  0  0  0  0
  -21.4170  -29.2870   22.4390 N   0  0  0  0  0  0  0  0  0  0  0  0
  -23.4200  -28.8420   23.3810 O   0  0  0  0  0  0  0  0  0  0  0  0
  -20.9200  -29.8440   21.7590 H   0  0  0  0  0  0  0  0  0  0  0  0
  -18.0390  -28.0760   22.9400 C   0  0  0  0  0  0  0  0  0  0  0  0
  -20.5960  -28.3480   23.2120 C   0  0  0  0  0  3  0  0  0  0  0  0
  -20.7040  -26.9150   22.6410 C   0  0  0  0  0  2  0  0  0  0  0  0
  -19.6040  -26.5860   21.6270 C   0  0  0  0  0  2  0  0  0  0  0  0
  -18.2220  -26.7250   22.2680 C   0  0  0  0  0  2  0  0  0  0  0  0
  -19.1520  -28.8460   23.3670 C   0  0  0  0  0  0  0  0  0  0  0  0
  -18.9230  -30.1110   23.9520 C   0  0  0  0  0  3  0  0  0  0  0  0
  -17.6140  -30.6040   24.1120 C   0  0  0  0  0  3  0  0  0  0  0  0
  -16.5150  -29.8290   23.7020 C   0  0  0  0  0  3  0  0  0  0  0  0
  -16.7290  -28.5670   23.1210 C   0  0  0  0  0  3  0  0  0  0  0  0
  -25.9000  -32.5080   23.8570 C   0  0  0  0  0  3  0  0  0  0  0  0
  -25.5910  -33.9050   24.1980 N   0  0  0  0  0  0  0  0  0  0  0  0
  -25.9090  -34.9620   23.4410 C   0  0  0  0  0  0  0  0  0  0  0  0
  -26.5600  -34.8630   22.3970 O   0  0  0  0  0  0  0  0  0  0  0  0
  -25.0180  -34.0570   25.0150 H   0  0  0  0  0  0  0  0  0  0  0  0
  -24.1670  -36.7480   23.1390 C   0  0  0  0  0  1  0  0  0  0  0  0
  -25.4320  -36.3480   23.9160 C   0  0  0  0  0  3  0  0  0  0  0  0
  -27.5800  -37.2420   24.6970 C   0  0  0  0  0  1  0  0  0  0  0  0
  -26.4590  -37.4020   23.7720 N   0  0  0  0  0  0  0  0  0  0  0  0
  -26.0570  -38.3240   23.9190 H   0  0  0  0  0  0  0  0  0  0  0  0
  -26.4210  -31.7310   25.1310 C   0  0  1  0  0  0  0  0  0  0  0  0
  -25.3320  -31.5010   26.2040 C   0  0  0  0  0  1  0  0  0  0  0  0
  -26.9970  -30.3510   24.7420 C   0  0  0  0  0  1  0  0  0  0  0  0
  -27.5790  -32.5220   25.7870 C   0  0  0  0  0  1  0  0  0  0  0  0
  1  2  1  0
  2  5  1  0
  2  7  2  0
  3  1  1  0
  3  6  1  0
  4 54  1  0
  4  1  2  0
  6  5  1  0
  8  3  2  0
 10 12  1  0
 11 13  2  0
 12  6  1  0
 12  9  2  0
 13 24  1  0
 13  9  1  0
 14 10  2  0
 14 11  1  0
 15 14  1  0
 16 24  1  0
 17 22  1  0
 18 19  1  0
 18 17  1  0
 20 19  1  0
 20 29  1  0
 20 21  1  0
 22 16  1  0
 22 21  1  0
 23 16  2  0
 24 25  1  0
 26 27  2  0
 27 46  1  0
 28 27  1  0
 28 31  1  0
 29 26  1  0
 29 30  1  0
 30 28  2  0
 31 32  1  0
 32 33  2  0
 34 37  1  0
 34 33  1  0
 35 34  2  0
 36 35  1  0
 36 31  2  0
 37 38  1  0
 38 39  1  0
 39 40  2  0
 41 40  1  0
 41 45  1  0
 42 41  2  0
 43 38  2  0
 43 42  1  0
 44 43  1  0
 46 47  1  0
 47 50  1  0
 47 49  1  0
 48 46  2  0
 51 52  1  0
 51 26  1  0
 53 51  1  0
 55 66  2  0
 56 54  1  0
 56 61  1  0
 57 65  1  0
 57 67  1  0
 58 64  1  0
 58 60  1  0
 59 65  1  0
 60 61  2  0
 60 59  1  0
 62 56  2  0
 63 62  1  0
 63 58  2  0
 64 57  1  0
 65 55  1  0
 67 69  2  0
 68 67  1  0
 70 68  1  0
 71 80  2  0
 71 76  1  0
 72 68  1  0
 72 76  1  0
 73 72  1  0
 74 75  1  0
 74 73  1  0
 75 71  1  0
 76 77  2  0
 77 78  1  0
 79 78  2  0
 80 79  1  0
 81 55  1  0
 81 82  1  0
 81 91  1  0
 82 85  1  0
 83 87  1  0
 83 82  1  0
 84 83  2  0
 87 86  1  0
 89 87  1  0
 89 90  1  0
 89 88  1  0
 91 94  1  1
 91 92  1  0
 93 91  1  0
M  ISO  4   4 101  16 100  24 100  54 101
M  END
>  <TORSDO>  (57) 
F 17

>  <SCORE>  (57) 
-15.398

>  <name>  (57) 
57

>  <ligand_id>  (57) 
57

>  <original_smiles>  (57) 
[H]C(Oc1c([H])c([H])c2c(c1[H])C([H])([H])N(C(=O)C([H])(N([H])C(=O)C([H])(N([H])C([H])([H])[H])C([H])([H])[H])C(C([H])([H])[H])(C([H])([H])[H])C([H])([H])[H])C([H])(C(=O)N([H])C1([H])c3c([H])c([H])c([H])c([H])c3C([H])([H])C([H])([H])C1([H])[H])C2([H])[H])=C1C(=O)N(c2c([H])c(F)c([H])c(N([H])C(=O)N3C([H])([H])C([H])([H])C([H])([H])C([H])(n4nc(-c5c([H])c([H])c(Oc6c([H])c([H])c(F)c([H])c6F)c([H])c5[H])c(C(=O)N([H])[H])c4N([H])[H])C3([H])[H])c2[H])C([H])([H])C1=O

>  <smiles>  (57) 
[H]C(Oc1c([H])c([H])c2c(c1[H])C([H])([H])N(C(=O)C([H])(N([H])C(=O)C([H])(N([H])C([H])([H])[H])C([H])([H])[H])C(C([H])([H])[H])(C([H])([H])[H])C([H])([H])[H])C([H])(C(=O)N([H])C1([H])c3c([H])c([H])c([H])c([H])c3C([H])([H])C([H])([H])C1([H])[H])C2([H])[H])=C1C(=O)N(c2c([H])c(F)c([H])c(N([H])C(=O)N3C([H])([H])C([H])([H])C([H])([H])C([H])(n4nc(-c5c([H])c([H])c(Oc6c([H])c([H])c(F)c([H])c6F)c([H])c5[H])c(C(=O)N([H])[H])c4N([H])[H])C3([H])[H])c2[H])C([H])([H])C1=O

$$$$
58:0:0
     RDKit          3D

 94103  0  0  1  0  0  0  0  0999 V2000
  -29.9980  -20.0530   18.5340 C   0  0  0  0  0  3  0  0  0  0  0  0
  -30.3150  -18.8260   17.9260 C   0  0  0  0  0  3  0  0  0  0  0  0
  -29.4700  -18.8680   20.5400 C   0  0  0  0  0  3  0  0  0  0  0  0
  -29.5140  -20.1940   19.8570 C   0  0  0  0  0  0  0  0  0  0  0  0
  -30.2140  -17.5990   18.5990 C   0  0  0  0  0  0  0  0  0  0  0  0
  -29.8630  -17.5480   19.9740 C   0  0  0  0  0  0  0  0  0  0  0  0
  -30.5970  -15.0160   20.5300 C   0  0  0  0  0  0  0  0  0  0  0  0
  -30.5230  -12.6640   19.6450 C   0  0  0  0  0  2  0  0  0  0  0  0
  -29.6410  -12.6200   18.3760 C   0  0  0  0  0  2  0  0  0  0  0  0
  -28.1570  -12.4270   18.7480 C   0  0  0  0  0  2  0  0  0  0  0  0
  -27.7070  -13.3640   19.9020 C   0  0  0  0  0  3  0  0  0  0  0  0
  -28.7130  -13.3710   21.0720 C   0  0  0  0  0  2  0  0  0  0  0  0
  -30.0150  -13.7580   20.5150 N   0  0  0  0  0  0  0  0  0  0  0  0
  -31.8120  -15.0880   20.3090 O   0  0  0  0  0  0  0  0  0  0  0  0
  -29.7910  -16.1750   20.6340 N   0  0  0  0  0  0  0  0  0  0  0  0
  -28.9010  -15.9900   21.0710 H   0  0  0  0  0  0  0  0  0  0  0  0
  -25.3000  -13.9520   20.5510 C   0  0  0  0  0  0  0  0  0  0  0  0
  -24.2210  -13.1780   20.8780 C   0  0  0  0  0  0  0  0  0  0  0  0
  -24.6840  -11.8270   20.8640 C   0  0  0  0  0  0  0  0  0  0  0  0
  -26.3490  -13.0720   20.3480 N   0  0  0  0  0  0  0  0  0  0  0  0
  -25.9850  -11.7890   20.6040 N   0  0  0  0  0  0  0  0  0  0  0  0
  -23.9520  -10.5650   21.0250 C   0  0  0  0  0  0  0  0  0  0  0  0
  -24.3470   -9.5970   21.9750 C   0  0  0  0  0  3  0  0  0  0  0  0
  -23.6150   -8.4000   22.1250 C   0  0  0  0  0  3  0  0  0  0  0  0
  -22.4730   -8.1600   21.3230 C   0  0  0  0  0  0  0  0  0  0  0  0
  -22.0980   -9.1150   20.3610 C   0  0  0  0  0  3  0  0  0  0  0  0
  -22.8310  -10.3060   20.2110 C   0  0  0  0  0  3  0  0  0  0  0  0
  -21.7150   -7.0170   21.3820 O   0  0  0  0  0  0  0  0  0  0  0  0
  -21.6130   -6.2770   22.5330 C   0  0  0  0  0  0  0  0  0  0  0  0
  -21.1190   -6.8340   23.7330 C   0  0  0  0  0  3  0  0  0  0  0  0
  -20.9650   -6.0210   24.8740 C   0  0  0  0  0  3  0  0  0  0  0  0
  -21.2930   -4.6540   24.8160 C   0  0  0  0  0  0  0  0  0  0  0  0
  -21.7800   -4.0980   23.6200 C   0  0  0  0  0  3  0  0  0  0  0  0
  -21.9360   -4.9060   22.4810 C   0  0  0  0  0  0  0  0  0  0  0  0
  -22.3850   -4.3600   21.3250 F   0  0  0  0  0  0  0  0  0  0  0  0
  -21.1380   -3.8710   25.9090 F   0  0  0  0  0  0  0  0  0  0  0  0
  -22.8130  -13.6550   21.0900 C   0  0  0  0  0  0  0  0  0  0  0  0
  -22.0490  -12.9590   21.9240 N   0  0  0  0  0  0  0  0  0  0  0  0
  -22.3970  -14.6800   20.5490 O   0  0  0  0  0  0  0  0  0  0  0  0
  -22.3990  -12.1350   22.3870 H   0  0  0  0  0  0  0  0  0  0  0  0
  -21.1010  -13.2580   22.1020 H   0  0  0  0  0  0  0  0  0  0  0  0
  -25.4710  -15.3220   20.3830 N   0  0  0  0  0  0  0  0  0  0  0  0
  -24.7020  -15.9760   20.4810 H   0  0  0  0  0  0  0  0  0  0  0  0
  -26.3220  -15.7630   20.0580 H   0  0  0  0  0  0  0  0  0  0  0  0
  -28.5430  -23.6640   20.3910 C   0  0  0  0  0  0  0  0  0  0  0  0
  -28.1670  -22.3590   20.9920 C   0  0  0  0  0  0  0  0  0  0  0  0
  -28.0140  -24.9630   20.6050 C   0  0  0  0  0  3  0  0  0  0  0  0
  -29.5950  -22.8830   19.5500 C   0  0  0  0  0  2  0  0  0  0  0  0
  -29.1510  -21.6270   20.2620 N   0  0  0  0  0  0  0  0  0  0  0  0
  -27.2720  -22.0790   21.7620 O   0  0  0  0  0  0  0  0  0  0  0  0
  -28.2890  -26.3100   20.1260 O   0  0  0  0  0  0  0  0  0  0  0  0
  -24.6770  -31.9360   23.2320 C   0  0  0  0  0  0  0  0  0  0  0  0
  -27.2400  -27.2890   20.1280 C   0  0  0  0  0  0  0  0  0  0  0  0
  -23.4550  -30.5310   21.6140 C   0  0  0  0  0  3  0  0  0  0  0  0
  -24.8910  -28.9820   20.1530 C   0  0  0  0  0  0  0  0  0  0  0  0
  -26.0000  -30.8320   21.3970 C   0  0  0  0  0  2  0  0  0  0  0  0
  -26.0770  -29.4470   20.7380 C   0  0  0  0  0  0  0  0  0  0  0  0
  -27.2560  -28.6150   20.7100 C   0  0  0  0  0  3  0  0  0  0  0  0
  -26.0310  -26.9210   19.5000 C   0  0  0  0  0  3  0  0  0  0  0  0
  -24.8780  -27.7310   19.5190 C   0  0  0  0  0  3  0  0  0  0  0  0
  -23.6530  -29.8620   20.2300 C   0  0  0  0  0  2  0  0  0  0  0  0
  -24.7320  -31.1200   22.1360 N   0  0  0  0  0  0  0  0  0  0  0  0
  -23.5990  -32.2080   23.7820 O   0  0  0  0  0  0  0  0  0  0  0  0
  -22.8110  -29.5120   22.5860 C   0  0  0  0  0  0  0  0  0  0  0  0
  -21.4860  -29.3090   22.4700 N   0  0  0  0  0  0  0  0  0  0  0  0
  -23.5030  -28.9050   23.4070 O   0  0  0  0  0  0  0  0  0  0  0  0
  -20.9820  -29.8530   21.7830 H   0  0  0  0  0  0  0  0  0  0  0  0
  -18.1410  -28.0230   22.9890 C   0  0  0  0  0  0  0  0  0  0  0  0
  -20.6920  -28.3590   23.2520 C   0  0  0  0  0  3  0  0  0  0  0  0
  -20.8310  -26.9220   22.6950 C   0  0  0  0  0  2  0  0  0  0  0  0
  -19.7390  -26.5570   21.6850 C   0  0  0  0  0  2  0  0  0  0  0  0
  -18.3540  -26.6710   22.3280 C   0  0  0  0  0  2  0  0  0  0  0  0
  -19.2380  -28.8210   23.4080 C   0  0  0  0  0  0  0  0  0  0  0  0
  -18.9840  -30.0840   23.9880 C   0  0  0  0  0  3  0  0  0  0  0  0
  -17.6650  -30.5500   24.1500 C   0  0  0  0  0  3  0  0  0  0  0  0
  -16.5820  -29.7490   23.7450 C   0  0  0  0  0  3  0  0  0  0  0  0
  -16.8210  -28.4870   23.1730 C   0  0  0  0  0  3  0  0  0  0  0  0
  -25.9630  -32.5800   23.8340 C   0  0  0  0  0  3  0  0  0  0  0  0
  -25.6460  -33.9780   24.1680 N   0  0  0  0  0  0  0  0  0  0  0  0
  -25.9560  -35.0350   23.4070 C   0  0  0  0  0  0  0  0  0  0  0  0
  -26.6060  -34.9380   22.3620 O   0  0  0  0  0  0  0  0  0  0  0  0
  -25.0650  -34.1270   24.9790 H   0  0  0  0  0  0  0  0  0  0  0  0
  -24.2140  -36.8230   23.0870 C   0  0  0  0  0  1  0  0  0  0  0  0
  -25.4700  -36.4190   23.8780 C   0  0  0  0  0  3  0  0  0  0  0  0
  -27.6100  -37.3140   24.6830 C   0  0  0  0  0  1  0  0  0  0  0  0
  -26.4950  -37.4770   23.7530 N   0  0  0  0  0  0  0  0  0  0  0  0
  -26.0860  -38.3960   23.9060 H   0  0  0  0  0  0  0  0  0  0  0  0
  -26.5010  -31.8160   25.1050 C   0  0  1  0  0  0  0  0  0  0  0  0
  -25.4260  -31.5810   26.1920 C   0  0  0  0  0  1  0  0  0  0  0  0
  -27.0840  -30.4370   24.7140 C   0  0  0  0  0  1  0  0  0  0  0  0
  -27.6580  -32.6190   25.7460 C   0  0  0  0  0  1  0  0  0  0  0  0
  -30.3810  -16.4500   17.8290 N   0  0  0  0  0  0  0  0  0  0  0  0
  -30.2680  -16.5600   16.8260 H   0  0  0  0  0  0  0  0  0  0  0  0
  -29.9350  -15.6100   18.1690 H   0  0  0  0  0  0  0  0  0  0  0  0
  1  4  1  0
  2  1  2  0
  2  5  1  0
  4 49  1  0
  4  3  2  0
  5  6  2  0
  6  3  1  0
  6 15  1  0
  7 15  1  0
  8 13  1  0
  9 10  1  0
  9  8  1  0
 11 10  1  0
 11 20  1  0
 11 12  1  0
 13  7  1  0
 13 12  1  0
 14  7  2  0
 15 16  1  0
 17 18  2  0
 18 37  1  0
 19 18  1  0
 19 22  1  0
 20 17  1  0
 20 21  1  0
 21 19  2  0
 22 23  1  0
 23 24  2  0
 25 28  1  0
 25 24  1  0
 26 25  2  0
 27 26  1  0
 27 22  2  0
 28 29  1  0
 29 30  1  0
 30 31  2  0
 32 31  1  0
 32 36  1  0
 33 32  2  0
 34 29  2  0
 34 33  1  0
 35 34  1  0
 37 38  1  0
 38 41  1  0
 38 40  1  0
 39 37  2  0
 42 43  1  0
 42 17  1  0
 44 42  1  0
 45 47  2  0
 45 46  1  0
 46 50  2  0
 48 49  1  0
 48 45  1  0
 49 46  1  0
 51 53  1  0
 51 47  1  0
 52 63  2  0
 53 58  1  0
 54 62  1  0
 54 64  1  0
 55 61  1  0
 55 57  1  0
 56 62  1  0
 57 56  1  0
 58 57  2  0
 59 60  1  0
 59 53  2  0
 60 55  2  0
 61 54  1  0
 62 52  1  0
 64 66  2  0
 65 64  1  0
 67 65  1  0
 68 77  2  0
 68 73  1  0
 69 65  1  0
 69 73  1  0
 70 69  1  0
 71 72  1  0
 71 70  1  0
 72 68  1  0
 73 74  2  0
 74 75  1  0
 76 75  2  0
 77 76  1  0
 78 52  1  0
 78 79  1  0
 78 88  1  0
 79 82  1  0
 80 84  1  0
 80 79  1  0
 81 80  2  0
 84 83  1  0
 86 84  1  0
 86 87  1  0
 86 85  1  0
 88 91  1  1
 88 89  1  0
 90 88  1  0
 92 94  1  0
 92  5  1  0
 93 92  1  0
M  ISO  4   7 100  15 100  47 101  51 101
M  END
>  <TORSDO>  (58) 
F 18

>  <SCORE>  (58) 
-14.413

>  <name>  (58) 
58

>  <ligand_id>  (58) 
58

>  <original_smiles>  (58) 
[H]C(Oc1c([H])c([H])c2c(c1[H])C([H])([H])N(C(=O)C([H])(N([H])C(=O)C([H])(N([H])C([H])([H])[H])C([H])([H])[H])C(C([H])([H])[H])(C([H])([H])[H])C([H])([H])[H])C([H])(C(=O)N([H])C1([H])c3c([H])c([H])c([H])c([H])c3C([H])([H])C([H])([H])C1([H])[H])C2([H])[H])=C1C(=O)N(c2c([H])c([H])c(N([H])[H])c(N([H])C(=O)N3C([H])([H])C([H])([H])C([H])([H])C([H])(n4nc(-c5c([H])c([H])c(Oc6c([H])c([H])c(F)c([H])c6F)c([H])c5[H])c(C(=O)N([H])[H])c4N([H])[H])C3([H])[H])c2[H])C1([H])[H]

>  <smiles>  (58) 
[H]C(Oc1c([H])c([H])c2c(c1[H])C([H])([H])N(C(=O)C([H])(N([H])C(=O)C([H])(N([H])C([H])([H])[H])C([H])([H])[H])C(C([H])([H])[H])(C([H])([H])[H])C([H])([H])[H])C([H])(C(=O)N([H])C1([H])c3c([H])c([H])c([H])c([H])c3C([H])([H])C([H])([H])C1([H])[H])C2([H])[H])=C1C(=O)N(c2c([H])c([H])c(N([H])[H])c(N([H])C(=O)N3C([H])([H])C([H])([H])C([H])([H])C([H])(n4nc(-c5c([H])c([H])c(Oc6c([H])c([H])c(F)c([H])c6F)c([H])c5[H])c(C(=O)N([H])[H])c4N([H])[H])C3([H])[H])c2[H])C1([H])[H]

$$$$
59:0:0
     RDKit          3D

 93102  0  0  1  0  0  0  0  0999 V2000
  -28.5530  -23.9010   19.9300 C   0  0  0  0  0  3  0  0  0  0  0  0
  -27.7630  -22.6460   20.0720 C   0  0  0  0  0  0  0  0  0  0  0  0
  -28.1460  -25.0540   20.6090 C   0  0  0  0  0  3  0  0  0  0  0  0
  -29.7440  -22.9400   20.3350 C   0  0  0  0  0  2  0  0  0  0  0  0
  -27.7310  -25.0360   22.0800 C   0  0  0  0  0  1  0  0  0  0  0  0
  -28.8790  -21.8040   19.9920 N   0  0  0  0  0  0  0  0  0  0  0  0
  -26.5750  -22.4820   20.2570 O   0  0  0  0  0  0  0  0  0  0  0  0
  -28.2140  -19.3760   20.4930 C   0  0  0  0  0  3  0  0  0  0  0  0
  -28.4440  -17.9650   20.5960 C   0  0  0  0  0  3  0  0  0  0  0  0
  -30.7190  -18.2880   20.0210 C   0  0  0  0  0  3  0  0  0  0  0  0
  -29.2050  -20.3500   20.1600 C   0  0  0  0  0  0  0  0  0  0  0  0
  -29.6990  -17.3460   20.3440 C   0  0  0  0  0  0  0  0  0  0  0  0
  -30.4810  -19.7160   19.9500 C   0  0  0  0  0  0  0  0  0  0  0  0
  -31.5310  -20.5090   19.6310 F   0  0  0  0  0  0  0  0  0  0  0  0
  -30.6160  -14.8390   20.0060 C   0  0  0  0  0  0  0  0  0  0  0  0
  -30.4250  -12.5810   18.9290 C   0  0  0  0  0  2  0  0  0  0  0  0
  -29.3980  -12.6770   17.7760 C   0  0  0  0  0  2  0  0  0  0  0  0
  -27.9610  -12.4770   18.2940 C   0  0  0  0  0  2  0  0  0  0  0  0
  -27.6630  -13.3290   19.5560 C   0  0  0  0  0  3  0  0  0  0  0  0
  -28.7890  -13.1820   20.6040 C   0  0  0  0  0  2  0  0  0  0  0  0
  -30.0490  -13.5820   19.9550 N   0  0  0  0  0  0  0  0  0  0  0  0
  -31.7470  -15.0270   19.5450 O   0  0  0  0  0  0  0  0  0  0  0  0
  -29.7930  -15.8590   20.4640 N   0  0  0  0  0  0  0  0  0  0  0  0
  -28.9640  -15.4590   20.8720 H   0  0  0  0  0  0  0  0  0  0  0  0
  -25.3230  -13.9060   20.4440 C   0  0  0  0  0  0  0  0  0  0  0  0
  -24.2800  -13.1220   20.8570 C   0  0  0  0  0  0  0  0  0  0  0  0
  -24.7350  -11.7710   20.7500 C   0  0  0  0  0  0  0  0  0  0  0  0
  -26.3480  -13.0310   20.1130 N   0  0  0  0  0  0  0  0  0  0  0  0
  -26.0040  -11.7400   20.3610 N   0  0  0  0  0  0  0  0  0  0  0  0
  -24.0160  -10.5030   20.9380 C   0  0  0  0  0  0  0  0  0  0  0  0
  -24.4510   -9.5410   21.8760 C   0  0  0  0  0  3  0  0  0  0  0  0
  -23.7310   -8.3400   22.0540 C   0  0  0  0  0  3  0  0  0  0  0  0
  -22.5640   -8.0930   21.2930 C   0  0  0  0  0  0  0  0  0  0  0  0
  -22.1480   -9.0440   20.3470 C   0  0  0  0  0  3  0  0  0  0  0  0
  -22.8670  -10.2360   20.1670 C   0  0  0  0  0  3  0  0  0  0  0  0
  -21.8170   -6.9440   21.3830 O   0  0  0  0  0  0  0  0  0  0  0  0
  -21.6970   -6.2500   22.5610 C   0  0  0  0  0  0  0  0  0  0  0  0
  -21.1610   -6.8440   23.7240 C   0  0  0  0  0  3  0  0  0  0  0  0
  -20.9930   -6.0750   24.8940 C   0  0  0  0  0  3  0  0  0  0  0  0
  -21.3520   -4.7140   24.8980 C   0  0  0  0  0  0  0  0  0  0  0  0
  -21.8790   -4.1190   23.7400 C   0  0  0  0  0  3  0  0  0  0  0  0
  -22.0490   -4.8850   22.5740 C   0  0  0  0  0  0  0  0  0  0  0  0
  -22.5390   -4.3020   21.4530 F   0  0  0  0  0  0  0  0  0  0  0  0
  -21.1820   -3.9740   26.0180 F   0  0  0  0  0  0  0  0  0  0  0  0
  -22.9040  -13.5910   21.2320 C   0  0  0  0  0  0  0  0  0  0  0  0
  -22.2310  -12.8640   22.1170 N   0  0  0  0  0  0  0  0  0  0  0  0
  -22.4400  -14.6350   20.7780 O   0  0  0  0  0  0  0  0  0  0  0  0
  -22.6220  -12.0170   22.5020 H   0  0  0  0  0  0  0  0  0  0  0  0
  -21.3120  -13.1590   22.4140 H   0  0  0  0  0  0  0  0  0  0  0  0
  -25.4820  -15.2810   20.2940 N   0  0  0  0  0  0  0  0  0  0  0  0
  -24.7100  -15.9230   20.4400 H   0  0  0  0  0  0  0  0  0  0  0  0
  -26.2690  -15.7110   19.8280 H   0  0  0  0  0  0  0  0  0  0  0  0
  -28.3370  -26.4070   20.1690 O   0  0  0  0  0  0  0  0  0  0  0  0
  -24.6210  -31.8910   23.2200 C   0  0  0  0  0  0  0  0  0  0  0  0
  -27.2540  -27.3170   20.1590 C   0  0  0  0  0  0  0  0  0  0  0  0
  -23.4320  -30.4990   21.5640 C   0  0  0  0  0  3  0  0  0  0  0  0
  -24.8970  -28.9560   20.1360 C   0  0  0  0  0  0  0  0  0  0  0  0
  -25.9750  -30.8200   21.3940 C   0  0  0  0  0  2  0  0  0  0  0  0
  -26.0650  -29.4380   20.7430 C   0  0  0  0  0  0  0  0  0  0  0  0
  -27.2490  -28.6310   20.7410 C   0  0  0  0  0  3  0  0  0  0  0  0
  -26.0640  -26.9020   19.5250 C   0  0  0  0  0  3  0  0  0  0  0  0
  -24.9000  -27.6950   19.5150 C   0  0  0  0  0  3  0  0  0  0  0  0
  -23.6580  -29.8330   20.1800 C   0  0  0  0  0  2  0  0  0  0  0  0
  -24.6960  -31.0860   22.1180 N   0  0  0  0  0  0  0  0  0  0  0  0
  -23.5320  -32.1600   23.7490 O   0  0  0  0  0  0  0  0  0  0  0  0
  -22.7660  -29.4750   22.5140 C   0  0  0  0  0  0  0  0  0  0  0  0
  -21.4380  -29.3050   22.3890 N   0  0  0  0  0  0  0  0  0  0  0  0
  -23.4440  -28.8410   23.3250 O   0  0  0  0  0  0  0  0  0  0  0  0
  -20.9550  -29.8710   21.7060 H   0  0  0  0  0  0  0  0  0  0  0  0
  -18.0510  -28.1330   22.9060 C   0  0  0  0  0  0  0  0  0  0  0  0
  -20.6160  -28.3600   23.1480 C   0  0  0  0  0  3  0  0  0  0  0  0
  -20.6930  -26.9390   22.5400 C   0  0  0  0  0  2  0  0  0  0  0  0
  -19.5740  -26.6510   21.5340 C   0  0  0  0  0  2  0  0  0  0  0  0
  -18.2030  -26.7980   22.1990 C   0  0  0  0  0  2  0  0  0  0  0  0
  -19.1840  -28.8730   23.3390 C   0  0  0  0  0  0  0  0  0  0  0  0
  -18.9850  -30.1230   23.9630 C   0  0  0  0  0  3  0  0  0  0  0  0
  -17.6880  -30.6340   24.1540 C   0  0  0  0  0  3  0  0  0  0  0  0
  -16.5700  -29.8900   23.7370 C   0  0  0  0  0  3  0  0  0  0  0  0
  -16.7530  -28.6410   23.1200 C   0  0  0  0  0  3  0  0  0  0  0  0
  -25.8950  -32.5250   23.8580 C   0  0  0  0  0  3  0  0  0  0  0  0
  -25.5800  -33.9250   24.1820 N   0  0  0  0  0  0  0  0  0  0  0  0
  -25.9150  -34.9770   23.4240 C   0  0  0  0  0  0  0  0  0  0  0  0
  -26.5900  -34.8720   22.3960 O   0  0  0  0  0  0  0  0  0  0  0  0
  -24.9730  -34.0790   24.9740 H   0  0  0  0  0  0  0  0  0  0  0  0
  -24.1830  -36.7680   23.0640 C   0  0  0  0  0  1  0  0  0  0  0  0
  -25.4230  -36.3660   23.8790 C   0  0  0  0  0  3  0  0  0  0  0  0
  -27.5550  -37.2500   24.7140 C   0  0  0  0  0  1  0  0  0  0  0  0
  -26.4530  -37.4220   23.7730 N   0  0  0  0  0  0  0  0  0  0  0  0
  -26.0430  -38.3390   23.9340 H   0  0  0  0  0  0  0  0  0  0  0  0
  -26.3950  -31.7560   25.1430 C   0  0  1  0  0  0  0  0  0  0  0  0
  -25.2890  -31.5200   26.2000 C   0  0  0  0  0  1  0  0  0  0  0  0
  -26.9800  -30.3770   24.7580 C   0  0  0  0  0  1  0  0  0  0  0  0
  -27.5390  -32.5500   25.8170 C   0  0  0  0  0  1  0  0  0  0  0  0
  1  2  1  0
  1  4  1  0
  1  3  1  0
  2  7  2  0
  3  5  1  0
  6  2  1  0
  6 11  1  0
  6  4  1  0
  8  9  1  0
 10 12  1  0
 11  8  2  0
 12 23  1  0
 12  9  2  0
 13 10  2  0
 13 11  1  0
 14 13  1  0
 15 23  1  0
 16 21  1  0
 17 18  1  0
 17 16  1  0
 19 18  1  0
 19 28  1  0
 19 20  1  0
 21 15  1  0
 21 20  1  0
 22 15  2  0
 23 24  1  0
 25 26  2  0
 26 45  1  0
 27 26  1  0
 27 30  1  0
 28 29  1  0
 28 25  1  0
 29 27  2  0
 30 31  1  0
 31 32  2  0
 33 36  1  0
 33 32  1  0
 34 33  2  0
 35 34  1  0
 35 30  2  0
 36 37  1  0
 37 42  2  0
 37 38  1  0
 38 39  2  0
 39 40  1  0
 40 44  1  0
 41 40  2  0
 42 41  1  0
 43 42  1  0
 45 46  1  0
 46 49  1  0
 46 48  1  0
 47 45  2  0
 50 51  1  0
 50 25  1  0
 52 50  1  0
 53  3  1  0
 54 65  2  0
 55 53  1  0
 55 60  1  0
 56 64  1  0
 56 66  1  0
 57 63  1  0
 57 59  1  0
 58 64  1  0
 59 58  1  0
 60 59  2  0
 61 55  2  0
 62 61  1  0
 62 57  2  0
 63 56  1  0
 64 54  1  0
 66 68  2  0
 67 66  1  0
 69 67  1  0
 70 79  2  0
 70 75  1  0
 71 67  1  0
 71 75  1  0
 72 71  1  0
 73 74  1  0
 73 72  1  0
 74 70  1  0
 75 76  2  0
 76 77  1  0
 78 77  2  0
 79 78  1  0
 80 54  1  0
 80 81  1  0
 80 90  1  0
 81 84  1  0
 82 86  1  0
 82 81  1  0
 83 82  2  0
 86 85  1  0
 88 86  1  0
 88 89  1  0
 88 87  1  0
 90 93  1  1
 90 91  1  0
 92 90  1  0
M  ISO  4   3 101  15 100  23 100  53 101
M  END
>  <TORSDO>  (59) 
F 17

>  <SCORE>  (59) 
-15.042

>  <name>  (59) 
59

>  <ligand_id>  (59) 
59

>  <original_smiles>  (59) 
[H]c1c([H])c([H])c2c(c1[H])C([H])([H])C([H])([H])C([H])([H])C2([H])N([H])C(=O)C1([H])N(C(=O)C([H])(N([H])C(=O)C([H])(N([H])C([H])([H])[H])C([H])([H])[H])C(C([H])([H])[H])(C([H])([H])[H])C([H])([H])[H])C([H])([H])c2c([H])c(OC(=C3C(=O)N(c4c([H])c([H])c(N([H])C(=O)N5C([H])([H])C([H])([H])C([H])([H])C([H])(n6nc(-c7c([H])c([H])c(Oc8c([H])c([H])c(F)c([H])c8F)c([H])c7[H])c(C(=O)N([H])[H])c6N([H])[H])C5([H])[H])c([H])c4F)C3([H])[H])C([H])([H])[H])c([H])c([H])c2C1([H])[H]

>  <smiles>  (59) 
[H]c1c([H])c([H])c2c(c1[H])C([H])([H])C([H])([H])C([H])([H])C2([H])N([H])C(=O)C1([H])N(C(=O)C([H])(N([H])C(=O)C([H])(N([H])C([H])([H])[H])C([H])([H])[H])C(C([H])([H])[H])(C([H])([H])[H])C([H])([H])[H])C([H])([H])c2c([H])c(OC(=C3C(=O)N(c4c([H])c([H])c(N([H])C(=O)N5C([H])([H])C([H])([H])C([H])([H])C([H])(n6nc(-c7c([H])c([H])c(Oc8c([H])c([H])c(F)c([H])c8F)c([H])c7[H])c(C(=O)N([H])[H])c6N([H])[H])C5([H])[H])c([H])c4F)C3([H])[H])C([H])([H])[H])c([H])c([H])c2C1([H])[H]

$$$$
60:0:0
     RDKit          3D

 96105  0  0  1  0  0  0  0  0999 V2000
  -29.5840  -18.8680   21.4550 C   0  0  0  0  0  3  0  0  0  0  0  0
  -29.1320  -20.2090   21.5590 C   0  0  0  0  0  3  0  0  0  0  0  0
  -29.4970  -19.0700   19.0490 C   0  0  0  0  0  3  0  0  0  0  0  0
  -29.8170  -18.3000   20.1870 C   0  0  0  0  0  0  0  0  0  0  0  0
  -28.8870  -21.0380   20.4290 C   0  0  0  0  0  0  0  0  0  0  0  0
  -29.0350  -20.3970   19.1670 C   0  0  0  0  0  0  0  0  0  0  0  0
  -28.7630  -21.0720   18.0250 F   0  0  0  0  0  0  0  0  0  0  0  0
  -30.8190  -14.5460   20.2170 C   0  0  0  0  0  0  0  0  0  0  0  0
  -30.4210  -12.3480   19.2080 C   0  0  0  0  0  2  0  0  0  0  0  0
  -29.4740  -12.5210   18.0060 C   0  0  0  0  0  2  0  0  0  0  0  0
  -28.0060  -12.4230   18.4650 C   0  0  0  0  0  2  0  0  0  0  0  0
  -27.6990  -13.3170   19.6970 C   0  0  0  0  0  3  0  0  0  0  0  0
  -28.7760  -13.1680   20.7970 C   0  0  0  0  0  2  0  0  0  0  0  0
  -30.0870  -13.4000   20.1810 N   0  0  0  0  0  0  0  0  0  0  0  0
  -31.9890  -14.5790   19.8140 O   0  0  0  0  0  0  0  0  0  0  0  0
  -30.5530  -17.0340   20.0010 C   0  0  0  0  0  0  0  0  0  0  0  0
  -30.1250  -15.8080   20.4290 N   0  0  0  0  0  0  0  0  0  0  0  0
  -31.7000  -17.1920   19.3280 N   0  0  0  0  0  4  0  0  0  0  0  0
  -29.1970  -15.8410   20.8150 H   0  0  0  0  0  0  0  0  0  0  0  0
  -32.0370  -18.1070   19.0780 H   0  0  0  0  0  0  0  0  0  0  0  0
  -32.2920  -16.3770   19.1990 H   0  0  0  0  0  0  0  0  0  0  0  0
  -25.3470  -13.9690   20.4990 C   0  0  0  0  0  0  0  0  0  0  0  0
  -24.2690  -13.2170   20.8850 C   0  0  0  0  0  0  0  0  0  0  0  0
  -24.6930  -11.8550   20.8150 C   0  0  0  0  0  0  0  0  0  0  0  0
  -26.3580  -13.0650   20.2170 N   0  0  0  0  0  0  0  0  0  0  0  0
  -25.9720  -11.7880   20.4680 N   0  0  0  0  0  0  0  0  0  0  0  0
  -23.9370  -10.6090   20.9980 C   0  0  0  0  0  0  0  0  0  0  0  0
  -24.3660   -9.6070   21.8970 C   0  0  0  0  0  3  0  0  0  0  0  0
  -23.6100   -8.4280   22.0680 C   0  0  0  0  0  3  0  0  0  0  0  0
  -22.4120   -8.2400   21.3400 C   0  0  0  0  0  0  0  0  0  0  0  0
  -22.0030   -9.2290   20.4280 C   0  0  0  0  0  3  0  0  0  0  0  0
  -22.7580  -10.4000   20.2550 C   0  0  0  0  0  3  0  0  0  0  0  0
  -21.6270   -7.1150   21.4230 O   0  0  0  0  0  0  0  0  0  0  0  0
  -21.5990   -6.3400   22.5540 C   0  0  0  0  0  0  0  0  0  0  0  0
  -21.2110   -6.8650   23.8070 C   0  0  0  0  0  3  0  0  0  0  0  0
  -21.1310   -6.0170   24.9290 C   0  0  0  0  0  3  0  0  0  0  0  0
  -21.4240   -4.6470   24.8010 C   0  0  0  0  0  0  0  0  0  0  0  0
  -21.8060   -4.1220   23.5540 C   0  0  0  0  0  3  0  0  0  0  0  0
  -21.8890   -4.9660   22.4320 C   0  0  0  0  0  0  0  0  0  0  0  0
  -22.2360   -4.4520   21.2280 F   0  0  0  0  0  0  0  0  0  0  0  0
  -21.3400   -3.8300   25.8770 F   0  0  0  0  0  0  0  0  0  0  0  0
  -22.8950  -13.7270   21.2080 C   0  0  0  0  0  0  0  0  0  0  0  0
  -22.1740  -13.0350   22.0830 N   0  0  0  0  0  0  0  0  0  0  0  0
  -22.4720  -14.7760   20.7210 O   0  0  0  0  0  0  0  0  0  0  0  0
  -22.5300  -12.1870   22.5010 H   0  0  0  0  0  0  0  0  0  0  0  0
  -21.2530  -13.3590   22.3430 H   0  0  0  0  0  0  0  0  0  0  0  0
  -25.5440  -15.3380   20.3390 N   0  0  0  0  0  0  0  0  0  0  0  0
  -24.7910  -16.0050   20.4650 H   0  0  0  0  0  0  0  0  0  0  0  0
  -26.3710  -15.7550   19.9350 H   0  0  0  0  0  0  0  0  0  0  0  0
  -28.5870  -24.4200   20.5690 C   0  0  0  0  0  0  0  0  0  0  0  0
  -28.6360  -23.3880   21.5720 C   0  0  0  0  0  0  0  0  0  0  0  0
  -28.5670  -25.7660   20.6990 C   0  0  0  0  0  3  0  0  0  0  0  0
  -28.5870  -23.3900   19.4590 C   0  0  0  0  0  2  0  0  0  0  0  0
  -28.5220  -22.4240   20.5750 N   0  0  0  0  0  0  0  0  0  0  0  0
  -28.8290  -23.4290   22.7700 O   0  0  0  0  0  0  0  0  0  0  0  0
  -28.5000  -26.6780   19.6690 O   0  0  0  0  0  0  0  0  0  0  0  0
  -24.6290  -31.6380   23.0270 C   0  0  0  0  0  0  0  0  0  0  0  0
  -27.3620  -27.4470   19.6890 C   0  0  0  0  0  0  0  0  0  0  0  0
  -23.4440  -30.2780   21.3350 C   0  0  0  0  0  3  0  0  0  0  0  0
  -24.9270  -28.8710   19.8060 C   0  0  0  0  0  0  0  0  0  0  0  0
  -25.9520  -30.7360   21.1170 C   0  0  0  0  0  2  0  0  0  0  0  0
  -26.0780  -29.4050   20.4040 C   0  0  0  0  0  0  0  0  0  0  0  0
  -27.3030  -28.7000   20.3440 C   0  0  0  0  0  3  0  0  0  0  0  0
  -26.2010  -26.9310   19.0790 C   0  0  0  0  0  3  0  0  0  0  0  0
  -24.9830  -27.6330   19.1400 C   0  0  0  0  0  3  0  0  0  0  0  0
  -23.6540  -29.6790   19.9190 C   0  0  0  0  0  2  0  0  0  0  0  0
  -24.6940  -30.8960   21.8860 N   0  0  0  0  0  0  0  0  0  0  0  0
  -23.5480  -31.8450   23.5970 O   0  0  0  0  0  0  0  0  0  0  0  0
  -22.8460  -29.1870   22.2510 C   0  0  0  0  0  0  0  0  0  0  0  0
  -21.5250  -28.9710   22.1410 N   0  0  0  0  0  0  0  0  0  0  0  0
  -23.5660  -28.5400   23.0160 O   0  0  0  0  0  0  0  0  0  0  0  0
  -21.0030  -29.5500   21.4970 H   0  0  0  0  0  0  0  0  0  0  0  0
  -18.1990  -27.6510   22.6430 C   0  0  0  0  0  0  0  0  0  0  0  0
  -20.7540  -27.9680   22.8740 C   0  0  0  0  0  3  0  0  0  0  0  0
  -20.8820  -26.5750   22.2160 C   0  0  0  0  0  2  0  0  0  0  0  0
  -19.7670  -26.2770   21.2080 C   0  0  0  0  0  2  0  0  0  0  0  0
  -18.3980  -26.3470   21.8900 C   0  0  0  0  0  2  0  0  0  0  0  0
  -19.3060  -28.4200   23.0910 C   0  0  0  0  0  0  0  0  0  0  0  0
  -19.0670  -29.6420   23.7560 C   0  0  0  0  0  3  0  0  0  0  0  0
  -17.7540  -30.0970   23.9760 C   0  0  0  0  0  3  0  0  0  0  0  0
  -16.6610  -29.3260   23.5430 C   0  0  0  0  0  3  0  0  0  0  0  0
  -16.8850  -28.1030   22.8840 C   0  0  0  0  0  3  0  0  0  0  0  0
  -25.9020  -32.2810   23.6590 C   0  0  0  0  0  3  0  0  0  0  0  0
  -25.5520  -33.6470   24.0670 N   0  0  0  0  0  0  0  0  0  0  0  0
  -25.8430  -34.7490   23.3620 C   0  0  0  0  0  0  0  0  0  0  0  0
  -26.5050  -34.7220   22.3220 O   0  0  0  0  0  0  0  0  0  0  0  0
  -24.9590  -33.7410   24.8780 H   0  0  0  0  0  0  0  0  0  0  0  0
  -24.0550  -36.4980   23.1130 C   0  0  0  0  0  1  0  0  0  0  0  0
  -25.3140  -36.0930   23.8960 C   0  0  0  0  0  3  0  0  0  0  0  0
  -27.4190  -37.0050   24.7690 C   0  0  0  0  0  1  0  0  0  0  0  0
  -26.3120  -37.1830   23.8340 N   0  0  0  0  0  0  0  0  0  0  0  0
  -25.8760  -38.0820   24.0250 H   0  0  0  0  0  0  0  0  0  0  0  0
  -26.4720  -31.4600   24.8820 C   0  0  1  0  0  0  0  0  0  0  0  0
  -25.4120  -31.1330   25.9580 C   0  0  0  0  0  1  0  0  0  0  0  0
  -27.0870  -30.1250   24.4030 C   0  0  0  0  0  1  0  0  0  0  0  0
  -27.6120  -32.2550   25.5590 C   0  0  0  0  0  1  0  0  0  0  0  0
  1  2  1  0
  3  6  2  0
  3  4  1  0
  4  1  2  0
  5 54  1  0
  5  2  2  0
  6  5  1  0
  7  6  1  0
  8 17  1  0
  9 14  1  0
 10 11  1  0
 10  9  1  0
 12 11  1  0
 12 25  1  0
 12 13  1  0
 14  8  1  0
 14 13  1  0
 15  8  2  0
 16  4  1  0
 16 17  1  0
 17 19  1  0
 18 16  2  0
 20 18  1  0
 21 18  1  0
 22 23  2  0
 23 42  1  0
 24 23  1  0
 24 27  1  0
 25 26  1  0
 25 22  1  0
 26 24  2  0
 27 28  1  0
 28 29  2  0
 30 33  1  0
 30 29  1  0
 31 30  2  0
 32 31  1  0
 32 27  2  0
 33 34  1  0
 34 35  1  0
 35 36  2  0
 37 36  1  0
 37 41  1  0
 38 37  2  0
 39 34  2  0
 39 38  1  0
 40 39  1  0
 42 43  1  0
 43 46  1  0
 43 45  1  0
 44 42  2  0
 47 48  1  0
 47 22  1  0
 49 47  1  0
 50 52  2  0
 50 51  1  0
 51 55  2  0
 53 50  1  0
 53 54  1  0
 54 51  1  0
 56 58  1  0
 56 52  1  0
 57 68  2  0
 58 63  1  0
 59 67  1  0
 59 69  1  0
 60 66  1  0
 60 62  1  0
 61 67  1  0
 62 61  1  0
 63 62  2  0
 64 65  1  0
 64 58  2  0
 65 60  2  0
 66 59  1  0
 67 57  1  0
 69 71  2  0
 70 69  1  0
 72 70  1  0
 73 82  2  0
 73 78  1  0
 74 70  1  0
 74 78  1  0
 75 74  1  0
 76 77  1  0
 76 75  1  0
 77 73  1  0
 78 79  2  0
 79 80  1  0
 81 80  2  0
 82 81  1  0
 83 57  1  0
 83 84  1  0
 83 93  1  0
 84 87  1  0
 85 89  1  0
 85 84  1  0
 86 85  2  0
 89 88  1  0
 91 89  1  0
 91 92  1  0
 91 90  1  0
 93 96  1  1
 93 94  1  0
 95 93  1  0
M  ISO  4   8 100  17 100  52 101  56 101
M  END
>  <TORSDO>  (60) 
F 17

>  <SCORE>  (60) 
-13.687

>  <name>  (60) 
60

>  <ligand_id>  (60) 
60

>  <original_smiles>  (60) 
[H]C(Oc1c([H])c([H])c2c(c1[H])C([H])([H])N(C(=O)C([H])(N([H])C(=O)C([H])(N([H])C([H])([H])[H])C([H])([H])[H])C(C([H])([H])[H])(C([H])([H])[H])C([H])([H])[H])C([H])(C(=O)N([H])C1([H])c3c([H])c([H])c([H])c([H])c3C([H])([H])C([H])([H])C1([H])[H])C2([H])[H])=C1C(=O)N(c2c([H])c([H])c(C(N([H])C(=O)N3C([H])([H])C([H])([H])C([H])([H])C([H])(n4nc(-c5c([H])c([H])c(Oc6c([H])c([H])c(F)c([H])c6F)c([H])c5[H])c(C(=O)N([H])[H])c4N([H])[H])C3([H])[H])=[N+]([H])[H])c([H])c2F)C1([H])[H]

>  <smiles>  (60) 
[H]C(Oc1c([H])c([H])c2c(c1[H])C([H])([H])N(C(=O)C([H])(N([H])C(=O)C([H])(N([H])C([H])([H])[H])C([H])([H])[H])C(C([H])([H])[H])(C([H])([H])[H])C([H])([H])[H])C([H])(C(=O)N([H])C1([H])c3c([H])c([H])c([H])c([H])c3C([H])([H])C([H])([H])C1([H])[H])C2([H])[H])=C1C(=O)N(c2c([H])c([H])c(C(N([H])C(=O)N3C([H])([H])C([H])([H])C([H])([H])C([H])(n4nc(-c5c([H])c([H])c(Oc6c([H])c([H])c(F)c([H])c6F)c([H])c5[H])c(C(=O)N([H])[H])c4N([H])[H])C3([H])[H])=[N+]([H])[H])c([H])c2F)C1([H])[H]

$$$$
61:0:0
     RDKit          3D

 91100  0  0  1  0  0  0  0  0999 V2000
  -30.1170  -23.0450   20.5220 C   0  0  0  0  0  0  0  0  0  0  0  0
  -28.7910  -23.2350   20.3970 C   0  0  0  0  0  0  0  0  0  0  0  0
  -30.4710  -21.6050   20.4720 C   0  0  0  0  0  0  0  0  0  0  0  0
  -28.3030  -21.7900   20.2790 C   0  0  0  0  0  0  0  0  0  0  0  0
  -31.1860  -24.1060   20.7490 C   0  0  0  0  0  1  0  0  0  0  0  0
  -29.3520  -20.8480   20.3230 N   0  0  0  0  0  0  0  0  0  0  0  0
  -31.6150  -21.1490   20.5830 O   0  0  0  0  0  0  0  0  0  0  0  0
  -27.1190  -21.4580   20.1560 O   0  0  0  0  0  0  0  0  0  0  0  0
  -28.5450  -17.0220   20.3650 C   0  0  0  0  0  3  0  0  0  0  0  0
  -28.2880  -18.4780   20.4410 C   0  0  0  0  0  3  0  0  0  0  0  0
  -29.8380  -16.5800   20.1050 C   0  0  0  0  0  0  0  0  0  0  0  0
  -29.3410  -19.3780   20.2730 C   0  0  0  0  0  0  0  0  0  0  0  0
  -30.7330  -18.1860   19.9990 S   0  0  0  0  0  0  0  0  0  0  0  0
  -30.5630  -15.1260   19.8970 C   0  0  0  0  0  0  0  0  0  0  0  0
  -30.4250  -12.7430   18.9980 C   0  0  0  0  0  2  0  0  0  0  0  0
  -29.4310  -12.6550   17.8140 C   0  0  0  0  0  2  0  0  0  0  0  0
  -27.9970  -12.4150   18.3190 C   0  0  0  0  0  2  0  0  0  0  0  0
  -27.6380  -13.3390   19.5120 C   0  0  0  0  0  3  0  0  0  0  0  0
  -28.7550  -13.3940   20.5750 C   0  0  0  0  0  2  0  0  0  0  0  0
  -29.9790  -13.8490   19.9020 N   0  0  0  0  0  0  0  0  0  0  0  0
  -31.7470  -15.1370   19.5380 O   0  0  0  0  0  0  0  0  0  0  0  0
  -25.3090  -13.8660   20.4280 C   0  0  0  0  0  0  0  0  0  0  0  0
  -24.2840  -13.0720   20.8560 C   0  0  0  0  0  0  0  0  0  0  0  0
  -24.7540  -11.7260   20.7480 C   0  0  0  0  0  0  0  0  0  0  0  0
  -26.3400  -13.0080   20.0920 N   0  0  0  0  0  0  0  0  0  0  0  0
  -26.0230  -11.7110   20.3540 N   0  0  0  0  0  0  0  0  0  0  0  0
  -24.0460  -10.4540   20.9450 C   0  0  0  0  0  0  0  0  0  0  0  0
  -24.4940   -9.4920   21.8790 C   0  0  0  0  0  3  0  0  0  0  0  0
  -23.7850   -8.2850   22.0640 C   0  0  0  0  0  3  0  0  0  0  0  0
  -22.6090   -8.0330   21.3160 C   0  0  0  0  0  0  0  0  0  0  0  0
  -22.1800   -8.9790   20.3660 C   0  0  0  0  0  3  0  0  0  0  0  0
  -22.8940  -10.1770   20.1790 C   0  0  0  0  0  3  0  0  0  0  0  0
  -21.8660   -6.8800   21.4130 O   0  0  0  0  0  0  0  0  0  0  0  0
  -21.7630   -6.1880   22.5950 C   0  0  0  0  0  0  0  0  0  0  0  0
  -21.2480   -6.7850   23.7670 C   0  0  0  0  0  3  0  0  0  0  0  0
  -21.0950   -6.0170   24.9390 C   0  0  0  0  0  3  0  0  0  0  0  0
  -21.4440   -4.6530   24.9390 C   0  0  0  0  0  0  0  0  0  0  0  0
  -21.9510   -4.0560   23.7710 C   0  0  0  0  0  3  0  0  0  0  0  0
  -22.1080   -4.8210   22.6010 C   0  0  0  0  0  0  0  0  0  0  0  0
  -22.5760   -4.2360   21.4720 F   0  0  0  0  0  0  0  0  0  0  0  0
  -21.2900   -3.9140   26.0610 F   0  0  0  0  0  0  0  0  0  0  0  0
  -22.9030  -13.5250   21.2300 C   0  0  0  0  0  0  0  0  0  0  0  0
  -22.2360  -12.8010   22.1200 N   0  0  0  0  0  0  0  0  0  0  0  0
  -22.4230  -14.5610   20.7690 O   0  0  0  0  0  0  0  0  0  0  0  0
  -22.6380  -11.9620   22.5140 H   0  0  0  0  0  0  0  0  0  0  0  0
  -21.3120  -13.0860   22.4110 H   0  0  0  0  0  0  0  0  0  0  0  0
  -25.4310  -15.2450   20.2730 N   0  0  0  0  0  0  0  0  0  0  0  0
  -24.6320  -15.8540   20.4150 H   0  0  0  0  0  0  0  0  0  0  0  0
  -26.1800  -15.6950   19.7640 H   0  0  0  0  0  0  0  0  0  0  0  0
  -27.8670  -24.6280   20.4540 C   0  0  0  0  0  2  0  0  0  0  0  0
  -28.2720  -26.1460   20.2710 O   0  0  0  0  0  0  0  0  0  0  0  0
  -24.6970  -31.9060   23.2500 C   0  0  0  0  0  0  0  0  0  0  0  0
  -27.2480  -27.1810   20.1980 C   0  0  0  0  0  0  0  0  0  0  0  0
  -23.4900  -30.5370   21.5950 C   0  0  0  0  0  3  0  0  0  0  0  0
  -24.9390  -28.9690   20.1520 C   0  0  0  0  0  0  0  0  0  0  0  0
  -26.0480  -30.7810   21.4380 C   0  0  0  0  0  2  0  0  0  0  0  0
  -26.1180  -29.3920   20.7780 C   0  0  0  0  0  0  0  0  0  0  0  0
  -27.2740  -28.5170   20.7820 C   0  0  0  0  0  3  0  0  0  0  0  0
  -26.0440  -26.8780   19.5180 C   0  0  0  0  0  3  0  0  0  0  0  0
  -24.9150  -27.7270   19.5050 C   0  0  0  0  0  3  0  0  0  0  0  0
  -23.7170  -29.8800   20.2090 C   0  0  0  0  0  2  0  0  0  0  0  0
  -24.7650  -31.0940   22.1500 N   0  0  0  0  0  0  0  0  0  0  0  0
  -23.6110  -32.1900   23.7790 O   0  0  0  0  0  0  0  0  0  0  0  0
  -22.8030  -29.5210   22.5430 C   0  0  0  0  0  0  0  0  0  0  0  0
  -21.4730  -29.3570   22.4120 N   0  0  0  0  0  0  0  0  0  0  0  0
  -23.4690  -28.8830   23.3620 O   0  0  0  0  0  0  0  0  0  0  0  0
  -20.9960  -29.9200   21.7260 H   0  0  0  0  0  0  0  0  0  0  0  0
  -18.0820  -28.1840   22.9120 C   0  0  0  0  0  0  0  0  0  0  0  0
  -20.6430  -28.4180   23.1720 C   0  0  0  0  0  3  0  0  0  0  0  0
  -20.7340  -26.9930   22.5780 C   0  0  0  0  0  2  0  0  0  0  0  0
  -19.6240  -26.6950   21.5640 C   0  0  0  0  0  2  0  0  0  0  0  0
  -18.2440  -26.8440   22.2140 C   0  0  0  0  0  2  0  0  0  0  0  0
  -19.2090  -28.9300   23.3450 C   0  0  0  0  0  0  0  0  0  0  0  0
  -19.0000  -30.1850   23.9590 C   0  0  0  0  0  3  0  0  0  0  0  0
  -17.6990  -30.6920   24.1430 C   0  0  0  0  0  3  0  0  0  0  0  0
  -16.5860  -29.9420   23.7230 C   0  0  0  0  0  3  0  0  0  0  0  0
  -16.7780  -28.6900   23.1120 C   0  0  0  0  0  3  0  0  0  0  0  0
  -25.9730  -32.5300   23.8870 C   0  0  0  0  0  3  0  0  0  0  0  0
  -25.6670  -33.9290   24.2220 N   0  0  0  0  0  0  0  0  0  0  0  0
  -25.9780  -34.9860   23.4620 C   0  0  0  0  0  0  0  0  0  0  0  0
  -26.6200  -34.8910   22.4140 O   0  0  0  0  0  0  0  0  0  0  0  0
  -25.0990  -34.0770   25.0420 H   0  0  0  0  0  0  0  0  0  0  0  0
  -24.2230  -36.7710   23.1900 C   0  0  0  0  0  1  0  0  0  0  0  0
  -25.5050  -36.3750   23.9430 C   0  0  0  0  0  3  0  0  0  0  0  0
  -27.6700  -37.2760   24.6700 C   0  0  0  0  0  1  0  0  0  0  0  0
  -26.5240  -37.4360   23.7790 N   0  0  0  0  0  0  0  0  0  0  0  0
  -26.1220  -38.3550   23.9490 H   0  0  0  0  0  0  0  0  0  0  0  0
  -26.4730  -31.7530   25.1660 C   0  0  1  0  0  0  0  0  0  0  0  0
  -25.3680  -31.5180   26.2220 C   0  0  0  0  0  1  0  0  0  0  0  0
  -27.0520  -30.3750   24.7750 C   0  0  0  0  0  1  0  0  0  0  0  0
  -27.6240  -32.5400   25.8340 C   0  0  0  0  0  1  0  0  0  0  0  0
  1  5  1  0
  2 50  1  0
  2  1  2  0
  3  1  1  0
  3  7  2  0
  4  6  1  0
  4  2  1  0
  6  3  1  0
  8  4  2  0
  9 10  1  0
 11  9  2  0
 12  6  1  0
 12 10  2  0
 13 11  1  0
 13 12  1  0
 14 20  1  0
 14 11  1  0
 15 20  1  0
 16 17  1  0
 16 15  1  0
 18 17  1  0
 18 25  1  0
 18 19  1  0
 20 19  1  0
 21 14  2  0
 22 23  2  0
 23 42  1  0
 24 23  1  0
 24 27  1  0
 25 26  1  0
 25 22  1  0
 26 24  2  0
 27 28  1  0
 28 29  2  0
 30 33  1  0
 30 29  1  0
 31 30  2  0
 32 31  1  0
 32 27  2  0
 33 34  1  0
 34 39  2  0
 34 35  1  0
 35 36  2  0
 36 37  1  0
 37 41  1  0
 38 37  2  0
 39 38  1  0
 40 39  1  0
 42 43  1  0
 43 46  1  0
 43 45  1  0
 44 42  2  0
 47 48  1  0
 47 22  1  0
 49 47  1  0
 51 50  1  0
 52 63  2  0
 53 51  1  0
 53 58  1  0
 54 62  1  0
 54 64  1  0
 55 61  1  0
 55 57  1  0
 56 62  1  0
 57 58  2  0
 57 56  1  0
 59 53  2  0
 60 59  1  0
 60 55  2  0
 61 54  1  0
 62 52  1  0
 64 66  2  0
 65 64  1  0
 67 65  1  0
 68 77  2  0
 68 73  1  0
 69 65  1  0
 69 73  1  0
 70 69  1  0
 71 72  1  0
 71 70  1  0
 72 68  1  0
 73 74  2  0
 74 75  1  0
 76 75  2  0
 77 76  1  0
 78 52  1  0
 78 79  1  0
 78 88  1  0
 79 82  1  0
 80 84  1  0
 80 79  1  0
 81 80  2  0
 84 83  1  0
 86 84  1  0
 86 87  1  0
 86 85  1  0
 88 91  1  1
 88 89  1  0
 90 88  1  0
M  ISO  4  11 100  14 100  50 101  51 101
M  END
>  <TORSDO>  (61) 
F 18

>  <SCORE>  (61) 
-14.576

>  <name>  (61) 
61

>  <ligand_id>  (61) 
61

>  <original_smiles>  (61) 
[H]c1c(C(=O)N2C([H])([H])C([H])([H])C([H])([H])C([H])(n3nc(-c4c([H])c([H])c(Oc5c([H])c([H])c(F)c([H])c5F)c([H])c4[H])c(C(=O)N([H])[H])c3N([H])[H])C2([H])[H])sc(N2C(=O)C(C([H])([H])[H])=C(C([H])([H])Oc3c([H])c([H])c4c(c3[H])C([H])([H])N(C(=O)C([H])(N([H])C(=O)C([H])(N([H])C([H])([H])[H])C([H])([H])[H])C(C([H])([H])[H])(C([H])([H])[H])C([H])([H])[H])C([H])(C(=O)N([H])C3([H])c5c([H])c([H])c([H])c([H])c5C([H])([H])C([H])([H])C3([H])[H])C4([H])[H])C2=O)c1[H]

>  <smiles>  (61) 
[H]c1c(C(=O)N2C([H])([H])C([H])([H])C([H])([H])C([H])(n3nc(-c4c([H])c([H])c(Oc5c([H])c([H])c(F)c([H])c5F)c([H])c4[H])c(C(=O)N([H])[H])c3N([H])[H])C2([H])[H])sc(N2C(=O)C(C([H])([H])[H])=C(C([H])([H])Oc3c([H])c([H])c4c(c3[H])C([H])([H])N(C(=O)C([H])(N([H])C(=O)C([H])(N([H])C([H])([H])[H])C([H])([H])[H])C(C([H])([H])[H])(C([H])([H])[H])C([H])([H])[H])C([H])(C(=O)N([H])C3([H])c5c([H])c([H])c([H])c([H])c5C([H])([H])C([H])([H])C3([H])[H])C4([H])[H])C2=O)c1[H]

$$$$
62:0:0
     RDKit          3D

 94103  0  0  1  0  0  0  0  0999 V2000
  -30.2630  -23.7890   20.5270 C   0  0  0  0  0  3  0  0  0  0  0  0
  -29.0300  -23.7910   20.0200 C   0  0  0  0  0  0  0  0  0  0  0  0
  -30.7110  -22.4160   20.6930 C   0  0  0  0  0  0  0  0  0  0  0  0
  -28.6690  -22.3700   19.8570 C   0  0  0  0  0  0  0  0  0  0  0  0
  -29.7190  -21.5940   20.2680 N   0  0  0  0  0  0  0  0  0  0  0  0
  -31.8030  -22.0580   21.1520 O   0  0  0  0  0  0  0  0  0  0  0  0
  -27.6010  -21.9350   19.4090 O   0  0  0  0  0  0  0  0  0  0  0  0
  -30.9930  -19.3760   20.0380 C   0  0  0  0  0  3  0  0  0  0  0  0
  -31.0740  -17.9480   20.1060 C   0  0  0  0  0  3  0  0  0  0  0  0
  -28.6620  -19.2890   20.5980 C   0  0  0  0  0  3  0  0  0  0  0  0
  -29.7880  -20.1050   20.2900 C   0  0  0  0  0  0  0  0  0  0  0  0
  -29.9430  -17.1520   20.4320 C   0  0  0  0  0  0  0  0  0  0  0  0
  -28.7410  -17.8650   20.6690 C   0  0  0  0  0  0  0  0  0  0  0  0
  -27.6250  -17.1590   20.9760 F   0  0  0  0  0  0  0  0  0  0  0  0
  -30.6480  -14.6650   20.0420 C   0  0  0  0  0  0  0  0  0  0  0  0
  -30.3590  -12.4610   18.9240 C   0  0  0  0  0  2  0  0  0  0  0  0
  -29.3400  -12.6330   17.7750 C   0  0  0  0  0  2  0  0  0  0  0  0
  -27.8940  -12.4740   18.2870 C   0  0  0  0  0  2  0  0  0  0  0  0
  -27.6230  -13.3000   19.5730 C   0  0  0  0  0  3  0  0  0  0  0  0
  -28.7460  -13.0910   20.6140 C   0  0  0  0  0  2  0  0  0  0  0  0
  -30.0230  -13.4450   19.9720 N   0  0  0  0  0  0  0  0  0  0  0  0
  -31.7720  -14.8380   19.5620 O   0  0  0  0  0  0  0  0  0  0  0  0
  -29.8890  -15.6910   20.5370 N   0  0  0  0  0  0  0  0  0  0  0  0
  -29.0330  -15.3660   20.9610 H   0  0  0  0  0  0  0  0  0  0  0  0
  -25.2810  -13.9000   20.4470 C   0  0  0  0  0  0  0  0  0  0  0  0
  -24.2290  -13.1270   20.8560 C   0  0  0  0  0  0  0  0  0  0  0  0
  -24.6740  -11.7730   20.7630 C   0  0  0  0  0  0  0  0  0  0  0  0
  -26.3010  -13.0170   20.1290 N   0  0  0  0  0  0  0  0  0  0  0  0
  -25.9440  -11.7310   20.3790 N   0  0  0  0  0  0  0  0  0  0  0  0
  -23.9480  -10.5130   20.9630 C   0  0  0  0  0  0  0  0  0  0  0  0
  -24.3820   -9.5490   21.8990 C   0  0  0  0  0  3  0  0  0  0  0  0
  -23.6550   -8.3550   22.0860 C   0  0  0  0  0  3  0  0  0  0  0  0
  -22.4780   -8.1140   21.3370 C   0  0  0  0  0  0  0  0  0  0  0  0
  -22.0630   -9.0670   20.3900 C   0  0  0  0  0  3  0  0  0  0  0  0
  -22.7910  -10.2530   20.2010 C   0  0  0  0  0  3  0  0  0  0  0  0
  -21.7220   -6.9720   21.4330 O   0  0  0  0  0  0  0  0  0  0  0  0
  -21.6200   -6.2730   22.6090 C   0  0  0  0  0  0  0  0  0  0  0  0
  -21.1360   -6.8710   23.7940 C   0  0  0  0  0  3  0  0  0  0  0  0
  -20.9830   -6.0980   24.9610 C   0  0  0  0  0  3  0  0  0  0  0  0
  -21.3030   -4.7270   24.9460 C   0  0  0  0  0  0  0  0  0  0  0  0
  -21.7810   -4.1280   23.7650 C   0  0  0  0  0  3  0  0  0  0  0  0
  -21.9360   -4.8990   22.6010 C   0  0  0  0  0  0  0  0  0  0  0  0
  -22.3760   -4.3130   21.4610 F   0  0  0  0  0  0  0  0  0  0  0  0
  -21.1500   -3.9810   26.0640 F   0  0  0  0  0  0  0  0  0  0  0  0
  -22.8550  -13.6100   21.2250 C   0  0  0  0  0  0  0  0  0  0  0  0
  -22.1780  -12.9060   22.1250 N   0  0  0  0  0  0  0  0  0  0  0  0
  -22.3940  -14.6480   20.7500 O   0  0  0  0  0  0  0  0  0  0  0  0
  -22.5650  -12.0670   22.5300 H   0  0  0  0  0  0  0  0  0  0  0  0
  -21.2590  -13.2140   22.4130 H   0  0  0  0  0  0  0  0  0  0  0  0
  -25.4470  -15.2740   20.3030 N   0  0  0  0  0  0  0  0  0  0  0  0
  -24.7040  -15.9300   20.5160 H   0  0  0  0  0  0  0  0  0  0  0  0
  -26.3140  -15.7340   20.0520 H   0  0  0  0  0  0  0  0  0  0  0  0
  -28.1010  -24.9830   19.5980 C   0  0  0  0  0  2  0  0  0  0  0  0
  -28.3850  -26.4130   19.9270 O   0  0  0  0  0  0  0  0  0  0  0  0
  -24.5580  -31.6880   23.0940 C   0  0  0  0  0  0  0  0  0  0  0  0
  -27.2730  -27.2850   19.8850 C   0  0  0  0  0  0  0  0  0  0  0  0
  -23.3900  -30.3240   21.4040 C   0  0  0  0  0  3  0  0  0  0  0  0
  -24.8780  -28.8670   19.9250 C   0  0  0  0  0  0  0  0  0  0  0  0
  -25.9250  -30.7000   21.2420 C   0  0  0  0  0  2  0  0  0  0  0  0
  -26.0370  -29.3480   20.5460 C   0  0  0  0  0  0  0  0  0  0  0  0
  -27.2370  -28.5680   20.5200 C   0  0  0  0  0  3  0  0  0  0  0  0
  -26.0850  -26.8800   19.2240 C   0  0  0  0  0  3  0  0  0  0  0  0
  -24.9040  -27.6390   19.2540 C   0  0  0  0  0  3  0  0  0  0  0  0
  -23.6240  -29.7120   19.9990 C   0  0  0  0  0  2  0  0  0  0  0  0
  -24.6430  -30.9200   21.9700 N   0  0  0  0  0  0  0  0  0  0  0  0
  -23.4660  -31.9220   23.6340 O   0  0  0  0  0  0  0  0  0  0  0  0
  -22.7480  -29.2560   22.3230 C   0  0  0  0  0  0  0  0  0  0  0  0
  -21.4260  -29.0550   22.1890 N   0  0  0  0  0  0  0  0  0  0  0  0
  -23.4410  -28.6150   23.1190 O   0  0  0  0  0  0  0  0  0  0  0  0
  -20.9260  -29.6260   21.5220 H   0  0  0  0  0  0  0  0  0  0  0  0
  -18.0690  -27.7980   22.6800 C   0  0  0  0  0  0  0  0  0  0  0  0
  -20.6280  -28.0750   22.9270 C   0  0  0  0  0  3  0  0  0  0  0  0
  -20.7390  -26.6720   22.2880 C   0  0  0  0  0  2  0  0  0  0  0  0
  -19.6260  -26.3810   21.2750 C   0  0  0  0  0  2  0  0  0  0  0  0
  -18.2510  -26.4820   21.9410 C   0  0  0  0  0  2  0  0  0  0  0  0
  -19.1840  -28.5530   23.1290 C   0  0  0  0  0  0  0  0  0  0  0  0
  -18.9590  -29.7840   23.7810 C   0  0  0  0  0  3  0  0  0  0  0  0
  -17.6510  -30.2640   23.9860 C   0  0  0  0  0  3  0  0  0  0  0  0
  -16.5500  -29.5060   23.5490 C   0  0  0  0  0  3  0  0  0  0  0  0
  -16.7600  -28.2750   22.9030 C   0  0  0  0  0  3  0  0  0  0  0  0
  -25.8240  -32.3270   23.7400 C   0  0  0  0  0  3  0  0  0  0  0  0
  -25.4880  -33.7140   24.0980 N   0  0  0  0  0  0  0  0  0  0  0  0
  -25.7890  -34.7860   23.3540 C   0  0  0  0  0  0  0  0  0  0  0  0
  -26.4510  -34.7150   22.3150 O   0  0  0  0  0  0  0  0  0  0  0  0
  -24.9000  -33.8400   24.9080 H   0  0  0  0  0  0  0  0  0  0  0  0
  -24.0100  -36.5390   23.0570 C   0  0  0  0  0  1  0  0  0  0  0  0
  -25.2760  -36.1550   23.8400 C   0  0  0  0  0  3  0  0  0  0  0  0
  -27.4040  -37.0840   24.6430 C   0  0  0  0  0  1  0  0  0  0  0  0
  -26.2790  -37.2360   23.7230 N   0  0  0  0  0  0  0  0  0  0  0  0
  -25.8510  -38.1430   23.8930 H   0  0  0  0  0  0  0  0  0  0  0  0
  -26.3410  -31.5370   25.0050 C   0  0  1  0  0  0  0  0  0  0  0  0
  -25.2410  -31.2600   26.0560 C   0  0  0  0  0  1  0  0  0  0  0  0
  -26.9490  -30.1760   24.5900 C   0  0  0  0  0  1  0  0  0  0  0  0
  -27.4720  -32.3340   25.6930 C   0  0  0  0  0  1  0  0  0  0  0  0
  1  3  1  0
  2  1  2  0
  3  6  2  0
  4  2  1  0
  4  5  1  0
  5 11  1  0
  5  3  1  0
  7  4  2  0
  8  9  2  0
  8 11  1  0
  9 12  1  0
 10 13  1  0
 11 10  2  0
 12 23  1  0
 12 13  2  0
 13 14  1  0
 15 23  1  0
 16 21  1  0
 17 18  1  0
 17 16  1  0
 19 18  1  0
 19 28  1  0
 19 20  1  0
 21 15  1  0
 21 20  1  0
 22 15  2  0
 23 24  1  0
 25 26  2  0
 26 45  1  0
 27 26  1  0
 27 30  1  0
 28 29  1  0
 28 25  1  0
 29 27  2  0
 30 31  1  0
 31 32  2  0
 33 36  1  0
 33 32  1  0
 34 33  2  0
 35 34  1  0
 35 30  2  0
 36 37  1  0
 37 38  1  0
 38 39  2  0
 40 39  1  0
 40 44  1  0
 41 40  2  0
 42 37  2  0
 42 41  1  0
 43 42  1  0
 45 46  1  0
 46 49  1  0
 46 48  1  0
 47 45  2  0
 50 25  1  0
 50 51  1  0
 52 50  1  0
 53 54  1  0
 53  2  1  0
 55 66  2  0
 56 54  1  0
 56 61  1  0
 57 65  1  0
 57 67  1  0
 58 64  1  0
 58 60  1  0
 59 65  1  0
 60 59  1  0
 61 60  2  0
 62 63  1  0
 62 56  2  0
 63 58  2  0
 64 57  1  0
 65 55  1  0
 67 69  2  0
 68 67  1  0
 70 68  1  0
 71 80  2  0
 71 76  1  0
 72 68  1  0
 72 76  1  0
 73 72  1  0
 74 75  1  0
 74 73  1  0
 75 71  1  0
 76 77  2  0
 77 78  1  0
 79 78  2  0
 80 79  1  0
 81 55  1  0
 81 82  1  0
 81 91  1  0
 82 85  1  0
 83 87  1  0
 83 82  1  0
 84 83  2  0
 87 86  1  0
 89 87  1  0
 89 90  1  0
 89 88  1  0
 91 94  1  1
 91 92  1  0
 93 91  1  0
M  ISO  4  15 100  23 100  53 101  54 101
M  END
>  <TORSDO>  (62) 
F 18

>  <SCORE>  (62) 
-14.406

>  <name>  (62) 
62

>  <ligand_id>  (62) 
62

>  <original_smiles>  (62) 
[H]C1=C(C([H])([H])Oc2c([H])c([H])c3c(c2[H])C([H])([H])N(C(=O)C([H])(N([H])C(=O)C([H])(N([H])C([H])([H])[H])C([H])([H])[H])C(C([H])([H])[H])(C([H])([H])[H])C([H])([H])[H])C([H])(C(=O)N([H])C2([H])c4c([H])c([H])c([H])c([H])c4C([H])([H])C([H])([H])C2([H])[H])C3([H])[H])C(=O)N(c2c([H])c([H])c(N([H])C(=O)N3C([H])([H])C([H])([H])C([H])([H])C([H])(n4nc(-c5c([H])c([H])c(Oc6c([H])c([H])c(F)c([H])c6F)c([H])c5[H])c(C(=O)N([H])[H])c4N([H])[H])C3([H])[H])c(F)c2[H])C1=O

>  <smiles>  (62) 
[H]C1=C(C([H])([H])Oc2c([H])c([H])c3c(c2[H])C([H])([H])N(C(=O)C([H])(N([H])C(=O)C([H])(N([H])C([H])([H])[H])C([H])([H])[H])C(C([H])([H])[H])(C([H])([H])[H])C([H])([H])[H])C([H])(C(=O)N([H])C2([H])c4c([H])c([H])c([H])c([H])c4C([H])([H])C([H])([H])C2([H])[H])C3([H])[H])C(=O)N(c2c([H])c([H])c(N([H])C(=O)N3C([H])([H])C([H])([H])C([H])([H])C([H])(n4nc(-c5c([H])c([H])c(Oc6c([H])c([H])c(F)c([H])c6F)c([H])c5[H])c(C(=O)N([H])[H])c4N([H])[H])C3([H])[H])c(F)c2[H])C1=O

$$$$
63:0:0
     RDKit          3D

 94102  0  0  1  0  0  0  0  0999 V2000
  -28.8070  -20.5730   20.8190 C   0  0  0  0  0  0  0  0  0  0  0  0
  -28.3520  -22.9750   20.8460 C   0  0  0  0  0  0  0  0  0  0  0  0
  -29.1150  -21.8790   20.5750 N   0  0  0  0  0  0  0  0  0  0  0  0
  -27.6800  -20.1770   21.1400 O   0  0  0  0  0  0  0  0  0  0  0  0
  -27.2830  -22.9070   21.4660 O   0  0  0  0  0  0  0  0  0  0  0  0
  -30.0200  -22.0480   20.1670 H   0  0  0  0  0  0  0  0  0  0  0  0
  -29.5710  -18.1280   20.6010 C   0  0  0  0  0  3  0  0  0  0  0  0
  -31.2590  -19.8850   20.7210 C   0  0  0  0  0  3  0  0  0  0  0  0
  -31.9240  -17.5320   20.6370 C   0  0  0  0  0  3  0  0  0  0  0  0
  -29.8940  -19.5200   20.6710 C   0  0  0  0  0  0  0  0  0  0  0  0
  -30.5720  -17.1130   20.5740 C   0  0  0  0  0  0  0  0  0  0  0  0
  -32.2600  -18.8980   20.7020 C   0  0  0  0  0  0  0  0  0  0  0  0
  -33.5620  -19.2670   20.7660 F   0  0  0  0  0  0  0  0  0  0  0  0
  -30.8900  -14.6500   20.0520 C   0  0  0  0  0  0  0  0  0  0  0  0
  -30.5510  -12.4630   18.9530 C   0  0  0  0  0  2  0  0  0  0  0  0
  -29.5490  -12.6330   17.7930 C   0  0  0  0  0  2  0  0  0  0  0  0
  -28.1020  -12.4760   18.3010 C   0  0  0  0  0  2  0  0  0  0  0  0
  -27.8160  -13.3240   19.5690 C   0  0  0  0  0  3  0  0  0  0  0  0
  -28.9330  -13.1520   20.6250 C   0  0  0  0  0  2  0  0  0  0  0  0
  -30.2150  -13.4670   19.9790 N   0  0  0  0  0  0  0  0  0  0  0  0
  -32.0070  -14.7850   19.5480 O   0  0  0  0  0  0  0  0  0  0  0  0
  -30.1940  -15.7140   20.5370 N   0  0  0  0  0  0  0  0  0  0  0  0
  -29.2480  -15.5010   20.8140 H   0  0  0  0  0  0  0  0  0  0  0  0
  -25.4710  -13.9060   20.4470 C   0  0  0  0  0  0  0  0  0  0  0  0
  -24.4230  -13.1240   20.8520 C   0  0  0  0  0  0  0  0  0  0  0  0
  -24.8750  -11.7730   20.7440 C   0  0  0  0  0  0  0  0  0  0  0  0
  -26.4950  -13.0320   20.1210 N   0  0  0  0  0  0  0  0  0  0  0  0
  -26.1450  -11.7420   20.3590 N   0  0  0  0  0  0  0  0  0  0  0  0
  -24.1560  -10.5060   20.9310 C   0  0  0  0  0  0  0  0  0  0  0  0
  -24.5730   -9.5530   21.8860 C   0  0  0  0  0  3  0  0  0  0  0  0
  -23.8540   -8.3510   22.0600 C   0  0  0  0  0  3  0  0  0  0  0  0
  -22.7020   -8.0940   21.2790 C   0  0  0  0  0  0  0  0  0  0  0  0
  -22.3050   -9.0360   20.3150 C   0  0  0  0  0  3  0  0  0  0  0  0
  -23.0240  -10.2290   20.1390 C   0  0  0  0  0  3  0  0  0  0  0  0
  -21.9570   -6.9440   21.3620 O   0  0  0  0  0  0  0  0  0  0  0  0
  -21.8010   -6.2690   22.5460 C   0  0  0  0  0  0  0  0  0  0  0  0
  -21.1840   -6.8650   23.6670 C   0  0  0  0  0  3  0  0  0  0  0  0
  -20.9830   -6.1130   24.8420 C   0  0  0  0  0  3  0  0  0  0  0  0
  -21.3870   -4.7670   24.8950 C   0  0  0  0  0  0  0  0  0  0  0  0
  -21.9980   -4.1700   23.7780 C   0  0  0  0  0  3  0  0  0  0  0  0
  -22.2010   -4.9180   22.6060 C   0  0  0  0  0  0  0  0  0  0  0  0
  -22.7700   -4.3330   21.5250 F   0  0  0  0  0  0  0  0  0  0  0  0
  -21.1870   -4.0420   26.0210 F   0  0  0  0  0  0  0  0  0  0  0  0
  -23.0460  -13.5940   21.2230 C   0  0  0  0  0  0  0  0  0  0  0  0
  -22.3640  -12.8640   22.0990 N   0  0  0  0  0  0  0  0  0  0  0  0
  -22.5870  -14.6430   20.7740 O   0  0  0  0  0  0  0  0  0  0  0  0
  -22.7510  -12.0140   22.4820 H   0  0  0  0  0  0  0  0  0  0  0  0
  -21.4430  -13.1590   22.3900 H   0  0  0  0  0  0  0  0  0  0  0  0
  -25.6300  -15.2820   20.3070 N   0  0  0  0  0  0  0  0  0  0  0  0
  -24.8720  -15.9330   20.4810 H   0  0  0  0  0  0  0  0  0  0  0  0
  -26.4510  -15.7280   19.9190 H   0  0  0  0  0  0  0  0  0  0  0  0
  -28.8770  -24.2610   20.3480 C   0  0  0  0  0  3  0  0  0  0  0  0
  -28.2180  -25.4090   20.6660 C   0  0  0  0  0  3  0  0  0  0  0  0
  -28.4970  -26.7020   20.2300 O   0  0  0  0  0  0  0  0  0  0  0  0
  -24.6800  -31.9260   23.2850 C   0  0  0  0  0  0  0  0  0  0  0  0
  -27.3890  -27.5320   20.1650 C   0  0  0  0  0  0  0  0  0  0  0  0
  -23.5090  -30.5450   21.6020 C   0  0  0  0  0  3  0  0  0  0  0  0
  -24.9950  -29.0520   20.1600 C   0  0  0  0  0  0  0  0  0  0  0  0
  -26.0390  -30.9200   21.4480 C   0  0  0  0  0  2  0  0  0  0  0  0
  -26.1450  -29.5620   20.7780 C   0  0  0  0  0  0  0  0  0  0  0  0
  -27.3490  -28.8110   20.7780 C   0  0  0  0  0  3  0  0  0  0  0  0
  -26.2250  -27.0590   19.5190 C   0  0  0  0  0  3  0  0  0  0  0  0
  -25.0310  -27.8010   19.5250 C   0  0  0  0  0  3  0  0  0  0  0  0
  -23.7430  -29.8990   20.2120 C   0  0  0  0  0  2  0  0  0  0  0  0
  -24.7600  -31.1450   22.1700 N   0  0  0  0  0  0  0  0  0  0  0  0
  -23.5890  -32.1800   23.8140 O   0  0  0  0  0  0  0  0  0  0  0  0
  -22.8520  -29.5000   22.5340 C   0  0  0  0  0  0  0  0  0  0  0  0
  -21.5310  -29.3080   22.3840 N   0  0  0  0  0  0  0  0  0  0  0  0
  -23.5280  -28.8670   23.3490 O   0  0  0  0  0  0  0  0  0  0  0  0
  -21.0460  -29.8720   21.7010 H   0  0  0  0  0  0  0  0  0  0  0  0
  -18.1520  -28.1060   22.8460 C   0  0  0  0  0  0  0  0  0  0  0  0
  -20.7120  -28.3480   23.1250 C   0  0  0  0  0  3  0  0  0  0  0  0
  -20.8090  -26.9350   22.5050 C   0  0  0  0  0  2  0  0  0  0  0  0
  -19.7060  -26.6480   21.4820 C   0  0  0  0  0  2  0  0  0  0  0  0
  -18.3250  -26.7780   22.1300 C   0  0  0  0  0  2  0  0  0  0  0  0
  -19.2730  -28.8520   23.2990 C   0  0  0  0  0  0  0  0  0  0  0  0
  -19.0590  -30.0970   23.9280 C   0  0  0  0  0  3  0  0  0  0  0  0
  -17.7570  -30.5970   24.1110 C   0  0  0  0  0  3  0  0  0  0  0  0
  -16.6500  -29.8480   23.6740 C   0  0  0  0  0  3  0  0  0  0  0  0
  -16.8480  -28.6050   23.0480 C   0  0  0  0  0  3  0  0  0  0  0  0
  -25.9520  -32.5560   23.9320 C   0  0  0  0  0  3  0  0  0  0  0  0
  -25.6450  -33.9620   24.2310 N   0  0  0  0  0  0  0  0  0  0  0  0
  -25.9970  -34.9980   23.4580 C   0  0  0  0  0  0  0  0  0  0  0  0
  -26.6850  -34.8710   22.4410 O   0  0  0  0  0  0  0  0  0  0  0  0
  -25.0360  -34.1350   25.0170 H   0  0  0  0  0  0  0  0  0  0  0  0
  -24.2880  -36.7940   23.0340 C   0  0  0  0  0  1  0  0  0  0  0  0
  -25.5080  -36.3970   23.8800 C   0  0  0  0  0  3  0  0  0  0  0  0
  -27.6230  -37.2900   24.7510 C   0  0  0  0  0  1  0  0  0  0  0  0
  -26.5500  -37.4410   23.7710 N   0  0  0  0  0  0  0  0  0  0  0  0
  -26.1450  -38.3670   23.8840 H   0  0  0  0  0  0  0  0  0  0  0  0
  -26.4260  -31.8010   25.2330 C   0  0  1  0  0  0  0  0  0  0  0  0
  -25.2990  -31.5730   26.2670 C   0  0  0  0  0  1  0  0  0  0  0  0
  -27.0240  -30.4200   24.8770 C   0  0  0  0  0  1  0  0  0  0  0  0
  -27.5520  -32.6050   25.9240 C   0  0  0  0  0  1  0  0  0  0  0  0
  1  4  2  0
  2  5  2  0
  3  1  1  0
  3  2  1  0
  6  3  1  0
  7 10  1  0
  9 12  2  0
 10  8  2  0
 10  1  1  0
 11  7  2  0
 11  9  1  0
 12  8  1  0
 12 13  1  0
 14 22  1  0
 15 20  1  0
 16 17  1  0
 16 15  1  0
 18 17  1  0
 18 27  1  0
 18 19  1  0
 20 14  1  0
 20 19  1  0
 21 14  2  0
 22 11  1  0
 22 23  1  0
 24 25  2  0
 25 44  1  0
 26 25  1  0
 26 29  1  0
 27 28  1  0
 27 24  1  0
 28 26  2  0
 29 30  1  0
 30 31  2  0
 32 35  1  0
 32 31  1  0
 33 32  2  0
 34 33  1  0
 34 29  2  0
 35 36  1  0
 36 41  2  0
 36 37  1  0
 37 38  2  0
 38 39  1  0
 39 43  1  0
 40 39  2  0
 41 40  1  0
 42 41  1  0
 44 45  1  0
 45 48  1  0
 45 47  1  0
 46 44  2  0
 49 24  1  0
 49 50  1  0
 51 49  1  0
 52 53  2  0
 52  2  1  0
 54 53  1  0
 55 66  2  0
 56 54  1  0
 56 61  1  0
 57 65  1  0
 57 67  1  0
 58 64  1  0
 58 60  1  0
 59 65  1  0
 60 59  1  0
 61 60  2  0
 62 63  1  0
 62 56  2  0
 63 58  2  0
 64 57  1  0
 65 55  1  0
 67 69  2  0
 68 67  1  0
 70 68  1  0
 71 80  2  0
 71 76  1  0
 72 68  1  0
 72 76  1  0
 73 72  1  0
 74 75  1  0
 74 73  1  0
 75 71  1  0
 76 77  2  0
 77 78  1  0
 79 78  2  0
 80 79  1  0
 81 55  1  0
 81 82  1  0
 81 91  1  0
 82 85  1  0
 83 87  1  0
 83 82  1  0
 84 83  2  0
 87 86  1  0
 89 87  1  0
 89 90  1  0
 89 88  1  0
 91 94  1  1
 91 92  1  0
 93 91  1  0
M  ISO  4  14 100  22 100  53 101  54 101
M  END
>  <TORSDO>  (63) 
F 18

>  <SCORE>  (63) 
-14.289

>  <name>  (63) 
63

>  <ligand_id>  (63) 
63

>  <original_smiles>  (63) 
[H]C(Oc1c([H])c([H])c2c(c1[H])C([H])([H])N(C(=O)C([H])(N([H])C(=O)C([H])(N([H])C([H])([H])[H])C([H])([H])[H])C(C([H])([H])[H])(C([H])([H])[H])C([H])([H])[H])C([H])(C(=O)N([H])C1([H])c3c([H])c([H])c([H])c([H])c3C([H])([H])C([H])([H])C1([H])[H])C2([H])[H])=C([H])C(=O)N([H])C(=O)c1c([H])c(F)c([H])c(N([H])C(=O)N2C([H])([H])C([H])([H])C([H])([H])C([H])(n3nc(-c4c([H])c([H])c(Oc5c([H])c([H])c(F)c([H])c5F)c([H])c4[H])c(C(=O)N([H])[H])c3N([H])[H])C2([H])[H])c1[H]

>  <smiles>  (63) 
[H]C(Oc1c([H])c([H])c2c(c1[H])C([H])([H])N(C(=O)C([H])(N([H])C(=O)C([H])(N([H])C([H])([H])[H])C([H])([H])[H])C(C([H])([H])[H])(C([H])([H])[H])C([H])([H])[H])C([H])(C(=O)N([H])C1([H])c3c([H])c([H])c([H])c([H])c3C([H])([H])C([H])([H])C1([H])[H])C2([H])[H])=C([H])C(=O)N([H])C(=O)c1c([H])c(F)c([H])c(N([H])C(=O)N2C([H])([H])C([H])([H])C([H])([H])C([H])(n3nc(-c4c([H])c([H])c(Oc5c([H])c([H])c(F)c([H])c5F)c([H])c4[H])c(C(=O)N([H])[H])c3N([H])[H])C2([H])[H])c1[H]

$$$$
64:0:0
     RDKit          3D

 94103  0  0  1  0  0  0  0  0999 V2000
  -28.4950  -24.5310   21.4260 C   0  0  0  0  0  0  0  0  0  0  0  0
  -29.0660  -23.5060   20.5420 C   0  0  0  0  0  0  0  0  0  0  0  0
  -28.2850  -25.8690   21.2400 C   0  0  0  0  0  3  0  0  0  0  0  0
  -28.0270  -23.8690   22.6900 C   0  0  0  0  0  2  0  0  0  0  0  0
  -28.0060  -22.3950   22.3210 C   0  0  0  0  0  2  0  0  0  0  0  0
  -28.8300  -22.2810   21.1190 N   0  0  0  0  0  0  0  0  0  0  0  0
  -29.6680  -23.6980   19.4810 O   0  0  0  0  0  0  0  0  0  0  0  0
  -31.1760  -19.4420   20.2000 C   0  0  0  0  0  3  0  0  0  0  0  0
  -29.0360  -18.4800   20.7840 C   0  0  0  0  0  3  0  0  0  0  0  0
  -30.6550  -20.7520   20.3330 C   0  0  0  0  0  3  0  0  0  0  0  0
  -28.5170  -19.7950   20.9410 C   0  0  0  0  0  3  0  0  0  0  0  0
  -30.3960  -18.2820   20.4480 C   0  0  0  0  0  0  0  0  0  0  0  0
  -29.3200  -20.9590   20.7490 C   0  0  0  0  0  0  0  0  0  0  0  0
  -30.9730  -14.6770   19.6410 C   0  0  0  0  0  0  0  0  0  0  0  0
  -30.4810  -12.5140   18.5300 C   0  0  0  0  0  2  0  0  0  0  0  0
  -29.4050  -12.6730   17.4390 C   0  0  0  0  0  2  0  0  0  0  0  0
  -27.9900  -12.5570   18.0400 C   0  0  0  0  0  2  0  0  0  0  0  0
  -27.8090  -13.4060   19.3270 C   0  0  0  0  0  3  0  0  0  0  0  0
  -28.9930  -13.2280   20.3030 C   0  0  0  0  0  2  0  0  0  0  0  0
  -30.2260  -13.5350   19.5670 N   0  0  0  0  0  0  0  0  0  0  0  0
  -32.0480  -14.7470   19.0350 O   0  0  0  0  0  0  0  0  0  0  0  0
  -31.0980  -16.9310   20.4900 C   0  0  0  0  0  0  0  0  0  0  0  0
  -30.4250  -15.7740   20.2400 N   0  0  0  0  0  0  0  0  0  0  0  0
  -32.3160  -16.9580   20.7170 O   0  0  0  0  0  0  0  0  0  0  0  0
  -29.4340  -15.7670   20.4030 H   0  0  0  0  0  0  0  0  0  0  0  0
  -25.5600  -14.0200   20.4060 C   0  0  0  0  0  0  0  0  0  0  0  0
  -24.5230  -13.2520   20.8610 C   0  0  0  0  0  0  0  0  0  0  0  0
  -24.9210  -11.8930   20.6710 C   0  0  0  0  0  0  0  0  0  0  0  0
  -26.5280  -13.1290   19.9690 N   0  0  0  0  0  0  0  0  0  0  0  0
  -26.1570  -11.8400   20.1850 N   0  0  0  0  0  0  0  0  0  0  0  0
  -24.1780  -10.6420   20.8670 C   0  0  0  0  0  0  0  0  0  0  0  0
  -24.6490   -9.6300   21.7310 C   0  0  0  0  0  3  0  0  0  0  0  0
  -23.9070   -8.4420   21.9130 C   0  0  0  0  0  3  0  0  0  0  0  0
  -22.6800   -8.2600   21.2350 C   0  0  0  0  0  0  0  0  0  0  0  0
  -22.2280   -9.2620   20.3590 C   0  0  0  0  0  3  0  0  0  0  0  0
  -22.9700  -10.4400   20.1740 C   0  0  0  0  0  3  0  0  0  0  0  0
  -21.9000   -7.1330   21.3380 O   0  0  0  0  0  0  0  0  0  0  0  0
  -21.8470   -6.3960   22.4940 C   0  0  0  0  0  0  0  0  0  0  0  0
  -21.4510   -6.9640   23.7230 C   0  0  0  0  0  3  0  0  0  0  0  0
  -21.3460   -6.1570   24.8730 C   0  0  0  0  0  3  0  0  0  0  0  0
  -21.6240   -4.7790   24.7930 C   0  0  0  0  0  0  0  0  0  0  0  0
  -22.0070   -4.2090   23.5680 C   0  0  0  0  0  3  0  0  0  0  0  0
  -22.1180   -5.0130   22.4200 C   0  0  0  0  0  0  0  0  0  0  0  0
  -22.4700   -4.4540   21.2380 F   0  0  0  0  0  0  0  0  0  0  0  0
  -21.5130   -4.0000   25.8950 F   0  0  0  0  0  0  0  0  0  0  0  0
  -23.1930  -13.7480   21.3530 C   0  0  0  0  0  0  0  0  0  0  0  0
  -22.5690  -13.0190   22.2710 N   0  0  0  0  0  0  0  0  0  0  0  0
  -22.7270  -14.8170   20.9610 O   0  0  0  0  0  0  0  0  0  0  0  0
  -22.9630  -12.1540   22.6130 H   0  0  0  0  0  0  0  0  0  0  0  0
  -21.6800  -13.3320   22.6380 H   0  0  0  0  0  0  0  0  0  0  0  0
  -25.7550  -15.3950   20.3020 N   0  0  0  0  0  0  0  0  0  0  0  0
  -25.0270  -16.0620   20.5310 H   0  0  0  0  0  0  0  0  0  0  0  0
  -26.5600  -15.8260   19.8620 H   0  0  0  0  0  0  0  0  0  0  0  0
  -28.4590  -26.7140   20.1560 O   0  0  0  0  0  0  0  0  0  0  0  0
  -24.5080  -31.8490   23.1430 C   0  0  0  0  0  0  0  0  0  0  0  0
  -27.3710  -27.5560   20.0070 C   0  0  0  0  0  0  0  0  0  0  0  0
  -23.3870  -30.4320   21.4500 C   0  0  0  0  0  3  0  0  0  0  0  0
  -24.9310  -28.9930   20.0040 C   0  0  0  0  0  0  0  0  0  0  0  0
  -25.9040  -30.8910   21.3080 C   0  0  0  0  0  2  0  0  0  0  0  0
  -26.0590  -29.5390   20.6300 C   0  0  0  0  0  0  0  0  0  0  0  0
  -27.2850  -28.8310   20.6270 C   0  0  0  0  0  3  0  0  0  0  0  0
  -26.2350  -27.0430   19.3510 C   0  0  0  0  0  3  0  0  0  0  0  0
  -25.0170  -27.7520   19.3510 C   0  0  0  0  0  3  0  0  0  0  0  0
  -23.6460  -29.7950   20.0570 C   0  0  0  0  0  2  0  0  0  0  0  0
  -24.6150  -31.0760   22.0230 N   0  0  0  0  0  0  0  0  0  0  0  0
  -23.4080  -32.0620   23.6750 O   0  0  0  0  0  0  0  0  0  0  0  0
  -22.7680  -29.3620   22.3790 C   0  0  0  0  0  0  0  0  0  0  0  0
  -21.4520  -29.1250   22.2300 N   0  0  0  0  0  0  0  0  0  0  0  0
  -23.4670  -28.7520   23.1930 O   0  0  0  0  0  0  0  0  0  0  0  0
  -20.9490  -29.6760   21.5490 H   0  0  0  0  0  0  0  0  0  0  0  0
  -18.1260  -27.7630   22.6380 C   0  0  0  0  0  0  0  0  0  0  0  0
  -20.6630  -28.1380   22.9690 C   0  0  0  0  0  3  0  0  0  0  0  0
  -20.8420  -26.7210   22.3770 C   0  0  0  0  0  2  0  0  0  0  0  0
  -19.7850  -26.3670   21.3270 C   0  0  0  0  0  2  0  0  0  0  0  0
  -18.3850  -26.4350   21.9450 C   0  0  0  0  0  2  0  0  0  0  0  0
  -19.1980  -28.5710   23.1040 C   0  0  0  0  0  0  0  0  0  0  0  0
  -18.9040  -29.8120   23.7090 C   0  0  0  0  0  3  0  0  0  0  0  0
  -17.5750  -30.2510   23.8460 C   0  0  0  0  0  3  0  0  0  0  0  0
  -16.5170  -29.4380   23.4010 C   0  0  0  0  0  3  0  0  0  0  0  0
  -16.7940  -28.1930   22.8070 C   0  0  0  0  0  3  0  0  0  0  0  0
  -25.7590  -32.5210   23.7920 C   0  0  0  0  0  3  0  0  0  0  0  0
  -25.4010  -33.9090   24.1130 N   0  0  0  0  0  0  0  0  0  0  0  0
  -25.7090  -34.9670   23.3520 C   0  0  0  0  0  0  0  0  0  0  0  0
  -26.3990  -34.8810   22.3320 O   0  0  0  0  0  0  0  0  0  0  0  0
  -24.7980  -34.0480   24.9110 H   0  0  0  0  0  0  0  0  0  0  0  0
  -23.9270  -36.6950   22.9500 C   0  0  0  0  0  1  0  0  0  0  0  0
  -25.1670  -36.3430   23.7890 C   0  0  0  0  0  3  0  0  0  0  0  0
  -27.2620  -37.3020   24.6480 C   0  0  0  0  0  1  0  0  0  0  0  0
  -26.1660  -37.4300   23.6880 N   0  0  0  0  0  0  0  0  0  0  0  0
  -25.7290  -38.3370   23.8250 H   0  0  0  0  0  0  0  0  0  0  0  0
  -26.2730  -31.7690   25.0790 C   0  0  1  0  0  0  0  0  0  0  0  0
  -25.1630  -31.4910   26.1220 C   0  0  0  0  0  1  0  0  0  0  0  0
  -26.9090  -30.4100   24.7050 C   0  0  0  0  0  1  0  0  0  0  0  0
  -27.3880  -32.5970   25.7670 C   0  0  0  0  0  1  0  0  0  0  0  0
  1  4  1  0
  2  6  1  0
  2  1  1  0
  3  1  2  0
  5  4  1  0
  6  5  1  0
  7  2  2  0
  8 10  2  0
  8 12  1  0
  9 11  1  0
 10 13  1  0
 12 22  1  0
 12  9  2  0
 13 11  2  0
 13  6  1  0
 14 23  1  0
 15 20  1  0
 16 17  1  0
 16 15  1  0
 18 17  1  0
 18 29  1  0
 18 19  1  0
 20 14  1  0
 20 19  1  0
 21 14  2  0
 22 24  2  0
 23 25  1  0
 23 22  1  0
 26 27  2  0
 27 46  1  0
 28 27  1  0
 28 31  1  0
 29 30  1  0
 29 26  1  0
 30 28  2  0
 31 32  1  0
 32 33  2  0
 34 37  1  0
 34 33  1  0
 35 34  2  0
 36 35  1  0
 36 31  2  0
 37 38  1  0
 38 39  1  0
 39 40  2  0
 41 40  1  0
 41 45  1  0
 42 41  2  0
 43 38  2  0
 43 42  1  0
 44 43  1  0
 46 47  1  0
 47 49  1  0
 47 50  1  0
 48 46  2  0
 51 26  1  0
 51 52  1  0
 53 51  1  0
 54  3  1  0
 55 66  2  0
 56 54  1  0
 56 61  1  0
 57 65  1  0
 57 67  1  0
 58 64  1  0
 58 60  1  0
 59 65  1  0
 60 59  1  0
 61 60  2  0
 62 56  2  0
 63 62  1  0
 63 58  2  0
 64 57  1  0
 65 55  1  0
 67 69  2  0
 68 67  1  0
 70 68  1  0
 71 80  2  0
 71 76  1  0
 72 68  1  0
 72 76  1  0
 73 72  1  0
 74 75  1  0
 74 73  1  0
 75 71  1  0
 76 77  2  0
 77 78  1  0
 79 78  2  0
 80 79  1  0
 81 55  1  0
 81 82  1  0
 81 91  1  0
 82 85  1  0
 83 87  1  0
 83 82  1  0
 84 83  2  0
 87 86  1  0
 89 87  1  0
 89 90  1  0
 89 88  1  0
 91 94  1  1
 91 92  1  0
 93 91  1  0
M  ISO  4   3 101  14 100  23 100  54 101
M  END
>  <TORSDO>  (64) 
F 17

>  <SCORE>  (64) 
-13.157

>  <name>  (64) 
64

>  <ligand_id>  (64) 
64

>  <original_smiles>  (64) 
[H]C(Oc1c([H])c([H])c2c(c1[H])C([H])([H])N(C(=O)C([H])(N([H])C(=O)C([H])(N([H])C([H])([H])[H])C([H])([H])[H])C(C([H])([H])[H])(C([H])([H])[H])C([H])([H])[H])C([H])(C(=O)N([H])C1([H])c3c([H])c([H])c([H])c([H])c3C([H])([H])C([H])([H])C1([H])[H])C2([H])[H])=C1C(=O)N(c2c([H])c([H])c(C(=O)N([H])C(=O)N3C([H])([H])C([H])([H])C([H])([H])C([H])(n4nc(-c5c([H])c([H])c(Oc6c([H])c([H])c(F)c([H])c6F)c([H])c5[H])c(C(=O)N([H])[H])c4N([H])[H])C3([H])[H])c([H])c2[H])C([H])([H])C1([H])[H]

>  <smiles>  (64) 
[H]C(Oc1c([H])c([H])c2c(c1[H])C([H])([H])N(C(=O)C([H])(N([H])C(=O)C([H])(N([H])C([H])([H])[H])C([H])([H])[H])C(C([H])([H])[H])(C([H])([H])[H])C([H])([H])[H])C([H])(C(=O)N([H])C1([H])c3c([H])c([H])c([H])c([H])c3C([H])([H])C([H])([H])C1([H])[H])C2([H])[H])=C1C(=O)N(c2c([H])c([H])c(C(=O)N([H])C(=O)N3C([H])([H])C([H])([H])C([H])([H])C([H])(n4nc(-c5c([H])c([H])c(Oc6c([H])c([H])c(F)c([H])c6F)c([H])c5[H])c(C(=O)N([H])[H])c4N([H])[H])C3([H])[H])c([H])c2[H])C([H])([H])C1([H])[H]

$$$$
65:0:0
     RDKit          3D

 93101  0  0  1  0  0  0  0  0999 V2000
  -29.9670  -21.2930   19.4160 C   0  0  0  0  0  0  0  0  0  0  0  0
  -29.2070  -23.5610   19.9640 C   0  0  0  0  0  0  0  0  0  0  0  0
  -29.3690  -22.2260   20.1980 N   0  0  0  0  0  0  0  0  0  0  0  0
  -30.5400  -21.5580   18.3510 O   0  0  0  0  0  0  0  0  0  0  0  0
  -29.5330  -24.1310   18.9160 O   0  0  0  0  0  0  0  0  0  0  0  0
  -29.0180  -21.8810   21.0770 H   0  0  0  0  0  0  0  0  0  0  0  0
  -31.1270  -19.0360   19.5980 C   0  0  0  0  0  3  0  0  0  0  0  0
  -28.8870  -19.2000   20.4880 C   0  0  0  0  0  3  0  0  0  0  0  0
  -31.1500  -17.6470   19.8690 C   0  0  0  0  0  3  0  0  0  0  0  0
  -28.9080  -17.8040   20.7590 C   0  0  0  0  0  3  0  0  0  0  0  0
  -29.9970  -19.8400   19.8820 C   0  0  0  0  0  0  0  0  0  0  0  0
  -30.0250  -16.9920   20.4320 C   0  0  0  0  0  0  0  0  0  0  0  0
  -30.6500  -14.5410   20.1220 C   0  0  0  0  0  0  0  0  0  0  0  0
  -30.3060  -12.3910   18.9560 C   0  0  0  0  0  2  0  0  0  0  0  0
  -29.3060  -12.6270   17.8030 C   0  0  0  0  0  2  0  0  0  0  0  0
  -27.8550  -12.4790   18.3020 C   0  0  0  0  0  2  0  0  0  0  0  0
  -27.5840  -13.2830   19.6020 C   0  0  0  0  0  3  0  0  0  0  0  0
  -28.6930  -13.0290   20.6490 C   0  0  0  0  0  2  0  0  0  0  0  0
  -29.9860  -13.3520   20.0250 N   0  0  0  0  0  0  0  0  0  0  0  0
  -31.7740  -14.6960   19.6380 O   0  0  0  0  0  0  0  0  0  0  0  0
  -29.9350  -15.5650   20.6570 N   0  0  0  0  0  0  0  0  0  0  0  0
  -29.0800  -15.2590   21.0960 H   0  0  0  0  0  0  0  0  0  0  0  0
  -25.2260  -13.8840   20.4390 C   0  0  0  0  0  0  0  0  0  0  0  0
  -24.1730  -13.1090   20.8430 C   0  0  0  0  0  0  0  0  0  0  0  0
  -24.6270  -11.7560   20.7650 C   0  0  0  0  0  0  0  0  0  0  0  0
  -26.2550  -13.0040   20.1400 N   0  0  0  0  0  0  0  0  0  0  0  0
  -25.9010  -11.7180   20.3950 N   0  0  0  0  0  0  0  0  0  0  0  0
  -23.9060  -10.4930   20.9670 C   0  0  0  0  0  0  0  0  0  0  0  0
  -24.3520   -9.5260   21.8950 C   0  0  0  0  0  3  0  0  0  0  0  0
  -23.6300   -8.3280   22.0830 C   0  0  0  0  0  3  0  0  0  0  0  0
  -22.4480   -8.0880   21.3420 C   0  0  0  0  0  0  0  0  0  0  0  0
  -22.0220   -9.0430   20.4020 C   0  0  0  0  0  3  0  0  0  0  0  0
  -22.7450  -10.2320   20.2120 C   0  0  0  0  0  3  0  0  0  0  0  0
  -21.6970   -6.9410   21.4400 O   0  0  0  0  0  0  0  0  0  0  0  0
  -21.6390   -6.2170   22.6040 C   0  0  0  0  0  0  0  0  0  0  0  0
  -21.1550   -6.7780   23.8080 C   0  0  0  0  0  3  0  0  0  0  0  0
  -21.0460   -5.9770   24.9620 C   0  0  0  0  0  3  0  0  0  0  0  0
  -21.4110   -4.6170   24.9150 C   0  0  0  0  0  0  0  0  0  0  0  0
  -21.8870   -4.0580   23.7160 C   0  0  0  0  0  3  0  0  0  0  0  0
  -21.9980   -4.8550   22.5640 C   0  0  0  0  0  0  0  0  0  0  0  0
  -22.4370   -4.3050   21.4070 F   0  0  0  0  0  0  0  0  0  0  0  0
  -21.2980   -3.8460   26.0210 F   0  0  0  0  0  0  0  0  0  0  0  0
  -22.7930  -13.5850   21.1880 C   0  0  0  0  0  0  0  0  0  0  0  0
  -22.0950  -12.8660   22.0600 N   0  0  0  0  0  0  0  0  0  0  0  0
  -22.3420  -14.6320   20.7230 O   0  0  0  0  0  0  0  0  0  0  0  0
  -22.4700  -12.0180   22.4570 H   0  0  0  0  0  0  0  0  0  0  0  0
  -21.1700  -13.1680   22.3340 H   0  0  0  0  0  0  0  0  0  0  0  0
  -25.3920  -15.2570   20.2820 N   0  0  0  0  0  0  0  0  0  0  0  0
  -24.6390  -15.9150   20.4520 H   0  0  0  0  0  0  0  0  0  0  0  0
  -26.2310  -15.6980   19.9270 H   0  0  0  0  0  0  0  0  0  0  0  0
  -28.6020  -24.2530   21.1020 C   0  0  0  0  0  3  0  0  0  0  0  0
  -28.2670  -25.5720   21.1910 C   0  0  0  0  0  3  0  0  0  0  0  0
  -28.3940  -26.5880   20.2570 O   0  0  0  0  0  0  0  0  0  0  0  0
  -24.5590  -31.8610   23.2030 C   0  0  0  0  0  0  0  0  0  0  0  0
  -27.2870  -27.4130   20.1830 C   0  0  0  0  0  0  0  0  0  0  0  0
  -23.3970  -30.4530   21.5370 C   0  0  0  0  0  3  0  0  0  0  0  0
  -24.8920  -28.9240   20.1380 C   0  0  0  0  0  0  0  0  0  0  0  0
  -25.9260  -30.8230   21.3920 C   0  0  0  0  0  2  0  0  0  0  0  0
  -26.0370  -29.4500   20.7520 C   0  0  0  0  0  0  0  0  0  0  0  0
  -27.2420  -28.7020   20.7740 C   0  0  0  0  0  3  0  0  0  0  0  0
  -26.1300  -26.9120   19.5560 C   0  0  0  0  0  3  0  0  0  0  0  0
  -24.9350  -27.6540   19.5350 C   0  0  0  0  0  3  0  0  0  0  0  0
  -23.6410  -29.7750   20.1610 C   0  0  0  0  0  2  0  0  0  0  0  0
  -24.6450  -31.0600   22.1030 N   0  0  0  0  0  0  0  0  0  0  0  0
  -23.4650  -32.1270   23.7200 O   0  0  0  0  0  0  0  0  0  0  0  0
  -22.7310  -29.4290   22.4850 C   0  0  0  0  0  0  0  0  0  0  0  0
  -21.4040  -29.2590   22.3510 N   0  0  0  0  0  0  0  0  0  0  0  0
  -23.4050  -28.7890   23.2970 O   0  0  0  0  0  0  0  0  0  0  0  0
  -20.9220  -29.8290   21.6710 H   0  0  0  0  0  0  0  0  0  0  0  0
  -18.0100  -28.1240   22.8610 C   0  0  0  0  0  0  0  0  0  0  0  0
  -20.5760  -28.3190   23.1090 C   0  0  0  0  0  3  0  0  0  0  0  0
  -20.6390  -26.9010   22.4950 C   0  0  0  0  0  2  0  0  0  0  0  0
  -19.5190  -26.6300   21.4880 C   0  0  0  0  0  2  0  0  0  0  0  0
  -18.1470  -26.7880   22.1510 C   0  0  0  0  0  2  0  0  0  0  0  0
  -19.1500  -28.8500   23.2970 C   0  0  0  0  0  0  0  0  0  0  0  0
  -18.9670  -30.1030   23.9210 C   0  0  0  0  0  3  0  0  0  0  0  0
  -17.6760  -30.6300   24.1160 C   0  0  0  0  0  3  0  0  0  0  0  0
  -16.5500  -29.8990   23.6980 C   0  0  0  0  0  3  0  0  0  0  0  0
  -16.7180  -28.6490   23.0760 C   0  0  0  0  0  3  0  0  0  0  0  0
  -25.8280  -32.5020   23.8490 C   0  0  0  0  0  3  0  0  0  0  0  0
  -25.5040  -33.8970   24.1730 N   0  0  0  0  0  0  0  0  0  0  0  0
  -25.8390  -34.9530   23.4160 C   0  0  0  0  0  0  0  0  0  0  0  0
  -26.5250  -34.8530   22.3950 O   0  0  0  0  0  0  0  0  0  0  0  0
  -24.8990  -34.0480   24.9660 H   0  0  0  0  0  0  0  0  0  0  0  0
  -24.1070  -36.7330   23.0250 C   0  0  0  0  0  1  0  0  0  0  0  0
  -25.3310  -36.3360   23.8630 C   0  0  0  0  0  3  0  0  0  0  0  0
  -27.4370  -37.2390   24.7470 C   0  0  0  0  0  1  0  0  0  0  0  0
  -26.3580  -37.3980   23.7750 N   0  0  0  0  0  0  0  0  0  0  0  0
  -25.9410  -38.3150   23.9100 H   0  0  0  0  0  0  0  0  0  0  0  0
  -26.3260  -31.7320   25.1330 C   0  0  1  0  0  0  0  0  0  0  0  0
  -25.2150  -31.4810   26.1810 C   0  0  0  0  0  1  0  0  0  0  0  0
  -26.9280  -30.3610   24.7480 C   0  0  0  0  0  1  0  0  0  0  0  0
  -27.4550  -32.5360   25.8190 C   0  0  0  0  0  1  0  0  0  0  0  0
  1 11  1  0
  1  3  1  0
  2  3  1  0
  2 51  1  0
  3  6  1  0
  4  1  2  0
  5  2  2  0
  7  9  2  0
  7 11  1  0
  8 10  1  0
  9 12  1  0
 11  8  2  0
 12 21  1  0
 12 10  2  0
 13 21  1  0
 14 19  1  0
 15 16  1  0
 15 14  1  0
 17 16  1  0
 17 26  1  0
 17 18  1  0
 19 13  1  0
 19 18  1  0
 20 13  2  0
 21 22  1  0
 23 24  2  0
 24 43  1  0
 25 24  1  0
 25 28  1  0
 26 27  1  0
 26 23  1  0
 27 25  2  0
 28 29  1  0
 29 30  2  0
 31 34  1  0
 31 30  1  0
 32 31  2  0
 33 32  1  0
 33 28  2  0
 34 35  1  0
 35 36  1  0
 36 37  2  0
 38 37  1  0
 38 42  1  0
 39 38  2  0
 40 35  2  0
 40 39  1  0
 41 40  1  0
 43 44  1  0
 44 47  1  0
 44 46  1  0
 45 43  2  0
 48 23  1  0
 48 49  1  0
 50 48  1  0
 51 52  2  0
 53 52  1  0
 54 65  2  0
 55 53  1  0
 55 60  1  0
 56 64  1  0
 56 66  1  0
 57 63  1  0
 57 59  1  0
 58 64  1  0
 59 60  2  0
 59 58  1  0
 61 55  2  0
 62 61  1  0
 62 57  2  0
 63 56  1  0
 64 54  1  0
 66 68  2  0
 67 66  1  0
 69 67  1  0
 70 79  2  0
 70 75  1  0
 71 67  1  0
 71 75  1  0
 72 71  1  0
 73 74  1  0
 73 72  1  0
 74 70  1  0
 75 76  2  0
 76 77  1  0
 78 77  2  0
 79 78  1  0
 80 54  1  0
 80 81  1  0
 80 90  1  0
 81 84  1  0
 82 86  1  0
 82 81  1  0
 83 82  2  0
 86 85  1  0
 88 86  1  0
 88 89  1  0
 88 87  1  0
 90 93  1  1
 90 91  1  0
 92 90  1  0
M  ISO  4  13 100  21 100  52 101  53 101
M  END
>  <TORSDO>  (65) 
F 18

>  <SCORE>  (65) 
-14.706

>  <name>  (65) 
65

>  <ligand_id>  (65) 
65

>  <original_smiles>  (65) 
[H]C(Oc1c([H])c([H])c2c(c1[H])C([H])([H])N(C(=O)C([H])(N([H])C(=O)C([H])(N([H])C([H])([H])[H])C([H])([H])[H])C(C([H])([H])[H])(C([H])([H])[H])C([H])([H])[H])C([H])(C(=O)N([H])C1([H])c3c([H])c([H])c([H])c([H])c3C([H])([H])C([H])([H])C1([H])[H])C2([H])[H])=C([H])C(=O)N([H])C(=O)c1c([H])c([H])c(N([H])C(=O)N2C([H])([H])C([H])([H])C([H])([H])C([H])(n3nc(-c4c([H])c([H])c(Oc5c([H])c([H])c(F)c([H])c5F)c([H])c4[H])c(C(=O)N([H])[H])c3N([H])[H])C2([H])[H])c([H])c1[H]

>  <smiles>  (65) 
[H]C(Oc1c([H])c([H])c2c(c1[H])C([H])([H])N(C(=O)C([H])(N([H])C(=O)C([H])(N([H])C([H])([H])[H])C([H])([H])[H])C(C([H])([H])[H])(C([H])([H])[H])C([H])([H])[H])C([H])(C(=O)N([H])C1([H])c3c([H])c([H])c([H])c([H])c3C([H])([H])C([H])([H])C1([H])[H])C2([H])[H])=C([H])C(=O)N([H])C(=O)c1c([H])c([H])c(N([H])C(=O)N2C([H])([H])C([H])([H])C([H])([H])C([H])(n3nc(-c4c([H])c([H])c(Oc5c([H])c([H])c(F)c([H])c5F)c([H])c4[H])c(C(=O)N([H])[H])c3N([H])[H])C2([H])[H])c([H])c1[H]

$$$$
66:0:0
     RDKit          3D

 95104  0  0  1  0  0  0  0  0999 V2000
  -30.0270  -20.2110   18.6670 C   0  0  0  0  0  3  0  0  0  0  0  0
  -29.5780  -19.0140   20.6810 C   0  0  0  0  0  3  0  0  0  0  0  0
  -30.2530  -17.7480   18.7010 C   0  0  0  0  0  0  0  0  0  0  0  0
  -29.5940  -20.3420   20.0050 C   0  0  0  0  0  0  0  0  0  0  0  0
  -30.3290  -18.9950   18.0280 C   0  0  0  0  0  0  0  0  0  0  0  0
  -29.9410  -17.6940   20.0940 C   0  0  0  0  0  0  0  0  0  0  0  0
  -30.4250  -16.4720   17.8750 C   0  0  0  0  0  1  0  0  0  0  0  0
  -30.6700  -15.1640   20.7240 C   0  0  0  0  0  0  0  0  0  0  0  0
  -30.6320  -12.7800   19.9100 C   0  0  0  0  0  2  0  0  0  0  0  0
  -29.7940  -12.6770   18.6150 C   0  0  0  0  0  2  0  0  0  0  0  0
  -28.2990  -12.5050   18.9380 C   0  0  0  0  0  2  0  0  0  0  0  0
  -27.8050  -13.4660   20.0520 C   0  0  0  0  0  3  0  0  0  0  0  0
  -28.7760  -13.5230   21.2510 C   0  0  0  0  0  2  0  0  0  0  0  0
  -30.0910  -13.9030   20.7250 N   0  0  0  0  0  0  0  0  0  0  0  0
  -31.8850  -15.2360   20.5140 O   0  0  0  0  0  0  0  0  0  0  0  0
  -29.8640  -16.3280   20.7840 N   0  0  0  0  0  0  0  0  0  0  0  0
  -28.9740  -16.1510   21.2250 H   0  0  0  0  0  0  0  0  0  0  0  0
  -25.3750  -14.0330   20.6300 C   0  0  0  0  0  0  0  0  0  0  0  0
  -24.2950  -13.2520   20.9410 C   0  0  0  0  0  0  0  0  0  0  0  0
  -24.7730  -11.9050   20.9550 C   0  0  0  0  0  0  0  0  0  0  0  0
  -26.4400  -13.1620   20.4670 N   0  0  0  0  0  0  0  0  0  0  0  0
  -26.0810  -11.8790   20.7310 N   0  0  0  0  0  0  0  0  0  0  0  0
  -24.0470  -10.6370   21.1120 C   0  0  0  0  0  0  0  0  0  0  0  0
  -24.4150   -9.6890   22.0920 C   0  0  0  0  0  3  0  0  0  0  0  0
  -23.6890   -8.4870   22.2350 C   0  0  0  0  0  3  0  0  0  0  0  0
  -22.5790   -8.2250   21.3970 C   0  0  0  0  0  0  0  0  0  0  0  0
  -22.2290   -9.1610   20.4070 C   0  0  0  0  0  3  0  0  0  0  0  0
  -22.9580  -10.3530   20.2630 C   0  0  0  0  0  3  0  0  0  0  0  0
  -21.8300   -7.0740   21.4470 O   0  0  0  0  0  0  0  0  0  0  0  0
  -21.6870   -6.3570   22.6090 C   0  0  0  0  0  0  0  0  0  0  0  0
  -21.1020   -6.9200   23.7650 C   0  0  0  0  0  3  0  0  0  0  0  0
  -20.9120   -6.1280   24.9150 C   0  0  0  0  0  3  0  0  0  0  0  0
  -21.2940   -4.7730   24.9080 C   0  0  0  0  0  0  0  0  0  0  0  0
  -21.8710   -4.2100   23.7560 C   0  0  0  0  0  3  0  0  0  0  0  0
  -22.0630   -4.9990   22.6090 C   0  0  0  0  0  0  0  0  0  0  0  0
  -22.6000   -4.4450   21.4950 F   0  0  0  0  0  0  0  0  0  0  0  0
  -21.1040   -4.0090   26.0090 F   0  0  0  0  0  0  0  0  0  0  0  0
  -22.8790  -13.7170   21.1160 C   0  0  0  0  0  0  0  0  0  0  0  0
  -22.1060  -13.0330   21.9510 N   0  0  0  0  0  0  0  0  0  0  0  0
  -22.4630  -14.7250   20.5450 O   0  0  0  0  0  0  0  0  0  0  0  0
  -22.4510  -12.2180   22.4360 H   0  0  0  0  0  0  0  0  0  0  0  0
  -21.1530  -13.3300   22.1090 H   0  0  0  0  0  0  0  0  0  0  0  0
  -25.5360  -15.4040   20.4470 N   0  0  0  0  0  0  0  0  0  0  0  0
  -24.7540  -16.0480   20.4890 H   0  0  0  0  0  0  0  0  0  0  0  0
  -26.3970  -15.8470   20.1540 H   0  0  0  0  0  0  0  0  0  0  0  0
  -28.5700  -23.7880   20.4440 C   0  0  0  0  0  0  0  0  0  0  0  0
  -28.1300  -22.4800   20.9810 C   0  0  0  0  0  0  0  0  0  0  0  0
  -27.9840  -25.0720   20.5690 C   0  0  0  0  0  3  0  0  0  0  0  0
  -29.7440  -23.0290   19.7670 C   0  0  0  0  0  2  0  0  0  0  0  0
  -29.2440  -21.7690   20.4380 N   0  0  0  0  0  0  0  0  0  0  0  0
  -27.1070  -22.1760   21.5600 O   0  0  0  0  0  0  0  0  0  0  0  0
  -28.2740  -26.4180   20.1010 O   0  0  0  0  0  0  0  0  0  0  0  0
  -24.6300  -31.9860   23.2340 C   0  0  0  0  0  0  0  0  0  0  0  0
  -27.2210  -27.3920   20.0900 C   0  0  0  0  0  0  0  0  0  0  0  0
  -23.4160  -30.5910   21.6040 C   0  0  0  0  0  3  0  0  0  0  0  0
  -24.8590  -29.0670   20.1260 C   0  0  0  0  0  0  0  0  0  0  0  0
  -25.9570  -30.9140   21.3830 C   0  0  0  0  0  2  0  0  0  0  0  0
  -26.0420  -29.5340   20.7170 C   0  0  0  0  0  0  0  0  0  0  0  0
  -27.2260  -28.7090   20.6880 C   0  0  0  0  0  3  0  0  0  0  0  0
  -26.0170  -27.0230   19.4520 C   0  0  0  0  0  3  0  0  0  0  0  0
  -24.8560  -27.8220   19.4790 C   0  0  0  0  0  3  0  0  0  0  0  0
  -23.6160  -29.9380   20.2110 C   0  0  0  0  0  2  0  0  0  0  0  0
  -24.6880  -31.1840   22.1290 N   0  0  0  0  0  0  0  0  0  0  0  0
  -23.5510  -32.2440   23.7900 O   0  0  0  0  0  0  0  0  0  0  0  0
  -22.7810  -29.5550   22.5650 C   0  0  0  0  0  0  0  0  0  0  0  0
  -21.4630  -29.3250   22.4310 N   0  0  0  0  0  0  0  0  0  0  0  0
  -23.4760  -28.9660   23.3950 O   0  0  0  0  0  0  0  0  0  0  0  0
  -20.9550  -29.8580   21.7380 H   0  0  0  0  0  0  0  0  0  0  0  0
  -18.1410  -27.9600   22.8930 C   0  0  0  0  0  0  0  0  0  0  0  0
  -20.6780  -28.3580   23.2020 C   0  0  0  0  0  3  0  0  0  0  0  0
  -20.8630  -26.9230   22.6530 C   0  0  0  0  0  2  0  0  0  0  0  0
  -19.7980  -26.5290   21.6250 C   0  0  0  0  0  2  0  0  0  0  0  0
  -18.3990  -26.6120   22.2420 C   0  0  0  0  0  2  0  0  0  0  0  0
  -19.2110  -28.7860   23.3300 C   0  0  0  0  0  0  0  0  0  0  0  0
  -18.9140  -30.0430   23.9010 C   0  0  0  0  0  3  0  0  0  0  0  0
  -17.5810  -30.4750   24.0400 C   0  0  0  0  0  3  0  0  0  0  0  0
  -16.5270  -29.6480   23.6190 C   0  0  0  0  0  3  0  0  0  0  0  0
  -16.8080  -28.3920   23.0510 C   0  0  0  0  0  3  0  0  0  0  0  0
  -25.9120  -32.6350   23.8380 C   0  0  0  0  0  3  0  0  0  0  0  0
  -25.5920  -34.0320   24.1670 N   0  0  0  0  0  0  0  0  0  0  0  0
  -25.9020  -35.0870   23.4020 C   0  0  0  0  0  0  0  0  0  0  0  0
  -26.5550  -34.9870   22.3600 O   0  0  0  0  0  0  0  0  0  0  0  0
  -25.0130  -34.1820   24.9790 H   0  0  0  0  0  0  0  0  0  0  0  0
  -24.1620  -36.8740   23.0620 C   0  0  0  0  0  1  0  0  0  0  0  0
  -25.4110  -36.4740   23.8640 C   0  0  0  0  0  3  0  0  0  0  0  0
  -27.5420  -37.3770   24.6870 C   0  0  0  0  0  1  0  0  0  0  0  0
  -26.4370  -37.5330   23.7440 N   0  0  0  0  0  0  0  0  0  0  0  0
  -26.0260  -38.4490   23.8870 H   0  0  0  0  0  0  0  0  0  0  0  0
  -26.4460  -31.8770   25.1160 C   0  0  1  0  0  0  0  0  0  0  0  0
  -25.3660  -31.6380   26.1970 C   0  0  0  0  0  1  0  0  0  0  0  0
  -27.0380  -30.5000   24.7330 C   0  0  0  0  0  1  0  0  0  0  0  0
  -27.5960  -32.6850   25.7630 C   0  0  0  0  0  1  0  0  0  0  0  0
  -30.6810  -19.0680   16.6760 N   0  0  0  0  0  0  0  0  0  0  0  0
  -30.4290  -19.9010   16.1530 H   0  0  0  0  0  0  0  0  0  0  0  0
  -30.6320  -18.2250   16.1150 H   0  0  0  0  0  0  0  0  0  0  0  0
  1  4  1  0
  3  6  2  0
  4 50  1  0
  4  2  2  0
  5  1  2  0
  5  3  1  0
  6  2  1  0
  6 16  1  0
  7  3  1  0
  8 14  1  0
  8 16  1  0
  9 14  1  0
 10 11  1  0
 10  9  1  0
 12 11  1  0
 12 21  1  0
 12 13  1  0
 14 13  1  0
 15  8  2  0
 16 17  1  0
 18 19  2  0
 19 20  1  0
 19 38  1  0
 20 23  1  0
 21 18  1  0
 21 22  1  0
 22 20  2  0
 23 24  1  0
 24 25  2  0
 26 29  1  0
 26 25  1  0
 27 26  2  0
 28 27  1  0
 28 23  2  0
 29 30  1  0
 30 31  1  0
 31 32  2  0
 33 32  1  0
 33 37  1  0
 34 33  2  0
 35 30  2  0
 35 34  1  0
 36 35  1  0
 38 39  1  0
 39 42  1  0
 39 41  1  0
 40 38  2  0
 43 44  1  0
 43 18  1  0
 45 43  1  0
 46 48  2  0
 46 47  1  0
 47 51  2  0
 49 50  1  0
 49 46  1  0
 50 47  1  0
 52 48  1  0
 53 64  2  0
 54 52  1  0
 54 59  1  0
 55 63  1  0
 55 65  1  0
 56 62  1  0
 56 58  1  0
 57 63  1  0
 58 57  1  0
 59 58  2  0
 60 61  1  0
 60 54  2  0
 61 56  2  0
 62 55  1  0
 63 53  1  0
 65 67  2  0
 66 65  1  0
 68 66  1  0
 69 78  2  0
 69 74  1  0
 70 66  1  0
 70 74  1  0
 71 70  1  0
 72 73  1  0
 72 71  1  0
 73 69  1  0
 74 75  2  0
 75 76  1  0
 77 76  2  0
 78 77  1  0
 79 53  1  0
 79 80  1  0
 79 89  1  0
 80 83  1  0
 81 85  1  0
 81 80  1  0
 82 81  2  0
 85 84  1  0
 87 85  1  0
 87 88  1  0
 87 86  1  0
 89 92  1  1
 89 90  1  0
 91 89  1  0
 93  5  1  0
 94 93  1  0
 95 93  1  0
M  ISO  4   8 100  16 100  48 101  52 101
M  END
>  <TORSDO>  (66) 
F 18

>  <SCORE>  (66) 
-14.112

>  <name>  (66) 
66

>  <ligand_id>  (66) 
66

>  <original_smiles>  (66) 
[H]C(Oc1c([H])c([H])c2c(c1[H])C([H])([H])N(C(=O)C([H])(N([H])C(=O)C([H])(N([H])C([H])([H])[H])C([H])([H])[H])C(C([H])([H])[H])(C([H])([H])[H])C([H])([H])[H])C([H])(C(=O)N([H])C1([H])c3c([H])c([H])c([H])c([H])c3C([H])([H])C([H])([H])C1([H])[H])C2([H])[H])=C1C(=O)N(c2c([H])c(N([H])[H])c(C([H])([H])[H])c(N([H])C(=O)N3C([H])([H])C([H])([H])C([H])([H])C([H])(n4nc(-c5c([H])c([H])c(Oc6c([H])c([H])c(F)c([H])c6F)c([H])c5[H])c(C(=O)N([H])[H])c4N([H])[H])C3([H])[H])c2[H])C1([H])[H]

>  <smiles>  (66) 
[H]C(Oc1c([H])c([H])c2c(c1[H])C([H])([H])N(C(=O)C([H])(N([H])C(=O)C([H])(N([H])C([H])([H])[H])C([H])([H])[H])C(C([H])([H])[H])(C([H])([H])[H])C([H])([H])[H])C([H])(C(=O)N([H])C1([H])c3c([H])c([H])c([H])c([H])c3C([H])([H])C([H])([H])C1([H])[H])C2([H])[H])=C1C(=O)N(c2c([H])c(N([H])[H])c(C([H])([H])[H])c(N([H])C(=O)N3C([H])([H])C([H])([H])C([H])([H])C([H])(n4nc(-c5c([H])c([H])c(Oc6c([H])c([H])c(F)c([H])c6F)c([H])c5[H])c(C(=O)N([H])[H])c4N([H])[H])C3([H])[H])c2[H])C1([H])[H]

$$$$
67:0:0
     RDKit          3D

 98107  0  0  1  0  0  0  0  0999 V2000
  -29.3170  -18.7060   21.0650 C   0  0  0  0  0  3  0  0  0  0  0  0
  -29.3120  -20.0970   21.3230 C   0  0  0  0  0  3  0  0  0  0  0  0
  -31.1650  -19.0370   19.5250 C   0  0  0  0  0  3  0  0  0  0  0  0
  -30.2280  -18.1710   20.1300 C   0  0  0  0  0  0  0  0  0  0  0  0
  -30.1920  -20.9850   20.6420 C   0  0  0  0  0  0  0  0  0  0  0  0
  -31.1420  -20.4190   19.7570 C   0  0  0  0  0  0  0  0  0  0  0  0
  -32.0120  -21.1830   19.0560 F   0  0  0  0  0  0  0  0  0  0  0  0
  -30.7680  -14.4810   20.3740 C   0  0  0  0  0  0  0  0  0  0  0  0
  -30.3790  -12.3210   19.3120 C   0  0  0  0  0  2  0  0  0  0  0  0
  -29.4590  -12.5430   18.0940 C   0  0  0  0  0  2  0  0  0  0  0  0
  -27.9830  -12.4340   18.5200 C   0  0  0  0  0  2  0  0  0  0  0  0
  -27.6490  -13.2890   19.7750 C   0  0  0  0  0  3  0  0  0  0  0  0
  -28.7050  -13.1100   20.8920 C   0  0  0  0  0  2  0  0  0  0  0  0
  -30.0340  -13.3410   20.3160 N   0  0  0  0  0  0  0  0  0  0  0  0
  -31.9310  -14.5560   19.9650 O   0  0  0  0  0  0  0  0  0  0  0  0
  -30.2400  -16.7620   19.7070 C   0  0  0  0  0  0  0  0  0  0  0  0
  -30.0700  -15.7190   20.5570 N   0  0  0  0  0  0  0  0  0  0  0  0
  -30.4490  -16.5620   18.3930 N   0  0  0  0  0  4  0  0  0  0  0  0
  -29.2760  -15.8090   21.1670 H   0  0  0  0  0  0  0  0  0  0  0  0
  -30.4700  -17.3570   17.7720 H   0  0  0  0  0  0  0  0  0  0  0  0
  -30.6460  -15.6530   18.0090 H   0  0  0  0  0  0  0  0  0  0  0  0
  -25.2550  -13.8960   20.4930 C   0  0  0  0  0  0  0  0  0  0  0  0
  -24.1860  -13.1250   20.8630 C   0  0  0  0  0  0  0  0  0  0  0  0
  -24.6420  -11.7720   20.8250 C   0  0  0  0  0  0  0  0  0  0  0  0
  -26.2970  -13.0140   20.2560 N   0  0  0  0  0  0  0  0  0  0  0  0
  -25.9320  -11.7310   20.5150 N   0  0  0  0  0  0  0  0  0  0  0  0
  -23.9110  -10.5110   21.0090 C   0  0  0  0  0  0  0  0  0  0  0  0
  -24.3360   -9.5410   21.9430 C   0  0  0  0  0  3  0  0  0  0  0  0
  -23.6070   -8.3460   22.1160 C   0  0  0  0  0  3  0  0  0  0  0  0
  -22.4370   -8.1110   21.3550 C   0  0  0  0  0  0  0  0  0  0  0  0
  -22.0320   -9.0700   20.4100 C   0  0  0  0  0  3  0  0  0  0  0  0
  -22.7630  -10.2570   20.2350 C   0  0  0  0  0  3  0  0  0  0  0  0
  -21.6800   -6.9680   21.4370 O   0  0  0  0  0  0  0  0  0  0  0  0
  -21.6090   -6.2330   22.5930 C   0  0  0  0  0  0  0  0  0  0  0  0
  -21.1420   -6.7900   23.8030 C   0  0  0  0  0  3  0  0  0  0  0  0
  -21.0210   -5.9800   24.9500 C   0  0  0  0  0  3  0  0  0  0  0  0
  -21.3550   -4.6140   24.8870 C   0  0  0  0  0  0  0  0  0  0  0  0
  -21.8160   -4.0570   23.6810 C   0  0  0  0  0  3  0  0  0  0  0  0
  -21.9390   -4.8630   22.5370 C   0  0  0  0  0  0  0  0  0  0  0  0
  -22.3620   -4.3160   21.3720 F   0  0  0  0  0  0  0  0  0  0  0  0
  -21.2320   -3.8340   25.9870 F   0  0  0  0  0  0  0  0  0  0  0  0
  -22.7900  -13.6060   21.1380 C   0  0  0  0  0  0  0  0  0  0  0  0
  -22.0580  -12.9060   21.9970 N   0  0  0  0  0  0  0  0  0  0  0  0
  -22.3570  -14.6380   20.6250 O   0  0  0  0  0  0  0  0  0  0  0  0
  -22.4200  -12.0730   22.4340 H   0  0  0  0  0  0  0  0  0  0  0  0
  -21.1220  -13.2120   22.2230 H   0  0  0  0  0  0  0  0  0  0  0  0
  -25.4230  -15.2660   20.3170 N   0  0  0  0  0  0  0  0  0  0  0  0
  -24.6520  -15.9170   20.4150 H   0  0  0  0  0  0  0  0  0  0  0  0
  -26.2530  -15.6950   19.9290 H   0  0  0  0  0  0  0  0  0  0  0  0
  -29.1760  -24.4790   20.5980 C   0  0  0  0  0  0  0  0  0  0  0  0
  -30.5990  -24.6990   20.6220 C   0  0  0  0  0  0  0  0  0  0  0  0
  -28.8950  -23.0670   20.7290 C   0  0  0  0  0  0  0  0  0  0  0  0
  -28.1970  -25.3870   20.4240 C   0  0  0  0  0  3  0  0  0  0  0  0
  -31.2380  -23.3340   20.7820 C   0  0  0  0  0  2  0  0  0  0  0  0
  -30.0790  -22.4120   20.7900 N   0  0  0  0  0  0  0  0  0  0  0  0
  -31.2230  -25.7610   20.5320 O   0  0  0  0  0  0  0  0  0  0  0  0
  -27.7740  -22.5430   20.7480 O   0  0  0  0  0  0  0  0  0  0  0  0
  -28.3620  -26.7320   20.1680 O   0  0  0  0  0  0  0  0  0  0  0  0
  -24.5440  -31.8770   23.2350 C   0  0  0  0  0  0  0  0  0  0  0  0
  -27.2120  -27.4920   20.1140 C   0  0  0  0  0  0  0  0  0  0  0  0
  -23.3520  -30.4970   21.5650 C   0  0  0  0  0  3  0  0  0  0  0  0
  -24.8180  -28.9940   20.1210 C   0  0  0  0  0  0  0  0  0  0  0  0
  -25.8780  -30.8650   21.3930 C   0  0  0  0  0  2  0  0  0  0  0  0
  -25.9690  -29.5060   20.7350 C   0  0  0  0  0  0  0  0  0  0  0  0
  -27.1690  -28.7580   20.7390 C   0  0  0  0  0  3  0  0  0  0  0  0
  -26.0530  -27.0180   19.4540 C   0  0  0  0  0  3  0  0  0  0  0  0
  -24.8540  -27.7480   19.4780 C   0  0  0  0  0  3  0  0  0  0  0  0
  -23.5710  -29.8450   20.1750 C   0  0  0  0  0  2  0  0  0  0  0  0
  -24.6090  -31.0930   22.1230 N   0  0  0  0  0  0  0  0  0  0  0  0
  -23.4580  -32.1390   23.7700 O   0  0  0  0  0  0  0  0  0  0  0  0
  -22.6990  -29.4560   22.5040 C   0  0  0  0  0  0  0  0  0  0  0  0
  -21.3770  -29.2730   22.3640 N   0  0  0  0  0  0  0  0  0  0  0  0
  -23.3800  -28.8190   23.3130 O   0  0  0  0  0  0  0  0  0  0  0  0
  -20.8900  -29.8390   21.6850 H   0  0  0  0  0  0  0  0  0  0  0  0
  -17.9930  -28.1030   22.8550 C   0  0  0  0  0  0  0  0  0  0  0  0
  -20.5550  -28.3240   23.1160 C   0  0  0  0  0  3  0  0  0  0  0  0
  -20.6370  -26.9080   22.5010 C   0  0  0  0  0  2  0  0  0  0  0  0
  -19.5250  -26.6250   21.4860 C   0  0  0  0  0  2  0  0  0  0  0  0
  -18.1490  -26.7690   22.1430 C   0  0  0  0  0  2  0  0  0  0  0  0
  -19.1240  -28.8400   23.2980 C   0  0  0  0  0  0  0  0  0  0  0  0
  -18.9240  -30.0900   23.9220 C   0  0  0  0  0  3  0  0  0  0  0  0
  -17.6270  -30.6030   24.1090 C   0  0  0  0  0  3  0  0  0  0  0  0
  -16.5110  -29.8620   23.6830 C   0  0  0  0  0  3  0  0  0  0  0  0
  -16.6950  -28.6140   23.0630 C   0  0  0  0  0  3  0  0  0  0  0  0
  -25.8250  -32.5010   23.8710 C   0  0  0  0  0  3  0  0  0  0  0  0
  -25.5180  -33.9000   24.1970 N   0  0  0  0  0  0  0  0  0  0  0  0
  -25.8560  -34.9500   23.4360 C   0  0  0  0  0  0  0  0  0  0  0  0
  -26.5310  -34.8420   22.4080 O   0  0  0  0  0  0  0  0  0  0  0  0
  -24.9200  -34.0580   24.9940 H   0  0  0  0  0  0  0  0  0  0  0  0
  -24.1370  -36.7460   23.0610 C   0  0  0  0  0  1  0  0  0  0  0  0
  -25.3670  -36.3390   23.8870 C   0  0  0  0  0  3  0  0  0  0  0  0
  -27.4910  -37.2210   24.7470 C   0  0  0  0  0  1  0  0  0  0  0  0
  -26.4040  -37.3880   23.7860 N   0  0  0  0  0  0  0  0  0  0  0  0
  -25.9990  -38.3100   23.9230 H   0  0  0  0  0  0  0  0  0  0  0  0
  -26.3260  -31.7250   25.1490 C   0  0  1  0  0  0  0  0  0  0  0  0
  -25.2210  -31.4830   26.2030 C   0  0  0  0  0  1  0  0  0  0  0  0
  -26.9130  -30.3490   24.7570 C   0  0  0  0  0  1  0  0  0  0  0  0
  -27.4700  -32.5150   25.8280 C   0  0  0  0  0  1  0  0  0  0  0  0
  1  2  1  0
  3  6  2  0
  3  4  1  0
  4  1  2  0
  5 55  1  0
  5  2  2  0
  6  5  1  0
  7  6  1  0
  8 17  1  0
  9 14  1  0
 10 11  1  0
 10  9  1  0
 12 11  1  0
 12 25  1  0
 12 13  1  0
 14  8  1  0
 14 13  1  0
 15  8  2  0
 16  4  1  0
 16 17  1  0
 17 19  1  0
 18 16  2  0
 20 18  1  0
 21 18  1  0
 22 23  2  0
 23 42  1  0
 24 23  1  0
 24 27  1  0
 25 22  1  0
 25 26  1  0
 26 24  2  0
 27 28  1  0
 28 29  2  0
 30 33  1  0
 30 29  1  0
 31 30  2  0
 32 31  1  0
 32 27  2  0
 33 34  1  0
 34 35  1  0
 35 36  2  0
 37 36  1  0
 37 41  1  0
 38 37  2  0
 39 34  2  0
 39 38  1  0
 40 39  1  0
 42 43  1  0
 43 46  1  0
 43 45  1  0
 44 42  2  0
 47 48  1  0
 47 22  1  0
 49 47  1  0
 50 51  1  0
 50 52  1  0
 51 54  1  0
 52 57  2  0
 52 55  1  0
 53 50  2  0
 54 55  1  0
 56 51  2  0
 58 53  1  0
 59 70  2  0
 60 58  1  0
 60 65  1  0
 61 69  1  0
 61 71  1  0
 62 68  1  0
 62 64  1  0
 63 69  1  0
 64 65  2  0
 64 63  1  0
 66 67  1  0
 66 60  2  0
 67 62  2  0
 68 61  1  0
 69 59  1  0
 71 73  2  0
 72 71  1  0
 74 72  1  0
 75 84  2  0
 75 80  1  0
 76 72  1  0
 76 80  1  0
 77 76  1  0
 78 79  1  0
 78 77  1  0
 79 75  1  0
 80 81  2  0
 81 82  1  0
 83 82  2  0
 84 83  1  0
 85 59  1  0
 85 86  1  0
 85 95  1  0
 86 89  1  0
 87 91  1  0
 87 86  1  0
 88 87  2  0
 91 90  1  0
 93 91  1  0
 93 94  1  0
 93 92  1  0
 95 98  1  1
 95 96  1  0
 97 95  1  0
M  ISO  4   8 100  17 100  53 101  58 101
M  END
>  <TORSDO>  (67) 
F 17

>  <SCORE>  (67) 
-15.175

>  <name>  (67) 
67

>  <ligand_id>  (67) 
67

>  <original_smiles>  (67) 
[H]C(Oc1c([H])c([H])c2c(c1[H])C([H])([H])N(C(=O)C([H])(N([H])C(=O)C([H])(N([H])C([H])([H])[H])C([H])([H])[H])C(C([H])([H])[H])(C([H])([H])[H])C([H])([H])[H])C([H])(C(=O)N([H])C1([H])c3c([H])c([H])c([H])c([H])c3C([H])([H])C([H])([H])C1([H])[H])C2([H])[H])=C1C(=O)N(c2c([H])c([H])c(C(N([H])C(=O)N3C([H])([H])C([H])([H])C([H])([H])C([H])(n4nc(-c5c([H])c([H])c(Oc6c([H])c([H])c(F)c([H])c6F)c([H])c5[H])c(C(=O)N([H])[H])c4N([H])[H])C3([H])[H])=[N+]([H])[H])c([H])c2F)C([H])([H])C1=O

>  <smiles>  (67) 
[H]C(Oc1c([H])c([H])c2c(c1[H])C([H])([H])N(C(=O)C([H])(N([H])C(=O)C([H])(N([H])C([H])([H])[H])C([H])([H])[H])C(C([H])([H])[H])(C([H])([H])[H])C([H])([H])[H])C([H])(C(=O)N([H])C1([H])c3c([H])c([H])c([H])c([H])c3C([H])([H])C([H])([H])C1([H])[H])C2([H])[H])=C1C(=O)N(c2c([H])c([H])c(C(N([H])C(=O)N3C([H])([H])C([H])([H])C([H])([H])C([H])(n4nc(-c5c([H])c([H])c(Oc6c([H])c([H])c(F)c([H])c6F)c([H])c5[H])c(C(=O)N([H])[H])c4N([H])[H])C3([H])[H])=[N+]([H])[H])c([H])c2F)C([H])([H])C1=O

$$$$
68:0:0
     RDKit          3D

 97106  0  0  1  0  0  0  0  0999 V2000
  -28.7620  -23.3400   20.4930 C   0  0  0  0  0  0  0  0  0  0  0  0
  -29.7750  -23.3610   21.5490 C   0  0  0  0  0  0  0  0  0  0  0  0
  -28.5160  -21.8580   19.9610 C   0  0  0  0  0  0  0  0  0  0  0  0
  -29.8070  -24.3460   22.4660 C   0  0  0  0  0  2  0  0  0  0  0  0
  -28.1030  -24.5620   20.0350 C   0  0  0  0  0  3  0  0  0  0  0  0
  -30.7740  -22.2080   21.6450 C   0  0  0  0  0  2  0  0  0  0  0  0
  -30.0940  -20.8150   21.5580 C   0  0  0  0  0  2  0  0  0  0  0  0
  -29.2900  -20.6560   20.3420 N   0  0  0  0  0  0  0  0  0  0  0  0
  -27.5920  -21.6920   19.1580 O   0  0  0  0  0  0  0  0  0  0  0  0
  -30.1390  -17.8210   17.0340 C   0  0  0  0  0  3  0  0  0  0  0  0
  -30.0760  -17.1810   18.2690 C   0  0  0  0  0  3  0  0  0  0  0  0
  -29.7650  -19.9040   18.1550 C   0  0  0  0  0  3  0  0  0  0  0  0
  -29.5900  -19.3580   19.4660 C   0  0  0  0  0  0  0  0  0  0  0  0
  -30.0190  -19.1960   16.9790 C   0  0  0  0  0  0  0  0  0  0  0  0
  -29.8720  -17.8010   19.5410 C   0  0  0  0  0  0  0  0  0  0  0  0
  -30.6300  -15.2770   20.4440 C   0  0  0  0  0  0  0  0  0  0  0  0
  -30.5810  -12.8540   19.6020 C   0  0  0  0  0  2  0  0  0  0  0  0
  -29.7130  -12.7070   18.3280 C   0  0  0  0  0  2  0  0  0  0  0  0
  -28.2410  -12.4660   18.7060 C   0  0  0  0  0  2  0  0  0  0  0  0
  -27.7640  -13.4200   19.8310 C   0  0  0  0  0  3  0  0  0  0  0  0
  -28.7680  -13.5330   20.9990 C   0  0  0  0  0  2  0  0  0  0  0  0
  -30.0380  -13.9930   20.4230 N   0  0  0  0  0  0  0  0  0  0  0  0
  -31.8460  -15.2650   20.2080 O   0  0  0  0  0  0  0  0  0  0  0  0
  -29.9140  -16.5630   20.5240 N   0  0  0  0  0  0  0  0  0  0  0  0
  -29.0800  -16.4960   21.0910 H   0  0  0  0  0  0  0  0  0  0  0  0
  -25.3550  -13.9710   20.4650 C   0  0  0  0  0  0  0  0  0  0  0  0
  -24.2870  -13.1900   20.8100 C   0  0  0  0  0  0  0  0  0  0  0  0
  -24.7710  -11.8450   20.8350 C   0  0  0  0  0  0  0  0  0  0  0  0
  -26.4160  -13.1030   20.2880 N   0  0  0  0  0  0  0  0  0  0  0  0
  -26.0760  -11.8200   20.5790 N   0  0  0  0  0  0  0  0  0  0  0  0
  -24.0510  -10.5790   21.0250 C   0  0  0  0  0  0  0  0  0  0  0  0
  -24.4620   -9.6310   21.9880 C   0  0  0  0  0  3  0  0  0  0  0  0
  -23.7390   -8.4320   22.1670 C   0  0  0  0  0  3  0  0  0  0  0  0
  -22.5910   -8.1720   21.3830 C   0  0  0  0  0  0  0  0  0  0  0  0
  -22.1980   -9.1080   20.4100 C   0  0  0  0  0  3  0  0  0  0  0  0
  -22.9220  -10.2990   20.2290 C   0  0  0  0  0  3  0  0  0  0  0  0
  -21.8400   -7.0240   21.4700 O   0  0  0  0  0  0  0  0  0  0  0  0
  -21.7700   -6.2950   22.6300 C   0  0  0  0  0  0  0  0  0  0  0  0
  -21.3190   -6.8650   23.8420 C   0  0  0  0  0  3  0  0  0  0  0  0
  -21.1960   -6.0630   24.9940 C   0  0  0  0  0  3  0  0  0  0  0  0
  -21.5140   -4.6940   24.9370 C   0  0  0  0  0  0  0  0  0  0  0  0
  -21.9580   -4.1230   23.7310 C   0  0  0  0  0  3  0  0  0  0  0  0
  -22.0820   -4.9220   22.5810 C   0  0  0  0  0  0  0  0  0  0  0  0
  -22.4890   -4.3620   21.4150 F   0  0  0  0  0  0  0  0  0  0  0  0
  -21.3890   -3.9210   26.0410 F   0  0  0  0  0  0  0  0  0  0  0  0
  -22.8740  -13.6560   21.0050 C   0  0  0  0  0  0  0  0  0  0  0  0
  -22.1190  -12.9780   21.8620 N   0  0  0  0  0  0  0  0  0  0  0  0
  -22.4480  -14.6590   20.4340 O   0  0  0  0  0  0  0  0  0  0  0  0
  -22.4760  -12.1690   22.3470 H   0  0  0  0  0  0  0  0  0  0  0  0
  -21.1690  -13.2740   22.0360 H   0  0  0  0  0  0  0  0  0  0  0  0
  -25.5080  -15.3390   20.2590 N   0  0  0  0  0  0  0  0  0  0  0  0
  -24.7320  -15.9870   20.3300 H   0  0  0  0  0  0  0  0  0  0  0  0
  -26.3620  -15.7780   19.9370 H   0  0  0  0  0  0  0  0  0  0  0  0
  -30.1410  -19.8630   15.7620 N   0  0  0  0  0  0  0  0  0  0  0  0
  -30.5380  -19.3710   14.9680 H   0  0  0  0  0  0  0  0  0  0  0  0
  -30.3550  -20.8560   15.7590 H   0  0  0  0  0  0  0  0  0  0  0  0
  -28.2400  -26.0450   20.3130 O   0  0  0  0  0  0  0  0  0  0  0  0
  -24.5600  -31.9290   23.1300 C   0  0  0  0  0  0  0  0  0  0  0  0
  -27.2040  -27.0920   20.2000 C   0  0  0  0  0  0  0  0  0  0  0  0
  -23.3990  -30.4980   21.4960 C   0  0  0  0  0  3  0  0  0  0  0  0
  -24.8810  -28.9060   20.1080 C   0  0  0  0  0  0  0  0  0  0  0  0
  -25.9610  -30.7510   21.3740 C   0  0  0  0  0  2  0  0  0  0  0  0
  -26.0510  -29.3400   20.7380 C   0  0  0  0  0  0  0  0  0  0  0  0
  -27.2070  -28.4490   20.7690 C   0  0  0  0  0  3  0  0  0  0  0  0
  -26.0050  -26.7980   19.5130 C   0  0  0  0  0  3  0  0  0  0  0  0
  -24.8770  -27.6530   19.4760 C   0  0  0  0  0  3  0  0  0  0  0  0
  -23.6490  -29.8050   20.1290 C   0  0  0  0  0  2  0  0  0  0  0  0
  -24.6600  -31.0860   22.0530 N   0  0  0  0  0  0  0  0  0  0  0  0
  -23.4640  -32.2130   23.6370 O   0  0  0  0  0  0  0  0  0  0  0  0
  -22.7090  -29.5040   22.4650 C   0  0  0  0  0  0  0  0  0  0  0  0
  -21.3770  -29.3520   22.3550 N   0  0  0  0  0  0  0  0  0  0  0  0
  -23.3790  -28.8690   23.2860 O   0  0  0  0  0  0  0  0  0  0  0  0
  -20.8920  -29.9130   21.6690 H   0  0  0  0  0  0  0  0  0  0  0  0
  -17.9830  -28.2050   22.9190 C   0  0  0  0  0  0  0  0  0  0  0  0
  -20.5520  -28.4230   23.1340 C   0  0  0  0  0  3  0  0  0  0  0  0
  -20.6160  -26.9940   22.5450 C   0  0  0  0  0  2  0  0  0  0  0  0
  -19.4870  -26.7000   21.5510 C   0  0  0  0  0  2  0  0  0  0  0  0
  -18.1220  -26.8610   22.2250 C   0  0  0  0  0  2  0  0  0  0  0  0
  -19.1230  -28.9450   23.3320 C   0  0  0  0  0  0  0  0  0  0  0  0
  -18.9350  -30.2030   23.9460 C   0  0  0  0  0  3  0  0  0  0  0  0
  -17.6420  -30.7200   24.1480 C   0  0  0  0  0  3  0  0  0  0  0  0
  -16.5170  -29.9770   23.7490 C   0  0  0  0  0  3  0  0  0  0  0  0
  -16.6890  -28.7210   23.1400 C   0  0  0  0  0  3  0  0  0  0  0  0
  -25.8210  -32.5910   23.7660 C   0  0  0  0  0  3  0  0  0  0  0  0
  -25.4800  -33.9870   24.0920 N   0  0  0  0  0  0  0  0  0  0  0  0
  -25.8250  -35.0530   23.3570 C   0  0  0  0  0  0  0  0  0  0  0  0
  -26.5250  -34.9650   22.3450 O   0  0  0  0  0  0  0  0  0  0  0  0
  -24.8600  -34.1270   24.8750 H   0  0  0  0  0  0  0  0  0  0  0  0
  -24.1040  -36.8480   22.9590 C   0  0  0  0  0  1  0  0  0  0  0  0
  -25.3130  -36.4340   23.8140 C   0  0  0  0  0  3  0  0  0  0  0  0
  -27.4090  -37.3170   24.7430 C   0  0  0  0  0  1  0  0  0  0  0  0
  -26.3450  -37.4940   23.7580 N   0  0  0  0  0  0  0  0  0  0  0  0
  -25.9290  -38.4100   23.9010 H   0  0  0  0  0  0  0  0  0  0  0  0
  -26.3300  -31.8380   25.0570 C   0  0  1  0  0  0  0  0  0  0  0  0
  -25.2270  -31.5960   26.1140 C   0  0  0  0  0  1  0  0  0  0  0  0
  -26.9380  -30.4650   24.6930 C   0  0  0  0  0  1  0  0  0  0  0  0
  -27.4610  -32.6540   25.7250 C   0  0  0  0  0  1  0  0  0  0  0  0
  1  2  1  0
  2  6  1  0
  2  4  2  0
  3  8  1  0
  3  1  1  0
  5 57  1  0
  5  1  2  0
  7  6  1  0
  8  7  1  0
  9  3  2  0
 10 11  1  0
 11 15  2  0
 12 13  2  0
 13 15  1  0
 13  8  1  0
 14 10  2  0
 14 12  1  0
 15 24  1  0
 16 24  1  0
 17 22  1  0
 18 19  1  0
 18 17  1  0
 20 19  1  0
 20 29  1  0
 20 21  1  0
 22 16  1  0
 22 21  1  0
 23 16  2  0
 24 25  1  0
 26 27  2  0
 27 28  1  0
 27 46  1  0
 28 31  1  0
 29 26  1  0
 29 30  1  0
 30 28  2  0
 31 32  1  0
 32 33  2  0
 34 37  1  0
 34 33  1  0
 35 34  2  0
 36 35  1  0
 36 31  2  0
 37 38  1  0
 38 39  1  0
 39 40  2  0
 41 40  1  0
 41 45  1  0
 42 41  2  0
 43 38  2  0
 43 42  1  0
 44 43  1  0
 46 47  1  0
 47 50  1  0
 47 49  1  0
 48 46  2  0
 51 52  1  0
 51 26  1  0
 53 51  1  0
 54 14  1  0
 55 54  1  0
 56 54  1  0
 58 69  2  0
 59 57  1  0
 59 64  1  0
 60 68  1  0
 60 70  1  0
 61 67  1  0
 61 63  1  0
 62 68  1  0
 63 64  2  0
 63 62  1  0
 65 59  2  0
 66 65  1  0
 66 61  2  0
 67 60  1  0
 68 58  1  0
 70 72  2  0
 71 70  1  0
 73 71  1  0
 74 83  2  0
 74 79  1  0
 75 71  1  0
 75 79  1  0
 76 75  1  0
 77 78  1  0
 77 76  1  0
 78 74  1  0
 79 80  2  0
 80 81  1  0
 82 81  2  0
 83 82  1  0
 84 58  1  0
 84 85  1  0
 84 94  1  0
 85 88  1  0
 86 90  1  0
 86 85  1  0
 87 86  2  0
 90 89  1  0
 92 90  1  0
 92 93  1  0
 92 91  1  0
 94 97  1  1
 94 95  1  0
 96 94  1  0
M  ISO  4   5 101  16 100  24 100  57 101
M  END
>  <TORSDO>  (68) 
F 18

>  <SCORE>  (68) 
-14.684

>  <name>  (68) 
68

>  <ligand_id>  (68) 
68

>  <original_smiles>  (68) 
[H]C([H])=C1C(=C([H])Oc2c([H])c([H])c3c(c2[H])C([H])([H])N(C(=O)C([H])(N([H])C(=O)C([H])(N([H])C([H])([H])[H])C([H])([H])[H])C(C([H])([H])[H])(C([H])([H])[H])C([H])([H])[H])C([H])(C(=O)N([H])C2([H])c4c([H])c([H])c([H])c([H])c4C([H])([H])C([H])([H])C2([H])[H])C3([H])[H])C(=O)N(c2c([H])c(N([H])[H])c([H])c([H])c2N([H])C(=O)N2C([H])([H])C([H])([H])C([H])([H])C([H])(n3nc(-c4c([H])c([H])c(Oc5c([H])c([H])c(F)c([H])c5F)c([H])c4[H])c(C(=O)N([H])[H])c3N([H])[H])C2([H])[H])C([H])([H])C1([H])[H]

>  <smiles>  (68) 
[H]C([H])=C1C(=C([H])Oc2c([H])c([H])c3c(c2[H])C([H])([H])N(C(=O)C([H])(N([H])C(=O)C([H])(N([H])C([H])([H])[H])C([H])([H])[H])C(C([H])([H])[H])(C([H])([H])[H])C([H])([H])[H])C([H])(C(=O)N([H])C2([H])c4c([H])c([H])c([H])c([H])c4C([H])([H])C([H])([H])C2([H])[H])C3([H])[H])C(=O)N(c2c([H])c(N([H])[H])c([H])c([H])c2N([H])C(=O)N2C([H])([H])C([H])([H])C([H])([H])C([H])(n3nc(-c4c([H])c([H])c(Oc5c([H])c([H])c(F)c([H])c5F)c([H])c4[H])c(C(=O)N([H])[H])c3N([H])[H])C2([H])[H])C([H])([H])C1([H])[H]

$$$$
69:0:0
     RDKit          3D

 97106  0  0  1  0  0  0  0  0999 V2000
  -28.8890  -23.9920   20.2230 C   0  0  0  0  0  0  0  0  0  0  0  0
  -30.0340  -23.9080   19.3470 C   0  0  0  0  0  0  0  0  0  0  0  0
  -28.6170  -22.6100   20.6890 C   0  0  0  0  0  0  0  0  0  0  0  0
  -28.1800  -25.1320   20.5650 C   0  0  0  0  0  3  0  0  0  0  0  0
  -30.4940  -22.4510   19.3110 C   0  0  0  0  0  2  0  0  0  0  0  0
  -29.5100  -21.7090   20.1300 N   0  0  0  0  0  0  0  0  0  0  0  0
  -30.5860  -24.8210   18.7220 O   0  0  0  0  0  0  0  0  0  0  0  0
  -27.7180  -22.3000   21.4800 O   0  0  0  0  0  0  0  0  0  0  0  0
  -28.6210  -17.9080   20.1650 C   0  0  0  0  0  3  0  0  0  0  0  0
  -30.9440  -18.1210   20.6800 C   0  0  0  0  0  3  0  0  0  0  0  0
  -29.5870  -20.2190   20.2760 C   0  0  0  0  0  0  0  0  0  0  0  0
  -29.8430  -17.2480   20.4760 C   0  0  0  0  0  0  0  0  0  0  0  0
  -28.4870  -19.3280   20.0490 C   0  0  0  0  0  0  0  0  0  0  0  0
  -30.8180  -19.5490   20.5910 C   0  0  0  0  0  0  0  0  0  0  0  0
  -31.9310  -20.2790   20.8400 F   0  0  0  0  0  0  0  0  0  0  0  0
  -30.7000  -14.7570   20.2510 C   0  0  0  0  0  0  0  0  0  0  0  0
  -30.5240  -12.5230   19.1570 C   0  0  0  0  0  2  0  0  0  0  0  0
  -29.5370  -12.6510   17.9740 C   0  0  0  0  0  2  0  0  0  0  0  0
  -28.0780  -12.4650   18.4410 C   0  0  0  0  0  2  0  0  0  0  0  0
  -27.7460  -13.2990   19.7080 C   0  0  0  0  0  3  0  0  0  0  0  0
  -28.8400  -13.1270   20.7850 C   0  0  0  0  0  2  0  0  0  0  0  0
  -30.1250  -13.5130   20.1790 N   0  0  0  0  0  0  0  0  0  0  0  0
  -31.8540  -14.9530   19.8570 O   0  0  0  0  0  0  0  0  0  0  0  0
  -29.8430  -15.7750   20.6060 N   0  0  0  0  0  0  0  0  0  0  0  0
  -28.9500  -15.3950   20.8800 H   0  0  0  0  0  0  0  0  0  0  0  0
  -25.3770  -13.8700   20.5210 C   0  0  0  0  0  0  0  0  0  0  0  0
  -24.3240  -13.0840   20.9030 C   0  0  0  0  0  0  0  0  0  0  0  0
  -24.7880  -11.7350   20.8160 C   0  0  0  0  0  0  0  0  0  0  0  0
  -26.4140  -12.9990   20.2250 N   0  0  0  0  0  0  0  0  0  0  0  0
  -26.0680  -11.7090   20.4650 N   0  0  0  0  0  0  0  0  0  0  0  0
  -24.0700  -10.4670   20.9900 C   0  0  0  0  0  0  0  0  0  0  0  0
  -24.4890   -9.5060   21.9360 C   0  0  0  0  0  3  0  0  0  0  0  0
  -23.7710   -8.3010   22.0980 C   0  0  0  0  0  3  0  0  0  0  0  0
  -22.6200   -8.0500   21.3120 C   0  0  0  0  0  0  0  0  0  0  0  0
  -22.2210   -9.0010   20.3570 C   0  0  0  0  0  3  0  0  0  0  0  0
  -22.9390  -10.1970   20.1940 C   0  0  0  0  0  3  0  0  0  0  0  0
  -21.8740   -6.8990   21.3840 O   0  0  0  0  0  0  0  0  0  0  0  0
  -21.7350   -6.2030   22.5580 C   0  0  0  0  0  0  0  0  0  0  0  0
  -21.1180   -6.7730   23.6930 C   0  0  0  0  0  3  0  0  0  0  0  0
  -20.9320   -5.9990   24.8560 C   0  0  0  0  0  3  0  0  0  0  0  0
  -21.3510   -4.6560   24.8840 C   0  0  0  0  0  0  0  0  0  0  0  0
  -21.9590   -4.0850   23.7520 C   0  0  0  0  0  3  0  0  0  0  0  0
  -22.1480   -4.8560   22.5920 C   0  0  0  0  0  0  0  0  0  0  0  0
  -22.7160   -4.2960   21.4970 F   0  0  0  0  0  0  0  0  0  0  0  0
  -21.1670   -3.9090   25.9980 F   0  0  0  0  0  0  0  0  0  0  0  0
  -22.9360  -13.5510   21.2330 C   0  0  0  0  0  0  0  0  0  0  0  0
  -22.2370  -12.8330   22.1040 N   0  0  0  0  0  0  0  0  0  0  0  0
  -22.4790  -14.5890   20.7520 O   0  0  0  0  0  0  0  0  0  0  0  0
  -22.6200  -11.9960   22.5170 H   0  0  0  0  0  0  0  0  0  0  0  0
  -21.3080  -13.1290   22.3660 H   0  0  0  0  0  0  0  0  0  0  0  0
  -25.5310  -15.2450   20.3750 N   0  0  0  0  0  0  0  0  0  0  0  0
  -24.7510  -15.8810   20.5040 H   0  0  0  0  0  0  0  0  0  0  0  0
  -26.3260  -15.6810   19.9260 H   0  0  0  0  0  0  0  0  0  0  0  0
  -27.2360  -19.8120   19.6570 N   0  0  0  0  0  0  0  0  0  0  0  0
  -26.4480  -19.1750   19.7210 H   0  0  0  0  0  0  0  0  0  0  0  0
  -26.9950  -20.7360   20.0140 H   0  0  0  0  0  0  0  0  0  0  0  0
  -28.3880  -26.4840   20.1880 O   0  0  0  0  0  0  0  0  0  0  0  0
  -24.5460  -31.8580   23.1890 C   0  0  0  0  0  0  0  0  0  0  0  0
  -27.2790  -27.3500   20.1570 C   0  0  0  0  0  0  0  0  0  0  0  0
  -23.3970  -30.4670   21.4990 C   0  0  0  0  0  3  0  0  0  0  0  0
  -24.8990  -28.9410   20.0980 C   0  0  0  0  0  0  0  0  0  0  0  0
  -25.9380  -30.8060   21.3900 C   0  0  0  0  0  2  0  0  0  0  0  0
  -26.0480  -29.4340   20.7320 C   0  0  0  0  0  0  0  0  0  0  0  0
  -27.2430  -28.6500   20.7530 C   0  0  0  0  0  3  0  0  0  0  0  0
  -26.1110  -26.9110   19.4960 C   0  0  0  0  0  3  0  0  0  0  0  0
  -24.9340  -27.6850   19.4690 C   0  0  0  0  0  3  0  0  0  0  0  0
  -23.6550  -29.8060   20.1190 C   0  0  0  0  0  2  0  0  0  0  0  0
  -24.6440  -31.0610   22.0820 N   0  0  0  0  0  0  0  0  0  0  0  0
  -23.4450  -32.1210   23.6970 O   0  0  0  0  0  0  0  0  0  0  0  0
  -22.7140  -29.4380   22.4310 C   0  0  0  0  0  0  0  0  0  0  0  0
  -21.3900  -29.2670   22.2780 N   0  0  0  0  0  0  0  0  0  0  0  0
  -23.3760  -28.7950   23.2500 O   0  0  0  0  0  0  0  0  0  0  0  0
  -20.9160  -29.8380   21.5920 H   0  0  0  0  0  0  0  0  0  0  0  0
  -17.9900  -28.1240   22.7570 C   0  0  0  0  0  0  0  0  0  0  0  0
  -20.5550  -28.3190   23.0170 C   0  0  0  0  0  3  0  0  0  0  0  0
  -20.6210  -26.9090   22.3850 C   0  0  0  0  0  2  0  0  0  0  0  0
  -19.5050  -26.6480   21.3690 C   0  0  0  0  0  2  0  0  0  0  0  0
  -18.1320  -26.8000   22.0270 C   0  0  0  0  0  2  0  0  0  0  0  0
  -19.1280  -28.8450   23.2060 C   0  0  0  0  0  0  0  0  0  0  0  0
  -18.9400  -30.0890   23.8490 C   0  0  0  0  0  3  0  0  0  0  0  0
  -17.6480  -30.6100   24.0440 C   0  0  0  0  0  3  0  0  0  0  0  0
  -16.5240  -29.8860   23.6080 C   0  0  0  0  0  3  0  0  0  0  0  0
  -16.6960  -28.6440   22.9710 C   0  0  0  0  0  3  0  0  0  0  0  0
  -25.8070  -32.4900   23.8540 C   0  0  0  0  0  3  0  0  0  0  0  0
  -25.4830  -33.8860   24.1820 N   0  0  0  0  0  0  0  0  0  0  0  0
  -25.8120  -34.9420   23.4260 C   0  0  0  0  0  0  0  0  0  0  0  0
  -26.4900  -34.8430   22.4000 O   0  0  0  0  0  0  0  0  0  0  0  0
  -24.8810  -34.0370   24.9790 H   0  0  0  0  0  0  0  0  0  0  0  0
  -24.0780  -36.7250   23.0520 C   0  0  0  0  0  1  0  0  0  0  0  0
  -25.3110  -36.3260   23.8800 C   0  0  0  0  0  3  0  0  0  0  0  0
  -27.4180  -37.2320   24.7550 C   0  0  0  0  0  1  0  0  0  0  0  0
  -26.3390  -37.3860   23.7830 N   0  0  0  0  0  0  0  0  0  0  0  0
  -25.9230  -38.3050   23.9140 H   0  0  0  0  0  0  0  0  0  0  0  0
  -26.2850  -31.7140   25.1420 C   0  0  1  0  0  0  0  0  0  0  0  0
  -25.1580  -31.4590   26.1700 C   0  0  0  0  0  1  0  0  0  0  0  0
  -26.8920  -30.3440   24.7650 C   0  0  0  0  0  1  0  0  0  0  0  0
  -27.4050  -32.5130   25.8470 C   0  0  0  0  0  1  0  0  0  0  0  0
  1  4  2  0
  1  3  1  0
  2  1  1  0
  3  8  2  0
  5  2  1  0
  5  6  1  0
  6 11  1  0
  6  3  1  0
  7  2  2  0
  9 12  1  0
 11 14  2  0
 12 24  1  0
 12 10  2  0
 13  9  2  0
 13 11  1  0
 14 10  1  0
 14 15  1  0
 16 24  1  0
 17 22  1  0
 18 19  1  0
 18 17  1  0
 20 19  1  0
 20 29  1  0
 20 21  1  0
 22 16  1  0
 22 21  1  0
 23 16  2  0
 24 25  1  0
 26 27  2  0
 27 46  1  0
 28 27  1  0
 28 31  1  0
 29 30  1  0
 29 26  1  0
 30 28  2  0
 31 32  1  0
 32 33  2  0
 34 37  1  0
 34 33  1  0
 35 34  2  0
 36 35  1  0
 36 31  2  0
 37 38  1  0
 38 43  2  0
 38 39  1  0
 39 40  2  0
 40 41  1  0
 41 45  1  0
 42 41  2  0
 43 42  1  0
 44 43  1  0
 46 47  1  0
 47 50  1  0
 47 49  1  0
 48 46  2  0
 51 52  1  0
 51 26  1  0
 53 51  1  0
 54 55  1  0
 54 56  1  0
 54 13  1  0
 57  4  1  0
 58 69  2  0
 59 57  1  0
 59 64  1  0
 60 68  1  0
 60 70  1  0
 61 67  1  0
 61 63  1  0
 62 68  1  0
 63 64  2  0
 63 62  1  0
 65 59  2  0
 66 65  1  0
 66 61  2  0
 67 60  1  0
 68 58  1  0
 70 72  2  0
 71 70  1  0
 73 71  1  0
 74 83  2  0
 74 79  1  0
 75 71  1  0
 75 79  1  0
 76 75  1  0
 77 78  1  0
 77 76  1  0
 78 74  1  0
 79 80  2  0
 80 81  1  0
 82 81  2  0
 83 82  1  0
 84 58  1  0
 84 85  1  0
 84 94  1  0
 85 88  1  0
 86 90  1  0
 86 85  1  0
 87 86  2  0
 90 89  1  0
 92 90  1  0
 92 93  1  0
 92 91  1  0
 94 97  1  1
 94 95  1  0
 96 94  1  0
M  ISO  4   4 101  16 100  24 100  57 101
M  END
>  <TORSDO>  (69) 
F 18

>  <SCORE>  (69) 
-15.432

>  <name>  (69) 
69

>  <ligand_id>  (69) 
69

>  <original_smiles>  (69) 
[H]C(Oc1c([H])c([H])c2c(c1[H])C([H])([H])N(C(=O)C([H])(N([H])C(=O)C([H])(N([H])C([H])([H])[H])C([H])([H])[H])C(C([H])([H])[H])(C([H])([H])[H])C([H])([H])[H])C([H])(C(=O)N([H])C1([H])c3c([H])c([H])c([H])c([H])c3C([H])([H])C([H])([H])C1([H])[H])C2([H])[H])=C1C(=O)N(c2c(F)c([H])c(N([H])C(=O)N3C([H])([H])C([H])([H])C([H])([H])C([H])(n4nc(-c5c([H])c([H])c(Oc6c([H])c([H])c(F)c([H])c6F)c([H])c5[H])c(C(=O)N([H])[H])c4N([H])[H])C3([H])[H])c([H])c2N([H])[H])C([H])([H])C1=O

>  <smiles>  (69) 
[H]C(Oc1c([H])c([H])c2c(c1[H])C([H])([H])N(C(=O)C([H])(N([H])C(=O)C([H])(N([H])C([H])([H])[H])C([H])([H])[H])C(C([H])([H])[H])(C([H])([H])[H])C([H])([H])[H])C([H])(C(=O)N([H])C1([H])c3c([H])c([H])c([H])c([H])c3C([H])([H])C([H])([H])C1([H])[H])C2([H])[H])=C1C(=O)N(c2c(F)c([H])c(N([H])C(=O)N3C([H])([H])C([H])([H])C([H])([H])C([H])(n4nc(-c5c([H])c([H])c(Oc6c([H])c([H])c(F)c([H])c6F)c([H])c5[H])c(C(=O)N([H])[H])c4N([H])[H])C3([H])[H])c([H])c2N([H])[H])C([H])([H])C1=O

$$$$
70:0:0
     RDKit          3D

 97106  0  0  1  0  0  0  0  0999 V2000
  -28.9460  -23.8450   20.3270 C   0  0  0  0  0  0  0  0  0  0  0  0
  -30.3230  -23.8040   20.7770 C   0  0  0  0  0  0  0  0  0  0  0  0
  -28.5650  -22.4200   20.0920 C   0  0  0  0  0  0  0  0  0  0  0  0
  -28.1270  -24.9560   20.1240 C   0  0  0  0  0  3  0  0  0  0  0  0
  -30.7530  -22.3320   20.8830 C   0  0  0  0  0  2  0  0  0  0  0  0
  -29.6010  -21.5480   20.4010 N   0  0  0  0  0  0  0  0  0  0  0  0
  -31.0570  -24.7570   21.0570 O   0  0  0  0  0  0  0  0  0  0  0  0
  -27.4630  -22.0360   19.6810 O   0  0  0  0  0  0  0  0  0  0  0  0
  -30.0210  -20.0640   18.4980 C   0  0  0  0  0  3  0  0  0  0  0  0
  -30.3180  -18.8350   17.8870 C   0  0  0  0  0  3  0  0  0  0  0  0
  -29.8790  -18.9010   20.6220 C   0  0  0  0  0  3  0  0  0  0  0  0
  -30.1660  -17.5860   20.0230 C   0  0  0  0  0  0  0  0  0  0  0  0
  -29.7980  -20.1600   19.8830 C   0  0  0  0  0  0  0  0  0  0  0  0
  -30.4020  -17.6260   18.6110 C   0  0  0  0  0  0  0  0  0  0  0  0
  -30.0940  -16.2190   20.8230 C   0  0  0  0  0  0  0  0  0  0  0  0
  -29.4410  -16.2170   21.9140 N   0  0  0  0  0  0  0  0  0  0  0  0
  -29.0320  -17.1240   22.1000 H   0  0  0  0  0  0  0  0  0  0  0  0
  -30.8460  -14.8670   20.3360 C   0  0  0  0  0  0  0  0  0  0  0  0
  -30.6200  -12.6010   19.2970 C   0  0  0  0  0  2  0  0  0  0  0  0
  -29.6900  -12.7050   18.0640 C   0  0  0  0  0  2  0  0  0  0  0  0
  -28.2140  -12.5410   18.4730 C   0  0  0  0  0  2  0  0  0  0  0  0
  -27.8450  -13.3990   19.7110 C   0  0  0  0  0  3  0  0  0  0  0  0
  -28.8950  -13.2530   20.8330 C   0  0  0  0  0  2  0  0  0  0  0  0
  -30.2020  -13.6390   20.2780 N   0  0  0  0  0  0  0  0  0  0  0  0
  -32.0040  -14.9510   19.9090 O   0  0  0  0  0  0  0  0  0  0  0  0
  -25.4490  -14.0000   20.4040 C   0  0  0  0  0  0  0  0  0  0  0  0
  -24.3770  -13.2310   20.7690 C   0  0  0  0  0  0  0  0  0  0  0  0
  -24.8380  -11.8790   20.7550 C   0  0  0  0  0  0  0  0  0  0  0  0
  -26.4930  -13.1160   20.1860 N   0  0  0  0  0  0  0  0  0  0  0  0
  -26.1310  -11.8360   20.4590 N   0  0  0  0  0  0  0  0  0  0  0  0
  -24.1060  -10.6190   20.9490 C   0  0  0  0  0  0  0  0  0  0  0  0
  -24.5120   -9.6700   21.9130 C   0  0  0  0  0  3  0  0  0  0  0  0
  -23.7790   -8.4770   22.0940 C   0  0  0  0  0  3  0  0  0  0  0  0
  -22.6270   -8.2250   21.3120 C   0  0  0  0  0  0  0  0  0  0  0  0
  -22.2410   -9.1630   20.3380 C   0  0  0  0  0  3  0  0  0  0  0  0
  -22.9730  -10.3470   20.1550 C   0  0  0  0  0  3  0  0  0  0  0  0
  -21.8690   -7.0820   21.4010 O   0  0  0  0  0  0  0  0  0  0  0  0
  -21.7610   -6.3800   22.5740 C   0  0  0  0  0  0  0  0  0  0  0  0
  -21.2690   -6.9760   23.7560 C   0  0  0  0  0  3  0  0  0  0  0  0
  -21.1080   -6.2000   24.9210 C   0  0  0  0  0  3  0  0  0  0  0  0
  -21.4290   -4.8290   24.9050 C   0  0  0  0  0  0  0  0  0  0  0  0
  -21.9150   -4.2330   23.7270 C   0  0  0  0  0  3  0  0  0  0  0  0
  -22.0770   -5.0070   22.5650 C   0  0  0  0  0  0  0  0  0  0  0  0
  -22.5260   -4.4230   21.4260 F   0  0  0  0  0  0  0  0  0  0  0  0
  -21.2670   -4.0810   26.0210 F   0  0  0  0  0  0  0  0  0  0  0  0
  -22.9790  -13.7130   21.0250 C   0  0  0  0  0  0  0  0  0  0  0  0
  -22.2450  -13.0320   21.8970 N   0  0  0  0  0  0  0  0  0  0  0  0
  -22.5460  -14.7310   20.4860 O   0  0  0  0  0  0  0  0  0  0  0  0
  -22.6090  -12.2090   22.3550 H   0  0  0  0  0  0  0  0  0  0  0  0
  -21.3070  -13.3380   22.1110 H   0  0  0  0  0  0  0  0  0  0  0  0
  -25.6180  -15.3680   20.2190 N   0  0  0  0  0  0  0  0  0  0  0  0
  -24.8590  -16.0310   20.3310 H   0  0  0  0  0  0  0  0  0  0  0  0
  -26.4880  -15.8050   19.9430 H   0  0  0  0  0  0  0  0  0  0  0  0
  -30.7080  -16.5050   17.8380 N   0  0  0  0  0  0  0  0  0  0  0  0
  -31.0030  -16.6870   16.8850 H   0  0  0  0  0  0  0  0  0  0  0  0
  -31.3340  -15.8320   18.2740 H   0  0  0  0  0  0  0  0  0  0  0  0
  -28.3500  -26.3780   20.2150 O   0  0  0  0  0  0  0  0  0  0  0  0
  -24.5800  -31.8900   23.1550 C   0  0  0  0  0  0  0  0  0  0  0  0
  -27.2600  -27.2920   20.1350 C   0  0  0  0  0  0  0  0  0  0  0  0
  -23.4080  -30.4750   21.5090 C   0  0  0  0  0  3  0  0  0  0  0  0
  -24.8910  -28.9380   20.0950 C   0  0  0  0  0  0  0  0  0  0  0  0
  -25.9530  -30.7970   21.3610 C   0  0  0  0  0  2  0  0  0  0  0  0
  -26.0510  -29.4130   20.7200 C   0  0  0  0  0  0  0  0  0  0  0  0
  -27.2320  -28.5970   20.7420 C   0  0  0  0  0  3  0  0  0  0  0  0
  -26.0860  -26.9220   19.4340 C   0  0  0  0  0  3  0  0  0  0  0  0
  -24.9140  -27.7010   19.4410 C   0  0  0  0  0  3  0  0  0  0  0  0
  -23.6460  -29.8050   20.1310 C   0  0  0  0  0  2  0  0  0  0  0  0
  -24.6650  -31.0740   22.0640 N   0  0  0  0  0  0  0  0  0  0  0  0
  -23.4870  -32.1580   23.6770 O   0  0  0  0  0  0  0  0  0  0  0  0
  -22.7460  -29.4520   22.4640 C   0  0  0  0  0  0  0  0  0  0  0  0
  -21.4200  -29.2680   22.3350 N   0  0  0  0  0  0  0  0  0  0  0  0
  -23.4250  -28.8260   23.2830 O   0  0  0  0  0  0  0  0  0  0  0  0
  -20.9290  -29.8240   21.6490 H   0  0  0  0  0  0  0  0  0  0  0  0
  -18.0490  -28.0510   22.8320 C   0  0  0  0  0  0  0  0  0  0  0  0
  -20.6050  -28.3250   23.1050 C   0  0  0  0  0  3  0  0  0  0  0  0
  -20.7160  -26.8950   22.5280 C   0  0  0  0  0  2  0  0  0  0  0  0
  -19.6180  -26.5670   21.5130 C   0  0  0  0  0  2  0  0  0  0  0  0
  -18.2340  -26.7040   22.1540 C   0  0  0  0  0  2  0  0  0  0  0  0
  -19.1620  -28.8200   23.2640 C   0  0  0  0  0  0  0  0  0  0  0  0
  -18.9350  -30.0790   23.8590 C   0  0  0  0  0  3  0  0  0  0  0  0
  -17.6270  -30.5720   24.0220 C   0  0  0  0  0  3  0  0  0  0  0  0
  -16.5280  -29.8010   23.6070 C   0  0  0  0  0  3  0  0  0  0  0  0
  -16.7390  -28.5420   23.0170 C   0  0  0  0  0  3  0  0  0  0  0  0
  -25.8480  -32.5410   23.7860 C   0  0  0  0  0  3  0  0  0  0  0  0
  -26.3760  -31.7670   25.0560 C   0  0  1  0  0  0  0  0  0  0  0  0
  -25.2860  -31.4960   26.1190 C   0  0  0  0  0  1  0  0  0  0  0  0
  -26.9880  -30.4050   24.6550 C   0  0  0  0  0  1  0  0  0  0  0  0
  -27.5080  -32.5770   25.7310 C   0  0  0  0  0  1  0  0  0  0  0  0
  -25.5100  -33.9300   24.1320 N   0  0  0  0  0  0  0  0  0  0  0  0
  -25.8360  -34.9990   23.3940 C   0  0  0  0  0  0  0  0  0  0  0  0
  -26.5210  -34.9220   22.3720 O   0  0  0  0  0  0  0  0  0  0  0  0
  -24.9020  -34.0630   24.9270 H   0  0  0  0  0  0  0  0  0  0  0  0
  -24.0910  -36.7780   23.0370 C   0  0  0  0  0  1  0  0  0  0  0  0
  -25.3210  -36.3730   23.8670 C   0  0  0  0  0  3  0  0  0  0  0  0
  -27.4260  -37.2700   24.7580 C   0  0  0  0  0  1  0  0  0  0  0  0
  -26.3410  -37.4410   23.7960 N   0  0  0  0  0  0  0  0  0  0  0  0
  -25.9200  -38.3530   23.9540 H   0  0  0  0  0  0  0  0  0  0  0  0
  1  2  1  0
  2  5  1  0
  2  7  2  0
  3  1  1  0
  3  6  1  0
  4 57  1  0
  4  1  2  0
  6  5  1  0
  8  3  2  0
  9 13  1  0
 10  9  2  0
 10 14  1  0
 12 11  1  0
 12 15  1  0
 13  6  1  0
 13 11  2  0
 14 12  2  0
 15 16  2  0
 16 17  1  0
 18 15  1  0
 19 24  1  0
 20 21  1  0
 20 19  1  0
 22 21  1  0
 22 29  1  0
 22 23  1  0
 24 18  1  0
 24 23  1  0
 25 18  2  0
 26 27  2  0
 27 46  1  0
 28 27  1  0
 28 31  1  0
 29 26  1  0
 29 30  1  0
 30 28  2  0
 31 32  1  0
 32 33  2  0
 34 37  1  0
 34 33  1  0
 35 34  2  0
 36 35  1  0
 36 31  2  0
 37 38  1  0
 38 39  1  0
 39 40  2  0
 41 40  1  0
 41 45  1  0
 42 41  2  0
 43 38  2  0
 43 42  1  0
 44 43  1  0
 46 47  1  0
 47 50  1  0
 47 49  1  0
 48 46  2  0
 51 52  1  0
 51 26  1  0
 53 51  1  0
 54 56  1  0
 54 14  1  0
 55 54  1  0
 58 69  2  0
 59 57  1  0
 59 64  1  0
 60 68  1  0
 60 70  1  0
 61 67  1  0
 61 63  1  0
 62 68  1  0
 63 64  2  0
 63 62  1  0
 65 66  1  0
 65 59  2  0
 66 61  2  0
 67 60  1  0
 68 58  1  0
 70 72  2  0
 71 70  1  0
 73 71  1  0
 74 83  2  0
 74 79  1  0
 75 71  1  0
 75 79  1  0
 76 75  1  0
 77 78  1  0
 77 76  1  0
 78 74  1  0
 79 80  2  0
 80 81  1  0
 82 81  2  0
 83 82  1  0
 84 58  1  0
 84 89  1  0
 84 85  1  0
 85 88  1  1
 85 86  1  0
 87 85  1  0
 89 92  1  0
 90 94  1  0
 90 89  1  0
 91 90  2  0
 94 93  1  0
 96 94  1  0
 96 97  1  0
 96 95  1  0
M  ISO  4   4 101  15 100  18 100  57 101
M  END
>  <TORSDO>  (70) 
F 19

>  <SCORE>  (70) 
-14.681

>  <name>  (70) 
70

>  <ligand_id>  (70) 
70

>  <original_smiles>  (70) 
[H]N=C(C(=O)N1C([H])([H])C([H])([H])C([H])([H])C([H])(n2nc(-c3c([H])c([H])c(Oc4c([H])c([H])c(F)c([H])c4F)c([H])c3[H])c(C(=O)N([H])[H])c2N([H])[H])C1([H])[H])c1c([H])c(N2C(=O)C(=C([H])Oc3c([H])c([H])c4c(c3[H])C([H])([H])N(C(=O)C([H])(N([H])C(=O)C([H])(N([H])C([H])([H])[H])C([H])([H])[H])C(C([H])([H])[H])(C([H])([H])[H])C([H])([H])[H])C([H])(C(=O)N([H])C3([H])c5c([H])c([H])c([H])c([H])c5C([H])([H])C([H])([H])C3([H])[H])C4([H])[H])C(=O)C2([H])[H])c([H])c([H])c1N([H])[H]

>  <smiles>  (70) 
[H]N=C(C(=O)N1C([H])([H])C([H])([H])C([H])([H])C([H])(n2nc(-c3c([H])c([H])c(Oc4c([H])c([H])c(F)c([H])c4F)c([H])c3[H])c(C(=O)N([H])[H])c2N([H])[H])C1([H])[H])c1c([H])c(N2C(=O)C(=C([H])Oc3c([H])c([H])c4c(c3[H])C([H])([H])N(C(=O)C([H])(N([H])C(=O)C([H])(N([H])C([H])([H])[H])C([H])([H])[H])C(C([H])([H])[H])(C([H])([H])[H])C([H])([H])[H])C([H])(C(=O)N([H])C3([H])c5c([H])c([H])c([H])c([H])c5C([H])([H])C([H])([H])C3([H])[H])C4([H])[H])C(=O)C2([H])[H])c([H])c([H])c1N([H])[H]

$$$$
71:0:0
     RDKit          3D

 97105  0  0  1  0  0  0  0  0999 V2000
  -29.3390  -20.8000   20.7150 C   0  0  0  0  0  0  0  0  0  0  0  0
  -28.8770  -23.3350   20.3810 C   0  0  0  0  0  0  0  0  0  0  0  0
  -29.0660  -21.9310   19.9790 N   0  0  0  0  0  0  0  0  0  0  0  0
  -29.4450  -20.8800   22.0460 N   0  0  0  0  0  4  0  0  0  0  0  0
  -28.8660  -23.6500   21.5760 O   0  0  0  0  0  0  0  0  0  0  0  0
  -29.0220  -21.6920   19.0020 H   0  0  0  0  0  0  0  0  0  0  0  0
  -29.7100  -20.0780   22.5930 H   0  0  0  0  0  0  0  0  0  0  0  0
  -29.2890  -21.7690   22.5010 H   0  0  0  0  0  0  0  0  0  0  0  0
  -29.7920  -19.4130   18.6730 C   0  0  0  0  0  3  0  0  0  0  0  0
  -29.5820  -18.2020   20.7830 C   0  0  0  0  0  3  0  0  0  0  0  0
  -30.0290  -16.9770   18.7280 C   0  0  0  0  0  3  0  0  0  0  0  0
  -29.5650  -19.4560   20.0670 C   0  0  0  0  0  0  0  0  0  0  0  0
  -30.0060  -18.1900   18.0090 C   0  0  0  0  0  0  0  0  0  0  0  0
  -29.8330  -16.9440   20.1300 C   0  0  0  0  0  0  0  0  0  0  0  0
  -30.1850  -18.1880   16.6260 N   0  0  0  0  0  0  0  0  0  0  0  0
  -29.8570  -18.9880   16.0930 H   0  0  0  0  0  0  0  0  0  0  0  0
  -30.0440  -17.3140   16.1280 H   0  0  0  0  0  0  0  0  0  0  0  0
  -29.8130  -15.7080   20.8040 O   0  0  0  0  0  0  0  0  0  0  0  0
  -30.6740  -14.6440   20.4580 C   0  0  0  0  0  0  0  0  0  0  0  0
  -30.4210  -12.4000   19.3990 C   0  0  0  0  0  2  0  0  0  0  0  0
  -29.5100  -12.5900   18.1660 C   0  0  0  0  0  2  0  0  0  0  0  0
  -28.0260  -12.4560   18.5610 C   0  0  0  0  0  2  0  0  0  0  0  0
  -27.6560  -13.3090   19.8030 C   0  0  0  0  0  3  0  0  0  0  0  0
  -28.6810  -13.1320   20.9430 C   0  0  0  0  0  2  0  0  0  0  0  0
  -30.0170  -13.3970   20.4030 N   0  0  0  0  0  0  0  0  0  0  0  0
  -31.8240  -14.8260   20.0460 O   0  0  0  0  0  0  0  0  0  0  0  0
  -25.2450  -13.9160   20.4580 C   0  0  0  0  0  0  0  0  0  0  0  0
  -24.1700  -13.1480   20.8170 C   0  0  0  0  0  0  0  0  0  0  0  0
  -24.6330  -11.7960   20.8160 C   0  0  0  0  0  0  0  0  0  0  0  0
  -26.2950  -13.0340   20.2590 N   0  0  0  0  0  0  0  0  0  0  0  0
  -25.9300  -11.7550   20.5340 N   0  0  0  0  0  0  0  0  0  0  0  0
  -23.9030  -10.5370   21.0110 C   0  0  0  0  0  0  0  0  0  0  0  0
  -24.3240   -9.5780   21.9580 C   0  0  0  0  0  3  0  0  0  0  0  0
  -23.5950   -8.3820   22.1400 C   0  0  0  0  0  3  0  0  0  0  0  0
  -22.4300   -8.1390   21.3740 C   0  0  0  0  0  0  0  0  0  0  0  0
  -22.0300   -9.0860   20.4170 C   0  0  0  0  0  3  0  0  0  0  0  0
  -22.7600  -10.2720   20.2320 C   0  0  0  0  0  3  0  0  0  0  0  0
  -21.6730   -6.9950   21.4630 O   0  0  0  0  0  0  0  0  0  0  0  0
  -21.6190   -6.2570   22.6180 C   0  0  0  0  0  0  0  0  0  0  0  0
  -21.1960   -6.8200   23.8420 C   0  0  0  0  0  3  0  0  0  0  0  0
  -21.0870   -6.0080   24.9890 C   0  0  0  0  0  3  0  0  0  0  0  0
  -21.3910   -4.6360   24.9130 C   0  0  0  0  0  0  0  0  0  0  0  0
  -21.8070   -4.0730   23.6940 C   0  0  0  0  0  3  0  0  0  0  0  0
  -21.9170   -4.8820   22.5490 C   0  0  0  0  0  0  0  0  0  0  0  0
  -22.2980   -4.3300   21.3720 F   0  0  0  0  0  0  0  0  0  0  0  0
  -21.2790   -3.8550   26.0140 F   0  0  0  0  0  0  0  0  0  0  0  0
  -22.7680  -13.6280   21.0540 C   0  0  0  0  0  0  0  0  0  0  0  0
  -22.0240  -12.9440   21.9180 N   0  0  0  0  0  0  0  0  0  0  0  0
  -22.3410  -14.6460   20.5110 O   0  0  0  0  0  0  0  0  0  0  0  0
  -22.3800  -12.1200   22.3760 H   0  0  0  0  0  0  0  0  0  0  0  0
  -21.0830  -13.2490   22.1210 H   0  0  0  0  0  0  0  0  0  0  0  0
  -25.4130  -15.2850   20.2660 N   0  0  0  0  0  0  0  0  0  0  0  0
  -24.6470  -15.9430   20.3590 H   0  0  0  0  0  0  0  0  0  0  0  0
  -26.2770  -15.7240   19.9730 H   0  0  0  0  0  0  0  0  0  0  0  0
  -28.7340  -24.2630   19.2420 C   0  0  0  0  0  3  0  0  0  0  0  0
  -28.5070  -25.6160   19.2020 C   0  0  0  0  0  3  0  0  0  0  0  0
  -28.3320  -26.5580   20.2110 O   0  0  0  0  0  0  0  0  0  0  0  0
  -24.5910  -31.9050   23.2320 C   0  0  0  0  0  0  0  0  0  0  0  0
  -27.2150  -27.3960   20.1520 C   0  0  0  0  0  0  0  0  0  0  0  0
  -23.3850  -30.5050   21.5950 C   0  0  0  0  0  3  0  0  0  0  0  0
  -24.8360  -28.9670   20.1630 C   0  0  0  0  0  0  0  0  0  0  0  0
  -25.9190  -30.8450   21.3970 C   0  0  0  0  0  2  0  0  0  0  0  0
  -26.0040  -29.4700   20.7520 C   0  0  0  0  0  0  0  0  0  0  0  0
  -27.1950  -28.6920   20.7440 C   0  0  0  0  0  3  0  0  0  0  0  0
  -26.0190  -26.9300   19.5580 C   0  0  0  0  0  3  0  0  0  0  0  0
  -24.8420  -27.7000   19.5600 C   0  0  0  0  0  3  0  0  0  0  0  0
  -23.5940  -29.8310   20.2150 C   0  0  0  0  0  2  0  0  0  0  0  0
  -24.6510  -31.1010   22.1320 N   0  0  0  0  0  0  0  0  0  0  0  0
  -23.5090  -32.1770   23.7720 O   0  0  0  0  0  0  0  0  0  0  0  0
  -22.7330  -29.4840   22.5560 C   0  0  0  0  0  0  0  0  0  0  0  0
  -21.4080  -29.2980   22.4290 N   0  0  0  0  0  0  0  0  0  0  0  0
  -23.4150  -28.8630   23.3750 O   0  0  0  0  0  0  0  0  0  0  0  0
  -20.9170  -29.8500   21.7400 H   0  0  0  0  0  0  0  0  0  0  0  0
  -18.0370  -28.0890   22.9290 C   0  0  0  0  0  0  0  0  0  0  0  0
  -20.5930  -28.3600   23.2020 C   0  0  0  0  0  3  0  0  0  0  0  0
  -20.7020  -26.9270   22.6300 C   0  0  0  0  0  2  0  0  0  0  0  0
  -19.6030  -26.5970   21.6150 C   0  0  0  0  0  2  0  0  0  0  0  0
  -18.2200  -26.7380   22.2580 C   0  0  0  0  0  2  0  0  0  0  0  0
  -19.1510  -28.8570   23.3580 C   0  0  0  0  0  0  0  0  0  0  0  0
  -18.9260  -30.1200   23.9450 C   0  0  0  0  0  3  0  0  0  0  0  0
  -17.6190  -30.6160   24.1090 C   0  0  0  0  0  3  0  0  0  0  0  0
  -16.5190  -29.8460   23.6960 C   0  0  0  0  0  3  0  0  0  0  0  0
  -16.7280  -28.5840   23.1110 C   0  0  0  0  0  3  0  0  0  0  0  0
  -25.8750  -32.5420   23.8490 C   0  0  0  0  0  3  0  0  0  0  0  0
  -26.3940  -31.7750   25.1270 C   0  0  1  0  0  0  0  0  0  0  0  0
  -25.3000  -31.5400   26.1960 C   0  0  0  0  0  1  0  0  0  0  0  0
  -26.9760  -30.3970   24.7380 C   0  0  0  0  0  1  0  0  0  0  0  0
  -27.5460  -32.5720   25.7830 C   0  0  0  0  0  1  0  0  0  0  0  0
  -25.5620  -33.9410   24.1740 N   0  0  0  0  0  0  0  0  0  0  0  0
  -25.8990  -34.9920   23.4150 C   0  0  0  0  0  0  0  0  0  0  0  0
  -26.5760  -34.8870   22.3880 O   0  0  0  0  0  0  0  0  0  0  0  0
  -24.9610  -34.0970   24.9700 H   0  0  0  0  0  0  0  0  0  0  0  0
  -24.1780  -36.7880   23.0420 C   0  0  0  0  0  1  0  0  0  0  0  0
  -25.4100  -36.3820   23.8670 C   0  0  0  0  0  3  0  0  0  0  0  0
  -27.5390  -37.2620   24.7190 C   0  0  0  0  0  1  0  0  0  0  0  0
  -26.4460  -37.4340   23.7660 N   0  0  0  0  0  0  0  0  0  0  0  0
  -26.0390  -38.3540   23.9100 H   0  0  0  0  0  0  0  0  0  0  0  0
  1  4  2  0
  2  5  2  0
  3  2  1  0
  3  1  1  0
  4  8  1  0
  4  7  1  0
  6  3  1  0
  9 12  1  0
 11 14  2  0
 12  1  1  0
 12 10  2  0
 13  9  2  0
 13 11  1  0
 14 10  1  0
 14 18  1  0
 15 13  1  0
 16 15  1  0
 17 15  1  0
 19 18  1  0
 20 25  1  0
 21 22  1  0
 21 20  1  0
 23 22  1  0
 23 30  1  0
 23 24  1  0
 25 19  1  0
 25 24  1  0
 26 19  2  0
 27 28  2  0
 28 47  1  0
 29 28  1  0
 29 32  1  0
 30 27  1  0
 30 31  1  0
 31 29  2  0
 32 33  1  0
 33 34  2  0
 35 38  1  0
 35 34  1  0
 36 35  2  0
 37 36  1  0
 37 32  2  0
 38 39  1  0
 39 40  1  0
 40 41  2  0
 42 41  1  0
 42 46  1  0
 43 42  2  0
 44 39  2  0
 44 43  1  0
 45 44  1  0
 47 48  1  0
 48 51  1  0
 48 50  1  0
 49 47  2  0
 52 53  1  0
 52 27  1  0
 54 52  1  0
 55  2  1  0
 56 55  2  0
 56 57  1  0
 58 69  2  0
 59 57  1  0
 59 64  1  0
 60 68  1  0
 60 70  1  0
 61 67  1  0
 61 63  1  0
 62 68  1  0
 63 62  1  0
 64 63  2  0
 65 66  1  0
 65 59  2  0
 66 61  2  0
 67 60  1  0
 68 58  1  0
 70 72  2  0
 71 70  1  0
 73 71  1  0
 74 83  2  0
 74 79  1  0
 75 71  1  0
 75 79  1  0
 76 75  1  0
 77 78  1  0
 77 76  1  0
 78 74  1  0
 79 80  2  0
 80 81  1  0
 82 81  2  0
 83 82  1  0
 84 58  1  0
 84 89  1  0
 84 85  1  0
 85 88  1  1
 85 86  1  0
 87 85  1  0
 89 92  1  0
 90 94  1  0
 90 89  1  0
 91 90  2  0
 94 93  1  0
 96 94  1  0
 96 97  1  0
 96 95  1  0
M  ISO  4  18 100  19 100  56 101  57 101
M  END
>  <TORSDO>  (71) 
F 20

>  <SCORE>  (71) 
-14.428

>  <name>  (71) 
71

>  <ligand_id>  (71) 
71

>  <original_smiles>  (71) 
[H]C(Oc1c([H])c([H])c2c(c1[H])C([H])([H])N(C(=O)C([H])(N([H])C(=O)C([H])(N([H])C([H])([H])[H])C([H])([H])[H])C(C([H])([H])[H])(C([H])([H])[H])C([H])([H])[H])C([H])(C(=O)N([H])C1([H])c3c([H])c([H])c([H])c([H])c3C([H])([H])C([H])([H])C1([H])[H])C2([H])[H])=C([H])C(=O)N([H])C(c1c([H])c(OC(=O)N2C([H])([H])C([H])([H])C([H])([H])C([H])(n3nc(-c4c([H])c([H])c(Oc5c([H])c([H])c(F)c([H])c5F)c([H])c4[H])c(C(=O)N([H])[H])c3N([H])[H])C2([H])[H])c([H])c(N([H])[H])c1[H])=[N+]([H])[H]

>  <smiles>  (71) 
[H]C(Oc1c([H])c([H])c2c(c1[H])C([H])([H])N(C(=O)C([H])(N([H])C(=O)C([H])(N([H])C([H])([H])[H])C([H])([H])[H])C(C([H])([H])[H])(C([H])([H])[H])C([H])([H])[H])C([H])(C(=O)N([H])C1([H])c3c([H])c([H])c([H])c([H])c3C([H])([H])C([H])([H])C1([H])[H])C2([H])[H])=C([H])C(=O)N([H])C(c1c([H])c(OC(=O)N2C([H])([H])C([H])([H])C([H])([H])C([H])(n3nc(-c4c([H])c([H])c(Oc5c([H])c([H])c(F)c([H])c5F)c([H])c4[H])c(C(=O)N([H])[H])c3N([H])[H])C2([H])[H])c([H])c(N([H])[H])c1[H])=[N+]([H])[H]

$$$$
72:0:0
     RDKit          3D

 94103  0  0  1  0  0  0  0  0999 V2000
  -28.8770  -23.8250   20.1790 C   0  0  0  0  0  0  0  0  0  0  0  0
  -26.0900  -23.3530   20.9570 C   0  0  0  0  0  2  0  0  0  0  0  0
  -26.7810  -24.7030   21.2230 C   0  0  0  0  0  2  0  0  0  0  0  0
  -26.8590  -22.4850   19.9380 C   0  0  0  0  0  2  0  0  0  0  0  0
  -27.8420  -25.0330   20.1350 C   0  0  0  0  0  3  0  0  0  0  0  0
  -28.3280  -22.5440   20.1200 N   0  0  0  0  0  0  0  0  0  0  0  0
  -30.0890  -24.0500   20.2780 O   0  0  0  0  0  0  0  0  0  0  0  0
  -30.7900  -19.6370   19.5540 C   0  0  0  0  0  3  0  0  0  0  0  0
  -28.9400  -18.8090   20.8470 C   0  0  0  0  0  3  0  0  0  0  0  0
  -30.2360  -20.9520   19.5470 C   0  0  0  0  0  3  0  0  0  0  0  0
  -28.3910  -20.1260   20.8540 C   0  0  0  0  0  3  0  0  0  0  0  0
  -30.1580  -18.5280   20.1880 C   0  0  0  0  0  0  0  0  0  0  0  0
  -29.0070  -21.2370   20.1950 C   0  0  0  0  0  0  0  0  0  0  0  0
  -30.9010  -14.7580   19.9520 C   0  0  0  0  0  0  0  0  0  0  0  0
  -30.5110  -12.5280   18.9390 C   0  0  0  0  0  2  0  0  0  0  0  0
  -29.5090  -12.6360   17.7730 C   0  0  0  0  0  2  0  0  0  0  0  0
  -28.0690  -12.4790   18.2950 C   0  0  0  0  0  2  0  0  0  0  0  0
  -27.7810  -13.3600   19.5420 C   0  0  0  0  0  3  0  0  0  0  0  0
  -28.9130  -13.2850   20.5910 C   0  0  0  0  0  2  0  0  0  0  0  0
  -30.1710  -13.5970   19.9040 N   0  0  0  0  0  0  0  0  0  0  0  0
  -32.0630  -14.7340   19.5420 O   0  0  0  0  0  0  0  0  0  0  0  0
  -30.9020  -17.1830   20.2940 C   0  0  0  0  0  0  0  0  0  0  0  0
  -30.2730  -15.9580   20.2210 N   0  0  0  0  0  0  0  0  0  0  0  0
  -32.1270  -17.2930   20.4270 O   0  0  0  0  0  0  0  0  0  0  0  0
  -29.2700  -15.9560   20.2870 H   0  0  0  0  0  0  0  0  0  0  0  0
  -25.4610  -13.9310   20.4710 C   0  0  0  0  0  0  0  0  0  0  0  0
  -24.4160  -13.1510   20.8800 C   0  0  0  0  0  0  0  0  0  0  0  0
  -24.8590  -11.7980   20.7550 C   0  0  0  0  0  0  0  0  0  0  0  0
  -26.4760  -13.0580   20.1190 N   0  0  0  0  0  0  0  0  0  0  0  0
  -26.1250  -11.7650   20.3520 N   0  0  0  0  0  0  0  0  0  0  0  0
  -24.1320  -10.5340   20.9400 C   0  0  0  0  0  0  0  0  0  0  0  0
  -24.5520   -9.5700   21.8820 C   0  0  0  0  0  3  0  0  0  0  0  0
  -23.8250   -8.3720   22.0550 C   0  0  0  0  0  3  0  0  0  0  0  0
  -22.6610   -8.1310   21.2850 C   0  0  0  0  0  0  0  0  0  0  0  0
  -22.2610   -9.0830   20.3320 C   0  0  0  0  0  3  0  0  0  0  0  0
  -22.9900  -10.2720   20.1570 C   0  0  0  0  0  3  0  0  0  0  0  0
  -21.9070   -6.9860   21.3660 O   0  0  0  0  0  0  0  0  0  0  0  0
  -21.7510   -6.3080   22.5490 C   0  0  0  0  0  0  0  0  0  0  0  0
  -21.1930   -6.9220   23.6910 C   0  0  0  0  0  3  0  0  0  0  0  0
  -20.9870   -6.1690   24.8650 C   0  0  0  0  0  3  0  0  0  0  0  0
  -21.3320   -4.8040   24.8960 C   0  0  0  0  0  0  0  0  0  0  0  0
  -21.8830   -4.1910   23.7580 C   0  0  0  0  0  3  0  0  0  0  0  0
  -22.0900   -4.9410   22.5870 C   0  0  0  0  0  0  0  0  0  0  0  0
  -22.6020   -4.3400   21.4870 F   0  0  0  0  0  0  0  0  0  0  0  0
  -21.1270   -4.0790   26.0210 F   0  0  0  0  0  0  0  0  0  0  0  0
  -23.0470  -13.6270   21.2720 C   0  0  0  0  0  0  0  0  0  0  0  0
  -22.3760  -12.8970   22.1550 N   0  0  0  0  0  0  0  0  0  0  0  0
  -22.5850  -14.6770   20.8300 O   0  0  0  0  0  0  0  0  0  0  0  0
  -22.7660  -12.0470   22.5340 H   0  0  0  0  0  0  0  0  0  0  0  0
  -21.4600  -13.1950   22.4610 H   0  0  0  0  0  0  0  0  0  0  0  0
  -25.6250  -15.3090   20.3450 N   0  0  0  0  0  0  0  0  0  0  0  0
  -24.8680  -15.9580   20.5350 H   0  0  0  0  0  0  0  0  0  0  0  0
  -26.4450  -15.7600   19.9610 H   0  0  0  0  0  0  0  0  0  0  0  0
  -28.2940  -26.4610   20.2190 O   0  0  0  0  0  0  0  0  0  0  0  0
  -24.6320  -31.8800   23.3020 C   0  0  0  0  0  0  0  0  0  0  0  0
  -27.2520  -27.4090   20.1070 C   0  0  0  0  0  0  0  0  0  0  0  0
  -23.4440  -30.5300   21.6180 C   0  0  0  0  0  3  0  0  0  0  0  0
  -24.9040  -29.0450   20.1400 C   0  0  0  0  0  0  0  0  0  0  0  0
  -25.9880  -30.8460   21.4700 C   0  0  0  0  0  2  0  0  0  0  0  0
  -26.0710  -29.4930   20.7730 C   0  0  0  0  0  0  0  0  0  0  0  0
  -27.2480  -28.6800   20.7620 C   0  0  0  0  0  3  0  0  0  0  0  0
  -26.0760  -27.0680   19.3870 C   0  0  0  0  0  3  0  0  0  0  0  0
  -24.9090  -27.8380   19.4400 C   0  0  0  0  0  3  0  0  0  0  0  0
  -23.6630  -29.9060   20.2170 C   0  0  0  0  0  2  0  0  0  0  0  0
  -24.7080  -31.1000   22.1860 N   0  0  0  0  0  0  0  0  0  0  0  0
  -23.5450  -32.1430   23.8370 O   0  0  0  0  0  0  0  0  0  0  0  0
  -22.7790  -29.4790   22.5420 C   0  0  0  0  0  0  0  0  0  0  0  0
  -21.4560  -29.2960   22.3960 N   0  0  0  0  0  0  0  0  0  0  0  0
  -23.4530  -28.8340   23.3490 O   0  0  0  0  0  0  0  0  0  0  0  0
  -20.9710  -29.8670   21.7170 H   0  0  0  0  0  0  0  0  0  0  0  0
  -18.0750  -28.0940   22.8600 C   0  0  0  0  0  0  0  0  0  0  0  0
  -20.6340  -28.3370   23.1370 C   0  0  0  0  0  3  0  0  0  0  0  0
  -20.7290  -26.9240   22.5150 C   0  0  0  0  0  2  0  0  0  0  0  0
  -19.6270  -26.6390   21.4920 C   0  0  0  0  0  2  0  0  0  0  0  0
  -18.2460  -26.7670   22.1410 C   0  0  0  0  0  2  0  0  0  0  0  0
  -19.1960  -28.8390   23.3130 C   0  0  0  0  0  0  0  0  0  0  0  0
  -18.9810  -30.0820   23.9470 C   0  0  0  0  0  3  0  0  0  0  0  0
  -17.6780  -30.5830   24.1300 C   0  0  0  0  0  3  0  0  0  0  0  0
  -16.5710  -29.8350   23.6910 C   0  0  0  0  0  3  0  0  0  0  0  0
  -16.7700  -28.5920   23.0630 C   0  0  0  0  0  3  0  0  0  0  0  0
  -25.9100  -32.5000   23.9450 C   0  0  0  0  0  3  0  0  0  0  0  0
  -25.6070  -33.9010   24.2660 N   0  0  0  0  0  0  0  0  0  0  0  0
  -25.9380  -34.9470   23.4980 C   0  0  0  0  0  0  0  0  0  0  0  0
  -26.5980  -34.8330   22.4600 O   0  0  0  0  0  0  0  0  0  0  0  0
  -25.0110  -34.0640   25.0640 H   0  0  0  0  0  0  0  0  0  0  0  0
  -24.2020  -36.7390   23.1670 C   0  0  0  0  0  1  0  0  0  0  0  0
  -25.4620  -36.3410   23.9510 C   0  0  0  0  0  3  0  0  0  0  0  0
  -27.6130  -37.2400   24.7270 C   0  0  0  0  0  1  0  0  0  0  0  0
  -26.4930  -37.3920   23.8010 N   0  0  0  0  0  0  0  0  0  0  0  0
  -26.0900  -38.3130   23.9430 H   0  0  0  0  0  0  0  0  0  0  0  0
  -26.3930  -31.7230   25.2310 C   0  0  1  0  0  0  0  0  0  0  0  0
  -25.2790  -31.4890   26.2760 C   0  0  0  0  0  1  0  0  0  0  0  0
  -26.9750  -30.3420   24.8500 C   0  0  0  0  0  1  0  0  0  0  0  0
  -27.5360  -32.5090   25.9150 C   0  0  0  0  0  1  0  0  0  0  0  0
  1  7  2  0
  2  3  1  0
  4  6  1  0
  4  2  1  0
  5  1  1  0
  5 54  1  0
  5  3  1  0
  6  1  1  0
  6 13  1  0
  8 12  1  0
  9 11  1  0
 10  8  2  0
 10 13  1  0
 12 22  1  0
 12  9  2  0
 13 11  2  0
 14 23  1  0
 15 20  1  0
 16 17  1  0
 16 15  1  0
 18 17  1  0
 18 29  1  0
 18 19  1  0
 20 14  1  0
 20 19  1  0
 21 14  2  0
 22 24  2  0
 23 25  1  0
 23 22  1  0
 26 27  2  0
 27 46  1  0
 28 27  1  0
 28 31  1  0
 29 30  1  0
 29 26  1  0
 30 28  2  0
 31 32  1  0
 32 33  2  0
 34 37  1  0
 34 33  1  0
 35 34  2  0
 36 35  1  0
 36 31  2  0
 37 38  1  0
 38 43  2  0
 38 39  1  0
 39 40  2  0
 40 41  1  0
 41 45  1  0
 42 41  2  0
 43 42  1  0
 44 43  1  0
 46 47  1  0
 47 50  1  0
 47 49  1  0
 48 46  2  0
 51 26  1  0
 51 52  1  0
 53 51  1  0
 55 66  2  0
 56 54  1  0
 56 61  1  0
 57 65  1  0
 57 67  1  0
 58 64  1  0
 58 60  1  0
 59 65  1  0
 60 59  1  0
 61 60  2  0
 62 63  1  0
 62 56  2  0
 63 58  2  0
 64 57  1  0
 65 55  1  0
 67 69  2  0
 68 67  1  0
 70 68  1  0
 71 80  2  0
 71 76  1  0
 72 68  1  0
 72 76  1  0
 73 72  1  0
 74 75  1  0
 74 73  1  0
 75 71  1  0
 76 77  2  0
 77 78  1  0
 79 78  2  0
 80 79  1  0
 81 55  1  0
 81 82  1  0
 81 91  1  0
 82 85  1  0
 83 87  1  0
 83 82  1  0
 84 83  2  0
 87 86  1  0
 89 90  1  0
 89 87  1  0
 89 88  1  0
 91 94  1  1
 91 92  1  0
 93 91  1  0
M  ISO  4   5 101  14 100  23 100  54 101
M  END
>  <TORSDO>  (72) 
F 17

>  <SCORE>  (72) 
-14.771

>  <name>  (72) 
72

>  <ligand_id>  (72) 
72

>  <original_smiles>  (72) 
[H]c1c([H])c([H])c2c(c1[H])C([H])([H])C([H])([H])C([H])([H])C2([H])N([H])C(=O)C1([H])N(C(=O)C([H])(N([H])C(=O)C([H])(N([H])C([H])([H])[H])C([H])([H])[H])C(C([H])([H])[H])(C([H])([H])[H])C([H])([H])[H])C([H])([H])c2c([H])c(OC3([H])C(=O)N(c4c([H])c([H])c(C(=O)N([H])C(=O)N5C([H])([H])C([H])([H])C([H])([H])C([H])(n6nc(-c7c([H])c([H])c(Oc8c([H])c([H])c(F)c([H])c8F)c([H])c7[H])c(C(=O)N([H])[H])c6N([H])[H])C5([H])[H])c([H])c4[H])C([H])([H])C([H])([H])C3([H])[H])c([H])c([H])c2C1([H])[H]

>  <smiles>  (72) 
[H]c1c([H])c([H])c2c(c1[H])C([H])([H])C([H])([H])C([H])([H])C2([H])N([H])C(=O)C1([H])N(C(=O)C([H])(N([H])C(=O)C([H])(N([H])C([H])([H])[H])C([H])([H])[H])C(C([H])([H])[H])(C([H])([H])[H])C([H])([H])[H])C([H])([H])c2c([H])c(OC3([H])C(=O)N(c4c([H])c([H])c(C(=O)N([H])C(=O)N5C([H])([H])C([H])([H])C([H])([H])C([H])(n6nc(-c7c([H])c([H])c(Oc8c([H])c([H])c(F)c([H])c8F)c([H])c7[H])c(C(=O)N([H])[H])c6N([H])[H])C5([H])[H])c([H])c4[H])C([H])([H])C([H])([H])C3([H])[H])c([H])c([H])c2C1([H])[H]

$$$$
73:0:0
     RDKit          3D

 92101  0  0  1  0  0  0  0  0999 V2000
  -28.4510  -23.6350   20.3740 C   0  0  0  0  0  0  0  0  0  0  0  0
  -29.4480  -22.9630   19.5550 C   0  0  0  0  0  0  0  0  0  0  0  0
  -28.1190  -22.2920   20.8910 C   0  0  0  0  0  0  0  0  0  0  0  0
  -27.9490  -24.9340   20.6280 C   0  0  0  0  0  3  0  0  0  0  0  0
  -29.1230  -21.6440   20.0890 N   0  0  0  0  0  0  0  0  0  0  0  0
  -30.2240  -23.4260   18.7390 O   0  0  0  0  0  0  0  0  0  0  0  0
  -27.2900  -21.9450   21.7100 O   0  0  0  0  0  0  0  0  0  0  0  0
  -31.4400  -19.0450   18.5260 C   0  0  0  0  0  3  0  0  0  0  0  0
  -30.7540  -20.2030   18.9310 C   0  0  0  0  0  3  0  0  0  0  0  0
  -31.1230  -17.7760   19.0300 C   0  0  0  0  0  3  0  0  0  0  0  0
  -29.3750  -18.8460   20.3380 C   0  0  0  0  0  3  0  0  0  0  0  0
  -29.6760  -20.2300   19.8540 C   0  0  0  0  0  0  0  0  0  0  0  0
  -30.0900  -17.5900   19.9720 C   0  0  0  0  0  0  0  0  0  0  0  0
  -30.5700  -14.9560   20.2850 C   0  0  0  0  0  0  0  0  0  0  0  0
  -30.3950  -12.6290   19.3530 C   0  0  0  0  0  2  0  0  0  0  0  0
  -29.4650  -12.6510   18.1220 C   0  0  0  0  0  2  0  0  0  0  0  0
  -27.9970  -12.4620   18.5460 C   0  0  0  0  0  2  0  0  0  0  0  0
  -27.6070  -13.3610   19.7530 C   0  0  0  0  0  3  0  0  0  0  0  0
  -28.6660  -13.3380   20.8740 C   0  0  0  0  0  2  0  0  0  0  0  0
  -29.9470  -13.7160   20.2650 N   0  0  0  0  0  0  0  0  0  0  0  0
  -31.7760  -14.9820   20.0220 O   0  0  0  0  0  0  0  0  0  0  0  0
  -29.8170  -16.1530   20.4160 N   0  0  0  0  0  0  0  0  0  0  0  0
  -28.8850  -15.9930   20.7690 H   0  0  0  0  0  0  0  0  0  0  0  0
  -25.2300  -13.9420   20.5010 C   0  0  0  0  0  0  0  0  0  0  0  0
  -24.1650  -13.1660   20.8650 C   0  0  0  0  0  0  0  0  0  0  0  0
  -24.6270  -11.8140   20.8240 C   0  0  0  0  0  0  0  0  0  0  0  0
  -26.2710  -13.0640   20.2530 N   0  0  0  0  0  0  0  0  0  0  0  0
  -25.9170  -11.7770   20.5140 N   0  0  0  0  0  0  0  0  0  0  0  0
  -23.8980  -10.5530   21.0050 C   0  0  0  0  0  0  0  0  0  0  0  0
  -24.3180   -9.5800   21.9410 C   0  0  0  0  0  3  0  0  0  0  0  0
  -23.5860   -8.3840   22.1090 C   0  0  0  0  0  3  0  0  0  0  0  0
  -22.4200   -8.1520   21.3420 C   0  0  0  0  0  0  0  0  0  0  0  0
  -22.0220   -9.1120   20.3930 C   0  0  0  0  0  3  0  0  0  0  0  0
  -22.7550  -10.2990   20.2220 C   0  0  0  0  0  3  0  0  0  0  0  0
  -21.6590   -7.0110   21.4210 O   0  0  0  0  0  0  0  0  0  0  0  0
  -21.5840   -6.2740   22.5750 C   0  0  0  0  0  0  0  0  0  0  0  0
  -21.0980   -6.8260   23.7810 C   0  0  0  0  0  3  0  0  0  0  0  0
  -20.9710   -6.0150   24.9260 C   0  0  0  0  0  3  0  0  0  0  0  0
  -21.3170   -4.6520   24.8670 C   0  0  0  0  0  0  0  0  0  0  0  0
  -21.7960   -4.1000   23.6660 C   0  0  0  0  0  3  0  0  0  0  0  0
  -21.9260   -4.9080   22.5230 C   0  0  0  0  0  0  0  0  0  0  0  0
  -22.3650   -4.3630   21.3630 F   0  0  0  0  0  0  0  0  0  0  0  0
  -21.1900   -3.8710   25.9650 F   0  0  0  0  0  0  0  0  0  0  0  0
  -22.7690  -13.6420   21.1380 C   0  0  0  0  0  0  0  0  0  0  0  0
  -22.0390  -12.9410   21.9970 N   0  0  0  0  0  0  0  0  0  0  0  0
  -22.3330  -14.6740   20.6260 O   0  0  0  0  0  0  0  0  0  0  0  0
  -22.4040  -12.1050   22.4320 H   0  0  0  0  0  0  0  0  0  0  0  0
  -21.1040  -13.2440   22.2250 H   0  0  0  0  0  0  0  0  0  0  0  0
  -25.3960  -15.3140   20.3340 N   0  0  0  0  0  0  0  0  0  0  0  0
  -24.6400  -15.9750   20.4620 H   0  0  0  0  0  0  0  0  0  0  0  0
  -26.2450  -15.7500   19.9950 H   0  0  0  0  0  0  0  0  0  0  0  0
  -28.2560  -26.2820   20.1850 O   0  0  0  0  0  0  0  0  0  0  0  0
  -24.6440  -31.9240   23.2260 C   0  0  0  0  0  0  0  0  0  0  0  0
  -27.2170  -27.2650   20.1690 C   0  0  0  0  0  0  0  0  0  0  0  0
  -23.4380  -30.5290   21.5900 C   0  0  0  0  0  3  0  0  0  0  0  0
  -24.8850  -28.9700   20.1530 C   0  0  0  0  0  0  0  0  0  0  0  0
  -25.9870  -30.8150   21.4110 C   0  0  0  0  0  2  0  0  0  0  0  0
  -26.0620  -29.4250   20.7610 C   0  0  0  0  0  0  0  0  0  0  0  0
  -27.2340  -28.5840   20.7600 C   0  0  0  0  0  3  0  0  0  0  0  0
  -26.0220  -26.9050   19.5150 C   0  0  0  0  0  3  0  0  0  0  0  0
  -24.8750  -27.7220   19.5140 C   0  0  0  0  0  3  0  0  0  0  0  0
  -23.6550  -29.8620   20.2050 C   0  0  0  0  0  2  0  0  0  0  0  0
  -24.7090  -31.1100   22.1310 N   0  0  0  0  0  0  0  0  0  0  0  0
  -23.5610  -32.2060   23.7610 O   0  0  0  0  0  0  0  0  0  0  0  0
  -22.7740  -29.5140   22.5530 C   0  0  0  0  0  0  0  0  0  0  0  0
  -21.4480  -29.3320   22.4310 N   0  0  0  0  0  0  0  0  0  0  0  0
  -23.4540  -28.8920   23.3730 O   0  0  0  0  0  0  0  0  0  0  0  0
  -20.9540  -29.8860   21.7460 H   0  0  0  0  0  0  0  0  0  0  0  0
  -18.0760  -28.1150   22.9510 C   0  0  0  0  0  0  0  0  0  0  0  0
  -20.6360  -28.3910   23.2070 C   0  0  0  0  0  3  0  0  0  0  0  0
  -20.7430  -26.9590   22.6350 C   0  0  0  0  0  2  0  0  0  0  0  0
  -19.6380  -26.6280   21.6260 C   0  0  0  0  0  2  0  0  0  0  0  0
  -18.2580  -26.7660   22.2770 C   0  0  0  0  0  2  0  0  0  0  0  0
  -19.1920  -28.8840   23.3750 C   0  0  0  0  0  0  0  0  0  0  0  0
  -18.9690  -30.1450   23.9720 C   0  0  0  0  0  3  0  0  0  0  0  0
  -17.6620  -30.6380   24.1440 C   0  0  0  0  0  3  0  0  0  0  0  0
  -16.5600  -29.8680   23.7330 C   0  0  0  0  0  3  0  0  0  0  0  0
  -16.7690  -28.6080   23.1440 C   0  0  0  0  0  3  0  0  0  0  0  0
  -25.9260  -32.5640   23.8430 C   0  0  0  0  0  3  0  0  0  0  0  0
  -25.6160  -33.9650   24.1660 N   0  0  0  0  0  0  0  0  0  0  0  0
  -25.9420  -35.0160   23.4020 C   0  0  0  0  0  0  0  0  0  0  0  0
  -26.6050  -34.9080   22.3670 O   0  0  0  0  0  0  0  0  0  0  0  0
  -25.0270  -34.1220   24.9710 H   0  0  0  0  0  0  0  0  0  0  0  0
  -24.2180  -36.8150   23.0470 C   0  0  0  0  0  1  0  0  0  0  0  0
  -25.4600  -36.4090   23.8580 C   0  0  0  0  0  3  0  0  0  0  0  0
  -27.5970  -37.2950   24.6840 C   0  0  0  0  0  1  0  0  0  0  0  0
  -26.4950  -37.4590   23.7390 N   0  0  0  0  0  0  0  0  0  0  0  0
  -26.0910  -38.3810   23.8790 H   0  0  0  0  0  0  0  0  0  0  0  0
  -26.4430  -31.8000   25.1250 C   0  0  1  0  0  0  0  0  0  0  0  0
  -25.3500  -31.5700   26.1940 C   0  0  0  0  0  1  0  0  0  0  0  0
  -27.0240  -30.4180   24.7450 C   0  0  0  0  0  1  0  0  0  0  0  0
  -27.5950  -32.5960   25.7800 C   0  0  0  0  0  1  0  0  0  0  0  0
  1  4  2  0
  1  3  1  0
  2  5  1  0
  2  1  1  0
  3  7  2  0
  5  3  1  0
  6  2  2  0
  8  9  2  0
  8 10  1  0
  9 12  1  0
 10 13  2  0
 12  5  1  0
 12 11  2  0
 13 11  1  0
 13 22  1  0
 14 22  1  0
 15 20  1  0
 16 17  1  0
 16 15  1  0
 18 17  1  0
 18 27  1  0
 18 19  1  0
 20 14  1  0
 20 19  1  0
 21 14  2  0
 22 23  1  0
 24 25  2  0
 25 44  1  0
 26 25  1  0
 26 29  1  0
 27 24  1  0
 27 28  1  0
 28 26  2  0
 29 30  1  0
 30 31  2  0
 32 35  1  0
 32 31  1  0
 33 32  2  0
 34 33  1  0
 34 29  2  0
 35 36  1  0
 36 37  1  0
 37 38  2  0
 39 38  1  0
 39 43  1  0
 40 39  2  0
 41 36  2  0
 41 40  1  0
 42 41  1  0
 44 45  1  0
 45 48  1  0
 45 47  1  0
 46 44  2  0
 49 50  1  0
 49 24  1  0
 51 49  1  0
 52  4  1  0
 53 64  2  0
 54 52  1  0
 54 59  1  0
 55 63  1  0
 55 65  1  0
 56 62  1  0
 56 58  1  0
 57 63  1  0
 58 57  1  0
 59 58  2  0
 60 54  2  0
 61 60  1  0
 61 56  2  0
 62 55  1  0
 63 53  1  0
 65 67  2  0
 66 65  1  0
 68 66  1  0
 69 78  2  0
 69 74  1  0
 70 66  1  0
 70 74  1  0
 71 70  1  0
 72 73  1  0
 72 71  1  0
 73 69  1  0
 74 75  2  0
 75 76  1  0
 77 76  2  0
 78 77  1  0
 79 53  1  0
 79 80  1  0
 79 89  1  0
 80 83  1  0
 81 85  1  0
 81 80  1  0
 82 81  2  0
 85 84  1  0
 87 85  1  0
 87 88  1  0
 87 86  1  0
 89 92  1  1
 89 90  1  0
 91 89  1  0
M  ISO  4   4 101  14 100  22 100  52 101
M  END
>  <TORSDO>  (73) 
F 17

>  <SCORE>  (73) 
-14.976

>  <name>  (73) 
73

>  <ligand_id>  (73) 
73

>  <original_smiles>  (73) 
[H]C(Oc1c([H])c([H])c2c(c1[H])C([H])([H])N(C(=O)C([H])(N([H])C(=O)C([H])(N([H])C([H])([H])[H])C([H])([H])[H])C(C([H])([H])[H])(C([H])([H])[H])C([H])([H])[H])C([H])(C(=O)N([H])C1([H])c3c([H])c([H])c([H])c([H])c3C([H])([H])C([H])([H])C1([H])[H])C2([H])[H])=C1C(=O)N(c2c([H])c([H])c([H])c(N([H])C(=O)N3C([H])([H])C([H])([H])C([H])([H])C([H])(n4nc(-c5c([H])c([H])c(Oc6c([H])c([H])c(F)c([H])c6F)c([H])c5[H])c(C(=O)N([H])[H])c4N([H])[H])C3([H])[H])c2[H])C1=O

>  <smiles>  (73) 
[H]C(Oc1c([H])c([H])c2c(c1[H])C([H])([H])N(C(=O)C([H])(N([H])C(=O)C([H])(N([H])C([H])([H])[H])C([H])([H])[H])C(C([H])([H])[H])(C([H])([H])[H])C([H])([H])[H])C([H])(C(=O)N([H])C1([H])c3c([H])c([H])c([H])c([H])c3C([H])([H])C([H])([H])C1([H])[H])C2([H])[H])=C1C(=O)N(c2c([H])c([H])c([H])c(N([H])C(=O)N3C([H])([H])C([H])([H])C([H])([H])C([H])(n4nc(-c5c([H])c([H])c(Oc6c([H])c([H])c(F)c([H])c6F)c([H])c5[H])c(C(=O)N([H])[H])c4N([H])[H])C3([H])[H])c2[H])C1=O

$$$$
74:0:0
     RDKit          3D

 96105  0  0  1  0  0  0  0  0999 V2000
  -31.5910  -20.1740   21.3640 C   0  0  0  0  0  3  0  0  0  0  0  0
  -31.0810  -18.8690   21.1460 C   0  0  0  0  0  3  0  0  0  0  0  0
  -30.8860  -21.3460   20.9860 C   0  0  0  0  0  3  0  0  0  0  0  0
  -29.1450  -19.9250   20.1180 C   0  0  0  0  0  3  0  0  0  0  0  0
  -29.8310  -18.6880   20.5240 C   0  0  0  0  0  0  0  0  0  0  0  0
  -29.6250  -21.2880   20.3420 C   0  0  0  0  0  0  0  0  0  0  0  0
  -30.5010  -14.8700   20.3650 C   0  0  0  0  0  0  0  0  0  0  0  0
  -30.4380  -12.5750   19.3380 C   0  0  0  0  0  2  0  0  0  0  0  0
  -29.4880  -12.6230   18.1150 C   0  0  0  0  0  2  0  0  0  0  0  0
  -28.0140  -12.4280   18.5350 C   0  0  0  0  0  2  0  0  0  0  0  0
  -27.6230  -13.3070   19.7510 C   0  0  0  0  0  3  0  0  0  0  0  0
  -28.6790  -13.1930   20.8760 C   0  0  0  0  0  2  0  0  0  0  0  0
  -29.9790  -13.5920   20.3080 N   0  0  0  0  0  0  0  0  0  0  0  0
  -31.6790  -15.1080   20.0700 O   0  0  0  0  0  0  0  0  0  0  0  0
  -29.1510  -17.3010   20.4850 C   0  0  0  0  0  0  0  0  0  0  0  0
  -29.4520  -15.9300   20.5010 N   0  0  0  0  0  0  0  0  0  0  0  0
  -27.8190  -17.4030   20.4820 N   0  0  0  0  0  4  0  0  0  0  0  0
  -28.5540  -15.5360   20.6880 H   0  0  0  0  0  0  0  0  0  0  0  0
  -27.4500  -18.0200   21.1950 H   0  0  0  0  0  0  0  0  0  0  0  0
  -27.4380  -17.6350   19.5740 H   0  0  0  0  0  0  0  0  0  0  0  0
  -25.2210  -13.9070   20.4430 C   0  0  0  0  0  0  0  0  0  0  0  0
  -24.1530  -13.1350   20.8050 C   0  0  0  0  0  0  0  0  0  0  0  0
  -24.6200  -11.7850   20.7940 C   0  0  0  0  0  0  0  0  0  0  0  0
  -26.2720  -13.0260   20.2280 N   0  0  0  0  0  0  0  0  0  0  0  0
  -25.9150  -11.7470   20.5030 N   0  0  0  0  0  0  0  0  0  0  0  0
  -23.8950  -10.5250   20.9880 C   0  0  0  0  0  0  0  0  0  0  0  0
  -24.3140   -9.5710   21.9410 C   0  0  0  0  0  3  0  0  0  0  0  0
  -23.5890   -8.3730   22.1210 C   0  0  0  0  0  3  0  0  0  0  0  0
  -22.4300   -8.1230   21.3480 C   0  0  0  0  0  0  0  0  0  0  0  0
  -22.0300   -9.0660   20.3850 C   0  0  0  0  0  3  0  0  0  0  0  0
  -22.7560  -10.2550   20.2020 C   0  0  0  0  0  3  0  0  0  0  0  0
  -21.6790   -6.9770   21.4360 O   0  0  0  0  0  0  0  0  0  0  0  0
  -21.6060   -6.2520   22.5990 C   0  0  0  0  0  0  0  0  0  0  0  0
  -21.1330   -6.8190   23.8020 C   0  0  0  0  0  3  0  0  0  0  0  0
  -21.0090   -6.0210   24.9570 C   0  0  0  0  0  3  0  0  0  0  0  0
  -21.3470   -4.6550   24.9080 C   0  0  0  0  0  0  0  0  0  0  0  0
  -21.8130   -4.0870   23.7090 C   0  0  0  0  0  3  0  0  0  0  0  0
  -21.9390   -4.8830   22.5570 C   0  0  0  0  0  0  0  0  0  0  0  0
  -22.3690   -4.3260   21.3990 F   0  0  0  0  0  0  0  0  0  0  0  0
  -21.2210   -3.8840   26.0140 F   0  0  0  0  0  0  0  0  0  0  0  0
  -22.7510  -13.6130   21.0540 C   0  0  0  0  0  0  0  0  0  0  0  0
  -22.0090  -12.9200   21.9100 N   0  0  0  0  0  0  0  0  0  0  0  0
  -22.3210  -14.6370   20.5230 O   0  0  0  0  0  0  0  0  0  0  0  0
  -22.3690  -12.0910   22.3610 H   0  0  0  0  0  0  0  0  0  0  0  0
  -21.0690  -13.2240   22.1190 H   0  0  0  0  0  0  0  0  0  0  0  0
  -25.3750  -15.2780   20.2620 N   0  0  0  0  0  0  0  0  0  0  0  0
  -24.5940  -15.9130   20.3850 H   0  0  0  0  0  0  0  0  0  0  0  0
  -26.2230  -15.7550   19.9970 H   0  0  0  0  0  0  0  0  0  0  0  0
  -28.2070  -24.9220   18.4330 C   0  0  0  0  0  3  0  0  0  0  0  0
  -28.4180  -25.0630   19.7570 C   0  0  0  0  0  0  0  0  0  0  0  0
  -28.9300  -23.8270   20.5080 C   0  0  0  0  0  0  0  0  0  0  0  0
  -28.2820  -23.6120   17.6880 C   0  0  0  0  0  2  0  0  0  0  0  0
  -28.1530  -22.4150   18.6400 C   0  0  0  0  0  2  0  0  0  0  0  0
  -28.9440  -22.5570   19.8760 N   0  0  0  0  0  0  0  0  0  0  0  0
  -29.3400  -23.9300   21.6680 O   0  0  0  0  0  0  0  0  0  0  0  0
  -28.3550  -26.3980   20.3040 O   0  0  0  0  0  0  0  0  0  0  0  0
  -24.6030  -31.9320   23.2160 C   0  0  0  0  0  0  0  0  0  0  0  0
  -27.2360  -27.2830   20.2130 C   0  0  0  0  0  0  0  0  0  0  0  0
  -23.4110  -30.5150   21.5870 C   0  0  0  0  0  3  0  0  0  0  0  0
  -24.8710  -28.9460   20.1810 C   0  0  0  0  0  0  0  0  0  0  0  0
  -25.9580  -30.8160   21.4160 C   0  0  0  0  0  2  0  0  0  0  0  0
  -26.0420  -29.4270   20.7770 C   0  0  0  0  0  0  0  0  0  0  0  0
  -27.2230  -28.6100   20.7780 C   0  0  0  0  0  3  0  0  0  0  0  0
  -26.0220  -26.8660   19.6180 C   0  0  0  0  0  3  0  0  0  0  0  0
  -24.8670  -27.6730   19.5920 C   0  0  0  0  0  3  0  0  0  0  0  0
  -23.6350  -29.8270   20.2140 C   0  0  0  0  0  2  0  0  0  0  0  0
  -24.6770  -31.1080   22.1280 N   0  0  0  0  0  0  0  0  0  0  0  0
  -23.5160  -32.2150   23.7400 O   0  0  0  0  0  0  0  0  0  0  0  0
  -22.7400  -29.5110   22.5550 C   0  0  0  0  0  0  0  0  0  0  0  0
  -21.4120  -29.3360   22.4290 N   0  0  0  0  0  0  0  0  0  0  0  0
  -23.4140  -28.8910   23.3820 O   0  0  0  0  0  0  0  0  0  0  0  0
  -20.9260  -29.8900   21.7370 H   0  0  0  0  0  0  0  0  0  0  0  0
  -18.0280  -28.1670   22.9570 C   0  0  0  0  0  0  0  0  0  0  0  0
  -20.5900  -28.4070   23.2070 C   0  0  0  0  0  3  0  0  0  0  0  0
  -20.6750  -26.9730   22.6320 C   0  0  0  0  0  2  0  0  0  0  0  0
  -19.5630  -26.6590   21.6270 C   0  0  0  0  0  2  0  0  0  0  0  0
  -18.1880  -26.8150   22.2800 C   0  0  0  0  0  2  0  0  0  0  0  0
  -19.1550  -28.9200   23.3770 C   0  0  0  0  0  0  0  0  0  0  0  0
  -18.9500  -30.1850   23.9710 C   0  0  0  0  0  3  0  0  0  0  0  0
  -17.6500  -30.6950   24.1480 C   0  0  0  0  0  3  0  0  0  0  0  0
  -16.5370  -29.9380   23.7420 C   0  0  0  0  0  3  0  0  0  0  0  0
  -16.7260  -28.6760   23.1530 C   0  0  0  0  0  3  0  0  0  0  0  0
  -25.8790  -32.5760   23.8400 C   0  0  0  0  0  3  0  0  0  0  0  0
  -25.5610  -33.9750   24.1630 N   0  0  0  0  0  0  0  0  0  0  0  0
  -25.8990  -35.0290   23.4080 C   0  0  0  0  0  0  0  0  0  0  0  0
  -26.5810  -34.9260   22.3850 O   0  0  0  0  0  0  0  0  0  0  0  0
  -24.9560  -34.1290   24.9570 H   0  0  0  0  0  0  0  0  0  0  0  0
  -24.1820  -36.8270   23.0250 C   0  0  0  0  0  1  0  0  0  0  0  0
  -25.4060  -36.4180   23.8600 C   0  0  0  0  0  3  0  0  0  0  0  0
  -27.5200  -37.3010   24.7420 C   0  0  0  0  0  1  0  0  0  0  0  0
  -26.4430  -37.4690   23.7710 N   0  0  0  0  0  0  0  0  0  0  0  0
  -26.0340  -38.3900   23.9070 H   0  0  0  0  0  0  0  0  0  0  0  0
  -26.3930  -31.8160   25.1240 C   0  0  1  0  0  0  0  0  0  0  0  0
  -25.2950  -31.5780   26.1880 C   0  0  0  0  0  1  0  0  0  0  0  0
  -26.9880  -30.4400   24.7470 C   0  0  0  0  0  1  0  0  0  0  0  0
  -27.5340  -32.6220   25.7880 C   0  0  0  0  0  1  0  0  0  0  0  0
  2  1  1  0
  3  1  2  0
  4  6  2  0
  4  5  1  0
  5  2  2  0
  6  3  1  0
  7 16  1  0
  8 13  1  0
  9 10  1  0
  9  8  1  0
 11 10  1  0
 11 24  1  0
 11 12  1  0
 13  7  1  0
 13 12  1  0
 14  7  2  0
 15 16  1  0
 15  5  1  0
 16 18  1  0
 17 15  2  0
 17 19  1  0
 20 17  1  0
 21 22  2  0
 22 41  1  0
 23 22  1  0
 23 26  1  0
 24 21  1  0
 24 25  1  0
 25 23  2  0
 26 27  1  0
 27 28  2  0
 29 32  1  0
 29 28  1  0
 30 29  2  0
 31 30  1  0
 31 26  2  0
 32 33  1  0
 33 34  1  0
 34 35  2  0
 36 35  1  0
 36 40  1  0
 37 36  2  0
 38 33  2  0
 38 37  1  0
 39 38  1  0
 41 42  1  0
 42 45  1  0
 42 44  1  0
 43 41  2  0
 46 47  1  0
 46 21  1  0
 48 46  1  0
 49 50  2  0
 50 56  1  0
 50 51  1  0
 51 55  2  0
 52 49  1  0
 52 53  1  0
 53 54  1  0
 54  6  1  0
 54 51  1  0
 57 68  2  0
 58 56  1  0
 58 63  1  0
 59 67  1  0
 59 69  1  0
 60 66  1  0
 60 62  1  0
 61 67  1  0
 62 63  2  0
 62 61  1  0
 64 58  2  0
 65 64  1  0
 65 60  2  0
 66 59  1  0
 67 57  1  0
 69 71  2  0
 70 69  1  0
 72 70  1  0
 73 82  2  0
 73 78  1  0
 74 70  1  0
 74 78  1  0
 75 74  1  0
 76 77  1  0
 76 75  1  0
 77 73  1  0
 78 79  2  0
 79 80  1  0
 81 80  2  0
 82 81  1  0
 83 57  1  0
 83 84  1  0
 83 93  1  0
 84 87  1  0
 85 89  1  0
 85 84  1  0
 86 85  2  0
 89 88  1  0
 91 89  1  0
 91 92  1  0
 91 90  1  0
 93 96  1  1
 93 94  1  0
 95 93  1  0
M  ISO  4   7 100  16 100  50 101  56 101
M  END
>  <TORSDO>  (74) 
F 17

>  <SCORE>  (74) 
-15.510

>  <name>  (74) 
74

>  <ligand_id>  (74) 
74

>  <original_smiles>  (74) 
[H]C1=C(Oc2c([H])c([H])c3c(c2[H])C([H])([H])N(C(=O)C([H])(N([H])C(=O)C([H])(N([H])C([H])([H])[H])C([H])([H])[H])C(C([H])([H])[H])(C([H])([H])[H])C([H])([H])[H])C([H])(C(=O)N([H])C2([H])c4c([H])c([H])c([H])c([H])c4C([H])([H])C([H])([H])C2([H])[H])C3([H])[H])C(=O)N(c2c([H])c([H])c([H])c(C(N([H])C(=O)N3C([H])([H])C([H])([H])C([H])([H])C([H])(n4nc(-c5c([H])c([H])c(Oc6c([H])c([H])c(F)c([H])c6F)c([H])c5[H])c(C(=O)N([H])[H])c4N([H])[H])C3([H])[H])=[N+]([H])[H])c2[H])C([H])([H])C1([H])[H]

>  <smiles>  (74) 
[H]C1=C(Oc2c([H])c([H])c3c(c2[H])C([H])([H])N(C(=O)C([H])(N([H])C(=O)C([H])(N([H])C([H])([H])[H])C([H])([H])[H])C(C([H])([H])[H])(C([H])([H])[H])C([H])([H])[H])C([H])(C(=O)N([H])C2([H])c4c([H])c([H])c([H])c([H])c4C([H])([H])C([H])([H])C2([H])[H])C3([H])[H])C(=O)N(c2c([H])c([H])c([H])c(C(N([H])C(=O)N3C([H])([H])C([H])([H])C([H])([H])C([H])(n4nc(-c5c([H])c([H])c(Oc6c([H])c([H])c(F)c([H])c6F)c([H])c5[H])c(C(=O)N([H])[H])c4N([H])[H])C3([H])[H])=[N+]([H])[H])c2[H])C([H])([H])C1([H])[H]

$$$$
75:0:0
     RDKit          3D

 93101  0  0  1  0  0  0  0  0999 V2000
  -30.4180  -22.0330   21.2730 C   0  0  0  0  0  3  0  0  0  0  0  0
  -30.4560  -23.2540   21.6490 N   0  0  0  0  0  0  0  0  0  0  0  0
  -29.6710  -24.1910   20.9910 C   0  0  0  0  0  0  0  0  0  0  0  0
  -28.9380  -23.9930   20.0170 O   0  0  0  0  0  0  0  0  0  0  0  0
  -29.8370  -25.4820   21.6460 C   0  0  0  0  0  3  0  0  0  0  0  0
  -29.3090  -26.6450   21.2080 C   0  0  0  0  0  3  0  0  0  0  0  0
  -28.5570  -26.7940   20.0710 O   0  0  0  0  0  0  0  0  0  0  0  0
  -24.5650  -31.8000   23.2560 C   0  0  0  0  0  0  0  0  0  0  0  0
  -27.3870  -27.5180   20.1370 C   0  0  0  0  0  0  0  0  0  0  0  0
  -23.4090  -30.3740   21.5940 C   0  0  0  0  0  3  0  0  0  0  0  0
  -24.9230  -28.9050   20.1590 C   0  0  0  0  0  0  0  0  0  0  0  0
  -25.9150  -30.8390   21.3970 C   0  0  0  0  0  2  0  0  0  0  0  0
  -26.0550  -29.4780   20.7510 C   0  0  0  0  0  0  0  0  0  0  0  0
  -27.2880  -28.7960   20.7390 C   0  0  0  0  0  3  0  0  0  0  0  0
  -26.2400  -26.9550   19.5420 C   0  0  0  0  0  3  0  0  0  0  0  0
  -25.0080  -27.6390   19.5520 C   0  0  0  0  0  3  0  0  0  0  0  0
  -23.6440  -29.7130   20.2090 C   0  0  0  0  0  2  0  0  0  0  0  0
  -24.6470  -31.0180   22.1420 N   0  0  0  0  0  0  0  0  0  0  0  0
  -23.4740  -32.0270   23.7980 O   0  0  0  0  0  0  0  0  0  0  0  0
  -22.7960  -29.3210   22.5430 C   0  0  0  0  0  0  0  0  0  0  0  0
  -21.4900  -29.0590   22.3790 N   0  0  0  0  0  0  0  0  0  0  0  0
  -23.4940  -28.7410   23.3790 O   0  0  0  0  0  0  0  0  0  0  0  0
  -20.9870  -29.5810   21.6750 H   0  0  0  0  0  0  0  0  0  0  0  0
  -18.1910  -27.6350   22.7470 C   0  0  0  0  0  0  0  0  0  0  0  0
  -20.7090  -28.0780   23.1300 C   0  0  0  0  0  3  0  0  0  0  0  0
  -20.9390  -26.6490   22.5860 C   0  0  0  0  0  2  0  0  0  0  0  0
  -19.9090  -26.2330   21.5290 C   0  0  0  0  0  2  0  0  0  0  0  0
  -18.4940  -26.2900   22.1080 C   0  0  0  0  0  2  0  0  0  0  0  0
  -19.2320  -28.4810   23.2130 C   0  0  0  0  0  0  0  0  0  0  0  0
  -18.8990  -29.7360   23.7680 C   0  0  0  0  0  3  0  0  0  0  0  0
  -17.5560  -30.1470   23.8640 C   0  0  0  0  0  3  0  0  0  0  0  0
  -16.5280  -29.2980   23.4150 C   0  0  0  0  0  3  0  0  0  0  0  0
  -16.8470  -28.0450   22.8630 C   0  0  0  0  0  3  0  0  0  0  0  0
  -25.8290  -32.4670   23.8840 C   0  0  0  0  0  3  0  0  0  0  0  0
  -26.3340  -31.7370   25.1880 C   0  0  1  0  0  0  0  0  0  0  0  0
  -25.2240  -31.5050   26.2400 C   0  0  0  0  0  1  0  0  0  0  0  0
  -26.9490  -30.3610   24.8380 C   0  0  0  0  0  1  0  0  0  0  0  0
  -27.4580  -32.5670   25.8520 C   0  0  0  0  0  1  0  0  0  0  0  0
  -25.4940  -33.8680   24.1670 N   0  0  0  0  0  0  0  0  0  0  0  0
  -25.8140  -34.9000   23.3750 C   0  0  0  0  0  0  0  0  0  0  0  0
  -26.4920  -34.7740   22.3520 O   0  0  0  0  0  0  0  0  0  0  0  0
  -24.8910  -34.0390   24.9590 H   0  0  0  0  0  0  0  0  0  0  0  0
  -24.0460  -36.6400   22.9590 C   0  0  0  0  0  1  0  0  0  0  0  0
  -25.2970  -36.2950   23.7820 C   0  0  0  0  0  3  0  0  0  0  0  0
  -27.4130  -37.2560   24.5760 C   0  0  0  0  0  1  0  0  0  0  0  0
  -26.3080  -37.3630   23.6270 N   0  0  0  0  0  0  0  0  0  0  0  0
  -25.8820  -38.2800   23.7390 H   0  0  0  0  0  0  0  0  0  0  0  0
  -31.2670  -20.9760   21.9670 C   0  0  0  0  0  2  0  0  0  0  0  0
  -32.0740  -18.6590   21.2940 C   0  0  0  0  0  3  0  0  0  0  0  0
  -31.8520  -17.2910   21.0380 C   0  0  0  0  0  3  0  0  0  0  0  0
  -29.6850  -18.9920   21.6220 C   0  0  0  0  0  3  0  0  0  0  0  0
  -30.9950  -19.5210   21.5930 C   0  0  0  0  0  0  0  0  0  0  0  0
  -30.5390  -16.7610   21.0650 C   0  0  0  0  0  0  0  0  0  0  0  0
  -29.4630  -17.6240   21.3600 C   0  0  0  0  0  0  0  0  0  0  0  0
  -28.2020  -17.1260   21.4000 F   0  0  0  0  0  0  0  0  0  0  0  0
  -30.7520  -14.5090   19.9870 C   0  0  0  0  0  0  0  0  0  0  0  0
  -30.2960  -12.4580   18.6920 C   0  0  0  0  0  2  0  0  0  0  0  0
  -29.2530  -12.7560   17.5970 C   0  0  0  0  0  2  0  0  0  0  0  0
  -27.8210  -12.6060   18.1490 C   0  0  0  0  0  2  0  0  0  0  0  0
  -27.6140  -13.3600   19.4890 C   0  0  0  0  0  3  0  0  0  0  0  0
  -28.7560  -13.0400   20.4790 C   0  0  0  0  0  2  0  0  0  0  0  0
  -30.0370  -13.3640   19.8220 N   0  0  0  0  0  0  0  0  0  0  0  0
  -31.7810  -14.7450   19.3470 O   0  0  0  0  0  0  0  0  0  0  0  0
  -30.2170  -15.3890   20.8490 N   0  0  0  0  0  0  0  0  0  0  0  0
  -29.3530  -15.0900   21.2740 H   0  0  0  0  0  0  0  0  0  0  0  0
  -25.2790  -13.9460   20.4060 C   0  0  0  0  0  0  0  0  0  0  0  0
  -24.2420  -13.1600   20.8350 C   0  0  0  0  0  0  0  0  0  0  0  0
  -24.6960  -11.8110   20.7230 C   0  0  0  0  0  0  0  0  0  0  0  0
  -26.3020  -13.0730   20.0650 N   0  0  0  0  0  0  0  0  0  0  0  0
  -25.9570  -11.7810   20.3100 N   0  0  0  0  0  0  0  0  0  0  0  0
  -23.9860  -10.5430   20.9320 C   0  0  0  0  0  0  0  0  0  0  0  0
  -24.4690   -9.5650   21.8290 C   0  0  0  0  0  3  0  0  0  0  0  0
  -23.7590   -8.3600   22.0260 C   0  0  0  0  0  3  0  0  0  0  0  0
  -22.5510   -8.1270   21.3260 C   0  0  0  0  0  0  0  0  0  0  0  0
  -22.0870   -9.0940   20.4180 C   0  0  0  0  0  3  0  0  0  0  0  0
  -22.7980  -10.2890   20.2190 C   0  0  0  0  0  3  0  0  0  0  0  0
  -21.8080   -6.9770   21.4340 O   0  0  0  0  0  0  0  0  0  0  0  0
  -21.7760   -6.2460   22.5960 C   0  0  0  0  0  0  0  0  0  0  0  0
  -21.3630   -6.8130   23.8210 C   0  0  0  0  0  3  0  0  0  0  0  0
  -21.2790   -6.0090   24.9750 C   0  0  0  0  0  3  0  0  0  0  0  0
  -21.5970   -4.6390   24.9060 C   0  0  0  0  0  0  0  0  0  0  0  0
  -22.0040   -4.0720   23.6850 C   0  0  0  0  0  3  0  0  0  0  0  0
  -22.0890   -4.8730   22.5320 C   0  0  0  0  0  0  0  0  0  0  0  0
  -22.4610   -4.3170   21.3540 F   0  0  0  0  0  0  0  0  0  0  0  0
  -21.5100   -3.8650   26.0120 F   0  0  0  0  0  0  0  0  0  0  0  0
  -22.8740  -13.6280   21.2390 C   0  0  0  0  0  0  0  0  0  0  0  0
  -22.2290  -12.9160   22.1570 N   0  0  0  0  0  0  0  0  0  0  0  0
  -22.3870  -14.6580   20.7770 O   0  0  0  0  0  0  0  0  0  0  0  0
  -22.6360  -12.0820   22.5530 H   0  0  0  0  0  0  0  0  0  0  0  0
  -21.3140  -13.2100   22.4690 H   0  0  0  0  0  0  0  0  0  0  0  0
  -25.4320  -15.3200   20.2620 N   0  0  0  0  0  0  0  0  0  0  0  0
  -24.6880  -15.9740   20.4810 H   0  0  0  0  0  0  0  0  0  0  0  0
  -26.2780  -15.7770   19.9450 H   0  0  0  0  0  0  0  0  0  0  0  0
  1  2  2  0
  1 48  1  0
  3  5  1  0
  3  2  1  0
  4  3  2  0
  6  5  2  0
  7  9  1  0
  7  6  1  0
  8 19  2  0
  9 14  1  0
 10 18  1  0
 10 20  1  0
 11 17  1  0
 11 13  1  0
 12 18  1  0
 13 12  1  0
 14 13  2  0
 15 16  1  0
 15  9  2  0
 16 11  2  0
 17 10  1  0
 18  8  1  0
 20 22  2  0
 21 20  1  0
 23 21  1  0
 24 33  2  0
 24 29  1  0
 25 21  1  0
 25 29  1  0
 26 25  1  0
 27 28  1  0
 27 26  1  0
 28 24  1  0
 29 30  2  0
 30 31  1  0
 32 31  2  0
 33 32  1  0
 34  8  1  0
 34 39  1  0
 34 35  1  0
 35 38  1  1
 35 36  1  0
 37 35  1  0
 39 42  1  0
 40 44  1  0
 40 39  1  0
 41 40  2  0
 44 43  1  0
 46 47  1  0
 46 44  1  0
 46 45  1  0
 49 52  1  0
 50 53  1  0
 50 49  2  0
 52 51  2  0
 52 48  1  0
 53 54  2  0
 54 55  1  0
 54 51  1  0
 56 64  1  0
 57 62  1  0
 58 59  1  0
 58 57  1  0
 60 59  1  0
 60 69  1  0
 60 61  1  0
 62 56  1  0
 62 61  1  0
 63 56  2  0
 64 53  1  0
 64 65  1  0
 66 67  2  0
 67 86  1  0
 68 67  1  0
 68 71  1  0
 69 70  1  0
 69 66  1  0
 70 68  2  0
 71 72  1  0
 72 73  2  0
 74 77  1  0
 74 73  1  0
 75 74  2  0
 76 75  1  0
 76 71  2  0
 77 78  1  0
 78 79  1  0
 79 80  2  0
 81 80  1  0
 81 85  1  0
 82 81  2  0
 83 78  2  0
 83 82  1  0
 84 83  1  0
 86 87  1  0
 87 90  1  0
 87 89  1  0
 88 86  2  0
 91 66  1  0
 91 92  1  0
 93 91  1  0
M  ISO  4   6 101   7 101  56 100  64 100
M  END
>  <TORSDO>  (75) 
F 20

>  <SCORE>  (75) 
-12.746

>  <name>  (75) 
75

>  <ligand_id>  (75) 
75

>  <original_smiles>  (75) 
[H]C(=NC(=O)C([H])=C([H])Oc1c([H])c([H])c2c(c1[H])C([H])([H])N(C(=O)C([H])(N([H])C(=O)C([H])(N([H])C([H])([H])[H])C([H])([H])[H])C(C([H])([H])[H])(C([H])([H])[H])C([H])([H])[H])C([H])(C(=O)N([H])C1([H])c3c([H])c([H])c([H])c([H])c3C([H])([H])C([H])([H])C1([H])[H])C2([H])[H])C([H])([H])c1c([H])c([H])c(N([H])C(=O)N2C([H])([H])C([H])([H])C([H])([H])C([H])(n3nc(-c4c([H])c([H])c(Oc5c([H])c([H])c(F)c([H])c5F)c([H])c4[H])c(C(=O)N([H])[H])c3N([H])[H])C2([H])[H])c(F)c1[H]

>  <smiles>  (75) 
[H]C(=NC(=O)C([H])=C([H])Oc1c([H])c([H])c2c(c1[H])C([H])([H])N(C(=O)C([H])(N([H])C(=O)C([H])(N([H])C([H])([H])[H])C([H])([H])[H])C(C([H])([H])[H])(C([H])([H])[H])C([H])([H])[H])C([H])(C(=O)N([H])C1([H])c3c([H])c([H])c([H])c([H])c3C([H])([H])C([H])([H])C1([H])[H])C2([H])[H])C([H])([H])c1c([H])c([H])c(N([H])C(=O)N2C([H])([H])C([H])([H])C([H])([H])C([H])(n3nc(-c4c([H])c([H])c(Oc5c([H])c([H])c(F)c([H])c5F)c([H])c4[H])c(C(=O)N([H])[H])c3N([H])[H])C2([H])[H])c(F)c1[H]

$$$$
76:0:0
     RDKit          3D

 98107  0  0  1  0  0  0  0  0999 V2000
  -27.6760  -24.0750   21.2970 C   0  0  0  0  0  3  0  0  0  0  0  0
  -27.9520  -21.6850   21.4450 C   0  0  0  0  0  3  0  0  0  0  0  0
  -28.8770  -24.2740   20.7140 C   0  0  0  0  0  0  0  0  0  0  0  0
  -27.1830  -22.7660   21.6610 C   0  0  0  0  0  0  0  0  0  0  0  0
  -29.7000  -23.0020   20.4100 C   0  0  0  0  0  0  0  0  0  0  0  0
  -29.2100  -21.7280   20.8130 N   0  0  0  0  0  0  0  0  0  0  0  0
  -30.7950  -23.0810   19.8430 O   0  0  0  0  0  0  0  0  0  0  0  0
  -29.0240  -20.0060   19.0860 C   0  0  0  0  0  3  0  0  0  0  0  0
  -29.7800  -17.6660   19.2040 C   0  0  0  0  0  3  0  0  0  0  0  0
  -30.2260  -19.2160   21.0350 C   0  0  0  0  0  3  0  0  0  0  0  0
  -29.0610  -18.6980   18.5570 C   0  0  0  0  0  0  0  0  0  0  0  0
  -29.6090  -20.3510   20.3220 C   0  0  0  0  0  0  0  0  0  0  0  0
  -30.3380  -17.8450   20.4870 C   0  0  0  0  0  0  0  0  0  0  0  0
  -31.4460  -15.4320   20.7630 C   0  0  0  0  0  0  0  0  0  0  0  0
  -31.2450  -13.1080   19.8220 C   0  0  0  0  0  2  0  0  0  0  0  0
  -30.4460  -13.1010   18.5000 C   0  0  0  0  0  2  0  0  0  0  0  0
  -28.9400  -12.9650   18.7930 C   0  0  0  0  0  2  0  0  0  0  0  0
  -28.4640  -13.9350   19.9090 C   0  0  0  0  0  3  0  0  0  0  0  0
  -29.4010  -13.9330   21.1350 C   0  0  0  0  0  2  0  0  0  0  0  0
  -30.7530  -14.2370   20.6530 N   0  0  0  0  0  0  0  0  0  0  0  0
  -32.6420  -15.4390   20.4620 O   0  0  0  0  0  0  0  0  0  0  0  0
  -30.8450  -16.6200   21.2030 N   0  0  0  0  0  0  0  0  0  0  0  0
  -31.2840  -16.8820   22.0700 H   0  0  0  0  0  0  0  0  0  0  0  0
  -26.0590  -14.6280   20.4240 C   0  0  0  0  0  0  0  0  0  0  0  0
  -24.9320  -13.9030   20.6930 C   0  0  0  0  0  0  0  0  0  0  0  0
  -25.3340  -12.5300   20.7020 C   0  0  0  0  0  0  0  0  0  0  0  0
  -27.0770  -13.7000   20.2800 N   0  0  0  0  0  0  0  0  0  0  0  0
  -26.6450  -12.4330   20.5090 N   0  0  0  0  0  0  0  0  0  0  0  0
  -24.5330  -11.3020   20.8200 C   0  0  0  0  0  0  0  0  0  0  0  0
  -24.8870  -10.2720   21.7190 C   0  0  0  0  0  3  0  0  0  0  0  0
  -24.0910   -9.1130   21.8310 C   0  0  0  0  0  3  0  0  0  0  0  0
  -22.9240   -8.9760   21.0410 C   0  0  0  0  0  0  0  0  0  0  0  0
  -22.5870   -9.9930   20.1310 C   0  0  0  0  0  3  0  0  0  0  0  0
  -23.3850  -11.1450   20.0170 C   0  0  0  0  0  3  0  0  0  0  0  0
  -22.1060   -7.8730   21.0640 O   0  0  0  0  0  0  0  0  0  0  0  0
  -21.9410   -7.1200   22.2000 C   0  0  0  0  0  0  0  0  0  0  0  0
  -21.4780   -7.6860   23.4070 C   0  0  0  0  0  3  0  0  0  0  0  0
  -21.2550   -6.8660   24.5320 C   0  0  0  0  0  3  0  0  0  0  0  0
  -21.4850   -5.4790   24.4500 C   0  0  0  0  0  0  0  0  0  0  0  0
  -21.9400   -4.9110   23.2470 C   0  0  0  0  0  3  0  0  0  0  0  0
  -22.1650   -5.7290   22.1240 C   0  0  0  0  0  0  0  0  0  0  0  0
  -22.5820   -5.1750   20.9610 F   0  0  0  0  0  0  0  0  0  0  0  0
  -21.2660   -4.6880   25.5260 F   0  0  0  0  0  0  0  0  0  0  0  0
  -23.5400  -14.4450   20.8460 C   0  0  0  0  0  0  0  0  0  0  0  0
  -22.7110  -13.7990   21.6580 N   0  0  0  0  0  0  0  0  0  0  0  0
  -23.1940  -15.4820   20.2820 O   0  0  0  0  0  0  0  0  0  0  0  0
  -23.0020  -12.9660   22.1480 H   0  0  0  0  0  0  0  0  0  0  0  0
  -21.7710  -14.1460   21.7990 H   0  0  0  0  0  0  0  0  0  0  0  0
  -26.3030  -15.9890   20.2710 N   0  0  0  0  0  0  0  0  0  0  0  0
  -25.5550  -16.6720   20.2960 H   0  0  0  0  0  0  0  0  0  0  0  0
  -27.2090  -16.3890   20.0690 H   0  0  0  0  0  0  0  0  0  0  0  0
  -27.2400  -18.8810   17.0250 C   0  0  0  0  0  2  0  0  0  0  0  0
  -26.1170  -19.5140   16.7700 C   0  0  0  0  0  1  0  0  0  0  0  0
  -28.2630  -18.3760   17.4600 N   0  0  0  0  0  2  0  0  0  0  0  0
  -25.9930  -22.6310   22.2520 O   0  0  0  0  0  0  0  0  0  0  0  0
  -25.6080  -23.5000   22.3260 H   0  0  0  0  0  0  0  0  0  0  0  0
  -29.4410  -25.7810   20.8180 C   0  0  0  0  0  2  0  0  0  0  0  0
  -28.9830  -27.0100   20.0580 O   0  0  0  0  0  0  0  0  0  0  0  0
  -24.8390  -31.9480   23.6140 C   0  0  0  0  0  0  0  0  0  0  0  0
  -27.8130  -27.7820   20.2670 C   0  0  0  0  0  0  0  0  0  0  0  0
  -23.7800  -30.6520   21.8000 C   0  0  0  0  0  3  0  0  0  0  0  0
  -25.3690  -29.3150   20.3030 C   0  0  0  0  0  0  0  0  0  0  0  0
  -26.3080  -31.1080   21.7540 C   0  0  0  0  0  2  0  0  0  0  0  0
  -26.4920  -29.7920   20.9920 C   0  0  0  0  0  0  0  0  0  0  0  0
  -27.7220  -29.0450   20.9580 C   0  0  0  0  0  3  0  0  0  0  0  0
  -26.6640  -27.3760   19.5600 C   0  0  0  0  0  3  0  0  0  0  0  0
  -25.4620  -28.1140   19.5810 C   0  0  0  0  0  3  0  0  0  0  0  0
  -24.0880  -30.1270   20.3740 C   0  0  0  0  0  2  0  0  0  0  0  0
  -24.9920  -31.2520   22.4470 N   0  0  0  0  0  0  0  0  0  0  0  0
  -23.7220  -32.1090   24.1290 O   0  0  0  0  0  0  0  0  0  0  0  0
  -23.1470  -29.5080   22.6320 C   0  0  0  0  0  0  0  0  0  0  0  0
  -21.8570  -29.2200   22.3900 N   0  0  0  0  0  0  0  0  0  0  0  0
  -23.8200  -28.8890   23.4580 O   0  0  0  0  0  0  0  0  0  0  0  0
  -21.3730  -29.7870   21.7100 H   0  0  0  0  0  0  0  0  0  0  0  0
  -18.6000  -27.6570   22.4850 C   0  0  0  0  0  0  0  0  0  0  0  0
  -21.0770  -28.1570   23.0260 C   0  0  0  0  0  3  0  0  0  0  0  0
  -21.3780  -26.7740   22.3990 C   0  0  0  0  0  2  0  0  0  0  0  0
  -20.4300  -26.4120   21.2500 C   0  0  0  0  0  2  0  0  0  0  0  0
  -18.9800  -26.3820   21.7520 C   0  0  0  0  0  2  0  0  0  0  0  0
  -19.5860  -28.4980   23.0700 C   0  0  0  0  0  0  0  0  0  0  0  0
  -19.1790  -29.6870   23.7130 C   0  0  0  0  0  3  0  0  0  0  0  0
  -17.8180  -30.0360   23.7880 C   0  0  0  0  0  3  0  0  0  0  0  0
  -16.8420  -29.1910   23.2240 C   0  0  0  0  0  3  0  0  0  0  0  0
  -17.2360  -28.0080   22.5740 C   0  0  0  0  0  3  0  0  0  0  0  0
  -26.0590  -32.5910   24.3420 C   0  0  0  0  0  3  0  0  0  0  0  0
  -26.4360  -31.8560   25.6870 C   0  0  1  0  0  0  0  0  0  0  0  0
  -25.2200  -31.5600   26.5940 C   0  0  0  0  0  1  0  0  0  0  0  0
  -27.1450  -30.5130   25.4000 C   0  0  0  0  0  1  0  0  0  0  0  0
  -27.4360  -32.7190   26.4920 C   0  0  0  0  0  1  0  0  0  0  0  0
  -25.7320  -34.0020   24.6010 N   0  0  0  0  0  0  0  0  0  0  0  0
  -26.1630  -35.0330   23.8620 C   0  0  0  0  0  0  0  0  0  0  0  0
  -26.9460  -34.8950   22.9170 O   0  0  0  0  0  0  0  0  0  0  0  0
  -25.0520  -34.1820   25.3240 H   0  0  0  0  0  0  0  0  0  0  0  0
  -24.5200  -36.8400   23.2690 C   0  0  0  0  0  1  0  0  0  0  0  0
  -25.6490  -36.4380   24.2300 C   0  0  0  0  0  3  0  0  0  0  0  0
  -27.6960  -37.2980   25.2760 C   0  0  0  0  0  1  0  0  0  0  0  0
  -26.7030  -37.4760   24.2190 N   0  0  0  0  0  0  0  0  0  0  0  0
  -26.2980  -38.4030   24.3160 H   0  0  0  0  0  0  0  0  0  0  0  0
  1  4  1  0
  2  4  2  0
  3 57  1  0
  3  1  2  0
  4 55  1  0
  5  3  1  0
  5  6  1  0
  6  2  1  0
  7  5  2  0
  8 12  1  0
  9 13  2  0
 11  8  2  0
 11  9  1  0
 12  6  1  0
 12 10  2  0
 13 10  1  0
 13 22  1  0
 14 22  1  0
 15 20  1  0
 16 17  1  0
 16 15  1  0
 18 17  1  0
 18 27  1  0
 18 19  1  0
 20 14  1  0
 20 19  1  0
 21 14  2  0
 22 23  1  0
 24 25  2  0
 25 26  1  0
 25 44  1  0
 26 29  1  0
 27 24  1  0
 27 28  1  0
 28 26  2  0
 29 30  1  0
 30 31  2  0
 32 35  1  0
 32 31  1  0
 33 32  2  0
 34 33  1  0
 34 29  2  0
 35 36  1  0
 36 37  1  0
 37 38  2  0
 39 38  1  0
 39 43  1  0
 40 39  2  0
 41 36  2  0
 41 40  1  0
 42 41  1  0
 44 45  1  0
 45 48  1  0
 45 47  1  0
 46 44  2  0
 49 50  1  0
 49 24  1  0
 51 49  1  0
 52 54  1  0
 53 52  1  0
 54 11  1  0
 55 56  1  0
 58 60  1  0
 58 57  1  0
 59 70  2  0
 60 65  1  0
 61 69  1  0
 61 71  1  0
 62 68  1  0
 62 64  1  0
 63 69  1  0
 64 63  1  0
 65 64  2  0
 66 67  1  0
 66 60  2  0
 67 62  2  0
 68 61  1  0
 69 59  1  0
 71 73  2  0
 72 71  1  0
 74 72  1  0
 75 84  2  0
 75 80  1  0
 76 72  1  0
 76 80  1  0
 77 76  1  0
 78 79  1  0
 78 77  1  0
 79 75  1  0
 80 81  2  0
 81 82  1  0
 83 82  2  0
 84 83  1  0
 85 59  1  0
 85 90  1  0
 85 86  1  0
 86 89  1  1
 86 87  1  0
 88 86  1  0
 90 93  1  0
 91 95  1  0
 91 90  1  0
 92 91  2  0
 95 94  1  0
 97 95  1  0
 97 98  1  0
 97 96  1  0
M  ISO  4  14 100  22 100  57 101  58 101
M  END
>  <TORSDO>  (76) 
F 20

>  <SCORE>  (76) 
-11.365

>  <name>  (76) 
76

>  <ligand_id>  (76) 
76

>  <original_smiles>  (76) 
[H]Oc1c([H])c(C([H])([H])Oc2c([H])c([H])c3c(c2[H])C([H])([H])N(C(=O)C([H])(N([H])C(=O)C([H])(N([H])C([H])([H])[H])C([H])([H])[H])C(C([H])([H])[H])(C([H])([H])[H])C([H])([H])[H])C([H])(C(=O)N([H])C2([H])c4c([H])c([H])c([H])c([H])c4C([H])([H])C([H])([H])C2([H])[H])C3([H])[H])c(=O)n(-c2c([H])c(N=C=C([H])[H])c([H])c(N([H])C(=O)N3C([H])([H])C([H])([H])C([H])([H])C([H])(n4nc(-c5c([H])c([H])c(Oc6c([H])c([H])c(F)c([H])c6F)c([H])c5[H])c(C(=O)N([H])[H])c4N([H])[H])C3([H])[H])c2[H])c1[H]

>  <smiles>  (76) 
[H]Oc1c([H])c(C([H])([H])Oc2c([H])c([H])c3c(c2[H])C([H])([H])N(C(=O)C([H])(N([H])C(=O)C([H])(N([H])C([H])([H])[H])C([H])([H])[H])C(C([H])([H])[H])(C([H])([H])[H])C([H])([H])[H])C([H])(C(=O)N([H])C2([H])c4c([H])c([H])c([H])c([H])c4C([H])([H])C([H])([H])C2([H])[H])C3([H])[H])c(=O)n(-c2c([H])c(N=C=C([H])[H])c([H])c(N([H])C(=O)N3C([H])([H])C([H])([H])C([H])([H])C([H])(n4nc(-c5c([H])c([H])c(Oc6c([H])c([H])c(F)c([H])c6F)c([H])c5[H])c(C(=O)N([H])[H])c4N([H])[H])C3([H])[H])c2[H])c1[H]

$$$$
77:0:0
     RDKit          3D

 92100  0  0  1  0  0  0  0  0999 V2000
  -28.9970  -21.0960   19.3200 C   0  0  0  0  0  0  0  0  0  0  0  0
  -28.7490  -20.6860   18.1210 N   0  0  0  0  0  4  0  0  0  0  0  0
  -28.9420  -19.7400   17.8070 H   0  0  0  0  0  0  0  0  0  0  0  0
  -28.4550  -21.3290   17.3920 H   0  0  0  0  0  0  0  0  0  0  0  0
  -30.9980  -19.1410   22.0310 C   0  0  0  0  0  3  0  0  0  0  0  0
  -30.3660  -20.1920   21.3200 C   0  0  0  0  0  3  0  0  0  0  0  0
  -30.8430  -17.7790   21.6700 C   0  0  0  0  0  3  0  0  0  0  0  0
  -29.3560  -18.4990   19.9020 C   0  0  0  0  0  3  0  0  0  0  0  0
  -29.5390  -19.9230   20.2140 C   0  0  0  0  0  0  0  0  0  0  0  0
  -30.0070  -17.3900   20.5990 C   0  0  0  0  0  0  0  0  0  0  0  0
  -30.5720  -14.7990   20.3420 C   0  0  0  0  0  0  0  0  0  0  0  0
  -30.3870  -12.5020   19.3510 C   0  0  0  0  0  2  0  0  0  0  0  0
  -29.4420  -12.5360   18.1290 C   0  0  0  0  0  2  0  0  0  0  0  0
  -27.9750  -12.3570   18.5680 C   0  0  0  0  0  2  0  0  0  0  0  0
  -27.6000  -13.2700   19.7630 C   0  0  0  0  0  3  0  0  0  0  0  0
  -28.6600  -13.2180   20.8840 C   0  0  0  0  0  2  0  0  0  0  0  0
  -29.9490  -13.5710   20.2750 N   0  0  0  0  0  0  0  0  0  0  0  0
  -31.7820  -14.8840   20.1150 O   0  0  0  0  0  0  0  0  0  0  0  0
  -29.7580  -15.9320   20.3520 N   0  0  0  0  0  0  0  0  0  0  0  0
  -28.7880  -15.6950   20.2120 H   0  0  0  0  0  0  0  0  0  0  0  0
  -25.2240  -13.8910   20.4960 C   0  0  0  0  0  0  0  0  0  0  0  0
  -24.1510  -13.1290   20.8710 C   0  0  0  0  0  0  0  0  0  0  0  0
  -24.6020  -11.7740   20.8480 C   0  0  0  0  0  0  0  0  0  0  0  0
  -26.2570  -12.9970   20.2610 N   0  0  0  0  0  0  0  0  0  0  0  0
  -25.8920  -11.7200   20.5400 N   0  0  0  0  0  0  0  0  0  0  0  0
  -23.8640  -10.5180   21.0410 C   0  0  0  0  0  0  0  0  0  0  0  0
  -24.2940   -9.5470   21.9710 C   0  0  0  0  0  3  0  0  0  0  0  0
  -23.5570   -8.3570   22.1540 C   0  0  0  0  0  3  0  0  0  0  0  0
  -22.3760   -8.1310   21.4070 C   0  0  0  0  0  0  0  0  0  0  0  0
  -21.9670   -9.0920   20.4660 C   0  0  0  0  0  3  0  0  0  0  0  0
  -22.7040  -10.2730   20.2810 C   0  0  0  0  0  3  0  0  0  0  0  0
  -21.6110   -6.9930   21.4990 O   0  0  0  0  0  0  0  0  0  0  0  0
  -21.5690   -6.2460   22.6480 C   0  0  0  0  0  0  0  0  0  0  0  0
  -21.1670   -6.8000   23.8830 C   0  0  0  0  0  3  0  0  0  0  0  0
  -21.0720   -5.9800   25.0250 C   0  0  0  0  0  3  0  0  0  0  0  0
  -21.3670   -4.6070   24.9330 C   0  0  0  0  0  0  0  0  0  0  0  0
  -21.7590   -4.0510   23.7030 C   0  0  0  0  0  3  0  0  0  0  0  0
  -21.8560   -4.8680   22.5640 C   0  0  0  0  0  0  0  0  0  0  0  0
  -22.2150   -4.3230   21.3760 F   0  0  0  0  0  0  0  0  0  0  0  0
  -21.2670   -3.8180   26.0290 F   0  0  0  0  0  0  0  0  0  0  0  0
  -22.7590  -13.6220   21.1380 C   0  0  0  0  0  0  0  0  0  0  0  0
  -22.0240  -12.9350   22.0070 N   0  0  0  0  0  0  0  0  0  0  0  0
  -22.3300  -14.6470   20.6120 O   0  0  0  0  0  0  0  0  0  0  0  0
  -22.3860  -12.1040   22.4530 H   0  0  0  0  0  0  0  0  0  0  0  0
  -21.0890  -13.2430   22.2310 H   0  0  0  0  0  0  0  0  0  0  0  0
  -25.3970  -15.2590   20.3040 N   0  0  0  0  0  0  0  0  0  0  0  0
  -24.6230  -15.9090   20.3910 H   0  0  0  0  0  0  0  0  0  0  0  0
  -26.2310  -15.6900   19.9290 H   0  0  0  0  0  0  0  0  0  0  0  0
  -28.7210  -23.5530   20.1310 C   0  0  0  0  0  3  0  0  0  0  0  0
  -28.7350  -22.4950   19.3340 N   0  0  0  0  0  0  0  0  0  0  0  0
  -28.4260  -25.0330   19.5080 C   0  0  0  0  0  2  0  0  0  0  0  0
  -28.3020  -26.3250   20.2930 O   0  0  0  0  0  0  0  0  0  0  0  0
  -24.6040  -31.8640   23.2420 C   0  0  0  0  0  0  0  0  0  0  0  0
  -27.2030  -27.2270   20.1890 C   0  0  0  0  0  0  0  0  0  0  0  0
  -23.4040  -30.4700   21.5980 C   0  0  0  0  0  3  0  0  0  0  0  0
  -24.8540  -28.9110   20.1710 C   0  0  0  0  0  0  0  0  0  0  0  0
  -25.9500  -30.7600   21.4290 C   0  0  0  0  0  2  0  0  0  0  0  0
  -26.0270  -29.3750   20.7770 C   0  0  0  0  0  0  0  0  0  0  0  0
  -27.2000  -28.5470   20.7750 C   0  0  0  0  0  3  0  0  0  0  0  0
  -25.9940  -26.8370   19.5680 C   0  0  0  0  0  3  0  0  0  0  0  0
  -24.8440  -27.6510   19.5580 C   0  0  0  0  0  3  0  0  0  0  0  0
  -23.6240  -29.7980   20.2170 C   0  0  0  0  0  2  0  0  0  0  0  0
  -24.6720  -31.0490   22.1470 N   0  0  0  0  0  0  0  0  0  0  0  0
  -23.5180  -32.1440   23.7720 O   0  0  0  0  0  0  0  0  0  0  0  0
  -22.7300  -29.4570   22.5560 C   0  0  0  0  0  0  0  0  0  0  0  0
  -21.4030  -29.2820   22.4230 N   0  0  0  0  0  0  0  0  0  0  0  0
  -23.4020  -28.8320   23.3820 O   0  0  0  0  0  0  0  0  0  0  0  0
  -20.9210  -29.8410   21.7320 H   0  0  0  0  0  0  0  0  0  0  0  0
  -18.0280  -28.0620   22.8910 C   0  0  0  0  0  0  0  0  0  0  0  0
  -20.5800  -28.3430   23.1900 C   0  0  0  0  0  3  0  0  0  0  0  0
  -20.6990  -26.9070   22.6270 C   0  0  0  0  0  2  0  0  0  0  0  0
  -19.6110  -26.5690   21.6000 C   0  0  0  0  0  2  0  0  0  0  0  0
  -18.2210  -26.7080   22.2280 C   0  0  0  0  0  2  0  0  0  0  0  0
  -19.1340  -28.8370   23.3300 C   0  0  0  0  0  0  0  0  0  0  0  0
  -18.9010  -30.1030   23.9100 C   0  0  0  0  0  3  0  0  0  0  0  0
  -17.5910  -30.5940   24.0590 C   0  0  0  0  0  3  0  0  0  0  0  0
  -16.4970  -29.8200   23.6370 C   0  0  0  0  0  3  0  0  0  0  0  0
  -16.7160  -28.5550   23.0590 C   0  0  0  0  0  3  0  0  0  0  0  0
  -25.8840  -32.4960   23.8710 C   0  0  0  0  0  3  0  0  0  0  0  0
  -26.3890  -31.7280   25.1560 C   0  0  1  0  0  0  0  0  0  0  0  0
  -25.2890  -31.5030   26.2190 C   0  0  0  0  0  1  0  0  0  0  0  0
  -26.9660  -30.3440   24.7770 C   0  0  0  0  0  1  0  0  0  0  0  0
  -27.5390  -32.5200   25.8210 C   0  0  0  0  0  1  0  0  0  0  0  0
  -25.5740  -33.8960   24.1960 N   0  0  0  0  0  0  0  0  0  0  0  0
  -25.9060  -34.9470   23.4350 C   0  0  0  0  0  0  0  0  0  0  0  0
  -26.5710  -34.8390   22.4020 O   0  0  0  0  0  0  0  0  0  0  0  0
  -24.9820  -34.0540   24.9980 H   0  0  0  0  0  0  0  0  0  0  0  0
  -24.1770  -36.7430   23.0900 C   0  0  0  0  0  1  0  0  0  0  0  0
  -25.4250  -36.3370   23.8920 C   0  0  0  0  0  3  0  0  0  0  0  0
  -27.5660  -37.2250   24.7000 C   0  0  0  0  0  1  0  0  0  0  0  0
  -26.4560  -37.3900   23.7660 N   0  0  0  0  0  0  0  0  0  0  0  0
  -26.0530  -38.3110   23.9120 H   0  0  0  0  0  0  0  0  0  0  0  0
  1 50  1  0
  1  9  1  0
  2  1  2  0
  3  2  1  0
  4  2  1  0
  6  5  2  0
  7  5  1  0
  8  9  2  0
  8 10  1  0
  9  6  1  0
 10  7  2  0
 11 19  1  0
 12 17  1  0
 13 14  1  0
 13 12  1  0
 15 14  1  0
 15 24  1  0
 15 16  1  0
 17 11  1  0
 17 16  1  0
 18 11  2  0
 19 10  1  0
 20 19  1  0
 21 22  2  0
 22 41  1  0
 23 22  1  0
 23 26  1  0
 24 21  1  0
 24 25  1  0
 25 23  2  0
 26 27  1  0
 27 28  2  0
 29 32  1  0
 29 28  1  0
 30 29  2  0
 31 30  1  0
 31 26  2  0
 32 33  1  0
 33 34  1  0
 34 35  2  0
 36 35  1  0
 36 40  1  0
 37 36  2  0
 38 33  2  0
 38 37  1  0
 39 38  1  0
 41 42  1  0
 42 45  1  0
 42 44  1  0
 43 41  2  0
 46 47  1  0
 46 21  1  0
 48 46  1  0
 50 49  2  0
 51 49  1  0
 51 52  1  0
 53 64  2  0
 54 52  1  0
 54 59  1  0
 55 63  1  0
 55 65  1  0
 56 62  1  0
 56 58  1  0
 57 63  1  0
 58 57  1  0
 59 58  2  0
 60 54  2  0
 61 60  1  0
 61 56  2  0
 62 55  1  0
 63 53  1  0
 65 67  2  0
 66 65  1  0
 68 66  1  0
 69 78  2  0
 69 74  1  0
 70 66  1  0
 70 74  1  0
 71 70  1  0
 72 73  1  0
 72 71  1  0
 73 69  1  0
 74 75  2  0
 75 76  1  0
 77 76  2  0
 78 77  1  0
 79 53  1  0
 79 84  1  0
 79 80  1  0
 80 83  1  1
 80 81  1  0
 82 80  1  0
 84 87  1  0
 85 89  1  0
 85 84  1  0
 86 85  2  0
 89 88  1  0
 91 89  1  0
 91 92  1  0
 91 90  1  0
M  ISO  4  11 100  19 100  51 101  52 101
M  END
>  <TORSDO>  (77) 
F 19

>  <SCORE>  (77) 
-14.322

>  <name>  (77) 
77

>  <ligand_id>  (77) 
77

>  <original_smiles>  (77) 
[H]C(=NC(c1c([H])c([H])c([H])c(N([H])C(=O)N2C([H])([H])C([H])([H])C([H])([H])C([H])(n3nc(-c4c([H])c([H])c(Oc5c([H])c([H])c(F)c([H])c5F)c([H])c4[H])c(C(=O)N([H])[H])c3N([H])[H])C2([H])[H])c1[H])=[N+]([H])[H])C([H])([H])Oc1c([H])c([H])c2c(c1[H])C([H])([H])N(C(=O)C([H])(N([H])C(=O)C([H])(N([H])C([H])([H])[H])C([H])([H])[H])C(C([H])([H])[H])(C([H])([H])[H])C([H])([H])[H])C([H])(C(=O)N([H])C1([H])c3c([H])c([H])c([H])c([H])c3C([H])([H])C([H])([H])C1([H])[H])C2([H])[H]

>  <smiles>  (77) 
[H]C(=NC(c1c([H])c([H])c([H])c(N([H])C(=O)N2C([H])([H])C([H])([H])C([H])([H])C([H])(n3nc(-c4c([H])c([H])c(Oc5c([H])c([H])c(F)c([H])c5F)c([H])c4[H])c(C(=O)N([H])[H])c3N([H])[H])C2([H])[H])c1[H])=[N+]([H])[H])C([H])([H])Oc1c([H])c([H])c2c(c1[H])C([H])([H])N(C(=O)C([H])(N([H])C(=O)C([H])(N([H])C([H])([H])[H])C([H])([H])[H])C(C([H])([H])[H])(C([H])([H])[H])C([H])([H])[H])C([H])(C(=O)N([H])C1([H])c3c([H])c([H])c([H])c([H])c3C([H])([H])C([H])([H])C1([H])[H])C2([H])[H]

$$$$
78:0:0
     RDKit          3D

 95104  0  0  1  0  0  0  0  0999 V2000
  -31.0180  -20.2230   20.9400 C   0  0  0  0  0  3  0  0  0  0  0  0
  -31.1320  -18.7620   20.8780 C   0  0  0  0  0  3  0  0  0  0  0  0
  -29.1620  -20.1650   19.5220 C   0  0  0  0  0  3  0  0  0  0  0  0
  -30.0210  -21.0230   20.2680 C   0  0  0  0  0  0  0  0  0  0  0  0
  -29.2370  -18.7070   19.4790 C   0  0  0  0  0  0  0  0  0  0  0  0
  -30.2280  -17.9050   20.1570 C   0  0  0  0  0  0  0  0  0  0  0  0
  -30.9380  -15.2190   19.7800 C   0  0  0  0  0  0  0  0  0  0  0  0
  -30.6820  -12.9480   18.6590 C   0  0  0  0  0  2  0  0  0  0  0  0
  -29.6460  -13.0330   17.5120 C   0  0  0  0  0  2  0  0  0  0  0  0
  -28.2140  -12.8320   18.0460 C   0  0  0  0  0  2  0  0  0  0  0  0
  -27.9390  -13.6610   19.3280 C   0  0  0  0  0  3  0  0  0  0  0  0
  -29.0850  -13.5390   20.3550 C   0  0  0  0  0  2  0  0  0  0  0  0
  -30.3180  -13.9710   19.6800 N   0  0  0  0  0  0  0  0  0  0  0  0
  -32.1170  -15.2940   19.4150 O   0  0  0  0  0  0  0  0  0  0  0  0
  -30.1470  -16.3630   20.0870 N   0  0  0  0  0  0  0  0  0  0  0  0
  -29.1930  -16.0780   20.2520 H   0  0  0  0  0  0  0  0  0  0  0  0
  -25.6090  -14.2310   20.2150 C   0  0  0  0  0  0  0  0  0  0  0  0
  -24.5660  -13.4690   20.6490 C   0  0  0  0  0  0  0  0  0  0  0  0
  -25.0220  -12.1180   20.5790 C   0  0  0  0  0  0  0  0  0  0  0  0
  -26.6360  -13.3590   19.9090 N   0  0  0  0  0  0  0  0  0  0  0  0
  -26.2930  -12.0750   20.1910 N   0  0  0  0  0  0  0  0  0  0  0  0
  -24.2960  -10.8650   20.8030 C   0  0  0  0  0  0  0  0  0  0  0  0
  -24.6740   -9.9660   21.8250 C   0  0  0  0  0  3  0  0  0  0  0  0
  -23.9450   -8.7760   22.0320 C   0  0  0  0  0  3  0  0  0  0  0  0
  -22.8270   -8.4770   21.2200 C   0  0  0  0  0  0  0  0  0  0  0  0
  -22.4680   -9.3650   20.1900 C   0  0  0  0  0  3  0  0  0  0  0  0
  -23.1970  -10.5470   19.9800 C   0  0  0  0  0  3  0  0  0  0  0  0
  -22.0760   -7.3330   21.3320 O   0  0  0  0  0  0  0  0  0  0  0  0
  -21.8140   -6.7640   22.5520 C   0  0  0  0  0  0  0  0  0  0  0  0
  -21.1320   -7.4660   23.5710 C   0  0  0  0  0  3  0  0  0  0  0  0
  -20.8230   -6.8190   24.7840 C   0  0  0  0  0  3  0  0  0  0  0  0
  -21.1830   -5.4730   24.9770 C   0  0  0  0  0  0  0  0  0  0  0  0
  -21.8580   -4.7720   23.9630 C   0  0  0  0  0  3  0  0  0  0  0  0
  -22.1700   -5.4150   22.7530 C   0  0  0  0  0  0  0  0  0  0  0  0
  -22.8020   -4.7290   21.7700 F   0  0  0  0  0  0  0  0  0  0  0  0
  -20.8780   -4.8490   26.1390 F   0  0  0  0  0  0  0  0  0  0  0  0
  -23.1960  -13.9620   21.0120 C   0  0  0  0  0  0  0  0  0  0  0  0
  -22.5350  -13.2990   21.9530 N   0  0  0  0  0  0  0  0  0  0  0  0
  -22.7250  -14.9770   20.4990 O   0  0  0  0  0  0  0  0  0  0  0  0
  -22.9310  -12.4810   22.3900 H   0  0  0  0  0  0  0  0  0  0  0  0
  -21.6200  -13.6160   22.2420 H   0  0  0  0  0  0  0  0  0  0  0  0
  -25.7450  -15.5920   20.0360 N   0  0  0  0  0  0  0  0  0  0  0  0
  -24.9720  -16.2050   20.2610 H   0  0  0  0  0  0  0  0  0  0  0  0
  -26.5990  -16.0920   19.8100 H   0  0  0  0  0  0  0  0  0  0  0  0
  -26.0700  -18.9350   18.2110 C   0  0  0  0  0  0  0  0  0  0  0  0
  -26.8980  -18.9840   17.0160 C   0  0  0  0  0  0  0  0  0  0  0  0
  -24.8020  -19.3730   18.2730 C   0  0  0  0  0  2  0  0  0  0  0  0
  -26.8920  -18.3180   19.3190 C   0  0  0  0  0  2  0  0  0  0  0  0
  -28.2510  -18.3670   17.3360 C   0  0  0  0  0  2  0  0  0  0  0  0
  -28.2310  -18.0270   18.7700 N   0  0  0  0  0  0  0  0  0  0  0  0
  -26.5970  -19.4470   15.9130 O   0  0  0  0  0  0  0  0  0  0  0  0
  -29.2930  -23.5140   19.7890 C   0  0  0  0  0  3  0  0  0  0  0  0
  -29.7130  -22.4720   20.5410 N   0  0  0  0  0  0  0  0  0  0  0  0
  -28.6040  -24.9560   20.2980 C   0  0  0  0  0  2  0  0  0  0  0  0
  -28.5980  -26.3380   19.5850 O   0  0  0  0  0  0  0  0  0  0  0  0
  -24.6070  -31.5360   23.0150 C   0  0  0  0  0  0  0  0  0  0  0  0
  -27.4620  -27.2210   19.6690 C   0  0  0  0  0  0  0  0  0  0  0  0
  -23.4780  -30.1700   21.3000 C   0  0  0  0  0  3  0  0  0  0  0  0
  -25.0100  -28.7840   19.7690 C   0  0  0  0  0  0  0  0  0  0  0  0
  -26.0050  -30.6210   21.1250 C   0  0  0  0  0  2  0  0  0  0  0  0
  -26.1650  -29.2790   20.3900 C   0  0  0  0  0  0  0  0  0  0  0  0
  -27.3920  -28.5180   20.3180 C   0  0  0  0  0  3  0  0  0  0  0  0
  -26.2720  -26.8170   19.0270 C   0  0  0  0  0  3  0  0  0  0  0  0
  -25.0740  -27.5650   19.0740 C   0  0  0  0  0  3  0  0  0  0  0  0
  -23.7260  -29.5910   19.8810 C   0  0  0  0  0  2  0  0  0  0  0  0
  -24.7160  -30.7940   21.8700 N   0  0  0  0  0  0  0  0  0  0  0  0
  -23.5130  -31.7130   23.5720 O   0  0  0  0  0  0  0  0  0  0  0  0
  -22.8800  -29.0620   22.2040 C   0  0  0  0  0  0  0  0  0  0  0  0
  -21.5650  -28.8100   22.0750 N   0  0  0  0  0  0  0  0  0  0  0  0
  -23.6010  -28.4350   22.9840 O   0  0  0  0  0  0  0  0  0  0  0  0
  -21.0360  -29.3730   21.4240 H   0  0  0  0  0  0  0  0  0  0  0  0
  -18.2760  -27.3600   22.5300 C   0  0  0  0  0  0  0  0  0  0  0  0
  -20.8160  -27.7730   22.7910 C   0  0  0  0  0  3  0  0  0  0  0  0
  -21.0040  -26.3900   22.1260 C   0  0  0  0  0  2  0  0  0  0  0  0
  -19.9130  -26.0600   21.1020 C   0  0  0  0  0  2  0  0  0  0  0  0
  -18.5330  -26.0710   21.7650 C   0  0  0  0  0  2  0  0  0  0  0  0
  -19.3480  -28.1670   22.9970 C   0  0  0  0  0  0  0  0  0  0  0  0
  -19.0530  -29.3690   23.6730 C   0  0  0  0  0  3  0  0  0  0  0  0
  -17.7190  -29.7690   23.8850 C   0  0  0  0  0  3  0  0  0  0  0  0
  -16.6640  -28.9590   23.4320 C   0  0  0  0  0  3  0  0  0  0  0  0
  -16.9430  -27.7560   22.7610 C   0  0  0  0  0  3  0  0  0  0  0  0
  -25.8500  -32.2130   23.6700 C   0  0  0  0  0  3  0  0  0  0  0  0
  -26.4100  -31.4110   24.9100 C   0  0  1  0  0  0  0  0  0  0  0  0
  -25.3390  -31.0810   25.9740 C   0  0  0  0  0  1  0  0  0  0  0  0
  -27.0500  -30.0780   24.4590 C   0  0  0  0  0  1  0  0  0  0  0  0
  -27.5310  -32.2270   25.5970 C   0  0  0  0  0  1  0  0  0  0  0  0
  -25.4590  -33.5720   24.0740 N   0  0  0  0  0  0  0  0  0  0  0  0
  -25.7410  -34.6850   23.3830 C   0  0  0  0  0  0  0  0  0  0  0  0
  -26.4230  -34.6780   22.3540 O   0  0  0  0  0  0  0  0  0  0  0  0
  -24.8500  -33.6470   24.8760 H   0  0  0  0  0  0  0  0  0  0  0  0
  -23.9180  -36.4020   23.1230 C   0  0  0  0  0  1  0  0  0  0  0  0
  -25.1780  -36.0180   23.9160 C   0  0  0  0  0  3  0  0  0  0  0  0
  -27.2530  -36.9780   24.8150 C   0  0  0  0  0  1  0  0  0  0  0  0
  -26.1530  -37.1300   23.8660 N   0  0  0  0  0  0  0  0  0  0  0  0
  -25.6960  -38.0190   24.0500 H   0  0  0  0  0  0  0  0  0  0  0  0
  2  1  1  0
  3  4  1  0
  4 53  1  0
  4  1  2  0
  5  3  2  0
  5  6  1  0
  6  2  2  0
  7 15  1  0
  8 13  1  0
  9 10  1  0
  9  8  1  0
 11 10  1  0
 11 20  1  0
 11 12  1  0
 13  7  1  0
 13 12  1  0
 14  7  2  0
 15  6  1  0
 15 16  1  0
 17 18  2  0
 18 37  1  0
 19 18  1  0
 19 22  1  0
 20 21  1  0
 20 17  1  0
 21 19  2  0
 22 23  1  0
 23 24  2  0
 25 28  1  0
 25 24  1  0
 26 25  2  0
 27 26  1  0
 27 22  2  0
 28 29  1  0
 29 34  2  0
 29 30  1  0
 30 31  2  0
 31 32  1  0
 32 36  1  0
 33 32  2  0
 34 33  1  0
 35 34  1  0
 37 38  1  0
 38 41  1  0
 38 40  1  0
 39 37  2  0
 42 17  1  0
 42 43  1  0
 44 42  1  0
 45 47  2  0
 45 48  1  0
 46 49  1  0
 46 45  1  0
 49 50  1  0
 50 48  1  0
 50  5  1  0
 51 46  2  0
 52 54  1  0
 52 53  2  0
 55 57  1  0
 55 54  1  0
 56 67  2  0
 57 62  1  0
 58 66  1  0
 58 68  1  0
 59 65  1  0
 59 61  1  0
 60 66  1  0
 61 60  1  0
 62 61  2  0
 63 64  1  0
 63 57  2  0
 64 59  2  0
 65 58  1  0
 66 56  1  0
 68 70  2  0
 69 68  1  0
 71 69  1  0
 72 81  2  0
 72 77  1  0
 73 69  1  0
 73 77  1  0
 74 73  1  0
 75 76  1  0
 75 74  1  0
 76 72  1  0
 77 78  2  0
 78 79  1  0
 80 79  2  0
 81 80  1  0
 82 56  1  0
 82 87  1  0
 82 83  1  0
 83 86  1  1
 83 84  1  0
 85 83  1  0
 87 90  1  0
 88 92  1  0
 88 87  1  0
 89 88  2  0
 92 91  1  0
 94 92  1  0
 94 95  1  0
 94 93  1  0
M  ISO  4   7 100  15 100  54 101  55 101
M  END
>  <TORSDO>  (78) 
F 19

>  <SCORE>  (78) 
-9.997

>  <name>  (78) 
78

>  <ligand_id>  (78) 
78

>  <original_smiles>  (78) 
[H]C(=Nc1c([H])c([H])c(N([H])C(=O)N2C([H])([H])C([H])([H])C([H])([H])C([H])(n3nc(-c4c([H])c([H])c(Oc5c([H])c([H])c(F)c([H])c5F)c([H])c4[H])c(C(=O)N([H])[H])c3N([H])[H])C2([H])[H])c(N2C([H])([H])C(=O)C(=C([H])[H])C2([H])[H])c1[H])C([H])([H])Oc1c([H])c([H])c2c(c1[H])C([H])([H])N(C(=O)C([H])(N([H])C(=O)C([H])(N([H])C([H])([H])[H])C([H])([H])[H])C(C([H])([H])[H])(C([H])([H])[H])C([H])([H])[H])C([H])(C(=O)N([H])C1([H])c3c([H])c([H])c([H])c([H])c3C([H])([H])C([H])([H])C1([H])[H])C2([H])[H]

>  <smiles>  (78) 
[H]C(=Nc1c([H])c([H])c(N([H])C(=O)N2C([H])([H])C([H])([H])C([H])([H])C([H])(n3nc(-c4c([H])c([H])c(Oc5c([H])c([H])c(F)c([H])c5F)c([H])c4[H])c(C(=O)N([H])[H])c3N([H])[H])C2([H])[H])c(N2C([H])([H])C(=O)C(=C([H])[H])C2([H])[H])c1[H])C([H])([H])Oc1c([H])c([H])c2c(c1[H])C([H])([H])N(C(=O)C([H])(N([H])C(=O)C([H])(N([H])C([H])([H])[H])C([H])([H])[H])C(C([H])([H])[H])(C([H])([H])[H])C([H])([H])[H])C([H])(C(=O)N([H])C1([H])c3c([H])c([H])c([H])c([H])c3C([H])([H])C([H])([H])C1([H])[H])C2([H])[H]

$$$$
79:0:0
     RDKit          3D

 93102  0  0  1  0  0  0  0  0999 V2000
  -28.8280  -24.4360   20.9570 C   0  0  0  0  0  0  0  0  0  0  0  0
  -29.0700  -23.4500   22.1060 C   0  0  0  0  0  0  0  0  0  0  0  0
  -29.0960  -23.7720   19.5910 C   0  0  0  0  0  2  0  0  0  0  0  0
  -29.8760  -22.1480   21.8210 C   0  0  0  0  0  2  0  0  0  0  0  0
  -28.8110  -22.2200   19.5520 C   0  0  0  0  0  2  0  0  0  0  0  0
  -28.4260  -25.6600   21.1580 N   0  0  0  0  0  0  0  0  0  0  0  0
  -29.5810  -21.4520   20.5550 N   0  0  0  0  0  0  0  0  0  0  0  0
  -28.6800  -23.6750   23.2590 O   0  0  0  0  0  0  0  0  0  0  0  0
  -30.7360  -19.3310   21.1960 C   0  0  0  0  0  3  0  0  0  0  0  0
  -28.7270  -19.1990   19.8780 C   0  0  0  0  0  3  0  0  0  0  0  0
  -30.8220  -17.9060   21.2250 C   0  0  0  0  0  3  0  0  0  0  0  0
  -28.7920  -17.7790   19.9340 C   0  0  0  0  0  3  0  0  0  0  0  0
  -29.6810  -20.0200   20.5320 C   0  0  0  0  0  0  0  0  0  0  0  0
  -29.8360  -17.0970   20.6080 C   0  0  0  0  0  0  0  0  0  0  0  0
  -30.5870  -14.6380   20.4430 C   0  0  0  0  0  0  0  0  0  0  0  0
  -30.3960  -12.4090   19.3630 C   0  0  0  0  0  2  0  0  0  0  0  0
  -29.4620  -12.5490   18.1390 C   0  0  0  0  0  2  0  0  0  0  0  0
  -27.9800  -12.4010   18.5480 C   0  0  0  0  0  2  0  0  0  0  0  0
  -27.6140  -13.2610   19.7870 C   0  0  0  0  0  3  0  0  0  0  0  0
  -28.6580  -13.0790   20.9130 C   0  0  0  0  0  2  0  0  0  0  0  0
  -29.9800  -13.4150   20.3560 N   0  0  0  0  0  0  0  0  0  0  0  0
  -31.7530  -14.8220   20.0740 O   0  0  0  0  0  0  0  0  0  0  0  0
  -29.7470  -15.6580   20.7780 N   0  0  0  0  0  0  0  0  0  0  0  0
  -28.8170  -15.3200   20.9660 H   0  0  0  0  0  0  0  0  0  0  0  0
  -25.2110  -13.8810   20.4640 C   0  0  0  0  0  0  0  0  0  0  0  0
  -24.1360  -13.1150   20.8260 C   0  0  0  0  0  0  0  0  0  0  0  0
  -24.5950  -11.7620   20.8160 C   0  0  0  0  0  0  0  0  0  0  0  0
  -26.2560  -12.9930   20.2530 N   0  0  0  0  0  0  0  0  0  0  0  0
  -25.8890  -11.7160   20.5250 N   0  0  0  0  0  0  0  0  0  0  0  0
  -23.8620  -10.5030   21.0100 C   0  0  0  0  0  0  0  0  0  0  0  0
  -24.2820   -9.5440   21.9570 C   0  0  0  0  0  3  0  0  0  0  0  0
  -23.5510   -8.3490   22.1370 C   0  0  0  0  0  3  0  0  0  0  0  0
  -22.3870   -8.1080   21.3690 C   0  0  0  0  0  0  0  0  0  0  0  0
  -21.9880   -9.0560   20.4120 C   0  0  0  0  0  3  0  0  0  0  0  0
  -22.7180  -10.2420   20.2300 C   0  0  0  0  0  3  0  0  0  0  0  0
  -21.6300   -6.9640   21.4570 O   0  0  0  0  0  0  0  0  0  0  0  0
  -21.5650   -6.2310   22.6150 C   0  0  0  0  0  0  0  0  0  0  0  0
  -21.1230   -6.7970   23.8310 C   0  0  0  0  0  3  0  0  0  0  0  0
  -21.0070   -5.9900   24.9800 C   0  0  0  0  0  3  0  0  0  0  0  0
  -21.3200   -4.6200   24.9150 C   0  0  0  0  0  0  0  0  0  0  0  0
  -21.7530   -4.0530   23.7040 C   0  0  0  0  0  3  0  0  0  0  0  0
  -21.8730   -4.8570   22.5560 C   0  0  0  0  0  0  0  0  0  0  0  0
  -22.2720   -4.3010   21.3860 F   0  0  0  0  0  0  0  0  0  0  0  0
  -21.2000   -3.8440   26.0170 F   0  0  0  0  0  0  0  0  0  0  0  0
  -22.7370  -13.6000   21.0740 C   0  0  0  0  0  0  0  0  0  0  0  0
  -21.9930  -12.9140   21.9360 N   0  0  0  0  0  0  0  0  0  0  0  0
  -22.3090  -14.6210   20.5370 O   0  0  0  0  0  0  0  0  0  0  0  0
  -22.3510  -12.0900   22.3950 H   0  0  0  0  0  0  0  0  0  0  0  0
  -21.0540  -13.2230   22.1430 H   0  0  0  0  0  0  0  0  0  0  0  0
  -25.3810  -15.2500   20.2760 N   0  0  0  0  0  0  0  0  0  0  0  0
  -24.6110  -15.9040   20.3720 H   0  0  0  0  0  0  0  0  0  0  0  0
  -26.2290  -15.6870   19.9400 H   0  0  0  0  0  0  0  0  0  0  0  0
  -28.3910  -26.5740   20.0540 O   0  0  0  0  0  0  0  0  0  0  0  0
  -24.6660  -31.9030   23.1980 C   0  0  0  0  0  0  0  0  0  0  0  0
  -27.2740  -27.4010   20.1070 C   0  0  0  0  0  0  0  0  0  0  0  0
  -23.4480  -30.4970   21.5720 C   0  0  0  0  0  3  0  0  0  0  0  0
  -24.8910  -28.9520   20.1340 C   0  0  0  0  0  0  0  0  0  0  0  0
  -25.9790  -30.8400   21.3540 C   0  0  0  0  0  2  0  0  0  0  0  0
  -26.0600  -29.4630   20.7150 C   0  0  0  0  0  0  0  0  0  0  0  0
  -27.2580  -28.6940   20.7000 C   0  0  0  0  0  3  0  0  0  0  0  0
  -26.0890  -26.9250   19.5150 C   0  0  0  0  0  3  0  0  0  0  0  0
  -24.9030  -27.6840   19.5290 C   0  0  0  0  0  3  0  0  0  0  0  0
  -23.6470  -29.8160   20.1910 C   0  0  0  0  0  2  0  0  0  0  0  0
  -24.7160  -31.0970   22.0980 N   0  0  0  0  0  0  0  0  0  0  0  0
  -23.5900  -32.1750   23.7470 O   0  0  0  0  0  0  0  0  0  0  0  0
  -22.8040  -29.4770   22.5410 C   0  0  0  0  0  0  0  0  0  0  0  0
  -21.4780  -29.2930   22.4290 N   0  0  0  0  0  0  0  0  0  0  0  0
  -23.4960  -28.8560   23.3520 O   0  0  0  0  0  0  0  0  0  0  0  0
  -20.9780  -29.8470   21.7470 H   0  0  0  0  0  0  0  0  0  0  0  0
  -18.1160  -28.0720   22.9520 C   0  0  0  0  0  0  0  0  0  0  0  0
  -20.6720  -28.3530   23.2090 C   0  0  0  0  0  3  0  0  0  0  0  0
  -20.7830  -26.9180   22.6440 C   0  0  0  0  0  2  0  0  0  0  0  0
  -19.6800  -26.5800   21.6360 C   0  0  0  0  0  2  0  0  0  0  0  0
  -18.3000  -26.7190   22.2850 C   0  0  0  0  0  2  0  0  0  0  0  0
  -19.2300  -28.8460   23.3720 C   0  0  0  0  0  0  0  0  0  0  0  0
  -19.0030  -30.1110   23.9560 C   0  0  0  0  0  3  0  0  0  0  0  0
  -17.6950  -30.6020   24.1240 C   0  0  0  0  0  3  0  0  0  0  0  0
  -16.5950  -29.8260   23.7210 C   0  0  0  0  0  3  0  0  0  0  0  0
  -16.8060  -28.5620   23.1410 C   0  0  0  0  0  3  0  0  0  0  0  0
  -25.9560  -32.5380   23.8020 C   0  0  0  0  0  3  0  0  0  0  0  0
  -25.6460  -33.9330   24.1430 N   0  0  0  0  0  0  0  0  0  0  0  0
  -25.9620  -34.9910   23.3830 C   0  0  0  0  0  0  0  0  0  0  0  0
  -26.6160  -34.8950   22.3410 O   0  0  0  0  0  0  0  0  0  0  0  0
  -25.0640  -34.0830   24.9540 H   0  0  0  0  0  0  0  0  0  0  0  0
  -24.2190  -36.7760   23.0620 C   0  0  0  0  0  1  0  0  0  0  0  0
  -25.4740  -36.3750   23.8530 C   0  0  0  0  0  3  0  0  0  0  0  0
  -27.6200  -37.2640   24.6520 C   0  0  0  0  0  1  0  0  0  0  0  0
  -26.5000  -37.4340   23.7310 N   0  0  0  0  0  0  0  0  0  0  0  0
  -26.0910  -38.3500   23.8970 H   0  0  0  0  0  0  0  0  0  0  0  0
  -26.4970  -31.7640   25.0670 C   0  0  1  0  0  0  0  0  0  0  0  0
  -25.4220  -31.5230   26.1530 C   0  0  0  0  0  1  0  0  0  0  0  0
  -27.0750  -30.3890   24.6600 C   0  0  0  0  0  1  0  0  0  0  0  0
  -27.6580  -32.5580   25.7110 C   0  0  0  0  0  1  0  0  0  0  0  0
  1  6  2  0
  1  2  1  0
  2  8  2  0
  3  1  1  0
  4  2  1  0
  5  3  1  0
  5  7  1  0
  7  4  1  0
  9 11  1  0
 10 12  2  0
 10 13  1  0
 12 14  1  0
 13  7  1  0
 13  9  2  0
 14 23  1  0
 14 11  2  0
 15 23  1  0
 16 21  1  0
 17 18  1  0
 17 16  1  0
 19 18  1  0
 19 28  1  0
 19 20  1  0
 21 15  1  0
 21 20  1  0
 22 15  2  0
 23 24  1  0
 25 26  2  0
 26 45  1  0
 27 26  1  0
 27 30  1  0
 28 25  1  0
 28 29  1  0
 29 27  2  0
 30 31  1  0
 31 32  2  0
 33 36  1  0
 33 32  1  0
 34 33  2  0
 35 34  1  0
 35 30  2  0
 36 37  1  0
 37 38  1  0
 38 39  2  0
 40 39  1  0
 40 44  1  0
 41 40  2  0
 42 37  2  0
 42 41  1  0
 43 42  1  0
 45 46  1  0
 46 49  1  0
 46 48  1  0
 47 45  2  0
 50 51  1  0
 50 25  1  0
 52 50  1  0
 53 55  1  0
 53  6  1  0
 54 65  2  0
 55 60  1  0
 56 64  1  0
 56 66  1  0
 57 63  1  0
 57 59  1  0
 58 64  1  0
 59 58  1  0
 60 59  2  0
 61 62  1  0
 61 55  2  0
 62 57  2  0
 63 56  1  0
 64 54  1  0
 66 68  2  0
 67 66  1  0
 69 67  1  0
 70 79  2  0
 70 75  1  0
 71 67  1  0
 71 75  1  0
 72 71  1  0
 73 74  1  0
 73 72  1  0
 74 70  1  0
 75 76  2  0
 76 77  1  0
 78 77  2  0
 79 78  1  0
 80 54  1  0
 80 81  1  0
 80 90  1  0
 81 84  1  0
 82 86  1  0
 82 81  1  0
 83 82  2  0
 86 85  1  0
 88 86  1  0
 88 89  1  0
 88 87  1  0
 90 93  1  1
 90 91  1  0
 92 90  1  0
M  ISO  4   6 101  15 100  23 100  53 101
M  END
>  <TORSDO>  (79) 
F 17

>  <SCORE>  (79) 
-14.971

>  <name>  (79) 
79

>  <ligand_id>  (79) 
79

>  <original_smiles>  (79) 
[H]c1c([H])c([H])c2c(c1[H])C([H])([H])C([H])([H])C([H])([H])C2([H])N([H])C(=O)C1([H])N(C(=O)C([H])(N([H])C(=O)C([H])(N([H])C([H])([H])[H])C([H])([H])[H])C(C([H])([H])[H])(C([H])([H])[H])C([H])([H])[H])C([H])([H])c2c([H])c(ON=C3C(=O)C([H])([H])N(c4c([H])c([H])c(N([H])C(=O)N5C([H])([H])C([H])([H])C([H])([H])C([H])(n6nc(-c7c([H])c([H])c(Oc8c([H])c([H])c(F)c([H])c8F)c([H])c7[H])c(C(=O)N([H])[H])c6N([H])[H])C5([H])[H])c([H])c4[H])C([H])([H])C3([H])[H])c([H])c([H])c2C1([H])[H]

>  <smiles>  (79) 
[H]c1c([H])c([H])c2c(c1[H])C([H])([H])C([H])([H])C([H])([H])C2([H])N([H])C(=O)C1([H])N(C(=O)C([H])(N([H])C(=O)C([H])(N([H])C([H])([H])[H])C([H])([H])[H])C(C([H])([H])[H])(C([H])([H])[H])C([H])([H])[H])C([H])([H])c2c([H])c(ON=C3C(=O)C([H])([H])N(c4c([H])c([H])c(N([H])C(=O)N5C([H])([H])C([H])([H])C([H])([H])C([H])(n6nc(-c7c([H])c([H])c(Oc8c([H])c([H])c(F)c([H])c8F)c([H])c7[H])c(C(=O)N([H])[H])c6N([H])[H])C5([H])[H])c([H])c4[H])C([H])([H])C3([H])[H])c([H])c([H])c2C1([H])[H]

$$$$
80:0:0
     RDKit          3D

 94103  0  0  1  0  0  0  0  0999 V2000
  -30.3490  -23.8360   20.5260 C   0  0  0  0  0  3  0  0  0  0  0  0
  -28.7270  -22.4610   19.8850 C   0  0  0  0  0  3  0  0  0  0  0  0
  -29.0250  -23.8210   20.0010 C   0  0  0  0  0  0  0  0  0  0  0  0
  -30.7710  -22.5380   20.6940 C   0  0  0  0  0  0  0  0  0  0  0  0
  -29.7900  -21.6300   20.2990 N   0  0  0  0  0  0  0  0  0  0  0  0
  -31.0570  -19.4220   20.1360 C   0  0  0  0  0  3  0  0  0  0  0  0
  -31.1180  -17.9920   20.1930 C   0  0  0  0  0  3  0  0  0  0  0  0
  -28.6950  -19.3610   20.5470 C   0  0  0  0  0  3  0  0  0  0  0  0
  -29.8480  -20.1570   20.3210 C   0  0  0  0  0  0  0  0  0  0  0  0
  -29.9580  -17.2070   20.4320 C   0  0  0  0  0  0  0  0  0  0  0  0
  -28.7510  -17.9370   20.6020 C   0  0  0  0  0  0  0  0  0  0  0  0
  -27.6090  -17.2430   20.8260 F   0  0  0  0  0  0  0  0  0  0  0  0
  -30.6630  -14.7120   20.0570 C   0  0  0  0  0  0  0  0  0  0  0  0
  -30.4000  -12.5060   18.9310 C   0  0  0  0  0  2  0  0  0  0  0  0
  -29.3850  -12.6640   17.7760 C   0  0  0  0  0  2  0  0  0  0  0  0
  -27.9370  -12.4950   18.2800 C   0  0  0  0  0  2  0  0  0  0  0  0
  -27.6510  -13.3160   19.5660 C   0  0  0  0  0  3  0  0  0  0  0  0
  -28.7700  -13.1200   20.6130 C   0  0  0  0  0  2  0  0  0  0  0  0
  -30.0460  -13.4870   19.9770 N   0  0  0  0  0  0  0  0  0  0  0  0
  -31.7990  -14.8840   19.6060 O   0  0  0  0  0  0  0  0  0  0  0  0
  -29.8820  -15.7420   20.5120 N   0  0  0  0  0  0  0  0  0  0  0  0
  -28.9970  -15.4230   20.8770 H   0  0  0  0  0  0  0  0  0  0  0  0
  -25.2960  -13.9000   20.4170 C   0  0  0  0  0  0  0  0  0  0  0  0
  -24.2470  -13.1190   20.8200 C   0  0  0  0  0  0  0  0  0  0  0  0
  -24.7040  -11.7690   20.7360 C   0  0  0  0  0  0  0  0  0  0  0  0
  -26.3270  -13.0250   20.1110 N   0  0  0  0  0  0  0  0  0  0  0  0
  -25.9770  -11.7360   20.3610 N   0  0  0  0  0  0  0  0  0  0  0  0
  -23.9850  -10.5040   20.9330 C   0  0  0  0  0  0  0  0  0  0  0  0
  -24.4220   -9.5450   21.8740 C   0  0  0  0  0  3  0  0  0  0  0  0
  -23.7030   -8.3440   22.0590 C   0  0  0  0  0  3  0  0  0  0  0  0
  -22.5330   -8.0940   21.3030 C   0  0  0  0  0  0  0  0  0  0  0  0
  -22.1140   -9.0420   20.3530 C   0  0  0  0  0  3  0  0  0  0  0  0
  -22.8340  -10.2340   20.1660 C   0  0  0  0  0  3  0  0  0  0  0  0
  -21.7860   -6.9450   21.3970 O   0  0  0  0  0  0  0  0  0  0  0  0
  -21.6840   -6.2450   22.5730 C   0  0  0  0  0  0  0  0  0  0  0  0
  -21.1870   -6.8410   23.7530 C   0  0  0  0  0  3  0  0  0  0  0  0
  -21.0350   -6.0670   24.9210 C   0  0  0  0  0  3  0  0  0  0  0  0
  -21.3690   -4.6990   24.9100 C   0  0  0  0  0  0  0  0  0  0  0  0
  -21.8600   -4.1040   23.7340 C   0  0  0  0  0  3  0  0  0  0  0  0
  -22.0130   -4.8740   22.5680 C   0  0  0  0  0  0  0  0  0  0  0  0
  -22.4670   -4.2910   21.4320 F   0  0  0  0  0  0  0  0  0  0  0  0
  -21.2160   -3.9530   26.0280 F   0  0  0  0  0  0  0  0  0  0  0  0
  -22.8660  -13.5940   21.1750 C   0  0  0  0  0  0  0  0  0  0  0  0
  -22.1850  -12.8840   22.0680 N   0  0  0  0  0  0  0  0  0  0  0  0
  -22.4020  -14.6270   20.6960 O   0  0  0  0  0  0  0  0  0  0  0  0
  -22.5730  -12.0490   22.4810 H   0  0  0  0  0  0  0  0  0  0  0  0
  -21.2620  -13.1870   22.3490 H   0  0  0  0  0  0  0  0  0  0  0  0
  -25.4530  -15.2740   20.2680 N   0  0  0  0  0  0  0  0  0  0  0  0
  -24.7020  -15.9240   20.4730 H   0  0  0  0  0  0  0  0  0  0  0  0
  -26.3150  -15.7400   20.0130 H   0  0  0  0  0  0  0  0  0  0  0  0
  -31.9650  -22.1150   21.1880 O   0  0  0  0  0  0  0  0  0  0  0  0
  -32.4960  -22.8880   21.3590 H   0  0  0  0  0  0  0  0  0  0  0  0
  -28.1030  -25.0220   19.5940 C   0  0  0  0  0  2  0  0  0  0  0  0
  -28.3650  -26.4380   19.9810 O   0  0  0  0  0  0  0  0  0  0  0  0
  -24.5450  -31.7290   23.1380 C   0  0  0  0  0  0  0  0  0  0  0  0
  -27.2530  -27.3090   19.9370 C   0  0  0  0  0  0  0  0  0  0  0  0
  -23.3740  -30.3530   21.4610 C   0  0  0  0  0  3  0  0  0  0  0  0
  -24.8580  -28.8910   19.9830 C   0  0  0  0  0  0  0  0  0  0  0  0
  -25.9120  -30.7260   21.2960 C   0  0  0  0  0  2  0  0  0  0  0  0
  -26.0200  -29.3730   20.5990 C   0  0  0  0  0  0  0  0  0  0  0  0
  -27.2190  -28.5940   20.5710 C   0  0  0  0  0  3  0  0  0  0  0  0
  -26.0620  -26.9020   19.2850 C   0  0  0  0  0  3  0  0  0  0  0  0
  -24.8820  -27.6600   19.3190 C   0  0  0  0  0  3  0  0  0  0  0  0
  -23.6040  -29.7350   20.0590 C   0  0  0  0  0  2  0  0  0  0  0  0
  -24.6290  -30.9520   22.0200 N   0  0  0  0  0  0  0  0  0  0  0  0
  -23.4550  -31.9670   23.6780 O   0  0  0  0  0  0  0  0  0  0  0  0
  -22.7370  -29.2900   22.3860 C   0  0  0  0  0  0  0  0  0  0  0  0
  -21.4180  -29.0710   22.2420 N   0  0  0  0  0  0  0  0  0  0  0  0
  -23.4280  -28.6660   23.1950 O   0  0  0  0  0  0  0  0  0  0  0  0
  -20.9180  -29.6290   21.5630 H   0  0  0  0  0  0  0  0  0  0  0  0
  -18.0730  -27.7690   22.6930 C   0  0  0  0  0  0  0  0  0  0  0  0
  -20.6220  -28.0940   22.9860 C   0  0  0  0  0  3  0  0  0  0  0  0
  -20.7650  -26.6790   22.3770 C   0  0  0  0  0  2  0  0  0  0  0  0
  -19.6790  -26.3510   21.3470 C   0  0  0  0  0  2  0  0  0  0  0  0
  -18.2900  -26.4430   21.9850 C   0  0  0  0  0  2  0  0  0  0  0  0
  -19.1680  -28.5510   23.1490 C   0  0  0  0  0  0  0  0  0  0  0  0
  -18.9100  -29.7920   23.7700 C   0  0  0  0  0  3  0  0  0  0  0  0
  -17.5900  -30.2530   23.9400 C   0  0  0  0  0  3  0  0  0  0  0  0
  -16.5100  -29.4670   23.5010 C   0  0  0  0  0  3  0  0  0  0  0  0
  -16.7520  -28.2280   22.8830 C   0  0  0  0  0  3  0  0  0  0  0  0
  -25.8130  -32.3740   23.7780 C   0  0  0  0  0  3  0  0  0  0  0  0
  -26.3280  -31.5970   25.0510 C   0  0  1  0  0  0  0  0  0  0  0  0
  -25.2280  -31.3340   26.1070 C   0  0  0  0  0  1  0  0  0  0  0  0
  -26.9340  -30.2300   24.6550 C   0  0  0  0  0  1  0  0  0  0  0  0
  -27.4620  -32.4020   25.7290 C   0  0  0  0  0  1  0  0  0  0  0  0
  -25.4760  -33.7630   24.1220 N   0  0  0  0  0  0  0  0  0  0  0  0
  -25.7800  -34.8290   23.3690 C   0  0  0  0  0  0  0  0  0  0  0  0
  -26.4410  -34.7490   22.3300 O   0  0  0  0  0  0  0  0  0  0  0  0
  -24.8810  -33.8970   24.9260 H   0  0  0  0  0  0  0  0  0  0  0  0
  -24.0000  -36.5820   23.0650 C   0  0  0  0  0  1  0  0  0  0  0  0
  -25.2690  -36.2040   23.8450 C   0  0  0  0  0  3  0  0  0  0  0  0
  -27.3970  -37.1400   24.6350 C   0  0  0  0  0  1  0  0  0  0  0  0
  -26.2730  -37.2810   23.7130 N   0  0  0  0  0  0  0  0  0  0  0  0
  -25.8480  -38.1920   23.8660 H   0  0  0  0  0  0  0  0  0  0  0  0
  1  4  2  0
  2  3  2  0
  2  5  1  0
  3  1  1  0
  4 51  1  0
  5  9  1  0
  5  4  1  0
  6  7  2  0
  6  9  1  0
  7 10  1  0
  8 11  1  0
  9  8  2  0
 10 21  1  0
 10 11  2  0
 11 12  1  0
 13 21  1  0
 14 19  1  0
 15 16  1  0
 15 14  1  0
 17 16  1  0
 17 26  1  0
 17 18  1  0
 19 13  1  0
 19 18  1  0
 20 13  2  0
 21 22  1  0
 23 24  2  0
 24 43  1  0
 25 24  1  0
 25 28  1  0
 26 27  1  0
 26 23  1  0
 27 25  2  0
 28 29  1  0
 29 30  2  0
 31 34  1  0
 31 30  1  0
 32 31  2  0
 33 32  1  0
 33 28  2  0
 34 35  1  0
 35 36  1  0
 36 37  2  0
 38 37  1  0
 38 42  1  0
 39 38  2  0
 40 35  2  0
 40 39  1  0
 41 40  1  0
 43 44  1  0
 44 47  1  0
 44 46  1  0
 45 43  2  0
 48 23  1  0
 48 49  1  0
 50 48  1  0
 51 52  1  0
 53 54  1  0
 53  3  1  0
 55 66  2  0
 56 54  1  0
 56 61  1  0
 57 65  1  0
 57 67  1  0
 58 64  1  0
 58 60  1  0
 59 65  1  0
 60 59  1  0
 61 60  2  0
 62 63  1  0
 62 56  2  0
 63 58  2  0
 64 57  1  0
 65 55  1  0
 67 69  2  0
 68 67  1  0
 70 68  1  0
 71 80  2  0
 71 76  1  0
 72 68  1  0
 72 76  1  0
 73 72  1  0
 74 75  1  0
 74 73  1  0
 75 71  1  0
 76 77  2  0
 77 78  1  0
 79 78  2  0
 80 79  1  0
 81 55  1  0
 81 86  1  0
 81 82  1  0
 82 85  1  1
 82 83  1  0
 84 82  1  0
 86 89  1  0
 87 91  1  0
 87 86  1  0
 88 87  2  0
 91 90  1  0
 93 91  1  0
 93 94  1  0
 93 92  1  0
M  ISO  4  13 100  21 100  53 101  54 101
M  END
>  <TORSDO>  (80) 
F 19

>  <SCORE>  (80) 
-14.501

>  <name>  (80) 
80

>  <ligand_id>  (80) 
80

>  <original_smiles>  (80) 
[H]Oc1c([H])c(C([H])([H])Oc2c([H])c([H])c3c(c2[H])C([H])([H])N(C(=O)C([H])(N([H])C(=O)C([H])(N([H])C([H])([H])[H])C([H])([H])[H])C(C([H])([H])[H])(C([H])([H])[H])C([H])([H])[H])C([H])(C(=O)N([H])C2([H])c4c([H])c([H])c([H])c([H])c4C([H])([H])C([H])([H])C2([H])[H])C3([H])[H])c([H])n1-c1c([H])c([H])c(N([H])C(=O)N2C([H])([H])C([H])([H])C([H])([H])C([H])(n3nc(-c4c([H])c([H])c(Oc5c([H])c([H])c(F)c([H])c5F)c([H])c4[H])c(C(=O)N([H])[H])c3N([H])[H])C2([H])[H])c(F)c1[H]

>  <smiles>  (80) 
[H]Oc1c([H])c(C([H])([H])Oc2c([H])c([H])c3c(c2[H])C([H])([H])N(C(=O)C([H])(N([H])C(=O)C([H])(N([H])C([H])([H])[H])C([H])([H])[H])C(C([H])([H])[H])(C([H])([H])[H])C([H])([H])[H])C([H])(C(=O)N([H])C2([H])c4c([H])c([H])c([H])c([H])c4C([H])([H])C([H])([H])C2([H])[H])C3([H])[H])c([H])n1-c1c([H])c([H])c(N([H])C(=O)N2C([H])([H])C([H])([H])C([H])([H])C([H])(n3nc(-c4c([H])c([H])c(Oc5c([H])c([H])c(F)c([H])c5F)c([H])c4[H])c(C(=O)N([H])[H])c3N([H])[H])C2([H])[H])c(F)c1[H]

$$$$
81:0:0
     RDKit          3D

 96104  0  0  1  0  0  0  0  0999 V2000
  -30.1870  -22.3890   18.3600 C   0  0  0  0  0  3  0  0  0  0  0  0
  -28.8900  -24.3380   19.2780 C   0  0  0  0  0  0  0  0  0  0  0  0
  -30.6330  -23.1890   17.1560 C   0  0  0  0  0  1  0  0  0  0  0  0
  -29.4710  -22.9900   19.3730 N   0  0  0  0  0  0  0  0  0  0  0  0
  -30.6120  -21.0900   18.2620 N   0  0  0  0  0  0  0  0  0  0  0  0
  -28.8110  -24.9390   18.2020 O   0  0  0  0  0  0  0  0  0  0  0  0
  -29.4070  -22.4680   20.2310 H   0  0  0  0  0  0  0  0  0  0  0  0
  -30.8610  -20.8830   17.3040 H   0  0  0  0  0  0  0  0  0  0  0  0
  -30.2050  -17.4690   19.2470 C   0  0  0  0  0  3  0  0  0  0  0  0
  -31.0200  -18.6940   21.1710 C   0  0  0  0  0  3  0  0  0  0  0  0
  -30.1590  -18.6860   18.5230 C   0  0  0  0  0  3  0  0  0  0  0  0
  -30.9460  -19.9210   20.4650 C   0  0  0  0  0  3  0  0  0  0  0  0
  -30.6500  -17.4450   20.5900 C   0  0  0  0  0  0  0  0  0  0  0  0
  -30.5090  -19.9210   19.1270 C   0  0  0  0  0  0  0  0  0  0  0  0
  -31.0210  -14.3680   19.8920 C   0  0  0  0  0  0  0  0  0  0  0  0
  -30.4640  -12.4150   18.4340 C   0  0  0  0  0  2  0  0  0  0  0  0
  -29.3710  -12.7310   17.3950 C   0  0  0  0  0  2  0  0  0  0  0  0
  -27.9630  -12.5490   17.9950 C   0  0  0  0  0  2  0  0  0  0  0  0
  -27.8110  -13.2690   19.3570 C   0  0  0  0  0  3  0  0  0  0  0  0
  -28.9820  -12.9190   20.2920 C   0  0  0  0  0  2  0  0  0  0  0  0
  -30.2540  -13.2620   19.6210 N   0  0  0  0  0  0  0  0  0  0  0  0
  -31.8800  -14.7760   19.1050 O   0  0  0  0  0  0  0  0  0  0  0  0
  -30.6030  -16.2110   21.4950 C   0  0  0  0  0  0  0  0  0  0  0  0
  -31.1400  -13.9870   22.2670 C   0  0  0  0  0  1  0  0  0  0  0  0
  -30.8410  -14.9030   21.1350 N   0  0  0  0  0  0  0  0  0  0  0  0
  -30.3590  -16.4690   22.6840 O   0  0  0  0  0  0  0  0  0  0  0  0
  -25.5410  -13.8590   20.4220 C   0  0  0  0  0  0  0  0  0  0  0  0
  -24.5140  -13.0790   20.8780 C   0  0  0  0  0  0  0  0  0  0  0  0
  -24.9290  -11.7260   20.6830 C   0  0  0  0  0  0  0  0  0  0  0  0
  -26.5220  -12.9810   19.9850 N   0  0  0  0  0  0  0  0  0  0  0  0
  -26.1640  -11.6880   20.1970 N   0  0  0  0  0  0  0  0  0  0  0  0
  -24.1980  -10.4680   20.8710 C   0  0  0  0  0  0  0  0  0  0  0  0
  -24.6980   -9.4370   21.6980 C   0  0  0  0  0  3  0  0  0  0  0  0
  -23.9680   -8.2430   21.8770 C   0  0  0  0  0  3  0  0  0  0  0  0
  -22.7230   -8.0690   21.2270 C   0  0  0  0  0  0  0  0  0  0  0  0
  -22.2420   -9.0860   20.3830 C   0  0  0  0  0  3  0  0  0  0  0  0
  -22.9720  -10.2730   20.2040 C   0  0  0  0  0  3  0  0  0  0  0  0
  -21.9560   -6.9330   21.3210 O   0  0  0  0  0  0  0  0  0  0  0  0
  -21.9720   -6.1430   22.4420 C   0  0  0  0  0  0  0  0  0  0  0  0
  -21.6520   -6.6550   23.7190 C   0  0  0  0  0  3  0  0  0  0  0  0
  -21.6140   -5.7930   24.8330 C   0  0  0  0  0  3  0  0  0  0  0  0
  -21.8890   -4.4200   24.6730 C   0  0  0  0  0  0  0  0  0  0  0  0
  -22.2030   -3.9090   23.4010 C   0  0  0  0  0  3  0  0  0  0  0  0
  -22.2420   -4.7680   22.2880 C   0  0  0  0  0  0  0  0  0  0  0  0
  -22.5230   -4.2670   21.0610 F   0  0  0  0  0  0  0  0  0  0  0  0
  -21.8470   -3.5890   25.7410 F   0  0  0  0  0  0  0  0  0  0  0  0
  -23.1780  -13.5540   21.3740 C   0  0  0  0  0  0  0  0  0  0  0  0
  -22.5650  -12.8190   22.2940 N   0  0  0  0  0  0  0  0  0  0  0  0
  -22.6940  -14.6130   20.9790 O   0  0  0  0  0  0  0  0  0  0  0  0
  -22.9770  -11.9630   22.6370 H   0  0  0  0  0  0  0  0  0  0  0  0
  -21.6740  -13.1170   22.6640 H   0  0  0  0  0  0  0  0  0  0  0  0
  -25.7140  -15.2370   20.3190 N   0  0  0  0  0  0  0  0  0  0  0  0
  -24.9610  -15.8840   20.5260 H   0  0  0  0  0  0  0  0  0  0  0  0
  -26.4840  -15.6770   19.8310 H   0  0  0  0  0  0  0  0  0  0  0  0
  -28.3550  -25.0280   20.5520 C   0  0  0  0  0  2  0  0  0  0  0  0
  -28.4530  -26.4810   20.4290 O   0  0  0  0  0  0  0  0  0  0  0  0
  -24.6100  -31.8200   23.1670 C   0  0  0  0  0  0  0  0  0  0  0  0
  -27.2910  -27.2300   20.3310 C   0  0  0  0  0  0  0  0  0  0  0  0
  -23.4350  -30.3740   21.5390 C   0  0  0  0  0  3  0  0  0  0  0  0
  -24.9150  -28.7810   20.1980 C   0  0  0  0  0  0  0  0  0  0  0  0
  -25.9680  -30.7070   21.3920 C   0  0  0  0  0  2  0  0  0  0  0  0
  -26.0610  -29.3110   20.8020 C   0  0  0  0  0  0  0  0  0  0  0  0
  -27.2500  -28.5440   20.8620 C   0  0  0  0  0  3  0  0  0  0  0  0
  -26.1310  -26.7280   19.6960 C   0  0  0  0  0  3  0  0  0  0  0  0
  -24.9490  -27.4930   19.6340 C   0  0  0  0  0  3  0  0  0  0  0  0
  -23.6770  -29.6510   20.1860 C   0  0  0  0  0  2  0  0  0  0  0  0
  -24.6880  -30.9840   22.0920 N   0  0  0  0  0  0  0  0  0  0  0  0
  -23.5180  -32.1150   23.6720 O   0  0  0  0  0  0  0  0  0  0  0  0
  -22.7530  -29.3890   22.5160 C   0  0  0  0  0  0  0  0  0  0  0  0
  -21.4290  -29.2150   22.3660 N   0  0  0  0  0  0  0  0  0  0  0  0
  -23.4120  -28.7830   23.3640 O   0  0  0  0  0  0  0  0  0  0  0  0
  -20.9600  -29.7570   21.6560 H   0  0  0  0  0  0  0  0  0  0  0  0
  -18.0370  -28.0530   22.8160 C   0  0  0  0  0  0  0  0  0  0  0  0
  -20.5880  -28.3070   23.1460 C   0  0  0  0  0  3  0  0  0  0  0  0
  -20.6980  -26.8570   22.6210 C   0  0  0  0  0  2  0  0  0  0  0  0
  -19.6210  -26.5060   21.5880 C   0  0  0  0  0  2  0  0  0  0  0  0
  -18.2240  -26.6810   22.1900 C   0  0  0  0  0  2  0  0  0  0  0  0
  -19.1480  -28.8230   23.2490 C   0  0  0  0  0  0  0  0  0  0  0  0
  -18.9200  -30.1080   23.7910 C   0  0  0  0  0  3  0  0  0  0  0  0
  -17.6140  -30.6200   23.9050 C   0  0  0  0  0  3  0  0  0  0  0  0
  -16.5170  -29.8470   23.4850 C   0  0  0  0  0  3  0  0  0  0  0  0
  -16.7290  -28.5650   22.9460 C   0  0  0  0  0  3  0  0  0  0  0  0
  -25.8840  -32.4640   23.7990 C   0  0  0  0  0  3  0  0  0  0  0  0
  -25.5670  -33.8660   24.1100 N   0  0  0  0  0  0  0  0  0  0  0  0
  -25.9020  -34.9090   23.3410 C   0  0  0  0  0  0  0  0  0  0  0  0
  -26.5810  -34.7950   22.3150 O   0  0  0  0  0  0  0  0  0  0  0  0
  -24.9680  -34.0280   24.9060 H   0  0  0  0  0  0  0  0  0  0  0  0
  -24.1700  -36.6900   22.9460 C   0  0  0  0  0  1  0  0  0  0  0  0
  -25.4040  -36.3020   23.7750 C   0  0  0  0  0  3  0  0  0  0  0  0
  -27.5300  -37.2010   24.6120 C   0  0  0  0  0  1  0  0  0  0  0  0
  -26.4340  -37.3570   23.6600 N   0  0  0  0  0  0  0  0  0  0  0  0
  -26.0240  -38.2760   23.7980 H   0  0  0  0  0  0  0  0  0  0  0  0
  -26.3900  -31.7080   25.0890 C   0  0  1  0  0  0  0  0  0  0  0  0
  -25.2850  -31.4700   26.1440 C   0  0  0  0  0  1  0  0  0  0  0  0
  -26.9860  -30.3320   24.7110 C   0  0  0  0  0  1  0  0  0  0  0  0
  -27.5270  -32.5130   25.7580 C   0  0  0  0  0  1  0  0  0  0  0  0
  1  3  1  0
  1  4  1  0
  2  4  1  0
  2 55  1  0
  4  7  1  0
  5  1  1  0
  5 14  1  0
  6  2  2  0
  8  5  1  0
  9 13  1  0
 11 14  1  0
 11  9  2  0
 12 10  1  0
 13 10  2  0
 13 23  1  0
 14 12  2  0
 15 25  1  0
 16 21  1  0
 17 18  1  0
 17 16  1  0
 19 18  1  0
 19 30  1  0
 19 20  1  0
 21 15  1  0
 21 20  1  0
 22 15  2  0
 23 26  2  0
 25 23  1  0
 25 24  1  0
 27 28  2  0
 28 47  1  0
 29 32  1  0
 29 28  1  0
 30 31  1  0
 30 27  1  0
 31 29  2  0
 32 33  1  0
 33 34  2  0
 35 38  1  0
 35 34  1  0
 36 35  2  0
 37 36  1  0
 37 32  2  0
 38 39  1  0
 39 40  1  0
 40 41  2  0
 42 41  1  0
 42 46  1  0
 43 42  2  0
 44 39  2  0
 44 43  1  0
 45 44  1  0
 47 48  1  0
 48 50  1  0
 48 51  1  0
 49 47  2  0
 52 27  1  0
 52 53  1  0
 54 52  1  0
 56 55  1  0
 57 68  2  0
 58 56  1  0
 58 63  1  0
 59 67  1  0
 59 69  1  0
 60 62  1  0
 61 67  1  0
 62 63  2  0
 62 61  1  0
 64 58  2  0
 65 64  1  0
 65 60  2  0
 66 60  1  0
 66 59  1  0
 67 57  1  0
 69 71  2  0
 70 69  1  0
 72 70  1  0
 73 82  2  0
 73 78  1  0
 74 70  1  0
 74 78  1  0
 75 74  1  0
 76 77  1  0
 76 75  1  0
 77 73  1  0
 78 79  2  0
 79 80  1  0
 81 80  2  0
 82 81  1  0
 83 57  1  0
 83 84  1  0
 83 93  1  0
 84 87  1  0
 85 89  1  0
 85 84  1  0
 86 85  2  0
 89 88  1  0
 91 89  1  0
 91 92  1  0
 91 90  1  0
 93 96  1  1
 93 94  1  0
 95 93  1  0
M  ISO  4  15 100  25 100  55 101  56 101
M  END
>  <TORSDO>  (81) 
F 18

>  <SCORE>  (81) 
-12.943

>  <name>  (81) 
81

>  <ligand_id>  (81) 
81

>  <original_smiles>  (81) 
[H]c1c([H])c([H])c2c(c1[H])C([H])([H])C([H])([H])C([H])([H])C2([H])N([H])C(=O)C1([H])N(C(=O)C([H])(N([H])C(=O)C([H])(N([H])C([H])([H])[H])C([H])([H])[H])C(C([H])([H])[H])(C([H])([H])[H])C([H])([H])[H])C([H])([H])c2c([H])c(OC([H])([H])C(=O)N([H])C(=[N+]([H])c3c([H])c([H])c(C(=O)N(C(=O)N4C([H])([H])C([H])([H])C([H])([H])C([H])(n5nc(-c6c([H])c([H])c(Oc7c([H])c([H])c(F)c([H])c7F)c([H])c6[H])c(C(=O)N([H])[H])c5N([H])[H])C4([H])[H])C([H])([H])[H])c([H])c3[H])C([H])([H])[H])c([H])c([H])c2C1([H])[H]

>  <smiles>  (81) 
[H]c1c([H])c([H])c2c(c1[H])C([H])([H])C([H])([H])C([H])([H])C2([H])N([H])C(=O)C1([H])N(C(=O)C([H])(N([H])C(=O)C([H])(N([H])C([H])([H])[H])C([H])([H])[H])C(C([H])([H])[H])(C([H])([H])[H])C([H])([H])[H])C([H])([H])c2c([H])c(OC([H])([H])C(=O)N([H])C(=[N+]([H])c3c([H])c([H])c(C(=O)N(C(=O)N4C([H])([H])C([H])([H])C([H])([H])C([H])(n5nc(-c6c([H])c([H])c(Oc7c([H])c([H])c(F)c([H])c7F)c([H])c6[H])c(C(=O)N([H])[H])c5N([H])[H])C4([H])[H])C([H])([H])[H])c([H])c3[H])C([H])([H])[H])c([H])c([H])c2C1([H])[H]

$$$$
82:0:0
     RDKit          3D

 94103  0  0  1  0  0  0  0  0999 V2000
  -28.3290  -25.1840   18.2250 C   0  0  0  0  0  3  0  0  0  0  0  0
  -28.3660  -25.1760   19.5700 C   0  0  0  0  0  0  0  0  0  0  0  0
  -28.6060  -23.8630   20.2910 C   0  0  0  0  0  0  0  0  0  0  0  0
  -28.3980  -23.9490   17.3730 C   0  0  0  0  0  2  0  0  0  0  0  0
  -28.0280  -22.7020   18.1820 C   0  0  0  0  0  2  0  0  0  0  0  0
  -28.5680  -22.6650   19.5590 N   0  0  0  0  0  0  0  0  0  0  0  0
  -28.8360  -23.8470   21.5050 O   0  0  0  0  0  0  0  0  0  0  0  0
  -30.4490  -19.6910   21.2030 C   0  0  0  0  0  3  0  0  0  0  0  0
  -28.7650  -18.7730   19.7750 C   0  0  0  0  0  3  0  0  0  0  0  0
  -29.9990  -21.0210   20.9310 C   0  0  0  0  0  3  0  0  0  0  0  0
  -28.3050  -20.1080   19.5130 C   0  0  0  0  0  3  0  0  0  0  0  0
  -29.8820  -18.5190   20.6110 C   0  0  0  0  0  0  0  0  0  0  0  0
  -28.9310  -21.2920   20.0330 C   0  0  0  0  0  0  0  0  0  0  0  0
  -30.6940  -14.7020   20.3820 C   0  0  0  0  0  0  0  0  0  0  0  0
  -30.3930  -12.4480   19.3620 C   0  0  0  0  0  2  0  0  0  0  0  0
  -29.4620  -12.5350   18.1360 C   0  0  0  0  0  2  0  0  0  0  0  0
  -27.9950  -12.3770   18.5740 C   0  0  0  0  0  2  0  0  0  0  0  0
  -27.6300  -13.2720   19.7880 C   0  0  0  0  0  3  0  0  0  0  0  0
  -28.6940  -13.2080   20.9050 C   0  0  0  0  0  2  0  0  0  0  0  0
  -29.9870  -13.5260   20.2930 N   0  0  0  0  0  0  0  0  0  0  0  0
  -31.8870  -14.6840   20.0650 O   0  0  0  0  0  0  0  0  0  0  0  0
  -30.6140  -17.1490   20.7380 C   0  0  0  0  0  0  0  0  0  0  0  0
  -30.0250  -15.9040   20.5840 N   0  0  0  0  0  0  0  0  0  0  0  0
  -31.8130  -17.2460   21.0300 O   0  0  0  0  0  0  0  0  0  0  0  0
  -29.0200  -15.8800   20.5740 H   0  0  0  0  0  0  0  0  0  0  0  0
  -25.2480  -13.8590   20.5330 C   0  0  0  0  0  0  0  0  0  0  0  0
  -24.1840  -13.0840   20.9070 C   0  0  0  0  0  0  0  0  0  0  0  0
  -24.6470  -11.7330   20.8710 C   0  0  0  0  0  0  0  0  0  0  0  0
  -26.2900  -12.9810   20.2900 N   0  0  0  0  0  0  0  0  0  0  0  0
  -25.9370  -11.6960   20.5570 N   0  0  0  0  0  0  0  0  0  0  0  0
  -23.9200  -10.4700   21.0590 C   0  0  0  0  0  0  0  0  0  0  0  0
  -24.3640   -9.4920   21.9780 C   0  0  0  0  0  3  0  0  0  0  0  0
  -23.6350   -8.2960   22.1560 C   0  0  0  0  0  3  0  0  0  0  0  0
  -22.4500   -8.0680   21.4160 C   0  0  0  0  0  0  0  0  0  0  0  0
  -22.0270   -9.0350   20.4860 C   0  0  0  0  0  3  0  0  0  0  0  0
  -22.7570  -10.2210   20.3050 C   0  0  0  0  0  3  0  0  0  0  0  0
  -21.6930   -6.9250   21.5040 O   0  0  0  0  0  0  0  0  0  0  0  0
  -21.6640   -6.1690   22.6480 C   0  0  0  0  0  0  0  0  0  0  0  0
  -21.2640   -6.7100   23.8890 C   0  0  0  0  0  3  0  0  0  0  0  0
  -21.1800   -5.8790   25.0240 C   0  0  0  0  0  3  0  0  0  0  0  0
  -21.4860   -4.5090   24.9200 C   0  0  0  0  0  0  0  0  0  0  0  0
  -21.8800   -3.9680   23.6850 C   0  0  0  0  0  3  0  0  0  0  0  0
  -21.9640   -4.7940   22.5500 C   0  0  0  0  0  0  0  0  0  0  0  0
  -22.3230   -4.2630   21.3570 F   0  0  0  0  0  0  0  0  0  0  0  0
  -21.3980   -3.7100   26.0100 F   0  0  0  0  0  0  0  0  0  0  0  0
  -22.7880  -13.5610   21.1820 C   0  0  0  0  0  0  0  0  0  0  0  0
  -22.0630  -12.8640   22.0500 N   0  0  0  0  0  0  0  0  0  0  0  0
  -22.3500  -14.5870   20.6640 O   0  0  0  0  0  0  0  0  0  0  0  0
  -22.4300  -12.0350   22.4910 H   0  0  0  0  0  0  0  0  0  0  0  0
  -21.1250  -13.1670   22.2770 H   0  0  0  0  0  0  0  0  0  0  0  0
  -25.4090  -15.2300   20.3560 N   0  0  0  0  0  0  0  0  0  0  0  0
  -24.6390  -15.8800   20.4680 H   0  0  0  0  0  0  0  0  0  0  0  0
  -26.2460  -15.6700   19.9990 H   0  0  0  0  0  0  0  0  0  0  0  0
  -28.3300  -26.4420   20.2110 O   0  0  0  0  0  0  0  0  0  0  0  0
  -24.6480  -31.8750   23.2380 C   0  0  0  0  0  0  0  0  0  0  0  0
  -27.2150  -27.3040   20.1420 C   0  0  0  0  0  0  0  0  0  0  0  0
  -23.4230  -30.4790   21.6110 C   0  0  0  0  0  3  0  0  0  0  0  0
  -24.8540  -28.9310   20.1650 C   0  0  0  0  0  0  0  0  0  0  0  0
  -25.9630  -30.7920   21.3990 C   0  0  0  0  0  2  0  0  0  0  0  0
  -26.0320  -29.4150   20.7460 C   0  0  0  0  0  0  0  0  0  0  0  0
  -27.2140  -28.6120   20.7260 C   0  0  0  0  0  3  0  0  0  0  0  0
  -26.0040  -26.8710   19.5530 C   0  0  0  0  0  3  0  0  0  0  0  0
  -24.8430  -27.6660   19.5590 C   0  0  0  0  0  3  0  0  0  0  0  0
  -23.6200  -29.8070   20.2280 C   0  0  0  0  0  2  0  0  0  0  0  0
  -24.6980  -31.0660   22.1380 N   0  0  0  0  0  0  0  0  0  0  0  0
  -23.5710  -32.1530   23.7850 O   0  0  0  0  0  0  0  0  0  0  0  0
  -22.7720  -29.4610   22.5770 C   0  0  0  0  0  0  0  0  0  0  0  0
  -21.4450  -29.2810   22.4620 N   0  0  0  0  0  0  0  0  0  0  0  0
  -23.4580  -28.8380   23.3920 O   0  0  0  0  0  0  0  0  0  0  0  0
  -20.9500  -29.8360   21.7780 H   0  0  0  0  0  0  0  0  0  0  0  0
  -18.0770  -28.0640   22.9740 C   0  0  0  0  0  0  0  0  0  0  0  0
  -20.6340  -28.3430   23.2410 C   0  0  0  0  0  3  0  0  0  0  0  0
  -20.7460  -26.9080   22.6760 C   0  0  0  0  0  2  0  0  0  0  0  0
  -19.6450  -26.5690   21.6650 C   0  0  0  0  0  2  0  0  0  0  0  0
  -18.2630  -26.7100   22.3090 C   0  0  0  0  0  2  0  0  0  0  0  0
  -19.1900  -28.8370   23.3980 C   0  0  0  0  0  0  0  0  0  0  0  0
  -18.9620  -30.1030   23.9800 C   0  0  0  0  0  3  0  0  0  0  0  0
  -17.6530  -30.5950   24.1430 C   0  0  0  0  0  3  0  0  0  0  0  0
  -16.5550  -29.8180   23.7360 C   0  0  0  0  0  3  0  0  0  0  0  0
  -16.7670  -28.5540   23.1580 C   0  0  0  0  0  3  0  0  0  0  0  0
  -25.9380  -32.5060   23.8460 C   0  0  0  0  0  3  0  0  0  0  0  0
  -25.6300  -33.9040   24.1860 N   0  0  0  0  0  0  0  0  0  0  0  0
  -25.9490  -34.9590   23.4250 C   0  0  0  0  0  0  0  0  0  0  0  0
  -26.6020  -34.8600   22.3830 O   0  0  0  0  0  0  0  0  0  0  0  0
  -25.0480  -34.0540   24.9970 H   0  0  0  0  0  0  0  0  0  0  0  0
  -24.2120  -36.7520   23.1090 C   0  0  0  0  0  1  0  0  0  0  0  0
  -25.4680  -36.3460   23.8970 C   0  0  0  0  0  3  0  0  0  0  0  0
  -27.6160  -37.2310   24.6920 C   0  0  0  0  0  1  0  0  0  0  0  0
  -26.4960  -37.4010   23.7700 N   0  0  0  0  0  0  0  0  0  0  0  0
  -26.0920  -38.3190   23.9280 H   0  0  0  0  0  0  0  0  0  0  0  0
  -26.4690  -31.7310   25.1150 C   0  0  1  0  0  0  0  0  0  0  0  0
  -25.3900  -31.4930   26.1960 C   0  0  0  0  0  1  0  0  0  0  0  0
  -27.0470  -30.3540   24.7130 C   0  0  0  0  0  1  0  0  0  0  0  0
  -27.6280  -32.5240   25.7640 C   0  0  0  0  0  1  0  0  0  0  0  0
  1  2  2  0
  2 54  1  0
  2  3  1  0
  3  7  2  0
  4  5  1  0
  4  1  1  0
  5  6  1  0
  6 13  1  0
  6  3  1  0
  9 12  1  0
 10  8  1  0
 11  9  2  0
 11 13  1  0
 12 22  1  0
 12  8  2  0
 13 10  2  0
 14 23  1  0
 15 20  1  0
 16 17  1  0
 16 15  1  0
 18 17  1  0
 18 29  1  0
 18 19  1  0
 20 14  1  0
 20 19  1  0
 21 14  2  0
 22 24  2  0
 23 22  1  0
 25 23  1  0
 26 27  2  0
 27 46  1  0
 28 27  1  0
 28 31  1  0
 29 26  1  0
 29 30  1  0
 30 28  2  0
 31 32  1  0
 32 33  2  0
 34 37  1  0
 34 33  1  0
 35 34  2  0
 36 35  1  0
 36 31  2  0
 37 38  1  0
 38 39  1  0
 39 40  2  0
 41 40  1  0
 41 45  1  0
 42 41  2  0
 43 38  2  0
 43 42  1  0
 44 43  1  0
 46 47  1  0
 47 50  1  0
 47 49  1  0
 48 46  2  0
 51 52  1  0
 51 26  1  0
 53 51  1  0
 55 66  2  0
 56 54  1  0
 56 61  1  0
 57 65  1  0
 57 67  1  0
 58 64  1  0
 58 60  1  0
 59 65  1  0
 60 59  1  0
 61 60  2  0
 62 63  1  0
 62 56  2  0
 63 58  2  0
 64 57  1  0
 65 55  1  0
 67 69  2  0
 68 67  1  0
 70 68  1  0
 71 80  2  0
 71 76  1  0
 72 68  1  0
 72 76  1  0
 73 72  1  0
 74 75  1  0
 74 73  1  0
 75 71  1  0
 76 77  2  0
 77 78  1  0
 79 78  2  0
 80 79  1  0
 81 55  1  0
 81 82  1  0
 81 91  1  0
 82 85  1  0
 83 87  1  0
 83 82  1  0
 84 83  2  0
 87 86  1  0
 89 87  1  0
 89 90  1  0
 89 88  1  0
 91 94  1  1
 91 92  1  0
 93 91  1  0
M  ISO  4   2 101  14 100  23 100  54 101
M  END
>  <TORSDO>  (82) 
F 17

>  <SCORE>  (82) 
-15.391

>  <name>  (82) 
82

>  <ligand_id>  (82) 
82

>  <original_smiles>  (82) 
[H]C1=C(Oc2c([H])c([H])c3c(c2[H])C([H])([H])N(C(=O)C([H])(N([H])C(=O)C([H])(N([H])C([H])([H])[H])C([H])([H])[H])C(C([H])([H])[H])(C([H])([H])[H])C([H])([H])[H])C([H])(C(=O)N([H])C2([H])c4c([H])c([H])c([H])c([H])c4C([H])([H])C([H])([H])C2([H])[H])C3([H])[H])C(=O)N(c2c([H])c([H])c(C(=O)N([H])C(=O)N3C([H])([H])C([H])([H])C([H])([H])C([H])(n4nc(-c5c([H])c([H])c(Oc6c([H])c([H])c(F)c([H])c6F)c([H])c5[H])c(C(=O)N([H])[H])c4N([H])[H])C3([H])[H])c([H])c2[H])C([H])([H])C1([H])[H]

>  <smiles>  (82) 
[H]C1=C(Oc2c([H])c([H])c3c(c2[H])C([H])([H])N(C(=O)C([H])(N([H])C(=O)C([H])(N([H])C([H])([H])[H])C([H])([H])[H])C(C([H])([H])[H])(C([H])([H])[H])C([H])([H])[H])C([H])(C(=O)N([H])C2([H])c4c([H])c([H])c([H])c([H])c4C([H])([H])C([H])([H])C2([H])[H])C3([H])[H])C(=O)N(c2c([H])c([H])c(C(=O)N([H])C(=O)N3C([H])([H])C([H])([H])C([H])([H])C([H])(n4nc(-c5c([H])c([H])c(Oc6c([H])c([H])c(F)c([H])c6F)c([H])c5[H])c(C(=O)N([H])[H])c4N([H])[H])C3([H])[H])c([H])c2[H])C([H])([H])C1([H])[H]

$$$$
83:0:0
     RDKit          3D

 94103  0  0  1  0  0  0  0  0999 V2000
  -28.8870  -23.9550   20.0920 C   0  0  0  0  0  0  0  0  0  0  0  0
  -29.9620  -23.8360   19.1330 C   0  0  0  0  0  0  0  0  0  0  0  0
  -28.6340  -22.5860   20.6060 C   0  0  0  0  0  0  0  0  0  0  0  0
  -28.2170  -25.1090   20.4670 C   0  0  0  0  0  3  0  0  0  0  0  0
  -30.3770  -22.3660   19.0670 C   0  0  0  0  0  2  0  0  0  0  0  0
  -29.4420  -21.6570   19.9630 N   0  0  0  0  0  0  0  0  0  0  0  0
  -30.4870  -24.7310   18.4630 O   0  0  0  0  0  0  0  0  0  0  0  0
  -27.8340  -22.3130   21.5070 O   0  0  0  0  0  0  0  0  0  0  0  0
  -30.7830  -19.5360   20.4040 C   0  0  0  0  0  3  0  0  0  0  0  0
  -30.9600  -18.1150   20.5230 C   0  0  0  0  0  3  0  0  0  0  0  0
  -28.6320  -17.8330   20.0720 C   0  0  0  0  0  3  0  0  0  0  0  0
  -28.4500  -19.2460   19.9210 C   0  0  0  0  0  0  0  0  0  0  0  0
  -29.5300  -20.1700   20.1170 C   0  0  0  0  0  0  0  0  0  0  0  0
  -29.8770  -17.2130   20.3630 C   0  0  0  0  0  0  0  0  0  0  0  0
  -27.0670  -19.6990   19.4830 C   0  0  0  0  0  1  0  0  0  0  0  0
  -30.7430  -14.7350   20.0650 C   0  0  0  0  0  0  0  0  0  0  0  0
  -30.5290  -12.5130   18.9520 C   0  0  0  0  0  2  0  0  0  0  0  0
  -29.5120  -12.6660   17.7980 C   0  0  0  0  0  2  0  0  0  0  0  0
  -28.0670  -12.4730   18.3030 C   0  0  0  0  0  2  0  0  0  0  0  0
  -27.7730  -13.2880   19.5910 C   0  0  0  0  0  3  0  0  0  0  0  0
  -28.8970  -13.1000   20.6360 C   0  0  0  0  0  2  0  0  0  0  0  0
  -30.1640  -13.4910   19.9980 N   0  0  0  0  0  0  0  0  0  0  0  0
  -31.8820  -14.9320   19.6260 O   0  0  0  0  0  0  0  0  0  0  0  0
  -29.9100  -15.7440   20.4910 N   0  0  0  0  0  0  0  0  0  0  0  0
  -29.0450  -15.3590   20.8360 H   0  0  0  0  0  0  0  0  0  0  0  0
  -25.4290  -13.8550   20.4770 C   0  0  0  0  0  0  0  0  0  0  0  0
  -24.3860  -13.0670   20.8810 C   0  0  0  0  0  0  0  0  0  0  0  0
  -24.8420  -11.7190   20.7640 C   0  0  0  0  0  0  0  0  0  0  0  0
  -26.4550  -12.9860   20.1430 N   0  0  0  0  0  0  0  0  0  0  0  0
  -26.1110  -11.6930   20.3760 N   0  0  0  0  0  0  0  0  0  0  0  0
  -24.1270  -10.4500   20.9460 C   0  0  0  0  0  0  0  0  0  0  0  0
  -24.5370   -9.5020   21.9090 C   0  0  0  0  0  3  0  0  0  0  0  0
  -23.8220   -8.2970   22.0770 C   0  0  0  0  0  3  0  0  0  0  0  0
  -22.6820   -8.0320   21.2820 C   0  0  0  0  0  0  0  0  0  0  0  0
  -22.2900   -8.9690   20.3110 C   0  0  0  0  0  3  0  0  0  0  0  0
  -23.0060  -10.1660   20.1410 C   0  0  0  0  0  3  0  0  0  0  0  0
  -21.9390   -6.8780   21.3580 O   0  0  0  0  0  0  0  0  0  0  0  0
  -21.7400   -6.2280   22.5500 C   0  0  0  0  0  0  0  0  0  0  0  0
  -21.0910   -6.8500   23.6390 C   0  0  0  0  0  3  0  0  0  0  0  0
  -20.8450   -6.1240   24.8200 C   0  0  0  0  0  3  0  0  0  0  0  0
  -21.2380   -4.7740   24.9120 C   0  0  0  0  0  0  0  0  0  0  0  0
  -21.8780   -4.1510   23.8270 C   0  0  0  0  0  3  0  0  0  0  0  0
  -22.1260   -4.8760   22.6480 C   0  0  0  0  0  0  0  0  0  0  0  0
  -22.7250   -4.2660   21.5970 F   0  0  0  0  0  0  0  0  0  0  0  0
  -20.9950   -4.0740   26.0440 F   0  0  0  0  0  0  0  0  0  0  0  0
  -23.0080  -13.5340   21.2540 C   0  0  0  0  0  0  0  0  0  0  0  0
  -22.3340  -12.8090   22.1400 N   0  0  0  0  0  0  0  0  0  0  0  0
  -22.5400  -14.5750   20.7960 O   0  0  0  0  0  0  0  0  0  0  0  0
  -22.7270  -11.9660   22.5320 H   0  0  0  0  0  0  0  0  0  0  0  0
  -21.4120  -13.1030   22.4300 H   0  0  0  0  0  0  0  0  0  0  0  0
  -25.5830  -15.2320   20.3410 N   0  0  0  0  0  0  0  0  0  0  0  0
  -24.8090  -15.8690   20.4990 H   0  0  0  0  0  0  0  0  0  0  0  0
  -26.3720  -15.6740   19.8880 H   0  0  0  0  0  0  0  0  0  0  0  0
  -28.4230  -26.4550   20.0700 O   0  0  0  0  0  0  0  0  0  0  0  0
  -24.7200  -31.8360   23.2390 C   0  0  0  0  0  0  0  0  0  0  0  0
  -27.3260  -27.3340   20.0870 C   0  0  0  0  0  0  0  0  0  0  0  0
  -23.5180  -30.4830   21.5590 C   0  0  0  0  0  3  0  0  0  0  0  0
  -24.9690  -28.9570   20.1060 C   0  0  0  0  0  0  0  0  0  0  0  0
  -26.0600  -30.7910   21.3970 C   0  0  0  0  0  2  0  0  0  0  0  0
  -26.1380  -29.4260   20.7200 C   0  0  0  0  0  0  0  0  0  0  0  0
  -27.3230  -28.6260   20.7000 C   0  0  0  0  0  3  0  0  0  0  0  0
  -26.1350  -26.9170   19.4530 C   0  0  0  0  0  3  0  0  0  0  0  0
  -24.9700  -27.7080   19.4630 C   0  0  0  0  0  3  0  0  0  0  0  0
  -23.7370  -29.8370   20.1660 C   0  0  0  0  0  2  0  0  0  0  0  0
  -24.7860  -31.0530   22.1230 N   0  0  0  0  0  0  0  0  0  0  0  0
  -23.6360  -32.1070   23.7740 O   0  0  0  0  0  0  0  0  0  0  0  0
  -22.8430  -29.4500   22.4920 C   0  0  0  0  0  0  0  0  0  0  0  0
  -21.5160  -29.2840   22.3530 N   0  0  0  0  0  0  0  0  0  0  0  0
  -23.5120  -28.8000   23.3000 O   0  0  0  0  0  0  0  0  0  0  0  0
  -21.0370  -29.8620   21.6770 H   0  0  0  0  0  0  0  0  0  0  0  0
  -18.1190  -28.1400   22.8460 C   0  0  0  0  0  0  0  0  0  0  0  0
  -20.6860  -28.3340   23.0940 C   0  0  0  0  0  3  0  0  0  0  0  0
  -20.7490  -26.9250   22.4600 C   0  0  0  0  0  2  0  0  0  0  0  0
  -19.6280  -26.6680   21.4480 C   0  0  0  0  0  2  0  0  0  0  0  0
  -18.2580  -26.8150   22.1150 C   0  0  0  0  0  2  0  0  0  0  0  0
  -19.2590  -28.8600   23.2920 C   0  0  0  0  0  0  0  0  0  0  0  0
  -19.0740  -30.1030   23.9370 C   0  0  0  0  0  3  0  0  0  0  0  0
  -17.7820  -30.6230   24.1390 C   0  0  0  0  0  3  0  0  0  0  0  0
  -16.6570  -29.8990   23.7090 C   0  0  0  0  0  3  0  0  0  0  0  0
  -16.8260  -28.6580   23.0690 C   0  0  0  0  0  3  0  0  0  0  0  0
  -26.0040  -32.4430   23.8870 C   0  0  0  0  0  3  0  0  0  0  0  0
  -25.7090  -33.8430   24.2280 N   0  0  0  0  0  0  0  0  0  0  0  0
  -26.0410  -34.8980   23.4730 C   0  0  0  0  0  0  0  0  0  0  0  0
  -26.6960  -34.7970   22.4330 O   0  0  0  0  0  0  0  0  0  0  0  0
  -25.1240  -33.9980   25.0370 H   0  0  0  0  0  0  0  0  0  0  0  0
  -24.3120  -36.6990   23.1610 C   0  0  0  0  0  1  0  0  0  0  0  0
  -25.5680  -36.2870   23.9450 C   0  0  0  0  0  3  0  0  0  0  0  0
  -27.7210  -37.1610   24.7390 C   0  0  0  0  0  1  0  0  0  0  0  0
  -26.6000  -37.3400   23.8210 N   0  0  0  0  0  0  0  0  0  0  0  0
  -26.1970  -38.2570   23.9910 H   0  0  0  0  0  0  0  0  0  0  0  0
  -26.4900  -31.6530   25.1630 C   0  0  1  0  0  0  0  0  0  0  0  0
  -25.3790  -31.4180   26.2130 C   0  0  0  0  0  1  0  0  0  0  0  0
  -27.0610  -30.2720   24.7660 C   0  0  0  0  0  1  0  0  0  0  0  0
  -27.6430  -32.4240   25.8490 C   0  0  0  0  0  1  0  0  0  0  0  0
  1  4  2  0
  1  3  1  0
  2  1  1  0
  3  8  2  0
  5  2  1  0
  5  6  1  0
  6 13  1  0
  6  3  1  0
  7  2  2  0
  9 10  1  0
 11 14  1  0
 12 11  2  0
 12 13  1  0
 13  9  2  0
 14 24  1  0
 14 10  2  0
 15 12  1  0
 16 24  1  0
 17 22  1  0
 18 19  1  0
 18 17  1  0
 20 19  1  0
 20 29  1  0
 20 21  1  0
 22 16  1  0
 22 21  1  0
 23 16  2  0
 24 25  1  0
 26 27  2  0
 27 46  1  0
 28 27  1  0
 28 31  1  0
 29 30  1  0
 29 26  1  0
 30 28  2  0
 31 32  1  0
 32 33  2  0
 34 37  1  0
 34 33  1  0
 35 34  2  0
 36 35  1  0
 36 31  2  0
 37 38  1  0
 38 43  2  0
 38 39  1  0
 39 40  2  0
 40 41  1  0
 41 45  1  0
 42 41  2  0
 43 42  1  0
 44 43  1  0
 46 47  1  0
 47 50  1  0
 47 49  1  0
 48 46  2  0
 51 26  1  0
 51 52  1  0
 53 51  1  0
 54 56  1  0
 54  4  1  0
 55 66  2  0
 56 61  1  0
 57 65  1  0
 57 67  1  0
 58 64  1  0
 58 60  1  0
 59 65  1  0
 60 59  1  0
 61 60  2  0
 62 63  1  0
 62 56  2  0
 63 58  2  0
 64 57  1  0
 65 55  1  0
 67 69  2  0
 68 67  1  0
 70 68  1  0
 71 80  2  0
 71 76  1  0
 72 68  1  0
 72 76  1  0
 73 72  1  0
 74 75  1  0
 74 73  1  0
 75 71  1  0
 76 77  2  0
 77 78  1  0
 79 78  2  0
 80 79  1  0
 81 55  1  0
 81 82  1  0
 81 91  1  0
 82 85  1  0
 83 87  1  0
 83 82  1  0
 84 83  2  0
 87 86  1  0
 89 87  1  0
 89 90  1  0
 89 88  1  0
 91 94  1  1
 91 92  1  0
 93 91  1  0
M  ISO  4   4 101  16 100  24 100  54 101
M  END
>  <TORSDO>  (83) 
F 17

>  <SCORE>  (83) 
-14.806

>  <name>  (83) 
83

>  <ligand_id>  (83) 
83

>  <original_smiles>  (83) 
[H]C(Oc1c([H])c([H])c2c(c1[H])C([H])([H])N(C(=O)C([H])(N([H])C(=O)C([H])(N([H])C([H])([H])[H])C([H])([H])[H])C(C([H])([H])[H])(C([H])([H])[H])C([H])([H])[H])C([H])(C(=O)N([H])C1([H])c3c([H])c([H])c([H])c([H])c3C([H])([H])C([H])([H])C1([H])[H])C2([H])[H])=C1C(=O)N(c2c([H])c([H])c(N([H])C(=O)N3C([H])([H])C([H])([H])C([H])([H])C([H])(n4nc(-c5c([H])c([H])c(Oc6c([H])c([H])c(F)c([H])c6F)c([H])c5[H])c(C(=O)N([H])[H])c4N([H])[H])C3([H])[H])c([H])c2C([H])([H])[H])C([H])([H])C1=O

>  <smiles>  (83) 
[H]C(Oc1c([H])c([H])c2c(c1[H])C([H])([H])N(C(=O)C([H])(N([H])C(=O)C([H])(N([H])C([H])([H])[H])C([H])([H])[H])C(C([H])([H])[H])(C([H])([H])[H])C([H])([H])[H])C([H])(C(=O)N([H])C1([H])c3c([H])c([H])c([H])c([H])c3C([H])([H])C([H])([H])C1([H])[H])C2([H])[H])=C1C(=O)N(c2c([H])c([H])c(N([H])C(=O)N3C([H])([H])C([H])([H])C([H])([H])C([H])(n4nc(-c5c([H])c([H])c(Oc6c([H])c([H])c(F)c([H])c6F)c([H])c5[H])c(C(=O)N([H])[H])c4N([H])[H])C3([H])[H])c([H])c2C([H])([H])[H])C([H])([H])C1=O

$$$$
84:0:0
     RDKit          3D

 96104  0  0  1  0  0  0  0  0999 V2000
  -28.8160  -20.6380   20.7940 C   0  0  0  0  0  0  0  0  0  0  0  0
  -28.3590  -23.0420   20.8320 C   0  0  0  0  0  0  0  0  0  0  0  0
  -29.1170  -21.9460   20.5440 N   0  0  0  0  0  0  0  0  0  0  0  0
  -27.6970  -20.2420   21.1400 O   0  0  0  0  0  0  0  0  0  0  0  0
  -27.3010  -22.9730   21.4720 O   0  0  0  0  0  0  0  0  0  0  0  0
  -30.0120  -22.1160   20.1160 H   0  0  0  0  0  0  0  0  0  0  0  0
  -31.2640  -19.9530   20.6410 C   0  0  0  0  0  3  0  0  0  0  0  0
  -29.5750  -18.1940   20.5540 C   0  0  0  0  0  3  0  0  0  0  0  0
  -31.9300  -17.6000   20.5400 C   0  0  0  0  0  3  0  0  0  0  0  0
  -29.9000  -19.5860   20.6180 C   0  0  0  0  0  0  0  0  0  0  0  0
  -32.2680  -18.9690   20.6020 C   0  0  0  0  0  0  0  0  0  0  0  0
  -30.5760  -17.1800   20.5040 C   0  0  0  0  0  0  0  0  0  0  0  0
  -30.9000  -14.7110   20.0040 C   0  0  0  0  0  0  0  0  0  0  0  0
  -30.5710  -12.5010   18.9420 C   0  0  0  0  0  2  0  0  0  0  0  0
  -29.5670  -12.6470   17.7810 C   0  0  0  0  0  2  0  0  0  0  0  0
  -28.1220  -12.4900   18.2940 C   0  0  0  0  0  2  0  0  0  0  0  0
  -27.8340  -13.3570   19.5490 C   0  0  0  0  0  3  0  0  0  0  0  0
  -28.9530  -13.2090   20.6050 C   0  0  0  0  0  2  0  0  0  0  0  0
  -30.2320  -13.5210   19.9510 N   0  0  0  0  0  0  0  0  0  0  0  0
  -32.0140  -14.8410   19.4930 O   0  0  0  0  0  0  0  0  0  0  0  0
  -30.2010  -15.7780   20.4760 N   0  0  0  0  0  0  0  0  0  0  0  0
  -29.2560  -15.5650   20.7550 H   0  0  0  0  0  0  0  0  0  0  0  0
  -25.4930  -13.9430   20.4370 C   0  0  0  0  0  0  0  0  0  0  0  0
  -24.4470  -13.1620   20.8470 C   0  0  0  0  0  0  0  0  0  0  0  0
  -24.8960  -11.8100   20.7390 C   0  0  0  0  0  0  0  0  0  0  0  0
  -26.5150  -13.0660   20.1070 N   0  0  0  0  0  0  0  0  0  0  0  0
  -26.1640  -11.7770   20.3470 N   0  0  0  0  0  0  0  0  0  0  0  0
  -24.1750  -10.5450   20.9300 C   0  0  0  0  0  0  0  0  0  0  0  0
  -24.5950   -9.5900   21.8810 C   0  0  0  0  0  3  0  0  0  0  0  0
  -23.8740   -8.3900   22.0590 C   0  0  0  0  0  3  0  0  0  0  0  0
  -22.7160   -8.1370   21.2860 C   0  0  0  0  0  0  0  0  0  0  0  0
  -22.3140   -9.0800   20.3240 C   0  0  0  0  0  3  0  0  0  0  0  0
  -23.0370  -10.2720   20.1430 C   0  0  0  0  0  3  0  0  0  0  0  0
  -21.9680   -6.9880   21.3720 O   0  0  0  0  0  0  0  0  0  0  0  0
  -21.8280   -6.3080   22.5550 C   0  0  0  0  0  0  0  0  0  0  0  0
  -21.2260   -6.8980   23.6870 C   0  0  0  0  0  3  0  0  0  0  0  0
  -21.0400   -6.1390   24.8600 C   0  0  0  0  0  3  0  0  0  0  0  0
  -21.4450   -4.7910   24.9000 C   0  0  0  0  0  0  0  0  0  0  0  0
  -22.0400   -4.2000   23.7720 C   0  0  0  0  0  3  0  0  0  0  0  0
  -22.2270   -4.9560   22.6010 C   0  0  0  0  0  0  0  0  0  0  0  0
  -22.7810   -4.3760   21.5100 F   0  0  0  0  0  0  0  0  0  0  0  0
  -21.2590   -4.0610   26.0250 F   0  0  0  0  0  0  0  0  0  0  0  0
  -23.0730  -13.6360   21.2260 C   0  0  0  0  0  0  0  0  0  0  0  0
  -22.3940  -12.9080   22.1050 N   0  0  0  0  0  0  0  0  0  0  0  0
  -22.6130  -14.6850   20.7780 O   0  0  0  0  0  0  0  0  0  0  0  0
  -22.7770  -12.0560   22.4870 H   0  0  0  0  0  0  0  0  0  0  0  0
  -21.4750  -13.2070   22.4020 H   0  0  0  0  0  0  0  0  0  0  0  0
  -25.6550  -15.3190   20.2960 N   0  0  0  0  0  0  0  0  0  0  0  0
  -24.8980  -15.9700   20.4750 H   0  0  0  0  0  0  0  0  0  0  0  0
  -26.4750  -15.7640   19.9060 H   0  0  0  0  0  0  0  0  0  0  0  0
  -33.6080  -19.3520   20.6450 N   0  0  0  0  0  0  0  0  0  0  0  0
  -33.8470  -20.2810   20.9800 H   0  0  0  0  0  0  0  0  0  0  0  0
  -34.3120  -18.6570   20.8770 H   0  0  0  0  0  0  0  0  0  0  0  0
  -28.8720  -24.3310   20.3280 C   0  0  0  0  0  3  0  0  0  0  0  0
  -28.2190  -25.4780   20.6600 C   0  0  0  0  0  3  0  0  0  0  0  0
  -28.4900  -26.7720   20.2250 O   0  0  0  0  0  0  0  0  0  0  0  0
  -24.7180  -31.9700   23.3820 C   0  0  0  0  0  0  0  0  0  0  0  0
  -27.3820  -27.6050   20.1850 C   0  0  0  0  0  0  0  0  0  0  0  0
  -23.5240  -30.6120   21.6970 C   0  0  0  0  0  3  0  0  0  0  0  0
  -24.9900  -29.1300   20.2220 C   0  0  0  0  0  0  0  0  0  0  0  0
  -26.0520  -30.9830   21.5160 C   0  0  0  0  0  2  0  0  0  0  0  0
  -26.1490  -29.6320   20.8320 C   0  0  0  0  0  0  0  0  0  0  0  0
  -27.3510  -28.8770   20.8110 C   0  0  0  0  0  3  0  0  0  0  0  0
  -26.2090  -27.1390   19.5490 C   0  0  0  0  0  3  0  0  0  0  0  0
  -25.0180  -27.8850   19.5730 C   0  0  0  0  0  3  0  0  0  0  0  0
  -23.7410  -29.9800   20.2960 C   0  0  0  0  0  2  0  0  0  0  0  0
  -24.7830  -31.2020   22.2570 N   0  0  0  0  0  0  0  0  0  0  0  0
  -23.6340  -32.2210   23.9270 O   0  0  0  0  0  0  0  0  0  0  0  0
  -22.8760  -29.5590   22.6250 C   0  0  0  0  0  0  0  0  0  0  0  0
  -21.5580  -29.3490   22.4670 N   0  0  0  0  0  0  0  0  0  0  0  0
  -23.5560  -28.9350   23.4430 O   0  0  0  0  0  0  0  0  0  0  0  0
  -21.0690  -29.9060   21.7800 H   0  0  0  0  0  0  0  0  0  0  0  0
  -18.2020  -28.0650   22.8680 C   0  0  0  0  0  0  0  0  0  0  0  0
  -20.7470  -28.3790   23.2040 C   0  0  0  0  0  3  0  0  0  0  0  0
  -20.8980  -26.9620   22.6060 C   0  0  0  0  0  2  0  0  0  0  0  0
  -19.8270  -26.6280   21.5630 C   0  0  0  0  0  2  0  0  0  0  0  0
  -18.4270  -26.7310   22.1760 C   0  0  0  0  0  2  0  0  0  0  0  0
  -19.2920  -28.8460   23.3370 C   0  0  0  0  0  0  0  0  0  0  0  0
  -19.0290  -30.0940   23.9420 C   0  0  0  0  0  3  0  0  0  0  0  0
  -17.7090  -30.5610   24.0840 C   0  0  0  0  0  3  0  0  0  0  0  0
  -16.6330  -29.7780   23.6340 C   0  0  0  0  0  3  0  0  0  0  0  0
  -16.8810  -28.5300   23.0310 C   0  0  0  0  0  3  0  0  0  0  0  0
  -26.0000  -32.5900   24.0230 C   0  0  0  0  0  3  0  0  0  0  0  0
  -26.4910  -31.8140   25.3050 C   0  0  1  0  0  0  0  0  0  0  0  0
  -25.3780  -31.5740   26.3510 C   0  0  0  0  0  1  0  0  0  0  0  0
  -27.0780  -30.4370   24.9190 C   0  0  0  0  0  1  0  0  0  0  0  0
  -27.6300  -32.6040   25.9900 C   0  0  0  0  0  1  0  0  0  0  0  0
  -25.6990  -33.9910   24.3470 N   0  0  0  0  0  0  0  0  0  0  0  0
  -26.0380  -35.0380   23.5830 C   0  0  0  0  0  0  0  0  0  0  0  0
  -26.7100  -34.9270   22.5530 O   0  0  0  0  0  0  0  0  0  0  0  0
  -25.1050  -34.1520   25.1460 H   0  0  0  0  0  0  0  0  0  0  0  0
  -24.3220  -36.8380   23.2130 C   0  0  0  0  0  1  0  0  0  0  0  0
  -25.5560  -36.4310   24.0330 C   0  0  0  0  0  3  0  0  0  0  0  0
  -27.6870  -37.3120   24.8800 C   0  0  0  0  0  1  0  0  0  0  0  0
  -26.5960  -37.4780   23.9230 N   0  0  0  0  0  0  0  0  0  0  0  0
  -26.1920  -38.4010   24.0610 H   0  0  0  0  0  0  0  0  0  0  0  0
  1  4  2  0
  2  5  2  0
  3  1  1  0
  3  2  1  0
  6  3  1  0
  8 10  2  0
  9 11  1  0
 10  7  1  0
 10  1  1  0
 11  7  2  0
 11 51  1  0
 12  9  2  0
 12  8  1  0
 13 21  1  0
 14 19  1  0
 15 16  1  0
 15 14  1  0
 17 16  1  0
 17 26  1  0
 17 18  1  0
 19 13  1  0
 19 18  1  0
 20 13  2  0
 21 12  1  0
 21 22  1  0
 23 24  2  0
 24 43  1  0
 25 24  1  0
 25 28  1  0
 26 27  1  0
 26 23  1  0
 27 25  2  0
 28 29  1  0
 29 30  2  0
 31 34  1  0
 31 30  1  0
 32 31  2  0
 33 32  1  0
 33 28  2  0
 34 35  1  0
 35 40  2  0
 35 36  1  0
 36 37  2  0
 37 38  1  0
 38 42  1  0
 39 38  2  0
 40 39  1  0
 41 40  1  0
 43 44  1  0
 44 47  1  0
 44 46  1  0
 45 43  2  0
 48 23  1  0
 48 49  1  0
 50 48  1  0
 51 53  1  0
 51 52  1  0
 54 55  2  0
 54  2  1  0
 56 55  1  0
 57 68  2  0
 58 56  1  0
 58 63  1  0
 59 67  1  0
 59 69  1  0
 60 66  1  0
 60 62  1  0
 61 67  1  0
 62 61  1  0
 63 62  2  0
 64 65  1  0
 64 58  2  0
 65 60  2  0
 66 59  1  0
 67 57  1  0
 69 71  2  0
 70 69  1  0
 72 70  1  0
 73 82  2  0
 73 78  1  0
 74 70  1  0
 74 78  1  0
 75 74  1  0
 76 77  1  0
 76 75  1  0
 77 73  1  0
 78 79  2  0
 79 80  1  0
 81 80  2  0
 82 81  1  0
 83 57  1  0
 83 88  1  0
 83 84  1  0
 84 87  1  1
 84 85  1  0
 86 84  1  0
 88 91  1  0
 89 93  1  0
 89 88  1  0
 90 89  2  0
 93 92  1  0
 95 93  1  0
 95 96  1  0
 95 94  1  0
M  ISO  4  13 100  21 100  55 101  56 101
M  END
>  <TORSDO>  (84) 
F 19

>  <SCORE>  (84) 
-14.041

>  <name>  (84) 
84

>  <ligand_id>  (84) 
84

>  <original_smiles>  (84) 
[H]C(Oc1c([H])c([H])c2c(c1[H])C([H])([H])N(C(=O)C([H])(N([H])C(=O)C([H])(N([H])C([H])([H])[H])C([H])([H])[H])C(C([H])([H])[H])(C([H])([H])[H])C([H])([H])[H])C([H])(C(=O)N([H])C1([H])c3c([H])c([H])c([H])c([H])c3C([H])([H])C([H])([H])C1([H])[H])C2([H])[H])=C([H])C(=O)N([H])C(=O)c1c([H])c(N([H])[H])c([H])c(N([H])C(=O)N2C([H])([H])C([H])([H])C([H])([H])C([H])(n3nc(-c4c([H])c([H])c(Oc5c([H])c([H])c(F)c([H])c5F)c([H])c4[H])c(C(=O)N([H])[H])c3N([H])[H])C2([H])[H])c1[H]

>  <smiles>  (84) 
[H]C(Oc1c([H])c([H])c2c(c1[H])C([H])([H])N(C(=O)C([H])(N([H])C(=O)C([H])(N([H])C([H])([H])[H])C([H])([H])[H])C(C([H])([H])[H])(C([H])([H])[H])C([H])([H])[H])C([H])(C(=O)N([H])C1([H])c3c([H])c([H])c([H])c([H])c3C([H])([H])C([H])([H])C1([H])[H])C2([H])[H])=C([H])C(=O)N([H])C(=O)c1c([H])c(N([H])[H])c([H])c(N([H])C(=O)N2C([H])([H])C([H])([H])C([H])([H])C([H])(n3nc(-c4c([H])c([H])c(Oc5c([H])c([H])c(F)c([H])c5F)c([H])c4[H])c(C(=O)N([H])[H])c3N([H])[H])C2([H])[H])c1[H]

$$$$
85:0:0
     RDKit          3D

 94103  0  0  1  0  0  0  0  0999 V2000
  -29.6930  -23.3230   21.1850 C   0  0  0  0  0  0  0  0  0  0  0  0
  -28.7220  -23.5380   20.2860 C   0  0  0  0  0  0  0  0  0  0  0  0
  -30.0640  -21.9000   21.1950 C   0  0  0  0  0  0  0  0  0  0  0  0
  -28.4700  -22.1890   19.7080 C   0  0  0  0  0  0  0  0  0  0  0  0
  -30.3670  -24.3460   22.0850 C   0  0  0  0  0  1  0  0  0  0  0  0
  -29.2980  -21.2490   20.2890 N   0  0  0  0  0  0  0  0  0  0  0  0
  -30.9210  -21.3660   21.9110 O   0  0  0  0  0  0  0  0  0  0  0  0
  -27.6270  -21.9230   18.8440 O   0  0  0  0  0  0  0  0  0  0  0  0
  -30.2450  -18.4950   17.8530 C   0  0  0  0  0  3  0  0  0  0  0  0
  -29.9030  -19.7300   18.4350 C   0  0  0  0  0  3  0  0  0  0  0  0
  -30.2620  -17.3050   18.6010 C   0  0  0  0  0  3  0  0  0  0  0  0
  -29.5660  -18.5880   20.5570 C   0  0  0  0  0  3  0  0  0  0  0  0
  -29.5620  -19.8470   19.8030 C   0  0  0  0  0  0  0  0  0  0  0  0
  -29.9200  -17.2870   19.9720 C   0  0  0  0  0  0  0  0  0  0  0  0
  -30.5820  -14.7910   20.3580 C   0  0  0  0  0  0  0  0  0  0  0  0
  -30.3640  -12.5020   19.3910 C   0  0  0  0  0  2  0  0  0  0  0  0
  -29.4400  -12.5840   18.1560 C   0  0  0  0  0  2  0  0  0  0  0  0
  -27.9670  -12.4170   18.5760 C   0  0  0  0  0  2  0  0  0  0  0  0
  -27.5910  -13.3110   19.7870 C   0  0  0  0  0  3  0  0  0  0  0  0
  -28.6410  -13.2320   20.9190 C   0  0  0  0  0  2  0  0  0  0  0  0
  -29.9460  -13.5660   20.3360 N   0  0  0  0  0  0  0  0  0  0  0  0
  -31.7610  -14.8620   19.9940 O   0  0  0  0  0  0  0  0  0  0  0  0
  -29.8570  -15.9490   20.6360 N   0  0  0  0  0  0  0  0  0  0  0  0
  -29.0190  -15.7900   21.1740 H   0  0  0  0  0  0  0  0  0  0  0  0
  -25.2020  -13.9150   20.5010 C   0  0  0  0  0  0  0  0  0  0  0  0
  -24.1300  -13.1470   20.8690 C   0  0  0  0  0  0  0  0  0  0  0  0
  -24.5870  -11.7940   20.8460 C   0  0  0  0  0  0  0  0  0  0  0  0
  -26.2430  -13.0290   20.2720 N   0  0  0  0  0  0  0  0  0  0  0  0
  -25.8790  -11.7480   20.5410 N   0  0  0  0  0  0  0  0  0  0  0  0
  -23.8520  -10.5360   21.0380 C   0  0  0  0  0  0  0  0  0  0  0  0
  -24.2820   -9.5620   21.9660 C   0  0  0  0  0  3  0  0  0  0  0  0
  -23.5460   -8.3700   22.1450 C   0  0  0  0  0  3  0  0  0  0  0  0
  -22.3660   -8.1440   21.3960 C   0  0  0  0  0  0  0  0  0  0  0  0
  -21.9560   -9.1060   20.4560 C   0  0  0  0  0  3  0  0  0  0  0  0
  -22.6930  -10.2890   20.2740 C   0  0  0  0  0  3  0  0  0  0  0  0
  -21.6010   -7.0060   21.4850 O   0  0  0  0  0  0  0  0  0  0  0  0
  -21.5600   -6.2560   22.6330 C   0  0  0  0  0  0  0  0  0  0  0  0
  -21.1620   -6.8090   23.8700 C   0  0  0  0  0  3  0  0  0  0  0  0
  -21.0640   -5.9860   25.0100 C   0  0  0  0  0  3  0  0  0  0  0  0
  -21.3540   -4.6120   24.9140 C   0  0  0  0  0  0  0  0  0  0  0  0
  -21.7470   -4.0590   23.6830 C   0  0  0  0  0  3  0  0  0  0  0  0
  -21.8460   -4.8800   22.5450 C   0  0  0  0  0  0  0  0  0  0  0  0
  -22.2030   -4.3380   21.3560 F   0  0  0  0  0  0  0  0  0  0  0  0
  -21.2540   -3.8200   26.0070 F   0  0  0  0  0  0  0  0  0  0  0  0
  -22.7350  -13.6340   21.1310 C   0  0  0  0  0  0  0  0  0  0  0  0
  -21.9970  -12.9480   21.9960 N   0  0  0  0  0  0  0  0  0  0  0  0
  -22.3080  -14.6590   20.6030 O   0  0  0  0  0  0  0  0  0  0  0  0
  -22.3530  -12.1200   22.4510 H   0  0  0  0  0  0  0  0  0  0  0  0
  -21.0610  -13.2580   22.2130 H   0  0  0  0  0  0  0  0  0  0  0  0
  -25.3720  -15.2840   20.3190 N   0  0  0  0  0  0  0  0  0  0  0  0
  -24.6040  -15.9380   20.4160 H   0  0  0  0  0  0  0  0  0  0  0  0
  -26.2220  -15.7200   19.9840 H   0  0  0  0  0  0  0  0  0  0  0  0
  -27.8890  -24.8500   19.8840 C   0  0  0  0  0  2  0  0  0  0  0  0
  -28.2170  -26.2950   20.2240 O   0  0  0  0  0  0  0  0  0  0  0  0
  -24.5890  -31.8840   23.2150 C   0  0  0  0  0  0  0  0  0  0  0  0
  -27.1540  -27.2460   20.1470 C   0  0  0  0  0  0  0  0  0  0  0  0
  -23.3740  -30.4900   21.5850 C   0  0  0  0  0  3  0  0  0  0  0  0
  -24.8140  -28.9390   20.1440 C   0  0  0  0  0  0  0  0  0  0  0  0
  -25.9220  -30.7790   21.3960 C   0  0  0  0  0  2  0  0  0  0  0  0
  -25.9930  -29.3950   20.7450 C   0  0  0  0  0  0  0  0  0  0  0  0
  -27.1650  -28.5620   20.7390 C   0  0  0  0  0  3  0  0  0  0  0  0
  -25.9480  -26.8860   19.4960 C   0  0  0  0  0  3  0  0  0  0  0  0
  -24.7980  -27.6930   19.5090 C   0  0  0  0  0  3  0  0  0  0  0  0
  -23.5830  -29.8240   20.2010 C   0  0  0  0  0  2  0  0  0  0  0  0
  -24.6480  -31.0700   22.1210 N   0  0  0  0  0  0  0  0  0  0  0  0
  -23.5060  -32.1650   23.7520 O   0  0  0  0  0  0  0  0  0  0  0  0
  -22.7110  -29.4720   22.5470 C   0  0  0  0  0  0  0  0  0  0  0  0
  -21.3830  -29.3000   22.4310 N   0  0  0  0  0  0  0  0  0  0  0  0
  -23.3930  -28.8420   23.3590 O   0  0  0  0  0  0  0  0  0  0  0  0
  -20.8900  -29.8590   21.7500 H   0  0  0  0  0  0  0  0  0  0  0  0
  -18.0060  -28.1070   22.9570 C   0  0  0  0  0  0  0  0  0  0  0  0
  -20.5680  -28.3650   23.2090 C   0  0  0  0  0  3  0  0  0  0  0  0
  -20.6640  -26.9310   22.6360 C   0  0  0  0  0  2  0  0  0  0  0  0
  -19.5560  -26.6090   21.6300 C   0  0  0  0  0  2  0  0  0  0  0  0
  -18.1780  -26.7560   22.2820 C   0  0  0  0  0  2  0  0  0  0  0  0
  -19.1280  -28.8690   23.3780 C   0  0  0  0  0  0  0  0  0  0  0  0
  -18.9150  -30.1320   23.9720 C   0  0  0  0  0  3  0  0  0  0  0  0
  -17.6110  -30.6340   24.1460 C   0  0  0  0  0  3  0  0  0  0  0  0
  -16.5040  -29.8690   23.7400 C   0  0  0  0  0  3  0  0  0  0  0  0
  -16.7020  -28.6070   23.1520 C   0  0  0  0  0  3  0  0  0  0  0  0
  -25.8720  -32.5180   23.8300 C   0  0  0  0  0  3  0  0  0  0  0  0
  -25.5610  -33.9150   24.1700 N   0  0  0  0  0  0  0  0  0  0  0  0
  -25.8840  -34.9720   23.4140 C   0  0  0  0  0  0  0  0  0  0  0  0
  -26.5430  -34.8760   22.3760 O   0  0  0  0  0  0  0  0  0  0  0  0
  -24.9730  -34.0640   24.9770 H   0  0  0  0  0  0  0  0  0  0  0  0
  -24.1490  -36.7660   23.0890 C   0  0  0  0  0  1  0  0  0  0  0  0
  -25.3980  -36.3560   23.8860 C   0  0  0  0  0  3  0  0  0  0  0  0
  -27.5410  -37.2380   24.7010 C   0  0  0  0  0  1  0  0  0  0  0  0
  -26.4270  -37.4130   23.7710 N   0  0  0  0  0  0  0  0  0  0  0  0
  -26.0210  -38.3300   23.9310 H   0  0  0  0  0  0  0  0  0  0  0  0
  -26.3980  -31.7440   25.1010 C   0  0  1  0  0  0  0  0  0  0  0  0
  -25.3130  -31.5040   26.1760 C   0  0  0  0  0  1  0  0  0  0  0  0
  -26.9780  -30.3660   24.7040 C   0  0  0  0  0  1  0  0  0  0  0  0
  -27.5540  -32.5360   25.7560 C   0  0  0  0  0  1  0  0  0  0  0  0
  1  3  1  0
  1  5  1  0
  2  1  2  0
  3  7  2  0
  4  2  1  0
  4  6  1  0
  6  3  1  0
  8  4  2  0
  9 10  2  0
  9 11  1  0
 10 13  1  0
 11 14  2  0
 13  6  1  0
 13 12  2  0
 14 12  1  0
 14 23  1  0
 15 23  1  0
 16 21  1  0
 17 18  1  0
 17 16  1  0
 19 18  1  0
 19 28  1  0
 19 20  1  0
 21 15  1  0
 21 20  1  0
 22 15  2  0
 23 24  1  0
 25 26  2  0
 26 45  1  0
 27 26  1  0
 27 30  1  0
 28 25  1  0
 28 29  1  0
 29 27  2  0
 30 31  1  0
 31 32  2  0
 33 36  1  0
 33 32  1  0
 34 33  2  0
 35 34  1  0
 35 30  2  0
 36 37  1  0
 37 38  1  0
 38 39  2  0
 40 39  1  0
 40 44  1  0
 41 40  2  0
 42 37  2  0
 42 41  1  0
 43 42  1  0
 45 46  1  0
 46 49  1  0
 46 48  1  0
 47 45  2  0
 50 51  1  0
 50 25  1  0
 52 50  1  0
 53 54  1  0
 53  2  1  0
 55 66  2  0
 56 54  1  0
 56 61  1  0
 57 65  1  0
 57 67  1  0
 58 64  1  0
 58 60  1  0
 59 65  1  0
 60 59  1  0
 61 60  2  0
 62 63  1  0
 62 56  2  0
 63 58  2  0
 64 57  1  0
 65 55  1  0
 67 69  2  0
 68 67  1  0
 70 68  1  0
 71 80  2  0
 71 76  1  0
 72 68  1  0
 72 76  1  0
 73 72  1  0
 74 75  1  0
 74 73  1  0
 75 71  1  0
 76 77  2  0
 77 78  1  0
 79 78  2  0
 80 79  1  0
 81 55  1  0
 81 82  1  0
 81 91  1  0
 82 85  1  0
 83 87  1  0
 83 82  1  0
 84 83  2  0
 87 86  1  0
 89 87  1  0
 89 90  1  0
 89 88  1  0
 91 94  1  1
 91 92  1  0
 93 91  1  0
M  ISO  4  15 100  23 100  53 101  54 101
M  END
>  <TORSDO>  (85) 
F 18

>  <SCORE>  (85) 
-14.809

>  <name>  (85) 
85

>  <ligand_id>  (85) 
85

>  <original_smiles>  (85) 
[H]c1c([H])c(N([H])C(=O)N2C([H])([H])C([H])([H])C([H])([H])C([H])(n3nc(-c4c([H])c([H])c(Oc5c([H])c([H])c(F)c([H])c5F)c([H])c4[H])c(C(=O)N([H])[H])c3N([H])[H])C2([H])[H])c([H])c(N2C(=O)C(C([H])([H])[H])=C(C([H])([H])Oc3c([H])c([H])c4c(c3[H])C([H])([H])N(C(=O)C([H])(N([H])C(=O)C([H])(N([H])C([H])([H])[H])C([H])([H])[H])C(C([H])([H])[H])(C([H])([H])[H])C([H])([H])[H])C([H])(C(=O)N([H])C3([H])c5c([H])c([H])c([H])c([H])c5C([H])([H])C([H])([H])C3([H])[H])C4([H])[H])C2=O)c1[H]

>  <smiles>  (85) 
[H]c1c([H])c(N([H])C(=O)N2C([H])([H])C([H])([H])C([H])([H])C([H])(n3nc(-c4c([H])c([H])c(Oc5c([H])c([H])c(F)c([H])c5F)c([H])c4[H])c(C(=O)N([H])[H])c3N([H])[H])C2([H])[H])c([H])c(N2C(=O)C(C([H])([H])[H])=C(C([H])([H])Oc3c([H])c([H])c4c(c3[H])C([H])([H])N(C(=O)C([H])(N([H])C(=O)C([H])(N([H])C([H])([H])[H])C([H])([H])[H])C(C([H])([H])[H])(C([H])([H])[H])C([H])([H])[H])C([H])(C(=O)N([H])C3([H])c5c([H])c([H])c([H])c([H])c5C([H])([H])C([H])([H])C3([H])[H])C4([H])[H])C2=O)c1[H]

$$$$
86:0:0
     RDKit          3D

 92101  0  0  1  0  0  0  0  0999 V2000
  -28.6410  -23.7890   20.3480 C   0  0  0  0  0  0  0  0  0  0  0  0
  -28.2750  -22.5410   20.9960 C   0  0  0  0  0  0  0  0  0  0  0  0
  -29.5450  -22.9960   19.5130 C   0  0  0  0  0  0  0  0  0  0  0  0
  -28.1870  -25.0940   20.5820 C   0  0  0  0  0  3  0  0  0  0  0  0
  -29.1590  -21.7730   20.1830 N   0  0  0  0  0  0  0  0  0  0  0  0
  -27.4910  -22.3230   21.9000 O   0  0  0  0  0  0  0  0  0  0  0  0
  -30.3020  -23.3190   18.6180 O   0  0  0  0  0  0  0  0  0  0  0  0
  -29.1290  -19.4420   21.2300 C   0  0  0  0  0  3  0  0  0  0  0  0
  -30.1480  -19.5360   19.1280 C   0  0  0  0  0  3  0  0  0  0  0  0
  -29.4010  -18.0390   21.3080 C   0  0  0  0  0  3  0  0  0  0  0  0
  -30.4230  -18.1100   19.1820 C   0  0  0  0  0  3  0  0  0  0  0  0
  -29.4860  -20.3050   20.1500 C   0  0  0  0  0  0  0  0  0  0  0  0
  -30.0780  -17.2860   20.3000 C   0  0  0  0  0  0  0  0  0  0  0  0
  -30.8450  -14.8300   19.6440 C   0  0  0  0  0  0  0  0  0  0  0  0
  -30.4950  -12.6100   18.5030 C   0  0  0  0  0  2  0  0  0  0  0  0
  -29.4040  -12.7130   17.4130 C   0  0  0  0  0  2  0  0  0  0  0  0
  -28.0010  -12.5080   18.0150 C   0  0  0  0  0  2  0  0  0  0  0  0
  -27.7870  -13.3450   19.3010 C   0  0  0  0  0  3  0  0  0  0  0  0
  -28.9720  -13.1910   20.2720 C   0  0  0  0  0  2  0  0  0  0  0  0
  -30.1970  -13.6060   19.5650 N   0  0  0  0  0  0  0  0  0  0  0  0
  -31.8590  -15.0180   18.9630 O   0  0  0  0  0  0  0  0  0  0  0  0
  -30.5500  -15.4410   21.9300 C   0  0  0  0  0  1  0  0  0  0  0  0
  -30.3710  -15.8180   20.5140 N   0  0  0  0  0  0  0  0  0  0  0  0
  -25.5420  -13.9140   20.4080 C   0  0  0  0  0  0  0  0  0  0  0  0
  -24.5150  -13.1290   20.8570 C   0  0  0  0  0  0  0  0  0  0  0  0
  -24.9280  -11.7780   20.6450 C   0  0  0  0  0  0  0  0  0  0  0  0
  -26.5140  -13.0400   19.9480 N   0  0  0  0  0  0  0  0  0  0  0  0
  -26.1610  -11.7450   20.1510 N   0  0  0  0  0  0  0  0  0  0  0  0
  -24.1980  -10.5170   20.8290 C   0  0  0  0  0  0  0  0  0  0  0  0
  -24.6780   -9.5020   21.6860 C   0  0  0  0  0  3  0  0  0  0  0  0
  -23.9480   -8.3070   21.8590 C   0  0  0  0  0  3  0  0  0  0  0  0
  -22.7220   -8.1180   21.1770 C   0  0  0  0  0  0  0  0  0  0  0  0
  -22.2610   -9.1210   20.3070 C   0  0  0  0  0  3  0  0  0  0  0  0
  -22.9920  -10.3080   20.1310 C   0  0  0  0  0  3  0  0  0  0  0  0
  -21.9580   -6.9790   21.2630 O   0  0  0  0  0  0  0  0  0  0  0  0
  -21.9210   -6.2240   22.4070 C   0  0  0  0  0  0  0  0  0  0  0  0
  -21.5130   -6.7650   23.6460 C   0  0  0  0  0  3  0  0  0  0  0  0
  -21.4220   -5.9360   24.7820 C   0  0  0  0  0  3  0  0  0  0  0  0
  -21.7290   -4.5670   24.6810 C   0  0  0  0  0  0  0  0  0  0  0  0
  -22.1300   -4.0240   23.4470 C   0  0  0  0  0  3  0  0  0  0  0  0
  -22.2230   -4.8500   22.3140 C   0  0  0  0  0  0  0  0  0  0  0  0
  -22.5890   -4.3170   21.1220 F   0  0  0  0  0  0  0  0  0  0  0  0
  -21.6350   -3.7680   25.7690 F   0  0  0  0  0  0  0  0  0  0  0  0
  -23.1850  -13.6050   21.3660 C   0  0  0  0  0  0  0  0  0  0  0  0
  -22.5770  -12.8620   22.2840 N   0  0  0  0  0  0  0  0  0  0  0  0
  -22.6980  -14.6690   20.9830 O   0  0  0  0  0  0  0  0  0  0  0  0
  -22.9870  -12.0010   22.6140 H   0  0  0  0  0  0  0  0  0  0  0  0
  -21.6910  -13.1600   22.6660 H   0  0  0  0  0  0  0  0  0  0  0  0
  -25.7230  -15.2910   20.3310 N   0  0  0  0  0  0  0  0  0  0  0  0
  -25.0070  -15.9500   20.6180 H   0  0  0  0  0  0  0  0  0  0  0  0
  -26.5460  -15.7420   19.9500 H   0  0  0  0  0  0  0  0  0  0  0  0
  -28.4700  -26.3940   20.0590 O   0  0  0  0  0  0  0  0  0  0  0  0
  -24.7900  -31.8860   23.1500 C   0  0  0  0  0  0  0  0  0  0  0  0
  -27.4040  -27.3260   20.0460 C   0  0  0  0  0  0  0  0  0  0  0  0
  -23.5870  -30.4940   21.5070 C   0  0  0  0  0  3  0  0  0  0  0  0
  -25.0400  -28.9610   20.0580 C   0  0  0  0  0  0  0  0  0  0  0  0
  -26.1280  -30.8170   21.3150 C   0  0  0  0  0  2  0  0  0  0  0  0
  -26.2140  -29.4400   20.6560 C   0  0  0  0  0  0  0  0  0  0  0  0
  -27.4020  -28.6350   20.6400 C   0  0  0  0  0  3  0  0  0  0  0  0
  -26.2090  -26.9170   19.4190 C   0  0  0  0  0  3  0  0  0  0  0  0
  -25.0420  -27.7060   19.4280 C   0  0  0  0  0  3  0  0  0  0  0  0
  -23.8000  -29.8320   20.1200 C   0  0  0  0  0  2  0  0  0  0  0  0
  -24.8540  -31.0840   22.0470 N   0  0  0  0  0  0  0  0  0  0  0  0
  -23.7070  -32.1540   23.6930 O   0  0  0  0  0  0  0  0  0  0  0  0
  -22.9330  -29.4680   22.4640 C   0  0  0  0  0  0  0  0  0  0  0  0
  -21.6050  -29.2910   22.3490 N   0  0  0  0  0  0  0  0  0  0  0  0
  -23.6190  -28.8350   23.2690 O   0  0  0  0  0  0  0  0  0  0  0  0
  -21.1080  -29.8530   21.6720 H   0  0  0  0  0  0  0  0  0  0  0  0
  -18.2410  -28.0500   22.8450 C   0  0  0  0  0  0  0  0  0  0  0  0
  -20.7950  -28.3420   23.1190 C   0  0  0  0  0  3  0  0  0  0  0  0
  -20.9160  -26.9120   22.5430 C   0  0  0  0  0  2  0  0  0  0  0  0
  -19.8200  -26.5750   21.5270 C   0  0  0  0  0  2  0  0  0  0  0  0
  -18.4350  -26.7030   22.1690 C   0  0  0  0  0  2  0  0  0  0  0  0
  -19.3490  -28.8260   23.2770 C   0  0  0  0  0  0  0  0  0  0  0  0
  -19.1130  -30.0850   23.8700 C   0  0  0  0  0  3  0  0  0  0  0  0
  -17.8010  -30.5700   24.0350 C   0  0  0  0  0  3  0  0  0  0  0  0
  -16.7080  -29.7910   23.6190 C   0  0  0  0  0  3  0  0  0  0  0  0
  -16.9280  -28.5320   23.0300 C   0  0  0  0  0  3  0  0  0  0  0  0
  -26.0710  -32.5240   23.7710 C   0  0  0  0  0  3  0  0  0  0  0  0
  -25.7450  -33.9080   24.1430 N   0  0  0  0  0  0  0  0  0  0  0  0
  -26.0630  -34.9880   23.4160 C   0  0  0  0  0  0  0  0  0  0  0  0
  -26.7300  -34.9240   22.3800 O   0  0  0  0  0  0  0  0  0  0  0  0
  -25.1510  -34.0320   24.9500 H   0  0  0  0  0  0  0  0  0  0  0  0
  -24.3250  -36.7810   23.1110 C   0  0  0  0  0  1  0  0  0  0  0  0
  -25.5630  -36.3570   23.9170 C   0  0  0  0  0  3  0  0  0  0  0  0
  -27.6860  -37.2270   24.7920 C   0  0  0  0  0  1  0  0  0  0  0  0
  -26.5880  -37.4210   23.8470 N   0  0  0  0  0  0  0  0  0  0  0  0
  -26.1750  -38.3330   24.0230 H   0  0  0  0  0  0  0  0  0  0  0  0
  -26.6170  -31.7290   25.0210 C   0  0  1  0  0  0  0  0  0  0  0  0
  -25.5400  -31.4440   26.0940 C   0  0  0  0  0  1  0  0  0  0  0  0
  -27.2200  -30.3730   24.5880 C   0  0  0  0  0  1  0  0  0  0  0  0
  -27.7590  -32.5270   25.6910 C   0  0  0  0  0  1  0  0  0  0  0  0
  1  4  2  0
  1  2  1  0
  2  6  2  0
  3  5  1  0
  3  1  1  0
  5  2  1  0
  7  3  2  0
  8 10  1  0
  9 11  2  0
  9 12  1  0
 11 13  1  0
 12  5  1  0
 12  8  2  0
 13 23  1  0
 13 10  2  0
 14 23  1  0
 15 20  1  0
 16 17  1  0
 16 15  1  0
 18 17  1  0
 18 27  1  0
 18 19  1  0
 20 14  1  0
 20 19  1  0
 21 14  2  0
 23 22  1  0
 24 25  2  0
 25 44  1  0
 26 29  1  0
 26 25  1  0
 27 28  1  0
 27 24  1  0
 28 26  2  0
 29 30  1  0
 30 31  2  0
 32 35  1  0
 32 31  1  0
 33 32  2  0
 34 33  1  0
 34 29  2  0
 35 36  1  0
 36 37  1  0
 37 38  2  0
 39 38  1  0
 39 43  1  0
 40 39  2  0
 41 36  2  0
 41 40  1  0
 42 41  1  0
 44 45  1  0
 45 47  1  0
 45 48  1  0
 46 44  2  0
 49 24  1  0
 49 50  1  0
 51 49  1  0
 52  4  1  0
 53 64  2  0
 54 52  1  0
 54 59  1  0
 55 63  1  0
 55 65  1  0
 56 62  1  0
 56 58  1  0
 57 63  1  0
 58 57  1  0
 59 58  2  0
 60 61  1  0
 60 54  2  0
 61 56  2  0
 62 55  1  0
 63 53  1  0
 65 67  2  0
 66 65  1  0
 68 66  1  0
 69 78  2  0
 69 74  1  0
 70 66  1  0
 70 74  1  0
 71 70  1  0
 72 73  1  0
 72 71  1  0
 73 69  1  0
 74 75  2  0
 75 76  1  0
 77 76  2  0
 78 77  1  0
 79 53  1  0
 79 80  1  0
 79 89  1  0
 80 83  1  0
 81 85  1  0
 81 80  1  0
 82 81  2  0
 85 84  1  0
 87 85  1  0
 87 88  1  0
 87 86  1  0
 89 92  1  1
 89 90  1  0
 91 89  1  0
M  ISO  4   4 101  14 100  23 100  52 101
M  END
>  <TORSDO>  (86) 
F 17

>  <SCORE>  (86) 
-13.055

>  <name>  (86) 
86

>  <ligand_id>  (86) 
86

>  <original_smiles>  (86) 
[H]C(Oc1c([H])c([H])c2c(c1[H])C([H])([H])N(C(=O)C([H])(N([H])C(=O)C([H])(N([H])C([H])([H])[H])C([H])([H])[H])C(C([H])([H])[H])(C([H])([H])[H])C([H])([H])[H])C([H])(C(=O)N([H])C1([H])c3c([H])c([H])c([H])c([H])c3C([H])([H])C([H])([H])C1([H])[H])C2([H])[H])=C1C(=O)N(c2c([H])c([H])c(N(C(=O)N3C([H])([H])C([H])([H])C([H])([H])C([H])(n4nc(-c5c([H])c([H])c(Oc6c([H])c([H])c(F)c([H])c6F)c([H])c5[H])c(C(=O)N([H])[H])c4N([H])[H])C3([H])[H])C([H])([H])[H])c([H])c2[H])C1=O

>  <smiles>  (86) 
[H]C(Oc1c([H])c([H])c2c(c1[H])C([H])([H])N(C(=O)C([H])(N([H])C(=O)C([H])(N([H])C([H])([H])[H])C([H])([H])[H])C(C([H])([H])[H])(C([H])([H])[H])C([H])([H])[H])C([H])(C(=O)N([H])C1([H])c3c([H])c([H])c([H])c([H])c3C([H])([H])C([H])([H])C1([H])[H])C2([H])[H])=C1C(=O)N(c2c([H])c([H])c(N(C(=O)N3C([H])([H])C([H])([H])C([H])([H])C([H])(n4nc(-c5c([H])c([H])c(Oc6c([H])c([H])c(F)c([H])c6F)c([H])c5[H])c(C(=O)N([H])[H])c4N([H])[H])C3([H])[H])C([H])([H])[H])c([H])c2[H])C1=O

$$$$
87:0:0
     RDKit          3D

 96105  0  0  1  0  0  0  0  0999 V2000
  -29.6750  -23.8110   21.5660 C   0  0  0  0  0  3  0  0  0  0  0  0
  -30.1630  -21.4420   21.7120 C   0  0  0  0  0  3  0  0  0  0  0  0
  -28.8310  -23.6450   20.5280 C   0  0  0  0  0  0  0  0  0  0  0  0
  -30.3510  -22.6870   22.1920 C   0  0  0  0  0  0  0  0  0  0  0  0
  -28.6120  -22.2210   20.0310 C   0  0  0  0  0  0  0  0  0  0  0  0
  -29.3360  -21.1530   20.6080 N   0  0  0  0  0  0  0  0  0  0  0  0
  -27.7720  -22.0020   19.1510 O   0  0  0  0  0  0  0  0  0  0  0  0
  -29.3630  -19.5480   18.6930 C   0  0  0  0  0  3  0  0  0  0  0  0
  -29.4780  -18.2740   18.1050 C   0  0  0  0  0  3  0  0  0  0  0  0
  -29.5840  -18.5080   20.8770 C   0  0  0  0  0  3  0  0  0  0  0  0
  -29.3990  -19.7380   20.0960 C   0  0  0  0  0  0  0  0  0  0  0  0
  -29.7290  -17.1760   20.2870 C   0  0  0  0  0  0  0  0  0  0  0  0
  -29.6530  -17.1120   18.8750 C   0  0  0  0  0  0  0  0  0  0  0  0
  -29.6950  -15.9200   18.2330 F   0  0  0  0  0  0  0  0  0  0  0  0
  -30.5790  -14.7640   20.7450 C   0  0  0  0  0  0  0  0  0  0  0  0
  -30.4780  -12.4460   19.8230 C   0  0  0  0  0  2  0  0  0  0  0  0
  -29.6200  -12.4700   18.5380 C   0  0  0  0  0  2  0  0  0  0  0  0
  -28.1260  -12.3040   18.8770 C   0  0  0  0  0  2  0  0  0  0  0  0
  -27.6710  -13.2190   20.0460 C   0  0  0  0  0  3  0  0  0  0  0  0
  -28.6560  -13.1720   21.2350 C   0  0  0  0  0  2  0  0  0  0  0  0
  -29.9860  -13.5200   20.7200 N   0  0  0  0  0  0  0  0  0  0  0  0
  -31.7660  -14.8820   20.4220 O   0  0  0  0  0  0  0  0  0  0  0  0
  -29.8030  -15.8820   21.0210 N   0  0  0  0  0  0  0  0  0  0  0  0
  -28.9630  -15.6640   21.5350 H   0  0  0  0  0  0  0  0  0  0  0  0
  -25.2380  -13.8000   20.6170 C   0  0  0  0  0  0  0  0  0  0  0  0
  -24.1580  -13.0240   20.9360 C   0  0  0  0  0  0  0  0  0  0  0  0
  -24.6320  -11.6770   20.9590 C   0  0  0  0  0  0  0  0  0  0  0  0
  -26.3010  -12.9260   20.4600 N   0  0  0  0  0  0  0  0  0  0  0  0
  -25.9390  -11.6440   20.7280 N   0  0  0  0  0  0  0  0  0  0  0  0
  -23.9060  -10.4120   21.1290 C   0  0  0  0  0  0  0  0  0  0  0  0
  -24.3020   -9.4540   22.0880 C   0  0  0  0  0  3  0  0  0  0  0  0
  -23.5740   -8.2550   22.2470 C   0  0  0  0  0  3  0  0  0  0  0  0
  -22.4350   -8.0050   21.4440 C   0  0  0  0  0  0  0  0  0  0  0  0
  -22.0580   -8.9510   20.4750 C   0  0  0  0  0  3  0  0  0  0  0  0
  -22.7870  -10.1410   20.3150 C   0  0  0  0  0  3  0  0  0  0  0  0
  -21.6840   -6.8570   21.5100 O   0  0  0  0  0  0  0  0  0  0  0  0
  -21.6030   -6.1130   22.6590 C   0  0  0  0  0  0  0  0  0  0  0  0
  -21.1260   -6.6620   23.8700 C   0  0  0  0  0  3  0  0  0  0  0  0
  -20.9930   -5.8450   25.0100 C   0  0  0  0  0  3  0  0  0  0  0  0
  -21.3270   -4.4790   24.9420 C   0  0  0  0  0  0  0  0  0  0  0  0
  -21.7960   -3.9290   23.7350 C   0  0  0  0  0  3  0  0  0  0  0  0
  -21.9300   -4.7440   22.5970 C   0  0  0  0  0  0  0  0  0  0  0  0
  -22.3630   -4.2040   21.4330 F   0  0  0  0  0  0  0  0  0  0  0  0
  -21.1910   -3.6900   26.0330 F   0  0  0  0  0  0  0  0  0  0  0  0
  -22.7440  -13.4950   21.1150 C   0  0  0  0  0  0  0  0  0  0  0  0
  -21.9680  -12.8040   21.9430 N   0  0  0  0  0  0  0  0  0  0  0  0
  -22.3330  -14.5110   20.5560 O   0  0  0  0  0  0  0  0  0  0  0  0
  -22.3110  -11.9840   22.4190 H   0  0  0  0  0  0  0  0  0  0  0  0
  -21.0170  -13.1040   22.1040 H   0  0  0  0  0  0  0  0  0  0  0  0
  -25.4030  -15.1680   20.4240 N   0  0  0  0  0  0  0  0  0  0  0  0
  -24.6280  -15.8190   20.4780 H   0  0  0  0  0  0  0  0  0  0  0  0
  -26.2670  -15.6040   20.1250 H   0  0  0  0  0  0  0  0  0  0  0  0
  -31.1630  -22.8800   23.2360 O   0  0  0  0  0  0  0  0  0  0  0  0
  -31.1820  -23.8110   23.4270 H   0  0  0  0  0  0  0  0  0  0  0  0
  -28.0230  -24.8640   19.8920 C   0  0  0  0  0  2  0  0  0  0  0  0
  -28.3080  -26.3200   20.1980 O   0  0  0  0  0  0  0  0  0  0  0  0
  -24.6370  -31.8500   23.1730 C   0  0  0  0  0  0  0  0  0  0  0  0
  -27.2370  -27.2500   20.1030 C   0  0  0  0  0  0  0  0  0  0  0  0
  -23.4410  -30.4670   21.5200 C   0  0  0  0  0  3  0  0  0  0  0  0
  -24.8940  -28.9270   20.0810 C   0  0  0  0  0  0  0  0  0  0  0  0
  -25.9880  -30.7620   21.3590 C   0  0  0  0  0  2  0  0  0  0  0  0
  -26.0650  -29.3850   20.6990 C   0  0  0  0  0  0  0  0  0  0  0  0
  -27.2380  -28.5580   20.7010 C   0  0  0  0  0  3  0  0  0  0  0  0
  -26.0450  -26.8820   19.4320 C   0  0  0  0  0  3  0  0  0  0  0  0
  -24.8910  -27.6850   19.4370 C   0  0  0  0  0  3  0  0  0  0  0  0
  -23.6610  -29.8080   20.1340 C   0  0  0  0  0  2  0  0  0  0  0  0
  -24.7080  -31.0450   22.0730 N   0  0  0  0  0  0  0  0  0  0  0  0
  -23.5500  -32.1290   23.7000 O   0  0  0  0  0  0  0  0  0  0  0  0
  -22.7690  -29.4440   22.4670 C   0  0  0  0  0  0  0  0  0  0  0  0
  -21.4390  -29.2890   22.3490 N   0  0  0  0  0  0  0  0  0  0  0  0
  -23.4440  -28.7940   23.2700 O   0  0  0  0  0  0  0  0  0  0  0  0
  -20.9550  -29.8630   21.6720 H   0  0  0  0  0  0  0  0  0  0  0  0
  -18.0430  -28.1600   22.8860 C   0  0  0  0  0  0  0  0  0  0  0  0
  -20.6120  -28.3530   23.1120 C   0  0  0  0  0  3  0  0  0  0  0  0
  -20.6690  -26.9340   22.5000 C   0  0  0  0  0  2  0  0  0  0  0  0
  -19.5400  -26.6620   21.5010 C   0  0  0  0  0  2  0  0  0  0  0  0
  -18.1740  -26.8240   22.1750 C   0  0  0  0  0  2  0  0  0  0  0  0
  -19.1870  -28.8850   23.3130 C   0  0  0  0  0  0  0  0  0  0  0  0
  -19.0100  -30.1370   23.9410 C   0  0  0  0  0  3  0  0  0  0  0  0
  -17.7190  -30.6630   24.1470 C   0  0  0  0  0  3  0  0  0  0  0  0
  -16.5910  -29.9340   23.7350 C   0  0  0  0  0  3  0  0  0  0  0  0
  -16.7530  -28.6840   23.1110 C   0  0  0  0  0  3  0  0  0  0  0  0
  -25.9160  -32.4780   23.8060 C   0  0  0  0  0  3  0  0  0  0  0  0
  -26.4190  -31.7010   25.0850 C   0  0  1  0  0  0  0  0  0  0  0  0
  -25.3150  -31.4650   26.1440 C   0  0  0  0  0  1  0  0  0  0  0  0
  -26.9980  -30.3220   24.6950 C   0  0  0  0  0  1  0  0  0  0  0  0
  -27.5670  -32.4900   25.7580 C   0  0  0  0  0  1  0  0  0  0  0  0
  -25.6050  -33.8760   24.1410 N   0  0  0  0  0  0  0  0  0  0  0  0
  -25.9530  -34.9340   23.3940 C   0  0  0  0  0  0  0  0  0  0  0  0
  -26.6350  -34.8340   22.3700 O   0  0  0  0  0  0  0  0  0  0  0  0
  -25.0000  -34.0280   24.9330 H   0  0  0  0  0  0  0  0  0  0  0  0
  -24.2430  -36.7420   23.0240 C   0  0  0  0  0  1  0  0  0  0  0  0
  -25.4650  -36.3200   23.8550 C   0  0  0  0  0  3  0  0  0  0  0  0
  -27.5860  -37.1850   24.7410 C   0  0  0  0  0  1  0  0  0  0  0  0
  -26.5070  -37.3670   23.7740 N   0  0  0  0  0  0  0  0  0  0  0  0
  -26.1040  -38.2890   23.9200 H   0  0  0  0  0  0  0  0  0  0  0  0
  1  4  1  0
  2  4  2  0
  3  1  2  0
  4 53  1  0
  5  3  1  0
  5  6  1  0
  6  2  1  0
  7  5  2  0
  8 11  1  0
  9  8  2  0
  9 13  1  0
 11  6  1  0
 11 10  2  0
 12 10  1  0
 12 23  1  0
 13 12  2  0
 14 13  1  0
 15 23  1  0
 16 21  1  0
 17 18  1  0
 17 16  1  0
 19 18  1  0
 19 28  1  0
 19 20  1  0
 21 15  1  0
 21 20  1  0
 22 15  2  0
 23 24  1  0
 25 26  2  0
 26 27  1  0
 26 45  1  0
 27 30  1  0
 28 25  1  0
 28 29  1  0
 29 27  2  0
 30 31  1  0
 31 32  2  0
 33 36  1  0
 33 32  1  0
 34 33  2  0
 35 34  1  0
 35 30  2  0
 36 37  1  0
 37 38  1  0
 38 39  2  0
 40 39  1  0
 40 44  1  0
 41 40  2  0
 42 37  2  0
 42 41  1  0
 43 42  1  0
 45 46  1  0
 46 49  1  0
 46 48  1  0
 47 45  2  0
 50 51  1  0
 50 25  1  0
 52 50  1  0
 53 54  1  0
 55 56  1  0
 55  3  1  0
 57 68  2  0
 58 56  1  0
 58 63  1  0
 59 67  1  0
 59 69  1  0
 60 66  1  0
 60 62  1  0
 61 67  1  0
 62 63  2  0
 62 61  1  0
 64 65  1  0
 64 58  2  0
 65 60  2  0
 66 59  1  0
 67 57  1  0
 69 71  2  0
 70 69  1  0
 72 70  1  0
 73 82  2  0
 73 78  1  0
 74 70  1  0
 74 78  1  0
 75 74  1  0
 76 77  1  0
 76 75  1  0
 77 73  1  0
 78 79  2  0
 79 80  1  0
 81 80  2  0
 82 81  1  0
 83 57  1  0
 83 88  1  0
 83 84  1  0
 84 87  1  1
 84 85  1  0
 86 84  1  0
 88 91  1  0
 89 93  1  0
 89 88  1  0
 90 89  2  0
 93 92  1  0
 95 93  1  0
 95 96  1  0
 95 94  1  0
M  ISO  4  15 100  23 100  55 101  56 101
M  END
>  <TORSDO>  (87) 
F 19

>  <SCORE>  (87) 
-14.260

>  <name>  (87) 
87

>  <ligand_id>  (87) 
87

>  <original_smiles>  (87) 
[H]Oc1c([H])c(C([H])([H])Oc2c([H])c([H])c3c(c2[H])C([H])([H])N(C(=O)C([H])(N([H])C(=O)C([H])(N([H])C([H])([H])[H])C([H])([H])[H])C(C([H])([H])[H])(C([H])([H])[H])C([H])([H])[H])C([H])(C(=O)N([H])C2([H])c4c([H])c([H])c([H])c([H])c4C([H])([H])C([H])([H])C2([H])[H])C3([H])[H])c(=O)n(-c2c([H])c([H])c(F)c(N([H])C(=O)N3C([H])([H])C([H])([H])C([H])([H])C([H])(n4nc(-c5c([H])c([H])c(Oc6c([H])c([H])c(F)c([H])c6F)c([H])c5[H])c(C(=O)N([H])[H])c4N([H])[H])C3([H])[H])c2[H])c1[H]

>  <smiles>  (87) 
[H]Oc1c([H])c(C([H])([H])Oc2c([H])c([H])c3c(c2[H])C([H])([H])N(C(=O)C([H])(N([H])C(=O)C([H])(N([H])C([H])([H])[H])C([H])([H])[H])C(C([H])([H])[H])(C([H])([H])[H])C([H])([H])[H])C([H])(C(=O)N([H])C2([H])c4c([H])c([H])c([H])c([H])c4C([H])([H])C([H])([H])C2([H])[H])C3([H])[H])c(=O)n(-c2c([H])c([H])c(F)c(N([H])C(=O)N3C([H])([H])C([H])([H])C([H])([H])C([H])(n4nc(-c5c([H])c([H])c(Oc6c([H])c([H])c(F)c([H])c6F)c([H])c5[H])c(C(=O)N([H])[H])c4N([H])[H])C3([H])[H])c2[H])c1[H]

$$$$
88:0:0
     RDKit          3D

 95103  0  0  1  0  0  0  0  0999 V2000
  -29.0990  -20.7010   20.8530 C   0  0  0  0  0  0  0  0  0  0  0  0
  -28.4990  -23.1670   20.7620 C   0  0  0  0  0  0  0  0  0  0  0  0
  -29.3140  -21.9960   20.4620 N   0  0  0  0  0  0  0  0  0  0  0  0
  -27.9860  -20.3520   21.5100 N   0  0  0  0  0  4  0  0  0  0  0  0
  -27.4800  -23.0400   21.4540 O   0  0  0  0  0  0  0  0  0  0  0  0
  -30.1460  -22.0820   19.9000 H   0  0  0  0  0  0  0  0  0  0  0  0
  -27.8790  -19.4250   21.8900 H   0  0  0  0  0  0  0  0  0  0  0  0
  -27.3200  -21.0770   21.7450 H   0  0  0  0  0  0  0  0  0  0  0  0
  -32.4430  -18.9450   20.4850 C   0  0  0  0  0  3  0  0  0  0  0  0
  -31.4690  -19.9550   20.5850 C   0  0  0  0  0  3  0  0  0  0  0  0
  -32.0680  -17.5880   20.4380 C   0  0  0  0  0  3  0  0  0  0  0  0
  -29.7260  -18.2420   20.5630 C   0  0  0  0  0  3  0  0  0  0  0  0
  -30.0980  -19.6220   20.6320 C   0  0  0  0  0  0  0  0  0  0  0  0
  -30.7030  -17.2070   20.4630 C   0  0  0  0  0  0  0  0  0  0  0  0
  -30.9750  -14.7480   19.9530 C   0  0  0  0  0  0  0  0  0  0  0  0
  -30.6460  -12.5190   18.9390 C   0  0  0  0  0  2  0  0  0  0  0  0
  -29.6440  -12.6380   17.7720 C   0  0  0  0  0  2  0  0  0  0  0  0
  -28.1990  -12.4880   18.2850 C   0  0  0  0  0  2  0  0  0  0  0  0
  -27.9050  -13.3840   19.5190 C   0  0  0  0  0  3  0  0  0  0  0  0
  -29.0210  -13.2640   20.5820 C   0  0  0  0  0  2  0  0  0  0  0  0
  -30.3040  -13.5610   19.9250 N   0  0  0  0  0  0  0  0  0  0  0  0
  -32.0780  -14.8740   19.4190 O   0  0  0  0  0  0  0  0  0  0  0  0
  -30.2960  -15.8180   20.4420 N   0  0  0  0  0  0  0  0  0  0  0  0
  -29.3560  -15.6200   20.7470 H   0  0  0  0  0  0  0  0  0  0  0  0
  -25.5700  -13.9840   20.4130 C   0  0  0  0  0  0  0  0  0  0  0  0
  -24.5200  -13.2090   20.8280 C   0  0  0  0  0  0  0  0  0  0  0  0
  -24.9620  -11.8550   20.7190 C   0  0  0  0  0  0  0  0  0  0  0  0
  -26.5860  -13.1030   20.0810 N   0  0  0  0  0  0  0  0  0  0  0  0
  -26.2280  -11.8150   20.3220 N   0  0  0  0  0  0  0  0  0  0  0  0
  -24.2350  -10.5940   20.9140 C   0  0  0  0  0  0  0  0  0  0  0  0
  -24.6540   -9.6400   21.8680 C   0  0  0  0  0  3  0  0  0  0  0  0
  -23.9270   -8.4440   22.0500 C   0  0  0  0  0  3  0  0  0  0  0  0
  -22.7680   -8.1930   21.2790 C   0  0  0  0  0  0  0  0  0  0  0  0
  -22.3690   -9.1350   20.3160 C   0  0  0  0  0  3  0  0  0  0  0  0
  -23.0950  -10.3230   20.1310 C   0  0  0  0  0  3  0  0  0  0  0  0
  -22.0140   -7.0480   21.3700 O   0  0  0  0  0  0  0  0  0  0  0  0
  -21.8770   -6.3680   22.5540 C   0  0  0  0  0  0  0  0  0  0  0  0
  -21.2880   -6.9640   23.6900 C   0  0  0  0  0  3  0  0  0  0  0  0
  -21.1030   -6.2070   24.8650 C   0  0  0  0  0  3  0  0  0  0  0  0
  -21.4960   -4.8560   24.9030 C   0  0  0  0  0  0  0  0  0  0  0  0
  -22.0780   -4.2590   23.7700 C   0  0  0  0  0  3  0  0  0  0  0  0
  -22.2650   -5.0130   22.5980 C   0  0  0  0  0  0  0  0  0  0  0  0
  -22.8060   -4.4290   21.5020 F   0  0  0  0  0  0  0  0  0  0  0  0
  -21.3120   -4.1270   26.0280 F   0  0  0  0  0  0  0  0  0  0  0  0
  -23.1500  -13.6900   21.2110 C   0  0  0  0  0  0  0  0  0  0  0  0
  -22.4700  -12.9660   22.0930 N   0  0  0  0  0  0  0  0  0  0  0  0
  -22.6940  -14.7420   20.7640 O   0  0  0  0  0  0  0  0  0  0  0  0
  -22.8530  -12.1140   22.4750 H   0  0  0  0  0  0  0  0  0  0  0  0
  -21.5540  -13.2690   22.3910 H   0  0  0  0  0  0  0  0  0  0  0  0
  -25.7380  -15.3580   20.2690 N   0  0  0  0  0  0  0  0  0  0  0  0
  -24.9820  -16.0130   20.4380 H   0  0  0  0  0  0  0  0  0  0  0  0
  -26.5540  -15.7950   19.8590 H   0  0  0  0  0  0  0  0  0  0  0  0
  -28.9500  -24.4550   20.2120 C   0  0  0  0  0  3  0  0  0  0  0  0
  -28.2890  -25.5880   20.5620 C   0  0  0  0  0  3  0  0  0  0  0  0
  -28.5320  -26.8770   20.1040 O   0  0  0  0  0  0  0  0  0  0  0  0
  -24.7290  -31.9650   23.3870 C   0  0  0  0  0  0  0  0  0  0  0  0
  -27.4150  -27.6950   20.0880 C   0  0  0  0  0  0  0  0  0  0  0  0
  -23.5440  -30.6460   21.6660 C   0  0  0  0  0  3  0  0  0  0  0  0
  -25.0190  -29.2060   20.1600 C   0  0  0  0  0  0  0  0  0  0  0  0
  -26.0720  -31.0290   21.5030 C   0  0  0  0  0  2  0  0  0  0  0  0
  -26.1730  -29.6970   20.7850 C   0  0  0  0  0  0  0  0  0  0  0  0
  -27.3780  -28.9490   20.7480 C   0  0  0  0  0  3  0  0  0  0  0  0
  -26.2470  -27.2380   19.4400 C   0  0  0  0  0  3  0  0  0  0  0  0
  -25.0520  -27.9780   19.4810 C   0  0  0  0  0  3  0  0  0  0  0  0
  -23.7670  -30.0510   20.2510 C   0  0  0  0  0  2  0  0  0  0  0  0
  -24.8000  -31.2250   22.2440 N   0  0  0  0  0  0  0  0  0  0  0  0
  -23.6420  -32.1980   23.9350 O   0  0  0  0  0  0  0  0  0  0  0  0
  -22.8950  -29.5680   22.5640 C   0  0  0  0  0  0  0  0  0  0  0  0
  -21.5750  -29.3720   22.4090 N   0  0  0  0  0  0  0  0  0  0  0  0
  -23.5760  -28.9140   23.3570 O   0  0  0  0  0  0  0  0  0  0  0  0
  -21.0850  -29.9540   21.7440 H   0  0  0  0  0  0  0  0  0  0  0  0
  -18.2100  -28.1170   22.8150 C   0  0  0  0  0  0  0  0  0  0  0  0
  -20.7630  -28.3840   23.1210 C   0  0  0  0  0  3  0  0  0  0  0  0
  -20.8840  -26.9880   22.4670 C   0  0  0  0  0  2  0  0  0  0  0  0
  -19.7930  -26.7120   21.4280 C   0  0  0  0  0  2  0  0  0  0  0  0
  -18.4050  -26.8090   22.0680 C   0  0  0  0  0  2  0  0  0  0  0  0
  -19.3180  -28.8640   23.2960 C   0  0  0  0  0  0  0  0  0  0  0  0
  -19.0810  -30.0920   23.9530 C   0  0  0  0  0  3  0  0  0  0  0  0
  -17.7710  -30.5700   24.1350 C   0  0  0  0  0  3  0  0  0  0  0  0
  -16.6780  -29.8190   23.6720 C   0  0  0  0  0  3  0  0  0  0  0  0
  -16.8980  -28.5930   23.0180 C   0  0  0  0  0  3  0  0  0  0  0  0
  -26.0060  -32.5730   24.0470 C   0  0  0  0  0  3  0  0  0  0  0  0
  -25.7030  -33.9660   24.3970 N   0  0  0  0  0  0  0  0  0  0  0  0
  -26.0510  -35.0280   23.6590 C   0  0  0  0  0  0  0  0  0  0  0  0
  -26.7320  -34.9360   22.6340 O   0  0  0  0  0  0  0  0  0  0  0  0
  -25.1000  -34.1120   25.1940 H   0  0  0  0  0  0  0  0  0  0  0  0
  -24.3370  -36.8360   23.3150 C   0  0  0  0  0  1  0  0  0  0  0  0
  -25.5670  -36.4120   24.1330 C   0  0  0  0  0  3  0  0  0  0  0  0
  -27.6910  -37.2790   25.0080 C   0  0  0  0  0  1  0  0  0  0  0  0
  -26.6060  -37.4600   24.0460 N   0  0  0  0  0  0  0  0  0  0  0  0
  -26.2020  -38.3810   24.1950 H   0  0  0  0  0  0  0  0  0  0  0  0
  -26.4900  -31.7710   25.3180 C   0  0  1  0  0  0  0  0  0  0  0  0
  -25.3680  -31.5010   26.3480 C   0  0  0  0  0  1  0  0  0  0  0  0
  -27.0900  -30.4060   24.9060 C   0  0  0  0  0  1  0  0  0  0  0  0
  -27.6170  -32.5520   26.0330 C   0  0  0  0  0  1  0  0  0  0  0  0
  1  4  2  0
  2  5  2  0
  3  2  1  0
  3  1  1  0
  4  8  1  0
  4  7  1  0
  6  3  1  0
  9 10  1  0
 10 13  2  0
 11 14  1  0
 11  9  2  0
 12 13  1  0
 13  1  1  0
 14 12  2  0
 15 23  1  0
 16 21  1  0
 17 18  1  0
 17 16  1  0
 19 18  1  0
 19 28  1  0
 19 20  1  0
 21 15  1  0
 21 20  1  0
 22 15  2  0
 23 14  1  0
 23 24  1  0
 25 26  2  0
 26 45  1  0
 27 26  1  0
 27 30  1  0
 28 29  1  0
 28 25  1  0
 29 27  2  0
 30 31  1  0
 31 32  2  0
 33 36  1  0
 33 32  1  0
 34 33  2  0
 35 34  1  0
 35 30  2  0
 36 37  1  0
 37 42  2  0
 37 38  1  0
 38 39  2  0
 39 40  1  0
 40 44  1  0
 41 40  2  0
 42 41  1  0
 43 42  1  0
 45 46  1  0
 46 49  1  0
 46 48  1  0
 47 45  2  0
 50 25  1  0
 50 51  1  0
 52 50  1  0
 53 54  2  0
 53  2  1  0
 55 54  1  0
 56 67  2  0
 57 55  1  0
 57 62  1  0
 58 66  1  0
 58 68  1  0
 59 65  1  0
 59 61  1  0
 60 66  1  0
 61 60  1  0
 62 61  2  0
 63 64  1  0
 63 57  2  0
 64 59  2  0
 65 58  1  0
 66 56  1  0
 68 70  2  0
 69 68  1  0
 71 69  1  0
 72 81  2  0
 72 77  1  0
 73 69  1  0
 73 77  1  0
 74 73  1  0
 75 76  1  0
 75 74  1  0
 76 72  1  0
 77 78  2  0
 78 79  1  0
 80 79  2  0
 81 80  1  0
 82 56  1  0
 82 83  1  0
 82 92  1  0
 83 86  1  0
 84 88  1  0
 84 83  1  0
 85 84  2  0
 88 87  1  0
 90 88  1  0
 90 91  1  0
 90 89  1  0
 92 95  1  1
 92 93  1  0
 94 92  1  0
M  ISO  4  15 100  23 100  54 101  55 101
M  END
>  <TORSDO>  (88) 
F 18

>  <SCORE>  (88) 
-14.163

>  <name>  (88) 
88

>  <ligand_id>  (88) 
88

>  <original_smiles>  (88) 
[H]C(Oc1c([H])c([H])c2c(c1[H])C([H])([H])N(C(=O)C([H])(N([H])C(=O)C([H])(N([H])C([H])([H])[H])C([H])([H])[H])C(C([H])([H])[H])(C([H])([H])[H])C([H])([H])[H])C([H])(C(=O)N([H])C1([H])c3c([H])c([H])c([H])c([H])c3C([H])([H])C([H])([H])C1([H])[H])C2([H])[H])=C([H])C(=O)N([H])C(c1c([H])c([H])c([H])c(N([H])C(=O)N2C([H])([H])C([H])([H])C([H])([H])C([H])(n3nc(-c4c([H])c([H])c(Oc5c([H])c([H])c(F)c([H])c5F)c([H])c4[H])c(C(=O)N([H])[H])c3N([H])[H])C2([H])[H])c1[H])=[N+]([H])[H]

>  <smiles>  (88) 
[H]C(Oc1c([H])c([H])c2c(c1[H])C([H])([H])N(C(=O)C([H])(N([H])C(=O)C([H])(N([H])C([H])([H])[H])C([H])([H])[H])C(C([H])([H])[H])(C([H])([H])[H])C([H])([H])[H])C([H])(C(=O)N([H])C1([H])c3c([H])c([H])c([H])c([H])c3C([H])([H])C([H])([H])C1([H])[H])C2([H])[H])=C([H])C(=O)N([H])C(c1c([H])c([H])c([H])c(N([H])C(=O)N2C([H])([H])C([H])([H])C([H])([H])C([H])(n3nc(-c4c([H])c([H])c(Oc5c([H])c([H])c(F)c([H])c5F)c([H])c4[H])c(C(=O)N([H])[H])c3N([H])[H])C2([H])[H])c1[H])=[N+]([H])[H]

$$$$
89:0:0
     RDKit          3D

 96105  0  0  1  0  0  0  0  0999 V2000
  -28.8090  -22.0970   21.6700 C   0  0  0  0  0  3  0  0  0  0  0  0
  -29.4680  -22.3230   19.4260 C   0  0  0  0  0  3  0  0  0  0  0  0
  -28.5130  -23.4180   21.8010 C   0  0  0  0  0  0  0  0  0  0  0  0
  -29.2140  -23.6720   19.3990 C   0  0  0  0  0  0  0  0  0  0  0  0
  -28.7120  -24.3450   20.6460 C   0  0  0  0  0  0  0  0  0  0  0  0
  -28.4090  -25.6030   20.8430 N   0  0  0  0  0  0  0  0  0  0  0  0
  -29.3230  -21.4460   20.5310 N   0  0  0  0  0  0  0  0  0  0  0  0
  -29.8510  -19.2810   21.7160 C   0  0  0  0  0  3  0  0  0  0  0  0
  -29.7660  -19.2420   19.3250 C   0  0  0  0  0  3  0  0  0  0  0  0
  -30.0760  -17.8790   21.7350 C   0  0  0  0  0  3  0  0  0  0  0  0
  -30.0250  -17.8340   19.3380 C   0  0  0  0  0  3  0  0  0  0  0  0
  -29.6430  -20.0260   20.5150 C   0  0  0  0  0  0  0  0  0  0  0  0
  -30.1600  -17.1110   20.5520 C   0  0  0  0  0  0  0  0  0  0  0  0
  -30.8840  -14.7080   19.9280 C   0  0  0  0  0  0  0  0  0  0  0  0
  -30.6100  -12.4800   18.8520 C   0  0  0  0  0  2  0  0  0  0  0  0
  -29.5630  -12.6120   17.7210 C   0  0  0  0  0  2  0  0  0  0  0  0
  -28.1300  -12.4440   18.2660 C   0  0  0  0  0  2  0  0  0  0  0  0
  -27.8780  -13.2980   19.5340 C   0  0  0  0  0  3  0  0  0  0  0  0
  -29.0210  -13.1180   20.5600 C   0  0  0  0  0  2  0  0  0  0  0  0
  -30.2870  -13.4750   19.8940 N   0  0  0  0  0  0  0  0  0  0  0  0
  -31.9260  -14.9430   19.3070 O   0  0  0  0  0  0  0  0  0  0  0  0
  -30.2400  -15.6600   20.6620 N   0  0  0  0  0  0  0  0  0  0  0  0
  -29.5970  -15.2610   21.3310 H   0  0  0  0  0  0  0  0  0  0  0  0
  -25.5730  -13.8990   20.5010 C   0  0  0  0  0  0  0  0  0  0  0  0
  -24.5280  -13.1250   20.9290 C   0  0  0  0  0  0  0  0  0  0  0  0
  -24.9520  -11.7700   20.7740 C   0  0  0  0  0  0  0  0  0  0  0  0
  -26.5710  -13.0160   20.1230 N   0  0  0  0  0  0  0  0  0  0  0  0
  -26.2060  -11.7260   20.3420 N   0  0  0  0  0  0  0  0  0  0  0  0
  -24.2170  -10.5110   20.9630 C   0  0  0  0  0  0  0  0  0  0  0  0
  -24.6470   -9.5390   21.8930 C   0  0  0  0  0  3  0  0  0  0  0  0
  -23.9160   -8.3450   22.0690 C   0  0  0  0  0  3  0  0  0  0  0  0
  -22.7400   -8.1140   21.3170 C   0  0  0  0  0  0  0  0  0  0  0  0
  -22.3290   -9.0760   20.3770 C   0  0  0  0  0  3  0  0  0  0  0  0
  -23.0600  -10.2620   20.1980 C   0  0  0  0  0  3  0  0  0  0  0  0
  -21.9800   -6.9720   21.4050 O   0  0  0  0  0  0  0  0  0  0  0  0
  -21.8260   -6.3000   22.5900 C   0  0  0  0  0  0  0  0  0  0  0  0
  -21.2470   -6.9120   23.7240 C   0  0  0  0  0  3  0  0  0  0  0  0
  -21.0390   -6.1630   24.9000 C   0  0  0  0  0  3  0  0  0  0  0  0
  -21.4040   -4.8030   24.9430 C   0  0  0  0  0  0  0  0  0  0  0  0
  -21.9770   -4.1920   23.8130 C   0  0  0  0  0  3  0  0  0  0  0  0
  -22.1840   -4.9380   22.6400 C   0  0  0  0  0  0  0  0  0  0  0  0
  -22.7160   -4.3390   21.5480 F   0  0  0  0  0  0  0  0  0  0  0  0
  -21.2000   -4.0800   26.0680 F   0  0  0  0  0  0  0  0  0  0  0  0
  -23.1760  -13.6090   21.3670 C   0  0  0  0  0  0  0  0  0  0  0  0
  -22.5200  -12.8760   22.2600 N   0  0  0  0  0  0  0  0  0  0  0  0
  -22.7130  -14.6700   20.9540 O   0  0  0  0  0  0  0  0  0  0  0  0
  -22.9060  -12.0130   22.6150 H   0  0  0  0  0  0  0  0  0  0  0  0
  -21.6190  -13.1840   22.5980 H   0  0  0  0  0  0  0  0  0  0  0  0
  -25.7520  -15.2740   20.3820 N   0  0  0  0  0  0  0  0  0  0  0  0
  -25.0140  -15.9360   20.5860 H   0  0  0  0  0  0  0  0  0  0  0  0
  -26.5910  -15.7110   20.0170 H   0  0  0  0  0  0  0  0  0  0  0  0
  -28.0360  -23.8630   22.9760 O   0  0  0  0  0  0  0  0  0  0  0  0
  -27.9910  -23.1230   23.5670 H   0  0  0  0  0  0  0  0  0  0  0  0
  -29.4050  -24.3520   18.2590 O   0  0  0  0  0  0  0  0  0  0  0  0
  -29.6420  -23.7250   17.5890 H   0  0  0  0  0  0  0  0  0  0  0  0
  -28.5570  -26.6010   19.8130 O   0  0  0  0  0  0  0  0  0  0  0  0
  -24.6740  -31.7480   23.0430 C   0  0  0  0  0  0  0  0  0  0  0  0
  -27.4450  -27.4360   19.8190 C   0  0  0  0  0  0  0  0  0  0  0  0
  -23.5190  -30.3690   21.3480 C   0  0  0  0  0  3  0  0  0  0  0  0
  -25.0250  -28.9290   19.8660 C   0  0  0  0  0  0  0  0  0  0  0  0
  -26.0420  -30.7940   21.1780 C   0  0  0  0  0  2  0  0  0  0  0  0
  -26.1720  -29.4470   20.4840 C   0  0  0  0  0  0  0  0  0  0  0  0
  -27.3890  -28.7090   20.4550 C   0  0  0  0  0  3  0  0  0  0  0  0
  -26.2820  -26.9600   19.1830 C   0  0  0  0  0  3  0  0  0  0  0  0
  -25.0770  -27.6900   19.2090 C   0  0  0  0  0  3  0  0  0  0  0  0
  -23.7560  -29.7530   19.9440 C   0  0  0  0  0  2  0  0  0  0  0  0
  -24.7630  -30.9860   21.9140 N   0  0  0  0  0  0  0  0  0  0  0  0
  -23.5840  -31.9660   23.5890 O   0  0  0  0  0  0  0  0  0  0  0  0
  -22.8960  -29.2940   22.2690 C   0  0  0  0  0  0  0  0  0  0  0  0
  -21.5720  -29.0910   22.1520 N   0  0  0  0  0  0  0  0  0  0  0  0
  -23.5990  -28.6480   23.0500 O   0  0  0  0  0  0  0  0  0  0  0  0
  -21.0630  -29.6670   21.4970 H   0  0  0  0  0  0  0  0  0  0  0  0
  -18.2230  -27.8220   22.6670 C   0  0  0  0  0  0  0  0  0  0  0  0
  -20.7840  -28.1010   22.8880 C   0  0  0  0  0  3  0  0  0  0  0  0
  -20.8880  -26.7060   22.2320 C   0  0  0  0  0  2  0  0  0  0  0  0
  -19.7660  -26.4240   21.2290 C   0  0  0  0  0  2  0  0  0  0  0  0
  -18.3990  -26.5150   21.9140 C   0  0  0  0  0  2  0  0  0  0  0  0
  -19.3430  -28.5750   23.1100 C   0  0  0  0  0  0  0  0  0  0  0  0
  -19.1240  -29.8000   23.7770 C   0  0  0  0  0  3  0  0  0  0  0  0
  -17.8180  -30.2750   24.0010 C   0  0  0  0  0  3  0  0  0  0  0  0
  -16.7130  -29.5180   23.5740 C   0  0  0  0  0  3  0  0  0  0  0  0
  -16.9170  -28.2940   22.9140 C   0  0  0  0  0  3  0  0  0  0  0  0
  -25.9370  -32.3990   23.6880 C   0  0  0  0  0  3  0  0  0  0  0  0
  -26.4680  -31.6090   24.9480 C   0  0  1  0  0  0  0  0  0  0  0  0
  -25.3820  -31.3270   26.0120 C   0  0  0  0  0  1  0  0  0  0  0  0
  -27.0770  -30.2510   24.5280 C   0  0  0  0  0  1  0  0  0  0  0  0
  -27.6040  -32.4110   25.6280 C   0  0  0  0  0  1  0  0  0  0  0  0
  -25.5880  -33.7780   24.0530 N   0  0  0  0  0  0  0  0  0  0  0  0
  -25.8860  -34.8600   23.3210 C   0  0  0  0  0  0  0  0  0  0  0  0
  -26.5580  -34.8030   22.2860 O   0  0  0  0  0  0  0  0  0  0  0  0
  -24.9950  -33.8950   24.8600 H   0  0  0  0  0  0  0  0  0  0  0  0
  -24.1030  -36.6070   23.0080 C   0  0  0  0  0  1  0  0  0  0  0  0
  -25.3540  -36.2200   23.8120 C   0  0  0  0  0  3  0  0  0  0  0  0
  -27.4620  -37.1480   24.6670 C   0  0  0  0  0  1  0  0  0  0  0  0
  -26.3500  -37.3100   23.7350 N   0  0  0  0  0  0  0  0  0  0  0  0
  -25.9130  -38.2100   23.9200 H   0  0  0  0  0  0  0  0  0  0  0  0
  1  3  2  0
  2  7  1  0
  3 52  1  0
  4  2  2  0
  4  5  1  0
  5  6  2  0
  5  3  1  0
  7  1  1  0
  8 10  1  0
  9 11  2  0
  9 12  1  0
 11 13  1  0
 12  7  1  0
 12  8  2  0
 13 22  1  0
 13 10  2  0
 14 22  1  0
 15 20  1  0
 16 17  1  0
 16 15  1  0
 18 17  1  0
 18 27  1  0
 18 19  1  0
 20 14  1  0
 20 19  1  0
 21 14  2  0
 22 23  1  0
 24 25  2  0
 25 44  1  0
 26 25  1  0
 26 29  1  0
 27 28  1  0
 27 24  1  0
 28 26  2  0
 29 30  1  0
 30 31  2  0
 32 35  1  0
 32 31  1  0
 33 32  2  0
 34 33  1  0
 34 29  2  0
 35 36  1  0
 36 41  2  0
 36 37  1  0
 37 38  2  0
 38 39  1  0
 39 43  1  0
 40 39  2  0
 41 40  1  0
 42 41  1  0
 44 45  1  0
 45 48  1  0
 45 47  1  0
 46 44  2  0
 49 24  1  0
 49 50  1  0
 51 49  1  0
 52 53  1  0
 54  4  1  0
 55 54  1  0
 56 58  1  0
 56  6  1  0
 57 68  2  0
 58 63  1  0
 59 67  1  0
 59 69  1  0
 60 66  1  0
 60 62  1  0
 61 67  1  0
 62 61  1  0
 63 62  2  0
 64 65  1  0
 64 58  2  0
 65 60  2  0
 66 59  1  0
 67 57  1  0
 69 71  2  0
 70 69  1  0
 72 70  1  0
 73 82  2  0
 73 78  1  0
 74 70  1  0
 74 78  1  0
 75 74  1  0
 76 77  1  0
 76 75  1  0
 77 73  1  0
 78 79  2  0
 79 80  1  0
 81 80  2  0
 82 81  1  0
 83 57  1  0
 83 88  1  0
 83 84  1  0
 84 87  1  1
 84 85  1  0
 86 84  1  0
 88 91  1  0
 89 93  1  0
 89 88  1  0
 90 89  2  0
 93 92  1  0
 95 93  1  0
 95 96  1  0
 95 94  1  0
M  ISO  4   6 101  14 100  22 100  56 101
M  END
>  <TORSDO>  (89) 
F 19

>  <SCORE>  (89) 
-13.268

>  <name>  (89) 
89

>  <ligand_id>  (89) 
89

>  <original_smiles>  (89) 
[H]Oc1c([H])n(-c2c([H])c([H])c(N([H])C(=O)N3C([H])([H])C([H])([H])C([H])([H])C([H])(n4nc(-c5c([H])c([H])c(Oc6c([H])c([H])c(F)c([H])c6F)c([H])c5[H])c(C(=O)N([H])[H])c4N([H])[H])C3([H])[H])c([H])c2[H])c([H])c(O[H])c1=NOc1c([H])c([H])c2c(c1[H])C([H])([H])N(C(=O)C([H])(N([H])C(=O)C([H])(N([H])C([H])([H])[H])C([H])([H])[H])C(C([H])([H])[H])(C([H])([H])[H])C([H])([H])[H])C([H])(C(=O)N([H])C1([H])c3c([H])c([H])c([H])c([H])c3C([H])([H])C([H])([H])C1([H])[H])C2([H])[H]

>  <smiles>  (89) 
[H]Oc1c([H])n(-c2c([H])c([H])c(N([H])C(=O)N3C([H])([H])C([H])([H])C([H])([H])C([H])(n4nc(-c5c([H])c([H])c(Oc6c([H])c([H])c(F)c([H])c6F)c([H])c5[H])c(C(=O)N([H])[H])c4N([H])[H])C3([H])[H])c([H])c2[H])c([H])c(O[H])c1=NOc1c([H])c([H])c2c(c1[H])C([H])([H])N(C(=O)C([H])(N([H])C(=O)C([H])(N([H])C([H])([H])[H])C([H])([H])[H])C(C([H])([H])[H])(C([H])([H])[H])C([H])([H])[H])C([H])(C(=O)N([H])C1([H])c3c([H])c([H])c([H])c([H])c3C([H])([H])C([H])([H])C1([H])[H])C2([H])[H]

$$$$
90:0:0
     RDKit          3D

 93102  0  0  1  0  0  0  0  0999 V2000
  -28.5850  -23.7230   19.3860 C   0  0  0  0  0  0  0  0  0  0  0  0
  -28.9380  -22.7140   20.4610 C   0  0  0  0  0  0  0  0  0  0  0  0
  -28.3450  -25.1270   19.2890 C   0  0  0  0  0  0  0  0  0  0  0  0
  -28.5240  -22.8700   18.1280 C   0  0  0  0  0  2  0  0  0  0  0  0
  -28.5480  -21.4010   18.5720 C   0  0  0  0  0  2  0  0  0  0  0  0
  -28.2650  -25.7090   17.8720 C   0  0  0  0  0  1  0  0  0  0  0  0
  -29.0230  -21.3960   19.9470 N   0  0  0  0  0  0  0  0  0  0  0  0
  -29.1500  -22.9800   21.6470 O   0  0  0  0  0  0  0  0  0  0  0  0
  -29.3020  -18.7150   20.0920 C   0  0  0  0  0  3  0  0  0  0  0  0
  -30.6170  -20.1710   21.4770 C   0  0  0  0  0  3  0  0  0  0  0  0
  -31.0220  -17.8490   21.5340 C   0  0  0  0  0  3  0  0  0  0  0  0
  -29.5970  -20.1020   20.5050 C   0  0  0  0  0  0  0  0  0  0  0  0
  -30.0100  -17.5280   20.6080 C   0  0  0  0  0  0  0  0  0  0  0  0
  -31.3030  -19.1040   21.9590 N   0  0  0  0  0  0  0  0  0  0  0  0
  -30.5230  -14.9070   20.3120 C   0  0  0  0  0  0  0  0  0  0  0  0
  -30.3790  -12.5910   19.3210 C   0  0  0  0  0  2  0  0  0  0  0  0
  -29.4200  -12.5820   18.1080 C   0  0  0  0  0  2  0  0  0  0  0  0
  -27.9620  -12.3770   18.5630 C   0  0  0  0  0  2  0  0  0  0  0  0
  -27.5780  -13.2840   19.7610 C   0  0  0  0  0  3  0  0  0  0  0  0
  -28.6540  -13.2640   20.8670 C   0  0  0  0  0  2  0  0  0  0  0  0
  -29.9180  -13.6630   20.2380 N   0  0  0  0  0  0  0  0  0  0  0  0
  -31.7320  -14.9920   20.0800 O   0  0  0  0  0  0  0  0  0  0  0  0
  -29.7160  -16.0640   20.3400 N   0  0  0  0  0  0  0  0  0  0  0  0
  -28.7380  -15.8530   20.2170 H   0  0  0  0  0  0  0  0  0  0  0  0
  -25.2030  -13.8550   20.5340 C   0  0  0  0  0  0  0  0  0  0  0  0
  -24.1460  -13.0740   20.9130 C   0  0  0  0  0  0  0  0  0  0  0  0
  -24.6160  -11.7250   20.8700 C   0  0  0  0  0  0  0  0  0  0  0  0
  -26.2470  -12.9820   20.2770 N   0  0  0  0  0  0  0  0  0  0  0  0
  -25.9030  -11.6960   20.5450 N   0  0  0  0  0  0  0  0  0  0  0  0
  -23.8960  -10.4600   21.0610 C   0  0  0  0  0  0  0  0  0  0  0  0
  -24.3440   -9.4860   21.9820 C   0  0  0  0  0  3  0  0  0  0  0  0
  -23.6240   -8.2860   22.1610 C   0  0  0  0  0  3  0  0  0  0  0  0
  -22.4420   -8.0500   21.4200 C   0  0  0  0  0  0  0  0  0  0  0  0
  -22.0130   -9.0110   20.4890 C   0  0  0  0  0  3  0  0  0  0  0  0
  -22.7340  -10.2030   20.3070 C   0  0  0  0  0  3  0  0  0  0  0  0
  -21.6910   -6.9030   21.5100 O   0  0  0  0  0  0  0  0  0  0  0  0
  -21.6660   -6.1470   22.6560 C   0  0  0  0  0  0  0  0  0  0  0  0
  -21.2550   -6.6860   23.8940 C   0  0  0  0  0  3  0  0  0  0  0  0
  -21.1780   -5.8570   25.0310 C   0  0  0  0  0  3  0  0  0  0  0  0
  -21.5000   -4.4900   24.9310 C   0  0  0  0  0  0  0  0  0  0  0  0
  -21.9040   -3.9510   23.6970 C   0  0  0  0  0  3  0  0  0  0  0  0
  -21.9830   -4.7770   22.5610 C   0  0  0  0  0  0  0  0  0  0  0  0
  -22.3530   -4.2480   21.3700 F   0  0  0  0  0  0  0  0  0  0  0  0
  -21.4180   -3.6920   26.0200 F   0  0  0  0  0  0  0  0  0  0  0  0
  -22.7500  -13.5440   21.2010 C   0  0  0  0  0  0  0  0  0  0  0  0
  -22.0340  -12.8420   22.0720 N   0  0  0  0  0  0  0  0  0  0  0  0
  -22.3040  -14.5700   20.6880 O   0  0  0  0  0  0  0  0  0  0  0  0
  -22.4090  -12.0130   22.5080 H   0  0  0  0  0  0  0  0  0  0  0  0
  -21.0970  -13.1390   22.3060 H   0  0  0  0  0  0  0  0  0  0  0  0
  -25.3540  -15.2290   20.3610 N   0  0  0  0  0  0  0  0  0  0  0  0
  -24.5790  -15.8700   20.4800 H   0  0  0  0  0  0  0  0  0  0  0  0
  -26.1820  -15.6760   19.9910 H   0  0  0  0  0  0  0  0  0  0  0  0
  -28.2490  -26.2350   20.2180 O   0  0  0  0  0  0  0  0  0  0  0  0
  -24.6040  -31.8770   23.2330 C   0  0  0  0  0  0  0  0  0  0  0  0
  -27.1860  -27.2100   20.1640 C   0  0  0  0  0  0  0  0  0  0  0  0
  -23.3970  -30.4820   21.6010 C   0  0  0  0  0  3  0  0  0  0  0  0
  -24.8400  -28.9200   20.1680 C   0  0  0  0  0  0  0  0  0  0  0  0
  -25.9490  -30.7630   21.4170 C   0  0  0  0  0  2  0  0  0  0  0  0
  -26.0240  -29.3770   20.7620 C   0  0  0  0  0  0  0  0  0  0  0  0
  -27.1980  -28.5360   20.7450 C   0  0  0  0  0  3  0  0  0  0  0  0
  -25.9540  -26.8300   19.5800 C   0  0  0  0  0  3  0  0  0  0  0  0
  -24.8140  -27.6550   19.5660 C   0  0  0  0  0  3  0  0  0  0  0  0
  -23.6110  -29.8100   20.2200 C   0  0  0  0  0  2  0  0  0  0  0  0
  -24.6710  -31.0600   22.1380 N   0  0  0  0  0  0  0  0  0  0  0  0
  -23.5200  -32.1580   23.7670 O   0  0  0  0  0  0  0  0  0  0  0  0
  -22.7290  -29.4690   22.5630 C   0  0  0  0  0  0  0  0  0  0  0  0
  -21.4010  -29.2900   22.4380 N   0  0  0  0  0  0  0  0  0  0  0  0
  -23.4050  -28.8470   23.3870 O   0  0  0  0  0  0  0  0  0  0  0  0
  -20.9120  -29.8430   21.7480 H   0  0  0  0  0  0  0  0  0  0  0  0
  -18.0260  -28.0750   22.9430 C   0  0  0  0  0  0  0  0  0  0  0  0
  -20.5840  -28.3530   23.2120 C   0  0  0  0  0  3  0  0  0  0  0  0
  -20.6930  -26.9180   22.6440 C   0  0  0  0  0  2  0  0  0  0  0  0
  -19.5940  -26.5840   21.6310 C   0  0  0  0  0  2  0  0  0  0  0  0
  -18.2110  -26.7240   22.2730 C   0  0  0  0  0  2  0  0  0  0  0  0
  -19.1400  -28.8460   23.3700 C   0  0  0  0  0  0  0  0  0  0  0  0
  -18.9130  -30.1090   23.9580 C   0  0  0  0  0  3  0  0  0  0  0  0
  -17.6040  -30.6020   24.1230 C   0  0  0  0  0  3  0  0  0  0  0  0
  -16.5050  -29.8290   23.7110 C   0  0  0  0  0  3  0  0  0  0  0  0
  -16.7170  -28.5670   23.1270 C   0  0  0  0  0  3  0  0  0  0  0  0
  -25.8850  -32.5140   23.8540 C   0  0  0  0  0  3  0  0  0  0  0  0
  -25.5740  -33.9130   24.1820 N   0  0  0  0  0  0  0  0  0  0  0  0
  -25.9030  -34.9680   23.4240 C   0  0  0  0  0  0  0  0  0  0  0  0
  -26.5680  -34.8640   22.3900 O   0  0  0  0  0  0  0  0  0  0  0  0
  -24.9820  -34.0670   24.9850 H   0  0  0  0  0  0  0  0  0  0  0  0
  -24.1780  -36.7660   23.0770 C   0  0  0  0  0  1  0  0  0  0  0  0
  -25.4200  -36.3570   23.8850 C   0  0  0  0  0  3  0  0  0  0  0  0
  -27.5580  -37.2390   24.7130 C   0  0  0  0  0  1  0  0  0  0  0  0
  -26.4550  -37.4080   23.7700 N   0  0  0  0  0  0  0  0  0  0  0  0
  -26.0510  -38.3290   23.9160 H   0  0  0  0  0  0  0  0  0  0  0  0
  -26.3990  -31.7480   25.1360 C   0  0  1  0  0  0  0  0  0  0  0  0
  -25.3050  -31.5190   26.2040 C   0  0  0  0  0  1  0  0  0  0  0  0
  -26.9790  -30.3670   24.7550 C   0  0  0  0  0  1  0  0  0  0  0  0
  -27.5510  -32.5450   25.7920 C   0  0  0  0  0  1  0  0  0  0  0  0
  1  2  1  0
  2  8  2  0
  3  1  2  0
  3 53  1  0
  4  5  1  0
  4  1  1  0
  5  7  1  0
  6  3  1  0
  7  2  1  0
  7 12  1  0
  9 12  2  0
  9 13  1  0
 10 14  2  0
 11 14  1  0
 12 10  1  0
 13 11  2  0
 15 23  1  0
 16 21  1  0
 17 18  1  0
 17 16  1  0
 19 18  1  0
 19 28  1  0
 19 20  1  0
 21 15  1  0
 21 20  1  0
 22 15  2  0
 23 13  1  0
 24 23  1  0
 25 26  2  0
 26 45  1  0
 27 26  1  0
 27 30  1  0
 28 25  1  0
 28 29  1  0
 29 27  2  0
 30 31  1  0
 31 32  2  0
 33 36  1  0
 33 32  1  0
 34 33  2  0
 35 34  1  0
 35 30  2  0
 36 37  1  0
 37 38  1  0
 38 39  2  0
 40 39  1  0
 40 44  1  0
 41 40  2  0
 42 37  2  0
 42 41  1  0
 43 42  1  0
 45 46  1  0
 46 49  1  0
 46 48  1  0
 47 45  2  0
 50 51  1  0
 50 25  1  0
 52 50  1  0
 54 65  2  0
 55 53  1  0
 55 60  1  0
 56 64  1  0
 56 66  1  0
 57 63  1  0
 57 59  1  0
 58 64  1  0
 59 58  1  0
 60 59  2  0
 61 55  2  0
 62 61  1  0
 62 57  2  0
 63 56  1  0
 64 54  1  0
 66 68  2  0
 67 66  1  0
 69 67  1  0
 70 79  2  0
 70 75  1  0
 71 67  1  0
 71 75  1  0
 72 71  1  0
 73 74  1  0
 73 72  1  0
 74 70  1  0
 75 76  2  0
 76 77  1  0
 78 77  2  0
 79 78  1  0
 80 54  1  0
 80 81  1  0
 80 90  1  0
 81 84  1  0
 82 86  1  0
 82 81  1  0
 83 82  2  0
 86 85  1  0
 88 86  1  0
 88 89  1  0
 88 87  1  0
 90 93  1  1
 90 91  1  0
 92 90  1  0
M  ISO  4   3 101  15 100  23 100  53 101
M  END
>  <TORSDO>  (90) 
F 17

>  <SCORE>  (90) 
-15.446

>  <name>  (90) 
90

>  <ligand_id>  (90) 
90

>  <original_smiles>  (90) 
[H]c1nc([H])c(N2C(=O)C(=C(Oc3c([H])c([H])c4c(c3[H])C([H])([H])N(C(=O)C([H])(N([H])C(=O)C([H])(N([H])C([H])([H])[H])C([H])([H])[H])C(C([H])([H])[H])(C([H])([H])[H])C([H])([H])[H])C([H])(C(=O)N([H])C3([H])c5c([H])c([H])c([H])c([H])c5C([H])([H])C([H])([H])C3([H])[H])C4([H])[H])C([H])([H])[H])C([H])([H])C2([H])[H])c([H])c1N([H])C(=O)N1C([H])([H])C([H])([H])C([H])([H])C([H])(n2nc(-c3c([H])c([H])c(Oc4c([H])c([H])c(F)c([H])c4F)c([H])c3[H])c(C(=O)N([H])[H])c2N([H])[H])C1([H])[H]

>  <smiles>  (90) 
[H]c1nc([H])c(N2C(=O)C(=C(Oc3c([H])c([H])c4c(c3[H])C([H])([H])N(C(=O)C([H])(N([H])C(=O)C([H])(N([H])C([H])([H])[H])C([H])([H])[H])C(C([H])([H])[H])(C([H])([H])[H])C([H])([H])[H])C([H])(C(=O)N([H])C3([H])c5c([H])c([H])c([H])c([H])c5C([H])([H])C([H])([H])C3([H])[H])C4([H])[H])C([H])([H])[H])C([H])([H])C2([H])[H])c([H])c1N([H])C(=O)N1C([H])([H])C([H])([H])C([H])([H])C([H])(n2nc(-c3c([H])c([H])c(Oc4c([H])c([H])c(F)c([H])c4F)c([H])c3[H])c(C(=O)N([H])[H])c2N([H])[H])C1([H])[H]

$$$$
