0:0:0
     RDKit          3D

 93102  0  0  1  0  0  0  0  0999 V2000
  -30.2590  -23.8130   20.5240 C   0  0  0  0  0  3  0  0  0  0  0  0
  -28.9950  -23.8230   20.1020 C   0  0  0  0  0  0  0  0  0  0  0  0
  -30.7100  -22.4360   20.6540 C   0  0  0  0  0  0  0  0  0  0  0  0
  -28.6140  -22.4060   19.9630 C   0  0  0  0  0  0  0  0  0  0  0  0
  -29.6850  -21.6220   20.2990 N   0  0  0  0  0  0  0  0  0  0  0  0
  -31.8300  -22.0700   21.0320 O   0  0  0  0  0  0  0  0  0  0  0  0
  -27.5150  -21.9780   19.5860 O   0  0  0  0  0  0  0  0  0  0  0  0
  -30.8790  -19.3910   19.8700 C   0  0  0  0  0  3  0  0  0  0  0  0
  -28.6750  -19.3370   20.8130 C   0  0  0  0  0  3  0  0  0  0  0  0
  -30.9500  -17.9600   19.9240 C   0  0  0  0  0  3  0  0  0  0  0  0
  -28.7470  -17.9130   20.8720 C   0  0  0  0  0  3  0  0  0  0  0  0
  -29.7430  -20.1360   20.3170 C   0  0  0  0  0  0  0  0  0  0  0  0
  -29.8820  -17.1760   20.4360 C   0  0  0  0  0  0  0  0  0  0  0  0
  -30.6140  -14.6920   20.0390 C   0  0  0  0  0  0  0  0  0  0  0  0
  -30.3510  -12.4820   18.9210 C   0  0  0  0  0  2  0  0  0  0  0  0
  -29.3360  -12.6440   17.7650 C   0  0  0  0  0  2  0  0  0  0  0  0
  -27.8880  -12.4780   18.2690 C   0  0  0  0  0  2  0  0  0  0  0  0
  -27.6040  -13.3030   19.5530 C   0  0  0  0  0  3  0  0  0  0  0  0
  -28.7220  -13.1020   20.6010 C   0  0  0  0  0  2  0  0  0  0  0  0
  -30.0010  -13.4660   19.9670 N   0  0  0  0  0  0  0  0  0  0  0  0
  -31.7400  -14.8720   19.5650 O   0  0  0  0  0  0  0  0  0  0  0  0
  -29.8390  -15.7110   20.5320 N   0  0  0  0  0  0  0  0  0  0  0  0
  -28.9930  -15.3570   20.9500 H   0  0  0  0  0  0  0  0  0  0  0  0
  -25.2550  -13.8930   20.4110 C   0  0  0  0  0  0  0  0  0  0  0  0
  -24.2050  -13.1150   20.8200 C   0  0  0  0  0  0  0  0  0  0  0  0
  -24.6600  -11.7630   20.7350 C   0  0  0  0  0  0  0  0  0  0  0  0
  -26.2820  -13.0150   20.1010 N   0  0  0  0  0  0  0  0  0  0  0  0
  -25.9310  -11.7280   20.3550 N   0  0  0  0  0  0  0  0  0  0  0  0
  -23.9410  -10.4990   20.9340 C   0  0  0  0  0  0  0  0  0  0  0  0
  -24.3850   -9.5360   21.8660 C   0  0  0  0  0  3  0  0  0  0  0  0
  -23.6650   -8.3370   22.0540 C   0  0  0  0  0  3  0  0  0  0  0  0
  -22.4870   -8.0910   21.3090 C   0  0  0  0  0  0  0  0  0  0  0  0
  -22.0620   -9.0430   20.3660 C   0  0  0  0  0  3  0  0  0  0  0  0
  -22.7830  -10.2340   20.1760 C   0  0  0  0  0  3  0  0  0  0  0  0
  -21.7380   -6.9440   21.4070 O   0  0  0  0  0  0  0  0  0  0  0  0
  -21.6530   -6.2370   22.5810 C   0  0  0  0  0  0  0  0  0  0  0  0
  -21.1710   -6.8230   23.7710 C   0  0  0  0  0  3  0  0  0  0  0  0
  -21.0360   -6.0420   24.9350 C   0  0  0  0  0  3  0  0  0  0  0  0
  -21.3710   -4.6750   24.9100 C   0  0  0  0  0  0  0  0  0  0  0  0
  -21.8460   -4.0880   23.7230 C   0  0  0  0  0  3  0  0  0  0  0  0
  -21.9830   -4.8670   22.5620 C   0  0  0  0  0  0  0  0  0  0  0  0
  -22.4210   -4.2920   21.4150 F   0  0  0  0  0  0  0  0  0  0  0  0
  -21.2340   -3.9220   26.0250 F   0  0  0  0  0  0  0  0  0  0  0  0
  -22.8260  -13.5900   21.1790 C   0  0  0  0  0  0  0  0  0  0  0  0
  -22.1450  -12.8800   22.0710 N   0  0  0  0  0  0  0  0  0  0  0  0
  -22.3630  -14.6260   20.7030 O   0  0  0  0  0  0  0  0  0  0  0  0
  -22.5330  -12.0420   22.4800 H   0  0  0  0  0  0  0  0  0  0  0  0
  -21.2220  -13.1800   22.3510 H   0  0  0  0  0  0  0  0  0  0  0  0
  -25.4150  -15.2680   20.2560 N   0  0  0  0  0  0  0  0  0  0  0  0
  -24.6530  -15.9190   20.4140 H   0  0  0  0  0  0  0  0  0  0  0  0
  -26.2410  -15.7130   19.8770 H   0  0  0  0  0  0  0  0  0  0  0  0
  -28.0460  -25.0200   19.7410 C   0  0  0  0  0  2  0  0  0  0  0  0
  -28.3510  -26.4440   20.0610 O   0  0  0  0  0  0  0  0  0  0  0  0
  -24.6160  -31.8090   23.1910 C   0  0  0  0  0  0  0  0  0  0  0  0
  -27.2510  -27.3320   20.0150 C   0  0  0  0  0  0  0  0  0  0  0  0
  -23.4220  -30.4480   21.5170 C   0  0  0  0  0  3  0  0  0  0  0  0
  -24.8820  -28.9520   20.0480 C   0  0  0  0  0  0  0  0  0  0  0  0
  -25.9640  -30.7790   21.3470 C   0  0  0  0  0  2  0  0  0  0  0  0
  -26.0510  -29.4200   20.6630 C   0  0  0  0  0  0  0  0  0  0  0  0
  -27.2380  -28.6210   20.6410 C   0  0  0  0  0  3  0  0  0  0  0  0
  -26.0540  -26.9420   19.3600 C   0  0  0  0  0  3  0  0  0  0  0  0
  -24.8870  -27.7200   19.3870 C   0  0  0  0  0  3  0  0  0  0  0  0
  -23.6420  -29.8180   20.1170 C   0  0  0  0  0  2  0  0  0  0  0  0
  -24.6870  -31.0270   22.0750 N   0  0  0  0  0  0  0  0  0  0  0  0
  -23.5300  -32.0650   23.7320 O   0  0  0  0  0  0  0  0  0  0  0  0
  -22.7660  -29.3980   22.4480 C   0  0  0  0  0  0  0  0  0  0  0  0
  -21.4410  -29.2140   22.3160 N   0  0  0  0  0  0  0  0  0  0  0  0
  -23.4500  -28.7570   23.2500 O   0  0  0  0  0  0  0  0  0  0  0  0
  -20.9480  -29.7850   21.6430 H   0  0  0  0  0  0  0  0  0  0  0  0
  -18.0700  -27.9960   22.8070 C   0  0  0  0  0  0  0  0  0  0  0  0
  -20.6290  -28.2530   23.0660 C   0  0  0  0  0  3  0  0  0  0  0  0
  -20.7300  -26.8380   22.4510 C   0  0  0  0  0  2  0  0  0  0  0  0
  -19.6230  -26.5400   21.4370 C   0  0  0  0  0  2  0  0  0  0  0  0
  -18.2450  -26.6670   22.0920 C   0  0  0  0  0  2  0  0  0  0  0  0
  -19.1900  -28.7470   23.2510 C   0  0  0  0  0  0  0  0  0  0  0  0
  -18.9720  -29.9930   23.8810 C   0  0  0  0  0  3  0  0  0  0  0  0
  -17.6670  -30.4860   24.0690 C   0  0  0  0  0  3  0  0  0  0  0  0
  -16.5620  -29.7310   23.6400 C   0  0  0  0  0  3  0  0  0  0  0  0
  -16.7640  -28.4880   23.0150 C   0  0  0  0  0  3  0  0  0  0  0  0
  -25.8960  -32.4350   23.8260 C   0  0  0  0  0  3  0  0  0  0  0  0
  -25.5810  -33.8270   24.1790 N   0  0  0  0  0  0  0  0  0  0  0  0
  -25.8870  -34.8910   23.4260 C   0  0  0  0  0  0  0  0  0  0  0  0
  -26.5380  -34.8060   22.3810 O   0  0  0  0  0  0  0  0  0  0  0  0
  -25.0050  -33.9670   24.9970 H   0  0  0  0  0  0  0  0  0  0  0  0
  -24.1270  -36.6630   23.1370 C   0  0  0  0  0  1  0  0  0  0  0  0
  -25.3960  -36.2700   23.9080 C   0  0  0  0  0  3  0  0  0  0  0  0
  -27.5420  -37.1770   24.6860 C   0  0  0  0  0  1  0  0  0  0  0  0
  -26.4120  -37.3370   23.7740 N   0  0  0  0  0  0  0  0  0  0  0  0
  -25.9970  -38.2500   23.9410 H   0  0  0  0  0  0  0  0  0  0  0  0
  -26.4090  -31.6440   25.0900 C   0  0  1  0  0  0  0  0  0  0  0  0
  -25.3120  -31.3840   26.1500 C   0  0  0  0  0  1  0  0  0  0  0  0
  -26.9990  -30.2750   24.6790 C   0  0  0  0  0  1  0  0  0  0  0  0
  -27.5560  -32.4290   25.7690 C   0  0  0  0  0  1  0  0  0  0  0  0
  1  3  1  0
  2  1  2  0
  3  6  2  0
  4  2  1  0
  4  5  1  0
  5 12  1  0
  5  3  1  0
  7  4  2  0
  8 10  2  0
  8 12  1  0
  9 11  1  0
 10 13  1  0
 12  9  2  0
 13 22  1  0
 13 11  2  0
 14 22  1  0
 15 20  1  0
 16 17  1  0
 16 15  1  0
 18 17  1  0
 18 27  1  0
 18 19  1  0
 20 14  1  0
 20 19  1  0
 21 14  2  0
 22 23  1  0
 24 25  2  0
 25 44  1  0
 26 25  1  0
 26 29  1  0
 27 28  1  0
 27 24  1  0
 28 26  2  0
 29 30  1  0
 30 31  2  0
 32 35  1  0
 32 31  1  0
 33 32  2  0
 34 33  1  0
 34 29  2  0
 35 36  1  0
 36 37  1  0
 37 38  2  0
 39 38  1  0
 39 43  1  0
 40 39  2  0
 41 36  2  0
 41 40  1  0
 42 41  1  0
 44 45  1  0
 45 48  1  0
 45 47  1  0
 46 44  2  0
 49 24  1  0
 49 50  1  0
 51 49  1  0
 52 53  1  0
 52  2  1  0
 54 65  2  0
 55 53  1  0
 55 60  1  0
 56 64  1  0
 56 66  1  0
 57 63  1  0
 57 59  1  0
 58 64  1  0
 59 58  1  0
 60 59  2  0
 61 62  1  0
 61 55  2  0
 62 57  2  0
 63 56  1  0
 64 54  1  0
 66 68  2  0
 67 66  1  0
 69 67  1  0
 70 79  2  0
 70 75  1  0
 71 67  1  0
 71 75  1  0
 72 71  1  0
 73 74  1  0
 73 72  1  0
 74 70  1  0
 75 76  2  0
 76 77  1  0
 78 77  2  0
 79 78  1  0
 80 54  1  0
 80 81  1  0
 80 90  1  0
 81 84  1  0
 82 86  1  0
 82 81  1  0
 83 82  2  0
 86 85  1  0
 88 86  1  0
 88 89  1  0
 88 87  1  0
 90 93  1  1
 90 91  1  0
 92 90  1  0
M  ISO  4  14 100  22 100  52 101  53 101
M  END
>  <TORSDO>  (1) 
F 18

>  <SCORE>  (1) 
-14.456

>  <name>  (1) 
0

>  <ligand_id>  (1) 
0

>  <original_smiles>  (1) 
[H]C1=C(C([H])([H])Oc2c([H])c([H])c3c(c2[H])C([H])([H])N(C(=O)C([H])(N([H])C(=O)C([H])(N([H])C([H])([H])[H])C([H])([H])[H])C(C([H])([H])[H])(C([H])([H])[H])C([H])([H])[H])C([H])(C(=O)N([H])C2([H])c4c([H])c([H])c([H])c([H])c4C([H])([H])C([H])([H])C2([H])[H])C3([H])[H])C(=O)N(c2c([H])c([H])c(N([H])C(=O)N3C([H])([H])C([H])([H])C([H])([H])C([H])(n4nc(-c5c([H])c([H])c(Oc6c([H])c([H])c(F)c([H])c6F)c([H])c5[H])c(C(=O)N([H])[H])c4N([H])[H])C3([H])[H])c([H])c2[H])C1=O

>  <smiles>  (1) 
[H]C1=C(C([H])([H])Oc2c([H])c([H])c3c(c2[H])C([H])([H])N(C(=O)C([H])(N([H])C(=O)C([H])(N([H])C([H])([H])[H])C([H])([H])[H])C(C([H])([H])[H])(C([H])([H])[H])C([H])([H])[H])C([H])(C(=O)N([H])C2([H])c4c([H])c([H])c([H])c([H])c4C([H])([H])C([H])([H])C2([H])[H])C3([H])[H])C(=O)N(c2c([H])c([H])c(N([H])C(=O)N3C([H])([H])C([H])([H])C([H])([H])C([H])(n4nc(-c5c([H])c([H])c(Oc6c([H])c([H])c(F)c([H])c6F)c([H])c5[H])c(C(=O)N([H])[H])c4N([H])[H])C3([H])[H])c([H])c2[H])C1=O

$$$$
1:0:0
     RDKit          3D

 97106  0  0  1  0  0  0  0  0999 V2000
  -30.2640  -23.8290   20.2810 C   0  0  0  0  0  3  0  0  0  0  0  0
  -28.9360  -23.8320   20.1820 C   0  0  0  0  0  0  0  0  0  0  0  0
  -30.7350  -22.4560   20.3720 C   0  0  0  0  0  0  0  0  0  0  0  0
  -28.5330  -22.4160   20.2340 C   0  0  0  0  0  0  0  0  0  0  0  0
  -29.6530  -21.6310   20.3420 N   0  0  0  0  0  0  0  0  0  0  0  0
  -31.9190  -22.1060   20.4310 O   0  0  0  0  0  0  0  0  0  0  0  0
  -27.3700  -21.9970   20.2010 O   0  0  0  0  0  0  0  0  0  0  0  0
  -28.7370  -19.2970   19.7800 C   0  0  0  0  0  3  0  0  0  0  0  0
  -30.7450  -19.4150   21.0840 C   0  0  0  0  0  3  0  0  0  0  0  0
  -29.7100  -20.1360   20.4020 C   0  0  0  0  0  0  0  0  0  0  0  0
  -28.7840  -17.8700   19.8430 C   0  0  0  0  0  0  0  0  0  0  0  0
  -29.8210  -17.1770   20.5240 C   0  0  0  0  0  0  0  0  0  0  0  0
  -30.8060  -17.9860   21.1470 C   0  0  0  0  0  0  0  0  0  0  0  0
  -31.7970  -17.4030   21.8670 F   0  0  0  0  0  0  0  0  0  0  0  0
  -30.5380  -14.6890   20.3740 C   0  0  0  0  0  0  0  0  0  0  0  0
  -30.3310  -12.4520   19.3030 C   0  0  0  0  0  2  0  0  0  0  0  0
  -29.3700  -12.5810   18.1010 C   0  0  0  0  0  2  0  0  0  0  0  0
  -27.9010  -12.4180   18.5430 C   0  0  0  0  0  2  0  0  0  0  0  0
  -27.5550  -13.2740   19.7900 C   0  0  0  0  0  3  0  0  0  0  0  0
  -28.6260  -13.1130   20.8920 C   0  0  0  0  0  2  0  0  0  0  0  0
  -29.9290  -13.4620   20.3010 N   0  0  0  0  0  0  0  0  0  0  0  0
  -31.7020  -14.8530   19.9960 O   0  0  0  0  0  0  0  0  0  0  0  0
  -29.7050  -15.7290   20.6790 N   0  0  0  0  0  0  0  0  0  0  0  0
  -28.7530  -15.4340   20.8270 H   0  0  0  0  0  0  0  0  0  0  0  0
  -25.1710  -13.8820   20.5330 C   0  0  0  0  0  0  0  0  0  0  0  0
  -24.1040  -13.1100   20.9050 C   0  0  0  0  0  0  0  0  0  0  0  0
  -24.5610  -11.7570   20.8640 C   0  0  0  0  0  0  0  0  0  0  0  0
  -26.2100  -12.9990   20.2850 N   0  0  0  0  0  0  0  0  0  0  0  0
  -25.8490  -11.7150   20.5450 N   0  0  0  0  0  0  0  0  0  0  0  0
  -23.8330  -10.4950   21.0540 C   0  0  0  0  0  0  0  0  0  0  0  0
  -24.2630   -9.5280   21.9880 C   0  0  0  0  0  3  0  0  0  0  0  0
  -23.5360   -8.3320   22.1670 C   0  0  0  0  0  3  0  0  0  0  0  0
  -22.3640   -8.0940   21.4100 C   0  0  0  0  0  0  0  0  0  0  0  0
  -21.9520   -9.0510   20.4650 C   0  0  0  0  0  3  0  0  0  0  0  0
  -22.6800  -10.2390   20.2850 C   0  0  0  0  0  3  0  0  0  0  0  0
  -21.6080   -6.9500   21.4970 O   0  0  0  0  0  0  0  0  0  0  0  0
  -21.5500   -6.2110   22.6510 C   0  0  0  0  0  0  0  0  0  0  0  0
  -21.1020   -6.7670   23.8700 C   0  0  0  0  0  3  0  0  0  0  0  0
  -20.9930   -5.9540   25.0150 C   0  0  0  0  0  3  0  0  0  0  0  0
  -21.3210   -4.5870   24.9450 C   0  0  0  0  0  0  0  0  0  0  0  0
  -21.7630   -4.0310   23.7310 C   0  0  0  0  0  3  0  0  0  0  0  0
  -21.8740   -4.8410   22.5870 C   0  0  0  0  0  0  0  0  0  0  0  0
  -22.2800   -4.2950   21.4150 F   0  0  0  0  0  0  0  0  0  0  0  0
  -21.2100   -3.8040   26.0430 F   0  0  0  0  0  0  0  0  0  0  0  0
  -22.7100  -13.5890   21.1900 C   0  0  0  0  0  0  0  0  0  0  0  0
  -21.9850  -12.8880   22.0560 N   0  0  0  0  0  0  0  0  0  0  0  0
  -22.2710  -14.6200   20.6820 O   0  0  0  0  0  0  0  0  0  0  0  0
  -22.3530  -12.0550   22.4900 H   0  0  0  0  0  0  0  0  0  0  0  0
  -21.0500  -13.1920   22.2890 H   0  0  0  0  0  0  0  0  0  0  0  0
  -25.3330  -15.2550   20.3670 N   0  0  0  0  0  0  0  0  0  0  0  0
  -24.5580  -15.8960   20.4990 H   0  0  0  0  0  0  0  0  0  0  0  0
  -26.1780  -15.7340   20.0640 H   0  0  0  0  0  0  0  0  0  0  0  0
  -27.7830  -17.1250   19.2130 N   0  0  0  0  0  0  0  0  0  0  0  0
  -27.1650  -17.6560   18.6070 H   0  0  0  0  0  0  0  0  0  0  0  0
  -28.1210  -16.3030   18.7270 H   0  0  0  0  0  0  0  0  0  0  0  0
  -27.9370  -25.0140   19.9330 C   0  0  0  0  0  2  0  0  0  0  0  0
  -28.2670  -26.4460   20.1930 O   0  0  0  0  0  0  0  0  0  0  0  0
  -24.6120  -31.8990   23.2760 C   0  0  0  0  0  0  0  0  0  0  0  0
  -27.1720  -27.3380   20.1540 C   0  0  0  0  0  0  0  0  0  0  0  0
  -23.3890  -30.5200   21.6390 C   0  0  0  0  0  3  0  0  0  0  0  0
  -24.8180  -28.9820   20.1870 C   0  0  0  0  0  0  0  0  0  0  0  0
  -25.9320  -30.8210   21.4390 C   0  0  0  0  0  2  0  0  0  0  0  0
  -25.9990  -29.4490   20.7790 C   0  0  0  0  0  0  0  0  0  0  0  0
  -27.1790  -28.6390   20.7550 C   0  0  0  0  0  3  0  0  0  0  0  0
  -25.9600  -26.9430   19.5320 C   0  0  0  0  0  3  0  0  0  0  0  0
  -24.8010  -27.7340   19.5580 C   0  0  0  0  0  3  0  0  0  0  0  0
  -23.5880  -29.8620   20.2510 C   0  0  0  0  0  2  0  0  0  0  0  0
  -24.6640  -31.0960   22.1740 N   0  0  0  0  0  0  0  0  0  0  0  0
  -23.5330  -32.1790   23.8200 O   0  0  0  0  0  0  0  0  0  0  0  0
  -22.7280  -29.4950   22.5940 C   0  0  0  0  0  0  0  0  0  0  0  0
  -21.4020  -29.3160   22.4690 N   0  0  0  0  0  0  0  0  0  0  0  0
  -23.4090  -28.8680   23.4100 O   0  0  0  0  0  0  0  0  0  0  0  0
  -20.9110  -29.8750   21.7850 H   0  0  0  0  0  0  0  0  0  0  0  0
  -18.0270  -28.1100   22.9650 C   0  0  0  0  0  0  0  0  0  0  0  0
  -20.5850  -28.3770   23.2390 C   0  0  0  0  0  3  0  0  0  0  0  0
  -20.6910  -26.9450   22.6660 C   0  0  0  0  0  2  0  0  0  0  0  0
  -19.5920  -26.6180   21.6500 C   0  0  0  0  0  2  0  0  0  0  0  0
  -18.2090  -26.7600   22.2920 C   0  0  0  0  0  2  0  0  0  0  0  0
  -19.1430  -28.8760   23.3960 C   0  0  0  0  0  0  0  0  0  0  0  0
  -18.9190  -30.1380   23.9860 C   0  0  0  0  0  3  0  0  0  0  0  0
  -17.6110  -30.6360   24.1490 C   0  0  0  0  0  3  0  0  0  0  0  0
  -16.5110  -29.8670   23.7330 C   0  0  0  0  0  3  0  0  0  0  0  0
  -16.7190  -28.6060   23.1470 C   0  0  0  0  0  3  0  0  0  0  0  0
  -25.9010  -32.5210   23.8910 C   0  0  0  0  0  3  0  0  0  0  0  0
  -26.4200  -31.7420   25.1620 C   0  0  1  0  0  0  0  0  0  0  0  0
  -25.3300  -31.5070   26.2350 C   0  0  0  0  0  1  0  0  0  0  0  0
  -26.9920  -30.3630   24.7630 C   0  0  0  0  0  1  0  0  0  0  0  0
  -27.5790  -32.5280   25.8200 C   0  0  0  0  0  1  0  0  0  0  0  0
  -25.6010  -33.9200   24.2290 N   0  0  0  0  0  0  0  0  0  0  0  0
  -25.9070  -34.9720   23.4590 C   0  0  0  0  0  0  0  0  0  0  0  0
  -26.5430  -34.8680   22.4070 O   0  0  0  0  0  0  0  0  0  0  0  0
  -25.0310  -34.0750   25.0480 H   0  0  0  0  0  0  0  0  0  0  0  0
  -24.1560  -36.7560   23.1740 C   0  0  0  0  0  1  0  0  0  0  0  0
  -25.4340  -36.3610   23.9300 C   0  0  0  0  0  3  0  0  0  0  0  0
  -27.5980  -37.2620   24.6610 C   0  0  0  0  0  1  0  0  0  0  0  0
  -26.4550  -37.4180   23.7650 N   0  0  0  0  0  0  0  0  0  0  0  0
  -26.0510  -38.3370   23.9250 H   0  0  0  0  0  0  0  0  0  0  0  0
  1  3  1  0
  2  4  1  0
  2  1  2  0
  3  6  2  0
  4  5  1  0
  5  3  1  0
  5 10  1  0
  7  4  2  0
  8 11  2  0
  8 10  1  0
  9 13  1  0
 10  9  2  0
 11 12  1  0
 12 23  1  0
 12 13  2  0
 13 14  1  0
 15 23  1  0
 16 21  1  0
 17 18  1  0
 17 16  1  0
 19 18  1  0
 19 28  1  0
 19 20  1  0
 21 15  1  0
 21 20  1  0
 22 15  2  0
 23 24  1  0
 25 26  2  0
 26 45  1  0
 27 26  1  0
 27 30  1  0
 28 25  1  0
 28 29  1  0
 29 27  2  0
 30 31  1  0
 31 32  2  0
 33 36  1  0
 33 32  1  0
 34 33  2  0
 35 34  1  0
 35 30  2  0
 36 37  1  0
 37 38  1  0
 38 39  2  0
 40 39  1  0
 40 44  1  0
 41 40  2  0
 42 37  2  0
 42 41  1  0
 43 42  1  0
 45 46  1  0
 46 49  1  0
 46 48  1  0
 47 45  2  0
 50 51  1  0
 50 25  1  0
 52 50  1  0
 53 11  1  0
 54 53  1  0
 55 53  1  0
 56  2  1  0
 56 57  1  0
 58 69  2  0
 59 57  1  0
 59 64  1  0
 60 68  1  0
 60 70  1  0
 61 67  1  0
 61 63  1  0
 62 68  1  0
 63 62  1  0
 64 63  2  0
 65 66  1  0
 65 59  2  0
 66 61  2  0
 67 60  1  0
 68 58  1  0
 70 72  2  0
 71 70  1  0
 73 71  1  0
 74 83  2  0
 74 79  1  0
 75 71  1  0
 75 79  1  0
 76 75  1  0
 77 78  1  0
 77 76  1  0
 78 74  1  0
 79 80  2  0
 80 81  1  0
 82 81  2  0
 83 82  1  0
 84 58  1  0
 84 89  1  0
 84 85  1  0
 85 88  1  1
 85 86  1  0
 87 85  1  0
 89 92  1  0
 90 94  1  0
 90 89  1  0
 91 90  2  0
 94 93  1  0
 96 97  1  0
 96 94  1  0
 96 95  1  0
M  ISO  4  15 100  23 100  56 101  57 101
M  END
>  <TORSDO>  (2) 
F 19

>  <SCORE>  (2) 
-14.901

>  <name>  (2) 
1

>  <ligand_id>  (2) 
1

>  <original_smiles>  (2) 
[H]C1=C(C([H])([H])Oc2c([H])c([H])c3c(c2[H])C([H])([H])N(C(=O)C([H])(N([H])C(=O)C([H])(N([H])C([H])([H])[H])C([H])([H])[H])C(C([H])([H])[H])(C([H])([H])[H])C([H])([H])[H])C([H])(C(=O)N([H])C2([H])c4c([H])c([H])c([H])c([H])c4C([H])([H])C([H])([H])C2([H])[H])C3([H])[H])C(=O)N(c2c([H])c(F)c(N([H])C(=O)N3C([H])([H])C([H])([H])C([H])([H])C([H])(n4nc(-c5c([H])c([H])c(Oc6c([H])c([H])c(F)c([H])c6F)c([H])c5[H])c(C(=O)N([H])[H])c4N([H])[H])C3([H])[H])c(N([H])[H])c2[H])C1=O

>  <smiles>  (2) 
[H]C1=C(C([H])([H])Oc2c([H])c([H])c3c(c2[H])C([H])([H])N(C(=O)C([H])(N([H])C(=O)C([H])(N([H])C([H])([H])[H])C([H])([H])[H])C(C([H])([H])[H])(C([H])([H])[H])C([H])([H])[H])C([H])(C(=O)N([H])C2([H])c4c([H])c([H])c([H])c([H])c4C([H])([H])C([H])([H])C2([H])[H])C3([H])[H])C(=O)N(c2c([H])c(F)c(N([H])C(=O)N3C([H])([H])C([H])([H])C([H])([H])C([H])(n4nc(-c5c([H])c([H])c(Oc6c([H])c([H])c(F)c([H])c6F)c([H])c5[H])c(C(=O)N([H])[H])c4N([H])[H])C3([H])[H])c(N([H])[H])c2[H])C1=O

$$$$
2:0:0
     RDKit          3D

 93102  0  0  1  0  0  0  0  0999 V2000
  -28.5190  -23.8580   20.6040 C   0  0  0  0  0  0  0  0  0  0  0  0
  -28.0600  -22.6250   21.2380 C   0  0  0  0  0  0  0  0  0  0  0  0
  -28.0020  -25.1440   20.7630 C   0  0  0  0  0  3  0  0  0  0  0  0
  -29.5810  -23.0130   19.8460 C   0  0  0  0  0  2  0  0  0  0  0  0
  -29.1290  -21.8790   20.7080 N   0  0  0  0  0  0  0  0  0  0  0  0
  -27.0610  -22.3930   21.8900 O   0  0  0  0  0  0  0  0  0  0  0  0
  -28.6040  -19.5590   19.7200 C   0  0  0  0  0  3  0  0  0  0  0  0
  -30.6200  -18.2670   21.1100 C   0  0  0  0  0  3  0  0  0  0  0  0
  -28.7540  -18.1330   19.6380 C   0  0  0  0  0  0  0  0  0  0  0  0
  -29.4130  -20.4290   20.5060 C   0  0  0  0  0  0  0  0  0  0  0  0
  -29.7460  -17.4130   20.3770 C   0  0  0  0  0  0  0  0  0  0  0  0
  -30.4600  -19.6990   21.1630 C   0  0  0  0  0  0  0  0  0  0  0  0
  -27.7900  -17.4090   18.7110 C   0  0  0  0  0  1  0  0  0  0  0  0
  -31.3230  -20.3990   21.9400 F   0  0  0  0  0  0  0  0  0  0  0  0
  -30.5770  -14.8640   20.3610 C   0  0  0  0  0  0  0  0  0  0  0  0
  -30.4340  -12.5700   19.3660 C   0  0  0  0  0  2  0  0  0  0  0  0
  -29.4830  -12.6340   18.1490 C   0  0  0  0  0  2  0  0  0  0  0  0
  -28.0120  -12.4550   18.5830 C   0  0  0  0  0  2  0  0  0  0  0  0
  -27.6390  -13.3350   19.8040 C   0  0  0  0  0  3  0  0  0  0  0  0
  -28.7060  -13.2420   20.9170 C   0  0  0  0  0  2  0  0  0  0  0  0
  -29.9990  -13.6130   20.3200 N   0  0  0  0  0  0  0  0  0  0  0  0
  -31.7670  -15.0130   20.0720 O   0  0  0  0  0  0  0  0  0  0  0  0
  -29.6920  -15.9260   20.4950 N   0  0  0  0  0  0  0  0  0  0  0  0
  -28.7520  -15.5780   20.5810 H   0  0  0  0  0  0  0  0  0  0  0  0
  -25.2560  -13.9320   20.5500 C   0  0  0  0  0  0  0  0  0  0  0  0
  -24.1880  -13.1580   20.9120 C   0  0  0  0  0  0  0  0  0  0  0  0
  -24.6460  -11.8070   20.8670 C   0  0  0  0  0  0  0  0  0  0  0  0
  -26.2960  -13.0500   20.2990 N   0  0  0  0  0  0  0  0  0  0  0  0
  -25.9360  -11.7660   20.5520 N   0  0  0  0  0  0  0  0  0  0  0  0
  -23.9170  -10.5460   21.0470 C   0  0  0  0  0  0  0  0  0  0  0  0
  -24.3380   -9.5770   21.9840 C   0  0  0  0  0  3  0  0  0  0  0  0
  -23.6090   -8.3800   22.1510 C   0  0  0  0  0  3  0  0  0  0  0  0
  -22.4450   -8.1440   21.3820 C   0  0  0  0  0  0  0  0  0  0  0  0
  -22.0430   -9.1040   20.4350 C   0  0  0  0  0  3  0  0  0  0  0  0
  -22.7730  -10.2920   20.2650 C   0  0  0  0  0  3  0  0  0  0  0  0
  -21.6890   -7.0000   21.4580 O   0  0  0  0  0  0  0  0  0  0  0  0
  -21.6070   -6.2670   22.6140 C   0  0  0  0  0  0  0  0  0  0  0  0
  -21.1180   -6.8250   23.8160 C   0  0  0  0  0  3  0  0  0  0  0  0
  -20.9860   -6.0180   24.9630 C   0  0  0  0  0  3  0  0  0  0  0  0
  -21.3290   -4.6550   24.9110 C   0  0  0  0  0  0  0  0  0  0  0  0
  -21.8100   -4.0950   23.7140 C   0  0  0  0  0  3  0  0  0  0  0  0
  -21.9450   -4.9000   22.5680 C   0  0  0  0  0  0  0  0  0  0  0  0
  -22.3890   -4.3520   21.4110 F   0  0  0  0  0  0  0  0  0  0  0  0
  -21.1950   -3.8770   26.0110 F   0  0  0  0  0  0  0  0  0  0  0  0
  -22.7930  -13.6390   21.1900 C   0  0  0  0  0  0  0  0  0  0  0  0
  -22.0620  -12.9380   22.0500 N   0  0  0  0  0  0  0  0  0  0  0  0
  -22.3590  -14.6720   20.6800 O   0  0  0  0  0  0  0  0  0  0  0  0
  -22.4250  -12.1020   22.4840 H   0  0  0  0  0  0  0  0  0  0  0  0
  -21.1250  -13.2410   22.2760 H   0  0  0  0  0  0  0  0  0  0  0  0
  -25.4250  -15.3030   20.3920 N   0  0  0  0  0  0  0  0  0  0  0  0
  -24.6640  -15.9590   20.5290 H   0  0  0  0  0  0  0  0  0  0  0  0
  -26.2710  -15.7460   20.0660 H   0  0  0  0  0  0  0  0  0  0  0  0
  -28.2960  -26.4320   20.2220 O   0  0  0  0  0  0  0  0  0  0  0  0
  -24.6020  -31.9180   23.2650 C   0  0  0  0  0  0  0  0  0  0  0  0
  -27.2280  -27.3570   20.1860 C   0  0  0  0  0  0  0  0  0  0  0  0
  -23.4040  -30.5210   21.6220 C   0  0  0  0  0  3  0  0  0  0  0  0
  -24.8630  -28.9840   20.1810 C   0  0  0  0  0  0  0  0  0  0  0  0
  -25.9450  -30.8450   21.4370 C   0  0  0  0  0  2  0  0  0  0  0  0
  -26.0330  -29.4670   20.7830 C   0  0  0  0  0  0  0  0  0  0  0  0
  -27.2210  -28.6650   20.7780 C   0  0  0  0  0  3  0  0  0  0  0  0
  -26.0370  -26.9430   19.5510 C   0  0  0  0  0  3  0  0  0  0  0  0
  -24.8680  -27.7290   19.5540 C   0  0  0  0  0  3  0  0  0  0  0  0
  -23.6220  -29.8550   20.2370 C   0  0  0  0  0  2  0  0  0  0  0  0
  -24.6690  -31.1120   22.1650 N   0  0  0  0  0  0  0  0  0  0  0  0
  -23.5170  -32.1870   23.8020 O   0  0  0  0  0  0  0  0  0  0  0  0
  -22.7450  -29.4960   22.5780 C   0  0  0  0  0  0  0  0  0  0  0  0
  -21.4210  -29.3060   22.4460 N   0  0  0  0  0  0  0  0  0  0  0  0
  -23.4250  -28.8780   23.4010 O   0  0  0  0  0  0  0  0  0  0  0  0
  -20.9290  -29.8560   21.7560 H   0  0  0  0  0  0  0  0  0  0  0  0
  -18.0550  -28.0660   22.9290 C   0  0  0  0  0  0  0  0  0  0  0  0
  -20.6090  -28.3600   23.2150 C   0  0  0  0  0  3  0  0  0  0  0  0
  -20.7330  -26.9280   22.6440 C   0  0  0  0  0  2  0  0  0  0  0  0
  -19.6430  -26.5890   21.6230 C   0  0  0  0  0  2  0  0  0  0  0  0
  -18.2550  -26.7180   22.2570 C   0  0  0  0  0  2  0  0  0  0  0  0
  -19.1610  -28.8440   23.3640 C   0  0  0  0  0  0  0  0  0  0  0  0
  -18.9210  -30.1060   23.9530 C   0  0  0  0  0  3  0  0  0  0  0  0
  -17.6080  -30.5880   24.1100 C   0  0  0  0  0  3  0  0  0  0  0  0
  -16.5170  -29.8080   23.6910 C   0  0  0  0  0  3  0  0  0  0  0  0
  -16.7410  -28.5490   23.1060 C   0  0  0  0  0  3  0  0  0  0  0  0
  -25.8820  -32.5560   23.8880 C   0  0  0  0  0  3  0  0  0  0  0  0
  -25.5680  -33.9540   24.2140 N   0  0  0  0  0  0  0  0  0  0  0  0
  -25.8860  -35.0060   23.4480 C   0  0  0  0  0  0  0  0  0  0  0  0
  -26.5420  -34.9020   22.4090 O   0  0  0  0  0  0  0  0  0  0  0  0
  -24.9810  -34.1080   25.0210 H   0  0  0  0  0  0  0  0  0  0  0  0
  -24.1430  -36.7900   23.1130 C   0  0  0  0  0  1  0  0  0  0  0  0
  -25.3980  -36.3940   23.9070 C   0  0  0  0  0  3  0  0  0  0  0  0
  -27.5380  -37.2970   24.7040 C   0  0  0  0  0  1  0  0  0  0  0  0
  -26.4240  -37.4520   23.7730 N   0  0  0  0  0  0  0  0  0  0  0  0
  -26.0140  -38.3720   23.9180 H   0  0  0  0  0  0  0  0  0  0  0  0
  -26.3970  -31.7890   25.1680 C   0  0  1  0  0  0  0  0  0  0  0  0
  -25.3030  -31.5520   26.2330 C   0  0  0  0  0  1  0  0  0  0  0  0
  -26.9830  -30.4110   24.7820 C   0  0  0  0  0  1  0  0  0  0  0  0
  -27.5450  -32.5870   25.8290 C   0  0  0  0  0  1  0  0  0  0  0  0
  1  3  2  0
  1  2  1  0
  2  6  2  0
  4  1  1  0
  4  5  1  0
  5  2  1  0
  7 10  1  0
  8 12  1  0
  9  7  2  0
  9 11  1  0
 10  5  1  0
 10 12  2  0
 11 23  1  0
 11  8  2  0
 12 14  1  0
 13  9  1  0
 15 23  1  0
 16 21  1  0
 17 18  1  0
 17 16  1  0
 19 18  1  0
 19 28  1  0
 19 20  1  0
 21 15  1  0
 21 20  1  0
 22 15  2  0
 23 24  1  0
 25 26  2  0
 26 45  1  0
 27 26  1  0
 27 30  1  0
 28 25  1  0
 28 29  1  0
 29 27  2  0
 30 31  1  0
 31 32  2  0
 33 36  1  0
 33 32  1  0
 34 33  2  0
 35 34  1  0
 35 30  2  0
 36 37  1  0
 37 38  1  0
 38 39  2  0
 40 39  1  0
 40 44  1  0
 41 40  2  0
 42 37  2  0
 42 41  1  0
 43 42  1  0
 45 46  1  0
 46 49  1  0
 46 48  1  0
 47 45  2  0
 50 51  1  0
 50 25  1  0
 52 50  1  0
 53  3  1  0
 54 65  2  0
 55 53  1  0
 55 60  1  0
 56 64  1  0
 56 66  1  0
 57 63  1  0
 57 59  1  0
 58 64  1  0
 59 58  1  0
 60 59  2  0
 61 62  1  0
 61 55  2  0
 62 57  2  0
 63 56  1  0
 64 54  1  0
 66 68  2  0
 67 66  1  0
 69 67  1  0
 70 79  2  0
 70 75  1  0
 71 67  1  0
 71 75  1  0
 72 71  1  0
 73 74  1  0
 73 72  1  0
 74 70  1  0
 75 76  2  0
 76 77  1  0
 78 77  2  0
 79 78  1  0
 80 54  1  0
 80 81  1  0
 80 90  1  0
 81 84  1  0
 82 86  1  0
 82 81  1  0
 83 82  2  0
 86 85  1  0
 88 86  1  0
 88 89  1  0
 88 87  1  0
 90 93  1  1
 90 91  1  0
 92 90  1  0
M  ISO  4   3 101  15 100  23 100  53 101
M  END
>  <TORSDO>  (3) 
F 17

>  <SCORE>  (3) 
-15.493

>  <name>  (3) 
2

>  <ligand_id>  (3) 
2

>  <original_smiles>  (3) 
[H]C(Oc1c([H])c([H])c2c(c1[H])C([H])([H])N(C(=O)C([H])(N([H])C(=O)C([H])(N([H])C([H])([H])[H])C([H])([H])[H])C(C([H])([H])[H])(C([H])([H])[H])C([H])([H])[H])C([H])(C(=O)N([H])C1([H])c3c([H])c([H])c([H])c([H])c3C([H])([H])C([H])([H])C1([H])[H])C2([H])[H])=C1C(=O)N(c2c([H])c(C([H])([H])[H])c(N([H])C(=O)N3C([H])([H])C([H])([H])C([H])([H])C([H])(n4nc(-c5c([H])c([H])c(Oc6c([H])c([H])c(F)c([H])c6F)c([H])c5[H])c(C(=O)N([H])[H])c4N([H])[H])C3([H])[H])c([H])c2F)C1([H])[H]

>  <smiles>  (3) 
[H]C(Oc1c([H])c([H])c2c(c1[H])C([H])([H])N(C(=O)C([H])(N([H])C(=O)C([H])(N([H])C([H])([H])[H])C([H])([H])[H])C(C([H])([H])[H])(C([H])([H])[H])C([H])([H])[H])C([H])(C(=O)N([H])C1([H])c3c([H])c([H])c([H])c([H])c3C([H])([H])C([H])([H])C1([H])[H])C2([H])[H])=C1C(=O)N(c2c([H])c(C([H])([H])[H])c(N([H])C(=O)N3C([H])([H])C([H])([H])C([H])([H])C([H])(n4nc(-c5c([H])c([H])c(Oc6c([H])c([H])c(F)c([H])c6F)c([H])c5[H])c(C(=O)N([H])[H])c4N([H])[H])C3([H])[H])c([H])c2F)C1([H])[H]

$$$$
3:0:0
     RDKit          3D

 95103  0  0  1  0  0  0  0  0999 V2000
  -31.0790  -19.6260   20.4510 C   0  0  0  0  0  3  0  0  0  0  0  0
  -30.6020  -20.9640   20.3400 C   0  0  0  0  0  3  0  0  0  0  0  0
  -28.8800  -18.7490   20.0400 C   0  0  0  0  0  3  0  0  0  0  0  0
  -30.2460  -18.4750   20.3050 C   0  0  0  0  0  0  0  0  0  0  0  0
  -29.2410  -21.2350   20.0720 C   0  0  0  0  0  0  0  0  0  0  0  0
  -28.3960  -20.0930   19.9300 C   0  0  0  0  0  0  0  0  0  0  0  0
  -30.8070  -14.6580   20.0800 C   0  0  0  0  0  0  0  0  0  0  0  0
  -30.4120  -12.4020   19.1020 C   0  0  0  0  0  2  0  0  0  0  0  0
  -29.4490  -12.4790   17.9020 C   0  0  0  0  0  2  0  0  0  0  0  0
  -27.9920  -12.3610   18.3870 C   0  0  0  0  0  2  0  0  0  0  0  0
  -27.6780  -13.3000   19.5820 C   0  0  0  0  0  3  0  0  0  0  0  0
  -28.7710  -13.2420   20.6730 C   0  0  0  0  0  2  0  0  0  0  0  0
  -30.0560  -13.5090   20.0190 N   0  0  0  0  0  0  0  0  0  0  0  0
  -31.9820  -14.6110   19.7100 O   0  0  0  0  0  0  0  0  0  0  0  0
  -30.8490  -17.0670   20.5490 C   0  0  0  0  0  0  0  0  0  0  0  0
  -30.1920  -15.8760   20.3120 N   0  0  0  0  0  0  0  0  0  0  0  0
  -32.0170  -17.0740   20.9580 O   0  0  0  0  0  0  0  0  0  0  0  0
  -29.1900  -15.9080   20.2450 H   0  0  0  0  0  0  0  0  0  0  0  0
  -25.3390  -13.9620   20.4000 C   0  0  0  0  0  0  0  0  0  0  0  0
  -24.2630  -13.2210   20.8030 C   0  0  0  0  0  0  0  0  0  0  0  0
  -24.6810  -11.8560   20.7520 C   0  0  0  0  0  0  0  0  0  0  0  0
  -26.3460  -13.0510   20.1240 N   0  0  0  0  0  0  0  0  0  0  0  0
  -25.9580  -11.7790   20.3990 N   0  0  0  0  0  0  0  0  0  0  0  0
  -23.9200  -10.6170   20.9600 C   0  0  0  0  0  0  0  0  0  0  0  0
  -24.3440   -9.6360   21.8840 C   0  0  0  0  0  3  0  0  0  0  0  0
  -23.5840   -8.4630   22.0820 C   0  0  0  0  0  3  0  0  0  0  0  0
  -22.3860   -8.2620   21.3540 C   0  0  0  0  0  0  0  0  0  0  0  0
  -21.9810   -9.2300   20.4200 C   0  0  0  0  0  3  0  0  0  0  0  0
  -22.7420  -10.3950   20.2200 C   0  0  0  0  0  3  0  0  0  0  0  0
  -21.5970   -7.1420   21.4620 O   0  0  0  0  0  0  0  0  0  0  0  0
  -21.5530   -6.4000   22.6160 C   0  0  0  0  0  0  0  0  0  0  0  0
  -21.1500   -6.9610   23.8470 C   0  0  0  0  0  3  0  0  0  0  0  0
  -21.0530   -6.1470   24.9930 C   0  0  0  0  0  3  0  0  0  0  0  0
  -21.3480   -4.7730   24.9090 C   0  0  0  0  0  0  0  0  0  0  0  0
  -21.7460   -4.2120   23.6820 C   0  0  0  0  0  3  0  0  0  0  0  0
  -21.8440   -5.0230   22.5390 C   0  0  0  0  0  0  0  0  0  0  0  0
  -22.2070   -4.4730   21.3550 F   0  0  0  0  0  0  0  0  0  0  0  0
  -21.2480   -3.9890   26.0080 F   0  0  0  0  0  0  0  0  0  0  0  0
  -22.8920  -13.7420   21.1230 C   0  0  0  0  0  0  0  0  0  0  0  0
  -22.1720  -13.0680   22.0120 N   0  0  0  0  0  0  0  0  0  0  0  0
  -22.4700  -14.7810   20.6170 O   0  0  0  0  0  0  0  0  0  0  0  0
  -22.5270  -12.2270   22.4420 H   0  0  0  0  0  0  0  0  0  0  0  0
  -21.2530  -13.4000   22.2690 H   0  0  0  0  0  0  0  0  0  0  0  0
  -25.5410  -15.3280   20.2180 N   0  0  0  0  0  0  0  0  0  0  0  0
  -24.7930  -16.0020   20.3450 H   0  0  0  0  0  0  0  0  0  0  0  0
  -26.3760  -15.7350   19.8180 H   0  0  0  0  0  0  0  0  0  0  0  0
  -29.1100  -23.8540   20.0990 C   0  0  0  0  0  0  0  0  0  0  0  0
  -28.6760  -22.5710   19.8640 N   0  0  0  0  0  0  0  0  0  0  0  0
  -30.1690  -24.1140   20.6770 O   0  0  0  0  0  0  0  0  0  0  0  0
  -27.7650  -22.5290   19.4290 H   0  0  0  0  0  0  0  0  0  0  0  0
  -28.1750  -25.0200   19.5820 C   0  0  0  0  0  2  0  0  0  0  0  0
  -28.4270  -26.4320   19.9910 O   0  0  0  0  0  0  0  0  0  0  0  0
  -24.4820  -31.6390   23.1030 C   0  0  0  0  0  0  0  0  0  0  0  0
  -27.3100  -27.2930   19.9230 C   0  0  0  0  0  0  0  0  0  0  0  0
  -23.3670  -30.2760   21.3770 C   0  0  0  0  0  3  0  0  0  0  0  0
  -24.9020  -28.8480   19.9190 C   0  0  0  0  0  0  0  0  0  0  0  0
  -25.9010  -30.6810   21.2740 C   0  0  0  0  0  2  0  0  0  0  0  0
  -26.0420  -29.3360   20.5710 C   0  0  0  0  0  0  0  0  0  0  0  0
  -27.2500  -28.5710   20.5680 C   0  0  0  0  0  3  0  0  0  0  0  0
  -26.1450  -26.8810   19.2290 C   0  0  0  0  0  3  0  0  0  0  0  0
  -24.9570  -27.6270   19.2390 C   0  0  0  0  0  3  0  0  0  0  0  0
  -23.6360  -29.6750   19.9740 C   0  0  0  0  0  2  0  0  0  0  0  0
  -24.6010  -30.8800   21.9760 N   0  0  0  0  0  0  0  0  0  0  0  0
  -23.3780  -31.8590   23.6200 O   0  0  0  0  0  0  0  0  0  0  0  0
  -22.7160  -29.1940   22.2730 C   0  0  0  0  0  0  0  0  0  0  0  0
  -21.3920  -29.0120   22.1360 N   0  0  0  0  0  0  0  0  0  0  0  0
  -23.4020  -28.5270   23.0510 O   0  0  0  0  0  0  0  0  0  0  0  0
  -20.8970  -29.6040   21.4830 H   0  0  0  0  0  0  0  0  0  0  0  0
  -18.0150  -27.8070   22.6190 C   0  0  0  0  0  0  0  0  0  0  0  0
  -20.5810  -28.0240   22.8490 C   0  0  0  0  0  3  0  0  0  0  0  0
  -20.6570  -26.6410   22.1630 C   0  0  0  0  0  2  0  0  0  0  0  0
  -19.5290  -26.4060   21.1530 C   0  0  0  0  0  2  0  0  0  0  0  0
  -18.1640  -26.5120   21.8370 C   0  0  0  0  0  2  0  0  0  0  0  0
  -19.1510  -28.5250   23.0800 C   0  0  0  0  0  0  0  0  0  0  0  0
  -18.9570  -29.7400   23.7720 C   0  0  0  0  0  3  0  0  0  0  0  0
  -17.6610  -30.2370   24.0050 C   0  0  0  0  0  3  0  0  0  0  0  0
  -16.5400  -29.5150   23.5610 C   0  0  0  0  0  3  0  0  0  0  0  0
  -16.7180  -28.3000   22.8730 C   0  0  0  0  0  3  0  0  0  0  0  0
  -25.7270  -32.2860   23.7840 C   0  0  0  0  0  3  0  0  0  0  0  0
  -26.2090  -31.5040   25.0660 C   0  0  1  0  0  0  0  0  0  0  0  0
  -25.0790  -31.2240   26.0850 C   0  0  0  0  0  1  0  0  0  0  0  0
  -26.8370  -30.1460   24.6770 C   0  0  0  0  0  1  0  0  0  0  0  0
  -27.3160  -32.3100   25.7870 C   0  0  0  0  0  1  0  0  0  0  0  0
  -25.3770  -33.6720   24.1240 N   0  0  0  0  0  0  0  0  0  0  0  0
  -25.6960  -34.7420   23.3840 C   0  0  0  0  0  0  0  0  0  0  0  0
  -26.3890  -34.6680   22.3650 O   0  0  0  0  0  0  0  0  0  0  0  0
  -24.7640  -33.8020   24.9160 H   0  0  0  0  0  0  0  0  0  0  0  0
  -23.9210  -36.4880   23.0310 C   0  0  0  0  0  1  0  0  0  0  0  0
  -25.1660  -36.1120   23.8490 C   0  0  0  0  0  3  0  0  0  0  0  0
  -27.2620  -37.0560   24.7120 C   0  0  0  0  0  1  0  0  0  0  0  0
  -26.1680  -37.1960   23.7540 N   0  0  0  0  0  0  0  0  0  0  0  0
  -25.7330  -38.1030   23.8990 H   0  0  0  0  0  0  0  0  0  0  0  0
  -27.0360  -20.2950   19.6920 N   0  0  0  0  0  0  0  0  0  0  0  0
  -26.4380  -19.4850   19.8160 H   0  0  0  0  0  0  0  0  0  0  0  0
  -26.6240  -21.1110   20.1300 H   0  0  0  0  0  0  0  0  0  0  0  0
  2  1  1  0
  3  4  1  0
  4  1  2  0
  4 15  1  0
  5  2  2  0
  6  3  2  0
  6  5  1  0
  7 16  1  0
  8 13  1  0
  9 10  1  0
  9  8  1  0
 11 10  1  0
 11 22  1  0
 11 12  1  0
 13  7  1  0
 13 12  1  0
 14  7  2  0
 15 17  2  0
 16 15  1  0
 18 16  1  0
 19 20  2  0
 20 39  1  0
 21 20  1  0
 21 24  1  0
 22 23  1  0
 22 19  1  0
 23 21  2  0
 24 25  1  0
 25 26  2  0
 27 30  1  0
 27 26  1  0
 28 27  2  0
 29 28  1  0
 29 24  2  0
 30 31  1  0
 31 32  1  0
 32 33  2  0
 34 33  1  0
 34 38  1  0
 35 34  2  0
 36 31  2  0
 36 35  1  0
 37 36  1  0
 39 40  1  0
 40 43  1  0
 40 42  1  0
 41 39  2  0
 44 45  1  0
 44 19  1  0
 46 44  1  0
 47 49  2  0
 48  5  1  0
 48 47  1  0
 50 48  1  0
 51 52  1  0
 51 47  1  0
 53 64  2  0
 54 52  1  0
 54 59  1  0
 55 63  1  0
 55 65  1  0
 56 62  1  0
 56 58  1  0
 57 63  1  0
 58 57  1  0
 59 58  2  0
 60 61  1  0
 60 54  2  0
 61 56  2  0
 62 55  1  0
 63 53  1  0
 65 67  2  0
 66 65  1  0
 68 66  1  0
 69 78  2  0
 69 74  1  0
 70 66  1  0
 70 74  1  0
 71 70  1  0
 72 73  1  0
 72 71  1  0
 73 69  1  0
 74 75  2  0
 75 76  1  0
 77 76  2  0
 78 77  1  0
 79 53  1  0
 79 84  1  0
 79 80  1  0
 80 83  1  1
 80 81  1  0
 82 80  1  0
 84 87  1  0
 85 89  1  0
 85 84  1  0
 86 85  2  0
 89 88  1  0
 91 89  1  0
 91 92  1  0
 91 90  1  0
 93 94  1  0
 93  6  1  0
 93 95  1  0
M  ISO  4   7 100  16 100  51 101  52 101
M  END
>  <TORSDO>  (4) 
F 19

>  <SCORE>  (4) 
-14.333

>  <name>  (4) 
3

>  <ligand_id>  (4) 
3

>  <original_smiles>  (4) 
[H]c1c([H])c([H])c2c(c1[H])C([H])([H])C([H])([H])C([H])([H])C2([H])N([H])C(=O)C1([H])N(C(=O)C([H])(N([H])C(=O)C([H])(N([H])C([H])([H])[H])C([H])([H])[H])C(C([H])([H])[H])(C([H])([H])[H])C([H])([H])[H])C([H])([H])c2c([H])c(OC([H])([H])C(=O)N([H])c3c([H])c([H])c(C(=O)N([H])C(=O)N4C([H])([H])C([H])([H])C([H])([H])C([H])(n5nc(-c6c([H])c([H])c(Oc7c([H])c([H])c(F)c([H])c7F)c([H])c6[H])c(C(=O)N([H])[H])c5N([H])[H])C4([H])[H])c([H])c3N([H])[H])c([H])c([H])c2C1([H])[H]

>  <smiles>  (4) 
[H]c1c([H])c([H])c2c(c1[H])C([H])([H])C([H])([H])C([H])([H])C2([H])N([H])C(=O)C1([H])N(C(=O)C([H])(N([H])C(=O)C([H])(N([H])C([H])([H])[H])C([H])([H])[H])C(C([H])([H])[H])(C([H])([H])[H])C([H])([H])[H])C([H])([H])c2c([H])c(OC([H])([H])C(=O)N([H])c3c([H])c([H])c(C(=O)N([H])C(=O)N4C([H])([H])C([H])([H])C([H])([H])C([H])(n5nc(-c6c([H])c([H])c(Oc7c([H])c([H])c(F)c([H])c7F)c([H])c6[H])c(C(=O)N([H])[H])c5N([H])[H])C4([H])[H])c([H])c3N([H])[H])c([H])c([H])c2C1([H])[H]

$$$$
4:0:0
     RDKit          3D

 92100  0  0  1  0  0  0  0  0999 V2000
  -29.8780  -21.9600   20.5100 C   0  0  0  0  0  0  0  0  0  0  0  0
  -29.4510  -20.6840   20.7210 N   0  0  0  0  0  0  0  0  0  0  0  0
  -31.0440  -22.2310   20.2080 O   0  0  0  0  0  0  0  0  0  0  0  0
  -28.4490  -20.5700   20.7900 H   0  0  0  0  0  0  0  0  0  0  0  0
  -32.3080  -18.4170   21.7080 C   0  0  0  0  0  3  0  0  0  0  0  0
  -31.5530  -19.5750   21.4530 C   0  0  0  0  0  3  0  0  0  0  0  0
  -31.7720  -17.1450   21.4500 C   0  0  0  0  0  3  0  0  0  0  0  0
  -29.6980  -18.1850   20.6940 C   0  0  0  0  0  3  0  0  0  0  0  0
  -30.2400  -19.4890   20.9310 C   0  0  0  0  0  0  0  0  0  0  0  0
  -30.4660  -17.0000   20.9250 C   0  0  0  0  0  0  0  0  0  0  0  0
  -30.5820  -14.6240   20.1220 C   0  0  0  0  0  0  0  0  0  0  0  0
  -30.2000  -12.4990   18.9190 C   0  0  0  0  0  2  0  0  0  0  0  0
  -29.1890  -12.7280   17.7780 C   0  0  0  0  0  2  0  0  0  0  0  0
  -27.7480  -12.5550   18.2930 C   0  0  0  0  0  2  0  0  0  0  0  0
  -27.4790  -13.3480   19.6000 C   0  0  0  0  0  3  0  0  0  0  0  0
  -28.6040  -13.1280   20.6370 C   0  0  0  0  0  2  0  0  0  0  0  0
  -29.8820  -13.4610   19.9900 N   0  0  0  0  0  0  0  0  0  0  0  0
  -31.6930  -14.7690   19.6060 O   0  0  0  0  0  0  0  0  0  0  0  0
  -29.9310  -15.6790   20.6800 N   0  0  0  0  0  0  0  0  0  0  0  0
  -28.9570  -15.5300   20.8990 H   0  0  0  0  0  0  0  0  0  0  0  0
  -25.1200  -13.8970   20.4630 C   0  0  0  0  0  0  0  0  0  0  0  0
  -24.0860  -13.1000   20.8720 C   0  0  0  0  0  0  0  0  0  0  0  0
  -24.5630  -11.7560   20.7830 C   0  0  0  0  0  0  0  0  0  0  0  0
  -26.1620  -13.0380   20.1510 N   0  0  0  0  0  0  0  0  0  0  0  0
  -25.8350  -11.7440   20.4020 N   0  0  0  0  0  0  0  0  0  0  0  0
  -23.8670  -10.4790   20.9800 C   0  0  0  0  0  0  0  0  0  0  0  0
  -24.3370   -9.5140   21.8980 C   0  0  0  0  0  3  0  0  0  0  0  0
  -23.6380   -8.3020   22.0840 C   0  0  0  0  0  3  0  0  0  0  0  0
  -22.4540   -8.0450   21.3530 C   0  0  0  0  0  0  0  0  0  0  0  0
  -22.0030   -8.9990   20.4230 C   0  0  0  0  0  3  0  0  0  0  0  0
  -22.7030  -10.2020   20.2350 C   0  0  0  0  0  3  0  0  0  0  0  0
  -21.7250   -6.8850   21.4500 O   0  0  0  0  0  0  0  0  0  0  0  0
  -21.6980   -6.1460   22.6050 C   0  0  0  0  0  0  0  0  0  0  0  0
  -21.2490   -6.6900   23.8280 C   0  0  0  0  0  3  0  0  0  0  0  0
  -21.1730   -5.8750   24.9760 C   0  0  0  0  0  3  0  0  0  0  0  0
  -21.5340   -4.5170   24.9010 C   0  0  0  0  0  0  0  0  0  0  0  0
  -21.9760   -3.9720   23.6820 C   0  0  0  0  0  3  0  0  0  0  0  0
  -22.0540   -4.7830   22.5370 C   0  0  0  0  0  0  0  0  0  0  0  0
  -22.4600   -4.2480   21.3600 F   0  0  0  0  0  0  0  0  0  0  0  0
  -21.4540   -3.7310   26.0000 F   0  0  0  0  0  0  0  0  0  0  0  0
  -22.7000  -13.5490   21.2340 C   0  0  0  0  0  0  0  0  0  0  0  0
  -22.0270  -12.8140   22.1130 N   0  0  0  0  0  0  0  0  0  0  0  0
  -22.2230  -14.5860   20.7730 O   0  0  0  0  0  0  0  0  0  0  0  0
  -22.4250  -11.9750   22.5070 H   0  0  0  0  0  0  0  0  0  0  0  0
  -21.0980  -13.0970   22.3960 H   0  0  0  0  0  0  0  0  0  0  0  0
  -25.2550  -15.2730   20.3080 N   0  0  0  0  0  0  0  0  0  0  0  0
  -24.4830  -15.9120   20.4670 H   0  0  0  0  0  0  0  0  0  0  0  0
  -26.0700  -15.7300   19.9200 H   0  0  0  0  0  0  0  0  0  0  0  0
  -28.8260  -22.9730   20.6490 C   0  0  0  0  0  3  0  0  0  0  0  0
  -29.0950  -24.3090   20.6450 C   0  0  0  0  0  3  0  0  0  0  0  0
  -28.0500  -25.4100   20.8770 C   0  0  0  0  0  2  0  0  0  0  0  0
  -28.2940  -26.6810   20.2160 O   0  0  0  0  0  0  0  0  0  0  0  0
  -24.5420  -31.9730   23.2390 C   0  0  0  0  0  0  0  0  0  0  0  0
  -27.1710  -27.4910   20.1730 C   0  0  0  0  0  0  0  0  0  0  0  0
  -23.3330  -30.5600   21.6110 C   0  0  0  0  0  3  0  0  0  0  0  0
  -24.7850  -29.0240   20.1780 C   0  0  0  0  0  0  0  0  0  0  0  0
  -25.8600  -30.9180   21.4020 C   0  0  0  0  0  2  0  0  0  0  0  0
  -25.9480  -29.5430   20.7610 C   0  0  0  0  0  0  0  0  0  0  0  0
  -27.1480  -28.7860   20.7530 C   0  0  0  0  0  3  0  0  0  0  0  0
  -25.9940  -27.0090   19.5600 C   0  0  0  0  0  3  0  0  0  0  0  0
  -24.8050  -27.7590   19.5700 C   0  0  0  0  0  3  0  0  0  0  0  0
  -23.5380  -29.8810   20.2310 C   0  0  0  0  0  2  0  0  0  0  0  0
  -24.5970  -31.1650   22.1410 N   0  0  0  0  0  0  0  0  0  0  0  0
  -23.4620  -32.2440   23.7830 O   0  0  0  0  0  0  0  0  0  0  0  0
  -22.6880  -29.5400   22.5780 C   0  0  0  0  0  0  0  0  0  0  0  0
  -21.3640  -29.3540   22.4600 N   0  0  0  0  0  0  0  0  0  0  0  0
  -23.3780  -28.9190   23.3910 O   0  0  0  0  0  0  0  0  0  0  0  0
  -20.8680  -29.9080   21.7740 H   0  0  0  0  0  0  0  0  0  0  0  0
  -17.9940  -28.1520   22.9810 C   0  0  0  0  0  0  0  0  0  0  0  0
  -20.5530  -28.4170   23.2370 C   0  0  0  0  0  3  0  0  0  0  0  0
  -20.6560  -26.9840   22.6660 C   0  0  0  0  0  2  0  0  0  0  0  0
  -19.5490  -26.6550   21.6590 C   0  0  0  0  0  2  0  0  0  0  0  0
  -18.1700  -26.8000   22.3110 C   0  0  0  0  0  2  0  0  0  0  0  0
  -19.1130  -28.9180   23.4030 C   0  0  0  0  0  0  0  0  0  0  0  0
  -18.8950  -30.1840   23.9890 C   0  0  0  0  0  3  0  0  0  0  0  0
  -17.5910  -30.6830   24.1600 C   0  0  0  0  0  3  0  0  0  0  0  0
  -16.4860  -29.9140   23.7570 C   0  0  0  0  0  3  0  0  0  0  0  0
  -16.6880  -28.6500   23.1730 C   0  0  0  0  0  3  0  0  0  0  0  0
  -25.8280  -32.6110   23.8490 C   0  0  0  0  0  3  0  0  0  0  0  0
  -26.3550  -31.8480   25.1260 C   0  0  1  0  0  0  0  0  0  0  0  0
  -25.2680  -31.6060   26.1980 C   0  0  0  0  0  1  0  0  0  0  0  0
  -26.9470  -30.4740   24.7340 C   0  0  0  0  0  1  0  0  0  0  0  0
  -27.5020  -32.6540   25.7800 C   0  0  0  0  0  1  0  0  0  0  0  0
  -25.5170  -34.0100   24.1720 N   0  0  0  0  0  0  0  0  0  0  0  0
  -25.8550  -35.0600   23.4100 C   0  0  0  0  0  0  0  0  0  0  0  0
  -26.5340  -34.9530   22.3850 O   0  0  0  0  0  0  0  0  0  0  0  0
  -24.9160  -34.1680   24.9680 H   0  0  0  0  0  0  0  0  0  0  0  0
  -24.1410  -36.8580   23.0220 C   0  0  0  0  0  1  0  0  0  0  0  0
  -25.3640  -36.4490   23.8580 C   0  0  0  0  0  3  0  0  0  0  0  0
  -27.4840  -37.3260   24.7330 C   0  0  0  0  0  1  0  0  0  0  0  0
  -26.4020  -37.4980   23.7670 N   0  0  0  0  0  0  0  0  0  0  0  0
  -25.9980  -38.4200   23.9060 H   0  0  0  0  0  0  0  0  0  0  0  0
  1 49  1  0
  1  2  1  0
  2  4  1  0
  2  9  1  0
  3  1  2  0
  6  5  1  0
  7  5  2  0
  8 10  2  0
  8  9  1  0
  9  6  2  0
 10  7  1  0
 11 19  1  0
 12 17  1  0
 13 14  1  0
 13 12  1  0
 15 14  1  0
 15 24  1  0
 15 16  1  0
 17 11  1  0
 17 16  1  0
 18 11  2  0
 19 20  1  0
 19 10  1  0
 21 22  2  0
 22 41  1  0
 23 22  1  0
 23 26  1  0
 24 25  1  0
 24 21  1  0
 25 23  2  0
 26 27  1  0
 27 28  2  0
 29 32  1  0
 29 28  1  0
 30 29  2  0
 31 30  1  0
 31 26  2  0
 32 33  1  0
 33 34  1  0
 34 35  2  0
 36 35  1  0
 36 40  1  0
 37 36  2  0
 38 33  2  0
 38 37  1  0
 39 38  1  0
 41 42  1  0
 42 45  1  0
 42 44  1  0
 43 41  2  0
 46 21  1  0
 46 47  1  0
 48 46  1  0
 50 49  2  0
 50 51  1  0
 52 51  1  0
 53 64  2  0
 54 52  1  0
 54 59  1  0
 55 63  1  0
 55 65  1  0
 56 62  1  0
 56 58  1  0
 57 63  1  0
 58 57  1  0
 59 58  2  0
 60 61  1  0
 60 54  2  0
 61 56  2  0
 62 55  1  0
 63 53  1  0
 65 67  2  0
 66 65  1  0
 68 66  1  0
 69 78  2  0
 69 74  1  0
 70 66  1  0
 70 74  1  0
 71 70  1  0
 72 73  1  0
 72 71  1  0
 73 69  1  0
 74 75  2  0
 75 76  1  0
 77 76  2  0
 78 77  1  0
 79 53  1  0
 79 84  1  0
 79 80  1  0
 80 83  1  1
 80 81  1  0
 82 80  1  0
 84 87  1  0
 85 89  1  0
 85 84  1  0
 86 85  2  0
 89 88  1  0
 91 89  1  0
 91 92  1  0
 91 90  1  0
M  ISO  4  11 100  19 100  51 101  52 101
M  END
>  <TORSDO>  (5) 
F 19

>  <SCORE>  (5) 
-13.779

>  <name>  (5) 
4

>  <ligand_id>  (5) 
4

>  <original_smiles>  (5) 
[H]C(C(=O)N([H])c1c([H])c([H])c([H])c(N([H])C(=O)N2C([H])([H])C([H])([H])C([H])([H])C([H])(n3nc(-c4c([H])c([H])c(Oc5c([H])c([H])c(F)c([H])c5F)c([H])c4[H])c(C(=O)N([H])[H])c3N([H])[H])C2([H])[H])c1[H])=C([H])C([H])([H])Oc1c([H])c([H])c2c(c1[H])C([H])([H])N(C(=O)C([H])(N([H])C(=O)C([H])(N([H])C([H])([H])[H])C([H])([H])[H])C(C([H])([H])[H])(C([H])([H])[H])C([H])([H])[H])C([H])(C(=O)N([H])C1([H])c3c([H])c([H])c([H])c([H])c3C([H])([H])C([H])([H])C1([H])[H])C2([H])[H]

>  <smiles>  (5) 
[H]C(C(=O)N([H])c1c([H])c([H])c([H])c(N([H])C(=O)N2C([H])([H])C([H])([H])C([H])([H])C([H])(n3nc(-c4c([H])c([H])c(Oc5c([H])c([H])c(F)c([H])c5F)c([H])c4[H])c(C(=O)N([H])[H])c3N([H])[H])C2([H])[H])c1[H])=C([H])C([H])([H])Oc1c([H])c([H])c2c(c1[H])C([H])([H])N(C(=O)C([H])(N([H])C(=O)C([H])(N([H])C([H])([H])[H])C([H])([H])[H])C(C([H])([H])[H])(C([H])([H])[H])C([H])([H])[H])C([H])(C(=O)N([H])C1([H])c3c([H])c([H])c([H])c([H])c3C([H])([H])C([H])([H])C1([H])[H])C2([H])[H]

$$$$
5:0:0
     RDKit          3D

 96104  0  0  1  0  0  0  0  0999 V2000
  -28.7820  -20.5650   20.7730 C   0  0  0  0  0  0  0  0  0  0  0  0
  -28.3120  -22.9660   20.7790 C   0  0  0  0  0  0  0  0  0  0  0  0
  -29.1000  -21.8740   20.5580 N   0  0  0  0  0  0  0  0  0  0  0  0
  -27.6390  -20.1640   21.0250 O   0  0  0  0  0  0  0  0  0  0  0  0
  -27.2180  -22.8900   21.3500 O   0  0  0  0  0  0  0  0  0  0  0  0
  -30.0420  -22.0470   20.2540 H   0  0  0  0  0  0  0  0  0  0  0  0
  -29.5650  -18.1200   20.6160 C   0  0  0  0  0  3  0  0  0  0  0  0
  -31.2410  -19.8890   20.7200 C   0  0  0  0  0  3  0  0  0  0  0  0
  -31.9230  -17.5400   20.6680 C   0  0  0  0  0  3  0  0  0  0  0  0
  -29.8790  -19.5160   20.6690 C   0  0  0  0  0  0  0  0  0  0  0  0
  -30.5740  -17.1130   20.6050 C   0  0  0  0  0  0  0  0  0  0  0  0
  -32.2500  -18.9100   20.7170 C   0  0  0  0  0  0  0  0  0  0  0  0
  -33.5480  -19.2880   20.7790 F   0  0  0  0  0  0  0  0  0  0  0  0
  -30.8980  -14.6540   20.0760 C   0  0  0  0  0  0  0  0  0  0  0  0
  -30.5570  -12.4670   18.9740 C   0  0  0  0  0  2  0  0  0  0  0  0
  -29.5470  -12.6370   17.8210 C   0  0  0  0  0  2  0  0  0  0  0  0
  -28.1040  -12.4780   18.3370 C   0  0  0  0  0  2  0  0  0  0  0  0
  -27.8240  -13.3240   19.6090 C   0  0  0  0  0  3  0  0  0  0  0  0
  -28.9480  -13.1510   20.6580 C   0  0  0  0  0  2  0  0  0  0  0  0
  -30.2270  -13.4690   20.0050 N   0  0  0  0  0  0  0  0  0  0  0  0
  -32.0090  -14.7940   19.5590 O   0  0  0  0  0  0  0  0  0  0  0  0
  -30.2050  -15.7120   20.5780 N   0  0  0  0  0  0  0  0  0  0  0  0
  -29.2660  -15.4910   20.8720 H   0  0  0  0  0  0  0  0  0  0  0  0
  -25.4870  -13.9040   20.5090 C   0  0  0  0  0  0  0  0  0  0  0  0
  -24.4410  -13.1200   20.9160 C   0  0  0  0  0  0  0  0  0  0  0  0
  -24.8900  -11.7700   20.7950 C   0  0  0  0  0  0  0  0  0  0  0  0
  -26.5070  -13.0310   20.1680 N   0  0  0  0  0  0  0  0  0  0  0  0
  -26.1560  -11.7390   20.3980 N   0  0  0  0  0  0  0  0  0  0  0  0
  -24.1690  -10.5030   20.9780 C   0  0  0  0  0  0  0  0  0  0  0  0
  -24.6010   -9.5360   21.9120 C   0  0  0  0  0  3  0  0  0  0  0  0
  -23.8810   -8.3340   22.0830 C   0  0  0  0  0  3  0  0  0  0  0  0
  -22.7140   -8.0910   21.3200 C   0  0  0  0  0  0  0  0  0  0  0  0
  -22.3010   -9.0470   20.3750 C   0  0  0  0  0  3  0  0  0  0  0  0
  -23.0220  -10.2400   20.2020 C   0  0  0  0  0  3  0  0  0  0  0  0
  -21.9650   -6.9420   21.4010 O   0  0  0  0  0  0  0  0  0  0  0  0
  -21.8400   -6.2450   22.5760 C   0  0  0  0  0  0  0  0  0  0  0  0
  -21.2530   -6.8210   23.7250 C   0  0  0  0  0  3  0  0  0  0  0  0
  -21.0820   -6.0470   24.8890 C   0  0  0  0  0  3  0  0  0  0  0  0
  -21.4870   -4.6980   24.9060 C   0  0  0  0  0  0  0  0  0  0  0  0
  -22.0650   -4.1230   23.7620 C   0  0  0  0  0  3  0  0  0  0  0  0
  -22.2390   -4.8930   22.5990 C   0  0  0  0  0  0  0  0  0  0  0  0
  -22.7780   -4.3280   21.4930 F   0  0  0  0  0  0  0  0  0  0  0  0
  -21.3140   -3.9520   26.0230 F   0  0  0  0  0  0  0  0  0  0  0  0
  -23.0690  -13.5910   21.3020 C   0  0  0  0  0  0  0  0  0  0  0  0
  -22.3920  -12.8550   22.1780 N   0  0  0  0  0  0  0  0  0  0  0  0
  -22.6070  -14.6440   20.8640 O   0  0  0  0  0  0  0  0  0  0  0  0
  -22.7800  -12.0020   22.5540 H   0  0  0  0  0  0  0  0  0  0  0  0
  -21.4740  -13.1490   22.4780 H   0  0  0  0  0  0  0  0  0  0  0  0
  -25.6480  -15.2800   20.3770 N   0  0  0  0  0  0  0  0  0  0  0  0
  -24.8910  -15.9310   20.5560 H   0  0  0  0  0  0  0  0  0  0  0  0
  -26.4670  -15.7270   19.9850 H   0  0  0  0  0  0  0  0  0  0  0  0
  -28.2130  -25.4090   20.6740 C   0  0  0  0  0  3  0  0  0  0  0  0
  -28.8400  -24.2630   20.2930 C   0  0  0  0  0  0  0  0  0  0  0  0
  -29.8820  -24.3030   19.4460 O   0  0  0  0  0  0  0  0  0  0  0  0
  -29.9510  -23.4500   19.0380 H   0  0  0  0  0  0  0  0  0  0  0  0
  -28.4830  -26.7060   20.2510 O   0  0  0  0  0  0  0  0  0  0  0  0
  -24.6860  -31.9630   23.2800 C   0  0  0  0  0  0  0  0  0  0  0  0
  -27.3710  -27.5320   20.1930 C   0  0  0  0  0  0  0  0  0  0  0  0
  -23.5020  -30.5630   21.6230 C   0  0  0  0  0  3  0  0  0  0  0  0
  -24.9770  -29.0520   20.1890 C   0  0  0  0  0  0  0  0  0  0  0  0
  -26.0300  -30.9370   21.4450 C   0  0  0  0  0  2  0  0  0  0  0  0
  -26.1310  -29.5690   20.7930 C   0  0  0  0  0  0  0  0  0  0  0  0
  -27.3350  -28.8180   20.7920 C   0  0  0  0  0  3  0  0  0  0  0  0
  -26.2030  -27.0520   19.5610 C   0  0  0  0  0  3  0  0  0  0  0  0
  -25.0090  -27.7940   19.5670 C   0  0  0  0  0  3  0  0  0  0  0  0
  -23.7250  -29.9000   20.2390 C   0  0  0  0  0  2  0  0  0  0  0  0
  -24.7570  -31.1690   22.1740 N   0  0  0  0  0  0  0  0  0  0  0  0
  -23.5980  -32.2220   23.8160 O   0  0  0  0  0  0  0  0  0  0  0  0
  -22.8530  -29.5290   22.5730 C   0  0  0  0  0  0  0  0  0  0  0  0
  -21.5310  -29.3340   22.4360 N   0  0  0  0  0  0  0  0  0  0  0  0
  -23.5370  -28.9060   23.3900 O   0  0  0  0  0  0  0  0  0  0  0  0
  -21.0400  -29.8880   21.7480 H   0  0  0  0  0  0  0  0  0  0  0  0
  -18.1600  -28.1220   22.9260 C   0  0  0  0  0  0  0  0  0  0  0  0
  -20.7190  -28.3830   23.1950 C   0  0  0  0  0  3  0  0  0  0  0  0
  -20.8230  -26.9600   22.5980 C   0  0  0  0  0  2  0  0  0  0  0  0
  -19.7200  -26.6490   21.5820 C   0  0  0  0  0  2  0  0  0  0  0  0
  -18.3390  -26.7830   22.2310 C   0  0  0  0  0  2  0  0  0  0  0  0
  -19.2780  -28.8800   23.3640 C   0  0  0  0  0  0  0  0  0  0  0  0
  -19.0580  -30.1360   23.9710 C   0  0  0  0  0  3  0  0  0  0  0  0
  -17.7520  -30.6310   24.1460 C   0  0  0  0  0  3  0  0  0  0  0  0
  -16.6490  -29.8690   23.7240 C   0  0  0  0  0  3  0  0  0  0  0  0
  -16.8540  -28.6160   23.1190 C   0  0  0  0  0  3  0  0  0  0  0  0
  -25.9620  -32.6020   23.9110 C   0  0  0  0  0  3  0  0  0  0  0  0
  -26.4700  -31.8380   25.1950 C   0  0  1  0  0  0  0  0  0  0  0  0
  -25.3650  -31.5840   26.2460 C   0  0  0  0  0  1  0  0  0  0  0  0
  -27.0780  -30.4690   24.8080 C   0  0  0  0  0  1  0  0  0  0  0  0
  -27.6010  -32.6460   25.8740 C   0  0  0  0  0  1  0  0  0  0  0  0
  -25.6450  -34.0000   24.2320 N   0  0  0  0  0  0  0  0  0  0  0  0
  -25.9700  -35.0490   23.4630 C   0  0  0  0  0  0  0  0  0  0  0  0
  -26.6400  -34.9410   22.4330 O   0  0  0  0  0  0  0  0  0  0  0  0
  -25.0520  -34.1580   25.0340 H   0  0  0  0  0  0  0  0  0  0  0  0
  -24.2360  -36.8300   23.0890 C   0  0  0  0  0  1  0  0  0  0  0  0
  -25.4740  -36.4370   23.9110 C   0  0  0  0  0  3  0  0  0  0  0  0
  -27.5910  -37.3450   24.7610 C   0  0  0  0  0  1  0  0  0  0  0  0
  -26.5020  -37.4940   23.7990 N   0  0  0  0  0  0  0  0  0  0  0  0
  -26.0890  -38.4140   23.9270 H   0  0  0  0  0  0  0  0  0  0  0  0
  1  4  2  0
  2  5  2  0
  3  1  1  0
  3  2  1  0
  6  3  1  0
  7 10  1  0
  9 12  2  0
 10  8  2  0
 10  1  1  0
 11  7  2  0
 11  9  1  0
 12  8  1  0
 12 13  1  0
 14 22  1  0
 15 20  1  0
 16 17  1  0
 16 15  1  0
 18 17  1  0
 18 27  1  0
 18 19  1  0
 20 14  1  0
 20 19  1  0
 21 14  2  0
 22 11  1  0
 22 23  1  0
 24 25  2  0
 25 44  1  0
 26 25  1  0
 26 29  1  0
 27 28  1  0
 27 24  1  0
 28 26  2  0
 29 30  1  0
 30 31  2  0
 32 35  1  0
 32 31  1  0
 33 32  2  0
 34 33  1  0
 34 29  2  0
 35 36  1  0
 36 41  2  0
 36 37  1  0
 37 38  2  0
 38 39  1  0
 39 43  1  0
 40 39  2  0
 41 40  1  0
 42 41  1  0
 44 45  1  0
 45 48  1  0
 45 47  1  0
 46 44  2  0
 49 24  1  0
 49 50  1  0
 51 49  1  0
 53 52  2  0
 53  2  1  0
 54 53  1  0
 55 54  1  0
 56 52  1  0
 57 68  2  0
 58 56  1  0
 58 63  1  0
 59 67  1  0
 59 69  1  0
 60 66  1  0
 60 62  1  0
 61 67  1  0
 62 61  1  0
 63 62  2  0
 64 65  1  0
 64 58  2  0
 65 60  2  0
 66 59  1  0
 67 57  1  0
 69 71  2  0
 70 69  1  0
 72 70  1  0
 73 82  2  0
 73 78  1  0
 74 70  1  0
 74 78  1  0
 75 74  1  0
 76 77  1  0
 76 75  1  0
 77 73  1  0
 78 79  2  0
 79 80  1  0
 81 80  2  0
 82 81  1  0
 83 57  1  0
 83 88  1  0
 83 84  1  0
 84 87  1  1
 84 85  1  0
 86 84  1  0
 88 91  1  0
 89 93  1  0
 89 88  1  0
 90 89  2  0
 93 92  1  0
 95 93  1  0
 95 96  1  0
 95 94  1  0
M  ISO  4  14 100  22 100  52 101  56 101
M  END
>  <TORSDO>  (6) 
F 19

>  <SCORE>  (6) 
-14.212

>  <name>  (6) 
5

>  <ligand_id>  (6) 
5

>  <original_smiles>  (6) 
[H]OC(C(=O)N([H])C(=O)c1c([H])c(F)c([H])c(N([H])C(=O)N2C([H])([H])C([H])([H])C([H])([H])C([H])(n3nc(-c4c([H])c([H])c(Oc5c([H])c([H])c(F)c([H])c5F)c([H])c4[H])c(C(=O)N([H])[H])c3N([H])[H])C2([H])[H])c1[H])=C([H])Oc1c([H])c([H])c2c(c1[H])C([H])([H])N(C(=O)C([H])(N([H])C(=O)C([H])(N([H])C([H])([H])[H])C([H])([H])[H])C(C([H])([H])[H])(C([H])([H])[H])C([H])([H])[H])C([H])(C(=O)N([H])C1([H])c3c([H])c([H])c([H])c([H])c3C([H])([H])C([H])([H])C1([H])[H])C2([H])[H]

>  <smiles>  (6) 
[H]OC(C(=O)N([H])C(=O)c1c([H])c(F)c([H])c(N([H])C(=O)N2C([H])([H])C([H])([H])C([H])([H])C([H])(n3nc(-c4c([H])c([H])c(Oc5c([H])c([H])c(F)c([H])c5F)c([H])c4[H])c(C(=O)N([H])[H])c3N([H])[H])C2([H])[H])c1[H])=C([H])Oc1c([H])c([H])c2c(c1[H])C([H])([H])N(C(=O)C([H])(N([H])C(=O)C([H])(N([H])C([H])([H])[H])C([H])([H])[H])C(C([H])([H])[H])(C([H])([H])[H])C([H])([H])[H])C([H])(C(=O)N([H])C1([H])c3c([H])c([H])c([H])c([H])c3C([H])([H])C([H])([H])C1([H])[H])C2([H])[H]

$$$$
6:0:0
     RDKit          3D

 97106  0  0  1  0  0  0  0  0999 V2000
  -28.8960  -23.7670   20.3980 C   0  0  0  0  0  0  0  0  0  0  0  0
  -28.5130  -22.3120   20.1180 C   0  0  0  0  0  0  0  0  0  0  0  0
  -30.9120  -22.8630   21.6930 C   0  0  0  0  0  0  0  0  0  0  0  0
  -28.0360  -24.8280   20.0910 C   0  0  0  0  0  3  0  0  0  0  0  0
  -30.3010  -24.0430   20.9240 C   0  0  0  0  0  2  0  0  0  0  0  0
  -30.0840  -21.5780   21.8440 C   0  0  0  0  0  2  0  0  0  0  0  0
  -29.3020  -21.2640   20.6400 N   0  0  0  0  0  0  0  0  0  0  0  0
  -27.5240  -22.0440   19.4270 O   0  0  0  0  0  0  0  0  0  0  0  0
  -32.0350  -22.9580   22.1950 O   0  0  0  0  0  0  0  0  0  0  0  0
  -29.2890  -19.6640   18.7280 C   0  0  0  0  0  3  0  0  0  0  0  0
  -29.3730  -18.3980   18.1230 C   0  0  0  0  0  3  0  0  0  0  0  0
  -29.5620  -18.5930   20.8880 C   0  0  0  0  0  3  0  0  0  0  0  0
  -29.3580  -19.8400   20.1270 C   0  0  0  0  0  0  0  0  0  0  0  0
  -29.5360  -17.2180   18.8730 C   0  0  0  0  0  0  0  0  0  0  0  0
  -29.6690  -17.2520   20.2880 C   0  0  0  0  0  0  0  0  0  0  0  0
  -30.5380  -14.8130   20.8090 C   0  0  0  0  0  0  0  0  0  0  0  0
  -30.4630  -12.4650   19.9360 C   0  0  0  0  0  2  0  0  0  0  0  0
  -29.6270  -12.4380   18.6370 C   0  0  0  0  0  2  0  0  0  0  0  0
  -28.1250  -12.2860   18.9500 C   0  0  0  0  0  2  0  0  0  0  0  0
  -27.6470  -13.2200   20.0940 C   0  0  0  0  0  3  0  0  0  0  0  0
  -28.6160  -13.2080   21.2970 C   0  0  0  0  0  2  0  0  0  0  0  0
  -29.9490  -13.5630   20.7930 N   0  0  0  0  0  0  0  0  0  0  0  0
  -31.7360  -14.9150   20.5260 O   0  0  0  0  0  0  0  0  0  0  0  0
  -29.7390  -15.9410   21.0170 N   0  0  0  0  0  0  0  0  0  0  0  0
  -28.8850  -15.7200   21.5040 H   0  0  0  0  0  0  0  0  0  0  0  0
  -25.2110  -13.8090   20.6380 C   0  0  0  0  0  0  0  0  0  0  0  0
  -24.1250  -13.0370   20.9500 C   0  0  0  0  0  0  0  0  0  0  0  0
  -24.5950  -11.6880   20.9800 C   0  0  0  0  0  0  0  0  0  0  0  0
  -26.2720  -12.9310   20.4940 N   0  0  0  0  0  0  0  0  0  0  0  0
  -25.9050  -11.6520   20.7650 N   0  0  0  0  0  0  0  0  0  0  0  0
  -23.8620  -10.4260   21.1470 C   0  0  0  0  0  0  0  0  0  0  0  0
  -24.2540   -9.4630   22.1040 C   0  0  0  0  0  3  0  0  0  0  0  0
  -23.5190   -8.2680   22.2580 C   0  0  0  0  0  3  0  0  0  0  0  0
  -22.3790   -8.0250   21.4560 C   0  0  0  0  0  0  0  0  0  0  0  0
  -22.0060   -8.9760   20.4900 C   0  0  0  0  0  3  0  0  0  0  0  0
  -22.7410  -10.1640   20.3330 C   0  0  0  0  0  3  0  0  0  0  0  0
  -21.6230   -6.8790   21.5170 O   0  0  0  0  0  0  0  0  0  0  0  0
  -21.5470   -6.1270   22.6620 C   0  0  0  0  0  0  0  0  0  0  0  0
  -21.1140   -6.6770   23.8880 C   0  0  0  0  0  3  0  0  0  0  0  0
  -20.9830   -5.8520   25.0220 C   0  0  0  0  0  3  0  0  0  0  0  0
  -21.2780   -4.4780   24.9320 C   0  0  0  0  0  0  0  0  0  0  0  0
  -21.7050   -3.9280   23.7110 C   0  0  0  0  0  3  0  0  0  0  0  0
  -21.8360   -4.7500   22.5790 C   0  0  0  0  0  0  0  0  0  0  0  0
  -22.2270   -4.2110   21.3980 F   0  0  0  0  0  0  0  0  0  0  0  0
  -21.1460   -3.6840   26.0200 F   0  0  0  0  0  0  0  0  0  0  0  0
  -22.7110  -13.5120   21.1130 C   0  0  0  0  0  0  0  0  0  0  0  0
  -21.9270  -12.8320   21.9420 N   0  0  0  0  0  0  0  0  0  0  0  0
  -22.3070  -14.5230   20.5410 O   0  0  0  0  0  0  0  0  0  0  0  0
  -22.2640  -12.0160   22.4300 H   0  0  0  0  0  0  0  0  0  0  0  0
  -20.9740  -13.1340   22.0920 H   0  0  0  0  0  0  0  0  0  0  0  0
  -25.3840  -15.1750   20.4410 N   0  0  0  0  0  0  0  0  0  0  0  0
  -24.6070  -15.8270   20.4770 H   0  0  0  0  0  0  0  0  0  0  0  0
  -26.2500  -15.6070   20.1450 H   0  0  0  0  0  0  0  0  0  0  0  0
  -29.5010  -16.0180   18.1650 N   0  0  0  0  0  0  0  0  0  0  0  0
  -29.1810  -16.0300   17.2020 H   0  0  0  0  0  0  0  0  0  0  0  0
  -29.2620  -15.1670   18.6550 H   0  0  0  0  0  0  0  0  0  0  0  0
  -28.2380  -26.2630   20.1380 O   0  0  0  0  0  0  0  0  0  0  0  0
  -24.5970  -31.8470   23.1380 C   0  0  0  0  0  0  0  0  0  0  0  0
  -27.1560  -27.1930   20.0770 C   0  0  0  0  0  0  0  0  0  0  0  0
  -23.3790  -30.4430   21.5190 C   0  0  0  0  0  3  0  0  0  0  0  0
  -24.8120  -28.8870   20.0750 C   0  0  0  0  0  0  0  0  0  0  0  0
  -25.9230  -30.7340   21.3160 C   0  0  0  0  0  2  0  0  0  0  0  0
  -25.9920  -29.3450   20.6750 C   0  0  0  0  0  0  0  0  0  0  0  0
  -27.1620  -28.5090   20.6720 C   0  0  0  0  0  3  0  0  0  0  0  0
  -25.9580  -26.8390   19.4100 C   0  0  0  0  0  3  0  0  0  0  0  0
  -24.8030  -27.6430   19.4310 C   0  0  0  0  0  3  0  0  0  0  0  0
  -23.5800  -29.7700   20.1370 C   0  0  0  0  0  2  0  0  0  0  0  0
  -24.6530  -31.0280   22.0460 N   0  0  0  0  0  0  0  0  0  0  0  0
  -23.5180  -32.1280   23.6800 O   0  0  0  0  0  0  0  0  0  0  0  0
  -22.7220  -29.4290   22.4890 C   0  0  0  0  0  0  0  0  0  0  0  0
  -21.3910  -29.2620   22.3870 N   0  0  0  0  0  0  0  0  0  0  0  0
  -23.4090  -28.7990   23.2950 O   0  0  0  0  0  0  0  0  0  0  0  0
  -20.8960  -29.8210   21.7080 H   0  0  0  0  0  0  0  0  0  0  0  0
  -18.0170  -28.0790   22.9490 C   0  0  0  0  0  0  0  0  0  0  0  0
  -20.5800  -28.3280   23.1720 C   0  0  0  0  0  3  0  0  0  0  0  0
  -20.6660  -26.8950   22.5950 C   0  0  0  0  0  2  0  0  0  0  0  0
  -19.5440  -26.5770   21.6010 C   0  0  0  0  0  2  0  0  0  0  0  0
  -18.1740  -26.7290   22.2690 C   0  0  0  0  0  2  0  0  0  0  0  0
  -19.1460  -28.8370   23.3580 C   0  0  0  0  0  0  0  0  0  0  0  0
  -18.9420  -30.0990   23.9570 C   0  0  0  0  0  3  0  0  0  0  0  0
  -17.6430  -30.6050   24.1480 C   0  0  0  0  0  3  0  0  0  0  0  0
  -16.5280  -29.8440   23.7540 C   0  0  0  0  0  3  0  0  0  0  0  0
  -16.7160  -28.5830   23.1610 C   0  0  0  0  0  3  0  0  0  0  0  0
  -25.8830  -32.4870   23.7430 C   0  0  0  0  0  3  0  0  0  0  0  0
  -25.5610  -33.8750   24.1090 N   0  0  0  0  0  0  0  0  0  0  0  0
  -25.8680  -34.9500   23.3700 C   0  0  0  0  0  0  0  0  0  0  0  0
  -26.5200  -34.8770   22.3240 O   0  0  0  0  0  0  0  0  0  0  0  0
  -24.9800  -34.0040   24.9240 H   0  0  0  0  0  0  0  0  0  0  0  0
  -24.1180  -36.7350   23.0830 C   0  0  0  0  0  1  0  0  0  0  0  0
  -25.3730  -36.3220   23.8670 C   0  0  0  0  0  3  0  0  0  0  0  0
  -27.5140  -37.2040   24.6860 C   0  0  0  0  0  1  0  0  0  0  0  0
  -26.3950  -37.3880   23.7660 N   0  0  0  0  0  0  0  0  0  0  0  0
  -25.9830  -38.2990   23.9430 H   0  0  0  0  0  0  0  0  0  0  0  0
  -26.4340  -31.7000   24.9950 C   0  0  1  0  0  0  0  0  0  0  0  0
  -25.3660  -31.4350   26.0830 C   0  0  0  0  0  1  0  0  0  0  0  0
  -27.0200  -30.3330   24.5690 C   0  0  0  0  0  1  0  0  0  0  0  0
  -27.5930  -32.4940   25.6440 C   0  0  0  0  0  1  0  0  0  0  0  0
  1  5  1  0
  2  1  1  0
  2  7  1  0
  3  6  1  0
  3  9  2  0
  4 57  1  0
  4  1  2  0
  5  3  1  0
  7  6  1  0
  8  2  2  0
 10 13  1  0
 11 10  2  0
 11 14  1  0
 13  7  1  0
 13 12  2  0
 14 15  2  0
 15 12  1  0
 15 24  1  0
 16 24  1  0
 17 22  1  0
 18 19  1  0
 18 17  1  0
 20 19  1  0
 20 29  1  0
 20 21  1  0
 22 16  1  0
 22 21  1  0
 23 16  2  0
 24 25  1  0
 26 27  2  0
 27 28  1  0
 27 46  1  0
 28 31  1  0
 29 26  1  0
 29 30  1  0
 30 28  2  0
 31 32  1  0
 32 33  2  0
 34 37  1  0
 34 33  1  0
 35 34  2  0
 36 35  1  0
 36 31  2  0
 37 38  1  0
 38 39  1  0
 39 40  2  0
 41 40  1  0
 41 45  1  0
 42 41  2  0
 43 38  2  0
 43 42  1  0
 44 43  1  0
 46 47  1  0
 47 50  1  0
 47 49  1  0
 48 46  2  0
 51 52  1  0
 51 26  1  0
 53 51  1  0
 54 56  1  0
 54 14  1  0
 55 54  1  0
 58 69  2  0
 59 57  1  0
 59 64  1  0
 60 68  1  0
 60 70  1  0
 61 67  1  0
 61 63  1  0
 62 68  1  0
 63 62  1  0
 64 63  2  0
 65 66  1  0
 65 59  2  0
 66 61  2  0
 67 60  1  0
 68 58  1  0
 70 72  2  0
 71 70  1  0
 73 71  1  0
 74 83  2  0
 74 79  1  0
 75 71  1  0
 75 79  1  0
 76 75  1  0
 77 78  1  0
 77 76  1  0
 78 74  1  0
 79 80  2  0
 80 81  1  0
 82 81  2  0
 83 82  1  0
 84 58  1  0
 84 85  1  0
 84 94  1  0
 85 88  1  0
 86 90  1  0
 86 85  1  0
 87 86  2  0
 90 89  1  0
 92 90  1  0
 92 93  1  0
 92 91  1  0
 94 97  1  1
 94 95  1  0
 96 94  1  0
M  ISO  4   4 101  16 100  24 100  57 101
M  END
>  <TORSDO>  (7) 
F 18

>  <SCORE>  (7) 
-13.219

>  <name>  (7) 
6

>  <ligand_id>  (7) 
6

>  <original_smiles>  (7) 
[H]C(Oc1c([H])c([H])c2c(c1[H])C([H])([H])N(C(=O)C([H])(N([H])C(=O)C([H])(N([H])C([H])([H])[H])C([H])([H])[H])C(C([H])([H])[H])(C([H])([H])[H])C([H])([H])[H])C([H])(C(=O)N([H])C1([H])c3c([H])c([H])c([H])c([H])c3C([H])([H])C([H])([H])C1([H])[H])C2([H])[H])=C1C(=O)N(c2c([H])c([H])c(N([H])[H])c(N([H])C(=O)N3C([H])([H])C([H])([H])C([H])([H])C([H])(n4nc(-c5c([H])c([H])c(Oc6c([H])c([H])c(F)c([H])c6F)c([H])c5[H])c(C(=O)N([H])[H])c4N([H])[H])C3([H])[H])c2[H])C([H])([H])C(=O)C1([H])[H]

>  <smiles>  (7) 
[H]C(Oc1c([H])c([H])c2c(c1[H])C([H])([H])N(C(=O)C([H])(N([H])C(=O)C([H])(N([H])C([H])([H])[H])C([H])([H])[H])C(C([H])([H])[H])(C([H])([H])[H])C([H])([H])[H])C([H])(C(=O)N([H])C1([H])c3c([H])c([H])c([H])c([H])c3C([H])([H])C([H])([H])C1([H])[H])C2([H])[H])=C1C(=O)N(c2c([H])c([H])c(N([H])[H])c(N([H])C(=O)N3C([H])([H])C([H])([H])C([H])([H])C([H])(n4nc(-c5c([H])c([H])c(Oc6c([H])c([H])c(F)c([H])c6F)c([H])c5[H])c(C(=O)N([H])[H])c4N([H])[H])C3([H])[H])c2[H])C([H])([H])C(=O)C1([H])[H]

$$$$
7:0:0
     RDKit          3D

 91 99  0  0  1  0  0  0  0  0999 V2000
  -30.5540  -19.2340   20.0210 C   0  0  0  0  0  3  0  0  0  0  0  0
  -28.3040  -18.8930   20.2190 C   0  0  0  0  0  3  0  0  0  0  0  0
  -29.0270  -21.4390   20.0650 C   0  0  0  0  0  0  0  0  0  0  0  0
  -29.5670  -18.1630   20.1400 C   0  0  0  0  0  3  0  0  0  0  0  0
  -30.3100  -20.7160   19.9900 C   0  0  0  0  0  0  0  0  0  0  0  0
  -28.0480  -20.3570   20.1870 C   0  0  0  0  0  0  0  0  0  0  0  0
  -26.7450  -20.7220   20.2850 F   0  0  0  0  0  0  0  0  0  0  0  0
  -30.5010  -15.3430   19.9770 C   0  0  0  0  0  0  0  0  0  0  0  0
  -30.4800  -12.9060   19.0770 C   0  0  0  0  0  2  0  0  0  0  0  0
  -29.4980  -12.7190   17.8920 C   0  0  0  0  0  2  0  0  0  0  0  0
  -28.0710  -12.4390   18.3970 C   0  0  0  0  0  2  0  0  0  0  0  0
  -27.6740  -13.3820   19.5600 C   0  0  0  0  0  3  0  0  0  0  0  0
  -28.7760  -13.5010   20.6350 C   0  0  0  0  0  2  0  0  0  0  0  0
  -29.9750  -14.0210   19.9570 N   0  0  0  0  0  0  0  0  0  0  0  0
  -31.6990  -15.4010   19.6600 O   0  0  0  0  0  0  0  0  0  0  0  0
  -29.6520  -16.5370   20.1800 N   0  0  0  0  0  0  0  0  0  0  0  0
  -28.7450  -16.1690   20.4210 H   0  0  0  0  0  0  0  0  0  0  0  0
  -25.3420  -13.9240   20.4420 C   0  0  0  0  0  0  0  0  0  0  0  0
  -24.3010  -13.1380   20.8510 C   0  0  0  0  0  0  0  0  0  0  0  0
  -24.7660  -11.7890   20.7680 C   0  0  0  0  0  0  0  0  0  0  0  0
  -26.3720  -13.0550   20.1270 N   0  0  0  0  0  0  0  0  0  0  0  0
  -26.0410  -11.7640   20.3900 N   0  0  0  0  0  0  0  0  0  0  0  0
  -24.0500  -10.5220   20.9670 C   0  0  0  0  0  0  0  0  0  0  0  0
  -24.4990   -9.5570   21.8960 C   0  0  0  0  0  3  0  0  0  0  0  0
  -23.7800   -8.3560   22.0840 C   0  0  0  0  0  3  0  0  0  0  0  0
  -22.5980   -8.1130   21.3450 C   0  0  0  0  0  0  0  0  0  0  0  0
  -22.1690   -9.0670   20.4050 C   0  0  0  0  0  3  0  0  0  0  0  0
  -22.8880  -10.2590   20.2150 C   0  0  0  0  0  3  0  0  0  0  0  0
  -21.8490   -6.9650   21.4430 O   0  0  0  0  0  0  0  0  0  0  0  0
  -21.7800   -6.2490   22.6110 C   0  0  0  0  0  0  0  0  0  0  0  0
  -21.2800   -6.8160   23.8040 C   0  0  0  0  0  3  0  0  0  0  0  0
  -21.1610   -6.0240   24.9630 C   0  0  0  0  0  3  0  0  0  0  0  0
  -21.5310   -4.6670   24.9310 C   0  0  0  0  0  0  0  0  0  0  0  0
  -22.0240   -4.0990   23.7430 C   0  0  0  0  0  3  0  0  0  0  0  0
  -22.1440   -4.8880   22.5860 C   0  0  0  0  0  0  0  0  0  0  0  0
  -22.5990   -4.3300   21.4380 F   0  0  0  0  0  0  0  0  0  0  0  0
  -21.4100   -3.9040   26.0430 F   0  0  0  0  0  0  0  0  0  0  0  0
  -22.9190  -13.6070   21.1970 C   0  0  0  0  0  0  0  0  0  0  0  0
  -22.2380  -12.9010   22.0920 N   0  0  0  0  0  0  0  0  0  0  0  0
  -22.4530  -14.6370   20.7090 O   0  0  0  0  0  0  0  0  0  0  0  0
  -22.6300  -12.0690   22.5090 H   0  0  0  0  0  0  0  0  0  0  0  0
  -21.3120  -13.1980   22.3670 H   0  0  0  0  0  0  0  0  0  0  0  0
  -25.4910  -15.2980   20.2810 N   0  0  0  0  0  0  0  0  0  0  0  0
  -24.7140  -15.9360   20.4240 H   0  0  0  0  0  0  0  0  0  0  0  0
  -26.2820  -15.7370   19.8290 H   0  0  0  0  0  0  0  0  0  0  0  0
  -31.4440  -21.5210   19.8670 N   0  0  0  0  0  0  0  0  0  0  0  0
  -32.3510  -21.1410   20.1170 H   0  0  0  0  0  0  0  0  0  0  0  0
  -31.3520  -22.5100   20.0800 H   0  0  0  0  0  0  0  0  0  0  0  0
  -28.7720  -23.1420   20.0290 C   0  0  0  0  0  0  0  0  0  0  0  0
  -28.0140  -24.4240   20.0430 C   0  0  0  0  0  3  0  0  0  0  0  0
  -28.3100  -25.9270   20.0090 O   0  0  0  0  0  0  0  0  0  0  0  0
  -24.7330  -31.7770   23.2130 C   0  0  0  0  0  0  0  0  0  0  0  0
  -27.3080  -27.0340   20.0140 C   0  0  0  0  0  0  0  0  0  0  0  0
  -23.5570  -30.4670   21.4930 C   0  0  0  0  0  3  0  0  0  0  0  0
  -25.0180  -28.9230   20.0210 C   0  0  0  0  0  0  0  0  0  0  0  0
  -26.1250  -30.6680   21.3990 C   0  0  0  0  0  2  0  0  0  0  0  0
  -26.1970  -29.2900   20.6820 C   0  0  0  0  0  0  0  0  0  0  0  0
  -27.3350  -28.3650   20.6620 C   0  0  0  0  0  3  0  0  0  0  0  0
  -26.1060  -26.8280   19.3000 C   0  0  0  0  0  3  0  0  0  0  0  0
  -24.9970  -27.7130   19.3110 C   0  0  0  0  0  3  0  0  0  0  0  0
  -23.8040  -29.8480   20.0910 C   0  0  0  0  0  2  0  0  0  0  0  0
  -24.8260  -30.9960   22.0900 N   0  0  0  0  0  0  0  0  0  0  0  0
  -23.6370  -32.0490   23.7310 O   0  0  0  0  0  0  0  0  0  0  0  0
  -22.8420  -29.4300   22.4000 C   0  0  0  0  0  0  0  0  0  0  0  0
  -21.5090  -29.2980   22.2640 N   0  0  0  0  0  0  0  0  0  0  0  0
  -23.4930  -28.7480   23.1940 O   0  0  0  0  0  0  0  0  0  0  0  0
  -21.0380  -29.9000   21.6040 H   0  0  0  0  0  0  0  0  0  0  0  0
  -18.0940  -28.1770   22.7570 C   0  0  0  0  0  0  0  0  0  0  0  0
  -20.6670  -28.3350   22.9810 C   0  0  0  0  0  3  0  0  0  0  0  0
  -20.7050  -26.9470   22.2980 C   0  0  0  0  0  2  0  0  0  0  0  0
  -19.5710  -26.7410   21.2880 C   0  0  0  0  0  2  0  0  0  0  0  0
  -18.2090  -26.8800   21.9740 C   0  0  0  0  0  2  0  0  0  0  0  0
  -19.2470  -28.8680   23.2170 C   0  0  0  0  0  0  0  0  0  0  0  0
  -19.0820  -30.0840   23.9140 C   0  0  0  0  0  3  0  0  0  0  0  0
  -17.7990  -30.6100   24.1530 C   0  0  0  0  0  3  0  0  0  0  0  0
  -16.6610  -29.9150   23.7070 C   0  0  0  0  0  3  0  0  0  0  0  0
  -16.8090  -28.7010   23.0150 C   0  0  0  0  0  3  0  0  0  0  0  0
  -25.9970  -32.3800   23.8950 C   0  0  0  0  0  3  0  0  0  0  0  0
  -25.6850  -33.7660   24.2870 N   0  0  0  0  0  0  0  0  0  0  0  0
  -26.0050  -34.8560   23.5760 C   0  0  0  0  0  0  0  0  0  0  0  0
  -26.6590  -34.8010   22.5320 O   0  0  0  0  0  0  0  0  0  0  0  0
  -25.1000  -33.8820   25.1010 H   0  0  0  0  0  0  0  0  0  0  0  0
  -24.2620  -36.6610   23.3530 C   0  0  0  0  0  1  0  0  0  0  0  0
  -25.5280  -36.2240   24.1070 C   0  0  0  0  0  3  0  0  0  0  0  0
  -27.6780  -37.0930   24.9200 C   0  0  0  0  0  1  0  0  0  0  0  0
  -26.5540  -37.2870   24.0070 N   0  0  0  0  0  0  0  0  0  0  0  0
  -26.1470  -38.1990   24.1940 H   0  0  0  0  0  0  0  0  0  0  0  0
  -26.4760  -31.5560   25.1550 C   0  0  1  0  0  0  0  0  0  0  0  0
  -25.3550  -31.2880   26.1870 C   0  0  0  0  0  1  0  0  0  0  0  0
  -27.0580  -30.1890   24.7320 C   0  0  0  0  0  1  0  0  0  0  0  0
  -27.6160  -32.3140   25.8740 C   0  0  0  0  0  1  0  0  0  0  0  0
  1  4  1  0
  3  6  1  0
  4 16  1  0
  4  2  1  0
  5  1  2  0
  5  3  1  0
  6  2  2  0
  6  7  1  0
  8 16  1  0
  9 14  1  0
 10 11  1  0
 10  9  1  0
 12 11  1  0
 12 21  1  0
 12 13  1  0
 14  8  1  0
 14 13  1  0
 15  8  2  0
 16 17  1  0
 18 19  2  0
 19 38  1  0
 20 19  1  0
 20 23  1  0
 21 22  1  0
 21 18  1  0
 22 20  2  0
 23 24  1  0
 24 25  2  0
 26 29  1  0
 26 25  1  0
 27 26  2  0
 28 27  1  0
 28 23  2  0
 29 30  1  0
 30 31  1  0
 31 32  2  0
 33 32  1  0
 33 37  1  0
 34 33  2  0
 35 30  2  0
 35 34  1  0
 36 35  1  0
 38 39  1  0
 39 42  1  0
 39 41  1  0
 40 38  2  0
 43 44  1  0
 43 18  1  0
 45 43  1  0
 46  5  1  0
 46 48  1  0
 46 47  1  0
 49 50  2  0
 49  3  2  0
 51 53  1  0
 51 50  1  0
 52 63  2  0
 53 58  1  0
 54 62  1  0
 54 64  1  0
 55 61  1  0
 55 57  1  0
 56 62  1  0
 57 56  1  0
 58 57  2  0
 59 60  1  0
 59 53  2  0
 60 55  2  0
 61 54  1  0
 62 52  1  0
 64 66  2  0
 65 64  1  0
 67 65  1  0
 68 77  2  0
 68 73  1  0
 69 65  1  0
 69 73  1  0
 70 69  1  0
 71 72  1  0
 71 70  1  0
 72 68  1  0
 73 74  2  0
 74 75  1  0
 76 75  2  0
 77 76  1  0
 78 52  1  0
 78 79  1  0
 78 88  1  0
 79 82  1  0
 80 84  1  0
 80 79  1  0
 81 80  2  0
 84 83  1  0
 86 84  1  0
 86 87  1  0
 86 85  1  0
 88 91  1  1
 88 89  1  0
 90 88  1  0
M  ISO  4   8 100  16 100  50 101  51 101
M  END
>  <TORSDO>  (8) 
F 18

>  <SCORE>  (8) 
-14.512

>  <name>  (8) 
7

>  <ligand_id>  (8) 
7

>  <original_smiles>  (8) 
[H]C(Oc1c([H])c([H])c2c(c1[H])C([H])([H])N(C(=O)C([H])(N([H])C(=O)C([H])(N([H])C([H])([H])[H])C([H])([H])[H])C(C([H])([H])[H])(C([H])([H])[H])C([H])([H])[H])C([H])(C(=O)N([H])C1([H])c3c([H])c([H])c([H])c([H])c3C([H])([H])C([H])([H])C1([H])[H])C2([H])[H])=C([H])c1c(F)c([H])c(N([H])C(=O)N2C([H])([H])C([H])([H])C([H])([H])C([H])(n3nc(-c4c([H])c([H])c(Oc5c([H])c([H])c(F)c([H])c5F)c([H])c4[H])c(C(=O)N([H])[H])c3N([H])[H])C2([H])[H])c([H])c1N([H])[H]

>  <smiles>  (8) 
[H]C(Oc1c([H])c([H])c2c(c1[H])C([H])([H])N(C(=O)C([H])(N([H])C(=O)C([H])(N([H])C([H])([H])[H])C([H])([H])[H])C(C([H])([H])[H])(C([H])([H])[H])C([H])([H])[H])C([H])(C(=O)N([H])C1([H])c3c([H])c([H])c([H])c([H])c3C([H])([H])C([H])([H])C1([H])[H])C2([H])[H])=C([H])c1c(F)c([H])c(N([H])C(=O)N2C([H])([H])C([H])([H])C([H])([H])C([H])(n3nc(-c4c([H])c([H])c(Oc5c([H])c([H])c(F)c([H])c5F)c([H])c4[H])c(C(=O)N([H])[H])c3N([H])[H])C2([H])[H])c([H])c1N([H])[H]

$$$$
8:0:0
     RDKit          3D

 95104  0  0  1  0  0  0  0  0999 V2000
  -30.3060  -23.8150   20.5230 C   0  0  0  0  0  0  0  0  0  0  0  0
  -29.0640  -23.8220   20.0270 C   0  0  0  0  0  0  0  0  0  0  0  0
  -30.7480  -22.4330   20.6880 C   0  0  0  0  0  0  0  0  0  0  0  0
  -28.6990  -22.4000   19.8660 C   0  0  0  0  0  0  0  0  0  0  0  0
  -31.1970  -24.9980   20.8600 C   0  0  0  0  0  1  0  0  0  0  0  0
  -29.7490  -21.6180   20.2690 N   0  0  0  0  0  0  0  0  0  0  0  0
  -31.8370  -22.0650   21.1450 O   0  0  0  0  0  0  0  0  0  0  0  0
  -27.6280  -21.9690   19.4220 O   0  0  0  0  0  0  0  0  0  0  0  0
  -31.0100  -19.3910   20.0380 C   0  0  0  0  0  3  0  0  0  0  0  0
  -31.0790  -17.9620   20.0990 C   0  0  0  0  0  3  0  0  0  0  0  0
  -28.6780  -19.3210   20.5910 C   0  0  0  0  0  3  0  0  0  0  0  0
  -29.8090  -20.1290   20.2890 C   0  0  0  0  0  0  0  0  0  0  0  0
  -29.9390  -17.1740   20.4150 C   0  0  0  0  0  0  0  0  0  0  0  0
  -28.7420  -17.8970   20.6510 C   0  0  0  0  0  0  0  0  0  0  0  0
  -27.6170  -17.2010   20.9460 F   0  0  0  0  0  0  0  0  0  0  0  0
  -30.6420  -14.6830   20.0350 C   0  0  0  0  0  0  0  0  0  0  0  0
  -30.3640  -12.4740   18.9230 C   0  0  0  0  0  2  0  0  0  0  0  0
  -29.3500  -12.6380   17.7680 C   0  0  0  0  0  2  0  0  0  0  0  0
  -27.9040  -12.4730   18.2760 C   0  0  0  0  0  2  0  0  0  0  0  0
  -27.6220  -13.3030   19.5570 C   0  0  0  0  0  3  0  0  0  0  0  0
  -28.7420  -13.1070   20.6040 C   0  0  0  0  0  2  0  0  0  0  0  0
  -30.0200  -13.4620   19.9650 N   0  0  0  0  0  0  0  0  0  0  0  0
  -31.7720  -14.8550   19.5700 O   0  0  0  0  0  0  0  0  0  0  0  0
  -29.8700  -15.7130   20.5050 N   0  0  0  0  0  0  0  0  0  0  0  0
  -29.0000  -15.3920   20.9030 H   0  0  0  0  0  0  0  0  0  0  0  0
  -25.2770  -13.8990   20.4240 C   0  0  0  0  0  0  0  0  0  0  0  0
  -24.2260  -13.1240   20.8310 C   0  0  0  0  0  0  0  0  0  0  0  0
  -24.6750  -11.7700   20.7380 C   0  0  0  0  0  0  0  0  0  0  0  0
  -26.3000  -13.0190   20.1100 N   0  0  0  0  0  0  0  0  0  0  0  0
  -25.9450  -11.7310   20.3580 N   0  0  0  0  0  0  0  0  0  0  0  0
  -23.9500  -10.5090   20.9370 C   0  0  0  0  0  0  0  0  0  0  0  0
  -24.3850   -9.5460   21.8730 C   0  0  0  0  0  3  0  0  0  0  0  0
  -23.6610   -8.3480   22.0570 C   0  0  0  0  0  3  0  0  0  0  0  0
  -22.4870   -8.1060   21.3060 C   0  0  0  0  0  0  0  0  0  0  0  0
  -22.0710   -9.0570   20.3580 C   0  0  0  0  0  3  0  0  0  0  0  0
  -22.7960  -10.2460   20.1720 C   0  0  0  0  0  3  0  0  0  0  0  0
  -21.7350   -6.9600   21.3990 O   0  0  0  0  0  0  0  0  0  0  0  0
  -21.6360   -6.2580   22.5730 C   0  0  0  0  0  0  0  0  0  0  0  0
  -21.1490   -6.8510   23.7590 C   0  0  0  0  0  3  0  0  0  0  0  0
  -20.9990   -6.0730   24.9250 C   0  0  0  0  0  3  0  0  0  0  0  0
  -21.3250   -4.7050   24.9060 C   0  0  0  0  0  0  0  0  0  0  0  0
  -21.8060   -4.1110   23.7250 C   0  0  0  0  0  3  0  0  0  0  0  0
  -21.9580   -4.8860   22.5610 C   0  0  0  0  0  0  0  0  0  0  0  0
  -22.4010   -4.3030   21.4210 F   0  0  0  0  0  0  0  0  0  0  0  0
  -21.1740   -3.9560   26.0230 F   0  0  0  0  0  0  0  0  0  0  0  0
  -22.8500  -13.6030   21.1950 C   0  0  0  0  0  0  0  0  0  0  0  0
  -22.1740  -12.8980   22.0950 N   0  0  0  0  0  0  0  0  0  0  0  0
  -22.3850  -14.6380   20.7180 O   0  0  0  0  0  0  0  0  0  0  0  0
  -22.5620  -12.0610   22.5040 H   0  0  0  0  0  0  0  0  0  0  0  0
  -21.2530  -13.2020   22.3810 H   0  0  0  0  0  0  0  0  0  0  0  0
  -25.4400  -15.2730   20.2790 N   0  0  0  0  0  0  0  0  0  0  0  0
  -24.6910  -15.9270   20.4790 H   0  0  0  0  0  0  0  0  0  0  0  0
  -26.3030  -15.7330   20.0190 H   0  0  0  0  0  0  0  0  0  0  0  0
  -28.1070  -25.0030   19.6170 C   0  0  0  0  0  2  0  0  0  0  0  0
  -28.3720  -26.4360   19.9320 O   0  0  0  0  0  0  0  0  0  0  0  0
  -24.5670  -31.7040   23.1290 C   0  0  0  0  0  0  0  0  0  0  0  0
  -27.2520  -27.2980   19.9020 C   0  0  0  0  0  0  0  0  0  0  0  0
  -23.3830  -30.3370   21.4510 C   0  0  0  0  0  3  0  0  0  0  0  0
  -24.8560  -28.8760   19.9620 C   0  0  0  0  0  0  0  0  0  0  0  0
  -25.9160  -30.7130   21.2660 C   0  0  0  0  0  2  0  0  0  0  0  0
  -26.0220  -29.3600   20.5700 C   0  0  0  0  0  0  0  0  0  0  0  0
  -27.2220  -28.5840   20.5330 C   0  0  0  0  0  3  0  0  0  0  0  0
  -26.0590  -26.8840   19.2600 C   0  0  0  0  0  3  0  0  0  0  0  0
  -24.8780  -27.6440   19.2980 C   0  0  0  0  0  3  0  0  0  0  0  0
  -23.6020  -29.7210   20.0470 C   0  0  0  0  0  2  0  0  0  0  0  0
  -24.6410  -30.9330   22.0050 N   0  0  0  0  0  0  0  0  0  0  0  0
  -23.4810  -31.9390   23.6790 O   0  0  0  0  0  0  0  0  0  0  0  0
  -22.7500  -29.2710   22.3780 C   0  0  0  0  0  0  0  0  0  0  0  0
  -21.4260  -29.0700   22.2560 N   0  0  0  0  0  0  0  0  0  0  0  0
  -23.4480  -28.6300   23.1680 O   0  0  0  0  0  0  0  0  0  0  0  0
  -20.9200  -29.6410   21.5940 H   0  0  0  0  0  0  0  0  0  0  0  0
  -18.0730  -27.8120   22.7730 C   0  0  0  0  0  0  0  0  0  0  0  0
  -20.6350  -28.0900   23.0020 C   0  0  0  0  0  3  0  0  0  0  0  0
  -20.7410  -26.6860   22.3650 C   0  0  0  0  0  2  0  0  0  0  0  0
  -19.6210  -26.3920   21.3600 C   0  0  0  0  0  2  0  0  0  0  0  0
  -18.2510  -26.4940   22.0360 C   0  0  0  0  0  2  0  0  0  0  0  0
  -19.1930  -28.5680   23.2130 C   0  0  0  0  0  0  0  0  0  0  0  0
  -18.9730  -29.8020   23.8630 C   0  0  0  0  0  3  0  0  0  0  0  0
  -17.6670  -30.2800   24.0760 C   0  0  0  0  0  3  0  0  0  0  0  0
  -16.5620  -29.5220   23.6510 C   0  0  0  0  0  3  0  0  0  0  0  0
  -16.7660  -28.2890   23.0050 C   0  0  0  0  0  3  0  0  0  0  0  0
  -25.8390  -32.3450   23.7620 C   0  0  0  0  0  3  0  0  0  0  0  0
  -25.5070  -33.7310   24.1200 N   0  0  0  0  0  0  0  0  0  0  0  0
  -25.8010  -34.8020   23.3710 C   0  0  0  0  0  0  0  0  0  0  0  0
  -26.4520  -34.7300   22.3260 O   0  0  0  0  0  0  0  0  0  0  0  0
  -24.9270  -33.8600   24.9360 H   0  0  0  0  0  0  0  0  0  0  0  0
  -24.0170  -36.5550   23.0920 C   0  0  0  0  0  1  0  0  0  0  0  0
  -25.2920  -36.1730   23.8610 C   0  0  0  0  0  3  0  0  0  0  0  0
  -27.4270  -37.1060   24.6380 C   0  0  0  0  0  1  0  0  0  0  0  0
  -26.2930  -37.2540   23.7300 N   0  0  0  0  0  0  0  0  0  0  0  0
  -25.8680  -38.1610   23.9010 H   0  0  0  0  0  0  0  0  0  0  0  0
  -26.3680  -31.5570   25.0230 C   0  0  1  0  0  0  0  0  0  0  0  0
  -25.2770  -31.2790   26.0840 C   0  0  0  0  0  1  0  0  0  0  0  0
  -26.9760  -30.1980   24.6060 C   0  0  0  0  0  1  0  0  0  0  0  0
  -27.5030  -32.3570   25.7040 C   0  0  0  0  0  1  0  0  0  0  0  0
  1  3  1  0
  1  5  1  0
  2  1  2  0
  3  7  2  0
  4  2  1  0
  4  6  1  0
  6 12  1  0
  6  3  1  0
  8  4  2  0
  9 10  2  0
  9 12  1  0
 10 13  1  0
 11 14  1  0
 12 11  2  0
 13 24  1  0
 13 14  2  0
 14 15  1  0
 16 24  1  0
 17 22  1  0
 18 19  1  0
 18 17  1  0
 20 19  1  0
 20 29  1  0
 20 21  1  0
 22 16  1  0
 22 21  1  0
 23 16  2  0
 24 25  1  0
 26 27  2  0
 27 46  1  0
 28 27  1  0
 28 31  1  0
 29 30  1  0
 29 26  1  0
 30 28  2  0
 31 32  1  0
 32 33  2  0
 34 37  1  0
 34 33  1  0
 35 34  2  0
 36 35  1  0
 36 31  2  0
 37 38  1  0
 38 39  1  0
 39 40  2  0
 41 40  1  0
 41 45  1  0
 42 41  2  0
 43 38  2  0
 43 42  1  0
 44 43  1  0
 46 47  1  0
 47 50  1  0
 47 49  1  0
 48 46  2  0
 51 26  1  0
 51 52  1  0
 53 51  1  0
 54 55  1  0
 54  2  1  0
 56 67  2  0
 57 55  1  0
 57 62  1  0
 58 66  1  0
 58 68  1  0
 59 65  1  0
 59 61  1  0
 60 66  1  0
 61 60  1  0
 62 61  2  0
 63 64  1  0
 63 57  2  0
 64 59  2  0
 65 58  1  0
 66 56  1  0
 68 70  2  0
 69 68  1  0
 71 69  1  0
 72 81  2  0
 72 77  1  0
 73 69  1  0
 73 77  1  0
 74 73  1  0
 75 76  1  0
 75 74  1  0
 76 72  1  0
 77 78  2  0
 78 79  1  0
 80 79  2  0
 81 80  1  0
 82 56  1  0
 82 83  1  0
 82 92  1  0
 83 86  1  0
 84 88  1  0
 84 83  1  0
 85 84  2  0
 88 87  1  0
 90 88  1  0
 90 91  1  0
 90 89  1  0
 92 95  1  1
 92 93  1  0
 94 92  1  0
M  ISO  4  16 100  24 100  54 101  55 101
M  END
>  <TORSDO>  (9) 
F 18

>  <SCORE>  (9) 
-14.544

>  <name>  (9) 
8

>  <ligand_id>  (9) 
8

>  <original_smiles>  (9) 
[H]c1c([H])c([H])c2c(c1[H])C([H])([H])C([H])([H])C([H])([H])C2([H])N([H])C(=O)C1([H])N(C(=O)C([H])(N([H])C(=O)C([H])(N([H])C([H])([H])[H])C([H])([H])[H])C(C([H])([H])[H])(C([H])([H])[H])C([H])([H])[H])C([H])([H])c2c([H])c(OC([H])([H])C3=C(C([H])([H])[H])C(=O)N(c4c([H])c([H])c(N([H])C(=O)N5C([H])([H])C([H])([H])C([H])([H])C([H])(n6nc(-c7c([H])c([H])c(Oc8c([H])c([H])c(F)c([H])c8F)c([H])c7[H])c(C(=O)N([H])[H])c6N([H])[H])C5([H])[H])c(F)c4[H])C3=O)c([H])c([H])c2C1([H])[H]

>  <smiles>  (9) 
[H]c1c([H])c([H])c2c(c1[H])C([H])([H])C([H])([H])C([H])([H])C2([H])N([H])C(=O)C1([H])N(C(=O)C([H])(N([H])C(=O)C([H])(N([H])C([H])([H])[H])C([H])([H])[H])C(C([H])([H])[H])(C([H])([H])[H])C([H])([H])[H])C([H])([H])c2c([H])c(OC([H])([H])C3=C(C([H])([H])[H])C(=O)N(c4c([H])c([H])c(N([H])C(=O)N5C([H])([H])C([H])([H])C([H])([H])C([H])(n6nc(-c7c([H])c([H])c(Oc8c([H])c([H])c(F)c([H])c8F)c([H])c7[H])c(C(=O)N([H])[H])c6N([H])[H])C5([H])[H])c(F)c4[H])C3=O)c([H])c([H])c2C1([H])[H]

$$$$
9:0:0
     RDKit          3D

 94103  0  0  1  0  0  0  0  0999 V2000
  -30.2220  -23.7230   19.4280 C   0  0  0  0  0  3  0  0  0  0  0  0
  -29.0600  -23.7510   20.0780 C   0  0  0  0  0  0  0  0  0  0  0  0
  -30.6740  -22.3470   19.2930 C   0  0  0  0  0  0  0  0  0  0  0  0
  -28.7410  -22.3350   20.3580 C   0  0  0  0  0  0  0  0  0  0  0  0
  -29.7460  -21.5340   19.8670 N   0  0  0  0  0  0  0  0  0  0  0  0
  -31.7350  -21.9880   18.7690 O   0  0  0  0  0  0  0  0  0  0  0  0
  -27.7210  -21.9240   20.9240 O   0  0  0  0  0  0  0  0  0  0  0  0
  -30.4520  -19.2080   18.9630 C   0  0  0  0  0  3  0  0  0  0  0  0
  -30.6410  -17.7930   19.1080 C   0  0  0  0  0  3  0  0  0  0  0  0
  -29.4350  -19.3070   21.1120 C   0  0  0  0  0  3  0  0  0  0  0  0
  -29.8680  -20.0410   19.9720 C   0  0  0  0  0  0  0  0  0  0  0  0
  -30.2650  -17.0750   20.2820 C   0  0  0  0  0  0  0  0  0  0  0  0
  -29.6130  -17.8960   21.2610 C   0  0  0  0  0  0  0  0  0  0  0  0
  -29.1240  -17.3470   22.3980 F   0  0  0  0  0  0  0  0  0  0  0  0
  -30.9560  -14.6650   19.6160 C   0  0  0  0  0  0  0  0  0  0  0  0
  -30.5180  -12.4940   18.4450 C   0  0  0  0  0  2  0  0  0  0  0  0
  -29.4020  -12.6550   17.3910 C   0  0  0  0  0  2  0  0  0  0  0  0
  -28.0150  -12.4600   18.0300 C   0  0  0  0  0  2  0  0  0  0  0  0
  -27.8500  -13.2710   19.3400 C   0  0  0  0  0  3  0  0  0  0  0  0
  -29.0600  -13.0790   20.2750 C   0  0  0  0  0  2  0  0  0  0  0  0
  -30.2730  -13.4670   19.5360 N   0  0  0  0  0  0  0  0  0  0  0  0
  -31.9450  -14.8600   18.9020 O   0  0  0  0  0  0  0  0  0  0  0  0
  -30.8570  -15.2520   21.9180 C   0  0  0  0  0  1  0  0  0  0  0  0
  -30.5420  -15.6250   20.5250 N   0  0  0  0  0  0  0  0  0  0  0  0
  -25.6350  -13.8360   20.5120 C   0  0  0  0  0  0  0  0  0  0  0  0
  -24.6150  -13.0490   20.9760 C   0  0  0  0  0  0  0  0  0  0  0  0
  -25.0140  -11.7000   20.7300 C   0  0  0  0  0  0  0  0  0  0  0  0
  -26.5900  -12.9640   20.0150 N   0  0  0  0  0  0  0  0  0  0  0  0
  -26.2330  -11.6680   20.2030 N   0  0  0  0  0  0  0  0  0  0  0  0
  -24.2820  -10.4390   20.9120 C   0  0  0  0  0  0  0  0  0  0  0  0
  -24.7520   -9.4280   21.7800 C   0  0  0  0  0  3  0  0  0  0  0  0
  -24.0200   -8.2340   21.9510 C   0  0  0  0  0  3  0  0  0  0  0  0
  -22.8030   -8.0410   21.2540 C   0  0  0  0  0  0  0  0  0  0  0  0
  -22.3510   -9.0410   20.3750 C   0  0  0  0  0  3  0  0  0  0  0  0
  -23.0830  -10.2270   20.2010 C   0  0  0  0  0  3  0  0  0  0  0  0
  -22.0380   -6.9030   21.3390 O   0  0  0  0  0  0  0  0  0  0  0  0
  -21.9470   -6.1820   22.5020 C   0  0  0  0  0  0  0  0  0  0  0  0
  -21.4840   -6.7600   23.7040 C   0  0  0  0  0  3  0  0  0  0  0  0
  -21.3410   -5.9650   24.8590 C   0  0  0  0  0  3  0  0  0  0  0  0
  -21.6480   -4.5930   24.8110 C   0  0  0  0  0  0  0  0  0  0  0  0
  -22.1030   -4.0130   23.6140 C   0  0  0  0  0  3  0  0  0  0  0  0
  -22.2490   -4.8060   22.4620 C   0  0  0  0  0  0  0  0  0  0  0  0
  -22.6670   -4.2370   21.3050 F   0  0  0  0  0  0  0  0  0  0  0  0
  -21.5030   -3.8270   25.9180 F   0  0  0  0  0  0  0  0  0  0  0  0
  -23.3020  -13.5230   21.5300 C   0  0  0  0  0  0  0  0  0  0  0  0
  -22.7180  -12.7690   22.4550 N   0  0  0  0  0  0  0  0  0  0  0  0
  -22.8090  -14.5930   21.1760 O   0  0  0  0  0  0  0  0  0  0  0  0
  -23.1340  -11.9020   22.7600 H   0  0  0  0  0  0  0  0  0  0  0  0
  -21.8440  -13.0650   22.8650 H   0  0  0  0  0  0  0  0  0  0  0  0
  -25.8210  -15.2130   20.4530 N   0  0  0  0  0  0  0  0  0  0  0  0
  -25.1170  -15.8710   20.7690 H   0  0  0  0  0  0  0  0  0  0  0  0
  -26.6370  -15.6640   20.0580 H   0  0  0  0  0  0  0  0  0  0  0  0
  -28.1780  -24.9810   20.5210 C   0  0  0  0  0  2  0  0  0  0  0  0
  -28.5320  -26.3860   20.1560 O   0  0  0  0  0  0  0  0  0  0  0  0
  -24.7770  -31.8310   23.1190 C   0  0  0  0  0  0  0  0  0  0  0  0
  -27.4480  -27.2810   20.0920 C   0  0  0  0  0  0  0  0  0  0  0  0
  -23.6090  -30.4400   21.4470 C   0  0  0  0  0  3  0  0  0  0  0  0
  -25.0900  -28.9030   20.0380 C   0  0  0  0  0  0  0  0  0  0  0  0
  -26.1520  -30.7590   21.3190 C   0  0  0  0  0  2  0  0  0  0  0  0
  -26.2470  -29.3850   20.6650 C   0  0  0  0  0  0  0  0  0  0  0  0
  -27.4320  -28.5860   20.6830 C   0  0  0  0  0  3  0  0  0  0  0  0
  -26.2770  -26.8710   19.4200 C   0  0  0  0  0  3  0  0  0  0  0  0
  -25.1080  -27.6520   19.4040 C   0  0  0  0  0  3  0  0  0  0  0  0
  -23.8520  -29.7760   20.0670 C   0  0  0  0  0  2  0  0  0  0  0  0
  -24.8640  -31.0270   22.0180 N   0  0  0  0  0  0  0  0  0  0  0  0
  -23.6820  -32.1050   23.6310 O   0  0  0  0  0  0  0  0  0  0  0  0
  -22.9270  -29.4180   22.3870 C   0  0  0  0  0  0  0  0  0  0  0  0
  -21.6000  -29.2570   22.2490 N   0  0  0  0  0  0  0  0  0  0  0  0
  -23.5930  -28.7710   23.2010 O   0  0  0  0  0  0  0  0  0  0  0  0
  -21.1230  -29.8300   21.5680 H   0  0  0  0  0  0  0  0  0  0  0  0
  -18.2040  -28.1000   22.7170 C   0  0  0  0  0  0  0  0  0  0  0  0
  -20.7640  -28.3200   23.0020 C   0  0  0  0  0  3  0  0  0  0  0  0
  -20.8490  -26.8960   22.4060 C   0  0  0  0  0  2  0  0  0  0  0  0
  -19.7480  -26.6040   21.3810 C   0  0  0  0  0  2  0  0  0  0  0  0
  -18.3640  -26.7590   22.0210 C   0  0  0  0  0  2  0  0  0  0  0  0
  -19.3310  -28.8400   23.1640 C   0  0  0  0  0  0  0  0  0  0  0  0
  -19.1270  -30.0960   23.7740 C   0  0  0  0  0  3  0  0  0  0  0  0
  -17.8290  -30.6130   23.9430 C   0  0  0  0  0  3  0  0  0  0  0  0
  -16.7160  -29.8690   23.5120 C   0  0  0  0  0  3  0  0  0  0  0  0
  -16.9030  -28.6150   22.9050 C   0  0  0  0  0  3  0  0  0  0  0  0
  -26.0470  -32.4620   23.7690 C   0  0  0  0  0  3  0  0  0  0  0  0
  -25.7180  -33.8480   24.1320 N   0  0  0  0  0  0  0  0  0  0  0  0
  -26.0460  -34.9230   23.4040 C   0  0  0  0  0  0  0  0  0  0  0  0
  -26.7280  -34.8540   22.3770 O   0  0  0  0  0  0  0  0  0  0  0  0
  -25.1140  -33.9760   24.9300 H   0  0  0  0  0  0  0  0  0  0  0  0
  -24.3060  -36.7100   23.0750 C   0  0  0  0  0  1  0  0  0  0  0  0
  -25.5390  -36.2950   23.8920 C   0  0  0  0  0  3  0  0  0  0  0  0
  -27.6540  -37.1770   24.7750 C   0  0  0  0  0  1  0  0  0  0  0  0
  -26.5640  -37.3600   23.8210 N   0  0  0  0  0  0  0  0  0  0  0  0
  -26.1470  -38.2720   23.9880 H   0  0  0  0  0  0  0  0  0  0  0  0
  -26.5570  -31.6640   25.0320 C   0  0  1  0  0  0  0  0  0  0  0  0
  -25.4560  -31.3860   26.0810 C   0  0  0  0  0  1  0  0  0  0  0  0
  -27.1630  -30.3040   24.6130 C   0  0  0  0  0  1  0  0  0  0  0  0
  -27.6910  -32.4560   25.7260 C   0  0  0  0  0  1  0  0  0  0  0  0
  1  2  2  0
  2  4  1  0
  2 53  1  0
  3  1  1  0
  3  5  1  0
  4  7  2  0
  5 11  1  0
  5  4  1  0
  6  3  2  0
  8  9  2  0
  8 11  1  0
  9 12  1  0
 10 13  1  0
 11 10  2  0
 12 24  1  0
 12 13  2  0
 13 14  1  0
 15 24  1  0
 16 21  1  0
 17 18  1  0
 17 16  1  0
 19 18  1  0
 19 28  1  0
 19 20  1  0
 21 15  1  0
 21 20  1  0
 22 15  2  0
 24 23  1  0
 25 26  2  0
 26 45  1  0
 27 30  1  0
 27 26  1  0
 28 29  1  0
 28 25  1  0
 29 27  2  0
 30 31  1  0
 31 32  2  0
 33 36  1  0
 33 32  1  0
 34 33  2  0
 35 34  1  0
 35 30  2  0
 36 37  1  0
 37 38  1  0
 38 39  2  0
 40 39  1  0
 40 44  1  0
 41 40  2  0
 42 37  2  0
 42 41  1  0
 43 42  1  0
 45 46  1  0
 46 48  1  0
 46 49  1  0
 47 45  2  0
 50 25  1  0
 50 51  1  0
 52 50  1  0
 54 53  1  0
 55 66  2  0
 56 54  1  0
 56 61  1  0
 57 65  1  0
 57 67  1  0
 58 64  1  0
 58 60  1  0
 59 65  1  0
 60 61  2  0
 60 59  1  0
 62 56  2  0
 63 62  1  0
 63 58  2  0
 64 57  1  0
 65 55  1  0
 67 69  2  0
 68 67  1  0
 70 68  1  0
 71 80  2  0
 71 76  1  0
 72 68  1  0
 72 76  1  0
 73 72  1  0
 74 75  1  0
 74 73  1  0
 75 71  1  0
 76 77  2  0
 77 78  1  0
 79 78  2  0
 80 79  1  0
 81 55  1  0
 81 82  1  0
 81 91  1  0
 82 85  1  0
 83 87  1  0
 83 82  1  0
 84 83  2  0
 87 86  1  0
 89 87  1  0
 89 90  1  0
 89 88  1  0
 91 94  1  1
 91 92  1  0
 93 91  1  0
M  ISO  4  15 100  24 100  53 101  54 101
M  END
>  <TORSDO>  (10) 
F 18

>  <SCORE>  (10) 
-12.134

>  <name>  (10) 
9

>  <ligand_id>  (10) 
9

>  <original_smiles>  (10) 
[H]C1=C(C([H])([H])Oc2c([H])c([H])c3c(c2[H])C([H])([H])N(C(=O)C([H])(N([H])C(=O)C([H])(N([H])C([H])([H])[H])C([H])([H])[H])C(C([H])([H])[H])(C([H])([H])[H])C([H])([H])[H])C([H])(C(=O)N([H])C2([H])c4c([H])c([H])c([H])c([H])c4C([H])([H])C([H])([H])C2([H])[H])C3([H])[H])C(=O)N(c2c([H])c([H])c(N(C(=O)N3C([H])([H])C([H])([H])C([H])([H])C([H])(n4nc(-c5c([H])c([H])c(Oc6c([H])c([H])c(F)c([H])c6F)c([H])c5[H])c(C(=O)N([H])[H])c4N([H])[H])C3([H])[H])C([H])([H])[H])c(F)c2[H])C1=O

>  <smiles>  (10) 
[H]C1=C(C([H])([H])Oc2c([H])c([H])c3c(c2[H])C([H])([H])N(C(=O)C([H])(N([H])C(=O)C([H])(N([H])C([H])([H])[H])C([H])([H])[H])C(C([H])([H])[H])(C([H])([H])[H])C([H])([H])[H])C([H])(C(=O)N([H])C2([H])c4c([H])c([H])c([H])c([H])c4C([H])([H])C([H])([H])C2([H])[H])C3([H])[H])C(=O)N(c2c([H])c([H])c(N(C(=O)N3C([H])([H])C([H])([H])C([H])([H])C([H])(n4nc(-c5c([H])c([H])c(Oc6c([H])c([H])c(F)c([H])c6F)c([H])c5[H])c(C(=O)N([H])[H])c4N([H])[H])C3([H])[H])C([H])([H])[H])c(F)c2[H])C1=O

$$$$
10:0:0
     RDKit          3D

 92100  0  0  1  0  0  0  0  0999 V2000
  -28.9970  -21.0960   19.3200 C   0  0  0  0  0  0  0  0  0  0  0  0
  -28.7490  -20.6860   18.1210 N   0  0  0  0  0  4  0  0  0  0  0  0
  -28.9420  -19.7400   17.8070 H   0  0  0  0  0  0  0  0  0  0  0  0
  -28.4550  -21.3290   17.3920 H   0  0  0  0  0  0  0  0  0  0  0  0
  -30.9980  -19.1410   22.0310 C   0  0  0  0  0  3  0  0  0  0  0  0
  -30.3660  -20.1920   21.3200 C   0  0  0  0  0  3  0  0  0  0  0  0
  -30.8430  -17.7790   21.6700 C   0  0  0  0  0  3  0  0  0  0  0  0
  -29.3560  -18.4990   19.9020 C   0  0  0  0  0  3  0  0  0  0  0  0
  -29.5390  -19.9230   20.2140 C   0  0  0  0  0  0  0  0  0  0  0  0
  -30.0070  -17.3900   20.5990 C   0  0  0  0  0  0  0  0  0  0  0  0
  -30.5720  -14.7990   20.3420 C   0  0  0  0  0  0  0  0  0  0  0  0
  -30.3870  -12.5020   19.3510 C   0  0  0  0  0  2  0  0  0  0  0  0
  -29.4420  -12.5360   18.1290 C   0  0  0  0  0  2  0  0  0  0  0  0
  -27.9750  -12.3570   18.5680 C   0  0  0  0  0  2  0  0  0  0  0  0
  -27.6000  -13.2700   19.7630 C   0  0  0  0  0  3  0  0  0  0  0  0
  -28.6600  -13.2180   20.8840 C   0  0  0  0  0  2  0  0  0  0  0  0
  -29.9490  -13.5710   20.2750 N   0  0  0  0  0  0  0  0  0  0  0  0
  -31.7820  -14.8840   20.1150 O   0  0  0  0  0  0  0  0  0  0  0  0
  -29.7580  -15.9320   20.3520 N   0  0  0  0  0  0  0  0  0  0  0  0
  -28.7880  -15.6950   20.2120 H   0  0  0  0  0  0  0  0  0  0  0  0
  -25.2240  -13.8910   20.4960 C   0  0  0  0  0  0  0  0  0  0  0  0
  -24.1510  -13.1290   20.8710 C   0  0  0  0  0  0  0  0  0  0  0  0
  -24.6020  -11.7740   20.8480 C   0  0  0  0  0  0  0  0  0  0  0  0
  -26.2570  -12.9970   20.2610 N   0  0  0  0  0  0  0  0  0  0  0  0
  -25.8920  -11.7200   20.5400 N   0  0  0  0  0  0  0  0  0  0  0  0
  -23.8640  -10.5180   21.0410 C   0  0  0  0  0  0  0  0  0  0  0  0
  -24.2940   -9.5470   21.9710 C   0  0  0  0  0  3  0  0  0  0  0  0
  -23.5570   -8.3570   22.1540 C   0  0  0  0  0  3  0  0  0  0  0  0
  -22.3760   -8.1310   21.4070 C   0  0  0  0  0  0  0  0  0  0  0  0
  -21.9670   -9.0920   20.4660 C   0  0  0  0  0  3  0  0  0  0  0  0
  -22.7040  -10.2730   20.2810 C   0  0  0  0  0  3  0  0  0  0  0  0
  -21.6110   -6.9930   21.4990 O   0  0  0  0  0  0  0  0  0  0  0  0
  -21.5690   -6.2460   22.6480 C   0  0  0  0  0  0  0  0  0  0  0  0
  -21.1670   -6.8000   23.8830 C   0  0  0  0  0  3  0  0  0  0  0  0
  -21.0720   -5.9800   25.0250 C   0  0  0  0  0  3  0  0  0  0  0  0
  -21.3670   -4.6070   24.9330 C   0  0  0  0  0  0  0  0  0  0  0  0
  -21.7590   -4.0510   23.7030 C   0  0  0  0  0  3  0  0  0  0  0  0
  -21.8560   -4.8680   22.5640 C   0  0  0  0  0  0  0  0  0  0  0  0
  -22.2150   -4.3230   21.3760 F   0  0  0  0  0  0  0  0  0  0  0  0
  -21.2670   -3.8180   26.0290 F   0  0  0  0  0  0  0  0  0  0  0  0
  -22.7590  -13.6220   21.1380 C   0  0  0  0  0  0  0  0  0  0  0  0
  -22.0240  -12.9350   22.0070 N   0  0  0  0  0  0  0  0  0  0  0  0
  -22.3300  -14.6470   20.6120 O   0  0  0  0  0  0  0  0  0  0  0  0
  -22.3860  -12.1040   22.4530 H   0  0  0  0  0  0  0  0  0  0  0  0
  -21.0890  -13.2430   22.2310 H   0  0  0  0  0  0  0  0  0  0  0  0
  -25.3970  -15.2590   20.3040 N   0  0  0  0  0  0  0  0  0  0  0  0
  -24.6230  -15.9090   20.3910 H   0  0  0  0  0  0  0  0  0  0  0  0
  -26.2310  -15.6900   19.9290 H   0  0  0  0  0  0  0  0  0  0  0  0
  -28.7210  -23.5530   20.1310 C   0  0  0  0  0  3  0  0  0  0  0  0
  -28.7350  -22.4950   19.3340 N   0  0  0  0  0  0  0  0  0  0  0  0
  -28.4260  -25.0330   19.5080 C   0  0  0  0  0  2  0  0  0  0  0  0
  -28.3020  -26.3250   20.2930 O   0  0  0  0  0  0  0  0  0  0  0  0
  -24.6040  -31.8640   23.2420 C   0  0  0  0  0  0  0  0  0  0  0  0
  -27.2030  -27.2270   20.1890 C   0  0  0  0  0  0  0  0  0  0  0  0
  -23.4040  -30.4700   21.5980 C   0  0  0  0  0  3  0  0  0  0  0  0
  -24.8540  -28.9110   20.1710 C   0  0  0  0  0  0  0  0  0  0  0  0
  -25.9500  -30.7600   21.4290 C   0  0  0  0  0  2  0  0  0  0  0  0
  -26.0270  -29.3750   20.7770 C   0  0  0  0  0  0  0  0  0  0  0  0
  -27.2000  -28.5470   20.7750 C   0  0  0  0  0  3  0  0  0  0  0  0
  -25.9940  -26.8370   19.5680 C   0  0  0  0  0  3  0  0  0  0  0  0
  -24.8440  -27.6510   19.5580 C   0  0  0  0  0  3  0  0  0  0  0  0
  -23.6240  -29.7980   20.2170 C   0  0  0  0  0  2  0  0  0  0  0  0
  -24.6720  -31.0490   22.1470 N   0  0  0  0  0  0  0  0  0  0  0  0
  -23.5180  -32.1440   23.7720 O   0  0  0  0  0  0  0  0  0  0  0  0
  -22.7300  -29.4570   22.5560 C   0  0  0  0  0  0  0  0  0  0  0  0
  -21.4030  -29.2820   22.4230 N   0  0  0  0  0  0  0  0  0  0  0  0
  -23.4020  -28.8320   23.3820 O   0  0  0  0  0  0  0  0  0  0  0  0
  -20.9210  -29.8410   21.7320 H   0  0  0  0  0  0  0  0  0  0  0  0
  -18.0280  -28.0620   22.8910 C   0  0  0  0  0  0  0  0  0  0  0  0
  -20.5800  -28.3430   23.1900 C   0  0  0  0  0  3  0  0  0  0  0  0
  -20.6990  -26.9070   22.6270 C   0  0  0  0  0  2  0  0  0  0  0  0
  -19.6110  -26.5690   21.6000 C   0  0  0  0  0  2  0  0  0  0  0  0
  -18.2210  -26.7080   22.2280 C   0  0  0  0  0  2  0  0  0  0  0  0
  -19.1340  -28.8370   23.3300 C   0  0  0  0  0  0  0  0  0  0  0  0
  -18.9010  -30.1030   23.9100 C   0  0  0  0  0  3  0  0  0  0  0  0
  -17.5910  -30.5940   24.0590 C   0  0  0  0  0  3  0  0  0  0  0  0
  -16.4970  -29.8200   23.6370 C   0  0  0  0  0  3  0  0  0  0  0  0
  -16.7160  -28.5550   23.0590 C   0  0  0  0  0  3  0  0  0  0  0  0
  -25.8840  -32.4960   23.8710 C   0  0  0  0  0  3  0  0  0  0  0  0
  -26.3890  -31.7280   25.1560 C   0  0  1  0  0  0  0  0  0  0  0  0
  -25.2890  -31.5030   26.2190 C   0  0  0  0  0  1  0  0  0  0  0  0
  -26.9660  -30.3440   24.7770 C   0  0  0  0  0  1  0  0  0  0  0  0
  -27.5390  -32.5200   25.8210 C   0  0  0  0  0  1  0  0  0  0  0  0
  -25.5740  -33.8960   24.1960 N   0  0  0  0  0  0  0  0  0  0  0  0
  -25.9060  -34.9470   23.4350 C   0  0  0  0  0  0  0  0  0  0  0  0
  -26.5710  -34.8390   22.4020 O   0  0  0  0  0  0  0  0  0  0  0  0
  -24.9820  -34.0540   24.9980 H   0  0  0  0  0  0  0  0  0  0  0  0
  -24.1770  -36.7430   23.0900 C   0  0  0  0  0  1  0  0  0  0  0  0
  -25.4250  -36.3370   23.8920 C   0  0  0  0  0  3  0  0  0  0  0  0
  -27.5660  -37.2250   24.7000 C   0  0  0  0  0  1  0  0  0  0  0  0
  -26.4560  -37.3900   23.7660 N   0  0  0  0  0  0  0  0  0  0  0  0
  -26.0530  -38.3110   23.9120 H   0  0  0  0  0  0  0  0  0  0  0  0
  1 50  1  0
  1  9  1  0
  2  1  2  0
  3  2  1  0
  4  2  1  0
  6  5  2  0
  7  5  1  0
  8  9  2  0
  8 10  1  0
  9  6  1  0
 10  7  2  0
 11 19  1  0
 12 17  1  0
 13 14  1  0
 13 12  1  0
 15 14  1  0
 15 24  1  0
 15 16  1  0
 17 11  1  0
 17 16  1  0
 18 11  2  0
 19 10  1  0
 20 19  1  0
 21 22  2  0
 22 41  1  0
 23 22  1  0
 23 26  1  0
 24 21  1  0
 24 25  1  0
 25 23  2  0
 26 27  1  0
 27 28  2  0
 29 32  1  0
 29 28  1  0
 30 29  2  0
 31 30  1  0
 31 26  2  0
 32 33  1  0
 33 34  1  0
 34 35  2  0
 36 35  1  0
 36 40  1  0
 37 36  2  0
 38 33  2  0
 38 37  1  0
 39 38  1  0
 41 42  1  0
 42 45  1  0
 42 44  1  0
 43 41  2  0
 46 47  1  0
 46 21  1  0
 48 46  1  0
 50 49  2  0
 51 49  1  0
 51 52  1  0
 53 64  2  0
 54 52  1  0
 54 59  1  0
 55 63  1  0
 55 65  1  0
 56 62  1  0
 56 58  1  0
 57 63  1  0
 58 57  1  0
 59 58  2  0
 60 54  2  0
 61 60  1  0
 61 56  2  0
 62 55  1  0
 63 53  1  0
 65 67  2  0
 66 65  1  0
 68 66  1  0
 69 78  2  0
 69 74  1  0
 70 66  1  0
 70 74  1  0
 71 70  1  0
 72 73  1  0
 72 71  1  0
 73 69  1  0
 74 75  2  0
 75 76  1  0
 77 76  2  0
 78 77  1  0
 79 53  1  0
 79 84  1  0
 79 80  1  0
 80 83  1  1
 80 81  1  0
 82 80  1  0
 84 87  1  0
 85 89  1  0
 85 84  1  0
 86 85  2  0
 89 88  1  0
 91 89  1  0
 91 92  1  0
 91 90  1  0
M  ISO  4  11 100  19 100  51 101  52 101
M  END
>  <TORSDO>  (11) 
F 19

>  <SCORE>  (11) 
-14.322

>  <name>  (11) 
10

>  <ligand_id>  (11) 
10

>  <original_smiles>  (11) 
[H]C(=NC(c1c([H])c([H])c([H])c(N([H])C(=O)N2C([H])([H])C([H])([H])C([H])([H])C([H])(n3nc(-c4c([H])c([H])c(Oc5c([H])c([H])c(F)c([H])c5F)c([H])c4[H])c(C(=O)N([H])[H])c3N([H])[H])C2([H])[H])c1[H])=[N+]([H])[H])C([H])([H])Oc1c([H])c([H])c2c(c1[H])C([H])([H])N(C(=O)C([H])(N([H])C(=O)C([H])(N([H])C([H])([H])[H])C([H])([H])[H])C(C([H])([H])[H])(C([H])([H])[H])C([H])([H])[H])C([H])(C(=O)N([H])C1([H])c3c([H])c([H])c([H])c([H])c3C([H])([H])C([H])([H])C1([H])[H])C2([H])[H]

>  <smiles>  (11) 
[H]C(=NC(c1c([H])c([H])c([H])c(N([H])C(=O)N2C([H])([H])C([H])([H])C([H])([H])C([H])(n3nc(-c4c([H])c([H])c(Oc5c([H])c([H])c(F)c([H])c5F)c([H])c4[H])c(C(=O)N([H])[H])c3N([H])[H])C2([H])[H])c1[H])=[N+]([H])[H])C([H])([H])Oc1c([H])c([H])c2c(c1[H])C([H])([H])N(C(=O)C([H])(N([H])C(=O)C([H])(N([H])C([H])([H])[H])C([H])([H])[H])C(C([H])([H])[H])(C([H])([H])[H])C([H])([H])[H])C([H])(C(=O)N([H])C1([H])c3c([H])c([H])c([H])c([H])c3C([H])([H])C([H])([H])C1([H])[H])C2([H])[H]

$$$$
11:0:0
     RDKit          3D

 97105  0  0  1  0  0  0  0  0999 V2000
  -29.4310  -21.7300   21.3290 C   0  0  0  0  0  0  0  0  0  0  0  0
  -28.7120  -24.0960   20.9100 C   0  0  0  0  0  0  0  0  0  0  0  0
  -28.9720  -22.7760   20.5380 N   0  0  0  0  0  0  0  0  0  0  0  0
  -29.8030  -21.9360   22.4910 O   0  0  0  0  0  0  0  0  0  0  0  0
  -28.6280  -24.4110   22.1040 O   0  0  0  0  0  0  0  0  0  0  0  0
  -28.8530  -22.5670   19.5590 H   0  0  0  0  0  0  0  0  0  0  0  0
  -30.7230  -19.4800   21.2780 C   0  0  0  0  0  3  0  0  0  0  0  0
  -30.8270  -18.0580   21.1210 C   0  0  0  0  0  3  0  0  0  0  0  0
  -28.6570  -18.0610   20.1090 C   0  0  0  0  0  3  0  0  0  0  0  0
  -29.5870  -20.2490   20.8670 C   0  0  0  0  0  0  0  0  0  0  0  0
  -29.7750  -17.2910   20.5560 C   0  0  0  0  0  0  0  0  0  0  0  0
  -28.5590  -19.4880   20.2480 C   0  0  0  0  0  0  0  0  0  0  0  0
  -27.4230  -20.1070   19.8410 F   0  0  0  0  0  0  0  0  0  0  0  0
  -30.5850  -14.7830   20.2740 C   0  0  0  0  0  0  0  0  0  0  0  0
  -30.4140  -12.5470   19.1700 C   0  0  0  0  0  2  0  0  0  0  0  0
  -29.4400  -12.6730   17.9750 C   0  0  0  0  0  2  0  0  0  0  0  0
  -27.9760  -12.4950   18.4270 C   0  0  0  0  0  2  0  0  0  0  0  0
  -27.6340  -13.3320   19.6870 C   0  0  0  0  0  3  0  0  0  0  0  0
  -28.7140  -13.1640   20.7800 C   0  0  0  0  0  2  0  0  0  0  0  0
  -30.0040  -13.5410   20.1830 N   0  0  0  0  0  0  0  0  0  0  0  0
  -31.7590  -14.9640   19.9280 O   0  0  0  0  0  0  0  0  0  0  0  0
  -29.7070  -15.8150   20.5370 N   0  0  0  0  0  0  0  0  0  0  0  0
  -28.7740  -15.4550   20.6630 H   0  0  0  0  0  0  0  0  0  0  0  0
  -25.2480  -13.9160   20.4340 C   0  0  0  0  0  0  0  0  0  0  0  0
  -24.1900  -13.1380   20.8200 C   0  0  0  0  0  0  0  0  0  0  0  0
  -24.6600  -11.7900   20.7850 C   0  0  0  0  0  0  0  0  0  0  0  0
  -26.2940  -13.0420   20.1890 N   0  0  0  0  0  0  0  0  0  0  0  0
  -25.9470  -11.7580   20.4610 N   0  0  0  0  0  0  0  0  0  0  0  0
  -23.9430  -10.5230   20.9840 C   0  0  0  0  0  0  0  0  0  0  0  0
  -24.3850   -9.5680   21.9240 C   0  0  0  0  0  3  0  0  0  0  0  0
  -23.6700   -8.3650   22.1120 C   0  0  0  0  0  3  0  0  0  0  0  0
  -22.4980   -8.1110   21.3590 C   0  0  0  0  0  0  0  0  0  0  0  0
  -22.0760   -9.0570   20.4090 C   0  0  0  0  0  3  0  0  0  0  0  0
  -22.7910  -10.2510   20.2200 C   0  0  0  0  0  3  0  0  0  0  0  0
  -21.7540   -6.9600   21.4550 O   0  0  0  0  0  0  0  0  0  0  0  0
  -21.7040   -6.2310   22.6170 C   0  0  0  0  0  0  0  0  0  0  0  0
  -21.2480   -6.7930   23.8300 C   0  0  0  0  0  3  0  0  0  0  0  0
  -21.1460   -5.9880   24.9820 C   0  0  0  0  0  3  0  0  0  0  0  0
  -21.4910   -4.6260   24.9240 C   0  0  0  0  0  0  0  0  0  0  0  0
  -21.9400   -4.0640   23.7150 C   0  0  0  0  0  3  0  0  0  0  0  0
  -22.0430   -4.8640   22.5650 C   0  0  0  0  0  0  0  0  0  0  0  0
  -22.4570   -4.3140   21.3990 F   0  0  0  0  0  0  0  0  0  0  0  0
  -21.3860   -3.8500   26.0290 F   0  0  0  0  0  0  0  0  0  0  0  0
  -22.7940  -13.6070   21.1060 C   0  0  0  0  0  0  0  0  0  0  0  0
  -22.0780  -12.9060   21.9780 N   0  0  0  0  0  0  0  0  0  0  0  0
  -22.3450  -14.6310   20.5910 O   0  0  0  0  0  0  0  0  0  0  0  0
  -22.4550  -12.0790   22.4160 H   0  0  0  0  0  0  0  0  0  0  0  0
  -21.1400  -13.2000   22.2120 H   0  0  0  0  0  0  0  0  0  0  0  0
  -25.4010  -15.2860   20.2460 N   0  0  0  0  0  0  0  0  0  0  0  0
  -24.6200  -15.9280   20.3420 H   0  0  0  0  0  0  0  0  0  0  0  0
  -26.2120  -15.7150   19.8220 H   0  0  0  0  0  0  0  0  0  0  0  0
  -28.5480  -25.1840   19.8690 C   0  0  0  0  0  0  0  0  0  0  0  0
  -28.5590  -24.9370   18.5310 C   0  0  0  0  0  0  0  0  0  0  0  0
  -28.6450  -23.6110   17.7830 C   0  0  0  0  0  1  0  0  0  0  0  0
  -28.5080  -25.9350   17.6340 O   0  0  0  0  0  0  0  0  0  0  0  0
  -28.5660  -25.5570   16.7660 H   0  0  0  0  0  0  0  0  0  0  0  0
  -28.4680  -26.5490   20.2790 O   0  0  0  0  0  0  0  0  0  0  0  0
  -24.6220  -31.9100   23.2330 C   0  0  0  0  0  0  0  0  0  0  0  0
  -27.3140  -27.3620   20.2080 C   0  0  0  0  0  0  0  0  0  0  0  0
  -23.4470  -30.4960   21.5850 C   0  0  0  0  0  3  0  0  0  0  0  0
  -24.9240  -28.9570   20.1730 C   0  0  0  0  0  0  0  0  0  0  0  0
  -25.9830  -30.8430   21.4180 C   0  0  0  0  0  2  0  0  0  0  0  0
  -26.0830  -29.4610   20.7760 C   0  0  0  0  0  0  0  0  0  0  0  0
  -27.2760  -28.6740   20.7820 C   0  0  0  0  0  3  0  0  0  0  0  0
  -26.1220  -26.9070   19.5990 C   0  0  0  0  0  3  0  0  0  0  0  0
  -24.9480  -27.6870   19.5740 C   0  0  0  0  0  3  0  0  0  0  0  0
  -23.6790  -29.8220   20.2070 C   0  0  0  0  0  2  0  0  0  0  0  0
  -24.7030  -31.1020   22.1360 N   0  0  0  0  0  0  0  0  0  0  0  0
  -23.5320  -32.1770   23.7590 O   0  0  0  0  0  0  0  0  0  0  0  0
  -22.7870  -29.4740   22.5410 C   0  0  0  0  0  0  0  0  0  0  0  0
  -21.4640  -29.2790   22.4020 N   0  0  0  0  0  0  0  0  0  0  0  0
  -23.4640  -28.8590   23.3690 O   0  0  0  0  0  0  0  0  0  0  0  0
  -20.9740  -29.8320   21.7120 H   0  0  0  0  0  0  0  0  0  0  0  0
  -18.0980  -28.0280   22.8560 C   0  0  0  0  0  0  0  0  0  0  0  0
  -20.6480  -28.3320   23.1640 C   0  0  0  0  0  3  0  0  0  0  0  0
  -20.7820  -26.8980   22.6020 C   0  0  0  0  0  2  0  0  0  0  0  0
  -19.7020  -26.5520   21.5710 C   0  0  0  0  0  2  0  0  0  0  0  0
  -18.3080  -26.6770   22.1930 C   0  0  0  0  0  2  0  0  0  0  0  0
  -19.1980  -28.8120   23.2970 C   0  0  0  0  0  0  0  0  0  0  0  0
  -18.9490  -30.0750   23.8770 C   0  0  0  0  0  3  0  0  0  0  0  0
  -17.6330  -30.5550   24.0200 C   0  0  0  0  0  3  0  0  0  0  0  0
  -16.5490  -29.7700   23.5920 C   0  0  0  0  0  3  0  0  0  0  0  0
  -16.7820  -28.5070   23.0170 C   0  0  0  0  0  3  0  0  0  0  0  0
  -25.8910  -32.5570   23.8660 C   0  0  0  0  0  3  0  0  0  0  0  0
  -26.4000  -31.7980   25.1540 C   0  0  1  0  0  0  0  0  0  0  0  0
  -25.2980  -31.5570   26.2130 C   0  0  0  0  0  1  0  0  0  0  0  0
  -26.9970  -30.4230   24.7770 C   0  0  0  0  0  1  0  0  0  0  0  0
  -27.5350  -32.6070   25.8250 C   0  0  0  0  0  1  0  0  0  0  0  0
  -25.5640  -33.9560   24.1850 N   0  0  0  0  0  0  0  0  0  0  0  0
  -25.9030  -35.0090   23.4280 C   0  0  0  0  0  0  0  0  0  0  0  0
  -26.5910  -34.9060   22.4080 O   0  0  0  0  0  0  0  0  0  0  0  0
  -24.9510  -34.1080   24.9710 H   0  0  0  0  0  0  0  0  0  0  0  0
  -24.1780  -36.7970   23.0300 C   0  0  0  0  0  1  0  0  0  0  0  0
  -25.4000  -36.3970   23.8720 C   0  0  0  0  0  3  0  0  0  0  0  0
  -27.5070  -37.2930   24.7560 C   0  0  0  0  0  1  0  0  0  0  0  0
  -26.4310  -37.4540   23.7830 N   0  0  0  0  0  0  0  0  0  0  0  0
  -26.0170  -38.3720   23.9150 H   0  0  0  0  0  0  0  0  0  0  0  0
  1  4  2  0
  2  5  2  0
  3  2  1  0
  3  1  1  0
  6  3  1  0
  8  7  1  0
  9 12  2  0
  9 11  1  0
 10  7  2  0
 10  1  1  0
 11  8  2  0
 12 10  1  0
 13 12  1  0
 14 22  1  0
 15 20  1  0
 16 17  1  0
 16 15  1  0
 18 17  1  0
 18 27  1  0
 18 19  1  0
 20 14  1  0
 20 19  1  0
 21 14  2  0
 22 11  1  0
 22 23  1  0
 24 25  2  0
 25 44  1  0
 26 25  1  0
 26 29  1  0
 27 24  1  0
 27 28  1  0
 28 26  2  0
 29 30  1  0
 30 31  2  0
 32 35  1  0
 32 31  1  0
 33 32  2  0
 34 33  1  0
 34 29  2  0
 35 36  1  0
 36 37  1  0
 37 38  2  0
 39 38  1  0
 39 43  1  0
 40 39  2  0
 41 36  2  0
 41 40  1  0
 42 41  1  0
 44 45  1  0
 45 48  1  0
 45 47  1  0
 46 44  2  0
 49 50  1  0
 49 24  1  0
 51 49  1  0
 52 57  1  0
 52  2  1  0
 53 52  2  0
 54 53  1  0
 55 53  1  0
 56 55  1  0
 58 69  2  0
 59 57  1  0
 59 64  1  0
 60 68  1  0
 60 70  1  0
 61 67  1  0
 61 63  1  0
 62 68  1  0
 63 64  2  0
 63 62  1  0
 65 59  2  0
 66 65  1  0
 66 61  2  0
 67 60  1  0
 68 58  1  0
 70 72  2  0
 71 70  1  0
 73 71  1  0
 74 83  2  0
 74 79  1  0
 75 71  1  0
 75 79  1  0
 76 75  1  0
 77 78  1  0
 77 76  1  0
 78 74  1  0
 79 80  2  0
 80 81  1  0
 82 81  2  0
 83 82  1  0
 84 58  1  0
 84 89  1  0
 84 85  1  0
 85 88  1  1
 85 86  1  0
 87 85  1  0
 89 92  1  0
 90 94  1  0
 90 89  1  0
 91 90  2  0
 94 93  1  0
 96 94  1  0
 96 97  1  0
 96 95  1  0
M  ISO  4  14 100  22 100  52 101  57 101
M  END
>  <TORSDO>  (12) 
F 19

>  <SCORE>  (12) 
-15.049

>  <name>  (12) 
11

>  <ligand_id>  (12) 
11

>  <original_smiles>  (12) 
[H]OC(=C(Oc1c([H])c([H])c2c(c1[H])C([H])([H])N(C(=O)C([H])(N([H])C(=O)C([H])(N([H])C([H])([H])[H])C([H])([H])[H])C(C([H])([H])[H])(C([H])([H])[H])C([H])([H])[H])C([H])(C(=O)N([H])C1([H])c3c([H])c([H])c([H])c([H])c3C([H])([H])C([H])([H])C1([H])[H])C2([H])[H])C(=O)N([H])C(=O)c1c([H])c([H])c(N([H])C(=O)N2C([H])([H])C([H])([H])C([H])([H])C([H])(n3nc(-c4c([H])c([H])c(Oc5c([H])c([H])c(F)c([H])c5F)c([H])c4[H])c(C(=O)N([H])[H])c3N([H])[H])C2([H])[H])c([H])c1F)C([H])([H])[H]

>  <smiles>  (12) 
[H]OC(=C(Oc1c([H])c([H])c2c(c1[H])C([H])([H])N(C(=O)C([H])(N([H])C(=O)C([H])(N([H])C([H])([H])[H])C([H])([H])[H])C(C([H])([H])[H])(C([H])([H])[H])C([H])([H])[H])C([H])(C(=O)N([H])C1([H])c3c([H])c([H])c([H])c([H])c3C([H])([H])C([H])([H])C1([H])[H])C2([H])[H])C(=O)N([H])C(=O)c1c([H])c([H])c(N([H])C(=O)N2C([H])([H])C([H])([H])C([H])([H])C([H])(n3nc(-c4c([H])c([H])c(Oc5c([H])c([H])c(F)c([H])c5F)c([H])c4[H])c(C(=O)N([H])[H])c3N([H])[H])C2([H])[H])c([H])c1F)C([H])([H])[H]

$$$$
12:0:0
     RDKit          3D

 91 99  0  0  1  0  0  0  0  0999 V2000
  -29.6710  -21.8170   20.7510 C   0  0  0  0  0  0  0  0  0  0  0  0
  -30.5300  -22.2430   21.5280 O   0  0  0  0  0  0  0  0  0  0  0  0
  -28.5470  -19.4520   20.7420 C   0  0  0  0  0  3  0  0  0  0  0  0
  -28.6160  -18.0200   20.7090 C   0  0  0  0  0  3  0  0  0  0  0  0
  -30.9500  -18.1160   20.1900 C   0  0  0  0  0  3  0  0  0  0  0  0
  -29.6850  -20.2740   20.5170 C   0  0  0  0  0  0  0  0  0  0  0  0
  -29.8170  -17.2920   20.4530 C   0  0  0  0  0  0  0  0  0  0  0  0
  -30.8860  -19.5540   20.2230 C   0  0  0  0  0  0  0  0  0  0  0  0
  -32.0300  -20.2450   19.9970 F   0  0  0  0  0  0  0  0  0  0  0  0
  -30.6040  -14.7690   20.1040 C   0  0  0  0  0  0  0  0  0  0  0  0
  -30.3910  -12.5220   19.0260 C   0  0  0  0  0  2  0  0  0  0  0  0
  -29.3840  -12.6280   17.8580 C   0  0  0  0  0  2  0  0  0  0  0  0
  -27.9360  -12.4440   18.3580 C   0  0  0  0  0  2  0  0  0  0  0  0
  -27.6280  -13.3040   19.6110 C   0  0  0  0  0  3  0  0  0  0  0  0
  -28.7390  -13.1520   20.6740 C   0  0  0  0  0  2  0  0  0  0  0  0
  -30.0120  -13.5280   20.0410 N   0  0  0  0  0  0  0  0  0  0  0  0
  -31.7540  -14.9380   19.6850 O   0  0  0  0  0  0  0  0  0  0  0  0
  -29.7730  -15.8090   20.4850 N   0  0  0  0  0  0  0  0  0  0  0  0
  -28.8850  -15.4450   20.7950 H   0  0  0  0  0  0  0  0  0  0  0  0
  -25.2830  -13.8970   20.4730 C   0  0  0  0  0  0  0  0  0  0  0  0
  -24.2300  -13.1220   20.8770 C   0  0  0  0  0  0  0  0  0  0  0  0
  -24.6790  -11.7690   20.7840 C   0  0  0  0  0  0  0  0  0  0  0  0
  -26.3060  -13.0160   20.1580 N   0  0  0  0  0  0  0  0  0  0  0  0
  -25.9510  -11.7300   20.4060 N   0  0  0  0  0  0  0  0  0  0  0  0
  -23.9540  -10.5070   20.9720 C   0  0  0  0  0  0  0  0  0  0  0  0
  -24.3930   -9.5340   21.8980 C   0  0  0  0  0  3  0  0  0  0  0  0
  -23.6680   -8.3370   22.0740 C   0  0  0  0  0  3  0  0  0  0  0  0
  -22.4910   -8.1030   21.3250 C   0  0  0  0  0  0  0  0  0  0  0  0
  -22.0720   -9.0630   20.3880 C   0  0  0  0  0  3  0  0  0  0  0  0
  -22.7970  -10.2520   20.2100 C   0  0  0  0  0  3  0  0  0  0  0  0
  -21.7370   -6.9570   21.4120 O   0  0  0  0  0  0  0  0  0  0  0  0
  -21.6460   -6.2400   22.5780 C   0  0  0  0  0  0  0  0  0  0  0  0
  -21.1530   -6.8150   23.7690 C   0  0  0  0  0  3  0  0  0  0  0  0
  -21.0120   -6.0240   24.9270 C   0  0  0  0  0  3  0  0  0  0  0  0
  -21.3550   -4.6600   24.8940 C   0  0  0  0  0  0  0  0  0  0  0  0
  -21.8420   -4.0840   23.7080 C   0  0  0  0  0  3  0  0  0  0  0  0
  -21.9840   -4.8720   22.5520 C   0  0  0  0  0  0  0  0  0  0  0  0
  -22.4330   -4.3080   21.4050 F   0  0  0  0  0  0  0  0  0  0  0  0
  -21.2130   -3.8970   26.0040 F   0  0  0  0  0  0  0  0  0  0  0  0
  -22.8530  -13.6000   21.2330 C   0  0  0  0  0  0  0  0  0  0  0  0
  -22.1630  -12.8800   22.1100 N   0  0  0  0  0  0  0  0  0  0  0  0
  -22.3990  -14.6450   20.7690 O   0  0  0  0  0  0  0  0  0  0  0  0
  -22.5450  -12.0360   22.5090 H   0  0  0  0  0  0  0  0  0  0  0  0
  -21.2400  -13.1810   22.3910 H   0  0  0  0  0  0  0  0  0  0  0  0
  -25.4500  -15.2720   20.3240 N   0  0  0  0  0  0  0  0  0  0  0  0
  -24.6900  -15.9240   20.4840 H   0  0  0  0  0  0  0  0  0  0  0  0
  -26.2650  -15.7100   19.9140 H   0  0  0  0  0  0  0  0  0  0  0  0
  -28.5920  -23.8850   20.3190 C   0  0  0  0  0  2  0  0  0  0  0  0
  -28.0920  -25.1030   20.6150 C   0  0  0  0  0  2  0  0  0  0  0  0
  -28.7490  -22.6690   20.0800 N   0  0  0  0  0  2  0  0  0  0  0  0
  -28.3480  -26.4350   20.1890 O   0  0  0  0  0  0  0  0  0  0  0  0
  -24.6240  -31.9030   23.1670 C   0  0  0  0  0  0  0  0  0  0  0  0
  -27.2570  -27.3250   20.1500 C   0  0  0  0  0  0  0  0  0  0  0  0
  -23.4270  -30.4850   21.5380 C   0  0  0  0  0  3  0  0  0  0  0  0
  -24.8870  -28.9320   20.1180 C   0  0  0  0  0  0  0  0  0  0  0  0
  -25.9640  -30.8160   21.3480 C   0  0  0  0  0  2  0  0  0  0  0  0
  -26.0540  -29.4290   20.7150 C   0  0  0  0  0  0  0  0  0  0  0  0
  -27.2440  -28.6370   20.7220 C   0  0  0  0  0  3  0  0  0  0  0  0
  -26.0720  -26.8870   19.5210 C   0  0  0  0  0  3  0  0  0  0  0  0
  -24.8980  -27.6660   19.5110 C   0  0  0  0  0  3  0  0  0  0  0  0
  -23.6440  -29.8010   20.1630 C   0  0  0  0  0  2  0  0  0  0  0  0
  -24.6910  -31.0860   22.0740 N   0  0  0  0  0  0  0  0  0  0  0  0
  -23.5400  -32.1780   23.7020 O   0  0  0  0  0  0  0  0  0  0  0  0
  -22.7700  -29.4730   22.5090 C   0  0  0  0  0  0  0  0  0  0  0  0
  -21.4430  -29.2950   22.3920 N   0  0  0  0  0  0  0  0  0  0  0  0
  -23.4540  -28.8510   23.3250 O   0  0  0  0  0  0  0  0  0  0  0  0
  -20.9500  -29.8510   21.7060 H   0  0  0  0  0  0  0  0  0  0  0  0
  -18.0650  -28.1160   22.9340 C   0  0  0  0  0  0  0  0  0  0  0  0
  -20.6290  -28.3600   23.1700 C   0  0  0  0  0  3  0  0  0  0  0  0
  -20.7120  -26.9280   22.5910 C   0  0  0  0  0  2  0  0  0  0  0  0
  -19.5960  -26.6170   21.5900 C   0  0  0  0  0  2  0  0  0  0  0  0
  -18.2240  -26.7670   22.2520 C   0  0  0  0  0  2  0  0  0  0  0  0
  -19.1940  -28.8700   23.3510 C   0  0  0  0  0  0  0  0  0  0  0  0
  -18.9900  -30.1320   23.9510 C   0  0  0  0  0  3  0  0  0  0  0  0
  -17.6910  -30.6410   24.1350 C   0  0  0  0  0  3  0  0  0  0  0  0
  -16.5760  -29.8850   23.7320 C   0  0  0  0  0  3  0  0  0  0  0  0
  -16.7650  -28.6230   23.1390 C   0  0  0  0  0  3  0  0  0  0  0  0
  -25.9050  -32.5460   23.7840 C   0  0  0  0  0  3  0  0  0  0  0  0
  -25.5820  -33.9400   24.1250 N   0  0  0  0  0  0  0  0  0  0  0  0
  -25.9070  -35.0020   23.3770 C   0  0  0  0  0  0  0  0  0  0  0  0
  -26.5790  -34.9120   22.3450 O   0  0  0  0  0  0  0  0  0  0  0  0
  -24.9810  -34.0820   24.9230 H   0  0  0  0  0  0  0  0  0  0  0  0
  -24.1750  -36.7930   23.0260 C   0  0  0  0  0  1  0  0  0  0  0  0
  -25.4090  -36.3840   23.8450 C   0  0  0  0  0  3  0  0  0  0  0  0
  -27.5320  -37.2670   24.7100 C   0  0  0  0  0  1  0  0  0  0  0  0
  -26.4400  -37.4420   23.7560 N   0  0  0  0  0  0  0  0  0  0  0  0
  -26.0300  -38.3600   23.9080 H   0  0  0  0  0  0  0  0  0  0  0  0
  -26.4360  -31.7720   25.0510 C   0  0  1  0  0  0  0  0  0  0  0  0
  -25.3520  -31.5180   26.1240 C   0  0  0  0  0  1  0  0  0  0  0  0
  -27.0310  -30.4040   24.6460 C   0  0  0  0  0  1  0  0  0  0  0  0
  -27.5830  -32.5750   25.7100 C   0  0  0  0  0  1  0  0  0  0  0  0
  1  2  2  0
  4  3  1  0
  5  8  2  0
  5  7  1  0
  6  3  2  0
  6  1  1  0
  7 18  1  0
  7  4  2  0
  8  6  1  0
  9  8  1  0
 10 18  1  0
 11 16  1  0
 12 13  1  0
 12 11  1  0
 14 13  1  0
 14 23  1  0
 14 15  1  0
 16 10  1  0
 16 15  1  0
 17 10  2  0
 18 19  1  0
 20 21  2  0
 21 40  1  0
 22 21  1  0
 22 25  1  0
 23 24  1  0
 23 20  1  0
 24 22  2  0
 25 26  1  0
 26 27  2  0
 28 31  1  0
 28 27  1  0
 29 28  2  0
 30 29  1  0
 30 25  2  0
 31 32  1  0
 32 33  1  0
 33 34  2  0
 35 34  1  0
 35 39  1  0
 36 35  2  0
 37 32  2  0
 37 36  1  0
 38 37  1  0
 40 41  1  0
 41 44  1  0
 41 43  1  0
 42 40  2  0
 45 20  1  0
 45 46  1  0
 47 45  1  0
 48 49  1  0
 50 48  1  0
 50  1  1  0
 51 49  1  0
 52 63  2  0
 53 51  1  0
 53 58  1  0
 54 62  1  0
 54 64  1  0
 55 61  1  0
 55 57  1  0
 56 62  1  0
 57 58  2  0
 57 56  1  0
 59 53  2  0
 60 59  1  0
 60 55  2  0
 61 54  1  0
 62 52  1  0
 64 66  2  0
 65 64  1  0
 67 65  1  0
 68 77  2  0
 68 73  1  0
 69 65  1  0
 69 73  1  0
 70 69  1  0
 71 72  1  0
 71 70  1  0
 72 68  1  0
 73 74  2  0
 74 75  1  0
 76 75  2  0
 77 76  1  0
 78 52  1  0
 78 79  1  0
 78 88  1  0
 79 82  1  0
 80 84  1  0
 80 79  1  0
 81 80  2  0
 84 83  1  0
 86 84  1  0
 86 87  1  0
 86 85  1  0
 88 91  1  1
 88 89  1  0
 90 88  1  0
M  ISO  4  10 100  18 100  49 101  51 101
M  END
>  <TORSDO>  (13) 
F 18

>  <SCORE>  (13) 
-14.601

>  <name>  (13) 
12

>  <ligand_id>  (13) 
12

>  <original_smiles>  (13) 
[H]C(=C=NC(=O)c1c([H])c([H])c(N([H])C(=O)N2C([H])([H])C([H])([H])C([H])([H])C([H])(n3nc(-c4c([H])c([H])c(Oc5c([H])c([H])c(F)c([H])c5F)c([H])c4[H])c(C(=O)N([H])[H])c3N([H])[H])C2([H])[H])c([H])c1F)Oc1c([H])c([H])c2c(c1[H])C([H])([H])N(C(=O)C([H])(N([H])C(=O)C([H])(N([H])C([H])([H])[H])C([H])([H])[H])C(C([H])([H])[H])(C([H])([H])[H])C([H])([H])[H])C([H])(C(=O)N([H])C1([H])c3c([H])c([H])c([H])c([H])c3C([H])([H])C([H])([H])C1([H])[H])C2([H])[H]

>  <smiles>  (13) 
[H]C(=C=NC(=O)c1c([H])c([H])c(N([H])C(=O)N2C([H])([H])C([H])([H])C([H])([H])C([H])(n3nc(-c4c([H])c([H])c(Oc5c([H])c([H])c(F)c([H])c5F)c([H])c4[H])c(C(=O)N([H])[H])c3N([H])[H])C2([H])[H])c([H])c1F)Oc1c([H])c([H])c2c(c1[H])C([H])([H])N(C(=O)C([H])(N([H])C(=O)C([H])(N([H])C([H])([H])[H])C([H])([H])[H])C(C([H])([H])[H])(C([H])([H])[H])C([H])([H])[H])C([H])(C(=O)N([H])C1([H])c3c([H])c([H])c([H])c([H])c3C([H])([H])C([H])([H])C1([H])[H])C2([H])[H]

$$$$
13:0:0
     RDKit          3D

 92101  0  0  1  0  0  0  0  0999 V2000
  -28.9220  -24.2680   20.8570 C   0  0  0  0  0  0  0  0  0  0  0  0
  -28.3770  -25.5190   20.9510 C   0  0  0  0  0  3  0  0  0  0  0  0
  -29.7080  -23.6750   19.6820 C   0  0  0  0  0  2  0  0  0  0  0  0
  -28.8790  -23.3250   22.0540 C   0  0  0  0  0  2  0  0  0  0  0  0
  -29.5120  -22.1310   19.4440 C   0  0  0  0  0  2  0  0  0  0  0  0
  -28.5590  -21.8580   21.6940 C   0  0  0  0  0  2  0  0  0  0  0  0
  -29.4680  -21.3200   20.6760 N   0  0  0  0  0  0  0  0  0  0  0  0
  -30.7570  -19.2720   20.0310 C   0  0  0  0  0  3  0  0  0  0  0  0
  -28.6340  -19.0150   21.1360 C   0  0  0  0  0  3  0  0  0  0  0  0
  -30.9350  -17.8560   20.0340 C   0  0  0  0  0  3  0  0  0  0  0  0
  -28.8060  -17.6090   21.1370 C   0  0  0  0  0  3  0  0  0  0  0  0
  -29.6100  -19.8940   20.5990 C   0  0  0  0  0  0  0  0  0  0  0  0
  -29.9600  -16.9940   20.5990 C   0  0  0  0  0  0  0  0  0  0  0  0
  -30.7650  -14.6040   20.0380 C   0  0  0  0  0  0  0  0  0  0  0  0
  -30.4810  -12.4280   18.8780 C   0  0  0  0  0  2  0  0  0  0  0  0
  -29.4360  -12.6200   17.7550 C   0  0  0  0  0  2  0  0  0  0  0  0
  -27.9980  -12.4550   18.2930 C   0  0  0  0  0  2  0  0  0  0  0  0
  -27.7510  -13.2580   19.5960 C   0  0  0  0  0  3  0  0  0  0  0  0
  -28.8920  -13.0100   20.6100 C   0  0  0  0  0  2  0  0  0  0  0  0
  -30.1610  -13.3800   19.9560 N   0  0  0  0  0  0  0  0  0  0  0  0
  -31.8510  -14.8390   19.4980 O   0  0  0  0  0  0  0  0  0  0  0  0
  -30.0180  -15.5490   20.6680 N   0  0  0  0  0  0  0  0  0  0  0  0
  -29.2340  -15.1320   21.1470 H   0  0  0  0  0  0  0  0  0  0  0  0
  -25.4290  -13.8470   20.5380 C   0  0  0  0  0  0  0  0  0  0  0  0
  -24.3830  -13.0660   20.9480 C   0  0  0  0  0  0  0  0  0  0  0  0
  -24.8200  -11.7130   20.8000 C   0  0  0  0  0  0  0  0  0  0  0  0
  -26.4370  -12.9700   20.1690 N   0  0  0  0  0  0  0  0  0  0  0  0
  -26.0790  -11.6790   20.3820 N   0  0  0  0  0  0  0  0  0  0  0  0
  -24.0930  -10.4500   20.9770 C   0  0  0  0  0  0  0  0  0  0  0  0
  -24.5320   -9.4690   21.8940 C   0  0  0  0  0  3  0  0  0  0  0  0
  -23.8060   -8.2690   22.0590 C   0  0  0  0  0  3  0  0  0  0  0  0
  -22.6300   -8.0420   21.3070 C   0  0  0  0  0  0  0  0  0  0  0  0
  -22.2090   -9.0120   20.3800 C   0  0  0  0  0  3  0  0  0  0  0  0
  -22.9350  -10.2030   20.2130 C   0  0  0  0  0  3  0  0  0  0  0  0
  -21.8760   -6.8950   21.3830 O   0  0  0  0  0  0  0  0  0  0  0  0
  -21.7530   -6.1910   22.5540 C   0  0  0  0  0  0  0  0  0  0  0  0
  -21.2450   -6.7830   23.7300 C   0  0  0  0  0  3  0  0  0  0  0  0
  -21.0710   -6.0040   24.8910 C   0  0  0  0  0  3  0  0  0  0  0  0
  -21.3940   -4.6340   24.8760 C   0  0  0  0  0  0  0  0  0  0  0  0
  -21.8940   -4.0410   23.7040 C   0  0  0  0  0  3  0  0  0  0  0  0
  -22.0700   -4.8170   22.5450 C   0  0  0  0  0  0  0  0  0  0  0  0
  -22.5330   -4.2360   21.4120 F   0  0  0  0  0  0  0  0  0  0  0  0
  -21.2180   -3.8840   25.9890 F   0  0  0  0  0  0  0  0  0  0  0  0
  -23.0210  -13.5400   21.3660 C   0  0  0  0  0  0  0  0  0  0  0  0
  -22.3590  -12.8030   22.2500 N   0  0  0  0  0  0  0  0  0  0  0  0
  -22.5560  -14.5970   20.9430 O   0  0  0  0  0  0  0  0  0  0  0  0
  -22.7510  -11.9450   22.6130 H   0  0  0  0  0  0  0  0  0  0  0  0
  -21.4480  -13.1000   22.5710 H   0  0  0  0  0  0  0  0  0  0  0  0
  -25.5970  -15.2250   20.4280 N   0  0  0  0  0  0  0  0  0  0  0  0
  -24.8460  -15.8730   20.6370 H   0  0  0  0  0  0  0  0  0  0  0  0
  -26.4100  -15.6780   20.0300 H   0  0  0  0  0  0  0  0  0  0  0  0
  -28.4200  -26.5690   20.0420 O   0  0  0  0  0  0  0  0  0  0  0  0
  -24.5550  -31.7880   23.1200 C   0  0  0  0  0  0  0  0  0  0  0  0
  -27.2950  -27.3810   20.0260 C   0  0  0  0  0  0  0  0  0  0  0  0
  -23.3890  -30.3750   21.4620 C   0  0  0  0  0  3  0  0  0  0  0  0
  -24.8810  -28.8770   20.0310 C   0  0  0  0  0  0  0  0  0  0  0  0
  -25.9130  -30.7750   21.2840 C   0  0  0  0  0  2  0  0  0  0  0  0
  -26.0310  -29.4090   20.6310 C   0  0  0  0  0  0  0  0  0  0  0  0
  -27.2450  -28.6680   20.6240 C   0  0  0  0  0  3  0  0  0  0  0  0
  -26.1280  -26.8780   19.4170 C   0  0  0  0  0  3  0  0  0  0  0  0
  -24.9270  -27.6130   19.4180 C   0  0  0  0  0  3  0  0  0  0  0  0
  -23.6200  -29.7130   20.0790 C   0  0  0  0  0  2  0  0  0  0  0  0
  -24.6370  -30.9950   22.0140 N   0  0  0  0  0  0  0  0  0  0  0  0
  -23.4650  -32.0350   23.6550 O   0  0  0  0  0  0  0  0  0  0  0  0
  -22.7490  -29.3350   22.4120 C   0  0  0  0  0  0  0  0  0  0  0  0
  -21.4290  -29.1280   22.2770 N   0  0  0  0  0  0  0  0  0  0  0  0
  -23.4400  -28.7190   23.2280 O   0  0  0  0  0  0  0  0  0  0  0  0
  -20.9320  -29.6790   21.5900 H   0  0  0  0  0  0  0  0  0  0  0  0
  -18.0780  -27.8490   22.7380 C   0  0  0  0  0  0  0  0  0  0  0  0
  -20.6270  -28.1680   23.0360 C   0  0  0  0  0  3  0  0  0  0  0  0
  -20.7680  -26.7420   22.4550 C   0  0  0  0  0  2  0  0  0  0  0  0
  -19.6830  -26.3970   21.4290 C   0  0  0  0  0  2  0  0  0  0  0  0
  -18.2930  -26.5080   22.0600 C   0  0  0  0  0  2  0  0  0  0  0  0
  -19.1740  -28.6370   23.1820 C   0  0  0  0  0  0  0  0  0  0  0  0
  -18.9180  -29.8920   23.7750 C   0  0  0  0  0  3  0  0  0  0  0  0
  -17.5990  -30.3600   23.9290 C   0  0  0  0  0  3  0  0  0  0  0  0
  -16.5180  -29.5700   23.5010 C   0  0  0  0  0  3  0  0  0  0  0  0
  -16.7580  -28.3170   22.9100 C   0  0  0  0  0  3  0  0  0  0  0  0
  -25.8230  -32.4400   23.7540 C   0  0  0  0  0  3  0  0  0  0  0  0
  -25.4810  -33.8250   24.1050 N   0  0  0  0  0  0  0  0  0  0  0  0
  -25.7890  -34.8960   23.3620 C   0  0  0  0  0  0  0  0  0  0  0  0
  -26.4600  -34.8230   22.3290 O   0  0  0  0  0  0  0  0  0  0  0  0
  -24.8790  -33.9530   24.9050 H   0  0  0  0  0  0  0  0  0  0  0  0
  -24.0180  -36.6520   23.0330 C   0  0  0  0  0  1  0  0  0  0  0  0
  -25.2680  -36.2660   23.8390 C   0  0  0  0  0  3  0  0  0  0  0  0
  -27.3810  -37.1890   24.6840 C   0  0  0  0  0  1  0  0  0  0  0  0
  -26.2750  -37.3450   23.7420 N   0  0  0  0  0  0  0  0  0  0  0  0
  -25.8470  -38.2520   23.9030 H   0  0  0  0  0  0  0  0  0  0  0  0
  -26.3580  -31.6620   25.0180 C   0  0  1  0  0  0  0  0  0  0  0  0
  -25.2710  -31.3820   26.0840 C   0  0  0  0  0  1  0  0  0  0  0  0
  -26.9730  -30.3040   24.6040 C   0  0  0  0  0  1  0  0  0  0  0  0
  -27.4920  -32.4710   25.6910 C   0  0  0  0  0  1  0  0  0  0  0  0
  1  2  2  0
  1  4  1  0
  3  1  1  0
  5  3  1  0
  5  7  1  0
  6  4  1  0
  7  6  1  0
  8 10  2  0
  8 12  1  0
  9 11  1  0
 10 13  1  0
 12  7  1  0
 12  9  2  0
 13 22  1  0
 13 11  2  0
 14 22  1  0
 15 20  1  0
 16 17  1  0
 16 15  1  0
 18 17  1  0
 18 27  1  0
 18 19  1  0
 20 14  1  0
 20 19  1  0
 21 14  2  0
 22 23  1  0
 24 25  2  0
 25 44  1  0
 26 25  1  0
 26 29  1  0
 27 28  1  0
 27 24  1  0
 28 26  2  0
 29 30  1  0
 30 31  2  0
 32 35  1  0
 32 31  1  0
 33 32  2  0
 34 33  1  0
 34 29  2  0
 35 36  1  0
 36 37  1  0
 37 38  2  0
 39 38  1  0
 39 43  1  0
 40 39  2  0
 41 36  2  0
 41 40  1  0
 42 41  1  0
 44 45  1  0
 45 48  1  0
 45 47  1  0
 46 44  2  0
 49 24  1  0
 49 50  1  0
 51 49  1  0
 52  2  1  0
 53 64  2  0
 54 52  1  0
 54 59  1  0
 55 63  1  0
 55 65  1  0
 56 62  1  0
 56 58  1  0
 57 63  1  0
 58 57  1  0
 59 58  2  0
 60 61  1  0
 60 54  2  0
 61 56  2  0
 62 55  1  0
 63 53  1  0
 65 67  2  0
 66 65  1  0
 68 66  1  0
 69 78  2  0
 69 74  1  0
 70 66  1  0
 70 74  1  0
 71 70  1  0
 72 73  1  0
 72 71  1  0
 73 69  1  0
 74 75  2  0
 75 76  1  0
 77 76  2  0
 78 77  1  0
 79 53  1  0
 79 80  1  0
 79 89  1  0
 80 83  1  0
 81 85  1  0
 81 80  1  0
 82 81  2  0
 85 84  1  0
 87 85  1  0
 87 88  1  0
 87 86  1  0
 89 92  1  1
 89 90  1  0
 91 89  1  0
M  ISO  4   2 101  14 100  22 100  52 101
M  END
>  <TORSDO>  (14) 
F 17

>  <SCORE>  (14) 
-13.988

>  <name>  (14) 
13

>  <ligand_id>  (14) 
13

>  <original_smiles>  (14) 
[H]C(Oc1c([H])c([H])c2c(c1[H])C([H])([H])N(C(=O)C([H])(N([H])C(=O)C([H])(N([H])C([H])([H])[H])C([H])([H])[H])C(C([H])([H])[H])(C([H])([H])[H])C([H])([H])[H])C([H])(C(=O)N([H])C1([H])c3c([H])c([H])c([H])c([H])c3C([H])([H])C([H])([H])C1([H])[H])C2([H])[H])=C1C([H])([H])C([H])([H])N(c2c([H])c([H])c(N([H])C(=O)N3C([H])([H])C([H])([H])C([H])([H])C([H])(n4nc(-c5c([H])c([H])c(Oc6c([H])c([H])c(F)c([H])c6F)c([H])c5[H])c(C(=O)N([H])[H])c4N([H])[H])C3([H])[H])c([H])c2[H])C([H])([H])C1([H])[H]

>  <smiles>  (14) 
[H]C(Oc1c([H])c([H])c2c(c1[H])C([H])([H])N(C(=O)C([H])(N([H])C(=O)C([H])(N([H])C([H])([H])[H])C([H])([H])[H])C(C([H])([H])[H])(C([H])([H])[H])C([H])([H])[H])C([H])(C(=O)N([H])C1([H])c3c([H])c([H])c([H])c([H])c3C([H])([H])C([H])([H])C1([H])[H])C2([H])[H])=C1C([H])([H])C([H])([H])N(c2c([H])c([H])c(N([H])C(=O)N3C([H])([H])C([H])([H])C([H])([H])C([H])(n4nc(-c5c([H])c([H])c(Oc6c([H])c([H])c(F)c([H])c6F)c([H])c5[H])c(C(=O)N([H])[H])c4N([H])[H])C3([H])[H])c([H])c2[H])C([H])([H])C1([H])[H]

$$$$
14:0:0
     RDKit          3D

 94102  0  0  1  0  0  0  0  0999 V2000
  -30.1680  -21.7000   20.6210 C   0  0  0  0  0  0  0  0  0  0  0  0
  -29.2580  -24.0870   20.3810 C   0  0  0  0  0  0  0  0  0  0  0  0
  -29.1380  -22.7020   20.2810 N   0  0  0  0  0  0  0  0  0  0  0  0
  -30.3590  -24.7170   20.8310 N   0  0  0  0  0  4  0  0  0  0  0  0
  -31.2670  -22.1210   21.0120 O   0  0  0  0  0  0  0  0  0  0  0  0
  -28.2430  -22.4040   19.9290 H   0  0  0  0  0  0  0  0  0  0  0  0
  -30.3600  -25.7260   20.8680 H   0  0  0  0  0  0  0  0  0  0  0  0
  -31.1760  -24.1960   21.1180 H   0  0  0  0  0  0  0  0  0  0  0  0
  -31.1650  -19.3400   20.3230 C   0  0  0  0  0  3  0  0  0  0  0  0
  -28.7890  -19.4550   20.6440 C   0  0  0  0  0  3  0  0  0  0  0  0
  -31.1230  -17.9130   20.3340 C   0  0  0  0  0  3  0  0  0  0  0  0
  -28.7470  -18.0230   20.6600 C   0  0  0  0  0  3  0  0  0  0  0  0
  -30.0090  -20.1630   20.4810 C   0  0  0  0  0  0  0  0  0  0  0  0
  -29.9070  -17.2060   20.5160 C   0  0  0  0  0  0  0  0  0  0  0  0
  -30.5710  -14.6980   20.1900 C   0  0  0  0  0  0  0  0  0  0  0  0
  -30.3180  -12.4820   19.0830 C   0  0  0  0  0  2  0  0  0  0  0  0
  -29.3290  -12.6380   17.9060 C   0  0  0  0  0  2  0  0  0  0  0  0
  -27.8710  -12.4770   18.3830 C   0  0  0  0  0  2  0  0  0  0  0  0
  -27.5630  -13.3130   19.6530 C   0  0  0  0  0  3  0  0  0  0  0  0
  -28.6600  -13.1260   20.7260 C   0  0  0  0  0  2  0  0  0  0  0  0
  -29.9480  -13.4770   20.1110 N   0  0  0  0  0  0  0  0  0  0  0  0
  -31.7210  -14.8520   19.7710 O   0  0  0  0  0  0  0  0  0  0  0  0
  -29.7750  -15.7450   20.5880 N   0  0  0  0  0  0  0  0  0  0  0  0
  -28.8700  -15.4290   20.8990 H   0  0  0  0  0  0  0  0  0  0  0  0
  -25.1970  -13.9110   20.4590 C   0  0  0  0  0  0  0  0  0  0  0  0
  -24.1410  -13.1370   20.8540 C   0  0  0  0  0  0  0  0  0  0  0  0
  -24.5950  -11.7840   20.7880 C   0  0  0  0  0  0  0  0  0  0  0  0
  -26.2290  -13.0300   20.1780 N   0  0  0  0  0  0  0  0  0  0  0  0
  -25.8750  -11.7450   20.4360 N   0  0  0  0  0  0  0  0  0  0  0  0
  -23.8710  -10.5220   20.9830 C   0  0  0  0  0  0  0  0  0  0  0  0
  -24.3140   -9.5510   21.9080 C   0  0  0  0  0  3  0  0  0  0  0  0
  -23.5900   -8.3530   22.0910 C   0  0  0  0  0  3  0  0  0  0  0  0
  -22.4080   -8.1180   21.3470 C   0  0  0  0  0  0  0  0  0  0  0  0
  -21.9840   -9.0780   20.4120 C   0  0  0  0  0  3  0  0  0  0  0  0
  -22.7090  -10.2670   20.2280 C   0  0  0  0  0  3  0  0  0  0  0  0
  -21.6540   -6.9730   21.4410 O   0  0  0  0  0  0  0  0  0  0  0  0
  -21.5940   -6.2430   22.6000 C   0  0  0  0  0  0  0  0  0  0  0  0
  -21.1400   -6.8050   23.8130 C   0  0  0  0  0  3  0  0  0  0  0  0
  -21.0290   -6.0000   24.9650 C   0  0  0  0  0  3  0  0  0  0  0  0
  -21.3630   -4.6340   24.9040 C   0  0  0  0  0  0  0  0  0  0  0  0
  -21.8100   -4.0710   23.6960 C   0  0  0  0  0  3  0  0  0  0  0  0
  -21.9230   -4.8730   22.5470 C   0  0  0  0  0  0  0  0  0  0  0  0
  -22.3340   -4.3210   21.3800 F   0  0  0  0  0  0  0  0  0  0  0  0
  -21.2490   -3.8580   26.0080 F   0  0  0  0  0  0  0  0  0  0  0  0
  -22.7540  -13.6150   21.1790 C   0  0  0  0  0  0  0  0  0  0  0  0
  -22.0510  -12.9060   22.0550 N   0  0  0  0  0  0  0  0  0  0  0  0
  -22.3050  -14.6510   20.6910 O   0  0  0  0  0  0  0  0  0  0  0  0
  -22.4280  -12.0680   22.4710 H   0  0  0  0  0  0  0  0  0  0  0  0
  -21.1230  -13.2070   22.3150 H   0  0  0  0  0  0  0  0  0  0  0  0
  -25.3610  -15.2840   20.2930 N   0  0  0  0  0  0  0  0  0  0  0  0
  -24.5940  -15.9330   20.4250 H   0  0  0  0  0  0  0  0  0  0  0  0
  -26.1790  -15.7160   19.8830 H   0  0  0  0  0  0  0  0  0  0  0  0
  -28.1240  -25.0570   19.9770 C   0  0  0  0  0  2  0  0  0  0  0  0
  -28.3440  -26.5100   20.2150 O   0  0  0  0  0  0  0  0  0  0  0  0
  -24.6290  -31.8960   23.2710 C   0  0  0  0  0  0  0  0  0  0  0  0
  -27.2260  -27.3610   20.1670 C   0  0  0  0  0  0  0  0  0  0  0  0
  -23.4170  -30.5130   21.6240 C   0  0  0  0  0  3  0  0  0  0  0  0
  -24.8610  -28.9750   20.1790 C   0  0  0  0  0  0  0  0  0  0  0  0
  -25.9570  -30.8290   21.4340 C   0  0  0  0  0  2  0  0  0  0  0  0
  -26.0330  -29.4570   20.7760 C   0  0  0  0  0  0  0  0  0  0  0  0
  -27.2170  -28.6620   20.7610 C   0  0  0  0  0  3  0  0  0  0  0  0
  -26.0270  -26.9350   19.5450 C   0  0  0  0  0  3  0  0  0  0  0  0
  -24.8600  -27.7200   19.5570 C   0  0  0  0  0  3  0  0  0  0  0  0
  -23.6260  -29.8500   20.2370 C   0  0  0  0  0  2  0  0  0  0  0  0
  -24.6870  -31.0960   22.1660 N   0  0  0  0  0  0  0  0  0  0  0  0
  -23.5480  -32.1700   23.8110 O   0  0  0  0  0  0  0  0  0  0  0  0
  -22.7570  -29.4880   22.5770 C   0  0  0  0  0  0  0  0  0  0  0  0
  -21.4310  -29.3080   22.4490 N   0  0  0  0  0  0  0  0  0  0  0  0
  -23.4360  -28.8580   23.3930 O   0  0  0  0  0  0  0  0  0  0  0  0
  -20.9420  -29.8680   21.7630 H   0  0  0  0  0  0  0  0  0  0  0  0
  -18.0540  -28.1100   22.9420 C   0  0  0  0  0  0  0  0  0  0  0  0
  -20.6130  -28.3670   23.2130 C   0  0  0  0  0  3  0  0  0  0  0  0
  -20.7150  -26.9380   22.6300 C   0  0  0  0  0  2  0  0  0  0  0  0
  -19.6130  -26.6230   21.6140 C   0  0  0  0  0  2  0  0  0  0  0  0
  -18.2310  -26.7650   22.2580 C   0  0  0  0  0  2  0  0  0  0  0  0
  -19.1730  -28.8690   23.3760 C   0  0  0  0  0  0  0  0  0  0  0  0
  -18.9550  -30.1290   23.9750 C   0  0  0  0  0  3  0  0  0  0  0  0
  -17.6500  -30.6300   24.1430 C   0  0  0  0  0  3  0  0  0  0  0  0
  -16.5460  -29.8680   23.7250 C   0  0  0  0  0  3  0  0  0  0  0  0
  -16.7490  -28.6090   23.1300 C   0  0  0  0  0  3  0  0  0  0  0  0
  -25.9150  -32.5210   23.8940 C   0  0  0  0  0  3  0  0  0  0  0  0
  -25.6130  -33.9200   24.2250 N   0  0  0  0  0  0  0  0  0  0  0  0
  -25.9310  -34.9700   23.4560 C   0  0  0  0  0  0  0  0  0  0  0  0
  -26.5800  -34.8630   22.4120 O   0  0  0  0  0  0  0  0  0  0  0  0
  -25.0350  -34.0790   25.0380 H   0  0  0  0  0  0  0  0  0  0  0  0
  -24.1890  -36.7570   23.1410 C   0  0  0  0  0  1  0  0  0  0  0  0
  -25.4550  -36.3620   23.9180 C   0  0  0  0  0  3  0  0  0  0  0  0
  -27.6070  -37.2600   24.6850 C   0  0  0  0  0  1  0  0  0  0  0  0
  -26.4800  -37.4160   23.7680 N   0  0  0  0  0  0  0  0  0  0  0  0
  -26.0750  -38.3370   23.9170 H   0  0  0  0  0  0  0  0  0  0  0  0
  -26.4260  -31.7460   25.1710 C   0  0  1  0  0  0  0  0  0  0  0  0
  -25.3300  -31.5120   26.2350 C   0  0  0  0  0  1  0  0  0  0  0  0
  -27.0050  -30.3670   24.7770 C   0  0  0  0  0  1  0  0  0  0  0  0
  -27.5780  -32.5350   25.8350 C   0  0  0  0  0  1  0  0  0  0  0  0
  1  5  2  0
  2  4  2  0
  3  2  1  0
  3  1  1  0
  4  7  1  0
  4  8  1  0
  6  3  1  0
  9 11  2  0
  9 13  1  0
 10 12  1  0
 11 14  1  0
 13  1  1  0
 13 10  2  0
 14 23  1  0
 14 12  2  0
 15 23  1  0
 16 21  1  0
 17 18  1  0
 17 16  1  0
 19 18  1  0
 19 28  1  0
 19 20  1  0
 21 15  1  0
 21 20  1  0
 22 15  2  0
 23 24  1  0
 25 26  2  0
 26 45  1  0
 27 26  1  0
 27 30  1  0
 28 29  1  0
 28 25  1  0
 29 27  2  0
 30 31  1  0
 31 32  2  0
 33 36  1  0
 33 32  1  0
 34 33  2  0
 35 34  1  0
 35 30  2  0
 36 37  1  0
 37 38  1  0
 38 39  2  0
 40 39  1  0
 40 44  1  0
 41 40  2  0
 42 37  2  0
 42 41  1  0
 43 42  1  0
 45 46  1  0
 46 49  1  0
 46 48  1  0
 47 45  2  0
 50 51  1  0
 50 25  1  0
 52 50  1  0
 53 54  1  0
 53  2  1  0
 55 66  2  0
 56 54  1  0
 56 61  1  0
 57 65  1  0
 57 67  1  0
 58 64  1  0
 58 60  1  0
 59 65  1  0
 60 59  1  0
 61 60  2  0
 62 63  1  0
 62 56  2  0
 63 58  2  0
 64 57  1  0
 65 55  1  0
 67 69  2  0
 68 67  1  0
 70 68  1  0
 71 80  2  0
 71 76  1  0
 72 68  1  0
 72 76  1  0
 73 72  1  0
 74 75  1  0
 74 73  1  0
 75 71  1  0
 76 77  2  0
 77 78  1  0
 79 78  2  0
 80 79  1  0
 81 55  1  0
 81 82  1  0
 81 91  1  0
 82 85  1  0
 83 87  1  0
 83 82  1  0
 84 83  2  0
 87 86  1  0
 89 90  1  0
 89 87  1  0
 89 88  1  0
 91 94  1  1
 91 92  1  0
 93 91  1  0
M  ISO  4  15 100  23 100  53 101  54 101
M  END
>  <TORSDO>  (15) 
F 18

>  <SCORE>  (15) 
-14.751

>  <name>  (15) 
14

>  <ligand_id>  (15) 
14

>  <original_smiles>  (15) 
[H]c1c([H])c([H])c2c(c1[H])C([H])([H])C([H])([H])C([H])([H])C2([H])N([H])C(=O)C1([H])N(C(=O)C([H])(N([H])C(=O)C([H])(N([H])C([H])([H])[H])C([H])([H])[H])C(C([H])([H])[H])(C([H])([H])[H])C([H])([H])[H])C([H])([H])c2c([H])c(OC([H])([H])C(N([H])C(=O)c3c([H])c([H])c(N([H])C(=O)N4C([H])([H])C([H])([H])C([H])([H])C([H])(n5nc(-c6c([H])c([H])c(Oc7c([H])c([H])c(F)c([H])c7F)c([H])c6[H])c(C(=O)N([H])[H])c5N([H])[H])C4([H])[H])c([H])c3[H])=[N+]([H])[H])c([H])c([H])c2C1([H])[H]

>  <smiles>  (15) 
[H]c1c([H])c([H])c2c(c1[H])C([H])([H])C([H])([H])C([H])([H])C2([H])N([H])C(=O)C1([H])N(C(=O)C([H])(N([H])C(=O)C([H])(N([H])C([H])([H])[H])C([H])([H])[H])C(C([H])([H])[H])(C([H])([H])[H])C([H])([H])[H])C([H])([H])c2c([H])c(OC([H])([H])C(N([H])C(=O)c3c([H])c([H])c(N([H])C(=O)N4C([H])([H])C([H])([H])C([H])([H])C([H])(n5nc(-c6c([H])c([H])c(Oc7c([H])c([H])c(F)c([H])c7F)c([H])c6[H])c(C(=O)N([H])[H])c5N([H])[H])C4([H])[H])c([H])c3[H])=[N+]([H])[H])c([H])c([H])c2C1([H])[H]

$$$$
15:0:0
     RDKit          3D

 98106  0  0  1  0  0  0  0  0999 V2000
  -29.0690  -20.7050   20.8560 C   0  0  0  0  0  0  0  0  0  0  0  0
  -28.4690  -23.1710   20.7520 C   0  0  0  0  0  0  0  0  0  0  0  0
  -29.2790  -21.9970   20.4540 N   0  0  0  0  0  0  0  0  0  0  0  0
  -27.9600  -20.3580   21.5200 N   0  0  0  0  0  4  0  0  0  0  0  0
  -27.4520  -23.0500   21.4480 O   0  0  0  0  0  0  0  0  0  0  0  0
  -30.1060  -22.0790   19.8840 H   0  0  0  0  0  0  0  0  0  0  0  0
  -27.8490  -19.4330   21.9010 H   0  0  0  0  0  0  0  0  0  0  0  0
  -27.2910  -21.0830   21.7510 H   0  0  0  0  0  0  0  0  0  0  0  0
  -31.4350  -19.9730   20.5840 C   0  0  0  0  0  3  0  0  0  0  0  0
  -29.7030  -18.2470   20.5810 C   0  0  0  0  0  3  0  0  0  0  0  0
  -32.0480  -17.6130   20.4400 C   0  0  0  0  0  3  0  0  0  0  0  0
  -30.0680  -19.6280   20.6390 C   0  0  0  0  0  0  0  0  0  0  0  0
  -32.4180  -18.9740   20.4830 C   0  0  0  0  0  0  0  0  0  0  0  0
  -30.6850  -17.2180   20.4790 C   0  0  0  0  0  0  0  0  0  0  0  0
  -30.9680  -14.7540   19.9880 C   0  0  0  0  0  0  0  0  0  0  0  0
  -30.6460  -12.5220   18.9810 C   0  0  0  0  0  2  0  0  0  0  0  0
  -29.6480  -12.6360   17.8100 C   0  0  0  0  0  2  0  0  0  0  0  0
  -28.2010  -12.4890   18.3180 C   0  0  0  0  0  2  0  0  0  0  0  0
  -27.9020  -13.3870   19.5480 C   0  0  0  0  0  3  0  0  0  0  0  0
  -29.0150  -13.2710   20.6140 C   0  0  0  0  0  2  0  0  0  0  0  0
  -30.2990  -13.5660   19.9610 N   0  0  0  0  0  0  0  0  0  0  0  0
  -32.0740  -14.8800   19.4570 O   0  0  0  0  0  0  0  0  0  0  0  0
  -30.2850  -15.8250   20.4670 N   0  0  0  0  0  0  0  0  0  0  0  0
  -29.3460  -15.6230   20.7740 H   0  0  0  0  0  0  0  0  0  0  0  0
  -25.5660  -13.9900   20.4370 C   0  0  0  0  0  0  0  0  0  0  0  0
  -24.5140  -13.2150   20.8470 C   0  0  0  0  0  0  0  0  0  0  0  0
  -24.9540  -11.8610   20.7380 C   0  0  0  0  0  0  0  0  0  0  0  0
  -26.5810  -13.1070   20.1050 N   0  0  0  0  0  0  0  0  0  0  0  0
  -26.2210  -11.8190   20.3450 N   0  0  0  0  0  0  0  0  0  0  0  0
  -24.2240  -10.6000   20.9290 C   0  0  0  0  0  0  0  0  0  0  0  0
  -24.6490   -9.6370   21.8690 C   0  0  0  0  0  3  0  0  0  0  0  0
  -23.9210   -8.4410   22.0480 C   0  0  0  0  0  3  0  0  0  0  0  0
  -22.7520   -8.2010   21.2870 C   0  0  0  0  0  0  0  0  0  0  0  0
  -22.3470   -9.1530   20.3360 C   0  0  0  0  0  3  0  0  0  0  0  0
  -23.0760  -10.3400   20.1540 C   0  0  0  0  0  3  0  0  0  0  0  0
  -21.9960   -7.0570   21.3740 O   0  0  0  0  0  0  0  0  0  0  0  0
  -21.8730   -6.3640   22.5520 C   0  0  0  0  0  0  0  0  0  0  0  0
  -21.3120   -6.9500   23.7070 C   0  0  0  0  0  3  0  0  0  0  0  0
  -21.1410   -6.1810   24.8750 C   0  0  0  0  0  3  0  0  0  0  0  0
  -21.5210   -4.8260   24.8890 C   0  0  0  0  0  0  0  0  0  0  0  0
  -22.0740   -4.2380   23.7370 C   0  0  0  0  0  3  0  0  0  0  0  0
  -22.2470   -5.0050   22.5710 C   0  0  0  0  0  0  0  0  0  0  0  0
  -22.7620   -4.4280   21.4590 F   0  0  0  0  0  0  0  0  0  0  0  0
  -21.3480   -4.0840   26.0070 F   0  0  0  0  0  0  0  0  0  0  0  0
  -23.1440  -13.6970   21.2270 C   0  0  0  0  0  0  0  0  0  0  0  0
  -22.4670  -12.9820   22.1190 N   0  0  0  0  0  0  0  0  0  0  0  0
  -22.6840  -14.7430   20.7680 O   0  0  0  0  0  0  0  0  0  0  0  0
  -22.8530  -12.1360   22.5120 H   0  0  0  0  0  0  0  0  0  0  0  0
  -21.5510  -13.2880   22.4160 H   0  0  0  0  0  0  0  0  0  0  0  0
  -25.7370  -15.3630   20.2950 N   0  0  0  0  0  0  0  0  0  0  0  0
  -24.9820  -16.0200   20.4630 H   0  0  0  0  0  0  0  0  0  0  0  0
  -26.5540  -15.7980   19.8870 H   0  0  0  0  0  0  0  0  0  0  0  0
  -33.7640  -19.3420   20.4430 N   0  0  0  0  0  0  0  0  0  0  0  0
  -34.0300  -20.2660   20.7690 H   0  0  0  0  0  0  0  0  0  0  0  0
  -34.4710  -18.6370   20.6370 H   0  0  0  0  0  0  0  0  0  0  0  0
  -28.9230  -24.4540   20.1940 C   0  0  0  0  0  3  0  0  0  0  0  0
  -28.2770  -25.5940   20.5550 C   0  0  0  0  0  3  0  0  0  0  0  0
  -28.5220  -26.8800   20.0900 O   0  0  0  0  0  0  0  0  0  0  0  0
  -24.6980  -31.9640   23.3560 C   0  0  0  0  0  0  0  0  0  0  0  0
  -27.4050  -27.6990   20.0680 C   0  0  0  0  0  0  0  0  0  0  0  0
  -23.5240  -30.6480   21.6240 C   0  0  0  0  0  3  0  0  0  0  0  0
  -25.0090  -29.2090   20.1270 C   0  0  0  0  0  0  0  0  0  0  0  0
  -26.0530  -31.0310   21.4800 C   0  0  0  0  0  2  0  0  0  0  0  0
  -26.1600  -29.6990   20.7610 C   0  0  0  0  0  0  0  0  0  0  0  0
  -27.3640  -28.9530   20.7290 C   0  0  0  0  0  3  0  0  0  0  0  0
  -26.2410  -27.2410   19.4120 C   0  0  0  0  0  3  0  0  0  0  0  0
  -25.0460  -27.9820   19.4470 C   0  0  0  0  0  3  0  0  0  0  0  0
  -23.7560  -30.0530   20.2100 C   0  0  0  0  0  2  0  0  0  0  0  0
  -24.7760  -31.2260   22.2130 N   0  0  0  0  0  0  0  0  0  0  0  0
  -23.6070  -32.1970   23.8970 O   0  0  0  0  0  0  0  0  0  0  0  0
  -22.8700  -29.5670   22.5170 C   0  0  0  0  0  0  0  0  0  0  0  0
  -21.5550  -29.3560   22.3380 N   0  0  0  0  0  0  0  0  0  0  0  0
  -23.5430  -28.9270   23.3280 O   0  0  0  0  0  0  0  0  0  0  0  0
  -21.0720  -29.9280   21.6600 H   0  0  0  0  0  0  0  0  0  0  0  0
  -18.2030  -28.0410   22.6610 C   0  0  0  0  0  0  0  0  0  0  0  0
  -20.7410  -28.3640   23.0400 C   0  0  0  0  0  3  0  0  0  0  0  0
  -20.9090  -26.9600   22.4130 C   0  0  0  0  0  2  0  0  0  0  0  0
  -19.8560  -26.6460   21.3460 C   0  0  0  0  0  2  0  0  0  0  0  0
  -18.4470  -26.7250   21.9410 C   0  0  0  0  0  2  0  0  0  0  0  0
  -19.2820  -28.8180   23.1620 C   0  0  0  0  0  0  0  0  0  0  0  0
  -19.0020  -30.0510   23.7920 C   0  0  0  0  0  3  0  0  0  0  0  0
  -17.6780  -30.5070   23.9250 C   0  0  0  0  0  3  0  0  0  0  0  0
  -16.6140  -29.7260   23.4410 C   0  0  0  0  0  3  0  0  0  0  0  0
  -16.8780  -28.4950   22.8150 C   0  0  0  0  0  3  0  0  0  0  0  0
  -25.9700  -32.5700   24.0250 C   0  0  0  0  0  3  0  0  0  0  0  0
  -26.4540  -31.7600   25.2900 C   0  0  1  0  0  0  0  0  0  0  0  0
  -25.3320  -31.4800   26.3160 C   0  0  0  0  0  1  0  0  0  0  0  0
  -27.0580  -30.4000   24.8690 C   0  0  0  0  0  1  0  0  0  0  0  0
  -27.5780  -32.5380   26.0130 C   0  0  0  0  0  1  0  0  0  0  0  0
  -25.6610  -33.9600   24.3870 N   0  0  0  0  0  0  0  0  0  0  0  0
  -26.0060  -35.0300   23.6590 C   0  0  0  0  0  0  0  0  0  0  0  0
  -26.6880  -34.9520   22.6340 O   0  0  0  0  0  0  0  0  0  0  0  0
  -25.0560  -34.0960   25.1830 H   0  0  0  0  0  0  0  0  0  0  0  0
  -24.2840  -36.8340   23.3250 C   0  0  0  0  0  1  0  0  0  0  0  0
  -25.5140  -36.4080   24.1430 C   0  0  0  0  0  3  0  0  0  0  0  0
  -27.6340  -37.2730   25.0310 C   0  0  0  0  0  1  0  0  0  0  0  0
  -26.5500  -37.4610   24.0700 N   0  0  0  0  0  0  0  0  0  0  0  0
  -26.1420  -38.3790   24.2280 H   0  0  0  0  0  0  0  0  0  0  0  0
  1  4  2  0
  2  5  2  0
  3  2  1  0
  3  1  1  0
  4  8  1  0
  4  7  1  0
  6  3  1  0
  9 12  1  0
 10 12  2  0
 11 14  2  0
 11 13  1  0
 12  1  1  0
 13  9  2  0
 14 10  1  0
 15 23  1  0
 16 21  1  0
 17 18  1  0
 17 16  1  0
 19 18  1  0
 19 28  1  0
 19 20  1  0
 21 15  1  0
 21 20  1  0
 22 15  2  0
 23 14  1  0
 23 24  1  0
 25 26  2  0
 26 45  1  0
 27 26  1  0
 27 30  1  0
 28 29  1  0
 28 25  1  0
 29 27  2  0
 30 31  1  0
 31 32  2  0
 33 36  1  0
 33 32  1  0
 34 33  2  0
 35 34  1  0
 35 30  2  0
 36 37  1  0
 37 42  2  0
 37 38  1  0
 38 39  2  0
 39 40  1  0
 40 44  1  0
 41 40  2  0
 42 41  1  0
 43 42  1  0
 45 46  1  0
 46 49  1  0
 46 48  1  0
 47 45  2  0
 50 25  1  0
 50 51  1  0
 52 50  1  0
 53 13  1  0
 53 55  1  0
 53 54  1  0
 56 57  2  0
 56  2  1  0
 58 57  1  0
 59 70  2  0
 60 58  1  0
 60 65  1  0
 61 69  1  0
 61 71  1  0
 62 68  1  0
 62 64  1  0
 63 69  1  0
 64 63  1  0
 65 64  2  0
 66 67  1  0
 66 60  2  0
 67 62  2  0
 68 61  1  0
 69 59  1  0
 71 73  2  0
 72 71  1  0
 74 72  1  0
 75 84  2  0
 75 80  1  0
 76 72  1  0
 76 80  1  0
 77 76  1  0
 78 79  1  0
 78 77  1  0
 79 75  1  0
 80 81  2  0
 81 82  1  0
 83 82  2  0
 84 83  1  0
 85 59  1  0
 85 90  1  0
 85 86  1  0
 86 89  1  1
 86 87  1  0
 88 86  1  0
 90 93  1  0
 91 95  1  0
 91 90  1  0
 92 91  2  0
 95 94  1  0
 97 95  1  0
 97 98  1  0
 97 96  1  0
M  ISO  4  15 100  23 100  57 101  58 101
M  END
>  <TORSDO>  (16) 
F 19

>  <SCORE>  (16) 
-13.954

>  <name>  (16) 
15

>  <ligand_id>  (16) 
15

>  <original_smiles>  (16) 
[H]C(Oc1c([H])c([H])c2c(c1[H])C([H])([H])N(C(=O)C([H])(N([H])C(=O)C([H])(N([H])C([H])([H])[H])C([H])([H])[H])C(C([H])([H])[H])(C([H])([H])[H])C([H])([H])[H])C([H])(C(=O)N([H])C1([H])c3c([H])c([H])c([H])c([H])c3C([H])([H])C([H])([H])C1([H])[H])C2([H])[H])=C([H])C(=O)N([H])C(c1c([H])c(N([H])[H])c([H])c(N([H])C(=O)N2C([H])([H])C([H])([H])C([H])([H])C([H])(n3nc(-c4c([H])c([H])c(Oc5c([H])c([H])c(F)c([H])c5F)c([H])c4[H])c(C(=O)N([H])[H])c3N([H])[H])C2([H])[H])c1[H])=[N+]([H])[H]

>  <smiles>  (16) 
[H]C(Oc1c([H])c([H])c2c(c1[H])C([H])([H])N(C(=O)C([H])(N([H])C(=O)C([H])(N([H])C([H])([H])[H])C([H])([H])[H])C(C([H])([H])[H])(C([H])([H])[H])C([H])([H])[H])C([H])(C(=O)N([H])C1([H])c3c([H])c([H])c([H])c([H])c3C([H])([H])C([H])([H])C1([H])[H])C2([H])[H])=C([H])C(=O)N([H])C(c1c([H])c(N([H])[H])c([H])c(N([H])C(=O)N2C([H])([H])C([H])([H])C([H])([H])C([H])(n3nc(-c4c([H])c([H])c(Oc5c([H])c([H])c(F)c([H])c5F)c([H])c4[H])c(C(=O)N([H])[H])c3N([H])[H])C2([H])[H])c1[H])=[N+]([H])[H]

$$$$
16:0:0
     RDKit          3D

 98106  0  0  1  0  0  0  0  0999 V2000
  -29.9600  -19.6020   21.6210 C   0  0  0  0  0  3  0  0  0  0  0  0
  -29.5770  -20.9660   21.4140 C   0  0  0  0  0  3  0  0  0  0  0  0
  -29.8560  -18.6060   20.6030 C   0  0  0  0  0  0  0  0  0  0  0  0
  -29.0810  -21.4090   20.1580 C   0  0  0  0  0  0  0  0  0  0  0  0
  -28.9430  -20.4090   19.1540 C   0  0  0  0  0  0  0  0  0  0  0  0
  -29.2990  -19.0410   19.3740 C   0  0  0  0  0  0  0  0  0  0  0  0
  -29.1820  -18.1660   18.3430 F   0  0  0  0  0  0  0  0  0  0  0  0
  -30.6890  -14.7190   20.3180 C   0  0  0  0  0  0  0  0  0  0  0  0
  -30.3950  -12.5000   19.2460 C   0  0  0  0  0  2  0  0  0  0  0  0
  -29.4490  -12.6070   18.0330 C   0  0  0  0  0  2  0  0  0  0  0  0
  -27.9840  -12.4400   18.4830 C   0  0  0  0  0  2  0  0  0  0  0  0
  -27.6270  -13.3160   19.7130 C   0  0  0  0  0  3  0  0  0  0  0  0
  -28.7000  -13.2220   20.8210 C   0  0  0  0  0  2  0  0  0  0  0  0
  -29.9920  -13.5450   20.2070 N   0  0  0  0  0  0  0  0  0  0  0  0
  -31.8860  -14.7710   20.0210 O   0  0  0  0  0  0  0  0  0  0  0  0
  -30.5230  -17.2510   20.7470 C   0  0  0  0  0  0  0  0  0  0  0  0
  -29.9680  -16.0000   20.5200 N   0  0  0  0  0  0  0  0  0  0  0  0
  -31.8090  -17.3270   21.1210 N   0  0  0  0  0  4  0  0  0  0  0  0
  -28.9630  -16.0280   20.5410 H   0  0  0  0  0  0  0  0  0  0  0  0
  -32.2450  -18.2230   21.2780 H   0  0  0  0  0  0  0  0  0  0  0  0
  -32.3940  -16.5090   21.0090 H   0  0  0  0  0  0  0  0  0  0  0  0
  -25.2440  -13.8960   20.4700 C   0  0  0  0  0  0  0  0  0  0  0  0
  -24.1870  -13.1160   20.8530 C   0  0  0  0  0  0  0  0  0  0  0  0
  -24.6560  -11.7680   20.8130 C   0  0  0  0  0  0  0  0  0  0  0  0
  -26.2900  -13.0220   20.2190 N   0  0  0  0  0  0  0  0  0  0  0  0
  -25.9430  -11.7370   20.4890 N   0  0  0  0  0  0  0  0  0  0  0  0
  -23.9360  -10.5030   21.0060 C   0  0  0  0  0  0  0  0  0  0  0  0
  -24.3710   -9.5400   21.9420 C   0  0  0  0  0  3  0  0  0  0  0  0
  -23.6530   -8.3390   22.1220 C   0  0  0  0  0  3  0  0  0  0  0  0
  -22.4820   -8.0920   21.3650 C   0  0  0  0  0  0  0  0  0  0  0  0
  -22.0660   -9.0430   20.4170 C   0  0  0  0  0  3  0  0  0  0  0  0
  -22.7870  -10.2350   20.2350 C   0  0  0  0  0  3  0  0  0  0  0  0
  -21.7340   -6.9440   21.4540 O   0  0  0  0  0  0  0  0  0  0  0  0
  -21.6790   -6.2080   22.6120 C   0  0  0  0  0  0  0  0  0  0  0  0
  -21.2170   -6.7640   23.8250 C   0  0  0  0  0  3  0  0  0  0  0  0
  -21.1110   -5.9540   24.9730 C   0  0  0  0  0  3  0  0  0  0  0  0
  -21.4550   -4.5910   24.9090 C   0  0  0  0  0  0  0  0  0  0  0  0
  -21.9080   -4.0350   23.7000 C   0  0  0  0  0  3  0  0  0  0  0  0
  -22.0170   -4.8410   22.5540 C   0  0  0  0  0  0  0  0  0  0  0  0
  -22.4350   -4.2960   21.3870 F   0  0  0  0  0  0  0  0  0  0  0  0
  -21.3460   -3.8120   26.0110 F   0  0  0  0  0  0  0  0  0  0  0  0
  -22.7900  -13.5880   21.1350 C   0  0  0  0  0  0  0  0  0  0  0  0
  -22.0660  -12.8820   21.9970 N   0  0  0  0  0  0  0  0  0  0  0  0
  -22.3500  -14.6200   20.6280 O   0  0  0  0  0  0  0  0  0  0  0  0
  -22.4350  -12.0480   22.4300 H   0  0  0  0  0  0  0  0  0  0  0  0
  -21.1290  -13.1800   22.2270 H   0  0  0  0  0  0  0  0  0  0  0  0
  -25.3950  -15.2670   20.2870 N   0  0  0  0  0  0  0  0  0  0  0  0
  -24.5980  -15.8910   20.3690 H   0  0  0  0  0  0  0  0  0  0  0  0
  -26.1850  -15.6980   19.8270 H   0  0  0  0  0  0  0  0  0  0  0  0
  -28.7440  -23.9930   20.4260 C   0  0  0  0  0  0  0  0  0  0  0  0
  -28.7350  -22.7820   19.7860 N   0  0  0  0  0  0  0  0  0  0  0  0
  -28.9690  -24.1040   21.6350 O   0  0  0  0  0  0  0  0  0  0  0  0
  -28.4460  -22.8340   18.8190 H   0  0  0  0  0  0  0  0  0  0  0  0
  -28.4630  -25.2810   19.5480 C   0  0  0  0  0  2  0  0  0  0  0  0
  -28.3370  -26.5800   20.2520 O   0  0  0  0  0  0  0  0  0  0  0  0
  -24.5760  -31.9450   23.2320 C   0  0  0  0  0  0  0  0  0  0  0  0
  -27.1870  -27.3830   20.1790 C   0  0  0  0  0  0  0  0  0  0  0  0
  -23.3680  -30.5410   21.5990 C   0  0  0  0  0  3  0  0  0  0  0  0
  -24.8150  -28.9900   20.1750 C   0  0  0  0  0  0  0  0  0  0  0  0
  -25.9060  -30.8640   21.4080 C   0  0  0  0  0  2  0  0  0  0  0  0
  -25.9830  -29.4830   20.7650 C   0  0  0  0  0  0  0  0  0  0  0  0
  -27.1670  -28.6890   20.7610 C   0  0  0  0  0  3  0  0  0  0  0  0
  -25.9840  -26.9370   19.5810 C   0  0  0  0  0  3  0  0  0  0  0  0
  -24.8170  -27.7220   19.5770 C   0  0  0  0  0  3  0  0  0  0  0  0
  -23.5780  -29.8630   20.2200 C   0  0  0  0  0  2  0  0  0  0  0  0
  -24.6350  -31.1340   22.1370 N   0  0  0  0  0  0  0  0  0  0  0  0
  -23.4940  -32.2250   23.7690 O   0  0  0  0  0  0  0  0  0  0  0  0
  -22.7100  -29.5260   22.5640 C   0  0  0  0  0  0  0  0  0  0  0  0
  -21.3840  -29.3490   22.4390 N   0  0  0  0  0  0  0  0  0  0  0  0
  -23.3910  -28.9030   23.3830 O   0  0  0  0  0  0  0  0  0  0  0  0
  -20.8960  -29.9040   21.7500 H   0  0  0  0  0  0  0  0  0  0  0  0
  -18.0030  -28.1740   22.9620 C   0  0  0  0  0  0  0  0  0  0  0  0
  -20.5650  -28.4160   23.2130 C   0  0  0  0  0  3  0  0  0  0  0  0
  -20.6520  -26.9840   22.6340 C   0  0  0  0  0  2  0  0  0  0  0  0
  -19.5400  -26.6710   21.6270 C   0  0  0  0  0  2  0  0  0  0  0  0
  -18.1650  -26.8250   22.2820 C   0  0  0  0  0  2  0  0  0  0  0  0
  -19.1310  -28.9280   23.3840 C   0  0  0  0  0  0  0  0  0  0  0  0
  -18.9250  -30.1910   23.9810 C   0  0  0  0  0  3  0  0  0  0  0  0
  -17.6250  -30.7000   24.1590 C   0  0  0  0  0  3  0  0  0  0  0  0
  -16.5120  -29.9440   23.7520 C   0  0  0  0  0  3  0  0  0  0  0  0
  -16.7020  -28.6830   23.1590 C   0  0  0  0  0  3  0  0  0  0  0  0
  -25.8600  -32.5790   23.8500 C   0  0  0  0  0  3  0  0  0  0  0  0
  -26.3770  -31.8140   25.1310 C   0  0  1  0  0  0  0  0  0  0  0  0
  -25.2830  -31.5800   26.1980 C   0  0  0  0  0  1  0  0  0  0  0  0
  -26.9620  -30.4350   24.7450 C   0  0  0  0  0  1  0  0  0  0  0  0
  -27.5250  -32.6130   25.7900 C   0  0  0  0  0  1  0  0  0  0  0  0
  -25.5530  -33.9790   24.1730 N   0  0  0  0  0  0  0  0  0  0  0  0
  -25.8930  -35.0290   23.4130 C   0  0  0  0  0  0  0  0  0  0  0  0
  -26.5690  -34.9210   22.3870 O   0  0  0  0  0  0  0  0  0  0  0  0
  -24.9540  -34.1380   24.9690 H   0  0  0  0  0  0  0  0  0  0  0  0
  -24.1840  -36.8350   23.0290 C   0  0  0  0  0  1  0  0  0  0  0  0
  -25.4060  -36.4210   23.8620 C   0  0  0  0  0  3  0  0  0  0  0  0
  -27.5290  -37.2920   24.7360 C   0  0  0  0  0  1  0  0  0  0  0  0
  -26.4470  -37.4670   23.7710 N   0  0  0  0  0  0  0  0  0  0  0  0
  -26.0430  -38.3900   23.9110 H   0  0  0  0  0  0  0  0  0  0  0  0
  -28.5010  -20.7770   17.8790 N   0  0  0  0  0  0  0  0  0  0  0  0
  -29.1250  -21.4320   17.4200 H   0  0  0  0  0  0  0  0  0  0  0  0
  -28.4230  -19.9600   17.2800 H   0  0  0  0  0  0  0  0  0  0  0  0
  2  1  1  0
  3 16  1  0
  3  1  2  0
  4  2  2  0
  5  6  2  0
  5  4  1  0
  6  3  1  0
  7  6  1  0
  8 17  1  0
  9 14  1  0
 10 11  1  0
 10  9  1  0
 12 11  1  0
 12 25  1  0
 12 13  1  0
 14  8  1  0
 14 13  1  0
 15  8  2  0
 16 18  2  0
 17 19  1  0
 17 16  1  0
 18 20  1  0
 21 18  1  0
 22 23  2  0
 23 42  1  0
 24 23  1  0
 24 27  1  0
 25 22  1  0
 25 26  1  0
 26 24  2  0
 27 28  1  0
 28 29  2  0
 30 33  1  0
 30 29  1  0
 31 30  2  0
 32 31  1  0
 32 27  2  0
 33 34  1  0
 34 35  1  0
 35 36  2  0
 37 36  1  0
 37 41  1  0
 38 37  2  0
 39 34  2  0
 39 38  1  0
 40 39  1  0
 42 43  1  0
 43 46  1  0
 43 45  1  0
 44 42  2  0
 47 48  1  0
 47 22  1  0
 49 47  1  0
 50 52  2  0
 51  4  1  0
 51 50  1  0
 53 51  1  0
 54 55  1  0
 54 50  1  0
 56 67  2  0
 57 55  1  0
 57 62  1  0
 58 66  1  0
 58 68  1  0
 59 65  1  0
 59 61  1  0
 60 66  1  0
 61 60  1  0
 62 61  2  0
 63 57  2  0
 64 63  1  0
 64 59  2  0
 65 58  1  0
 66 56  1  0
 68 70  2  0
 69 68  1  0
 71 69  1  0
 72 81  2  0
 72 77  1  0
 73 69  1  0
 73 77  1  0
 74 73  1  0
 75 76  1  0
 75 74  1  0
 76 72  1  0
 77 78  2  0
 78 79  1  0
 80 79  2  0
 81 80  1  0
 82 56  1  0
 82 87  1  0
 82 83  1  0
 83 86  1  1
 83 84  1  0
 85 83  1  0
 87 90  1  0
 88 92  1  0
 88 87  1  0
 89 88  2  0
 92 91  1  0
 94 92  1  0
 94 95  1  0
 94 93  1  0
 96  5  1  0
 97 96  1  0
 98 96  1  0
M  ISO  4   8 100  17 100  54 101  55 101
M  END
>  <TORSDO>  (17) 
F 19

>  <SCORE>  (17) 
-14.520

>  <name>  (17) 
16

>  <ligand_id>  (17) 
16

>  <original_smiles>  (17) 
[H]c1c([H])c([H])c2c(c1[H])C([H])([H])C([H])([H])C([H])([H])C2([H])N([H])C(=O)C1([H])N(C(=O)C([H])(N([H])C(=O)C([H])(N([H])C([H])([H])[H])C([H])([H])[H])C(C([H])([H])[H])(C([H])([H])[H])C([H])([H])[H])C([H])([H])c2c([H])c(OC([H])([H])C(=O)N([H])c3c([H])c([H])c(C(N([H])C(=O)N4C([H])([H])C([H])([H])C([H])([H])C([H])(n5nc(-c6c([H])c([H])c(Oc7c([H])c([H])c(F)c([H])c7F)c([H])c6[H])c(C(=O)N([H])[H])c5N([H])[H])C4([H])[H])=[N+]([H])[H])c(F)c3N([H])[H])c([H])c([H])c2C1([H])[H]

>  <smiles>  (17) 
[H]c1c([H])c([H])c2c(c1[H])C([H])([H])C([H])([H])C([H])([H])C2([H])N([H])C(=O)C1([H])N(C(=O)C([H])(N([H])C(=O)C([H])(N([H])C([H])([H])[H])C([H])([H])[H])C(C([H])([H])[H])(C([H])([H])[H])C([H])([H])[H])C([H])([H])c2c([H])c(OC([H])([H])C(=O)N([H])c3c([H])c([H])c(C(N([H])C(=O)N4C([H])([H])C([H])([H])C([H])([H])C([H])(n5nc(-c6c([H])c([H])c(Oc7c([H])c([H])c(F)c([H])c7F)c([H])c6[H])c(C(=O)N([H])[H])c5N([H])[H])C4([H])[H])=[N+]([H])[H])c(F)c3N([H])[H])c([H])c([H])c2C1([H])[H]

$$$$
17:0:0
     RDKit          3D

 96105  0  0  1  0  0  0  0  0999 V2000
  -28.5790  -19.4180   20.1170 C   0  0  0  0  0  3  0  0  0  0  0  0
  -30.9160  -18.0910   20.8990 C   0  0  0  0  0  3  0  0  0  0  0  0
  -29.6720  -20.2510   20.4910 C   0  0  0  0  0  0  0  0  0  0  0  0
  -28.6540  -17.9890   20.1220 C   0  0  0  0  0  0  0  0  0  0  0  0
  -29.8120  -17.2760   20.5370 C   0  0  0  0  0  0  0  0  0  0  0  0
  -30.8520  -19.5250   20.8690 C   0  0  0  0  0  0  0  0  0  0  0  0
  -31.9650  -20.1980   21.2440 F   0  0  0  0  0  0  0  0  0  0  0  0
  -30.5610  -14.7530   20.4110 C   0  0  0  0  0  0  0  0  0  0  0  0
  -30.3720  -12.5040   19.3480 C   0  0  0  0  0  2  0  0  0  0  0  0
  -29.4180  -12.6230   18.1390 C   0  0  0  0  0  2  0  0  0  0  0  0
  -27.9480  -12.4530   18.5740 C   0  0  0  0  0  2  0  0  0  0  0  0
  -27.5890  -13.3080   19.8180 C   0  0  0  0  0  3  0  0  0  0  0  0
  -28.6570  -13.1620   20.9250 C   0  0  0  0  0  2  0  0  0  0  0  0
  -29.9580  -13.5200   20.3370 N   0  0  0  0  0  0  0  0  0  0  0  0
  -31.7410  -14.9060   20.0830 O   0  0  0  0  0  0  0  0  0  0  0  0
  -29.7150  -15.8100   20.6460 N   0  0  0  0  0  0  0  0  0  0  0  0
  -28.7600  -15.5130   20.7760 H   0  0  0  0  0  0  0  0  0  0  0  0
  -25.1950  -13.8960   20.5510 C   0  0  0  0  0  0  0  0  0  0  0  0
  -24.1300  -13.1180   20.9100 C   0  0  0  0  0  0  0  0  0  0  0  0
  -24.5960  -11.7690   20.8700 C   0  0  0  0  0  0  0  0  0  0  0  0
  -26.2430  -13.0220   20.3080 N   0  0  0  0  0  0  0  0  0  0  0  0
  -25.8870  -11.7360   20.5620 N   0  0  0  0  0  0  0  0  0  0  0  0
  -23.8710  -10.5060   21.0530 C   0  0  0  0  0  0  0  0  0  0  0  0
  -24.2960   -9.5390   21.9910 C   0  0  0  0  0  3  0  0  0  0  0  0
  -23.5700   -8.3400   22.1620 C   0  0  0  0  0  3  0  0  0  0  0  0
  -22.4060   -8.1000   21.3940 C   0  0  0  0  0  0  0  0  0  0  0  0
  -22.0000   -9.0560   20.4460 C   0  0  0  0  0  3  0  0  0  0  0  0
  -22.7260  -10.2460   20.2740 C   0  0  0  0  0  3  0  0  0  0  0  0
  -21.6520   -6.9540   21.4740 O   0  0  0  0  0  0  0  0  0  0  0  0
  -21.5790   -6.2210   22.6320 C   0  0  0  0  0  0  0  0  0  0  0  0
  -21.0810   -6.7730   23.8320 C   0  0  0  0  0  3  0  0  0  0  0  0
  -20.9570   -5.9640   24.9810 C   0  0  0  0  0  3  0  0  0  0  0  0
  -21.3210   -4.6050   24.9280 C   0  0  0  0  0  0  0  0  0  0  0  0
  -21.8100   -4.0520   23.7310 C   0  0  0  0  0  3  0  0  0  0  0  0
  -21.9360   -4.8590   22.5850 C   0  0  0  0  0  0  0  0  0  0  0  0
  -22.3890   -4.3170   21.4290 F   0  0  0  0  0  0  0  0  0  0  0  0
  -21.1940   -3.8260   26.0270 F   0  0  0  0  0  0  0  0  0  0  0  0
  -22.7330  -13.5920   21.1860 C   0  0  0  0  0  0  0  0  0  0  0  0
  -22.0060  -12.8900   22.0480 N   0  0  0  0  0  0  0  0  0  0  0  0
  -22.2940  -14.6230   20.6750 O   0  0  0  0  0  0  0  0  0  0  0  0
  -22.3730  -12.0580   22.4850 H   0  0  0  0  0  0  0  0  0  0  0  0
  -21.0680  -13.1910   22.2760 H   0  0  0  0  0  0  0  0  0  0  0  0
  -25.3420  -15.2710   20.3990 N   0  0  0  0  0  0  0  0  0  0  0  0
  -24.5600  -15.8960   20.5520 H   0  0  0  0  0  0  0  0  0  0  0  0
  -26.2000  -15.7820   20.1950 H   0  0  0  0  0  0  0  0  0  0  0  0
  -28.9200  -24.0020   20.4070 C   0  0  0  0  0  0  0  0  0  0  0  0
  -28.5310  -22.5830   20.6250 C   0  0  0  0  0  0  0  0  0  0  0  0
  -28.0750  -25.0850   20.5680 C   0  0  0  0  0  3  0  0  0  0  0  0
  -30.3610  -24.0270   19.9970 C   0  0  0  0  0  3  0  0  0  0  0  0
  -30.8100  -22.5590   20.1810 C   0  0  0  0  0  3  0  0  0  0  0  0
  -29.6090  -21.7440   20.4360 N   0  0  0  0  0  0  0  0  0  0  0  0
  -27.4000  -22.1990   20.9390 O   0  0  0  0  0  0  0  0  0  0  0  0
  -28.3300  -26.4710   20.3730 O   0  0  0  0  0  0  0  0  0  0  0  0
  -24.6150  -31.9840   23.2760 C   0  0  0  0  0  0  0  0  0  0  0  0
  -27.2370  -27.3590   20.3120 C   0  0  0  0  0  0  0  0  0  0  0  0
  -23.4230  -30.5700   21.6400 C   0  0  0  0  0  3  0  0  0  0  0  0
  -24.8840  -28.9950   20.2490 C   0  0  0  0  0  0  0  0  0  0  0  0
  -25.9680  -30.8680   21.4870 C   0  0  0  0  0  2  0  0  0  0  0  0
  -26.0480  -29.4790   20.8600 C   0  0  0  0  0  0  0  0  0  0  0  0
  -27.2270  -28.6710   20.8870 C   0  0  0  0  0  3  0  0  0  0  0  0
  -26.0560  -26.9420   19.6570 C   0  0  0  0  0  3  0  0  0  0  0  0
  -24.8900  -27.7320   19.6380 C   0  0  0  0  0  3  0  0  0  0  0  0
  -23.6500  -29.8760   20.2710 C   0  0  0  0  0  2  0  0  0  0  0  0
  -24.6870  -31.1590   22.1900 N   0  0  0  0  0  0  0  0  0  0  0  0
  -23.5270  -32.2750   23.7940 O   0  0  0  0  0  0  0  0  0  0  0  0
  -22.7430  -29.5700   22.6050 C   0  0  0  0  0  0  0  0  0  0  0  0
  -21.4170  -29.4000   22.4650 N   0  0  0  0  0  0  0  0  0  0  0  0
  -23.4070  -28.9510   23.4400 O   0  0  0  0  0  0  0  0  0  0  0  0
  -20.9400  -29.9500   21.7650 H   0  0  0  0  0  0  0  0  0  0  0  0
  -18.0200  -28.2620   22.9720 C   0  0  0  0  0  0  0  0  0  0  0  0
  -20.5820  -28.4780   23.2390 C   0  0  0  0  0  3  0  0  0  0  0  0
  -20.6600  -27.0440   22.6670 C   0  0  0  0  0  2  0  0  0  0  0  0
  -19.5510  -26.7380   21.6540 C   0  0  0  0  0  2  0  0  0  0  0  0
  -18.1720  -26.9080   22.2990 C   0  0  0  0  0  2  0  0  0  0  0  0
  -19.1520  -29.0060   23.3990 C   0  0  0  0  0  0  0  0  0  0  0  0
  -18.9540  -30.2740   23.9890 C   0  0  0  0  0  3  0  0  0  0  0  0
  -17.6580  -30.7970   24.1550 C   0  0  0  0  0  3  0  0  0  0  0  0
  -16.5410  -30.0500   23.7440 C   0  0  0  0  0  3  0  0  0  0  0  0
  -16.7220  -28.7840   23.1580 C   0  0  0  0  0  3  0  0  0  0  0  0
  -25.8940  -32.6170   23.9050 C   0  0  0  0  0  3  0  0  0  0  0  0
  -25.5860  -34.0190   24.2220 N   0  0  0  0  0  0  0  0  0  0  0  0
  -25.9120  -35.0640   23.4500 C   0  0  0  0  0  0  0  0  0  0  0  0
  -26.5740  -34.9500   22.4140 O   0  0  0  0  0  0  0  0  0  0  0  0
  -24.9970  -34.1810   25.0250 H   0  0  0  0  0  0  0  0  0  0  0  0
  -24.1790  -36.8520   23.0940 C   0  0  0  0  0  1  0  0  0  0  0  0
  -25.4290  -36.4580   23.8970 C   0  0  0  0  0  3  0  0  0  0  0  0
  -27.5670  -37.3590   24.7010 C   0  0  0  0  0  1  0  0  0  0  0  0
  -26.4590  -37.5100   23.7610 N   0  0  0  0  0  0  0  0  0  0  0  0
  -26.0530  -38.4320   23.8940 H   0  0  0  0  0  0  0  0  0  0  0  0
  -26.3960  -31.8550   25.1930 C   0  0  1  0  0  0  0  0  0  0  0  0
  -25.2890  -31.6210   26.2470 C   0  0  0  0  0  1  0  0  0  0  0  0
  -26.9880  -30.4750   24.8180 C   0  0  0  0  0  1  0  0  0  0  0  0
  -27.5350  -32.6550   25.8650 C   0  0  0  0  0  1  0  0  0  0  0  0
  -27.5630  -17.2540   19.6630 N   0  0  0  0  0  0  0  0  0  0  0  0
  -26.8190  -17.8200   19.2700 H   0  0  0  0  0  0  0  0  0  0  0  0
  -27.8310  -16.5480   18.9860 H   0  0  0  0  0  0  0  0  0  0  0  0
  1  4  2  0
  1  3  1  0
  3  6  2  0
  4  5  1  0
  5 16  1  0
  5  2  2  0
  6  2  1  0
  6  7  1  0
  8 16  1  0
  9 14  1  0
 10 11  1  0
 10  9  1  0
 12 11  1  0
 12 21  1  0
 12 13  1  0
 14  8  1  0
 14 13  1  0
 15  8  2  0
 16 17  1  0
 18 19  2  0
 19 38  1  0
 20 19  1  0
 20 23  1  0
 21 18  1  0
 21 22  1  0
 22 20  2  0
 23 24  1  0
 24 25  2  0
 26 29  1  0
 26 25  1  0
 27 26  2  0
 28 27  1  0
 28 23  2  0
 29 30  1  0
 30 31  1  0
 31 32  2  0
 33 32  1  0
 33 37  1  0
 34 33  2  0
 35 30  2  0
 35 34  1  0
 36 35  1  0
 38 39  1  0
 39 42  1  0
 39 41  1  0
 40 38  2  0
 43 18  1  0
 43 44  1  0
 45 43  1  0
 46 48  2  0
 46 47  1  0
 47 52  2  0
 49 50  2  0
 49 46  1  0
 50 51  1  0
 51  3  1  0
 51 47  1  0
 53 48  1  0
 54 65  2  0
 55 53  1  0
 55 60  1  0
 56 64  1  0
 56 66  1  0
 57 63  1  0
 57 59  1  0
 58 64  1  0
 59 60  2  0
 59 58  1  0
 61 55  2  0
 62 61  1  0
 62 57  2  0
 63 56  1  0
 64 54  1  0
 66 68  2  0
 67 66  1  0
 69 67  1  0
 70 79  2  0
 70 75  1  0
 71 67  1  0
 71 75  1  0
 72 71  1  0
 73 74  1  0
 73 72  1  0
 74 70  1  0
 75 76  2  0
 76 77  1  0
 78 77  2  0
 79 78  1  0
 80 54  1  0
 80 81  1  0
 80 90  1  0
 81 84  1  0
 82 86  1  0
 82 81  1  0
 83 82  2  0
 86 85  1  0
 88 89  1  0
 88 86  1  0
 88 87  1  0
 90 93  1  1
 90 91  1  0
 92 90  1  0
 94  4  1  0
 95 94  1  0
 96 94  1  0
M  ISO  4   8 100  16 100  48 101  53 101
M  END
>  <TORSDO>  (18) 
F 18

>  <SCORE>  (18) 
-15.428

>  <name>  (18) 
17

>  <ligand_id>  (18) 
17

>  <original_smiles>  (18) 
[H]C(Oc1c([H])c([H])c2c(c1[H])C([H])([H])N(C(=O)C([H])(N([H])C(=O)C([H])(N([H])C([H])([H])[H])C([H])([H])[H])C(C([H])([H])[H])(C([H])([H])[H])C([H])([H])[H])C([H])(C(=O)N([H])C1([H])c3c([H])c([H])c([H])c([H])c3C([H])([H])C([H])([H])C1([H])[H])C2([H])[H])=C1C(=O)N(c2c([H])c(N([H])[H])c(N([H])C(=O)N3C([H])([H])C([H])([H])C([H])([H])C([H])(n4nc(-c5c([H])c([H])c(Oc6c([H])c([H])c(F)c([H])c6F)c([H])c5[H])c(C(=O)N([H])[H])c4N([H])[H])C3([H])[H])c([H])c2F)C([H])([H])C1([H])[H]

>  <smiles>  (18) 
[H]C(Oc1c([H])c([H])c2c(c1[H])C([H])([H])N(C(=O)C([H])(N([H])C(=O)C([H])(N([H])C([H])([H])[H])C([H])([H])[H])C(C([H])([H])[H])(C([H])([H])[H])C([H])([H])[H])C([H])(C(=O)N([H])C1([H])c3c([H])c([H])c([H])c([H])c3C([H])([H])C([H])([H])C1([H])[H])C2([H])[H])=C1C(=O)N(c2c([H])c(N([H])[H])c(N([H])C(=O)N3C([H])([H])C([H])([H])C([H])([H])C([H])(n4nc(-c5c([H])c([H])c(Oc6c([H])c([H])c(F)c([H])c6F)c([H])c5[H])c(C(=O)N([H])[H])c4N([H])[H])C3([H])[H])c([H])c2F)C([H])([H])C1([H])[H]

$$$$
18:0:0
     RDKit          3D

 91100  0  0  1  0  0  0  0  0999 V2000
  -28.5350  -23.5100   19.9900 C   0  0  0  0  0  0  0  0  0  0  0  0
  -28.0720  -22.2480   19.3970 C   0  0  0  0  0  0  0  0  0  0  0  0
  -27.9980  -24.8010   19.7820 C   0  0  0  0  0  3  0  0  0  0  0  0
  -29.6470  -22.6680   20.6910 C   0  0  0  0  0  2  0  0  0  0  0  0
  -28.9540  -21.4320   20.1670 N   0  0  0  0  0  0  0  0  0  0  0  0
  -27.2980  -22.0570   18.4830 O   0  0  0  0  0  0  0  0  0  0  0  0
  -31.1630  -19.0110   18.1970 C   0  0  0  0  0  3  0  0  0  0  0  0
  -30.5310  -20.1560   18.7250 C   0  0  0  0  0  3  0  0  0  0  0  0
  -30.9800  -17.7280   18.7480 C   0  0  0  0  0  3  0  0  0  0  0  0
  -29.5130  -18.7540   20.3780 C   0  0  0  0  0  3  0  0  0  0  0  0
  -29.6480  -20.1250   19.8280 C   0  0  0  0  0  0  0  0  0  0  0  0
  -30.1690  -17.5140   19.8860 C   0  0  0  0  0  0  0  0  0  0  0  0
  -30.6830  -14.8920   20.0260 C   0  0  0  0  0  0  0  0  0  0  0  0
  -30.3920  -12.6290   18.9330 C   0  0  0  0  0  2  0  0  0  0  0  0
  -29.3750  -12.6860   17.7700 C   0  0  0  0  0  2  0  0  0  0  0  0
  -27.9360  -12.4980   18.2860 C   0  0  0  0  0  2  0  0  0  0  0  0
  -27.6440  -13.3470   19.5510 C   0  0  0  0  0  3  0  0  0  0  0  0
  -28.7730  -13.2150   20.5880 C   0  0  0  0  0  2  0  0  0  0  0  0
  -30.0150  -13.6670   19.9370 N   0  0  0  0  0  0  0  0  0  0  0  0
  -31.8310  -14.9260   19.5680 O   0  0  0  0  0  0  0  0  0  0  0  0
  -29.5040  -16.0680   21.8210 C   0  0  0  0  0  1  0  0  0  0  0  0
  -30.0490  -16.0990   20.4590 N   0  0  0  0  0  0  0  0  0  0  0  0
  -25.3170  -13.9310   20.4500 C   0  0  0  0  0  0  0  0  0  0  0  0
  -24.2710  -13.1550   20.8660 C   0  0  0  0  0  0  0  0  0  0  0  0
  -24.7200  -11.8020   20.7710 C   0  0  0  0  0  0  0  0  0  0  0  0
  -26.3350  -13.0510   20.1210 N   0  0  0  0  0  0  0  0  0  0  0  0
  -25.9880  -11.7630   20.3780 N   0  0  0  0  0  0  0  0  0  0  0  0
  -23.9950  -10.5400   20.9750 C   0  0  0  0  0  0  0  0  0  0  0  0
  -24.4590   -9.5580   21.8790 C   0  0  0  0  0  3  0  0  0  0  0  0
  -23.7340   -8.3630   22.0730 C   0  0  0  0  0  3  0  0  0  0  0  0
  -22.5300   -8.1420   21.3620 C   0  0  0  0  0  0  0  0  0  0  0  0
  -22.0840   -9.1110   20.4460 C   0  0  0  0  0  3  0  0  0  0  0  0
  -22.8110  -10.2980   20.2510 C   0  0  0  0  0  3  0  0  0  0  0  0
  -21.7740   -6.9990   21.4650 O   0  0  0  0  0  0  0  0  0  0  0  0
  -21.7380   -6.2610   22.6210 C   0  0  0  0  0  0  0  0  0  0  0  0
  -21.3480   -6.8260   23.8560 C   0  0  0  0  0  3  0  0  0  0  0  0
  -21.2580   -6.0150   25.0040 C   0  0  0  0  0  3  0  0  0  0  0  0
  -21.5500   -4.6410   24.9210 C   0  0  0  0  0  0  0  0  0  0  0  0
  -21.9340   -4.0750   23.6930 C   0  0  0  0  0  3  0  0  0  0  0  0
  -22.0240   -4.8840   22.5460 C   0  0  0  0  0  0  0  0  0  0  0  0
  -22.3750   -4.3290   21.3590 F   0  0  0  0  0  0  0  0  0  0  0  0
  -21.4570   -3.8600   26.0230 F   0  0  0  0  0  0  0  0  0  0  0  0
  -22.8970  -13.6350   21.2360 C   0  0  0  0  0  0  0  0  0  0  0  0
  -22.2230  -12.9270   22.1340 N   0  0  0  0  0  0  0  0  0  0  0  0
  -22.4330  -14.6720   20.7640 O   0  0  0  0  0  0  0  0  0  0  0  0
  -22.6130  -12.0890   22.5380 H   0  0  0  0  0  0  0  0  0  0  0  0
  -21.3030  -13.2290   22.4230 H   0  0  0  0  0  0  0  0  0  0  0  0
  -25.4850  -15.3050   20.3030 N   0  0  0  0  0  0  0  0  0  0  0  0
  -24.7410  -15.9670   20.4930 H   0  0  0  0  0  0  0  0  0  0  0  0
  -26.3330  -15.7460   19.9660 H   0  0  0  0  0  0  0  0  0  0  0  0
  -28.2250  -26.1820   20.2030 O   0  0  0  0  0  0  0  0  0  0  0  0
  -24.6240  -31.8690   23.2240 C   0  0  0  0  0  0  0  0  0  0  0  0
  -27.1750  -27.1730   20.1450 C   0  0  0  0  0  0  0  0  0  0  0  0
  -23.4170  -30.4870   21.5860 C   0  0  0  0  0  3  0  0  0  0  0  0
  -24.8550  -28.9330   20.1490 C   0  0  0  0  0  0  0  0  0  0  0  0
  -25.9750  -30.7410   21.4230 C   0  0  0  0  0  2  0  0  0  0  0  0
  -26.0390  -29.3570   20.7610 C   0  0  0  0  0  0  0  0  0  0  0  0
  -27.1970  -28.4910   20.7540 C   0  0  0  0  0  3  0  0  0  0  0  0
  -25.9530  -26.8640   19.4920 C   0  0  0  0  0  3  0  0  0  0  0  0
  -24.8240  -27.6960   19.5030 C   0  0  0  0  0  3  0  0  0  0  0  0
  -23.6320  -29.8300   20.2020 C   0  0  0  0  0  2  0  0  0  0  0  0
  -24.6930  -31.0510   22.1320 N   0  0  0  0  0  0  0  0  0  0  0  0
  -23.5380  -32.1550   23.7530 O   0  0  0  0  0  0  0  0  0  0  0  0
  -22.7400  -29.4680   22.5380 C   0  0  0  0  0  0  0  0  0  0  0  0
  -21.4140  -29.2870   22.3990 N   0  0  0  0  0  0  0  0  0  0  0  0
  -23.4080  -28.8470   23.3680 O   0  0  0  0  0  0  0  0  0  0  0  0
  -20.9310  -29.8410   21.7050 H   0  0  0  0  0  0  0  0  0  0  0  0
  -18.0390  -28.0550   22.8540 C   0  0  0  0  0  0  0  0  0  0  0  0
  -20.5890  -28.3510   23.1660 C   0  0  0  0  0  3  0  0  0  0  0  0
  -20.7180  -26.9120   22.6130 C   0  0  0  0  0  2  0  0  0  0  0  0
  -19.6390  -26.5620   21.5830 C   0  0  0  0  0  2  0  0  0  0  0  0
  -18.2440  -26.7000   22.1990 C   0  0  0  0  0  2  0  0  0  0  0  0
  -19.1400  -28.8370   23.2940 C   0  0  0  0  0  0  0  0  0  0  0  0
  -18.8940  -30.1040   23.8670 C   0  0  0  0  0  3  0  0  0  0  0  0
  -17.5790  -30.5880   24.0050 C   0  0  0  0  0  3  0  0  0  0  0  0
  -16.4920  -29.8030   23.5810 C   0  0  0  0  0  3  0  0  0  0  0  0
  -16.7230  -28.5390   23.0110 C   0  0  0  0  0  3  0  0  0  0  0  0
  -25.9050  -32.4980   23.8480 C   0  0  0  0  0  3  0  0  0  0  0  0
  -25.5940  -33.8950   24.1880 N   0  0  0  0  0  0  0  0  0  0  0  0
  -25.9140  -34.9550   23.4320 C   0  0  0  0  0  0  0  0  0  0  0  0
  -26.5690  -34.8570   22.3910 O   0  0  0  0  0  0  0  0  0  0  0  0
  -25.0100  -34.0430   24.9980 H   0  0  0  0  0  0  0  0  0  0  0  0
  -24.1730  -36.7450   23.1230 C   0  0  0  0  0  1  0  0  0  0  0  0
  -25.4330  -36.3410   23.9060 C   0  0  0  0  0  3  0  0  0  0  0  0
  -27.5830  -37.2310   24.6890 C   0  0  0  0  0  1  0  0  0  0  0  0
  -26.4600  -37.3980   23.7720 N   0  0  0  0  0  0  0  0  0  0  0  0
  -26.0550  -38.3170   23.9320 H   0  0  0  0  0  0  0  0  0  0  0  0
  -26.4150  -31.7230   25.1250 C   0  0  1  0  0  0  0  0  0  0  0  0
  -25.3190  -31.4900   26.1910 C   0  0  0  0  0  1  0  0  0  0  0  0
  -26.9910  -30.3420   24.7370 C   0  0  0  0  0  1  0  0  0  0  0  0
  -27.5680  -32.5100   25.7880 C   0  0  0  0  0  1  0  0  0  0  0  0
  1  4  1  0
  2  1  1  0
  2  5  1  0
  3  1  2  0
  3 51  1  0
  5  4  1  0
  6  2  2  0
  7  8  2  0
  7  9  1  0
  8 11  1  0
  9 12  2  0
 11  5  1  0
 11 10  2  0
 12 10  1  0
 12 22  1  0
 13 22  1  0
 14 19  1  0
 15 16  1  0
 15 14  1  0
 17 16  1  0
 17 26  1  0
 17 18  1  0
 19 13  1  0
 19 18  1  0
 20 13  2  0
 22 21  1  0
 23 24  2  0
 24 43  1  0
 25 24  1  0
 25 28  1  0
 26 27  1  0
 26 23  1  0
 27 25  2  0
 28 29  1  0
 29 30  2  0
 31 34  1  0
 31 30  1  0
 32 31  2  0
 33 32  1  0
 33 28  2  0
 34 35  1  0
 35 36  1  0
 36 37  2  0
 38 37  1  0
 38 42  1  0
 39 38  2  0
 40 35  2  0
 40 39  1  0
 41 40  1  0
 43 44  1  0
 44 47  1  0
 44 46  1  0
 45 43  2  0
 48 23  1  0
 48 49  1  0
 50 48  1  0
 52 63  2  0
 53 51  1  0
 53 58  1  0
 54 62  1  0
 54 64  1  0
 55 61  1  0
 55 57  1  0
 56 62  1  0
 57 56  1  0
 58 57  2  0
 59 60  1  0
 59 53  2  0
 60 55  2  0
 61 54  1  0
 62 52  1  0
 64 66  2  0
 65 64  1  0
 67 65  1  0
 68 77  2  0
 68 73  1  0
 69 65  1  0
 69 73  1  0
 70 69  1  0
 71 72  1  0
 71 70  1  0
 72 68  1  0
 73 74  2  0
 74 75  1  0
 76 75  2  0
 77 76  1  0
 78 52  1  0
 78 79  1  0
 78 88  1  0
 79 82  1  0
 80 84  1  0
 80 79  1  0
 81 80  2  0
 84 83  1  0
 86 84  1  0
 86 87  1  0
 86 85  1  0
 88 91  1  1
 88 89  1  0
 90 88  1  0
M  ISO  4   3 101  13 100  22 100  51 101
M  END
>  <TORSDO>  (19) 
F 17

>  <SCORE>  (19) 
-14.634

>  <name>  (19) 
18

>  <ligand_id>  (19) 
18

>  <original_smiles>  (19) 
[H]C(Oc1c([H])c([H])c2c(c1[H])C([H])([H])N(C(=O)C([H])(N([H])C(=O)C([H])(N([H])C([H])([H])[H])C([H])([H])[H])C(C([H])([H])[H])(C([H])([H])[H])C([H])([H])[H])C([H])(C(=O)N([H])C1([H])c3c([H])c([H])c([H])c([H])c3C([H])([H])C([H])([H])C1([H])[H])C2([H])[H])=C1C(=O)N(c2c([H])c([H])c([H])c(N(C(=O)N3C([H])([H])C([H])([H])C([H])([H])C([H])(n4nc(-c5c([H])c([H])c(Oc6c([H])c([H])c(F)c([H])c6F)c([H])c5[H])c(C(=O)N([H])[H])c4N([H])[H])C3([H])[H])C([H])([H])[H])c2[H])C1([H])[H]

>  <smiles>  (19) 
[H]C(Oc1c([H])c([H])c2c(c1[H])C([H])([H])N(C(=O)C([H])(N([H])C(=O)C([H])(N([H])C([H])([H])[H])C([H])([H])[H])C(C([H])([H])[H])(C([H])([H])[H])C([H])([H])[H])C([H])(C(=O)N([H])C1([H])c3c([H])c([H])c([H])c([H])c3C([H])([H])C([H])([H])C1([H])[H])C2([H])[H])=C1C(=O)N(c2c([H])c([H])c([H])c(N(C(=O)N3C([H])([H])C([H])([H])C([H])([H])C([H])(n4nc(-c5c([H])c([H])c(Oc6c([H])c([H])c(F)c([H])c6F)c([H])c5[H])c(C(=O)N([H])[H])c4N([H])[H])C3([H])[H])C([H])([H])[H])c2[H])C1([H])[H]

$$$$
19:0:0
     RDKit          3D

 94102  0  0  1  0  0  0  0  0999 V2000
  -28.9370  -22.9590   21.0920 C   0  0  0  0  0  0  0  0  0  0  0  0
  -28.7000  -21.6840   20.9110 N   0  0  0  0  0  0  0  0  0  0  0  0
  -29.5480  -20.6250   21.3210 C   0  0  0  0  0  0  0  0  0  0  0  0
  -30.4310  -20.6750   22.1770 O   0  0  0  0  0  0  0  0  0  0  0  0
  -28.6580  -18.0420   18.6270 C   0  0  0  0  0  3  0  0  0  0  0  0
  -28.7720  -19.2450   19.3440 C   0  0  0  0  0  3  0  0  0  0  0  0
  -29.1240  -16.8380   19.1740 C   0  0  0  0  0  3  0  0  0  0  0  0
  -29.7840  -18.0290   21.2000 C   0  0  0  0  0  3  0  0  0  0  0  0
  -29.3460  -19.2760   20.6320 C   0  0  0  0  0  0  0  0  0  0  0  0
  -29.6850  -16.8010   20.4690 C   0  0  0  0  0  0  0  0  0  0  0  0
  -30.6850  -14.5400   20.3210 C   0  0  0  0  0  0  0  0  0  0  0  0
  -30.3860  -12.3800   19.1480 C   0  0  0  0  0  2  0  0  0  0  0  0
  -29.4300  -12.5920   17.9520 C   0  0  0  0  0  2  0  0  0  0  0  0
  -27.9550  -12.4610   18.3870 C   0  0  0  0  0  2  0  0  0  0  0  0
  -27.6360  -13.2630   19.6780 C   0  0  0  0  0  3  0  0  0  0  0  0
  -28.7070  -13.0290   20.7690 C   0  0  0  0  0  2  0  0  0  0  0  0
  -30.0270  -13.3490   20.2010 N   0  0  0  0  0  0  0  0  0  0  0  0
  -31.7660  -14.7560   19.7620 O   0  0  0  0  0  0  0  0  0  0  0  0
  -30.0470  -15.5180   21.0160 N   0  0  0  0  0  0  0  0  0  0  0  0
  -29.3810  -15.1550   21.6830 H   0  0  0  0  0  0  0  0  0  0  0  0
  -25.2510  -13.8740   20.4260 C   0  0  0  0  0  0  0  0  0  0  0  0
  -24.1860  -13.1030   20.8120 C   0  0  0  0  0  0  0  0  0  0  0  0
  -24.6420  -11.7500   20.7690 C   0  0  0  0  0  0  0  0  0  0  0  0
  -26.2890  -12.9900   20.1740 N   0  0  0  0  0  0  0  0  0  0  0  0
  -25.9270  -11.7080   20.4370 N   0  0  0  0  0  0  0  0  0  0  0  0
  -23.9170  -10.4900   20.9710 C   0  0  0  0  0  0  0  0  0  0  0  0
  -24.3510   -9.5260   21.9080 C   0  0  0  0  0  3  0  0  0  0  0  0
  -23.6240   -8.3310   22.0990 C   0  0  0  0  0  3  0  0  0  0  0  0
  -22.4460   -8.0920   21.3510 C   0  0  0  0  0  0  0  0  0  0  0  0
  -22.0300   -9.0440   20.4030 C   0  0  0  0  0  3  0  0  0  0  0  0
  -22.7590  -10.2300   20.2110 C   0  0  0  0  0  3  0  0  0  0  0  0
  -21.6920   -6.9470   21.4470 O   0  0  0  0  0  0  0  0  0  0  0  0
  -21.6350   -6.2170   22.6070 C   0  0  0  0  0  0  0  0  0  0  0  0
  -21.1970   -6.7870   23.8220 C   0  0  0  0  0  3  0  0  0  0  0  0
  -21.0870   -5.9830   24.9740 C   0  0  0  0  0  3  0  0  0  0  0  0
  -21.4030   -4.6130   24.9130 C   0  0  0  0  0  0  0  0  0  0  0  0
  -21.8310   -4.0440   23.7010 C   0  0  0  0  0  3  0  0  0  0  0  0
  -21.9430   -4.8430   22.5490 C   0  0  0  0  0  0  0  0  0  0  0  0
  -22.3360   -4.2840   21.3800 F   0  0  0  0  0  0  0  0  0  0  0  0
  -21.2890   -3.8400   26.0180 F   0  0  0  0  0  0  0  0  0  0  0  0
  -22.7950  -13.5860   21.1080 C   0  0  0  0  0  0  0  0  0  0  0  0
  -22.0760  -12.8930   21.9810 N   0  0  0  0  0  0  0  0  0  0  0  0
  -22.3540  -14.6150   20.5970 O   0  0  0  0  0  0  0  0  0  0  0  0
  -22.4460  -12.0670   22.4270 H   0  0  0  0  0  0  0  0  0  0  0  0
  -21.1420  -13.2010   22.2140 H   0  0  0  0  0  0  0  0  0  0  0  0
  -25.4190  -15.2430   20.2580 N   0  0  0  0  0  0  0  0  0  0  0  0
  -24.6610  -15.9040   20.3950 H   0  0  0  0  0  0  0  0  0  0  0  0
  -26.2780  -15.6880   19.9550 H   0  0  0  0  0  0  0  0  0  0  0  0
  -27.9430  -24.0700   20.6310 C   0  0  0  0  0  0  0  0  0  0  0  0
  -26.7370  -23.9670   20.8820 O   0  0  0  0  0  0  0  0  0  0  0  0
  -28.4240  -25.2540   19.7210 C   0  0  0  0  0  2  0  0  0  0  0  0
  -28.3250  -26.6040   20.2800 O   0  0  0  0  0  0  0  0  0  0  0  0
  -24.5770  -31.9010   23.2350 C   0  0  0  0  0  0  0  0  0  0  0  0
  -27.1700  -27.3750   20.1850 C   0  0  0  0  0  0  0  0  0  0  0  0
  -23.3600  -30.5120   21.5900 C   0  0  0  0  0  3  0  0  0  0  0  0
  -24.7980  -28.9550   20.1580 C   0  0  0  0  0  0  0  0  0  0  0  0
  -25.8910  -30.8330   21.3940 C   0  0  0  0  0  2  0  0  0  0  0  0
  -25.9610  -29.4540   20.7570 C   0  0  0  0  0  0  0  0  0  0  0  0
  -27.1420  -28.6690   20.7730 C   0  0  0  0  0  3  0  0  0  0  0  0
  -25.9910  -26.9140   19.5530 C   0  0  0  0  0  3  0  0  0  0  0  0
  -24.8150  -27.6890   19.5430 C   0  0  0  0  0  3  0  0  0  0  0  0
  -23.5610  -29.8290   20.2070 C   0  0  0  0  0  2  0  0  0  0  0  0
  -24.6290  -31.1000   22.1320 N   0  0  0  0  0  0  0  0  0  0  0  0
  -23.4960  -32.1810   23.7730 O   0  0  0  0  0  0  0  0  0  0  0  0
  -22.6990  -29.4970   22.5530 C   0  0  0  0  0  0  0  0  0  0  0  0
  -21.3710  -29.3270   22.4320 N   0  0  0  0  0  0  0  0  0  0  0  0
  -23.3800  -28.8640   23.3650 O   0  0  0  0  0  0  0  0  0  0  0  0
  -20.8790  -29.9000   21.7590 H   0  0  0  0  0  0  0  0  0  0  0  0
  -17.9900  -28.1570   22.9510 C   0  0  0  0  0  0  0  0  0  0  0  0
  -20.5520  -28.3890   23.2010 C   0  0  0  0  0  3  0  0  0  0  0  0
  -20.6330  -26.9590   22.6200 C   0  0  0  0  0  2  0  0  0  0  0  0
  -19.5230  -26.6530   21.6100 C   0  0  0  0  0  2  0  0  0  0  0  0
  -18.1460  -26.8090   22.2640 C   0  0  0  0  0  2  0  0  0  0  0  0
  -19.1190  -28.9050   23.3760 C   0  0  0  0  0  0  0  0  0  0  0  0
  -18.9170  -30.1680   23.9750 C   0  0  0  0  0  3  0  0  0  0  0  0
  -17.6190  -30.6820   24.1490 C   0  0  0  0  0  3  0  0  0  0  0  0
  -16.5050  -29.9310   23.7370 C   0  0  0  0  0  3  0  0  0  0  0  0
  -16.6910  -28.6680   23.1470 C   0  0  0  0  0  3  0  0  0  0  0  0
  -25.8670  -32.5250   23.8570 C   0  0  0  0  0  3  0  0  0  0  0  0
  -25.5660  -33.9250   24.1930 N   0  0  0  0  0  0  0  0  0  0  0  0
  -25.9040  -34.9760   23.4330 C   0  0  0  0  0  0  0  0  0  0  0  0
  -26.5690  -34.8710   22.4010 O   0  0  0  0  0  0  0  0  0  0  0  0
  -24.9820  -34.0850   24.9990 H   0  0  0  0  0  0  0  0  0  0  0  0
  -24.1830  -36.7770   23.0850 C   0  0  0  0  0  1  0  0  0  0  0  0
  -25.4240  -36.3670   23.8940 C   0  0  0  0  0  3  0  0  0  0  0  0
  -27.5640  -37.2380   24.7220 C   0  0  0  0  0  1  0  0  0  0  0  0
  -26.4630  -37.4140   23.7810 N   0  0  0  0  0  0  0  0  0  0  0  0
  -26.0610  -38.3360   23.9260 H   0  0  0  0  0  0  0  0  0  0  0  0
  -26.3840  -31.7490   25.1300 C   0  0  1  0  0  0  0  0  0  0  0  0
  -25.2950  -31.5100   26.2010 C   0  0  0  0  0  1  0  0  0  0  0  0
  -26.9620  -30.3720   24.7280 C   0  0  0  0  0  1  0  0  0  0  0  0
  -27.5420  -32.5330   25.7890 C   0  0  0  0  0  1  0  0  0  0  0  0
  -30.0610  -23.5800   23.3400 C   0  0  0  0  0  1  0  0  0  0  0  0
  -30.1760  -23.5390   21.8000 C   0  0  0  0  0  2  0  0  0  0  0  0
  1 94  1  0
  2  1  2  0
  2  3  1  0
  3  4  2  0
  5  7  2  0
  5  6  1  0
  6  9  2  0
  7 10  1  0
  9  8  1  0
  9  3  1  0
 10 19  1  0
 10  8  2  0
 11 19  1  0
 12 17  1  0
 13 14  1  0
 13 12  1  0
 15 14  1  0
 15 24  1  0
 15 16  1  0
 17 11  1  0
 17 16  1  0
 18 11  2  0
 19 20  1  0
 21 22  2  0
 22 41  1  0
 23 22  1  0
 23 26  1  0
 24 21  1  0
 24 25  1  0
 25 23  2  0
 26 27  1  0
 27 28  2  0
 29 32  1  0
 29 28  1  0
 30 29  2  0
 31 30  1  0
 31 26  2  0
 32 33  1  0
 33 34  1  0
 34 35  2  0
 36 35  1  0
 36 40  1  0
 37 36  2  0
 38 33  2  0
 38 37  1  0
 39 38  1  0
 41 42  1  0
 42 45  1  0
 42 44  1  0
 43 41  2  0
 46 47  1  0
 46 21  1  0
 48 46  1  0
 49 50  2  0
 49  1  1  0
 51 52  1  0
 51 49  1  0
 53 64  2  0
 54 52  1  0
 54 59  1  0
 55 63  1  0
 55 65  1  0
 56 62  1  0
 56 58  1  0
 57 63  1  0
 58 59  2  0
 58 57  1  0
 60 54  2  0
 61 60  1  0
 61 56  2  0
 62 55  1  0
 63 53  1  0
 65 67  2  0
 66 65  1  0
 68 66  1  0
 69 78  2  0
 69 74  1  0
 70 66  1  0
 70 74  1  0
 71 70  1  0
 72 73  1  0
 72 71  1  0
 73 69  1  0
 74 75  2  0
 75 76  1  0
 77 76  2  0
 78 77  1  0
 79 53  1  0
 79 80  1  0
 79 89  1  0
 80 83  1  0
 81 85  1  0
 81 80  1  0
 82 81  2  0
 85 84  1  0
 87 85  1  0
 87 88  1  0
 87 86  1  0
 89 92  1  1
 89 90  1  0
 91 89  1  0
 94 93  1  0
M  ISO  4  11 100  19 100  51 101  52 101
M  END
>  <TORSDO>  (20) 
F 21

>  <SCORE>  (20) 
-13.766

>  <name>  (20) 
19

>  <ligand_id>  (20) 
19

>  <original_smiles>  (20) 
[H]c1c([H])c(C(=O)N=C(C(=O)C([H])([H])Oc2c([H])c([H])c3c(c2[H])C([H])([H])N(C(=O)C([H])(N([H])C(=O)C([H])(N([H])C([H])([H])[H])C([H])([H])[H])C(C([H])([H])[H])(C([H])([H])[H])C([H])([H])[H])C([H])(C(=O)N([H])C2([H])c4c([H])c([H])c([H])c([H])c4C([H])([H])C([H])([H])C2([H])[H])C3([H])[H])C([H])([H])C([H])([H])[H])c([H])c(N([H])C(=O)N2C([H])([H])C([H])([H])C([H])([H])C([H])(n3nc(-c4c([H])c([H])c(Oc5c([H])c([H])c(F)c([H])c5F)c([H])c4[H])c(C(=O)N([H])[H])c3N([H])[H])C2([H])[H])c1[H]

>  <smiles>  (20) 
[H]c1c([H])c(C(=O)N=C(C(=O)C([H])([H])Oc2c([H])c([H])c3c(c2[H])C([H])([H])N(C(=O)C([H])(N([H])C(=O)C([H])(N([H])C([H])([H])[H])C([H])([H])[H])C(C([H])([H])[H])(C([H])([H])[H])C([H])([H])[H])C([H])(C(=O)N([H])C2([H])c4c([H])c([H])c([H])c([H])c4C([H])([H])C([H])([H])C2([H])[H])C3([H])[H])C([H])([H])C([H])([H])[H])c([H])c(N([H])C(=O)N2C([H])([H])C([H])([H])C([H])([H])C([H])(n3nc(-c4c([H])c([H])c(Oc5c([H])c([H])c(F)c([H])c5F)c([H])c4[H])c(C(=O)N([H])[H])c3N([H])[H])C2([H])[H])c1[H]

$$$$
20:0:0
     RDKit          3D

 95104  0  0  1  0  0  0  0  0999 V2000
  -28.5160  -24.0180   20.8310 C   0  0  0  0  0  0  0  0  0  0  0  0
  -28.1010  -23.2730   22.0150 C   0  0  0  0  0  0  0  0  0  0  0  0
  -29.1810  -22.9970   19.9530 C   0  0  0  0  0  0  0  0  0  0  0  0
  -28.2080  -25.3870   20.8010 C   0  0  0  0  0  3  0  0  0  0  0  0
  -28.5310  -21.8300   21.8920 C   0  0  0  0  0  2  0  0  0  0  0  0
  -29.1520  -21.7410   20.5740 N   0  0  0  0  0  0  0  0  0  0  0  0
  -27.4930  -23.7000   23.0040 O   0  0  0  0  0  0  0  0  0  0  0  0
  -29.6760  -23.2020   18.8390 O   0  0  0  0  0  0  0  0  0  0  0  0
  -28.7490  -19.3640   19.7170 C   0  0  0  0  0  3  0  0  0  0  0  0
  -29.0830  -17.9640   19.7150 C   0  0  0  0  0  3  0  0  0  0  0  0
  -31.2330  -18.4840   20.6090 C   0  0  0  0  0  3  0  0  0  0  0  0
  -29.6310  -20.3790   20.1980 C   0  0  0  0  0  0  0  0  0  0  0  0
  -30.3250  -17.4570   20.2010 C   0  0  0  0  0  0  0  0  0  0  0  0
  -30.9020  -19.8850   20.6180 C   0  0  0  0  0  0  0  0  0  0  0  0
  -31.7960  -20.7600   21.1390 F   0  0  0  0  0  0  0  0  0  0  0  0
  -31.0350  -14.9790   19.7710 C   0  0  0  0  0  0  0  0  0  0  0  0
  -30.7080  -12.7360   18.6760 C   0  0  0  0  0  2  0  0  0  0  0  0
  -29.6230  -12.8070   17.5760 C   0  0  0  0  0  2  0  0  0  0  0  0
  -28.2200  -12.5960   18.1750 C   0  0  0  0  0  2  0  0  0  0  0  0
  -27.9880  -13.4520   19.4450 C   0  0  0  0  0  3  0  0  0  0  0  0
  -29.1700  -13.3370   20.4270 C   0  0  0  0  0  2  0  0  0  0  0  0
  -30.3930  -13.7500   19.7150 N   0  0  0  0  0  0  0  0  0  0  0  0
  -32.0640  -15.1490   19.1090 O   0  0  0  0  0  0  0  0  0  0  0  0
  -30.5240  -16.0150   20.5630 N   0  0  0  0  0  0  0  0  0  0  0  0
  -25.7560  -14.0040   20.5850 C   0  0  0  0  0  0  0  0  0  0  0  0
  -24.7220  -13.2160   21.0110 C   0  0  0  0  0  0  0  0  0  0  0  0
  -25.1170  -11.8690   20.7460 C   0  0  0  0  0  0  0  0  0  0  0  0
  -26.7150  -13.1370   20.0890 N   0  0  0  0  0  0  0  0  0  0  0  0
  -26.3460  -11.8390   20.2460 N   0  0  0  0  0  0  0  0  0  0  0  0
  -24.3720  -10.6110   20.8890 C   0  0  0  0  0  0  0  0  0  0  0  0
  -24.8080   -9.5880   21.7580 C   0  0  0  0  0  3  0  0  0  0  0  0
  -24.0640   -8.3950   21.8920 C   0  0  0  0  0  3  0  0  0  0  0  0
  -22.8700   -8.2190   21.1550 C   0  0  0  0  0  0  0  0  0  0  0  0
  -22.4510   -9.2300   20.2720 C   0  0  0  0  0  3  0  0  0  0  0  0
  -23.1960  -10.4150   20.1370 C   0  0  0  0  0  3  0  0  0  0  0  0
  -22.0960   -7.0840   21.2010 O   0  0  0  0  0  0  0  0  0  0  0  0
  -21.9310   -6.3720   22.3610 C   0  0  0  0  0  0  0  0  0  0  0  0
  -21.4060   -6.9650   23.5310 C   0  0  0  0  0  3  0  0  0  0  0  0
  -21.1870   -6.1800   24.6790 C   0  0  0  0  0  3  0  0  0  0  0  0
  -21.4810   -4.8040   24.6600 C   0  0  0  0  0  0  0  0  0  0  0  0
  -21.9980   -4.2100   23.4950 C   0  0  0  0  0  3  0  0  0  0  0  0
  -22.2200   -4.9930   22.3480 C   0  0  0  0  0  0  0  0  0  0  0  0
  -22.6980   -4.4120   21.2220 F   0  0  0  0  0  0  0  0  0  0  0  0
  -21.2620   -4.0480   25.7610 F   0  0  0  0  0  0  0  0  0  0  0  0
  -23.4000  -13.6910   21.5430 C   0  0  0  0  0  0  0  0  0  0  0  0
  -22.8000  -12.9320   22.4530 N   0  0  0  0  0  0  0  0  0  0  0  0
  -22.9160  -14.7650   21.1880 O   0  0  0  0  0  0  0  0  0  0  0  0
  -23.2090  -12.0620   22.7580 H   0  0  0  0  0  0  0  0  0  0  0  0
  -21.9200  -13.2270   22.8510 H   0  0  0  0  0  0  0  0  0  0  0  0
  -25.9500  -15.3810   20.5560 N   0  0  0  0  0  0  0  0  0  0  0  0
  -25.2360  -16.0340   20.8600 H   0  0  0  0  0  0  0  0  0  0  0  0
  -26.7680  -15.8360   20.1730 H   0  0  0  0  0  0  0  0  0  0  0  0
  -30.3450  -16.6610   22.9360 C   0  0  0  0  0  2  0  0  0  0  0  0
  -30.5950  -15.7720   21.9540 C   0  0  0  0  0  3  0  0  0  0  0  0
  -28.3940  -26.5010   19.9420 O   0  0  0  0  0  0  0  0  0  0  0  0
  -24.6830  -31.8790   23.1550 C   0  0  0  0  0  0  0  0  0  0  0  0
  -27.3380  -27.4380   19.9300 C   0  0  0  0  0  0  0  0  0  0  0  0
  -23.4940  -30.5300   21.4650 C   0  0  0  0  0  3  0  0  0  0  0  0
  -24.9640  -29.0490   19.9760 C   0  0  0  0  0  0  0  0  0  0  0  0
  -26.0330  -30.8780   21.2910 C   0  0  0  0  0  2  0  0  0  0  0  0
  -26.1310  -29.5200   20.5930 C   0  0  0  0  0  0  0  0  0  0  0  0
  -27.3240  -28.7280   20.5620 C   0  0  0  0  0  3  0  0  0  0  0  0
  -26.1510  -27.0310   19.2890 C   0  0  0  0  0  3  0  0  0  0  0  0
  -24.9780  -27.8120   19.3130 C   0  0  0  0  0  3  0  0  0  0  0  0
  -23.7180  -29.9090   20.0590 C   0  0  0  0  0  2  0  0  0  0  0  0
  -24.7560  -31.1110   22.0280 N   0  0  0  0  0  0  0  0  0  0  0  0
  -23.5960  -32.1230   23.7000 O   0  0  0  0  0  0  0  0  0  0  0  0
  -22.8410  -29.4720   22.3860 C   0  0  0  0  0  0  0  0  0  0  0  0
  -21.5100  -29.3110   22.2800 N   0  0  0  0  0  0  0  0  0  0  0  0
  -23.5300  -28.8010   23.1590 O   0  0  0  0  0  0  0  0  0  0  0  0
  -21.0120  -29.9070   21.6340 H   0  0  0  0  0  0  0  0  0  0  0  0
  -18.1320  -28.1270   22.8070 C   0  0  0  0  0  0  0  0  0  0  0  0
  -20.6990  -28.3430   23.0220 C   0  0  0  0  0  3  0  0  0  0  0  0
  -20.7670  -26.9440   22.3680 C   0  0  0  0  0  2  0  0  0  0  0  0
  -19.6350  -26.6920   21.3660 C   0  0  0  0  0  2  0  0  0  0  0  0
  -18.2730  -26.8150   22.0530 C   0  0  0  0  0  2  0  0  0  0  0  0
  -19.2700  -28.8510   23.2490 C   0  0  0  0  0  0  0  0  0  0  0  0
  -19.0820  -30.0810   23.9160 C   0  0  0  0  0  3  0  0  0  0  0  0
  -17.7880  -30.5850   24.1470 C   0  0  0  0  0  3  0  0  0  0  0  0
  -16.6640  -29.8560   23.7210 C   0  0  0  0  0  3  0  0  0  0  0  0
  -16.8380  -28.6290   23.0560 C   0  0  0  0  0  3  0  0  0  0  0  0
  -25.9570  -32.5040   23.8010 C   0  0  0  0  0  3  0  0  0  0  0  0
  -25.6140  -33.8650   24.2380 N   0  0  0  0  0  0  0  0  0  0  0  0
  -25.8890  -34.9800   23.5460 C   0  0  0  0  0  0  0  0  0  0  0  0
  -26.5290  -34.9700   22.4910 O   0  0  0  0  0  0  0  0  0  0  0  0
  -25.0400  -33.9430   25.0650 H   0  0  0  0  0  0  0  0  0  0  0  0
  -24.0990  -36.7370   23.3720 C   0  0  0  0  0  1  0  0  0  0  0  0
  -25.3750  -36.3160   24.1160 C   0  0  0  0  0  3  0  0  0  0  0  0
  -27.5100  -37.2060   24.9440 C   0  0  0  0  0  1  0  0  0  0  0  0
  -26.3720  -37.4080   24.0510 N   0  0  0  0  0  0  0  0  0  0  0  0
  -25.9440  -38.3000   24.2800 H   0  0  0  0  0  0  0  0  0  0  0  0
  -26.5150  -31.6580   25.0110 C   0  0  1  0  0  0  0  0  0  0  0  0
  -25.4450  -31.3010   26.0690 C   0  0  0  0  0  1  0  0  0  0  0  0
  -27.1430  -30.3380   24.5110 C   0  0  0  0  0  1  0  0  0  0  0  0
  -27.6450  -32.4430   25.7210 C   0  0  0  0  0  1  0  0  0  0  0  0
  1  2  1  0
  2  7  2  0
  3  6  1  0
  3  1  1  0
  4  1  2  0
  5  2  1  0
  6  5  1  0
  8  3  2  0
  9 12  1  0
 10  9  2  0
 10 13  1  0
 11 14  1  0
 12  6  1  0
 12 14  2  0
 13 24  1  0
 13 11  2  0
 14 15  1  0
 16 24  1  0
 17 22  1  0
 18 19  1  0
 18 17  1  0
 20 19  1  0
 20 28  1  0
 20 21  1  0
 22 16  1  0
 22 21  1  0
 23 16  2  0
 24 54  1  0
 25 26  2  0
 26 45  1  0
 27 30  1  0
 27 26  1  0
 28 29  1  0
 28 25  1  0
 29 27  2  0
 30 31  1  0
 31 32  2  0
 33 36  1  0
 33 32  1  0
 34 33  2  0
 35 34  1  0
 35 30  2  0
 36 37  1  0
 37 38  1  0
 38 39  2  0
 40 39  1  0
 40 44  1  0
 41 40  2  0
 42 37  2  0
 42 41  1  0
 43 42  1  0
 45 46  1  0
 46 48  1  0
 46 49  1  0
 47 45  2  0
 50 25  1  0
 50 51  1  0
 52 50  1  0
 54 53  2  0
 55  4  1  0
 56 67  2  0
 57 55  1  0
 57 62  1  0
 58 66  1  0
 58 68  1  0
 59 65  1  0
 59 61  1  0
 60 66  1  0
 61 60  1  0
 62 61  2  0
 63 64  1  0
 63 57  2  0
 64 59  2  0
 65 58  1  0
 66 56  1  0
 68 70  2  0
 69 68  1  0
 71 69  1  0
 72 81  2  0
 72 77  1  0
 73 69  1  0
 73 77  1  0
 74 73  1  0
 75 76  1  0
 75 74  1  0
 76 72  1  0
 77 78  2  0
 78 79  1  0
 80 79  2  0
 81 80  1  0
 82 56  1  0
 82 83  1  0
 82 92  1  0
 83 86  1  0
 84 88  1  0
 84 83  1  0
 85 84  2  0
 88 87  1  0
 90 88  1  0
 90 91  1  0
 90 89  1  0
 92 95  1  1
 92 93  1  0
 94 92  1  0
M  ISO  4   4 101  16 100  24 100  55 101
M  END
>  <TORSDO>  (21) 
F 18

>  <SCORE>  (21) 
-11.855

>  <name>  (21) 
20

>  <ligand_id>  (21) 
20

>  <original_smiles>  (21) 
[H]C([H])=C([H])N(C(=O)N1C([H])([H])C([H])([H])C([H])([H])C([H])(n2nc(-c3c([H])c([H])c(Oc4c([H])c([H])c(F)c([H])c4F)c([H])c3[H])c(C(=O)N([H])[H])c2N([H])[H])C1([H])[H])c1c([H])c([H])c(N2C(=O)C(=C([H])Oc3c([H])c([H])c4c(c3[H])C([H])([H])N(C(=O)C([H])(N([H])C(=O)C([H])(N([H])C([H])([H])[H])C([H])([H])[H])C(C([H])([H])[H])(C([H])([H])[H])C([H])([H])[H])C([H])(C(=O)N([H])C3([H])c5c([H])c([H])c([H])c([H])c5C([H])([H])C([H])([H])C3([H])[H])C4([H])[H])C(=O)C2([H])[H])c(F)c1[H]

>  <smiles>  (21) 
[H]C([H])=C([H])N(C(=O)N1C([H])([H])C([H])([H])C([H])([H])C([H])(n2nc(-c3c([H])c([H])c(Oc4c([H])c([H])c(F)c([H])c4F)c([H])c3[H])c(C(=O)N([H])[H])c2N([H])[H])C1([H])[H])c1c([H])c([H])c(N2C(=O)C(=C([H])Oc3c([H])c([H])c4c(c3[H])C([H])([H])N(C(=O)C([H])(N([H])C(=O)C([H])(N([H])C([H])([H])[H])C([H])([H])[H])C(C([H])([H])[H])(C([H])([H])[H])C([H])([H])[H])C([H])(C(=O)N([H])C3([H])c5c([H])c([H])c([H])c([H])c5C([H])([H])C([H])([H])C3([H])[H])C4([H])[H])C(=O)C2([H])[H])c(F)c1[H]

$$$$
21:0:0
     RDKit          3D

 91 99  0  0  1  0  0  0  0  0999 V2000
  -29.6290  -21.6270   19.6520 C   0  0  0  0  0  0  0  0  0  0  0  0
  -30.2760  -21.9040   18.6370 O   0  0  0  0  0  0  0  0  0  0  0  0
  -28.5220  -19.3590   20.3320 C   0  0  0  0  0  3  0  0  0  0  0  0
  -28.5790  -17.9440   20.5350 C   0  0  0  0  0  3  0  0  0  0  0  0
  -30.9580  -17.9700   20.2390 C   0  0  0  0  0  3  0  0  0  0  0  0
  -29.6850  -20.1320   20.0700 C   0  0  0  0  0  0  0  0  0  0  0  0
  -29.7900  -17.1930   20.4700 C   0  0  0  0  0  0  0  0  0  0  0  0
  -30.9090  -19.3900   20.0500 C   0  0  0  0  0  0  0  0  0  0  0  0
  -32.0770  -20.0350   19.8110 F   0  0  0  0  0  0  0  0  0  0  0  0
  -30.5690  -14.6860   20.3130 C   0  0  0  0  0  0  0  0  0  0  0  0
  -30.3790  -12.4400   19.2500 C   0  0  0  0  0  2  0  0  0  0  0  0
  -29.4190  -12.5630   18.0460 C   0  0  0  0  0  2  0  0  0  0  0  0
  -27.9500  -12.3970   18.4880 C   0  0  0  0  0  2  0  0  0  0  0  0
  -27.6020  -13.2490   19.7370 C   0  0  0  0  0  3  0  0  0  0  0  0
  -28.6740  -13.0900   20.8390 C   0  0  0  0  0  2  0  0  0  0  0  0
  -29.9730  -13.4510   20.2490 N   0  0  0  0  0  0  0  0  0  0  0  0
  -31.7310  -14.8510   19.9280 O   0  0  0  0  0  0  0  0  0  0  0  0
  -29.7390  -15.7300   20.6560 N   0  0  0  0  0  0  0  0  0  0  0  0
  -28.8400  -15.3930   20.9590 H   0  0  0  0  0  0  0  0  0  0  0  0
  -25.2150  -13.8450   20.4760 C   0  0  0  0  0  0  0  0  0  0  0  0
  -24.1530  -13.0690   20.8590 C   0  0  0  0  0  0  0  0  0  0  0  0
  -24.6190  -11.7200   20.8270 C   0  0  0  0  0  0  0  0  0  0  0  0
  -26.2590  -12.9650   20.2340 N   0  0  0  0  0  0  0  0  0  0  0  0
  -25.9060  -11.6830   20.5060 N   0  0  0  0  0  0  0  0  0  0  0  0
  -23.8970  -10.4560   21.0270 C   0  0  0  0  0  0  0  0  0  0  0  0
  -24.3450   -9.4900   21.9550 C   0  0  0  0  0  3  0  0  0  0  0  0
  -23.6230   -8.2900   22.1420 C   0  0  0  0  0  3  0  0  0  0  0  0
  -22.4420   -8.0490   21.4020 C   0  0  0  0  0  0  0  0  0  0  0  0
  -22.0140   -9.0040   20.4640 C   0  0  0  0  0  3  0  0  0  0  0  0
  -22.7350  -10.1950   20.2730 C   0  0  0  0  0  3  0  0  0  0  0  0
  -21.6920   -6.9020   21.5000 O   0  0  0  0  0  0  0  0  0  0  0  0
  -21.6670   -6.1540   22.6490 C   0  0  0  0  0  0  0  0  0  0  0  0
  -21.2630   -6.7040   23.8860 C   0  0  0  0  0  3  0  0  0  0  0  0
  -21.1830   -5.8820   25.0280 C   0  0  0  0  0  3  0  0  0  0  0  0
  -21.4970   -4.5130   24.9350 C   0  0  0  0  0  0  0  0  0  0  0  0
  -21.8950   -3.9630   23.7030 C   0  0  0  0  0  3  0  0  0  0  0  0
  -21.9750   -4.7820   22.5630 C   0  0  0  0  0  0  0  0  0  0  0  0
  -22.3380   -4.2430   21.3730 F   0  0  0  0  0  0  0  0  0  0  0  0
  -21.4150   -3.7210   26.0300 F   0  0  0  0  0  0  0  0  0  0  0  0
  -22.7570  -13.5440   21.1410 C   0  0  0  0  0  0  0  0  0  0  0  0
  -22.0380  -12.8490   22.0160 N   0  0  0  0  0  0  0  0  0  0  0  0
  -22.3110  -14.5650   20.6200 O   0  0  0  0  0  0  0  0  0  0  0  0
  -22.4120  -12.0230   22.4600 H   0  0  0  0  0  0  0  0  0  0  0  0
  -21.1020  -13.1500   22.2470 H   0  0  0  0  0  0  0  0  0  0  0  0
  -25.3730  -15.2150   20.2920 N   0  0  0  0  0  0  0  0  0  0  0  0
  -24.5980  -15.8600   20.3960 H   0  0  0  0  0  0  0  0  0  0  0  0
  -26.1940  -15.6470   19.8880 H   0  0  0  0  0  0  0  0  0  0  0  0
  -28.9260  -23.8610   20.0320 C   0  0  0  0  0  3  0  0  0  0  0  0
  -28.9090  -22.5980   20.4090 N   0  0  0  0  0  0  0  0  0  0  0  0
  -28.1360  -25.0580   20.7030 C   0  0  0  0  0  2  0  0  0  0  0  0
  -28.3470  -26.4520   20.2140 O   0  0  0  0  0  0  0  0  0  0  0  0
  -24.6040  -31.8680   23.2360 C   0  0  0  0  0  0  0  0  0  0  0  0
  -27.2320  -27.3080   20.1960 C   0  0  0  0  0  0  0  0  0  0  0  0
  -23.4060  -30.4620   21.5960 C   0  0  0  0  0  3  0  0  0  0  0  0
  -24.8630  -28.9120   20.1770 C   0  0  0  0  0  0  0  0  0  0  0  0
  -25.9440  -30.7880   21.4150 C   0  0  0  0  0  2  0  0  0  0  0  0
  -26.0300  -29.4070   20.7730 C   0  0  0  0  0  0  0  0  0  0  0  0
  -27.2210  -28.6170   20.7700 C   0  0  0  0  0  3  0  0  0  0  0  0
  -26.0460  -26.8680   19.5700 C   0  0  0  0  0  3  0  0  0  0  0  0
  -24.8730  -27.6480   19.5660 C   0  0  0  0  0  3  0  0  0  0  0  0
  -23.6230  -29.7830   20.2190 C   0  0  0  0  0  2  0  0  0  0  0  0
  -24.6700  -31.0580   22.1390 N   0  0  0  0  0  0  0  0  0  0  0  0
  -23.5190  -32.1440   23.7690 O   0  0  0  0  0  0  0  0  0  0  0  0
  -22.7440  -29.4480   22.5580 C   0  0  0  0  0  0  0  0  0  0  0  0
  -21.4170  -29.2730   22.4350 N   0  0  0  0  0  0  0  0  0  0  0  0
  -23.4230  -28.8200   23.3760 O   0  0  0  0  0  0  0  0  0  0  0  0
  -20.9290  -29.8300   21.7470 H   0  0  0  0  0  0  0  0  0  0  0  0
  -18.0390  -28.0820   22.9410 C   0  0  0  0  0  0  0  0  0  0  0  0
  -20.5980  -28.3360   23.2060 C   0  0  0  0  0  3  0  0  0  0  0  0
  -20.6960  -26.9050   22.6280 C   0  0  0  0  0  2  0  0  0  0  0  0
  -19.5900  -26.5840   21.6170 C   0  0  0  0  0  2  0  0  0  0  0  0
  -18.2100  -26.7320   22.2660 C   0  0  0  0  0  2  0  0  0  0  0  0
  -19.1590  -28.8420   23.3690 C   0  0  0  0  0  0  0  0  0  0  0  0
  -18.9440  -30.1040   23.9630 C   0  0  0  0  0  3  0  0  0  0  0  0
  -17.6400  -30.6080   24.1320 C   0  0  0  0  0  3  0  0  0  0  0  0
  -16.5340  -29.8450   23.7200 C   0  0  0  0  0  3  0  0  0  0  0  0
  -16.7340  -28.5840   23.1300 C   0  0  0  0  0  3  0  0  0  0  0  0
  -25.8840  -32.5040   23.8600 C   0  0  0  0  0  3  0  0  0  0  0  0
  -26.3990  -31.7360   25.1400 C   0  0  1  0  0  0  0  0  0  0  0  0
  -25.3040  -31.5030   26.2070 C   0  0  0  0  0  1  0  0  0  0  0  0
  -26.9810  -30.3580   24.7530 C   0  0  0  0  0  1  0  0  0  0  0  0
  -27.5500  -32.5330   25.8000 C   0  0  0  0  0  1  0  0  0  0  0  0
  -25.5710  -33.9030   24.1860 N   0  0  0  0  0  0  0  0  0  0  0  0
  -25.9030  -34.9550   23.4280 C   0  0  0  0  0  0  0  0  0  0  0  0
  -26.5740  -34.8510   22.3960 O   0  0  0  0  0  0  0  0  0  0  0  0
  -24.9750  -34.0570   24.9870 H   0  0  0  0  0  0  0  0  0  0  0  0
  -24.1740  -36.7470   23.0690 C   0  0  0  0  0  1  0  0  0  0  0  0
  -25.4140  -36.3440   23.8830 C   0  0  0  0  0  3  0  0  0  0  0  0
  -27.5460  -37.2320   24.7150 C   0  0  0  0  0  1  0  0  0  0  0  0
  -26.4470  -37.3960   23.7680 N   0  0  0  0  0  0  0  0  0  0  0  0
  -26.0400  -38.3170   23.9100 H   0  0  0  0  0  0  0  0  0  0  0  0
  1  6  1  0
  1 49  1  0
  2  1  2  0
  3  4  1  0
  5  7  1  0
  6  3  2  0
  7  4  2  0
  7 18  1  0
  8  6  1  0
  8  5  2  0
  9  8  1  0
 10 18  1  0
 11 16  1  0
 12 13  1  0
 12 11  1  0
 14 13  1  0
 14 23  1  0
 14 15  1  0
 16 10  1  0
 16 15  1  0
 17 10  2  0
 18 19  1  0
 20 21  2  0
 21 40  1  0
 22 21  1  0
 22 25  1  0
 23 20  1  0
 23 24  1  0
 24 22  2  0
 25 26  1  0
 26 27  2  0
 28 31  1  0
 28 27  1  0
 29 28  2  0
 30 29  1  0
 30 25  2  0
 31 32  1  0
 32 33  1  0
 33 34  2  0
 35 34  1  0
 35 39  1  0
 36 35  2  0
 37 32  2  0
 37 36  1  0
 38 37  1  0
 40 41  1  0
 41 44  1  0
 41 43  1  0
 42 40  2  0
 45 46  1  0
 45 20  1  0
 47 45  1  0
 48 49  2  0
 48 50  1  0
 51 50  1  0
 52 63  2  0
 53 51  1  0
 53 58  1  0
 54 62  1  0
 54 64  1  0
 55 61  1  0
 55 57  1  0
 56 62  1  0
 57 56  1  0
 58 57  2  0
 59 53  2  0
 60 59  1  0
 60 55  2  0
 61 54  1  0
 62 52  1  0
 64 66  2  0
 65 64  1  0
 67 65  1  0
 68 77  2  0
 68 73  1  0
 69 65  1  0
 69 73  1  0
 70 69  1  0
 71 72  1  0
 71 70  1  0
 72 68  1  0
 73 74  2  0
 74 75  1  0
 76 75  2  0
 77 76  1  0
 78 52  1  0
 78 83  1  0
 78 79  1  0
 79 82  1  1
 79 80  1  0
 81 79  1  0
 83 86  1  0
 84 88  1  0
 84 83  1  0
 85 84  2  0
 88 87  1  0
 90 88  1  0
 90 91  1  0
 90 89  1  0
M  ISO  4  10 100  18 100  50 101  51 101
M  END
>  <TORSDO>  (22) 
F 19

>  <SCORE>  (22) 
-14.371

>  <name>  (22) 
21

>  <ligand_id>  (22) 
21

>  <original_smiles>  (22) 
[H]C(=NC(=O)c1c([H])c([H])c(N([H])C(=O)N2C([H])([H])C([H])([H])C([H])([H])C([H])(n3nc(-c4c([H])c([H])c(Oc5c([H])c([H])c(F)c([H])c5F)c([H])c4[H])c(C(=O)N([H])[H])c3N([H])[H])C2([H])[H])c([H])c1F)C([H])([H])Oc1c([H])c([H])c2c(c1[H])C([H])([H])N(C(=O)C([H])(N([H])C(=O)C([H])(N([H])C([H])([H])[H])C([H])([H])[H])C(C([H])([H])[H])(C([H])([H])[H])C([H])([H])[H])C([H])(C(=O)N([H])C1([H])c3c([H])c([H])c([H])c([H])c3C([H])([H])C([H])([H])C1([H])[H])C2([H])[H]

>  <smiles>  (22) 
[H]C(=NC(=O)c1c([H])c([H])c(N([H])C(=O)N2C([H])([H])C([H])([H])C([H])([H])C([H])(n3nc(-c4c([H])c([H])c(Oc5c([H])c([H])c(F)c([H])c5F)c([H])c4[H])c(C(=O)N([H])[H])c3N([H])[H])C2([H])[H])c([H])c1F)C([H])([H])Oc1c([H])c([H])c2c(c1[H])C([H])([H])N(C(=O)C([H])(N([H])C(=O)C([H])(N([H])C([H])([H])[H])C([H])([H])[H])C(C([H])([H])[H])(C([H])([H])[H])C([H])([H])[H])C([H])(C(=O)N([H])C1([H])c3c([H])c([H])c([H])c([H])c3C([H])([H])C([H])([H])C1([H])[H])C2([H])[H]

$$$$
22:0:0
     RDKit          3D

 99108  0  0  1  0  0  0  0  0999 V2000
  -28.4940  -19.3990   20.0650 C   0  0  0  0  0  3  0  0  0  0  0  0
  -30.8050  -19.5340   20.6890 C   0  0  0  0  0  3  0  0  0  0  0  0
  -29.5980  -20.2410   20.3810 C   0  0  0  0  0  0  0  0  0  0  0  0
  -28.5870  -17.9720   20.0630 C   0  0  0  0  0  0  0  0  0  0  0  0
  -30.8980  -18.1000   20.7250 C   0  0  0  0  0  0  0  0  0  0  0  0
  -29.7770  -17.2760   20.4170 C   0  0  0  0  0  0  0  0  0  0  0  0
  -30.5180  -14.7510   20.2570 C   0  0  0  0  0  0  0  0  0  0  0  0
  -30.2970  -12.5040   19.1980 C   0  0  0  0  0  2  0  0  0  0  0  0
  -29.3170  -12.6250   18.0100 C   0  0  0  0  0  2  0  0  0  0  0  0
  -27.8570  -12.4550   18.4790 C   0  0  0  0  0  2  0  0  0  0  0  0
  -27.5270  -13.3100   19.7320 C   0  0  0  0  0  3  0  0  0  0  0  0
  -28.6200  -13.1640   20.8150 C   0  0  0  0  0  2  0  0  0  0  0  0
  -29.9080  -13.5210   20.1960 N   0  0  0  0  0  0  0  0  0  0  0  0
  -31.6870  -14.8960   19.8890 O   0  0  0  0  0  0  0  0  0  0  0  0
  -29.6920  -15.8110   20.5400 N   0  0  0  0  0  0  0  0  0  0  0  0
  -28.7440  -15.5170   20.7120 H   0  0  0  0  0  0  0  0  0  0  0  0
  -25.1550  -13.8960   20.5320 C   0  0  0  0  0  0  0  0  0  0  0  0
  -24.0960  -13.1170   20.9090 C   0  0  0  0  0  0  0  0  0  0  0  0
  -24.5560  -11.7670   20.8420 C   0  0  0  0  0  0  0  0  0  0  0  0
  -26.1930  -13.0210   20.2520 N   0  0  0  0  0  0  0  0  0  0  0  0
  -25.8390  -11.7330   20.5010 N   0  0  0  0  0  0  0  0  0  0  0  0
  -23.8330  -10.5040   21.0300 C   0  0  0  0  0  0  0  0  0  0  0  0
  -24.2720   -9.5300   21.9550 C   0  0  0  0  0  3  0  0  0  0  0  0
  -23.5470   -8.3320   22.1300 C   0  0  0  0  0  3  0  0  0  0  0  0
  -22.3690   -8.0990   21.3810 C   0  0  0  0  0  0  0  0  0  0  0  0
  -21.9480   -9.0610   20.4460 C   0  0  0  0  0  3  0  0  0  0  0  0
  -22.6740  -10.2500   20.2680 C   0  0  0  0  0  3  0  0  0  0  0  0
  -21.6150   -6.9530   21.4670 O   0  0  0  0  0  0  0  0  0  0  0  0
  -21.5530   -6.2180   22.6240 C   0  0  0  0  0  0  0  0  0  0  0  0
  -21.0830   -6.7710   23.8340 C   0  0  0  0  0  3  0  0  0  0  0  0
  -20.9690   -5.9610   24.9820 C   0  0  0  0  0  3  0  0  0  0  0  0
  -21.3170   -4.5980   24.9190 C   0  0  0  0  0  0  0  0  0  0  0  0
  -21.7800   -4.0440   23.7130 C   0  0  0  0  0  3  0  0  0  0  0  0
  -21.8950   -4.8520   22.5680 C   0  0  0  0  0  0  0  0  0  0  0  0
  -22.3220   -4.3080   21.4030 F   0  0  0  0  0  0  0  0  0  0  0  0
  -21.2000   -3.8180   26.0190 F   0  0  0  0  0  0  0  0  0  0  0  0
  -22.7080  -13.5920   21.2260 C   0  0  0  0  0  0  0  0  0  0  0  0
  -22.0010  -12.8820   22.0990 N   0  0  0  0  0  0  0  0  0  0  0  0
  -22.2590  -14.6280   20.7370 O   0  0  0  0  0  0  0  0  0  0  0  0
  -22.3770  -12.0440   22.5160 H   0  0  0  0  0  0  0  0  0  0  0  0
  -21.0710  -13.1820   22.3540 H   0  0  0  0  0  0  0  0  0  0  0  0
  -25.3010  -15.2710   20.3910 N   0  0  0  0  0  0  0  0  0  0  0  0
  -24.5270  -15.8990   20.5680 H   0  0  0  0  0  0  0  0  0  0  0  0
  -26.1580  -15.7800   20.1710 H   0  0  0  0  0  0  0  0  0  0  0  0
  -28.8520  -23.9890   20.3510 C   0  0  0  0  0  0  0  0  0  0  0  0
  -30.2690  -23.9820   20.0620 C   0  0  0  0  0  0  0  0  0  0  0  0
  -28.4500  -22.5700   20.5170 C   0  0  0  0  0  0  0  0  0  0  0  0
  -28.0170  -25.0870   20.4660 C   0  0  0  0  0  3  0  0  0  0  0  0
  -30.7520  -22.5330   20.1150 C   0  0  0  0  0  2  0  0  0  0  0  0
  -29.5360  -21.7300   20.3430 N   0  0  0  0  0  0  0  0  0  0  0  0
  -31.0030  -24.9490   19.8280 O   0  0  0  0  0  0  0  0  0  0  0  0
  -27.3060  -22.1810   20.7800 O   0  0  0  0  0  0  0  0  0  0  0  0
  -28.2780  -26.4760   20.3020 O   0  0  0  0  0  0  0  0  0  0  0  0
  -24.5950  -31.9730   23.2630 C   0  0  0  0  0  0  0  0  0  0  0  0
  -27.1870  -27.3670   20.2480 C   0  0  0  0  0  0  0  0  0  0  0  0
  -23.3880  -30.5710   21.6290 C   0  0  0  0  0  3  0  0  0  0  0  0
  -24.8340  -29.0040   20.2150 C   0  0  0  0  0  0  0  0  0  0  0  0
  -25.9300  -30.8680   21.4550 C   0  0  0  0  0  2  0  0  0  0  0  0
  -26.0040  -29.4820   20.8200 C   0  0  0  0  0  0  0  0  0  0  0  0
  -27.1820  -28.6740   20.8340 C   0  0  0  0  0  3  0  0  0  0  0  0
  -26.0020  -26.9590   19.5930 C   0  0  0  0  0  3  0  0  0  0  0  0
  -24.8350  -27.7470   19.5920 C   0  0  0  0  0  3  0  0  0  0  0  0
  -23.6020  -29.8860   20.2550 C   0  0  0  0  0  2  0  0  0  0  0  0
  -24.6570  -31.1560   22.1720 N   0  0  0  0  0  0  0  0  0  0  0  0
  -23.5120  -32.2630   23.7920 O   0  0  0  0  0  0  0  0  0  0  0  0
  -22.7150  -29.5660   22.5940 C   0  0  0  0  0  0  0  0  0  0  0  0
  -21.3890  -29.3930   22.4620 N   0  0  0  0  0  0  0  0  0  0  0  0
  -23.3860  -28.9440   23.4230 O   0  0  0  0  0  0  0  0  0  0  0  0
  -20.9070  -29.9450   21.7670 H   0  0  0  0  0  0  0  0  0  0  0  0
  -18.0010  -28.2290   22.9690 C   0  0  0  0  0  0  0  0  0  0  0  0
  -20.5610  -28.4650   23.2370 C   0  0  0  0  0  3  0  0  0  0  0  0
  -20.6500  -27.0310   22.6680 C   0  0  0  0  0  2  0  0  0  0  0  0
  -19.5450  -26.7140   21.6550 C   0  0  0  0  0  2  0  0  0  0  0  0
  -18.1640  -26.8750   22.2990 C   0  0  0  0  0  2  0  0  0  0  0  0
  -19.1260  -28.9830   23.3950 C   0  0  0  0  0  0  0  0  0  0  0  0
  -18.9190  -30.2500   23.9820 C   0  0  0  0  0  3  0  0  0  0  0  0
  -17.6190  -30.7630   24.1460 C   0  0  0  0  0  3  0  0  0  0  0  0
  -16.5070  -30.0070   23.7360 C   0  0  0  0  0  3  0  0  0  0  0  0
  -16.7000  -28.7410   23.1530 C   0  0  0  0  0  3  0  0  0  0  0  0
  -25.8810  -32.6020   23.8830 C   0  0  0  0  0  3  0  0  0  0  0  0
  -26.3940  -31.8320   25.1610 C   0  0  1  0  0  0  0  0  0  0  0  0
  -25.2980  -31.5960   26.2270 C   0  0  0  0  0  1  0  0  0  0  0  0
  -26.9760  -30.4520   24.7730 C   0  0  0  0  0  1  0  0  0  0  0  0
  -27.5440  -32.6240   25.8240 C   0  0  0  0  0  1  0  0  0  0  0  0
  -25.5760  -34.0020   24.2130 N   0  0  0  0  0  0  0  0  0  0  0  0
  -25.9010  -35.0530   23.4470 C   0  0  0  0  0  0  0  0  0  0  0  0
  -26.5590  -34.9460   22.4080 O   0  0  0  0  0  0  0  0  0  0  0  0
  -24.9900  -34.1600   25.0200 H   0  0  0  0  0  0  0  0  0  0  0  0
  -24.1700  -36.8470   23.1110 C   0  0  0  0  0  1  0  0  0  0  0  0
  -25.4220  -36.4430   23.9060 C   0  0  0  0  0  3  0  0  0  0  0  0
  -27.5650  -37.3330   24.7100 C   0  0  0  0  0  1  0  0  0  0  0  0
  -26.4530  -37.4950   23.7760 N   0  0  0  0  0  0  0  0  0  0  0  0
  -26.0490  -38.4160   23.9190 H   0  0  0  0  0  0  0  0  0  0  0  0
  -27.4760  -17.2280   19.6620 N   0  0  0  0  0  0  0  0  0  0  0  0
  -26.7110  -17.7890   19.3010 H   0  0  0  0  0  0  0  0  0  0  0  0
  -27.7120  -16.5170   18.9790 H   0  0  0  0  0  0  0  0  0  0  0  0
  -32.1080  -17.5100   21.0920 N   0  0  0  0  0  0  0  0  0  0  0  0
  -32.9500  -18.0590   20.9610 H   0  0  0  0  0  0  0  0  0  0  0  0
  -32.2220  -16.5520   20.7550 H   0  0  0  0  0  0  0  0  0  0  0  0
  1  3  1  0
  2  5  1  0
  3  2  2  0
  4  1  2  0
  4  6  1  0
  5 97  1  0
  6 15  1  0
  6  5  2  0
  7 15  1  0
  8 13  1  0
  9 10  1  0
  9  8  1  0
 11 10  1  0
 11 20  1  0
 11 12  1  0
 13  7  1  0
 13 12  1  0
 14  7  2  0
 15 16  1  0
 17 18  2  0
 18 37  1  0
 19 18  1  0
 19 22  1  0
 20 21  1  0
 20 17  1  0
 21 19  2  0
 22 23  1  0
 23 24  2  0
 25 28  1  0
 25 24  1  0
 26 25  2  0
 27 26  1  0
 27 22  2  0
 28 29  1  0
 29 30  1  0
 30 31  2  0
 32 31  1  0
 32 36  1  0
 33 32  2  0
 34 29  2  0
 34 33  1  0
 35 34  1  0
 37 38  1  0
 38 41  1  0
 38 40  1  0
 39 37  2  0
 42 17  1  0
 42 43  1  0
 44 42  1  0
 45 48  2  0
 45 47  1  0
 46 49  1  0
 46 45  1  0
 47 52  2  0
 49 50  1  0
 50  3  1  0
 50 47  1  0
 51 46  2  0
 53 48  1  0
 54 65  2  0
 55 53  1  0
 55 60  1  0
 56 64  1  0
 56 66  1  0
 57 63  1  0
 57 59  1  0
 58 64  1  0
 59 60  2  0
 59 58  1  0
 61 55  2  0
 62 61  1  0
 62 57  2  0
 63 56  1  0
 64 54  1  0
 66 68  2  0
 67 66  1  0
 69 67  1  0
 70 79  2  0
 70 75  1  0
 71 67  1  0
 71 75  1  0
 72 71  1  0
 73 74  1  0
 73 72  1  0
 74 70  1  0
 75 76  2  0
 76 77  1  0
 78 77  2  0
 79 78  1  0
 80 54  1  0
 80 85  1  0
 80 81  1  0
 81 84  1  1
 81 82  1  0
 83 81  1  0
 85 88  1  0
 86 90  1  0
 86 85  1  0
 87 86  2  0
 90 89  1  0
 92 90  1  0
 92 93  1  0
 92 91  1  0
 94  4  1  0
 95 94  1  0
 96 94  1  0
 98 97  1  0
 99 97  1  0
M  ISO  4   7 100  15 100  48 101  53 101
M  END
>  <TORSDO>  (23) 
F 19

>  <SCORE>  (23) 
-15.070

>  <name>  (23) 
22

>  <ligand_id>  (23) 
22

>  <original_smiles>  (23) 
[H]C(Oc1c([H])c([H])c2c(c1[H])C([H])([H])N(C(=O)C([H])(N([H])C(=O)C([H])(N([H])C([H])([H])[H])C([H])([H])[H])C(C([H])([H])[H])(C([H])([H])[H])C([H])([H])[H])C([H])(C(=O)N([H])C1([H])c3c([H])c([H])c([H])c([H])c3C([H])([H])C([H])([H])C1([H])[H])C2([H])[H])=C1C(=O)N(c2c([H])c(N([H])[H])c(N([H])C(=O)N3C([H])([H])C([H])([H])C([H])([H])C([H])(n4nc(-c5c([H])c([H])c(Oc6c([H])c([H])c(F)c([H])c6F)c([H])c5[H])c(C(=O)N([H])[H])c4N([H])[H])C3([H])[H])c(N([H])[H])c2[H])C([H])([H])C1=O

>  <smiles>  (23) 
[H]C(Oc1c([H])c([H])c2c(c1[H])C([H])([H])N(C(=O)C([H])(N([H])C(=O)C([H])(N([H])C([H])([H])[H])C([H])([H])[H])C(C([H])([H])[H])(C([H])([H])[H])C([H])([H])[H])C([H])(C(=O)N([H])C1([H])c3c([H])c([H])c([H])c([H])c3C([H])([H])C([H])([H])C1([H])[H])C2([H])[H])=C1C(=O)N(c2c([H])c(N([H])[H])c(N([H])C(=O)N3C([H])([H])C([H])([H])C([H])([H])C([H])(n4nc(-c5c([H])c([H])c(Oc6c([H])c([H])c(F)c([H])c6F)c([H])c5[H])c(C(=O)N([H])[H])c4N([H])[H])C3([H])[H])c(N([H])[H])c2[H])C([H])([H])C1=O

$$$$
23:0:0
     RDKit          3D

 94102  0  0  1  0  0  0  0  0999 V2000
  -30.0850  -18.8620   21.3680 C   0  0  0  0  0  3  0  0  0  0  0  0
  -29.8280  -20.2850   21.2160 C   0  0  0  0  0  3  0  0  0  0  0  0
  -29.4930  -18.4720   19.1200 C   0  0  0  0  0  3  0  0  0  0  0  0
  -29.9130  -17.8620   20.3450 C   0  0  0  0  0  0  0  0  0  0  0  0
  -29.3460  -20.8700   20.0040 C   0  0  0  0  0  0  0  0  0  0  0  0
  -29.2240  -19.8910   18.9580 C   0  0  0  0  0  0  0  0  0  0  0  0
  -28.9890  -23.5650   20.3670 C   0  0  0  0  0  0  0  0  0  0  0  0
  -28.8650  -22.2950   19.7710 N   0  0  0  0  0  0  0  0  0  0  0  0
  -29.7640  -23.7370   21.3130 O   0  0  0  0  0  0  0  0  0  0  0  0
  -28.2660  -22.3350   18.9590 H   0  0  0  0  0  0  0  0  0  0  0  0
  -28.1050  -24.8440   19.8360 C   0  0  0  0  0  2  0  0  0  0  0  0
  -28.3370  -26.3070   20.2760 O   0  0  0  0  0  0  0  0  0  0  0  0
  -24.6360  -31.9150   23.2440 C   0  0  0  0  0  0  0  0  0  0  0  0
  -27.2700  -27.2670   20.1910 C   0  0  0  0  0  0  0  0  0  0  0  0
  -23.4500  -30.5170   21.5950 C   0  0  0  0  0  3  0  0  0  0  0  0
  -24.9170  -28.9690   20.1660 C   0  0  0  0  0  0  0  0  0  0  0  0
  -26.0010  -30.8110   21.4390 C   0  0  0  0  0  2  0  0  0  0  0  0
  -26.0890  -29.4270   20.7810 C   0  0  0  0  0  0  0  0  0  0  0  0
  -27.2640  -28.5890   20.7840 C   0  0  0  0  0  3  0  0  0  0  0  0
  -26.0720  -26.9130   19.5240 C   0  0  0  0  0  3  0  0  0  0  0  0
  -24.9190  -27.7240   19.5230 C   0  0  0  0  0  3  0  0  0  0  0  0
  -23.6800  -29.8500   20.2140 C   0  0  0  0  0  2  0  0  0  0  0  0
  -24.7150  -31.1020   22.1480 N   0  0  0  0  0  0  0  0  0  0  0  0
  -23.5460  -32.1890   23.7700 O   0  0  0  0  0  0  0  0  0  0  0  0
  -22.7800  -29.4980   22.5500 C   0  0  0  0  0  0  0  0  0  0  0  0
  -21.4550  -29.3130   22.4160 N   0  0  0  0  0  0  0  0  0  0  0  0
  -23.4550  -28.8770   23.3760 O   0  0  0  0  0  0  0  0  0  0  0  0
  -20.9680  -29.8670   21.7250 H   0  0  0  0  0  0  0  0  0  0  0  0
  -18.0800  -28.0940   22.9110 C   0  0  0  0  0  0  0  0  0  0  0  0
  -20.6380  -28.3670   23.1800 C   0  0  0  0  0  3  0  0  0  0  0  0
  -20.7480  -26.9390   22.5990 C   0  0  0  0  0  2  0  0  0  0  0  0
  -19.6480  -26.6150   21.5820 C   0  0  0  0  0  2  0  0  0  0  0  0
  -18.2650  -26.7500   22.2260 C   0  0  0  0  0  2  0  0  0  0  0  0
  -19.1950  -28.8600   23.3450 C   0  0  0  0  0  0  0  0  0  0  0  0
  -18.9680  -30.1160   23.9460 C   0  0  0  0  0  3  0  0  0  0  0  0
  -17.6600  -30.6080   24.1170 C   0  0  0  0  0  3  0  0  0  0  0  0
  -16.5610  -29.8390   23.6980 C   0  0  0  0  0  3  0  0  0  0  0  0
  -16.7720  -28.5840   23.1010 C   0  0  0  0  0  3  0  0  0  0  0  0
  -25.9080  -32.5580   23.8760 C   0  0  0  0  0  3  0  0  0  0  0  0
  -26.4150  -31.7950   25.1610 C   0  0  1  0  0  0  0  0  0  0  0  0
  -25.3090  -31.5520   26.2170 C   0  0  0  0  0  1  0  0  0  0  0  0
  -27.0150  -30.4200   24.7860 C   0  0  0  0  0  1  0  0  0  0  0  0
  -27.5490  -32.6020   25.8340 C   0  0  0  0  0  1  0  0  0  0  0  0
  -25.5870  -33.9550   24.2030 N   0  0  0  0  0  0  0  0  0  0  0  0
  -25.9000  -35.0100   23.4370 C   0  0  0  0  0  0  0  0  0  0  0  0
  -26.5560  -34.9090   22.3970 O   0  0  0  0  0  0  0  0  0  0  0  0
  -25.0020  -34.1080   25.0100 H   0  0  0  0  0  0  0  0  0  0  0  0
  -24.1460  -36.7860   23.1120 C   0  0  0  0  0  1  0  0  0  0  0  0
  -25.4080  -36.3970   23.8980 C   0  0  0  0  0  3  0  0  0  0  0  0
  -27.5450  -37.3150   24.6850 C   0  0  0  0  0  1  0  0  0  0  0  0
  -26.4280  -37.4600   23.7570 N   0  0  0  0  0  0  0  0  0  0  0  0
  -26.0130  -38.3780   23.9000 H   0  0  0  0  0  0  0  0  0  0  0  0
  -29.8200  -16.2960   20.6810 C   0  0  0  0  0  0  0  0  0  0  0  0
  -29.0100  -16.0820   21.6300 N   0  0  0  0  0  0  0  0  0  0  0  0
  -28.5970  -16.9510   21.9480 H   0  0  0  0  0  0  0  0  0  0  0  0
  -30.6270  -15.0100   20.0140 C   0  0  0  0  0  0  0  0  0  0  0  0
  -30.4630  -12.7250   18.9360 C   0  0  0  0  0  2  0  0  0  0  0  0
  -29.4370  -12.7800   17.7750 C   0  0  0  0  0  2  0  0  0  0  0  0
  -27.9950  -12.5670   18.2810 C   0  0  0  0  0  2  0  0  0  0  0  0
  -27.6940  -13.3980   19.5540 C   0  0  0  0  0  3  0  0  0  0  0  0
  -28.8220  -13.2290   20.5900 C   0  0  0  0  0  2  0  0  0  0  0  0
  -30.0610  -13.7280   19.9650 N   0  0  0  0  0  0  0  0  0  0  0  0
  -31.7450  -15.1610   19.5040 O   0  0  0  0  0  0  0  0  0  0  0  0
  -25.3560  -13.9700   20.4390 C   0  0  0  0  0  0  0  0  0  0  0  0
  -24.3090  -13.1870   20.8450 C   0  0  0  0  0  0  0  0  0  0  0  0
  -24.7650  -11.8370   20.7430 C   0  0  0  0  0  0  0  0  0  0  0  0
  -26.3790  -13.0960   20.1120 N   0  0  0  0  0  0  0  0  0  0  0  0
  -26.0330  -11.8050   20.3540 N   0  0  0  0  0  0  0  0  0  0  0  0
  -24.0450  -10.5710   20.9390 C   0  0  0  0  0  0  0  0  0  0  0  0
  -24.5020   -9.5950   21.8520 C   0  0  0  0  0  3  0  0  0  0  0  0
  -23.7820   -8.3950   22.0360 C   0  0  0  0  0  3  0  0  0  0  0  0
  -22.5910   -8.1630   21.3070 C   0  0  0  0  0  0  0  0  0  0  0  0
  -22.1540   -9.1280   20.3840 C   0  0  0  0  0  3  0  0  0  0  0  0
  -22.8740  -10.3200   20.1970 C   0  0  0  0  0  3  0  0  0  0  0  0
  -21.8410   -7.0160   21.4010 O   0  0  0  0  0  0  0  0  0  0  0  0
  -21.7820   -6.2890   22.5630 C   0  0  0  0  0  0  0  0  0  0  0  0
  -21.3110   -6.8490   23.7700 C   0  0  0  0  0  3  0  0  0  0  0  0
  -21.2010   -6.0470   24.9230 C   0  0  0  0  0  3  0  0  0  0  0  0
  -21.5500   -4.6850   24.8700 C   0  0  0  0  0  0  0  0  0  0  0  0
  -22.0140   -4.1230   23.6680 C   0  0  0  0  0  3  0  0  0  0  0  0
  -22.1260   -4.9220   22.5160 C   0  0  0  0  0  0  0  0  0  0  0  0
  -22.5540   -4.3710   21.3550 F   0  0  0  0  0  0  0  0  0  0  0  0
  -21.4370   -3.9110   25.9750 F   0  0  0  0  0  0  0  0  0  0  0  0
  -22.9350  -13.6600   21.2200 C   0  0  0  0  0  0  0  0  0  0  0  0
  -22.2600  -12.9400   22.1090 N   0  0  0  0  0  0  0  0  0  0  0  0
  -22.4700  -14.7030   20.7610 O   0  0  0  0  0  0  0  0  0  0  0  0
  -22.6500  -12.0950   22.5000 H   0  0  0  0  0  0  0  0  0  0  0  0
  -21.3420  -13.2390   22.4040 H   0  0  0  0  0  0  0  0  0  0  0  0
  -25.5170  -15.3460   20.3010 N   0  0  0  0  0  0  0  0  0  0  0  0
  -24.7810  -16.0070   20.5230 H   0  0  0  0  0  0  0  0  0  0  0  0
  -26.3940  -15.7900   20.0630 H   0  0  0  0  0  0  0  0  0  0  0  0
  -28.7810  -20.3350   17.7120 N   0  0  0  0  0  0  0  0  0  0  0  0
  -28.9000  -19.6940   16.9360 H   0  0  0  0  0  0  0  0  0  0  0  0
  -29.0570  -21.2740   17.4470 H   0  0  0  0  0  0  0  0  0  0  0  0
  2  1  1  0
  3  4  1  0
  4 53  1  0
  4  1  2  0
  5  2  2  0
  6  3  2  0
  6  5  1  0
  7  9  2  0
  8  5  1  0
  8  7  1  0
 10  8  1  0
 11 12  1  0
 11  7  1  0
 13 24  2  0
 14 12  1  0
 14 19  1  0
 15 23  1  0
 15 25  1  0
 16 22  1  0
 16 18  1  0
 17 23  1  0
 18 19  2  0
 18 17  1  0
 20 14  2  0
 21 20  1  0
 21 16  2  0
 22 15  1  0
 23 13  1  0
 25 27  2  0
 26 25  1  0
 28 26  1  0
 29 38  2  0
 29 34  1  0
 30 26  1  0
 30 34  1  0
 31 30  1  0
 32 33  1  0
 32 31  1  0
 33 29  1  0
 34 35  2  0
 35 36  1  0
 37 36  2  0
 38 37  1  0
 39 13  1  0
 39 44  1  0
 39 40  1  0
 40 43  1  1
 40 41  1  0
 42 40  1  0
 44 47  1  0
 45 49  1  0
 45 44  1  0
 46 45  2  0
 49 48  1  0
 51 49  1  0
 51 52  1  0
 51 50  1  0
 53 54  2  0
 54 55  1  0
 56 53  1  0
 57 62  1  0
 58 59  1  0
 58 57  1  0
 60 59  1  0
 60 67  1  0
 60 61  1  0
 62 56  1  0
 62 61  1  0
 63 56  2  0
 64 65  2  0
 65 84  1  0
 66 65  1  0
 66 69  1  0
 67 68  1  0
 67 64  1  0
 68 66  2  0
 69 70  1  0
 70 71  2  0
 72 75  1  0
 72 71  1  0
 73 72  2  0
 74 73  1  0
 74 69  2  0
 75 76  1  0
 76 77  1  0
 77 78  2  0
 79 78  1  0
 79 83  1  0
 80 79  2  0
 81 76  2  0
 81 80  1  0
 82 81  1  0
 84 85  1  0
 85 88  1  0
 85 87  1  0
 86 84  2  0
 89 64  1  0
 89 90  1  0
 91 89  1  0
 92  6  1  0
 93 92  1  0
 94 92  1  0
M  ISO  4  11 101  12 101  53 100  56 100
M  END
>  <TORSDO>  (24) 
F 20

>  <SCORE>  (24) 
-13.727

>  <name>  (24) 
23

>  <ligand_id>  (24) 
23

>  <original_smiles>  (24) 
[H]N=C(C(=O)N1C([H])([H])C([H])([H])C([H])([H])C([H])(n2nc(-c3c([H])c([H])c(Oc4c([H])c([H])c(F)c([H])c4F)c([H])c3[H])c(C(=O)N([H])[H])c2N([H])[H])C1([H])[H])c1c([H])c([H])c(N([H])C(=O)C([H])([H])Oc2c([H])c([H])c3c(c2[H])C([H])([H])N(C(=O)C([H])(N([H])C(=O)C([H])(N([H])C([H])([H])[H])C([H])([H])[H])C(C([H])([H])[H])(C([H])([H])[H])C([H])([H])[H])C([H])(C(=O)N([H])C2([H])c4c([H])c([H])c([H])c([H])c4C([H])([H])C([H])([H])C2([H])[H])C3([H])[H])c(N([H])[H])c1[H]

>  <smiles>  (24) 
[H]N=C(C(=O)N1C([H])([H])C([H])([H])C([H])([H])C([H])(n2nc(-c3c([H])c([H])c(Oc4c([H])c([H])c(F)c([H])c4F)c([H])c3[H])c(C(=O)N([H])[H])c2N([H])[H])C1([H])[H])c1c([H])c([H])c(N([H])C(=O)C([H])([H])Oc2c([H])c([H])c3c(c2[H])C([H])([H])N(C(=O)C([H])(N([H])C(=O)C([H])(N([H])C([H])([H])[H])C([H])([H])[H])C(C([H])([H])[H])(C([H])([H])[H])C([H])([H])[H])C([H])(C(=O)N([H])C2([H])c4c([H])c([H])c([H])c([H])c4C([H])([H])C([H])([H])C2([H])[H])C3([H])[H])c(N([H])[H])c1[H]

$$$$
24:0:0
     RDKit          3D

 96105  0  0  1  0  0  0  0  0999 V2000
  -29.0390  -19.8570   21.4040 C   0  0  0  0  0  3  0  0  0  0  0  0
  -29.3350  -18.4380   21.3750 C   0  0  0  0  0  3  0  0  0  0  0  0
  -30.8130  -18.8300   19.5870 C   0  0  0  0  0  3  0  0  0  0  0  0
  -29.5900  -20.8720   20.5330 C   0  0  0  0  0  0  0  0  0  0  0  0
  -30.2390  -17.8240   20.4540 C   0  0  0  0  0  0  0  0  0  0  0  0
  -30.5190  -20.2610   19.6140 C   0  0  0  0  0  0  0  0  0  0  0  0
  -30.9390  -15.1670   20.6540 C   0  0  0  0  0  0  0  0  0  0  0  0
  -30.9260  -12.7260   19.9360 C   0  0  0  0  0  2  0  0  0  0  0  0
  -30.0830  -12.4700   18.6650 C   0  0  0  0  0  2  0  0  0  0  0  0
  -28.5890  -12.2880   19.0050 C   0  0  0  0  0  2  0  0  0  0  0  0
  -28.0640  -13.3160   20.0360 C   0  0  0  0  0  3  0  0  0  0  0  0
  -29.0430  -13.5210   21.2130 C   0  0  0  0  0  2  0  0  0  0  0  0
  -30.3430  -13.8980   20.6360 N   0  0  0  0  0  0  0  0  0  0  0  0
  -32.1720  -15.1900   20.7220 O   0  0  0  0  0  0  0  0  0  0  0  0
  -29.5320  -16.1660   19.0130 C   0  0  0  0  0  3  0  0  0  0  0  0
  -30.2390  -16.3210   20.1490 N   0  0  0  0  0  0  0  0  0  0  0  0
  -29.9770  -15.7120   17.9550 O   0  0  0  0  0  0  0  0  0  0  0  0
  -25.6530  -13.9530   20.6120 C   0  0  0  0  0  0  0  0  0  0  0  0
  -24.5540  -13.1960   20.9080 C   0  0  0  0  0  0  0  0  0  0  0  0
  -25.0080  -11.8420   20.9420 C   0  0  0  0  0  0  0  0  0  0  0  0
  -26.6990  -13.0550   20.4650 N   0  0  0  0  0  0  0  0  0  0  0  0
  -26.3160  -11.7850   20.7360 N   0  0  0  0  0  0  0  0  0  0  0  0
  -24.2610  -10.5900   21.0990 C   0  0  0  0  0  0  0  0  0  0  0  0
  -24.6070   -9.6460   22.0880 C   0  0  0  0  0  3  0  0  0  0  0  0
  -23.8640   -8.4560   22.2320 C   0  0  0  0  0  3  0  0  0  0  0  0
  -22.7580   -8.2040   21.3870 C   0  0  0  0  0  0  0  0  0  0  0  0
  -22.4320   -9.1390   20.3880 C   0  0  0  0  0  3  0  0  0  0  0  0
  -23.1770  -10.3200   20.2410 C   0  0  0  0  0  3  0  0  0  0  0  0
  -21.9900   -7.0660   21.4390 O   0  0  0  0  0  0  0  0  0  0  0  0
  -21.8250   -6.3620   22.6050 C   0  0  0  0  0  0  0  0  0  0  0  0
  -21.2330   -6.9430   23.7460 C   0  0  0  0  0  3  0  0  0  0  0  0
  -21.0200   -6.1630   24.9010 C   0  0  0  0  0  3  0  0  0  0  0  0
  -21.3880   -4.8050   24.9120 C   0  0  0  0  0  0  0  0  0  0  0  0
  -21.9710   -4.2240   23.7720 C   0  0  0  0  0  3  0  0  0  0  0  0
  -22.1880   -5.0000   22.6200 C   0  0  0  0  0  0  0  0  0  0  0  0
  -22.7320   -4.4310   21.5180 F   0  0  0  0  0  0  0  0  0  0  0  0
  -21.1760   -4.0530   26.0170 F   0  0  0  0  0  0  0  0  0  0  0  0
  -23.1450  -13.6910   21.0560 C   0  0  0  0  0  0  0  0  0  0  0  0
  -22.3460  -13.0320   21.8860 N   0  0  0  0  0  0  0  0  0  0  0  0
  -22.7560  -14.6980   20.4650 O   0  0  0  0  0  0  0  0  0  0  0  0
  -22.6700  -12.2180   22.3880 H   0  0  0  0  0  0  0  0  0  0  0  0
  -21.3970  -13.3490   22.0280 H   0  0  0  0  0  0  0  0  0  0  0  0
  -25.8410  -15.3210   20.4300 N   0  0  0  0  0  0  0  0  0  0  0  0
  -25.0730  -15.9800   20.5000 H   0  0  0  0  0  0  0  0  0  0  0  0
  -26.7300  -15.7700   20.2650 H   0  0  0  0  0  0  0  0  0  0  0  0
  -28.9020  -23.4390   19.8190 C   0  0  0  0  0  0  0  0  0  0  0  0
  -29.4110  -24.2200   22.4590 C   0  0  0  0  0  2  0  0  0  0  0  0
  -28.3510  -25.1140   21.8160 C   0  0  0  0  0  2  0  0  0  0  0  0
  -29.1290  -22.7410   22.1460 C   0  0  0  0  0  2  0  0  0  0  0  0
  -28.1520  -24.8450   20.3130 C   0  0  0  0  0  3  0  0  0  0  0  0
  -29.2190  -22.3690   20.7170 N   0  0  0  0  0  0  0  0  0  0  0  0
  -29.1290  -23.3340   18.6080 O   0  0  0  0  0  0  0  0  0  0  0  0
  -28.2910  -26.2210   19.6060 O   0  0  0  0  0  0  0  0  0  0  0  0
  -24.6840  -31.6800   23.0180 C   0  0  0  0  0  0  0  0  0  0  0  0
  -27.2140  -27.1740   19.6770 C   0  0  0  0  0  0  0  0  0  0  0  0
  -23.4380  -30.3400   21.3660 C   0  0  0  0  0  3  0  0  0  0  0  0
  -24.8530  -28.8550   19.8160 C   0  0  0  0  0  0  0  0  0  0  0  0
  -25.9760  -30.6620   21.1110 C   0  0  0  0  0  2  0  0  0  0  0  0
  -26.0470  -29.3020   20.3960 C   0  0  0  0  0  0  0  0  0  0  0  0
  -27.2310  -28.4780   20.3090 C   0  0  0  0  0  3  0  0  0  0  0  0
  -25.9940  -26.8280   19.0580 C   0  0  0  0  0  3  0  0  0  0  0  0
  -24.8340  -27.6300   19.1340 C   0  0  0  0  0  3  0  0  0  0  0  0
  -23.6140  -29.7260   19.9500 C   0  0  0  0  0  2  0  0  0  0  0  0
  -24.7220  -30.9130   21.8850 N   0  0  0  0  0  0  0  0  0  0  0  0
  -23.6160  -31.9230   23.6020 O   0  0  0  0  0  0  0  0  0  0  0  0
  -22.8150  -29.2780   22.3070 C   0  0  0  0  0  0  0  0  0  0  0  0
  -21.4920  -29.0640   22.1980 N   0  0  0  0  0  0  0  0  0  0  0  0
  -23.5240  -28.6500   23.0990 O   0  0  0  0  0  0  0  0  0  0  0  0
  -20.9770  -29.6250   21.5320 H   0  0  0  0  0  0  0  0  0  0  0  0
  -18.1640  -27.7300   22.7120 C   0  0  0  0  0  0  0  0  0  0  0  0
  -20.7160  -28.0770   22.9500 C   0  0  0  0  0  3  0  0  0  0  0  0
  -20.8590  -26.6670   22.3310 C   0  0  0  0  0  2  0  0  0  0  0  0
  -19.7540  -26.3350   21.3240 C   0  0  0  0  0  2  0  0  0  0  0  0
  -18.3790  -26.4100   21.9930 C   0  0  0  0  0  2  0  0  0  0  0  0
  -19.2620  -28.5200   23.1480 C   0  0  0  0  0  0  0  0  0  0  0  0
  -19.0070  -29.7550   23.7830 C   0  0  0  0  0  3  0  0  0  0  0  0
  -17.6880  -30.2010   23.9860 C   0  0  0  0  0  3  0  0  0  0  0  0
  -16.6050  -29.4090   23.5660 C   0  0  0  0  0  3  0  0  0  0  0  0
  -16.8450  -28.1750   22.9350 C   0  0  0  0  0  3  0  0  0  0  0  0
  -25.9780  -32.3040   23.6230 C   0  0  0  0  0  3  0  0  0  0  0  0
  -25.6490  -33.6650   24.0750 N   0  0  0  0  0  0  0  0  0  0  0  0
  -25.9420  -34.7860   23.4030 C   0  0  0  0  0  0  0  0  0  0  0  0
  -26.5870  -34.7840   22.3520 O   0  0  0  0  0  0  0  0  0  0  0  0
  -25.0670  -33.7380   24.8980 H   0  0  0  0  0  0  0  0  0  0  0  0
  -24.1980  -36.5910   23.2210 C   0  0  0  0  0  1  0  0  0  0  0  0
  -25.4430  -36.1210   23.9910 C   0  0  0  0  0  3  0  0  0  0  0  0
  -27.5620  -36.9490   24.9150 C   0  0  0  0  0  1  0  0  0  0  0  0
  -26.4660  -37.1890   23.9800 N   0  0  0  0  0  0  0  0  0  0  0  0
  -26.0510  -38.0900   24.2020 H   0  0  0  0  0  0  0  0  0  0  0  0
  -26.5760  -31.4570   24.8140 C   0  0  1  0  0  0  0  0  0  0  0  0
  -25.5460  -31.1180   25.9170 C   0  0  0  0  0  1  0  0  0  0  0  0
  -27.1680  -30.1250   24.2980 C   0  0  0  0  0  1  0  0  0  0  0  0
  -27.7450  -32.2310   25.4710 C   0  0  0  0  0  1  0  0  0  0  0  0
  -31.1780  -21.0670   18.6910 N   0  0  0  0  0  0  0  0  0  0  0  0
  -31.5580  -20.6320   17.8570 H   0  0  0  0  0  0  0  0  0  0  0  0
  -30.7440  -21.9700   18.4910 H   0  0  0  0  0  0  0  0  0  0  0  0
  2  1  1  0
  3  6  2  0
  3  5  1  0
  4 51  1  0
  4  1  2  0
  5  2  2  0
  6  4  1  0
  7 14  2  0
  8 13  1  0
  9 10  1  0
  9  8  1  0
 11 10  1  0
 11 21  1  0
 11 12  1  0
 13  7  1  0
 13 12  1  0
 15 16  1  0
 16  5  1  0
 16  7  1  0
 17 15  2  0
 18 19  2  0
 19 20  1  0
 19 38  1  0
 20 23  1  0
 21 18  1  0
 21 22  1  0
 22 20  2  0
 23 24  1  0
 24 25  2  0
 26 29  1  0
 26 25  1  0
 27 26  2  0
 28 27  1  0
 28 23  2  0
 29 30  1  0
 30 35  2  0
 30 31  1  0
 31 32  2  0
 32 33  1  0
 33 37  1  0
 34 33  2  0
 35 34  1  0
 36 35  1  0
 38 39  1  0
 39 42  1  0
 39 41  1  0
 40 38  2  0
 43 44  1  0
 43 18  1  0
 45 43  1  0
 46 50  1  0
 46 51  1  0
 48 47  1  0
 49 47  1  0
 50 53  1  0
 50 48  1  0
 51 49  1  0
 52 46  2  0
 53 55  1  0
 54 65  2  0
 55 60  1  0
 56 64  1  0
 56 66  1  0
 57 63  1  0
 57 59  1  0
 58 64  1  0
 59 58  1  0
 60 59  2  0
 61 62  1  0
 61 55  2  0
 62 57  2  0
 63 56  1  0
 64 54  1  0
 66 68  2  0
 67 66  1  0
 69 67  1  0
 70 79  2  0
 70 75  1  0
 71 67  1  0
 71 75  1  0
 72 71  1  0
 73 74  1  0
 73 72  1  0
 74 70  1  0
 75 76  2  0
 76 77  1  0
 78 77  2  0
 79 78  1  0
 80 54  1  0
 80 81  1  0
 80 90  1  0
 81 84  1  0
 82 86  1  0
 82 81  1  0
 83 82  2  0
 86 85  1  0
 88 86  1  0
 88 89  1  0
 88 87  1  0
 90 93  1  1
 90 91  1  0
 92 90  1  0
 94  6  1  0
 95 94  1  0
 96 94  1  0
M  ISO  4   7 100  16 100  50 101  53 101
M  END
>  <TORSDO>  (25) 
F 18

>  <SCORE>  (25) 
-12.500

>  <name>  (25) 
24

>  <ligand_id>  (25) 
24

>  <original_smiles>  (25) 
[H]C(=O)N(C(=O)N1C([H])([H])C([H])([H])C([H])([H])C([H])(n2nc(-c3c([H])c([H])c(Oc4c([H])c([H])c(F)c([H])c4F)c([H])c3[H])c(C(=O)N([H])[H])c2N([H])[H])C1([H])[H])c1c([H])c([H])c(N2C(=O)C([H])(Oc3c([H])c([H])c4c(c3[H])C([H])([H])N(C(=O)C([H])(N([H])C(=O)C([H])(N([H])C([H])([H])[H])C([H])([H])[H])C(C([H])([H])[H])(C([H])([H])[H])C([H])([H])[H])C([H])(C(=O)N([H])C3([H])c5c([H])c([H])c([H])c([H])c5C([H])([H])C([H])([H])C3([H])[H])C4([H])[H])C([H])([H])C([H])([H])C2([H])[H])c(N([H])[H])c1[H]

>  <smiles>  (25) 
[H]C(=O)N(C(=O)N1C([H])([H])C([H])([H])C([H])([H])C([H])(n2nc(-c3c([H])c([H])c(Oc4c([H])c([H])c(F)c([H])c4F)c([H])c3[H])c(C(=O)N([H])[H])c2N([H])[H])C1([H])[H])c1c([H])c([H])c(N2C(=O)C([H])(Oc3c([H])c([H])c4c(c3[H])C([H])([H])N(C(=O)C([H])(N([H])C(=O)C([H])(N([H])C([H])([H])[H])C([H])([H])[H])C(C([H])([H])[H])(C([H])([H])[H])C([H])([H])[H])C([H])(C(=O)N([H])C3([H])c5c([H])c([H])c([H])c([H])c5C([H])([H])C([H])([H])C3([H])[H])C4([H])[H])C([H])([H])C([H])([H])C2([H])[H])c(N([H])[H])c1[H]

$$$$
25:0:0
     RDKit          3D

 94102  0  0  1  0  0  0  0  0999 V2000
  -29.8890  -21.2930   19.3460 C   0  0  0  0  0  0  0  0  0  0  0  0
  -29.1450  -23.5610   19.9260 C   0  0  0  0  0  0  0  0  0  0  0  0
  -29.2900  -22.2200   20.1390 N   0  0  0  0  0  0  0  0  0  0  0  0
  -30.4550  -21.5610   18.2800 O   0  0  0  0  0  0  0  0  0  0  0  0
  -29.4460  -24.1360   18.8740 O   0  0  0  0  0  0  0  0  0  0  0  0
  -28.9480  -21.8680   21.0170 H   0  0  0  0  0  0  0  0  0  0  0  0
  -31.1280  -19.1000   19.7250 C   0  0  0  0  0  3  0  0  0  0  0  0
  -31.1760  -17.7110   20.0060 C   0  0  0  0  0  3  0  0  0  0  0  0
  -28.7540  -19.1370   20.1880 C   0  0  0  0  0  3  0  0  0  0  0  0
  -29.9210  -19.8420   19.8040 C   0  0  0  0  0  0  0  0  0  0  0  0
  -30.0000  -17.0000   20.3530 C   0  0  0  0  0  0  0  0  0  0  0  0
  -28.7980  -17.7440   20.4510 C   0  0  0  0  0  0  0  0  0  0  0  0
  -27.6530  -17.0940   20.7680 F   0  0  0  0  0  0  0  0  0  0  0  0
  -30.6580  -14.5560   20.0850 C   0  0  0  0  0  0  0  0  0  0  0  0
  -30.3140  -12.4090   18.9150 C   0  0  0  0  0  2  0  0  0  0  0  0
  -29.3040  -12.6580   17.7740 C   0  0  0  0  0  2  0  0  0  0  0  0
  -27.8550  -12.5100   18.2800 C   0  0  0  0  0  2  0  0  0  0  0  0
  -27.5970  -13.2950   19.5940 C   0  0  0  0  0  3  0  0  0  0  0  0
  -28.7170  -13.0330   20.6280 C   0  0  0  0  0  2  0  0  0  0  0  0
  -30.0040  -13.3630   19.9930 N   0  0  0  0  0  0  0  0  0  0  0  0
  -31.7840  -14.7220   19.6040 O   0  0  0  0  0  0  0  0  0  0  0  0
  -29.9280  -15.5780   20.5980 N   0  0  0  0  0  0  0  0  0  0  0  0
  -29.0520  -15.2840   21.0020 H   0  0  0  0  0  0  0  0  0  0  0  0
  -25.2430  -13.8870   20.4420 C   0  0  0  0  0  0  0  0  0  0  0  0
  -24.1930  -13.1080   20.8480 C   0  0  0  0  0  0  0  0  0  0  0  0
  -24.6500  -11.7570   20.7670 C   0  0  0  0  0  0  0  0  0  0  0  0
  -26.2730  -13.0100   20.1410 N   0  0  0  0  0  0  0  0  0  0  0  0
  -25.9230  -11.7220   20.3930 N   0  0  0  0  0  0  0  0  0  0  0  0
  -23.9310  -10.4920   20.9690 C   0  0  0  0  0  0  0  0  0  0  0  0
  -24.3870   -9.5240   21.8920 C   0  0  0  0  0  3  0  0  0  0  0  0
  -23.6690   -8.3250   22.0830 C   0  0  0  0  0  3  0  0  0  0  0  0
  -22.4810   -8.0840   21.3520 C   0  0  0  0  0  0  0  0  0  0  0  0
  -22.0450   -9.0400   20.4180 C   0  0  0  0  0  3  0  0  0  0  0  0
  -22.7630  -10.2310   20.2250 C   0  0  0  0  0  3  0  0  0  0  0  0
  -21.7330   -6.9370   21.4520 O   0  0  0  0  0  0  0  0  0  0  0  0
  -21.6830   -6.2090   22.6140 C   0  0  0  0  0  0  0  0  0  0  0  0
  -21.2070   -6.7650   23.8220 C   0  0  0  0  0  3  0  0  0  0  0  0
  -21.1080   -5.9620   24.9750 C   0  0  0  0  0  3  0  0  0  0  0  0
  -21.4750   -4.6040   24.9230 C   0  0  0  0  0  0  0  0  0  0  0  0
  -21.9430   -4.0480   23.7200 C   0  0  0  0  0  3  0  0  0  0  0  0
  -22.0440   -4.8470   22.5680 C   0  0  0  0  0  0  0  0  0  0  0  0
  -22.4760   -4.3010   21.4060 F   0  0  0  0  0  0  0  0  0  0  0  0
  -21.3730   -3.8300   26.0280 F   0  0  0  0  0  0  0  0  0  0  0  0
  -22.8140  -13.5820   21.2070 C   0  0  0  0  0  0  0  0  0  0  0  0
  -22.1290  -12.8600   22.0870 N   0  0  0  0  0  0  0  0  0  0  0  0
  -22.3550  -14.6250   20.7430 O   0  0  0  0  0  0  0  0  0  0  0  0
  -22.5150  -12.0160   22.4840 H   0  0  0  0  0  0  0  0  0  0  0  0
  -21.2060  -13.1570   22.3700 H   0  0  0  0  0  0  0  0  0  0  0  0
  -25.3990  -15.2610   20.2930 N   0  0  0  0  0  0  0  0  0  0  0  0
  -24.6480  -15.9110   20.4990 H   0  0  0  0  0  0  0  0  0  0  0  0
  -26.2680  -15.7310   20.0700 H   0  0  0  0  0  0  0  0  0  0  0  0
  -28.5940  -24.2560   21.0920 C   0  0  0  0  0  3  0  0  0  0  0  0
  -28.2880  -25.5790   21.2020 C   0  0  0  0  0  3  0  0  0  0  0  0
  -28.4030  -26.5980   20.2710 O   0  0  0  0  0  0  0  0  0  0  0  0
  -24.5680  -31.8650   23.2390 C   0  0  0  0  0  0  0  0  0  0  0  0
  -27.2980  -27.4240   20.2060 C   0  0  0  0  0  0  0  0  0  0  0  0
  -23.4130  -30.4680   21.5590 C   0  0  0  0  0  3  0  0  0  0  0  0
  -24.9090  -28.9430   20.1600 C   0  0  0  0  0  0  0  0  0  0  0  0
  -25.9440  -30.8310   21.4310 C   0  0  0  0  0  2  0  0  0  0  0  0
  -26.0540  -29.4630   20.7810 C   0  0  0  0  0  0  0  0  0  0  0  0
  -27.2570  -28.7110   20.8000 C   0  0  0  0  0  3  0  0  0  0  0  0
  -26.1400  -26.9280   19.5760 C   0  0  0  0  0  3  0  0  0  0  0  0
  -24.9490  -27.6760   19.5530 C   0  0  0  0  0  3  0  0  0  0  0  0
  -23.6610  -29.7990   20.1820 C   0  0  0  0  0  2  0  0  0  0  0  0
  -24.6590  -31.0700   22.1350 N   0  0  0  0  0  0  0  0  0  0  0  0
  -23.4720  -32.1300   23.7520 O   0  0  0  0  0  0  0  0  0  0  0  0
  -22.7380  -29.4390   22.4970 C   0  0  0  0  0  0  0  0  0  0  0  0
  -21.4140  -29.2670   22.3470 N   0  0  0  0  0  0  0  0  0  0  0  0
  -23.4040  -28.8010   23.3170 O   0  0  0  0  0  0  0  0  0  0  0  0
  -20.9390  -29.8340   21.6570 H   0  0  0  0  0  0  0  0  0  0  0  0
  -18.0200  -28.1140   22.8080 C   0  0  0  0  0  0  0  0  0  0  0  0
  -20.5800  -28.3250   23.0930 C   0  0  0  0  0  3  0  0  0  0  0  0
  -20.6630  -26.9050   22.4850 C   0  0  0  0  0  2  0  0  0  0  0  0
  -19.5600  -26.6230   21.4600 C   0  0  0  0  0  2  0  0  0  0  0  0
  -18.1770  -26.7760   22.1030 C   0  0  0  0  0  2  0  0  0  0  0  0
  -19.1490  -28.8470   23.2590 C   0  0  0  0  0  0  0  0  0  0  0  0
  -18.9480  -30.1010   23.8770 C   0  0  0  0  0  3  0  0  0  0  0  0
  -17.6510  -30.6190   24.0500 C   0  0  0  0  0  3  0  0  0  0  0  0
  -16.5360  -29.8810   23.6150 C   0  0  0  0  0  3  0  0  0  0  0  0
  -16.7210  -28.6300   22.9990 C   0  0  0  0  0  3  0  0  0  0  0  0
  -25.8350  -32.4980   23.8950 C   0  0  0  0  0  3  0  0  0  0  0  0
  -25.5170  -33.8950   24.2140 N   0  0  0  0  0  0  0  0  0  0  0  0
  -25.8700  -34.9470   23.4620 C   0  0  0  0  0  0  0  0  0  0  0  0
  -26.5680  -34.8400   22.4490 O   0  0  0  0  0  0  0  0  0  0  0  0
  -24.9000  -34.0530   24.9980 H   0  0  0  0  0  0  0  0  0  0  0  0
  -24.1580  -36.7420   23.0450 C   0  0  0  0  0  1  0  0  0  0  0  0
  -25.3690  -36.3360   23.9020 C   0  0  0  0  0  3  0  0  0  0  0  0
  -27.4690  -37.2200   24.8180 C   0  0  0  0  0  1  0  0  0  0  0  0
  -26.4060  -37.3870   23.8290 N   0  0  0  0  0  0  0  0  0  0  0  0
  -25.9960  -38.3080   23.9590 H   0  0  0  0  0  0  0  0  0  0  0  0
  -26.3190  -31.7270   25.1840 C   0  0  1  0  0  0  0  0  0  0  0  0
  -25.1970  -31.4820   26.2210 C   0  0  0  0  0  1  0  0  0  0  0  0
  -26.9180  -30.3520   24.8060 C   0  0  0  0  0  1  0  0  0  0  0  0
  -27.4460  -32.5250   25.8810 C   0  0  0  0  0  1  0  0  0  0  0  0
  1 10  1  0
  1  3  1  0
  2  3  1  0
  2 52  1  0
  3  6  1  0
  4  1  2  0
  5  2  2  0
  7 10  2  0
  7  8  1  0
  8 11  2  0
  9 12  2  0
 10  9  1  0
 11 12  1  0
 11 22  1  0
 12 13  1  0
 14 22  1  0
 15 20  1  0
 16 17  1  0
 16 15  1  0
 18 17  1  0
 18 27  1  0
 18 19  1  0
 20 14  1  0
 20 19  1  0
 21 14  2  0
 22 23  1  0
 24 25  2  0
 25 44  1  0
 26 25  1  0
 26 29  1  0
 27 28  1  0
 27 24  1  0
 28 26  2  0
 29 30  1  0
 30 31  2  0
 32 35  1  0
 32 31  1  0
 33 32  2  0
 34 33  1  0
 34 29  2  0
 35 36  1  0
 36 37  1  0
 37 38  2  0
 39 38  1  0
 39 43  1  0
 40 39  2  0
 41 36  2  0
 41 40  1  0
 42 41  1  0
 44 45  1  0
 45 48  1  0
 45 47  1  0
 46 44  2  0
 49 24  1  0
 49 50  1  0
 51 49  1  0
 52 53  2  0
 54 53  1  0
 55 66  2  0
 56 54  1  0
 56 61  1  0
 57 65  1  0
 57 67  1  0
 58 64  1  0
 58 60  1  0
 59 65  1  0
 60 61  2  0
 60 59  1  0
 62 56  2  0
 63 62  1  0
 63 58  2  0
 64 57  1  0
 65 55  1  0
 67 69  2  0
 68 67  1  0
 70 68  1  0
 71 80  2  0
 71 76  1  0
 72 68  1  0
 72 76  1  0
 73 72  1  0
 74 75  1  0
 74 73  1  0
 75 71  1  0
 76 77  2  0
 77 78  1  0
 79 78  2  0
 80 79  1  0
 81 55  1  0
 81 82  1  0
 81 91  1  0
 82 85  1  0
 83 87  1  0
 83 82  1  0
 84 83  2  0
 87 86  1  0
 89 87  1  0
 89 90  1  0
 89 88  1  0
 91 94  1  1
 91 92  1  0
 93 91  1  0
M  ISO  4  14 100  22 100  53 101  54 101
M  END
>  <TORSDO>  (26) 
F 18

>  <SCORE>  (26) 
-14.821

>  <name>  (26) 
25

>  <ligand_id>  (26) 
25

>  <original_smiles>  (26) 
[H]C(Oc1c([H])c([H])c2c(c1[H])C([H])([H])N(C(=O)C([H])(N([H])C(=O)C([H])(N([H])C([H])([H])[H])C([H])([H])[H])C(C([H])([H])[H])(C([H])([H])[H])C([H])([H])[H])C([H])(C(=O)N([H])C1([H])c3c([H])c([H])c([H])c([H])c3C([H])([H])C([H])([H])C1([H])[H])C2([H])[H])=C([H])C(=O)N([H])C(=O)c1c([H])c([H])c(N([H])C(=O)N2C([H])([H])C([H])([H])C([H])([H])C([H])(n3nc(-c4c([H])c([H])c(Oc5c([H])c([H])c(F)c([H])c5F)c([H])c4[H])c(C(=O)N([H])[H])c3N([H])[H])C2([H])[H])c(F)c1[H]

>  <smiles>  (26) 
[H]C(Oc1c([H])c([H])c2c(c1[H])C([H])([H])N(C(=O)C([H])(N([H])C(=O)C([H])(N([H])C([H])([H])[H])C([H])([H])[H])C(C([H])([H])[H])(C([H])([H])[H])C([H])([H])[H])C([H])(C(=O)N([H])C1([H])c3c([H])c([H])c([H])c([H])c3C([H])([H])C([H])([H])C1([H])[H])C2([H])[H])=C([H])C(=O)N([H])C(=O)c1c([H])c([H])c(N([H])C(=O)N2C([H])([H])C([H])([H])C([H])([H])C([H])(n3nc(-c4c([H])c([H])c(Oc5c([H])c([H])c(F)c([H])c5F)c([H])c4[H])c(C(=O)N([H])[H])c3N([H])[H])C2([H])[H])c(F)c1[H]

$$$$
26:0:0
     RDKit          3D

 97106  0  0  1  0  0  0  0  0999 V2000
  -28.8600  -23.9680   20.2890 C   0  0  0  0  0  0  0  0  0  0  0  0
  -30.2710  -23.9610   19.9700 C   0  0  0  0  0  0  0  0  0  0  0  0
  -28.4680  -22.5500   20.4850 C   0  0  0  0  0  0  0  0  0  0  0  0
  -28.0250  -25.0660   20.4070 C   0  0  0  0  0  3  0  0  0  0  0  0
  -30.7600  -22.5130   20.0300 C   0  0  0  0  0  2  0  0  0  0  0  0
  -29.5520  -21.7100   20.3020 N   0  0  0  0  0  0  0  0  0  0  0  0
  -30.9970  -24.9240   19.7040 O   0  0  0  0  0  0  0  0  0  0  0  0
  -27.3310  -22.1590   20.7760 O   0  0  0  0  0  0  0  0  0  0  0  0
  -28.5390  -19.3710   20.0090 C   0  0  0  0  0  3  0  0  0  0  0  0
  -30.8080  -19.5250   20.7600 C   0  0  0  0  0  3  0  0  0  0  0  0
  -29.6200  -20.2230   20.3710 C   0  0  0  0  0  0  0  0  0  0  0  0
  -28.6380  -17.9440   20.0350 C   0  0  0  0  0  0  0  0  0  0  0  0
  -29.8070  -17.2590   20.4690 C   0  0  0  0  0  0  0  0  0  0  0  0
  -30.9020  -18.0940   20.8300 C   0  0  0  0  0  0  0  0  0  0  0  0
  -32.0480  -17.5390   21.2900 F   0  0  0  0  0  0  0  0  0  0  0  0
  -30.5590  -14.7400   20.3530 C   0  0  0  0  0  0  0  0  0  0  0  0
  -30.3620  -12.4820   19.3100 C   0  0  0  0  0  2  0  0  0  0  0  0
  -29.4020  -12.5920   18.1040 C   0  0  0  0  0  2  0  0  0  0  0  0
  -27.9360  -12.4210   18.5470 C   0  0  0  0  0  2  0  0  0  0  0  0
  -27.5800  -13.2840   19.7860 C   0  0  0  0  0  3  0  0  0  0  0  0
  -28.6550  -13.1510   20.8900 C   0  0  0  0  0  2  0  0  0  0  0  0
  -29.9540  -13.5060   20.2940 N   0  0  0  0  0  0  0  0  0  0  0  0
  -31.7290  -14.8860   19.9930 O   0  0  0  0  0  0  0  0  0  0  0  0
  -29.7210  -15.7960   20.6150 N   0  0  0  0  0  0  0  0  0  0  0  0
  -28.7700  -15.4990   20.7740 H   0  0  0  0  0  0  0  0  0  0  0  0
  -25.1950  -13.8710   20.5400 C   0  0  0  0  0  0  0  0  0  0  0  0
  -24.1310  -13.0920   20.9060 C   0  0  0  0  0  0  0  0  0  0  0  0
  -24.5960  -11.7430   20.8590 C   0  0  0  0  0  0  0  0  0  0  0  0
  -26.2390  -12.9960   20.2860 N   0  0  0  0  0  0  0  0  0  0  0  0
  -25.8840  -11.7100   20.5400 N   0  0  0  0  0  0  0  0  0  0  0  0
  -23.8710  -10.4800   21.0440 C   0  0  0  0  0  0  0  0  0  0  0  0
  -24.2970   -9.5150   21.9830 C   0  0  0  0  0  3  0  0  0  0  0  0
  -23.5720   -8.3170   22.1580 C   0  0  0  0  0  3  0  0  0  0  0  0
  -22.4070   -8.0740   21.3920 C   0  0  0  0  0  0  0  0  0  0  0  0
  -22.0000   -9.0280   20.4420 C   0  0  0  0  0  3  0  0  0  0  0  0
  -22.7260  -10.2180   20.2660 C   0  0  0  0  0  3  0  0  0  0  0  0
  -21.6540   -6.9290   21.4750 O   0  0  0  0  0  0  0  0  0  0  0  0
  -21.5780   -6.2000   22.6350 C   0  0  0  0  0  0  0  0  0  0  0  0
  -21.0970   -6.7630   23.8370 C   0  0  0  0  0  3  0  0  0  0  0  0
  -20.9690   -5.9600   24.9890 C   0  0  0  0  0  3  0  0  0  0  0  0
  -21.3120   -4.5950   24.9380 C   0  0  0  0  0  0  0  0  0  0  0  0
  -21.7860   -4.0320   23.7390 C   0  0  0  0  0  3  0  0  0  0  0  0
  -21.9150   -4.8320   22.5900 C   0  0  0  0  0  0  0  0  0  0  0  0
  -22.3520   -4.2800   21.4330 F   0  0  0  0  0  0  0  0  0  0  0  0
  -21.1820   -3.8220   26.0400 F   0  0  0  0  0  0  0  0  0  0  0  0
  -22.7360  -13.5670   21.1950 C   0  0  0  0  0  0  0  0  0  0  0  0
  -22.0160  -12.8640   22.0610 N   0  0  0  0  0  0  0  0  0  0  0  0
  -22.2930  -14.5980   20.6890 O   0  0  0  0  0  0  0  0  0  0  0  0
  -22.3870  -12.0290   22.4910 H   0  0  0  0  0  0  0  0  0  0  0  0
  -21.0800  -13.1630   22.2960 H   0  0  0  0  0  0  0  0  0  0  0  0
  -25.3420  -15.2460   20.3890 N   0  0  0  0  0  0  0  0  0  0  0  0
  -24.5650  -15.8750   20.5520 H   0  0  0  0  0  0  0  0  0  0  0  0
  -26.1980  -15.7520   20.1650 H   0  0  0  0  0  0  0  0  0  0  0  0
  -27.5540  -17.1860   19.5850 N   0  0  0  0  0  0  0  0  0  0  0  0
  -26.8050  -17.7340   19.1750 H   0  0  0  0  0  0  0  0  0  0  0  0
  -27.8300  -16.4630   18.9300 H   0  0  0  0  0  0  0  0  0  0  0  0
  -28.2800  -26.4540   20.2240 O   0  0  0  0  0  0  0  0  0  0  0  0
  -24.6170  -31.9240   23.2700 C   0  0  0  0  0  0  0  0  0  0  0  0
  -27.1870  -27.3440   20.1920 C   0  0  0  0  0  0  0  0  0  0  0  0
  -23.3970  -30.5350   21.6340 C   0  0  0  0  0  3  0  0  0  0  0  0
  -24.8330  -28.9810   20.1960 C   0  0  0  0  0  0  0  0  0  0  0  0
  -25.9390  -30.8340   21.4430 C   0  0  0  0  0  2  0  0  0  0  0  0
  -26.0080  -29.4540   20.7940 C   0  0  0  0  0  0  0  0  0  0  0  0
  -27.1870  -28.6460   20.7900 C   0  0  0  0  0  3  0  0  0  0  0  0
  -25.9950  -26.9400   19.5480 C   0  0  0  0  0  3  0  0  0  0  0  0
  -24.8290  -27.7280   19.5640 C   0  0  0  0  0  3  0  0  0  0  0  0
  -23.6010  -29.8620   20.2520 C   0  0  0  0  0  2  0  0  0  0  0  0
  -24.6700  -31.1160   22.1720 N   0  0  0  0  0  0  0  0  0  0  0  0
  -23.5380  -32.2080   23.8110 O   0  0  0  0  0  0  0  0  0  0  0  0
  -22.7320  -29.5210   22.5960 C   0  0  0  0  0  0  0  0  0  0  0  0
  -21.4060  -29.3440   22.4680 N   0  0  0  0  0  0  0  0  0  0  0  0
  -23.4090  -28.8970   23.4160 O   0  0  0  0  0  0  0  0  0  0  0  0
  -20.9190  -29.8990   21.7790 H   0  0  0  0  0  0  0  0  0  0  0  0
  -18.0270  -28.1520   22.9690 C   0  0  0  0  0  0  0  0  0  0  0  0
  -20.5850  -28.4100   23.2410 C   0  0  0  0  0  3  0  0  0  0  0  0
  -20.6870  -26.9760   22.6710 C   0  0  0  0  0  2  0  0  0  0  0  0
  -19.5870  -26.6510   21.6560 C   0  0  0  0  0  2  0  0  0  0  0  0
  -18.2040  -26.8000   22.2980 C   0  0  0  0  0  2  0  0  0  0  0  0
  -19.1460  -28.9150   23.3970 C   0  0  0  0  0  0  0  0  0  0  0  0
  -18.9270  -30.1790   23.9850 C   0  0  0  0  0  3  0  0  0  0  0  0
  -17.6230  -30.6820   24.1480 C   0  0  0  0  0  3  0  0  0  0  0  0
  -16.5180  -29.9160   23.7360 C   0  0  0  0  0  3  0  0  0  0  0  0
  -16.7220  -28.6530   23.1520 C   0  0  0  0  0  3  0  0  0  0  0  0
  -25.9070  -32.5480   23.8860 C   0  0  0  0  0  3  0  0  0  0  0  0
  -25.6050  -33.9450   24.2290 N   0  0  0  0  0  0  0  0  0  0  0  0
  -25.9070  -35.0010   23.4610 C   0  0  0  0  0  0  0  0  0  0  0  0
  -26.5400  -34.9000   22.4070 O   0  0  0  0  0  0  0  0  0  0  0  0
  -25.0400  -34.0970   25.0520 H   0  0  0  0  0  0  0  0  0  0  0  0
  -24.1520  -36.7820   23.1860 C   0  0  0  0  0  1  0  0  0  0  0  0
  -25.4330  -36.3870   23.9390 C   0  0  0  0  0  3  0  0  0  0  0  0
  -27.5970  -37.2910   24.6690 C   0  0  0  0  0  1  0  0  0  0  0  0
  -26.4530  -37.4460   23.7730 N   0  0  0  0  0  0  0  0  0  0  0  0
  -26.0490  -38.3640   23.9320 H   0  0  0  0  0  0  0  0  0  0  0  0
  -26.4300  -31.7660   25.1540 C   0  0  1  0  0  0  0  0  0  0  0  0
  -25.3440  -31.5250   26.2280 C   0  0  0  0  0  1  0  0  0  0  0  0
  -27.0070  -30.3890   24.7490 C   0  0  0  0  0  1  0  0  0  0  0  0
  -27.5890  -32.5520   25.8120 C   0  0  0  0  0  1  0  0  0  0  0  0
  1  4  2  0
  1  3  1  0
  2  5  1  0
  2  1  1  0
  3  8  2  0
  5  6  1  0
  6 11  1  0
  6  3  1  0
  7  2  2  0
  9 12  2  0
  9 11  1  0
 10 14  1  0
 11 10  2  0
 12 13  1  0
 13 24  1  0
 13 14  2  0
 14 15  1  0
 16 24  1  0
 17 22  1  0
 18 19  1  0
 18 17  1  0
 20 19  1  0
 20 29  1  0
 20 21  1  0
 22 16  1  0
 22 21  1  0
 23 16  2  0
 24 25  1  0
 26 27  2  0
 27 46  1  0
 28 27  1  0
 28 31  1  0
 29 30  1  0
 29 26  1  0
 30 28  2  0
 31 32  1  0
 32 33  2  0
 34 37  1  0
 34 33  1  0
 35 34  2  0
 36 35  1  0
 36 31  2  0
 37 38  1  0
 38 39  1  0
 39 40  2  0
 41 40  1  0
 41 45  1  0
 42 41  2  0
 43 38  2  0
 43 42  1  0
 44 43  1  0
 46 47  1  0
 47 50  1  0
 47 49  1  0
 48 46  2  0
 51 26  1  0
 51 52  1  0
 53 51  1  0
 54 12  1  0
 55 54  1  0
 56 54  1  0
 57  4  1  0
 58 69  2  0
 59 57  1  0
 59 64  1  0
 60 68  1  0
 60 70  1  0
 61 67  1  0
 61 63  1  0
 62 68  1  0
 63 62  1  0
 64 63  2  0
 65 66  1  0
 65 59  2  0
 66 61  2  0
 67 60  1  0
 68 58  1  0
 70 72  2  0
 71 70  1  0
 73 71  1  0
 74 83  2  0
 74 79  1  0
 75 71  1  0
 75 79  1  0
 76 75  1  0
 77 78  1  0
 77 76  1  0
 78 74  1  0
 79 80  2  0
 80 81  1  0
 82 81  2  0
 83 82  1  0
 84 58  1  0
 84 85  1  0
 84 94  1  0
 85 88  1  0
 86 90  1  0
 86 85  1  0
 87 86  2  0
 90 89  1  0
 92 93  1  0
 92 90  1  0
 92 91  1  0
 94 97  1  1
 94 95  1  0
 96 94  1  0
M  ISO  4   4 101  16 100  24 100  57 101
M  END
>  <TORSDO>  (27) 
F 18

>  <SCORE>  (27) 
-15.429

>  <name>  (27) 
26

>  <ligand_id>  (27) 
26

>  <original_smiles>  (27) 
[H]C(Oc1c([H])c([H])c2c(c1[H])C([H])([H])N(C(=O)C([H])(N([H])C(=O)C([H])(N([H])C([H])([H])[H])C([H])([H])[H])C(C([H])([H])[H])(C([H])([H])[H])C([H])([H])[H])C([H])(C(=O)N([H])C1([H])c3c([H])c([H])c([H])c([H])c3C([H])([H])C([H])([H])C1([H])[H])C2([H])[H])=C1C(=O)N(c2c([H])c(F)c(N([H])C(=O)N3C([H])([H])C([H])([H])C([H])([H])C([H])(n4nc(-c5c([H])c([H])c(Oc6c([H])c([H])c(F)c([H])c6F)c([H])c5[H])c(C(=O)N([H])[H])c4N([H])[H])C3([H])[H])c(N([H])[H])c2[H])C([H])([H])C1=O

>  <smiles>  (27) 
[H]C(Oc1c([H])c([H])c2c(c1[H])C([H])([H])N(C(=O)C([H])(N([H])C(=O)C([H])(N([H])C([H])([H])[H])C([H])([H])[H])C(C([H])([H])[H])(C([H])([H])[H])C([H])([H])[H])C([H])(C(=O)N([H])C1([H])c3c([H])c([H])c([H])c([H])c3C([H])([H])C([H])([H])C1([H])[H])C2([H])[H])=C1C(=O)N(c2c([H])c(F)c(N([H])C(=O)N3C([H])([H])C([H])([H])C([H])([H])C([H])(n4nc(-c5c([H])c([H])c(Oc6c([H])c([H])c(F)c([H])c6F)c([H])c5[H])c(C(=O)N([H])[H])c4N([H])[H])C3([H])[H])c(N([H])[H])c2[H])C([H])([H])C1=O

$$$$
27:0:0
     RDKit          3D

 94102  0  0  1  0  0  0  0  0999 V2000
  -28.6550  -23.2860   20.5570 C   0  0  0  0  0  0  0  0  0  0  0  0
  -29.3000  -22.1430   20.9730 N   0  0  0  0  0  0  0  0  0  0  0  0
  -27.9940  -23.3300   19.5170 O   0  0  0  0  0  0  0  0  0  0  0  0
  -30.0010  -22.3260   21.6770 H   0  0  0  0  0  0  0  0  0  0  0  0
  -30.0910  -19.7090   21.0440 C   0  0  0  0  0  3  0  0  0  0  0  0
  -28.0940  -20.1890   19.9340 C   0  0  0  0  0  3  0  0  0  0  0  0
  -29.1500  -20.7320   20.6240 C   0  0  0  0  0  0  0  0  0  0  0  0
  -29.7630  -18.4070   20.6680 C   0  0  0  0  0  0  0  0  0  0  0  0
  -28.2490  -18.4340   19.7850 S   0  0  0  0  0  0  0  0  0  0  0  0
  -30.7060  -14.6800   20.4120 C   0  0  0  0  0  0  0  0  0  0  0  0
  -30.4120  -12.4510   19.3520 C   0  0  0  0  0  2  0  0  0  0  0  0
  -29.4800  -12.5540   18.1280 C   0  0  0  0  0  2  0  0  0  0  0  0
  -28.0100  -12.4010   18.5570 C   0  0  0  0  0  2  0  0  0  0  0  0
  -27.6410  -13.2840   19.7810 C   0  0  0  0  0  3  0  0  0  0  0  0
  -28.7000  -13.1920   20.9030 C   0  0  0  0  0  2  0  0  0  0  0  0
  -30.0020  -13.5080   20.3020 N   0  0  0  0  0  0  0  0  0  0  0  0
  -31.8980  -14.6910   20.0950 O   0  0  0  0  0  0  0  0  0  0  0  0
  -30.5590  -17.1090   20.8070 C   0  0  0  0  0  0  0  0  0  0  0  0
  -30.0150  -15.8540   20.6330 N   0  0  0  0  0  0  0  0  0  0  0  0
  -31.7450  -17.2670   21.1200 O   0  0  0  0  0  0  0  0  0  0  0  0
  -29.0120  -15.8030   20.5950 H   0  0  0  0  0  0  0  0  0  0  0  0
  -25.2450  -13.8670   20.4900 C   0  0  0  0  0  0  0  0  0  0  0  0
  -24.1800  -13.0900   20.8570 C   0  0  0  0  0  0  0  0  0  0  0  0
  -24.6490  -11.7400   20.8330 C   0  0  0  0  0  0  0  0  0  0  0  0
  -26.2950  -12.9920   20.2660 N   0  0  0  0  0  0  0  0  0  0  0  0
  -25.9430  -11.7080   20.5350 N   0  0  0  0  0  0  0  0  0  0  0  0
  -23.9250  -10.4750   21.0180 C   0  0  0  0  0  0  0  0  0  0  0  0
  -24.3430   -9.5150   21.9660 C   0  0  0  0  0  3  0  0  0  0  0  0
  -23.6160   -8.3180   22.1400 C   0  0  0  0  0  3  0  0  0  0  0  0
  -22.4590   -8.0710   21.3640 C   0  0  0  0  0  0  0  0  0  0  0  0
  -22.0600   -9.0190   20.4060 C   0  0  0  0  0  3  0  0  0  0  0  0
  -22.7880  -10.2080   20.2300 C   0  0  0  0  0  3  0  0  0  0  0  0
  -21.7060   -6.9230   21.4480 O   0  0  0  0  0  0  0  0  0  0  0  0
  -21.6290   -6.1950   22.6080 C   0  0  0  0  0  0  0  0  0  0  0  0
  -21.1400   -6.7570   23.8070 C   0  0  0  0  0  3  0  0  0  0  0  0
  -21.0120   -5.9550   24.9580 C   0  0  0  0  0  3  0  0  0  0  0  0
  -21.3610   -4.5930   24.9120 C   0  0  0  0  0  0  0  0  0  0  0  0
  -21.8410   -4.0300   23.7170 C   0  0  0  0  0  3  0  0  0  0  0  0
  -21.9710   -4.8280   22.5670 C   0  0  0  0  0  0  0  0  0  0  0  0
  -22.4160   -4.2760   21.4120 F   0  0  0  0  0  0  0  0  0  0  0  0
  -21.2290   -3.8190   26.0160 F   0  0  0  0  0  0  0  0  0  0  0  0
  -22.7790  -13.5620   21.1150 C   0  0  0  0  0  0  0  0  0  0  0  0
  -22.0420  -12.8630   21.9710 N   0  0  0  0  0  0  0  0  0  0  0  0
  -22.3450  -14.5860   20.5910 O   0  0  0  0  0  0  0  0  0  0  0  0
  -22.4060  -12.0350   22.4190 H   0  0  0  0  0  0  0  0  0  0  0  0
  -21.0960  -13.1560   22.1750 H   0  0  0  0  0  0  0  0  0  0  0  0
  -25.4030  -15.2380   20.3070 N   0  0  0  0  0  0  0  0  0  0  0  0
  -24.6260  -15.8830   20.3980 H   0  0  0  0  0  0  0  0  0  0  0  0
  -26.2380  -15.6780   19.9410 H   0  0  0  0  0  0  0  0  0  0  0  0
  -28.6470  -25.7780   21.2910 C   0  0  0  0  0  3  0  0  0  0  0  0
  -28.8230  -24.4270   21.5040 C   0  0  0  0  0  0  0  0  0  0  0  0
  -29.1390  -24.0890   22.7650 O   0  0  0  0  0  0  0  0  0  0  0  0
  -28.9490  -23.1620   22.8570 H   0  0  0  0  0  0  0  0  0  0  0  0
  -28.3590  -26.5110   20.1470 O   0  0  0  0  0  0  0  0  0  0  0  0
  -24.6070  -31.8840   23.2290 C   0  0  0  0  0  0  0  0  0  0  0  0
  -27.2690  -27.3760   20.1800 C   0  0  0  0  0  0  0  0  0  0  0  0
  -23.4240  -30.4840   21.5730 C   0  0  0  0  0  3  0  0  0  0  0  0
  -24.8940  -28.9470   20.1580 C   0  0  0  0  0  0  0  0  0  0  0  0
  -25.9600  -30.8230   21.4120 C   0  0  0  0  0  2  0  0  0  0  0  0
  -26.0530  -29.4460   20.7710 C   0  0  0  0  0  0  0  0  0  0  0  0
  -27.2460  -28.6670   20.7850 C   0  0  0  0  0  3  0  0  0  0  0  0
  -26.0970  -26.9210   19.5470 C   0  0  0  0  0  3  0  0  0  0  0  0
  -24.9140  -27.6850   19.5430 C   0  0  0  0  0  3  0  0  0  0  0  0
  -23.6520  -29.8140   20.1930 C   0  0  0  0  0  2  0  0  0  0  0  0
  -24.6820  -31.0810   22.1290 N   0  0  0  0  0  0  0  0  0  0  0  0
  -23.5180  -32.1540   23.7560 O   0  0  0  0  0  0  0  0  0  0  0  0
  -22.7610  -29.4590   22.5240 C   0  0  0  0  0  0  0  0  0  0  0  0
  -21.4350  -29.2810   22.3900 N   0  0  0  0  0  0  0  0  0  0  0  0
  -23.4380  -28.8260   23.3380 O   0  0  0  0  0  0  0  0  0  0  0  0
  -20.9500  -29.8430   21.7040 H   0  0  0  0  0  0  0  0  0  0  0  0
  -18.0520  -28.1120   22.8950 C   0  0  0  0  0  0  0  0  0  0  0  0
  -20.6140  -28.3410   23.1510 C   0  0  0  0  0  3  0  0  0  0  0  0
  -20.6980  -26.9180   22.5530 C   0  0  0  0  0  2  0  0  0  0  0  0
  -19.5860  -26.6230   21.5420 C   0  0  0  0  0  2  0  0  0  0  0  0
  -18.2100  -26.7720   22.1970 C   0  0  0  0  0  2  0  0  0  0  0  0
  -19.1820  -28.8560   23.3290 C   0  0  0  0  0  0  0  0  0  0  0  0
  -18.9810  -30.1120   23.9430 C   0  0  0  0  0  3  0  0  0  0  0  0
  -17.6820  -30.6240   24.1260 C   0  0  0  0  0  3  0  0  0  0  0  0
  -16.5670  -29.8770   23.7080 C   0  0  0  0  0  3  0  0  0  0  0  0
  -16.7530  -28.6230   23.0980 C   0  0  0  0  0  3  0  0  0  0  0  0
  -25.8830  -32.5190   23.8630 C   0  0  0  0  0  3  0  0  0  0  0  0
  -26.3850  -31.7540   25.1490 C   0  0  1  0  0  0  0  0  0  0  0  0
  -25.2770  -31.5190   26.2030 C   0  0  0  0  0  1  0  0  0  0  0  0
  -26.9750  -30.3760   24.7710 C   0  0  0  0  0  1  0  0  0  0  0  0
  -27.5250  -32.5520   25.8230 C   0  0  0  0  0  1  0  0  0  0  0  0
  -25.5690  -33.9190   24.1810 N   0  0  0  0  0  0  0  0  0  0  0  0
  -25.9150  -34.9680   23.4250 C   0  0  0  0  0  0  0  0  0  0  0  0
  -26.6020  -34.8590   22.4050 O   0  0  0  0  0  0  0  0  0  0  0  0
  -24.9590  -34.0780   24.9710 H   0  0  0  0  0  0  0  0  0  0  0  0
  -24.2020  -36.7650   23.0270 C   0  0  0  0  0  1  0  0  0  0  0  0
  -25.4230  -36.3590   23.8690 C   0  0  0  0  0  3  0  0  0  0  0  0
  -27.5360  -37.2410   24.7540 C   0  0  0  0  0  1  0  0  0  0  0  0
  -26.4610  -37.4070   23.7780 N   0  0  0  0  0  0  0  0  0  0  0  0
  -26.0550  -38.3300   23.9070 H   0  0  0  0  0  0  0  0  0  0  0  0
  1  2  1  0
  1 51  1  0
  2  4  1  0
  3  1  2  0
  6  7  2  0
  7  2  1  0
  7  5  1  0
  8 18  1  0
  8  5  2  0
  9  6  1  0
  9  8  1  0
 10 19  1  0
 11 16  1  0
 12 13  1  0
 12 11  1  0
 14 13  1  0
 14 25  1  0
 14 15  1  0
 16 10  1  0
 16 15  1  0
 17 10  2  0
 18 20  2  0
 19 18  1  0
 21 19  1  0
 22 23  2  0
 23 42  1  0
 24 23  1  0
 24 27  1  0
 25 22  1  0
 25 26  1  0
 26 24  2  0
 27 28  1  0
 28 29  2  0
 30 33  1  0
 30 29  1  0
 31 30  2  0
 32 31  1  0
 32 27  2  0
 33 34  1  0
 34 35  1  0
 35 36  2  0
 37 36  1  0
 37 41  1  0
 38 37  2  0
 39 34  2  0
 39 38  1  0
 40 39  1  0
 42 43  1  0
 43 46  1  0
 43 45  1  0
 44 42  2  0
 47 48  1  0
 47 22  1  0
 49 47  1  0
 50 51  2  0
 51 52  1  0
 52 53  1  0
 54 56  1  0
 54 50  1  0
 55 66  2  0
 56 61  1  0
 57 65  1  0
 57 67  1  0
 58 64  1  0
 58 60  1  0
 59 65  1  0
 60 61  2  0
 60 59  1  0
 62 56  2  0
 63 62  1  0
 63 58  2  0
 64 57  1  0
 65 55  1  0
 67 69  2  0
 68 67  1  0
 70 68  1  0
 71 80  2  0
 71 76  1  0
 72 68  1  0
 72 76  1  0
 73 72  1  0
 74 75  1  0
 74 73  1  0
 75 71  1  0
 76 77  2  0
 77 78  1  0
 79 78  2  0
 80 79  1  0
 81 55  1  0
 81 86  1  0
 81 82  1  0
 82 85  1  1
 82 83  1  0
 84 82  1  0
 86 89  1  0
 87 91  1  0
 87 86  1  0
 88 87  2  0
 91 90  1  0
 93 91  1  0
 93 94  1  0
 93 92  1  0
M  ISO  4  10 100  19 100  50 101  54 101
M  END
>  <TORSDO>  (28) 
F 19

>  <SCORE>  (28) 
-14.851

>  <name>  (28) 
27

>  <ligand_id>  (28) 
27

>  <original_smiles>  (28) 
[H]OC(C(=O)N([H])c1c([H])sc(C(=O)N([H])C(=O)N2C([H])([H])C([H])([H])C([H])([H])C([H])(n3nc(-c4c([H])c([H])c(Oc5c([H])c([H])c(F)c([H])c5F)c([H])c4[H])c(C(=O)N([H])[H])c3N([H])[H])C2([H])[H])c1[H])=C([H])Oc1c([H])c([H])c2c(c1[H])C([H])([H])N(C(=O)C([H])(N([H])C(=O)C([H])(N([H])C([H])([H])[H])C([H])([H])[H])C(C([H])([H])[H])(C([H])([H])[H])C([H])([H])[H])C([H])(C(=O)N([H])C1([H])c3c([H])c([H])c([H])c([H])c3C([H])([H])C([H])([H])C1([H])[H])C2([H])[H]

>  <smiles>  (28) 
[H]OC(C(=O)N([H])c1c([H])sc(C(=O)N([H])C(=O)N2C([H])([H])C([H])([H])C([H])([H])C([H])(n3nc(-c4c([H])c([H])c(Oc5c([H])c([H])c(F)c([H])c5F)c([H])c4[H])c(C(=O)N([H])[H])c3N([H])[H])C2([H])[H])c1[H])=C([H])Oc1c([H])c([H])c2c(c1[H])C([H])([H])N(C(=O)C([H])(N([H])C(=O)C([H])(N([H])C([H])([H])[H])C([H])([H])[H])C(C([H])([H])[H])(C([H])([H])[H])C([H])([H])[H])C([H])(C(=O)N([H])C1([H])c3c([H])c([H])c([H])c([H])c3C([H])([H])C([H])([H])C1([H])[H])C2([H])[H]

$$$$
28:0:0
     RDKit          3D

100109  0  0  1  0  0  0  0  0999 V2000
  -29.3340  -21.1230   21.4150 C   0  0  0  0  0  3  0  0  0  0  0  0
  -30.6360  -20.6460   19.4020 C   0  0  0  0  0  3  0  0  0  0  0  0
  -28.9030  -22.3350   20.8490 C   0  0  0  0  0  3  0  0  0  0  0  0
  -30.2110  -21.8690   18.8410 C   0  0  0  0  0  3  0  0  0  0  0  0
  -30.1820  -20.2610   20.6860 C   0  0  0  0  0  0  0  0  0  0  0  0
  -29.3290  -22.7050   19.5590 C   0  0  0  0  0  0  0  0  0  0  0  0
  -31.2290  -16.6750   22.5910 C   0  0  0  0  0  3  0  0  0  0  0  0
  -30.3200  -16.6060   21.5890 C   0  0  0  0  0  0  0  0  0  0  0  0
  -29.9530  -17.8220   20.8470 C   0  0  0  0  0  0  0  0  0  0  0  0
  -31.5200  -19.0550   22.3150 C   0  0  0  0  0  0  0  0  0  0  0  0
  -31.8260  -17.8590   22.9510 N   0  0  0  0  0  0  0  0  0  0  0  0
  -30.5800  -19.0240   21.2660 N   0  0  0  0  0  0  0  0  0  0  0  0
  -29.1550  -17.8270   19.9020 O   0  0  0  0  0  0  0  0  0  0  0  0
  -32.0720  -20.0920   22.6840 O   0  0  0  0  0  0  0  0  0  0  0  0
  -32.5080  -17.8940   23.7020 H   0  0  0  0  0  0  0  0  0  0  0  0
  -30.0810  -14.6680   20.1790 C   0  0  0  0  0  0  0  0  0  0  0  0
  -29.6930  -12.6500   18.8140 C   0  0  0  0  0  2  0  0  0  0  0  0
  -28.6010  -12.8860   17.7540 C   0  0  0  0  0  2  0  0  0  0  0  0
  -27.2070  -12.5930   18.3370 C   0  0  0  0  0  2  0  0  0  0  0  0
  -26.9700  -13.3000   19.6970 C   0  0  0  0  0  3  0  0  0  0  0  0
  -28.1630  -13.0810   20.6580 C   0  0  0  0  0  2  0  0  0  0  0  0
  -29.4020  -13.5050   19.9760 N   0  0  0  0  0  0  0  0  0  0  0  0
  -31.0010  -15.0440   19.4480 O   0  0  0  0  0  0  0  0  0  0  0  0
  -29.7220  -15.3890   21.2460 N   0  0  0  0  0  0  0  0  0  0  0  0
  -28.9360  -15.0830   21.7990 H   0  0  0  0  0  0  0  0  0  0  0  0
  -24.6180  -13.6480   20.6820 C   0  0  0  0  0  0  0  0  0  0  0  0
  -23.6690  -12.7670   21.1260 C   0  0  0  0  0  0  0  0  0  0  0  0
  -24.2430  -11.4660   20.9850 C   0  0  0  0  0  0  0  0  0  0  0  0
  -25.7070  -12.8790   20.3040 N   0  0  0  0  0  0  0  0  0  0  0  0
  -25.4900  -11.5590   20.5410 N   0  0  0  0  0  0  0  0  0  0  0  0
  -23.6600  -10.1340   21.1950 C   0  0  0  0  0  0  0  0  0  0  0  0
  -24.1850   -9.2390   22.1540 C   0  0  0  0  0  3  0  0  0  0  0  0
  -23.5940   -7.9720   22.3490 C   0  0  0  0  0  3  0  0  0  0  0  0
  -22.4660   -7.5890   21.5860 C   0  0  0  0  0  0  0  0  0  0  0  0
  -21.9610   -8.4750   20.6170 C   0  0  0  0  0  3  0  0  0  0  0  0
  -22.5520   -9.7330   20.4220 C   0  0  0  0  0  3  0  0  0  0  0  0
  -21.8440   -6.3670   21.6880 O   0  0  0  0  0  0  0  0  0  0  0  0
  -21.7730   -5.6930   22.8820 C   0  0  0  0  0  0  0  0  0  0  0  0
  -21.1260   -6.2450   24.0100 C   0  0  0  0  0  3  0  0  0  0  0  0
  -21.0140   -5.4910   25.1950 C   0  0  0  0  0  3  0  0  0  0  0  0
  -21.5360   -4.1850   25.2510 C   0  0  0  0  0  0  0  0  0  0  0  0
  -22.1740   -3.6320   24.1270 C   0  0  0  0  0  3  0  0  0  0  0  0
  -22.2880   -4.3830   22.9440 C   0  0  0  0  0  0  0  0  0  0  0  0
  -22.8860   -3.8380   21.8580 F   0  0  0  0  0  0  0  0  0  0  0  0
  -21.4220   -3.4580   26.3870 F   0  0  0  0  0  0  0  0  0  0  0  0
  -22.2720  -13.1010   21.5650 C   0  0  0  0  0  0  0  0  0  0  0  0
  -21.7090  -12.3120   22.4720 N   0  0  0  0  0  0  0  0  0  0  0  0
  -21.6900  -14.1000   21.1420 O   0  0  0  0  0  0  0  0  0  0  0  0
  -22.1980  -11.5080   22.8390 H   0  0  0  0  0  0  0  0  0  0  0  0
  -20.7760  -12.5140   22.8020 H   0  0  0  0  0  0  0  0  0  0  0  0
  -24.6430  -15.0330   20.5520 N   0  0  0  0  0  0  0  0  0  0  0  0
  -23.8470  -15.6160   20.7850 H   0  0  0  0  0  0  0  0  0  0  0  0
  -25.4240  -15.5570   20.1760 H   0  0  0  0  0  0  0  0  0  0  0  0
  -29.3210  -25.0610   18.8570 C   0  0  0  0  0  0  0  0  0  0  0  0
  -28.7550  -23.8530   18.9740 N   0  0  0  0  0  0  0  0  0  0  0  0
  -30.5170  -25.3210   19.0350 O   0  0  0  0  0  0  0  0  0  0  0  0
  -27.7510  -23.8490   18.8420 H   0  0  0  0  0  0  0  0  0  0  0  0
  -28.2610  -26.1100   18.4660 C   0  0  0  0  0  0  0  0  0  0  0  0
  -27.7080  -26.1120   17.3580 O   0  0  0  0  0  0  0  0  0  0  0  0
  -27.9770  -26.9160   19.5230 O   0  0  0  0  0  0  0  0  0  0  0  0
  -24.4980  -31.9520   23.1250 C   0  0  0  0  0  0  0  0  0  0  0  0
  -26.8060  -27.6390   19.6270 C   0  0  0  0  0  0  0  0  0  0  0  0
  -23.1330  -30.6450   21.5290 C   0  0  0  0  0  3  0  0  0  0  0  0
  -24.4360  -29.1540   19.9230 C   0  0  0  0  0  0  0  0  0  0  0  0
  -25.6380  -30.9800   21.1370 C   0  0  0  0  0  2  0  0  0  0  0  0
  -25.6470  -29.6400   20.4320 C   0  0  0  0  0  0  0  0  0  0  0  0
  -26.8320  -28.8900   20.2810 C   0  0  0  0  0  3  0  0  0  0  0  0
  -25.5690  -27.1510   19.1420 C   0  0  0  0  0  3  0  0  0  0  0  0
  -24.3900  -27.9050   19.2810 C   0  0  0  0  0  3  0  0  0  0  0  0
  -23.2150  -30.0250   20.1080 C   0  0  0  0  0  2  0  0  0  0  0  0
  -24.4460  -31.2040   21.9880 N   0  0  0  0  0  0  0  0  0  0  0  0
  -23.4710  -32.2180   23.7640 O   0  0  0  0  0  0  0  0  0  0  0  0
  -22.5440  -29.5900   22.4930 C   0  0  0  0  0  0  0  0  0  0  0  0
  -21.2230  -29.3680   22.4010 N   0  0  0  0  0  0  0  0  0  0  0  0
  -23.2720  -28.9770   23.2800 O   0  0  0  0  0  0  0  0  0  0  0  0
  -20.6970  -29.9220   21.7410 H   0  0  0  0  0  0  0  0  0  0  0  0
  -17.9130  -28.0210   22.9260 C   0  0  0  0  0  0  0  0  0  0  0  0
  -20.4560  -28.3980   23.1820 C   0  0  0  0  0  3  0  0  0  0  0  0
  -20.6220  -26.9690   22.6130 C   0  0  0  0  0  2  0  0  0  0  0  0
  -19.5310  -26.5900   21.6060 C   0  0  0  0  0  2  0  0  0  0  0  0
  -18.1480  -26.6750   22.2590 C   0  0  0  0  0  2  0  0  0  0  0  0
  -18.9980  -28.8360   23.3450 C   0  0  0  0  0  0  0  0  0  0  0  0
  -18.7260  -30.0920   23.9280 C   0  0  0  0  0  3  0  0  0  0  0  0
  -17.4000  -30.5340   24.0980 C   0  0  0  0  0  3  0  0  0  0  0  0
  -16.3300  -29.7160   23.6960 C   0  0  0  0  0  3  0  0  0  0  0  0
  -16.5870  -28.4620   23.1150 C   0  0  0  0  0  3  0  0  0  0  0  0
  -25.8440  -32.5330   23.6610 C   0  0  0  0  0  3  0  0  0  0  0  0
  -26.4580  -31.6880   24.8450 C   0  0  1  0  0  0  0  0  0  0  0  0
  -25.4520  -31.3870   25.9790 C   0  0  0  0  0  1  0  0  0  0  0  0
  -27.0050  -30.3380   24.3260 C   0  0  0  0  0  1  0  0  0  0  0  0
  -27.6580  -32.4450   25.4620 C   0  0  0  0  0  1  0  0  0  0  0  0
  -25.5930  -33.9160   24.0850 N   0  0  0  0  0  0  0  0  0  0  0  0
  -25.8880  -35.0000   23.3560 C   0  0  0  0  0  0  0  0  0  0  0  0
  -26.4770  -34.9390   22.2720 O   0  0  0  0  0  0  0  0  0  0  0  0
  -25.0630  -34.0390   24.9350 H   0  0  0  0  0  0  0  0  0  0  0  0
  -24.1820  -36.8420   23.2140 C   0  0  0  0  0  1  0  0  0  0  0  0
  -25.4650  -36.3710   23.9170 C   0  0  0  0  0  3  0  0  0  0  0  0
  -27.6650  -37.1720   24.6540 C   0  0  0  0  0  1  0  0  0  0  0  0
  -26.5110  -37.4070   23.7900 N   0  0  0  0  0  0  0  0  0  0  0  0
  -26.1350  -38.3270   24.0040 H   0  0  0  0  0  0  0  0  0  0  0  0
  2  5  1  0
  3  1  1  0
  4  2  2  0
  4  6  1  0
  5 12  1  0
  5  1  2  0
  6  3  2  0
  7 11  1  0
  8  7  2  0
  9 12  1  0
  9  8  1  0
 10 14  2  0
 10 11  1  0
 11 15  1  0
 12 10  1  0
 13  9  2  0
 16 24  1  0
 17 22  1  0
 18 19  1  0
 18 17  1  0
 20 19  1  0
 20 29  1  0
 20 21  1  0
 22 16  1  0
 22 21  1  0
 23 16  2  0
 24  8  1  0
 24 25  1  0
 26 27  2  0
 27 46  1  0
 28 27  1  0
 28 31  1  0
 29 30  1  0
 29 26  1  0
 30 28  2  0
 31 32  1  0
 32 33  2  0
 34 37  1  0
 34 33  1  0
 35 34  2  0
 36 35  1  0
 36 31  2  0
 37 38  1  0
 38 43  2  0
 38 39  1  0
 39 40  2  0
 40 41  1  0
 41 45  1  0
 42 41  2  0
 43 42  1  0
 44 43  1  0
 46 47  1  0
 47 50  1  0
 47 49  1  0
 48 46  2  0
 51 26  1  0
 51 52  1  0
 53 51  1  0
 54 55  1  0
 54 56  2  0
 55  6  1  0
 57 55  1  0
 58 54  1  0
 58 60  1  0
 59 58  2  0
 60 62  1  0
 61 72  2  0
 62 67  1  0
 63 71  1  0
 63 73  1  0
 64 70  1  0
 64 66  1  0
 65 71  1  0
 66 65  1  0
 67 66  2  0
 68 69  1  0
 68 62  2  0
 69 64  2  0
 70 63  1  0
 71 61  1  0
 73 75  2  0
 74 73  1  0
 76 74  1  0
 77 86  2  0
 77 82  1  0
 78 74  1  0
 78 82  1  0
 79 78  1  0
 80 81  1  0
 80 79  1  0
 81 77  1  0
 82 83  2  0
 83 84  1  0
 85 84  2  0
 86 85  1  0
 87 61  1  0
 87 92  1  0
 87 88  1  0
 88 91  1  1
 88 89  1  0
 90 88  1  0
 92 95  1  0
 93 97  1  0
 93 92  1  0
 94 93  2  0
 97 96  1  0
 99 97  1  0
 99100  1  0
 99 98  1  0
M  ISO  4  16 100  24 100  58 101  60 101
M  END
>  <TORSDO>  (29) 
F 19

>  <SCORE>  (29) 
-12.302

>  <name>  (29) 
28

>  <ligand_id>  (29) 
28

>  <original_smiles>  (29) 
[H]c1c([H])c([H])c2c(c1[H])C([H])([H])C([H])([H])C([H])([H])C2([H])N([H])C(=O)C1([H])N(C(=O)C([H])(N([H])C(=O)C([H])(N([H])C([H])([H])[H])C([H])([H])[H])C(C([H])([H])[H])(C([H])([H])[H])C([H])([H])[H])C([H])([H])c2c([H])c(OC(=O)C(=O)N([H])c3c([H])c([H])c(-n4c(=O)c(N([H])C(=O)N5C([H])([H])C([H])([H])C([H])([H])C([H])(n6nc(-c7c([H])c([H])c(Oc8c([H])c([H])c(F)c([H])c8F)c([H])c7[H])c(C(=O)N([H])[H])c6N([H])[H])C5([H])[H])c([H])n([H])c4=O)c([H])c3[H])c([H])c([H])c2C1([H])[H]

>  <smiles>  (29) 
[H]c1c([H])c([H])c2c(c1[H])C([H])([H])C([H])([H])C([H])([H])C2([H])N([H])C(=O)C1([H])N(C(=O)C([H])(N([H])C(=O)C([H])(N([H])C([H])([H])[H])C([H])([H])[H])C(C([H])([H])[H])(C([H])([H])[H])C([H])([H])[H])C([H])([H])c2c([H])c(OC(=O)C(=O)N([H])c3c([H])c([H])c(-n4c(=O)c(N([H])C(=O)N5C([H])([H])C([H])([H])C([H])([H])C([H])(n6nc(-c7c([H])c([H])c(Oc8c([H])c([H])c(F)c([H])c8F)c([H])c7[H])c(C(=O)N([H])[H])c6N([H])[H])C5([H])[H])c([H])n([H])c4=O)c([H])c3[H])c([H])c([H])c2C1([H])[H]

$$$$
29:0:0
     RDKit          3D

 94102  0  0  1  0  0  0  0  0999 V2000
  -29.9830  -21.3450   19.7630 C   0  0  0  0  0  0  0  0  0  0  0  0
  -29.1590  -23.5720   20.3120 C   0  0  0  0  0  0  0  0  0  0  0  0
  -29.4580  -21.8580   22.0960 C   0  0  0  0  0  1  0  0  0  0  0  0
  -29.5060  -22.2710   20.6720 N   0  0  0  0  0  0  0  0  0  0  0  0
  -30.4470  -21.6410   18.6550 O   0  0  0  0  0  0  0  0  0  0  0  0
  -29.0930  -23.9550   19.1370 O   0  0  0  0  0  0  0  0  0  0  0  0
  -31.2070  -19.1140   20.0340 C   0  0  0  0  0  3  0  0  0  0  0  0
  -31.2380  -17.7100   20.2330 C   0  0  0  0  0  3  0  0  0  0  0  0
  -28.8060  -19.1250   20.3320 C   0  0  0  0  0  3  0  0  0  0  0  0
  -29.9960  -19.8510   20.0850 C   0  0  0  0  0  0  0  0  0  0  0  0
  -30.0420  -16.9860   20.4670 C   0  0  0  0  0  0  0  0  0  0  0  0
  -28.8330  -17.7190   20.5180 C   0  0  0  0  0  0  0  0  0  0  0  0
  -27.6720  -17.0550   20.7290 F   0  0  0  0  0  0  0  0  0  0  0  0
  -30.6650  -14.5500   20.0960 C   0  0  0  0  0  0  0  0  0  0  0  0
  -30.3090  -12.4120   18.9110 C   0  0  0  0  0  2  0  0  0  0  0  0
  -29.2950  -12.6620   17.7740 C   0  0  0  0  0  2  0  0  0  0  0  0
  -27.8480  -12.5180   18.2860 C   0  0  0  0  0  2  0  0  0  0  0  0
  -27.5940  -13.3030   19.6010 C   0  0  0  0  0  3  0  0  0  0  0  0
  -28.7140  -13.0360   20.6320 C   0  0  0  0  0  2  0  0  0  0  0  0
  -30.0030  -13.3620   19.9950 N   0  0  0  0  0  0  0  0  0  0  0  0
  -31.7800  -14.7220   19.5960 O   0  0  0  0  0  0  0  0  0  0  0  0
  -29.9540  -15.5580   20.6540 N   0  0  0  0  0  0  0  0  0  0  0  0
  -29.0830  -15.2580   21.0630 H   0  0  0  0  0  0  0  0  0  0  0  0
  -25.2400  -13.8950   20.4580 C   0  0  0  0  0  0  0  0  0  0  0  0
  -24.1900  -13.1150   20.8640 C   0  0  0  0  0  0  0  0  0  0  0  0
  -24.6460  -11.7630   20.7750 C   0  0  0  0  0  0  0  0  0  0  0  0
  -26.2690  -13.0180   20.1490 N   0  0  0  0  0  0  0  0  0  0  0  0
  -25.9190  -11.7290   20.3970 N   0  0  0  0  0  0  0  0  0  0  0  0
  -23.9280  -10.4980   20.9750 C   0  0  0  0  0  0  0  0  0  0  0  0
  -24.3820   -9.5260   21.8940 C   0  0  0  0  0  3  0  0  0  0  0  0
  -23.6630   -8.3270   22.0820 C   0  0  0  0  0  3  0  0  0  0  0  0
  -22.4750   -8.0890   21.3520 C   0  0  0  0  0  0  0  0  0  0  0  0
  -22.0370   -9.0510   20.4240 C   0  0  0  0  0  3  0  0  0  0  0  0
  -22.7570  -10.2420   20.2340 C   0  0  0  0  0  3  0  0  0  0  0  0
  -21.7250   -6.9420   21.4500 O   0  0  0  0  0  0  0  0  0  0  0  0
  -21.6740   -6.2130   22.6100 C   0  0  0  0  0  0  0  0  0  0  0  0
  -21.2140   -6.7730   23.8220 C   0  0  0  0  0  3  0  0  0  0  0  0
  -21.1100   -5.9700   24.9750 C   0  0  0  0  0  3  0  0  0  0  0  0
  -21.4580   -4.6070   24.9180 C   0  0  0  0  0  0  0  0  0  0  0  0
  -21.9110   -4.0460   23.7110 C   0  0  0  0  0  3  0  0  0  0  0  0
  -22.0160   -4.8460   22.5600 C   0  0  0  0  0  0  0  0  0  0  0  0
  -22.4330   -4.2970   21.3950 F   0  0  0  0  0  0  0  0  0  0  0  0
  -21.3520   -3.8330   26.0230 F   0  0  0  0  0  0  0  0  0  0  0  0
  -22.8130  -13.5880   21.2270 C   0  0  0  0  0  0  0  0  0  0  0  0
  -22.1330  -12.8690   22.1130 N   0  0  0  0  0  0  0  0  0  0  0  0
  -22.3500  -14.6280   20.7630 O   0  0  0  0  0  0  0  0  0  0  0  0
  -22.5210  -12.0260   22.5090 H   0  0  0  0  0  0  0  0  0  0  0  0
  -21.2110  -13.1650   22.3990 H   0  0  0  0  0  0  0  0  0  0  0  0
  -25.3970  -15.2690   20.3110 N   0  0  0  0  0  0  0  0  0  0  0  0
  -24.6530  -15.9200   20.5290 H   0  0  0  0  0  0  0  0  0  0  0  0
  -26.2670  -15.7330   20.0780 H   0  0  0  0  0  0  0  0  0  0  0  0
  -28.8320  -24.5070   21.4100 C   0  0  0  0  0  3  0  0  0  0  0  0
  -28.5120  -25.8270   21.3090 C   0  0  0  0  0  3  0  0  0  0  0  0
  -28.4140  -26.6230   20.1850 O   0  0  0  0  0  0  0  0  0  0  0  0
  -24.6060  -31.8790   23.2060 C   0  0  0  0  0  0  0  0  0  0  0  0
  -27.2980  -27.4330   20.1540 C   0  0  0  0  0  0  0  0  0  0  0  0
  -23.4230  -30.4700   21.5540 C   0  0  0  0  0  3  0  0  0  0  0  0
  -24.9010  -28.9390   20.1380 C   0  0  0  0  0  0  0  0  0  0  0  0
  -25.9510  -30.8370   21.3800 C   0  0  0  0  0  2  0  0  0  0  0  0
  -26.0510  -29.4660   20.7410 C   0  0  0  0  0  0  0  0  0  0  0  0
  -27.2550  -28.7180   20.7500 C   0  0  0  0  0  3  0  0  0  0  0  0
  -26.1340  -26.9290   19.5410 C   0  0  0  0  0  3  0  0  0  0  0  0
  -24.9370  -27.6700   19.5360 C   0  0  0  0  0  3  0  0  0  0  0  0
  -23.6500  -29.7920   20.1750 C   0  0  0  0  0  2  0  0  0  0  0  0
  -24.6780  -31.0770   22.1050 N   0  0  0  0  0  0  0  0  0  0  0  0
  -23.5180  -32.1450   23.7380 O   0  0  0  0  0  0  0  0  0  0  0  0
  -22.7670  -29.4460   22.5080 C   0  0  0  0  0  0  0  0  0  0  0  0
  -21.4420  -29.2720   22.3830 N   0  0  0  0  0  0  0  0  0  0  0  0
  -23.4490  -28.8130   23.3190 O   0  0  0  0  0  0  0  0  0  0  0  0
  -20.9520  -29.8340   21.7010 H   0  0  0  0  0  0  0  0  0  0  0  0
  -18.0590  -28.1190   22.9100 C   0  0  0  0  0  0  0  0  0  0  0  0
  -20.6240  -28.3320   23.1500 C   0  0  0  0  0  3  0  0  0  0  0  0
  -20.6950  -26.9100   22.5460 C   0  0  0  0  0  2  0  0  0  0  0  0
  -19.5750  -26.6230   21.5420 C   0  0  0  0  0  2  0  0  0  0  0  0
  -18.2050  -26.7790   22.2080 C   0  0  0  0  0  2  0  0  0  0  0  0
  -19.1950  -28.8560   23.3380 C   0  0  0  0  0  0  0  0  0  0  0  0
  -19.0040  -30.1110   23.9520 C   0  0  0  0  0  3  0  0  0  0  0  0
  -17.7090  -30.6310   24.1450 C   0  0  0  0  0  3  0  0  0  0  0  0
  -16.5870  -29.8900   23.7340 C   0  0  0  0  0  3  0  0  0  0  0  0
  -16.7630  -28.6370   23.1210 C   0  0  0  0  0  3  0  0  0  0  0  0
  -25.8820  -32.5180   23.8370 C   0  0  0  0  0  3  0  0  0  0  0  0
  -25.5620  -33.9140   24.1660 N   0  0  0  0  0  0  0  0  0  0  0  0
  -25.8930  -34.9680   23.4090 C   0  0  0  0  0  0  0  0  0  0  0  0
  -26.5710  -34.8690   22.3820 O   0  0  0  0  0  0  0  0  0  0  0  0
  -24.9630  -34.0650   24.9630 H   0  0  0  0  0  0  0  0  0  0  0  0
  -24.1580  -36.7510   23.0390 C   0  0  0  0  0  1  0  0  0  0  0  0
  -25.3930  -36.3530   23.8620 C   0  0  0  0  0  3  0  0  0  0  0  0
  -27.5120  -37.2520   24.7200 C   0  0  0  0  0  1  0  0  0  0  0  0
  -26.4230  -37.4120   23.7610 N   0  0  0  0  0  0  0  0  0  0  0  0
  -26.0090  -38.3300   23.9010 H   0  0  0  0  0  0  0  0  0  0  0  0
  -26.3970  -31.7470   25.1150 C   0  0  1  0  0  0  0  0  0  0  0  0
  -25.2980  -31.4960   26.1730 C   0  0  0  0  0  1  0  0  0  0  0  0
  -26.9950  -30.3760   24.7200 C   0  0  0  0  0  1  0  0  0  0  0  0
  -27.5350  -32.5490   25.7890 C   0  0  0  0  0  1  0  0  0  0  0  0
  1 10  1  0
  1  4  1  0
  2  4  1  0
  2 52  1  0
  4  3  1  0
  5  1  2  0
  6  2  2  0
  7 10  2  0
  7  8  1  0
  8 11  2  0
  9 12  2  0
 10  9  1  0
 11 12  1  0
 11 22  1  0
 12 13  1  0
 14 22  1  0
 15 20  1  0
 16 17  1  0
 16 15  1  0
 18 17  1  0
 18 27  1  0
 18 19  1  0
 20 14  1  0
 20 19  1  0
 21 14  2  0
 22 23  1  0
 24 25  2  0
 25 44  1  0
 26 25  1  0
 26 29  1  0
 27 28  1  0
 27 24  1  0
 28 26  2  0
 29 30  1  0
 30 31  2  0
 32 35  1  0
 32 31  1  0
 33 32  2  0
 34 33  1  0
 34 29  2  0
 35 36  1  0
 36 37  1  0
 37 38  2  0
 39 38  1  0
 39 43  1  0
 40 39  2  0
 41 36  2  0
 41 40  1  0
 42 41  1  0
 44 45  1  0
 45 48  1  0
 45 47  1  0
 46 44  2  0
 49 24  1  0
 49 50  1  0
 51 49  1  0
 53 52  2  0
 54 53  1  0
 55 66  2  0
 56 54  1  0
 56 61  1  0
 57 65  1  0
 57 67  1  0
 58 64  1  0
 58 60  1  0
 59 65  1  0
 60 61  2  0
 60 59  1  0
 62 56  2  0
 63 62  1  0
 63 58  2  0
 64 57  1  0
 65 55  1  0
 67 69  2  0
 68 67  1  0
 70 68  1  0
 71 80  2  0
 71 76  1  0
 72 68  1  0
 72 76  1  0
 73 72  1  0
 74 75  1  0
 74 73  1  0
 75 71  1  0
 76 77  2  0
 77 78  1  0
 79 78  2  0
 80 79  1  0
 81 55  1  0
 81 82  1  0
 81 91  1  0
 82 85  1  0
 83 87  1  0
 83 82  1  0
 84 83  2  0
 87 86  1  0
 89 87  1  0
 89 90  1  0
 89 88  1  0
 91 94  1  1
 91 92  1  0
 93 91  1  0
M  ISO  4  14 100  22 100  53 101  54 101
M  END
>  <TORSDO>  (30) 
F 18

>  <SCORE>  (30) 
-14.992

>  <name>  (30) 
29

>  <ligand_id>  (30) 
29

>  <original_smiles>  (30) 
[H]C(Oc1c([H])c([H])c2c(c1[H])C([H])([H])N(C(=O)C([H])(N([H])C(=O)C([H])(N([H])C([H])([H])[H])C([H])([H])[H])C(C([H])([H])[H])(C([H])([H])[H])C([H])([H])[H])C([H])(C(=O)N([H])C1([H])c3c([H])c([H])c([H])c([H])c3C([H])([H])C([H])([H])C1([H])[H])C2([H])[H])=C([H])C(=O)N(C(=O)c1c([H])c([H])c(N([H])C(=O)N2C([H])([H])C([H])([H])C([H])([H])C([H])(n3nc(-c4c([H])c([H])c(Oc5c([H])c([H])c(F)c([H])c5F)c([H])c4[H])c(C(=O)N([H])[H])c3N([H])[H])C2([H])[H])c(F)c1[H])C([H])([H])[H]

>  <smiles>  (30) 
[H]C(Oc1c([H])c([H])c2c(c1[H])C([H])([H])N(C(=O)C([H])(N([H])C(=O)C([H])(N([H])C([H])([H])[H])C([H])([H])[H])C(C([H])([H])[H])(C([H])([H])[H])C([H])([H])[H])C([H])(C(=O)N([H])C1([H])c3c([H])c([H])c([H])c([H])c3C([H])([H])C([H])([H])C1([H])[H])C2([H])[H])=C([H])C(=O)N(C(=O)c1c([H])c([H])c(N([H])C(=O)N2C([H])([H])C([H])([H])C([H])([H])C([H])(n3nc(-c4c([H])c([H])c(Oc5c([H])c([H])c(F)c([H])c5F)c([H])c4[H])c(C(=O)N([H])[H])c3N([H])[H])C2([H])[H])c(F)c1[H])C([H])([H])[H]

$$$$
30:0:0
     RDKit          3D

 92101  0  0  1  0  0  0  0  0999 V2000
  -28.4140  -23.5790   20.4900 C   0  0  0  0  0  0  0  0  0  0  0  0
  -29.5630  -22.9240   19.8510 C   0  0  0  0  0  0  0  0  0  0  0  0
  -27.8820  -24.8840   20.6570 C   0  0  0  0  0  3  0  0  0  0  0  0
  -28.0030  -22.1550   21.0090 C   0  0  0  0  0  2  0  0  0  0  0  0
  -29.1120  -21.5890   20.1950 N   0  0  0  0  0  0  0  0  0  0  0  0
  -30.5600  -23.4030   19.3520 O   0  0  0  0  0  0  0  0  0  0  0  0
  -31.9610  -19.2260   21.1120 C   0  0  0  0  0  3  0  0  0  0  0  0
  -31.1280  -20.3310   20.8570 C   0  0  0  0  0  3  0  0  0  0  0  0
  -31.5100  -17.9020   20.9770 C   0  0  0  0  0  3  0  0  0  0  0  0
  -29.7720  -20.2340   20.4620 C   0  0  0  0  0  0  0  0  0  0  0  0
  -30.1880  -17.6090   20.5800 C   0  0  0  0  0  0  0  0  0  0  0  0
  -29.3380  -18.8100   20.3540 C   0  0  0  0  0  0  0  0  0  0  0  0
  -28.0540  -18.5850   19.9850 F   0  0  0  0  0  0  0  0  0  0  0  0
  -30.5520  -14.9460   20.3560 C   0  0  0  0  0  0  0  0  0  0  0  0
  -30.3940  -12.6170   19.3890 C   0  0  0  0  0  2  0  0  0  0  0  0
  -29.4680  -12.6020   18.1520 C   0  0  0  0  0  2  0  0  0  0  0  0
  -28.0010  -12.4010   18.5770 C   0  0  0  0  0  2  0  0  0  0  0  0
  -27.5940  -13.3190   19.7600 C   0  0  0  0  0  3  0  0  0  0  0  0
  -28.6450  -13.3180   20.8910 C   0  0  0  0  0  2  0  0  0  0  0  0
  -29.9240  -13.7080   20.2870 N   0  0  0  0  0  0  0  0  0  0  0  0
  -31.7560  -14.9810   20.0840 O   0  0  0  0  0  0  0  0  0  0  0  0
  -29.7950  -16.1380   20.4810 N   0  0  0  0  0  0  0  0  0  0  0  0
  -28.8000  -15.9800   20.5010 H   0  0  0  0  0  0  0  0  0  0  0  0
  -25.2060  -13.8930   20.4800 C   0  0  0  0  0  0  0  0  0  0  0  0
  -24.1420  -13.1130   20.8440 C   0  0  0  0  0  0  0  0  0  0  0  0
  -24.6120  -11.7650   20.8210 C   0  0  0  0  0  0  0  0  0  0  0  0
  -26.2540  -13.0190   20.2510 N   0  0  0  0  0  0  0  0  0  0  0  0
  -25.9070  -11.7340   20.5220 N   0  0  0  0  0  0  0  0  0  0  0  0
  -23.8900  -10.4990   21.0070 C   0  0  0  0  0  0  0  0  0  0  0  0
  -24.3080   -9.5420   21.9580 C   0  0  0  0  0  3  0  0  0  0  0  0
  -23.5830   -8.3430   22.1320 C   0  0  0  0  0  3  0  0  0  0  0  0
  -22.4260   -8.0930   21.3570 C   0  0  0  0  0  0  0  0  0  0  0  0
  -22.0280   -9.0390   20.3960 C   0  0  0  0  0  3  0  0  0  0  0  0
  -22.7530  -10.2290   20.2190 C   0  0  0  0  0  3  0  0  0  0  0  0
  -21.6750   -6.9460   21.4390 O   0  0  0  0  0  0  0  0  0  0  0  0
  -21.5910   -6.2230   22.6030 C   0  0  0  0  0  0  0  0  0  0  0  0
  -21.0930   -6.7880   23.7970 C   0  0  0  0  0  3  0  0  0  0  0  0
  -20.9590   -5.9900   24.9500 C   0  0  0  0  0  3  0  0  0  0  0  0
  -21.3120   -4.6290   24.9110 C   0  0  0  0  0  0  0  0  0  0  0  0
  -21.8030   -4.0630   23.7220 C   0  0  0  0  0  3  0  0  0  0  0  0
  -21.9390   -4.8570   22.5700 C   0  0  0  0  0  0  0  0  0  0  0  0
  -22.3920   -4.3020   21.4200 F   0  0  0  0  0  0  0  0  0  0  0  0
  -21.1760   -3.8600   26.0170 F   0  0  0  0  0  0  0  0  0  0  0  0
  -22.7400  -13.5850   21.1000 C   0  0  0  0  0  0  0  0  0  0  0  0
  -22.0060  -12.8890   21.9600 N   0  0  0  0  0  0  0  0  0  0  0  0
  -22.3040  -14.6080   20.5720 O   0  0  0  0  0  0  0  0  0  0  0  0
  -22.3730  -12.0620   22.4090 H   0  0  0  0  0  0  0  0  0  0  0  0
  -21.0660  -13.1870   22.1740 H   0  0  0  0  0  0  0  0  0  0  0  0
  -25.3620  -15.2640   20.2980 N   0  0  0  0  0  0  0  0  0  0  0  0
  -24.5850  -15.9070   20.3990 H   0  0  0  0  0  0  0  0  0  0  0  0
  -26.1970  -15.7090   19.9440 H   0  0  0  0  0  0  0  0  0  0  0  0
  -28.2260  -26.2430   20.2670 O   0  0  0  0  0  0  0  0  0  0  0  0
  -24.6140  -31.9210   23.2510 C   0  0  0  0  0  0  0  0  0  0  0  0
  -27.1920  -27.2360   20.2270 C   0  0  0  0  0  0  0  0  0  0  0  0
  -23.4120  -30.5240   21.6120 C   0  0  0  0  0  3  0  0  0  0  0  0
  -24.8620  -28.9540   20.1890 C   0  0  0  0  0  0  0  0  0  0  0  0
  -25.9640  -30.7980   21.4470 C   0  0  0  0  0  2  0  0  0  0  0  0
  -26.0400  -29.4080   20.8000 C   0  0  0  0  0  0  0  0  0  0  0  0
  -27.2090  -28.5620   20.8080 C   0  0  0  0  0  3  0  0  0  0  0  0
  -25.9950  -26.8780   19.5720 C   0  0  0  0  0  3  0  0  0  0  0  0
  -24.8500  -27.7000   19.5610 C   0  0  0  0  0  3  0  0  0  0  0  0
  -23.6340  -29.8460   20.2350 C   0  0  0  0  0  2  0  0  0  0  0  0
  -24.6830  -31.1020   22.1590 N   0  0  0  0  0  0  0  0  0  0  0  0
  -23.5280  -32.2060   23.7790 O   0  0  0  0  0  0  0  0  0  0  0  0
  -22.7350  -29.5160   22.5740 C   0  0  0  0  0  0  0  0  0  0  0  0
  -21.4080  -29.3450   22.4460 N   0  0  0  0  0  0  0  0  0  0  0  0
  -23.4070  -28.8920   23.4000 O   0  0  0  0  0  0  0  0  0  0  0  0
  -20.9230  -29.8990   21.7540 H   0  0  0  0  0  0  0  0  0  0  0  0
  -18.0240  -28.1540   22.9490 C   0  0  0  0  0  0  0  0  0  0  0  0
  -20.5840  -28.4110   23.2180 C   0  0  0  0  0  3  0  0  0  0  0  0
  -20.6830  -26.9770   22.6450 C   0  0  0  0  0  2  0  0  0  0  0  0
  -19.5800  -26.6550   21.6310 C   0  0  0  0  0  2  0  0  0  0  0  0
  -18.1990  -26.8030   22.2740 C   0  0  0  0  0  2  0  0  0  0  0  0
  -19.1450  -28.9150   23.3780 C   0  0  0  0  0  0  0  0  0  0  0  0
  -18.9270  -30.1780   23.9710 C   0  0  0  0  0  3  0  0  0  0  0  0
  -17.6220  -30.6800   24.1370 C   0  0  0  0  0  3  0  0  0  0  0  0
  -16.5170  -29.9160   23.7240 C   0  0  0  0  0  3  0  0  0  0  0  0
  -16.7200  -28.6550   23.1360 C   0  0  0  0  0  3  0  0  0  0  0  0
  -25.8930  -32.5550   23.8760 C   0  0  0  0  0  3  0  0  0  0  0  0
  -25.5830  -33.9550   24.2060 N   0  0  0  0  0  0  0  0  0  0  0  0
  -25.9050  -35.0090   23.4430 C   0  0  0  0  0  0  0  0  0  0  0  0
  -26.5610  -34.9040   22.4040 O   0  0  0  0  0  0  0  0  0  0  0  0
  -24.9980  -34.1090   25.0140 H   0  0  0  0  0  0  0  0  0  0  0  0
  -24.1680  -36.8010   23.1160 C   0  0  0  0  0  1  0  0  0  0  0  0
  -25.4230  -36.3980   23.9060 C   0  0  0  0  0  3  0  0  0  0  0  0
  -27.5680  -37.2930   24.7010 C   0  0  0  0  0  1  0  0  0  0  0  0
  -26.4520  -37.4520   23.7730 N   0  0  0  0  0  0  0  0  0  0  0  0
  -26.0470  -38.3730   23.9190 H   0  0  0  0  0  0  0  0  0  0  0  0
  -26.4020  -31.7870   25.1580 C   0  0  1  0  0  0  0  0  0  0  0  0
  -25.3030  -31.5550   26.2220 C   0  0  0  0  0  1  0  0  0  0  0  0
  -26.9860  -30.4070   24.7780 C   0  0  0  0  0  1  0  0  0  0  0  0
  -27.5500  -32.5830   25.8240 C   0  0  0  0  0  1  0  0  0  0  0  0
  1  3  2  0
  1  4  1  0
  2  5  1  0
  2  1  1  0
  5 10  1  0
  5  4  1  0
  6  2  2  0
  8  7  2  0
  9  7  1  0
 10  8  1  0
 11  9  2  0
 12 10  2  0
 12 11  1  0
 13 12  1  0
 14 22  1  0
 15 20  1  0
 16 17  1  0
 16 15  1  0
 18 17  1  0
 18 27  1  0
 18 19  1  0
 20 14  1  0
 20 19  1  0
 21 14  2  0
 22 23  1  0
 22 11  1  0
 24 25  2  0
 25 44  1  0
 26 25  1  0
 26 29  1  0
 27 24  1  0
 27 28  1  0
 28 26  2  0
 29 30  1  0
 30 31  2  0
 32 35  1  0
 32 31  1  0
 33 32  2  0
 34 33  1  0
 34 29  2  0
 35 36  1  0
 36 37  1  0
 37 38  2  0
 39 38  1  0
 39 43  1  0
 40 39  2  0
 41 36  2  0
 41 40  1  0
 42 41  1  0
 44 45  1  0
 45 48  1  0
 45 47  1  0
 46 44  2  0
 49 50  1  0
 49 24  1  0
 51 49  1  0
 52  3  1  0
 53 64  2  0
 54 52  1  0
 54 59  1  0
 55 63  1  0
 55 65  1  0
 56 62  1  0
 56 58  1  0
 57 63  1  0
 58 59  2  0
 58 57  1  0
 60 54  2  0
 61 60  1  0
 61 56  2  0
 62 55  1  0
 63 53  1  0
 65 67  2  0
 66 65  1  0
 68 66  1  0
 69 78  2  0
 69 74  1  0
 70 66  1  0
 70 74  1  0
 71 70  1  0
 72 73  1  0
 72 71  1  0
 73 69  1  0
 74 75  2  0
 75 76  1  0
 77 76  2  0
 78 77  1  0
 79 53  1  0
 79 80  1  0
 79 89  1  0
 80 83  1  0
 81 85  1  0
 81 80  1  0
 82 81  2  0
 85 84  1  0
 87 85  1  0
 87 88  1  0
 87 86  1  0
 89 92  1  1
 89 90  1  0
 91 89  1  0
M  ISO  4   3 101  14 100  22 100  52 101
M  END
>  <TORSDO>  (31) 
F 17

>  <SCORE>  (31) 
-15.413

>  <name>  (31) 
30

>  <ligand_id>  (31) 
30

>  <original_smiles>  (31) 
[H]C(Oc1c([H])c([H])c2c(c1[H])C([H])([H])N(C(=O)C([H])(N([H])C(=O)C([H])(N([H])C([H])([H])[H])C([H])([H])[H])C(C([H])([H])[H])(C([H])([H])[H])C([H])([H])[H])C([H])(C(=O)N([H])C1([H])c3c([H])c([H])c([H])c([H])c3C([H])([H])C([H])([H])C1([H])[H])C2([H])[H])=C1C(=O)N(c2c([H])c([H])c([H])c(N([H])C(=O)N3C([H])([H])C([H])([H])C([H])([H])C([H])(n4nc(-c5c([H])c([H])c(Oc6c([H])c([H])c(F)c([H])c6F)c([H])c5[H])c(C(=O)N([H])[H])c4N([H])[H])C3([H])[H])c2F)C1([H])[H]

>  <smiles>  (31) 
[H]C(Oc1c([H])c([H])c2c(c1[H])C([H])([H])N(C(=O)C([H])(N([H])C(=O)C([H])(N([H])C([H])([H])[H])C([H])([H])[H])C(C([H])([H])[H])(C([H])([H])[H])C([H])([H])[H])C([H])(C(=O)N([H])C1([H])c3c([H])c([H])c([H])c([H])c3C([H])([H])C([H])([H])C1([H])[H])C2([H])[H])=C1C(=O)N(c2c([H])c([H])c([H])c(N([H])C(=O)N3C([H])([H])C([H])([H])C([H])([H])C([H])(n4nc(-c5c([H])c([H])c(Oc6c([H])c([H])c(F)c([H])c6F)c([H])c5[H])c(C(=O)N([H])[H])c4N([H])[H])C3([H])[H])c2F)C1([H])[H]

$$$$
31:0:0
     RDKit          3D

 96104  0  0  1  0  0  0  0  0999 V2000
  -30.0080  -20.1050   20.0760 C   0  0  0  0  0  3  0  0  0  0  0  0
  -28.3570  -18.4300   19.4720 C   0  0  0  0  0  3  0  0  0  0  0  0
  -29.6760  -18.6820   19.9000 C   0  0  0  0  0  0  0  0  0  0  0  0
  -29.0830  -21.2240   19.8660 C   0  0  0  0  0  0  0  0  0  0  0  0
  -27.7710  -20.8380   19.4710 C   0  0  0  0  0  0  0  0  0  0  0  0
  -27.4340  -19.4760   19.2710 C   0  0  0  0  0  0  0  0  0  0  0  0
  -26.1690  -19.1620   18.8940 F   0  0  0  0  0  0  0  0  0  0  0  0
  -31.0700  -14.9080   20.7200 C   0  0  0  0  0  0  0  0  0  0  0  0
  -31.0130  -12.4460   20.2550 C   0  0  0  0  0  2  0  0  0  0  0  0
  -30.2500  -12.1930   18.9360 C   0  0  0  0  0  2  0  0  0  0  0  0
  -28.7400  -12.0570   19.2040 C   0  0  0  0  0  2  0  0  0  0  0  0
  -28.1970  -13.1840   20.1220 C   0  0  0  0  0  3  0  0  0  0  0  0
  -29.0980  -13.4140   21.3570 C   0  0  0  0  0  2  0  0  0  0  0  0
  -30.4540  -13.6790   20.8630 N   0  0  0  0  0  0  0  0  0  0  0  0
  -32.2920  -14.9580   20.5200 O   0  0  0  0  0  0  0  0  0  0  0  0
  -30.6180  -17.4650   20.1290 C   0  0  0  0  0  0  0  0  0  0  0  0
  -30.2490  -16.1670   20.5420 N   0  0  0  0  0  0  0  0  0  0  0  0
  -31.9130  -17.7020   19.8870 N   0  0  0  0  0  4  0  0  0  0  0  0
  -29.2610  -16.1220   20.7100 H   0  0  0  0  0  0  0  0  0  0  0  0
  -32.2330  -18.6230   19.6380 H   0  0  0  0  0  0  0  0  0  0  0  0
  -32.5820  -16.9460   19.9840 H   0  0  0  0  0  0  0  0  0  0  0  0
  -25.7820  -13.8890   20.6040 C   0  0  0  0  0  0  0  0  0  0  0  0
  -24.6550  -13.1740   20.9040 C   0  0  0  0  0  0  0  0  0  0  0  0
  -25.0610  -11.8050   20.9630 C   0  0  0  0  0  0  0  0  0  0  0  0
  -26.8030  -12.9610   20.4910 N   0  0  0  0  0  0  0  0  0  0  0  0
  -26.3720  -11.7060   20.7740 N   0  0  0  0  0  0  0  0  0  0  0  0
  -24.2660  -10.5820   21.1280 C   0  0  0  0  0  0  0  0  0  0  0  0
  -24.5970   -9.6080   22.0950 C   0  0  0  0  0  3  0  0  0  0  0  0
  -23.8040   -8.4500   22.2470 C   0  0  0  0  0  3  0  0  0  0  0  0
  -22.6620   -8.2600   21.4320 C   0  0  0  0  0  0  0  0  0  0  0  0
  -22.3500   -9.2220   20.4560 C   0  0  0  0  0  3  0  0  0  0  0  0
  -23.1430  -10.3710   20.3030 C   0  0  0  0  0  3  0  0  0  0  0  0
  -21.8500   -7.1520   21.4910 O   0  0  0  0  0  0  0  0  0  0  0  0
  -21.7190   -6.4170   22.6420 C   0  0  0  0  0  0  0  0  0  0  0  0
  -21.2610   -6.9960   23.8460 C   0  0  0  0  0  3  0  0  0  0  0  0
  -21.0780   -6.1910   24.9890 C   0  0  0  0  0  3  0  0  0  0  0  0
  -21.3380   -4.8090   24.9260 C   0  0  0  0  0  0  0  0  0  0  0  0
  -21.7890   -4.2300   23.7260 C   0  0  0  0  0  3  0  0  0  0  0  0
  -21.9760   -5.0330   22.5870 C   0  0  0  0  0  0  0  0  0  0  0  0
  -22.3900   -4.4680   21.4270 F   0  0  0  0  0  0  0  0  0  0  0  0
  -21.1550   -4.0330   26.0200 F   0  0  0  0  0  0  0  0  0  0  0  0
  -23.2620  -13.7200   21.0270 C   0  0  0  0  0  0  0  0  0  0  0  0
  -22.4380  -13.1120   21.8730 N   0  0  0  0  0  0  0  0  0  0  0  0
  -22.9130  -14.7230   20.4050 O   0  0  0  0  0  0  0  0  0  0  0  0
  -22.7330  -12.2970   22.3910 H   0  0  0  0  0  0  0  0  0  0  0  0
  -21.4980  -13.4620   22.0010 H   0  0  0  0  0  0  0  0  0  0  0  0
  -26.0230  -15.2410   20.3920 N   0  0  0  0  0  0  0  0  0  0  0  0
  -25.2570  -15.9060   20.3830 H   0  0  0  0  0  0  0  0  0  0  0  0
  -26.8330  -15.5680   19.8850 H   0  0  0  0  0  0  0  0  0  0  0  0
  -28.9160  -23.7990   20.1880 C   0  0  0  0  0  2  0  0  0  0  0  0
  -28.3650  -25.0040   20.5080 C   0  0  0  0  0  2  0  0  0  0  0  0
  -29.3990  -22.6410   20.1280 N   0  0  0  0  0  2  0  0  0  0  0  0
  -28.4940  -26.3590   20.0590 O   0  0  0  0  0  0  0  0  0  0  0  0
  -24.6120  -31.7150   23.1880 C   0  0  0  0  0  0  0  0  0  0  0  0
  -27.3860  -27.2410   20.0850 C   0  0  0  0  0  0  0  0  0  0  0  0
  -23.4860  -30.3520   21.4640 C   0  0  0  0  0  3  0  0  0  0  0  0
  -25.0070  -28.8610   20.0400 C   0  0  0  0  0  0  0  0  0  0  0  0
  -26.0280  -30.7010   21.3760 C   0  0  0  0  0  2  0  0  0  0  0  0
  -26.1520  -29.3360   20.6930 C   0  0  0  0  0  0  0  0  0  0  0  0
  -27.3470  -28.5400   20.7030 C   0  0  0  0  0  3  0  0  0  0  0  0
  -26.2180  -26.8330   19.4110 C   0  0  0  0  0  3  0  0  0  0  0  0
  -25.0460  -27.6180   19.3870 C   0  0  0  0  0  3  0  0  0  0  0  0
  -23.7570  -29.7240   20.0720 C   0  0  0  0  0  2  0  0  0  0  0  0
  -24.7260  -30.9400   22.0670 N   0  0  0  0  0  0  0  0  0  0  0  0
  -23.5070  -31.9580   23.6950 O   0  0  0  0  0  0  0  0  0  0  0  0
  -22.8030  -29.2980   22.3680 C   0  0  0  0  0  0  0  0  0  0  0  0
  -21.4730  -29.1490   22.2340 N   0  0  0  0  0  0  0  0  0  0  0  0
  -23.4690  -28.6190   23.1530 O   0  0  0  0  0  0  0  0  0  0  0  0
  -20.9930  -29.7500   21.5780 H   0  0  0  0  0  0  0  0  0  0  0  0
  -18.0660  -28.0400   22.7450 C   0  0  0  0  0  0  0  0  0  0  0  0
  -20.6400  -28.1830   22.9520 C   0  0  0  0  0  3  0  0  0  0  0  0
  -20.6670  -26.8000   22.2590 C   0  0  0  0  0  2  0  0  0  0  0  0
  -19.5240  -26.6030   21.2580 C   0  0  0  0  0  2  0  0  0  0  0  0
  -18.1680  -26.7460   21.9570 C   0  0  0  0  0  2  0  0  0  0  0  0
  -19.2260  -28.7220   23.1990 C   0  0  0  0  0  0  0  0  0  0  0  0
  -19.0730  -29.9390   23.8980 C   0  0  0  0  0  3  0  0  0  0  0  0
  -17.7940  -30.4720   24.1480 C   0  0  0  0  0  3  0  0  0  0  0  0
  -16.6490  -29.7850   23.7090 C   0  0  0  0  0  3  0  0  0  0  0  0
  -16.7860  -28.5700   23.0150 C   0  0  0  0  0  3  0  0  0  0  0  0
  -25.8610  -32.3460   23.8750 C   0  0  0  0  0  3  0  0  0  0  0  0
  -25.5370  -33.7440   24.1950 N   0  0  0  0  0  0  0  0  0  0  0  0
  -25.8800  -34.7980   23.4430 C   0  0  0  0  0  0  0  0  0  0  0  0
  -26.5720  -34.6970   22.4260 O   0  0  0  0  0  0  0  0  0  0  0  0
  -24.9270  -33.8970   24.9850 H   0  0  0  0  0  0  0  0  0  0  0  0
  -24.1370  -36.5730   23.0690 C   0  0  0  0  0  1  0  0  0  0  0  0
  -25.3770  -36.1840   23.8900 C   0  0  0  0  0  3  0  0  0  0  0  0
  -27.4940  -37.1000   24.7340 C   0  0  0  0  0  1  0  0  0  0  0  0
  -26.4000  -37.2470   23.7770 N   0  0  0  0  0  0  0  0  0  0  0  0
  -25.9830  -38.1640   23.9110 H   0  0  0  0  0  0  0  0  0  0  0  0
  -26.3140  -31.5730   25.1740 C   0  0  1  0  0  0  0  0  0  0  0  0
  -25.1690  -31.3350   26.1870 C   0  0  0  0  0  1  0  0  0  0  0  0
  -26.9150  -30.1970   24.8090 C   0  0  0  0  0  1  0  0  0  0  0  0
  -27.4300  -32.3660   25.8950 C   0  0  0  0  0  1  0  0  0  0  0  0
  -26.7450  -21.7760   19.3200 N   0  0  0  0  0  0  0  0  0  0  0  0
  -25.8280  -21.3420   19.2700 H   0  0  0  0  0  0  0  0  0  0  0  0
  -26.7610  -22.5060   20.0190 H   0  0  0  0  0  0  0  0  0  0  0  0
  2  3  2  0
  3  1  1  0
  3 16  1  0
  4  1  2  0
  4 52  1  0
  5  4  1  0
  6  5  2  0
  6  2  1  0
  7  6  1  0
  8 14  1  0
  9 14  1  0
 10 11  1  0
 10  9  1  0
 12 11  1  0
 12 25  1  0
 12 13  1  0
 14 13  1  0
 15  8  2  0
 16 17  1  0
 17 19  1  0
 17  8  1  0
 18 21  1  0
 18 16  2  0
 20 18  1  0
 22 23  2  0
 23 24  1  0
 23 42  1  0
 24 27  1  0
 25 22  1  0
 25 26  1  0
 26 24  2  0
 27 28  1  0
 28 29  2  0
 30 33  1  0
 30 29  1  0
 31 30  2  0
 32 31  1  0
 32 27  2  0
 33 34  1  0
 34 35  1  0
 35 36  2  0
 37 36  1  0
 37 41  1  0
 38 37  2  0
 39 34  2  0
 39 38  1  0
 40 39  1  0
 42 43  1  0
 43 46  1  0
 43 45  1  0
 44 42  2  0
 47 22  1  0
 48 47  1  0
 49 47  1  0
 50 51  1  0
 52 50  1  0
 53 55  1  0
 53 51  1  0
 54 65  2  0
 55 60  1  0
 56 64  1  0
 56 66  1  0
 57 63  1  0
 57 59  1  0
 58 64  1  0
 59 60  2  0
 59 58  1  0
 61 55  2  0
 62 61  1  0
 62 57  2  0
 63 56  1  0
 64 54  1  0
 66 68  2  0
 67 66  1  0
 69 67  1  0
 70 79  2  0
 70 75  1  0
 71 67  1  0
 71 75  1  0
 72 71  1  0
 73 74  1  0
 73 72  1  0
 74 70  1  0
 75 76  2  0
 76 77  1  0
 78 77  2  0
 79 78  1  0
 80 54  1  0
 80 81  1  0
 80 90  1  0
 81 84  1  0
 82 86  1  0
 82 81  1  0
 83 82  2  0
 86 85  1  0
 88 86  1  0
 88 89  1  0
 88 87  1  0
 90 93  1  1
 90 91  1  0
 92 90  1  0
 94  5  1  0
 94 96  1  0
 95 94  1  0
M  ISO  4   8 100  17 100  51 101  53 101
M  END
>  <TORSDO>  (32) 
F 18

>  <SCORE>  (32) 
-14.401

>  <name>  (32) 
31

>  <ligand_id>  (32) 
31

>  <original_smiles>  (32) 
[H]C(=C=Nc1c([H])c(C(N([H])C(=O)N2C([H])([H])C([H])([H])C([H])([H])C([H])(n3nc(-c4c([H])c([H])c(Oc5c([H])c([H])c(F)c([H])c5F)c([H])c4[H])c(C(=O)N([H])[H])c3N([H])[H])C2([H])[H])=[N+]([H])[H])c([H])c(F)c1N([H])[H])Oc1c([H])c([H])c2c(c1[H])C([H])([H])N(C(=O)C([H])(N([H])C(=O)C([H])(N([H])C([H])([H])[H])C([H])([H])[H])C(C([H])([H])[H])(C([H])([H])[H])C([H])([H])[H])C([H])(C(=O)N([H])C1([H])c3c([H])c([H])c([H])c([H])c3C([H])([H])C([H])([H])C1([H])[H])C2([H])[H]

>  <smiles>  (32) 
[H]C(=C=Nc1c([H])c(C(N([H])C(=O)N2C([H])([H])C([H])([H])C([H])([H])C([H])(n3nc(-c4c([H])c([H])c(Oc5c([H])c([H])c(F)c([H])c5F)c([H])c4[H])c(C(=O)N([H])[H])c3N([H])[H])C2([H])[H])=[N+]([H])[H])c([H])c(F)c1N([H])[H])Oc1c([H])c([H])c2c(c1[H])C([H])([H])N(C(=O)C([H])(N([H])C(=O)C([H])(N([H])C([H])([H])[H])C([H])([H])[H])C(C([H])([H])[H])(C([H])([H])[H])C([H])([H])[H])C([H])(C(=O)N([H])C1([H])c3c([H])c([H])c([H])c([H])c3C([H])([H])C([H])([H])C1([H])[H])C2([H])[H]

$$$$
32:0:0
     RDKit          3D

 97106  0  0  1  0  0  0  0  0999 V2000
  -27.2810  -23.8700   20.7230 C   0  0  0  0  0  0  0  0  0  0  0  0
  -28.2840  -24.2850   19.9210 C   0  0  0  0  0  0  0  0  0  0  0  0
  -27.4670  -22.4590   20.9840 C   0  0  0  0  0  0  0  0  0  0  0  0
  -29.1630  -23.1410   19.7170 C   0  0  0  0  0  0  0  0  0  0  0  0
  -26.0790  -24.6180   21.2810 C   0  0  0  0  0  1  0  0  0  0  0  0
  -28.6140  -22.1030   20.3810 N   0  0  0  0  0  0  0  0  0  0  0  0
  -26.7190  -21.7070   21.6160 O   0  0  0  0  0  0  0  0  0  0  0  0
  -30.2080  -23.0900   19.0510 O   0  0  0  0  0  0  0  0  0  0  0  0
  -29.2440  -18.3870   20.1010 C   0  0  0  0  0  3  0  0  0  0  0  0
  -28.6570  -19.6600   19.9110 C   0  0  0  0  0  3  0  0  0  0  0  0
  -30.3530  -20.6520   21.3440 C   0  0  0  0  0  3  0  0  0  0  0  0
  -30.4140  -18.2360   20.8910 C   0  0  0  0  0  0  0  0  0  0  0  0
  -29.2100  -20.8060   20.5300 C   0  0  0  0  0  0  0  0  0  0  0  0
  -30.9530  -19.3910   21.5190 C   0  0  0  0  0  0  0  0  0  0  0  0
  -32.0740  -19.3320   22.2880 F   0  0  0  0  0  0  0  0  0  0  0  0
  -31.0210  -14.6820   20.0840 C   0  0  0  0  0  0  0  0  0  0  0  0
  -30.5450  -12.5450   18.9480 C   0  0  0  0  0  2  0  0  0  0  0  0
  -29.5610  -12.7540   17.7850 C   0  0  0  0  0  2  0  0  0  0  0  0
  -28.1200  -12.5940   18.2990 C   0  0  0  0  0  2  0  0  0  0  0  0
  -27.8420  -13.4360   19.5730 C   0  0  0  0  0  3  0  0  0  0  0  0
  -28.9650  -13.2830   20.6300 C   0  0  0  0  0  2  0  0  0  0  0  0
  -30.2500  -13.5640   19.9720 N   0  0  0  0  0  0  0  0  0  0  0  0
  -32.1090  -14.7470   19.5070 O   0  0  0  0  0  0  0  0  0  0  0  0
  -31.1740  -16.9240   20.9110 C   0  0  0  0  0  0  0  0  0  0  0  0
  -30.4940  -15.7720   20.6900 N   0  0  0  0  0  0  0  0  0  0  0  0
  -32.3980  -16.9570   21.1120 O   0  0  0  0  0  0  0  0  0  0  0  0
  -29.5020  -15.7810   20.8650 H   0  0  0  0  0  0  0  0  0  0  0  0
  -25.4990  -14.0070   20.4630 C   0  0  0  0  0  0  0  0  0  0  0  0
  -24.4540  -13.2160   20.8610 C   0  0  0  0  0  0  0  0  0  0  0  0
  -24.9030  -11.8680   20.7350 C   0  0  0  0  0  0  0  0  0  0  0  0
  -26.5240  -13.1360   20.1290 N   0  0  0  0  0  0  0  0  0  0  0  0
  -26.1750  -11.8410   20.3520 N   0  0  0  0  0  0  0  0  0  0  0  0
  -24.1810  -10.5960   20.9070 C   0  0  0  0  0  0  0  0  0  0  0  0
  -24.5920   -9.6430   21.8640 C   0  0  0  0  0  3  0  0  0  0  0  0
  -23.8770   -8.4390   22.0310 C   0  0  0  0  0  3  0  0  0  0  0  0
  -22.7330   -8.1770   21.2380 C   0  0  0  0  0  0  0  0  0  0  0  0
  -22.3430   -9.1150   20.2680 C   0  0  0  0  0  3  0  0  0  0  0  0
  -23.0600  -10.3130   20.1000 C   0  0  0  0  0  3  0  0  0  0  0  0
  -21.9900   -7.0240   21.3090 O   0  0  0  0  0  0  0  0  0  0  0  0
  -21.8120   -6.3530   22.4920 C   0  0  0  0  0  0  0  0  0  0  0  0
  -21.1980   -6.9620   23.6090 C   0  0  0  0  0  3  0  0  0  0  0  0
  -20.9790   -6.2180   24.7850 C   0  0  0  0  0  3  0  0  0  0  0  0
  -21.3550   -4.8630   24.8430 C   0  0  0  0  0  0  0  0  0  0  0  0
  -21.9600   -4.2510   23.7300 C   0  0  0  0  0  3  0  0  0  0  0  0
  -22.1870   -4.9950   22.5570 C   0  0  0  0  0  0  0  0  0  0  0  0
  -22.7490   -4.3950   21.4810 F   0  0  0  0  0  0  0  0  0  0  0  0
  -21.1340   -4.1450   25.9690 F   0  0  0  0  0  0  0  0  0  0  0  0
  -23.0750  -13.6780   21.2410 C   0  0  0  0  0  0  0  0  0  0  0  0
  -22.4010  -12.9340   22.1130 N   0  0  0  0  0  0  0  0  0  0  0  0
  -22.6110  -14.7300   20.8060 O   0  0  0  0  0  0  0  0  0  0  0  0
  -22.7930  -12.0770   22.4760 H   0  0  0  0  0  0  0  0  0  0  0  0
  -21.4840  -13.2270   22.4210 H   0  0  0  0  0  0  0  0  0  0  0  0
  -25.6720  -15.3830   20.3400 N   0  0  0  0  0  0  0  0  0  0  0  0
  -24.9330  -16.0570   20.5050 H   0  0  0  0  0  0  0  0  0  0  0  0
  -26.5090  -15.8010   19.9580 H   0  0  0  0  0  0  0  0  0  0  0  0
  -28.5170  -25.6320   19.2000 C   0  0  0  0  0  2  0  0  0  0  0  0
  -28.3900  -26.8410   19.9790 O   0  0  0  0  0  0  0  0  0  0  0  0
  -24.6240  -31.9600   23.1890 C   0  0  0  0  0  0  0  0  0  0  0  0
  -27.2340  -27.6010   19.9280 C   0  0  0  0  0  0  0  0  0  0  0  0
  -23.4110  -30.6070   21.5160 C   0  0  0  0  0  3  0  0  0  0  0  0
  -24.8500  -29.1280   20.0200 C   0  0  0  0  0  0  0  0  0  0  0  0
  -25.9360  -30.9640   21.3120 C   0  0  0  0  0  2  0  0  0  0  0  0
  -26.0130  -29.6140   20.6300 C   0  0  0  0  0  0  0  0  0  0  0  0
  -27.2010  -28.8460   20.6020 C   0  0  0  0  0  3  0  0  0  0  0  0
  -26.0590  -27.1620   19.2740 C   0  0  0  0  0  3  0  0  0  0  0  0
  -24.8680  -27.8990   19.3410 C   0  0  0  0  0  3  0  0  0  0  0  0
  -23.6150  -29.9880   20.1090 C   0  0  0  0  0  2  0  0  0  0  0  0
  -24.6750  -31.1950   22.0630 N   0  0  0  0  0  0  0  0  0  0  0  0
  -23.5470  -32.2100   23.7460 O   0  0  0  0  0  0  0  0  0  0  0  0
  -22.7780  -29.5460   22.4500 C   0  0  0  0  0  0  0  0  0  0  0  0
  -21.4540  -29.3550   22.3260 N   0  0  0  0  0  0  0  0  0  0  0  0
  -23.4740  -28.9080   23.2470 O   0  0  0  0  0  0  0  0  0  0  0  0
  -20.9580  -29.9480   21.6760 H   0  0  0  0  0  0  0  0  0  0  0  0
  -18.0940  -28.0880   22.7840 C   0  0  0  0  0  0  0  0  0  0  0  0
  -20.6470  -28.3850   23.0680 C   0  0  0  0  0  3  0  0  0  0  0  0
  -20.7700  -26.9650   22.4650 C   0  0  0  0  0  2  0  0  0  0  0  0
  -19.6750  -26.6450   21.4400 C   0  0  0  0  0  2  0  0  0  0  0  0
  -18.2930  -26.7520   22.0870 C   0  0  0  0  0  2  0  0  0  0  0  0
  -19.1990  -28.8600   23.2320 C   0  0  0  0  0  0  0  0  0  0  0  0
  -18.9560  -30.1030   23.8560 C   0  0  0  0  0  3  0  0  0  0  0  0
  -17.6440  -30.5770   24.0320 C   0  0  0  0  0  3  0  0  0  0  0  0
  -16.5530  -29.8080   23.5880 C   0  0  0  0  0  3  0  0  0  0  0  0
  -16.7790  -28.5630   22.9710 C   0  0  0  0  0  3  0  0  0  0  0  0
  -25.9120  -32.5760   23.8170 C   0  0  0  0  0  3  0  0  0  0  0  0
  -25.6080  -33.9740   24.1570 N   0  0  0  0  0  0  0  0  0  0  0  0
  -25.9570  -35.0310   23.4110 C   0  0  0  0  0  0  0  0  0  0  0  0
  -26.6360  -34.9310   22.3850 O   0  0  0  0  0  0  0  0  0  0  0  0
  -24.9920  -34.1230   24.9430 H   0  0  0  0  0  0  0  0  0  0  0  0
  -24.2530  -36.8480   23.0490 C   0  0  0  0  0  1  0  0  0  0  0  0
  -25.4790  -36.4220   23.8720 C   0  0  0  0  0  3  0  0  0  0  0  0
  -27.6140  -37.2820   24.7340 C   0  0  0  0  0  1  0  0  0  0  0  0
  -26.5270  -37.4620   23.7730 N   0  0  0  0  0  0  0  0  0  0  0  0
  -26.1360  -38.3920   23.9040 H   0  0  0  0  0  0  0  0  0  0  0  0
  -26.4240  -31.7850   25.0840 C   0  0  1  0  0  0  0  0  0  0  0  0
  -25.3270  -31.5380   26.1450 C   0  0  0  0  0  1  0  0  0  0  0  0
  -27.0010  -30.4080   24.6800 C   0  0  0  0  0  1  0  0  0  0  0  0
  -27.5820  -32.5650   25.7480 C   0  0  0  0  0  1  0  0  0  0  0  0
  1  3  1  0
  1  5  1  0
  2  1  2  0
  3  7  2  0
  4  2  1  0
  4  6  1  0
  6 13  1  0
  6  3  1  0
  8  4  2  0
  9 12  1  0
 10  9  2  0
 10 13  1  0
 11 14  1  0
 12 24  1  0
 12 14  2  0
 13 11  2  0
 14 15  1  0
 16 25  1  0
 17 22  1  0
 18 19  1  0
 18 17  1  0
 20 19  1  0
 20 31  1  0
 20 21  1  0
 22 16  1  0
 22 21  1  0
 23 16  2  0
 24 26  2  0
 25 27  1  0
 25 24  1  0
 28 29  2  0
 29 48  1  0
 30 29  1  0
 30 33  1  0
 31 32  1  0
 31 28  1  0
 32 30  2  0
 33 34  1  0
 34 35  2  0
 36 39  1  0
 36 35  1  0
 37 36  2  0
 38 37  1  0
 38 33  2  0
 39 40  1  0
 40 45  2  0
 40 41  1  0
 41 42  2  0
 42 43  1  0
 43 47  1  0
 44 43  2  0
 45 44  1  0
 46 45  1  0
 48 49  1  0
 49 52  1  0
 49 51  1  0
 50 48  2  0
 53 28  1  0
 53 54  1  0
 55 53  1  0
 56  2  1  0
 56 57  1  0
 58 69  2  0
 59 57  1  0
 59 64  1  0
 60 68  1  0
 60 70  1  0
 61 67  1  0
 61 63  1  0
 62 68  1  0
 63 62  1  0
 64 63  2  0
 65 66  1  0
 65 59  2  0
 66 61  2  0
 67 60  1  0
 68 58  1  0
 70 72  2  0
 71 70  1  0
 73 71  1  0
 74 83  2  0
 74 79  1  0
 75 71  1  0
 75 79  1  0
 76 75  1  0
 77 78  1  0
 77 76  1  0
 78 74  1  0
 79 80  2  0
 80 81  1  0
 82 81  2  0
 83 82  1  0
 84 58  1  0
 84 85  1  0
 84 94  1  0
 85 88  1  0
 86 90  1  0
 86 85  1  0
 87 86  2  0
 90 89  1  0
 92 90  1  0
 92 93  1  0
 92 91  1  0
 94 97  1  1
 94 95  1  0
 96 94  1  0
M  ISO  4  16 100  25 100  56 101  57 101
M  END
>  <TORSDO>  (33) 
F 18

>  <SCORE>  (33) 
-13.971

>  <name>  (33) 
32

>  <ligand_id>  (33) 
32

>  <original_smiles>  (33) 
[H]c1c([H])c([H])c2c(c1[H])C([H])([H])C([H])([H])C([H])([H])C2([H])N([H])C(=O)C1([H])N(C(=O)C([H])(N([H])C(=O)C([H])(N([H])C([H])([H])[H])C([H])([H])[H])C(C([H])([H])[H])(C([H])([H])[H])C([H])([H])[H])C([H])([H])c2c([H])c(OC([H])([H])C3=C(C([H])([H])[H])C(=O)N(c4c([H])c([H])c(C(=O)N([H])C(=O)N5C([H])([H])C([H])([H])C([H])([H])C([H])(n6nc(-c7c([H])c([H])c(Oc8c([H])c([H])c(F)c([H])c8F)c([H])c7[H])c(C(=O)N([H])[H])c6N([H])[H])C5([H])[H])c(F)c4[H])C3=O)c([H])c([H])c2C1([H])[H]

>  <smiles>  (33) 
[H]c1c([H])c([H])c2c(c1[H])C([H])([H])C([H])([H])C([H])([H])C2([H])N([H])C(=O)C1([H])N(C(=O)C([H])(N([H])C(=O)C([H])(N([H])C([H])([H])[H])C([H])([H])[H])C(C([H])([H])[H])(C([H])([H])[H])C([H])([H])[H])C([H])([H])c2c([H])c(OC([H])([H])C3=C(C([H])([H])[H])C(=O)N(c4c([H])c([H])c(C(=O)N([H])C(=O)N5C([H])([H])C([H])([H])C([H])([H])C([H])(n6nc(-c7c([H])c([H])c(Oc8c([H])c([H])c(F)c([H])c8F)c([H])c7[H])c(C(=O)N([H])[H])c6N([H])[H])C5([H])[H])c(F)c4[H])C3=O)c([H])c([H])c2C1([H])[H]

$$$$
33:0:0
     RDKit          3D

 96105  0  0  1  0  0  0  0  0999 V2000
  -30.2650  -23.8180   20.1610 C   0  0  0  0  0  3  0  0  0  0  0  0
  -28.9340  -23.8280   20.1970 C   0  0  0  0  0  0  0  0  0  0  0  0
  -30.7370  -22.4430   20.2280 C   0  0  0  0  0  0  0  0  0  0  0  0
  -28.5300  -22.4140   20.3110 C   0  0  0  0  0  0  0  0  0  0  0  0
  -29.6540  -21.6260   20.3170 N   0  0  0  0  0  0  0  0  0  0  0  0
  -31.9190  -22.0870   20.1730 O   0  0  0  0  0  0  0  0  0  0  0  0
  -27.3680  -22.0000   20.3980 O   0  0  0  0  0  0  0  0  0  0  0  0
  -30.7750  -19.4140   21.0160 C   0  0  0  0  0  3  0  0  0  0  0  0
  -30.8330  -17.9870   21.0790 C   0  0  0  0  0  3  0  0  0  0  0  0
  -28.7090  -19.2980   19.8050 C   0  0  0  0  0  3  0  0  0  0  0  0
  -29.7100  -20.1340   20.3840 C   0  0  0  0  0  0  0  0  0  0  0  0
  -29.8150  -17.1780   20.5140 C   0  0  0  0  0  0  0  0  0  0  0  0
  -28.7580  -17.8700   19.8680 C   0  0  0  0  0  0  0  0  0  0  0  0
  -30.5550  -14.6860   20.4290 C   0  0  0  0  0  0  0  0  0  0  0  0
  -30.3740  -12.4480   19.3650 C   0  0  0  0  0  2  0  0  0  0  0  0
  -29.4250  -12.5810   18.1520 C   0  0  0  0  0  2  0  0  0  0  0  0
  -27.9520  -12.4140   18.5780 C   0  0  0  0  0  2  0  0  0  0  0  0
  -27.5890  -13.2710   19.8200 C   0  0  0  0  0  3  0  0  0  0  0  0
  -28.6480  -13.1020   20.9330 C   0  0  0  0  0  2  0  0  0  0  0  0
  -29.9560  -13.4560   20.3570 N   0  0  0  0  0  0  0  0  0  0  0  0
  -31.7330  -14.8530   20.0990 O   0  0  0  0  0  0  0  0  0  0  0  0
  -29.7030  -15.7280   20.6700 N   0  0  0  0  0  0  0  0  0  0  0  0
  -28.7450  -15.4290   20.7730 H   0  0  0  0  0  0  0  0  0  0  0  0
  -25.1980  -13.8790   20.5380 C   0  0  0  0  0  0  0  0  0  0  0  0
  -24.1260  -13.1070   20.8970 C   0  0  0  0  0  0  0  0  0  0  0  0
  -24.5850  -11.7540   20.8640 C   0  0  0  0  0  0  0  0  0  0  0  0
  -26.2390  -12.9950   20.3010 N   0  0  0  0  0  0  0  0  0  0  0  0
  -25.8770  -11.7130   20.5590 N   0  0  0  0  0  0  0  0  0  0  0  0
  -23.8560  -10.4940   21.0500 C   0  0  0  0  0  0  0  0  0  0  0  0
  -24.2830   -9.5260   21.9870 C   0  0  0  0  0  3  0  0  0  0  0  0
  -23.5550   -8.3280   22.1600 C   0  0  0  0  0  3  0  0  0  0  0  0
  -22.3870   -8.0920   21.3970 C   0  0  0  0  0  0  0  0  0  0  0  0
  -21.9800   -9.0490   20.4500 C   0  0  0  0  0  3  0  0  0  0  0  0
  -22.7080  -10.2370   20.2750 C   0  0  0  0  0  3  0  0  0  0  0  0
  -21.6310   -6.9480   21.4800 O   0  0  0  0  0  0  0  0  0  0  0  0
  -21.5710   -6.2070   22.6330 C   0  0  0  0  0  0  0  0  0  0  0  0
  -21.1110   -6.7560   23.8490 C   0  0  0  0  0  3  0  0  0  0  0  0
  -20.9990   -5.9390   24.9930 C   0  0  0  0  0  3  0  0  0  0  0  0
  -21.3380   -4.5760   24.9210 C   0  0  0  0  0  0  0  0  0  0  0  0
  -21.7930   -4.0260   23.7080 C   0  0  0  0  0  3  0  0  0  0  0  0
  -21.9060   -4.8390   22.5680 C   0  0  0  0  0  0  0  0  0  0  0  0
  -22.3240   -4.3000   21.3970 F   0  0  0  0  0  0  0  0  0  0  0  0
  -21.2240   -3.7890   26.0160 F   0  0  0  0  0  0  0  0  0  0  0  0
  -22.7290  -13.5870   21.1620 C   0  0  0  0  0  0  0  0  0  0  0  0
  -21.9970  -12.8910   22.0240 N   0  0  0  0  0  0  0  0  0  0  0  0
  -22.2930  -14.6130   20.6400 O   0  0  0  0  0  0  0  0  0  0  0  0
  -22.3600  -12.0600   22.4650 H   0  0  0  0  0  0  0  0  0  0  0  0
  -21.0600  -13.1940   22.2470 H   0  0  0  0  0  0  0  0  0  0  0  0
  -25.3580  -15.2530   20.3800 N   0  0  0  0  0  0  0  0  0  0  0  0
  -24.5910  -15.8920   20.5520 H   0  0  0  0  0  0  0  0  0  0  0  0
  -26.2040  -15.7420   20.0880 H   0  0  0  0  0  0  0  0  0  0  0  0
  -27.7500  -17.1280   19.2510 N   0  0  0  0  0  0  0  0  0  0  0  0
  -27.1370  -17.6680   18.6470 H   0  0  0  0  0  0  0  0  0  0  0  0
  -28.1010  -16.3250   18.7420 H   0  0  0  0  0  0  0  0  0  0  0  0
  -27.9250  -25.0100   19.9960 C   0  0  0  0  0  2  0  0  0  0  0  0
  -28.2700  -26.4430   20.2190 O   0  0  0  0  0  0  0  0  0  0  0  0
  -24.6110  -31.8870   23.3060 C   0  0  0  0  0  0  0  0  0  0  0  0
  -27.1780  -27.3390   20.1810 C   0  0  0  0  0  0  0  0  0  0  0  0
  -23.3930  -30.5130   21.6610 C   0  0  0  0  0  3  0  0  0  0  0  0
  -24.8260  -28.9840   20.2100 C   0  0  0  0  0  0  0  0  0  0  0  0
  -25.9360  -30.8220   21.4650 C   0  0  0  0  0  2  0  0  0  0  0  0
  -26.0080  -29.4510   20.8030 C   0  0  0  0  0  0  0  0  0  0  0  0
  -27.1870  -28.6430   20.7780 C   0  0  0  0  0  3  0  0  0  0  0  0
  -25.9640  -26.9450   19.5620 C   0  0  0  0  0  3  0  0  0  0  0  0
  -24.8090  -27.7370   19.5820 C   0  0  0  0  0  3  0  0  0  0  0  0
  -23.5960  -29.8630   20.2720 C   0  0  0  0  0  2  0  0  0  0  0  0
  -24.6670  -31.0890   22.2020 N   0  0  0  0  0  0  0  0  0  0  0  0
  -23.5310  -32.1620   23.8480 O   0  0  0  0  0  0  0  0  0  0  0  0
  -22.7310  -29.4840   22.6100 C   0  0  0  0  0  0  0  0  0  0  0  0
  -21.4070  -29.2960   22.4740 N   0  0  0  0  0  0  0  0  0  0  0  0
  -23.4110  -28.8590   23.4290 O   0  0  0  0  0  0  0  0  0  0  0  0
  -20.9160  -29.8590   21.7940 H   0  0  0  0  0  0  0  0  0  0  0  0
  -18.0380  -28.0630   22.9370 C   0  0  0  0  0  0  0  0  0  0  0  0
  -20.5900  -28.3500   23.2370 C   0  0  0  0  0  3  0  0  0  0  0  0
  -20.7140  -26.9180   22.6660 C   0  0  0  0  0  2  0  0  0  0  0  0
  -19.6280  -26.5800   21.6410 C   0  0  0  0  0  2  0  0  0  0  0  0
  -18.2360  -26.7130   22.2660 C   0  0  0  0  0  2  0  0  0  0  0  0
  -19.1430  -28.8370   23.3790 C   0  0  0  0  0  0  0  0  0  0  0  0
  -18.9050  -30.0990   23.9650 C   0  0  0  0  0  3  0  0  0  0  0  0
  -17.5930  -30.5880   24.1130 C   0  0  0  0  0  3  0  0  0  0  0  0
  -16.5020  -29.8100   23.6890 C   0  0  0  0  0  3  0  0  0  0  0  0
  -16.7240  -28.5490   23.1070 C   0  0  0  0  0  3  0  0  0  0  0  0
  -25.8980  -32.5110   23.9270 C   0  0  0  0  0  3  0  0  0  0  0  0
  -26.4040  -31.7370   25.2050 C   0  0  1  0  0  0  0  0  0  0  0  0
  -25.3030  -31.5160   26.2700 C   0  0  0  0  0  1  0  0  0  0  0  0
  -26.9710  -30.3530   24.8150 C   0  0  0  0  0  1  0  0  0  0  0  0
  -27.5630  -32.5190   25.8670 C   0  0  0  0  0  1  0  0  0  0  0  0
  -25.6030  -33.9120   24.2530 N   0  0  0  0  0  0  0  0  0  0  0  0
  -25.9130  -34.9580   23.4740 C   0  0  0  0  0  0  0  0  0  0  0  0
  -26.5500  -34.8440   22.4230 O   0  0  0  0  0  0  0  0  0  0  0  0
  -25.0410  -34.0780   25.0750 H   0  0  0  0  0  0  0  0  0  0  0  0
  -24.1690  -36.7410   23.1680 C   0  0  0  0  0  1  0  0  0  0  0  0
  -25.4440  -36.3500   23.9330 C   0  0  0  0  0  3  0  0  0  0  0  0
  -27.6090  -37.2500   24.6630 C   0  0  0  0  0  1  0  0  0  0  0  0
  -26.4680  -37.4040   23.7640 N   0  0  0  0  0  0  0  0  0  0  0  0
  -26.0650  -38.3240   23.9200 H   0  0  0  0  0  0  0  0  0  0  0  0
  1  2  2  0
  1  3  1  0
  2  4  1  0
  3  5  1  0
  4  5  1  0
  4  7  2  0
  5 11  1  0
  6  3  2  0
  8  9  1  0
 10 13  2  0
 10 11  1  0
 11  8  2  0
 12 22  1  0
 12  9  2  0
 13 12  1  0
 14 22  1  0
 15 20  1  0
 16 17  1  0
 16 15  1  0
 18 17  1  0
 18 27  1  0
 18 19  1  0
 20 14  1  0
 20 19  1  0
 21 14  2  0
 22 23  1  0
 24 25  2  0
 25 44  1  0
 26 25  1  0
 26 29  1  0
 27 24  1  0
 27 28  1  0
 28 26  2  0
 29 30  1  0
 30 31  2  0
 32 35  1  0
 32 31  1  0
 33 32  2  0
 34 33  1  0
 34 29  2  0
 35 36  1  0
 36 37  1  0
 37 38  2  0
 39 38  1  0
 39 43  1  0
 40 39  2  0
 41 36  2  0
 41 40  1  0
 42 41  1  0
 44 45  1  0
 45 48  1  0
 45 47  1  0
 46 44  2  0
 49 24  1  0
 49 50  1  0
 51 49  1  0
 52 13  1  0
 53 52  1  0
 54 52  1  0
 55  2  1  0
 55 56  1  0
 57 68  2  0
 58 56  1  0
 58 63  1  0
 59 67  1  0
 59 69  1  0
 60 66  1  0
 60 62  1  0
 61 67  1  0
 62 61  1  0
 63 62  2  0
 64 65  1  0
 64 58  2  0
 65 60  2  0
 66 59  1  0
 67 57  1  0
 69 71  2  0
 70 69  1  0
 72 70  1  0
 73 82  2  0
 73 78  1  0
 74 70  1  0
 74 78  1  0
 75 74  1  0
 76 77  1  0
 76 75  1  0
 77 73  1  0
 78 79  2  0
 79 80  1  0
 81 80  2  0
 82 81  1  0
 83 57  1  0
 83 88  1  0
 83 84  1  0
 84 87  1  1
 84 85  1  0
 86 84  1  0
 88 91  1  0
 89 93  1  0
 89 88  1  0
 90 89  2  0
 93 92  1  0
 95 96  1  0
 95 93  1  0
 95 94  1  0
M  ISO  4  14 100  22 100  55 101  56 101
M  END
>  <TORSDO>  (34) 
F 19

>  <SCORE>  (34) 
-14.862

>  <name>  (34) 
33

>  <ligand_id>  (34) 
33

>  <original_smiles>  (34) 
[H]C1=C(C([H])([H])Oc2c([H])c([H])c3c(c2[H])C([H])([H])N(C(=O)C([H])(N([H])C(=O)C([H])(N([H])C([H])([H])[H])C([H])([H])[H])C(C([H])([H])[H])(C([H])([H])[H])C([H])([H])[H])C([H])(C(=O)N([H])C2([H])c4c([H])c([H])c([H])c([H])c4C([H])([H])C([H])([H])C2([H])[H])C3([H])[H])C(=O)N(c2c([H])c([H])c(N([H])C(=O)N3C([H])([H])C([H])([H])C([H])([H])C([H])(n4nc(-c5c([H])c([H])c(Oc6c([H])c([H])c(F)c([H])c6F)c([H])c5[H])c(C(=O)N([H])[H])c4N([H])[H])C3([H])[H])c(N([H])[H])c2[H])C1=O

>  <smiles>  (34) 
[H]C1=C(C([H])([H])Oc2c([H])c([H])c3c(c2[H])C([H])([H])N(C(=O)C([H])(N([H])C(=O)C([H])(N([H])C([H])([H])[H])C([H])([H])[H])C(C([H])([H])[H])(C([H])([H])[H])C([H])([H])[H])C([H])(C(=O)N([H])C2([H])c4c([H])c([H])c([H])c([H])c4C([H])([H])C([H])([H])C2([H])[H])C3([H])[H])C(=O)N(c2c([H])c([H])c(N([H])C(=O)N3C([H])([H])C([H])([H])C([H])([H])C([H])(n4nc(-c5c([H])c([H])c(Oc6c([H])c([H])c(F)c([H])c6F)c([H])c5[H])c(C(=O)N([H])[H])c4N([H])[H])C3([H])[H])c(N([H])[H])c2[H])C1=O

$$$$
34:0:0
     RDKit          3D

 96105  0  0  1  0  0  0  0  0999 V2000
  -28.9100  -23.7920   20.5010 C   0  0  0  0  0  0  0  0  0  0  0  0
  -30.3190  -23.7260   20.8400 C   0  0  0  0  0  0  0  0  0  0  0  0
  -28.4610  -22.3600   20.4890 C   0  0  0  0  0  0  0  0  0  0  0  0
  -28.1210  -24.9180   20.2170 C   0  0  0  0  0  3  0  0  0  0  0  0
  -30.7020  -22.2530   21.0950 C   0  0  0  0  0  2  0  0  0  0  0  0
  -29.4890  -21.4680   20.7970 N   0  0  0  0  0  0  0  0  0  0  0  0
  -31.1160  -24.6660   20.9360 O   0  0  0  0  0  0  0  0  0  0  0  0
  -27.3080  -21.9870   20.2390 O   0  0  0  0  0  0  0  0  0  0  0  0
  -29.6440  -18.4810   18.5030 C   0  0  0  0  0  3  0  0  0  0  0  0
  -29.5050  -19.7690   19.0380 C   0  0  0  0  0  3  0  0  0  0  0  0
  -29.8670  -17.3400   19.3040 C   0  0  0  0  0  0  0  0  0  0  0  0
  -29.5780  -20.0120   20.4210 C   0  0  0  0  0  0  0  0  0  0  0  0
  -29.9450  -17.4440   20.7270 C   0  0  0  0  0  0  0  0  0  0  0  0
  -29.7940  -18.8170   21.2590 C   0  0  0  0  0  0  0  0  0  0  0  0
  -29.8410  -18.9840   22.6020 F   0  0  0  0  0  0  0  0  0  0  0  0
  -30.7960  -15.0360   21.4920 C   0  0  0  0  0  0  0  0  0  0  0  0
  -30.8590  -12.6310   20.7620 C   0  0  0  0  0  2  0  0  0  0  0  0
  -30.1580  -12.4760   19.3920 C   0  0  0  0  0  2  0  0  0  0  0  0
  -28.6350  -12.3230   19.5580 C   0  0  0  0  0  2  0  0  0  0  0  0
  -28.0270  -13.3130   20.5870 C   0  0  0  0  0  3  0  0  0  0  0  0
  -28.8690  -13.4010   21.8790 C   0  0  0  0  0  2  0  0  0  0  0  0
  -30.2350  -13.7690   21.4890 N   0  0  0  0  0  0  0  0  0  0  0  0
  -32.0130  -15.1430   21.3200 O   0  0  0  0  0  0  0  0  0  0  0  0
  -29.9730  -16.1700   21.5420 N   0  0  0  0  0  0  0  0  0  0  0  0
  -29.0870  -15.9780   21.9830 H   0  0  0  0  0  0  0  0  0  0  0  0
  -25.5510  -13.8800   20.9450 C   0  0  0  0  0  0  0  0  0  0  0  0
  -24.4470  -13.0970   21.1440 C   0  0  0  0  0  0  0  0  0  0  0  0
  -24.9190  -11.7500   21.1790 C   0  0  0  0  0  0  0  0  0  0  0  0
  -26.6260  -13.0100   20.8670 N   0  0  0  0  0  0  0  0  0  0  0  0
  -26.2430  -11.7220   21.0730 N   0  0  0  0  0  0  0  0  0  0  0  0
  -24.1800  -10.4810   21.2490 C   0  0  0  0  0  0  0  0  0  0  0  0
  -24.5250   -9.4730   22.1760 C   0  0  0  0  0  3  0  0  0  0  0  0
  -23.7860   -8.2730   22.2380 C   0  0  0  0  0  3  0  0  0  0  0  0
  -22.6870   -8.0700   21.3720 C   0  0  0  0  0  0  0  0  0  0  0  0
  -22.3600   -9.0670   20.4350 C   0  0  0  0  0  3  0  0  0  0  0  0
  -23.1000  -10.2590   20.3700 C   0  0  0  0  0  3  0  0  0  0  0  0
  -21.9270   -6.9250   21.3430 O   0  0  0  0  0  0  0  0  0  0  0  0
  -21.8220   -6.1040   22.4360 C   0  0  0  0  0  0  0  0  0  0  0  0
  -21.3260   -6.5690   23.6740 C   0  0  0  0  0  3  0  0  0  0  0  0
  -21.1700   -5.6740   24.7510 C   0  0  0  0  0  3  0  0  0  0  0  0
  -21.5000   -4.3150   24.5920 C   0  0  0  0  0  0  0  0  0  0  0  0
  -21.9880   -3.8490   23.3590 C   0  0  0  0  0  3  0  0  0  0  0  0
  -22.1460   -4.7400   22.2840 C   0  0  0  0  0  0  0  0  0  0  0  0
  -22.5970   -4.2810   21.0910 F   0  0  0  0  0  0  0  0  0  0  0  0
  -21.3430   -3.4540   25.6240 F   0  0  0  0  0  0  0  0  0  0  0  0
  -23.0220  -13.5640   21.1990 C   0  0  0  0  0  0  0  0  0  0  0  0
  -22.1790  -12.8720   21.9570 N   0  0  0  0  0  0  0  0  0  0  0  0
  -22.6580  -14.5790   20.6050 O   0  0  0  0  0  0  0  0  0  0  0  0
  -22.4830  -12.0500   22.4600 H   0  0  0  0  0  0  0  0  0  0  0  0
  -21.2170  -13.1670   22.0400 H   0  0  0  0  0  0  0  0  0  0  0  0
  -25.7330  -15.2530   20.7990 N   0  0  0  0  0  0  0  0  0  0  0  0
  -24.9530  -15.9010   20.7810 H   0  0  0  0  0  0  0  0  0  0  0  0
  -26.6160  -15.6910   20.5730 H   0  0  0  0  0  0  0  0  0  0  0  0
  -29.0240  -15.6270   17.7010 C   0  0  0  0  0  2  0  0  0  0  0  0
  -29.9410  -16.0630   18.5820 C   0  0  0  0  0  3  0  0  0  0  0  0
  -28.3910  -26.3370   20.1000 O   0  0  0  0  0  0  0  0  0  0  0  0
  -24.7320  -31.8830   23.1570 C   0  0  0  0  0  0  0  0  0  0  0  0
  -27.3180  -27.2830   20.0460 C   0  0  0  0  0  0  0  0  0  0  0  0
  -23.5160  -30.4800   21.5330 C   0  0  0  0  0  3  0  0  0  0  0  0
  -24.9580  -28.9500   20.0670 C   0  0  0  0  0  0  0  0  0  0  0  0
  -26.0570  -30.7980   21.3190 C   0  0  0  0  0  2  0  0  0  0  0  0
  -26.1370  -29.4160   20.6640 C   0  0  0  0  0  0  0  0  0  0  0  0
  -27.3160  -28.5920   20.6510 C   0  0  0  0  0  3  0  0  0  0  0  0
  -26.1250  -26.9270   19.3720 C   0  0  0  0  0  3  0  0  0  0  0  0
  -24.9610  -27.7150   19.4090 C   0  0  0  0  0  3  0  0  0  0  0  0
  -23.7180  -29.8200   20.1450 C   0  0  0  0  0  2  0  0  0  0  0  0
  -24.7890  -31.0740   22.0580 N   0  0  0  0  0  0  0  0  0  0  0  0
  -23.6540  -32.1490   23.7090 O   0  0  0  0  0  0  0  0  0  0  0  0
  -22.8780  -29.4520   22.5000 C   0  0  0  0  0  0  0  0  0  0  0  0
  -21.5500  -29.2660   22.4030 N   0  0  0  0  0  0  0  0  0  0  0  0
  -23.5780  -28.8260   23.3010 O   0  0  0  0  0  0  0  0  0  0  0  0
  -21.0430  -29.8250   21.7310 H   0  0  0  0  0  0  0  0  0  0  0  0
  -18.1960  -28.0220   22.9620 C   0  0  0  0  0  0  0  0  0  0  0  0
  -20.7560  -28.3170   23.1860 C   0  0  0  0  0  3  0  0  0  0  0  0
  -20.8660  -26.8870   22.6070 C   0  0  0  0  0  2  0  0  0  0  0  0
  -19.7500  -26.5510   21.6120 C   0  0  0  0  0  2  0  0  0  0  0  0
  -18.3790  -26.6760   22.2800 C   0  0  0  0  0  2  0  0  0  0  0  0
  -19.3120  -28.7990   23.3730 C   0  0  0  0  0  0  0  0  0  0  0  0
  -19.0860  -30.0570   23.9730 C   0  0  0  0  0  3  0  0  0  0  0  0
  -17.7770  -30.5390   24.1650 C   0  0  0  0  0  3  0  0  0  0  0  0
  -16.6760  -29.7590   23.7690 C   0  0  0  0  0  3  0  0  0  0  0  0
  -16.8870  -28.5030   23.1740 C   0  0  0  0  0  3  0  0  0  0  0  0
  -26.0160  -32.5310   23.7580 C   0  0  0  0  0  3  0  0  0  0  0  0
  -25.6880  -33.9180   24.1240 N   0  0  0  0  0  0  0  0  0  0  0  0
  -26.0200  -34.9960   23.4030 C   0  0  0  0  0  0  0  0  0  0  0  0
  -26.7040  -34.9300   22.3770 O   0  0  0  0  0  0  0  0  0  0  0  0
  -25.0820  -34.0420   24.9220 H   0  0  0  0  0  0  0  0  0  0  0  0
  -24.2820  -36.7870   23.0780 C   0  0  0  0  0  1  0  0  0  0  0  0
  -25.5140  -36.3660   23.8950 C   0  0  0  0  0  3  0  0  0  0  0  0
  -27.6290  -37.2400   24.7850 C   0  0  0  0  0  1  0  0  0  0  0  0
  -26.5390  -37.4310   23.8320 N   0  0  0  0  0  0  0  0  0  0  0  0
  -26.1220  -38.3420   24.0050 H   0  0  0  0  0  0  0  0  0  0  0  0
  -26.5770  -31.7490   25.0090 C   0  0  1  0  0  0  0  0  0  0  0  0
  -25.5180  -31.4850   26.1030 C   0  0  0  0  0  1  0  0  0  0  0  0
  -27.1670  -30.3830   24.5850 C   0  0  0  0  0  1  0  0  0  0  0  0
  -27.7380  -32.5480   25.6490 C   0  0  0  0  0  1  0  0  0  0  0  0
  1  2  1  0
  2  7  2  0
  2  5  1  0
  3  1  1  0
  3  6  1  0
  4  1  2  0
  6  5  1  0
  8  3  2  0
  9 10  2  0
  9 11  1  0
 10 12  1  0
 11 13  2  0
 12  6  1  0
 12 14  2  0
 13 14  1  0
 13 24  1  0
 14 15  1  0
 16 24  1  0
 17 22  1  0
 18 19  1  0
 18 17  1  0
 20 19  1  0
 20 29  1  0
 20 21  1  0
 22 16  1  0
 22 21  1  0
 23 16  2  0
 24 25  1  0
 26 27  2  0
 27 28  1  0
 27 46  1  0
 28 31  1  0
 29 26  1  0
 29 30  1  0
 30 28  2  0
 31 32  1  0
 32 33  2  0
 34 33  1  0
 35 34  2  0
 36 35  1  0
 36 31  2  0
 37 34  1  0
 37 38  1  0
 38 39  1  0
 39 40  2  0
 41 40  1  0
 41 45  1  0
 42 41  2  0
 43 38  2  0
 43 42  1  0
 44 43  1  0
 46 47  1  0
 47 50  1  0
 47 49  1  0
 48 46  2  0
 51 26  1  0
 52 51  1  0
 53 51  1  0
 54 55  2  0
 55 11  1  0
 56  4  1  0
 57 68  2  0
 58 56  1  0
 58 63  1  0
 59 67  1  0
 59 69  1  0
 60 66  1  0
 60 62  1  0
 61 67  1  0
 62 61  1  0
 63 62  2  0
 64 65  1  0
 64 58  2  0
 65 60  2  0
 66 59  1  0
 67 57  1  0
 69 71  2  0
 70 69  1  0
 72 70  1  0
 73 82  2  0
 73 78  1  0
 74 70  1  0
 74 78  1  0
 75 74  1  0
 76 77  1  0
 76 75  1  0
 77 73  1  0
 78 79  2  0
 79 80  1  0
 81 80  2  0
 82 81  1  0
 83 57  1  0
 83 84  1  0
 83 93  1  0
 84 87  1  0
 85 89  1  0
 85 84  1  0
 86 85  2  0
 89 88  1  0
 91 89  1  0
 91 92  1  0
 91 90  1  0
 93 96  1  1
 93 94  1  0
 95 93  1  0
M  ISO  4   4 101  16 100  24 100  56 101
M  END
>  <TORSDO>  (35) 
F 18

>  <SCORE>  (35) 
-10.191

>  <name>  (35) 
34

>  <ligand_id>  (35) 
34

>  <original_smiles>  (35) 
[H]C([H])=C([H])c1c([H])c([H])c(N2C(=O)C(=C([H])Oc3c([H])c([H])c4c(c3[H])C([H])([H])N(C(=O)C([H])(N([H])C(=O)C([H])(N([H])C([H])([H])[H])C([H])([H])[H])C(C([H])([H])[H])(C([H])([H])[H])C([H])([H])[H])C([H])(C(=O)N([H])C3([H])c5c([H])c([H])c([H])c([H])c5C([H])([H])C([H])([H])C3([H])[H])C4([H])[H])C(=O)C2([H])[H])c(F)c1N([H])C(=O)N1C([H])([H])C([H])([H])C([H])([H])C([H])(n2nc(-c3c([H])c([H])c(Oc4c([H])c([H])c(F)c([H])c4F)c([H])c3[H])c(C(=O)N([H])[H])c2N([H])[H])C1([H])[H]

>  <smiles>  (35) 
[H]C([H])=C([H])c1c([H])c([H])c(N2C(=O)C(=C([H])Oc3c([H])c([H])c4c(c3[H])C([H])([H])N(C(=O)C([H])(N([H])C(=O)C([H])(N([H])C([H])([H])[H])C([H])([H])[H])C(C([H])([H])[H])(C([H])([H])[H])C([H])([H])[H])C([H])(C(=O)N([H])C3([H])c5c([H])c([H])c([H])c([H])c5C([H])([H])C([H])([H])C3([H])[H])C4([H])[H])C(=O)C2([H])[H])c(F)c1N([H])C(=O)N1C([H])([H])C([H])([H])C([H])([H])C([H])(n2nc(-c3c([H])c([H])c(Oc4c([H])c([H])c(F)c([H])c4F)c([H])c3[H])c(C(=O)N([H])[H])c2N([H])[H])C1([H])[H]

$$$$
35:0:0
     RDKit          3D

 92100  0  0  1  0  0  0  0  0999 V2000
  -28.8450  -22.5450   19.8690 C   0  0  0  0  0  0  0  0  0  0  0  0
  -29.3190  -21.4370   20.5940 N   0  0  0  0  0  0  0  0  0  0  0  0
  -28.4000  -22.3750   18.7320 O   0  0  0  0  0  0  0  0  0  0  0  0
  -29.4700  -21.6080   21.5790 H   0  0  0  0  0  0  0  0  0  0  0  0
  -30.5200  -18.7320   18.2050 C   0  0  0  0  0  3  0  0  0  0  0  0
  -30.1840  -19.9620   18.7880 C   0  0  0  0  0  3  0  0  0  0  0  0
  -29.6740  -18.7800   20.8450 C   0  0  0  0  0  3  0  0  0  0  0  0
  -30.4110  -17.5100   18.8980 C   0  0  0  0  0  0  0  0  0  0  0  0
  -29.6890  -20.0570   20.1060 C   0  0  0  0  0  0  0  0  0  0  0  0
  -30.0590  -17.4710   20.2820 C   0  0  0  0  0  0  0  0  0  0  0  0
  -30.5810  -16.2600   18.0560 C   0  0  0  0  0  1  0  0  0  0  0  0
  -30.7770  -14.9930   20.9360 C   0  0  0  0  0  0  0  0  0  0  0  0
  -30.7410  -12.6370   20.0900 C   0  0  0  0  0  2  0  0  0  0  0  0
  -29.9360  -12.5920   18.7730 C   0  0  0  0  0  2  0  0  0  0  0  0
  -28.4310  -12.4250   19.0580 C   0  0  0  0  0  2  0  0  0  0  0  0
  -27.9170  -13.3670   20.1800 C   0  0  0  0  0  3  0  0  0  0  0  0
  -28.8560  -13.3750   21.4050 C   0  0  0  0  0  2  0  0  0  0  0  0
  -30.1950  -13.7390   20.9220 N   0  0  0  0  0  0  0  0  0  0  0  0
  -31.9950  -15.0810   20.7510 O   0  0  0  0  0  0  0  0  0  0  0  0
  -29.9670  -16.1370   20.9840 N   0  0  0  0  0  0  0  0  0  0  0  0
  -29.0710  -15.9650   21.4160 H   0  0  0  0  0  0  0  0  0  0  0  0
  -25.4640  -13.9380   20.6590 C   0  0  0  0  0  0  0  0  0  0  0  0
  -24.3790  -13.1560   20.9480 C   0  0  0  0  0  0  0  0  0  0  0  0
  -24.8610  -11.8120   21.0000 C   0  0  0  0  0  0  0  0  0  0  0  0
  -26.5370  -13.0700   20.5500 N   0  0  0  0  0  0  0  0  0  0  0  0
  -26.1760  -11.7890   20.8190 N   0  0  0  0  0  0  0  0  0  0  0  0
  -24.1360  -10.5440   21.1530 C   0  0  0  0  0  0  0  0  0  0  0  0
  -24.4980   -9.6010   22.1400 C   0  0  0  0  0  3  0  0  0  0  0  0
  -23.7710   -8.3980   22.2810 C   0  0  0  0  0  3  0  0  0  0  0  0
  -22.6690   -8.1310   21.4350 C   0  0  0  0  0  0  0  0  0  0  0  0
  -22.3280   -9.0630   20.4380 C   0  0  0  0  0  3  0  0  0  0  0  0
  -23.0550  -10.2560   20.2960 C   0  0  0  0  0  3  0  0  0  0  0  0
  -21.9220   -6.9780   21.4820 O   0  0  0  0  0  0  0  0  0  0  0  0
  -21.7870   -6.2560   22.6410 C   0  0  0  0  0  0  0  0  0  0  0  0
  -21.2310   -6.8180   23.8110 C   0  0  0  0  0  3  0  0  0  0  0  0
  -21.0490   -6.0210   24.9580 C   0  0  0  0  0  3  0  0  0  0  0  0
  -21.4090   -4.6590   24.9330 C   0  0  0  0  0  0  0  0  0  0  0  0
  -21.9560   -4.0960   23.7670 C   0  0  0  0  0  3  0  0  0  0  0  0
  -22.1420   -4.8910   22.6230 C   0  0  0  0  0  0  0  0  0  0  0  0
  -22.6480   -4.3380   21.4950 F   0  0  0  0  0  0  0  0  0  0  0  0
  -21.2270   -3.8900   26.0330 F   0  0  0  0  0  0  0  0  0  0  0  0
  -22.9560  -13.6170   21.0710 C   0  0  0  0  0  0  0  0  0  0  0  0
  -22.1580  -12.9320   21.8840 N   0  0  0  0  0  0  0  0  0  0  0  0
  -22.5560  -14.6220   20.4850 O   0  0  0  0  0  0  0  0  0  0  0  0
  -22.4890  -12.1150   22.3750 H   0  0  0  0  0  0  0  0  0  0  0  0
  -21.2020  -13.2290   22.0170 H   0  0  0  0  0  0  0  0  0  0  0  0
  -25.6260  -15.3060   20.4580 N   0  0  0  0  0  0  0  0  0  0  0  0
  -24.8430  -15.9500   20.4740 H   0  0  0  0  0  0  0  0  0  0  0  0
  -26.4970  -15.7510   20.2010 H   0  0  0  0  0  0  0  0  0  0  0  0
  -28.8460  -23.9390   20.4730 C   0  0  0  0  0  3  0  0  0  0  0  0
  -28.4050  -25.0840   19.7990 C   0  0  0  0  0  3  0  0  0  0  0  0
  -28.4220  -26.4640   20.2040 O   0  0  0  0  0  0  0  0  0  0  0  0
  -24.5150  -31.9000   23.0660 C   0  0  0  0  0  0  0  0  0  0  0  0
  -27.3040  -27.3370   20.0840 C   0  0  0  0  0  0  0  0  0  0  0  0
  -23.3840  -30.4650   21.4070 C   0  0  0  0  0  3  0  0  0  0  0  0
  -24.9050  -28.9430   20.0130 C   0  0  0  0  0  0  0  0  0  0  0  0
  -25.9240  -30.8300   21.2820 C   0  0  0  0  0  2  0  0  0  0  0  0
  -26.0520  -29.4470   20.6380 C   0  0  0  0  0  0  0  0  0  0  0  0
  -27.2490  -28.6560   20.6650 C   0  0  0  0  0  3  0  0  0  0  0  0
  -26.1260  -26.9070   19.4310 C   0  0  0  0  0  3  0  0  0  0  0  0
  -24.9500  -27.6820   19.3990 C   0  0  0  0  0  3  0  0  0  0  0  0
  -23.6470  -29.7900   20.0340 C   0  0  0  0  0  2  0  0  0  0  0  0
  -24.6250  -31.0860   21.9750 N   0  0  0  0  0  0  0  0  0  0  0  0
  -23.4140  -32.1520   23.5770 O   0  0  0  0  0  0  0  0  0  0  0  0
  -22.7230  -29.4370   22.3590 C   0  0  0  0  0  0  0  0  0  0  0  0
  -21.3920  -29.2800   22.2580 N   0  0  0  0  0  0  0  0  0  0  0  0
  -23.4090  -28.7870   23.1530 O   0  0  0  0  0  0  0  0  0  0  0  0
  -20.8950  -29.8610   21.5970 H   0  0  0  0  0  0  0  0  0  0  0  0
  -18.0050  -28.1460   22.8500 C   0  0  0  0  0  0  0  0  0  0  0  0
  -20.5780  -28.3330   23.0260 C   0  0  0  0  0  3  0  0  0  0  0  0
  -20.6190  -26.9210   22.3950 C   0  0  0  0  0  2  0  0  0  0  0  0
  -19.4710  -26.6650   21.4140 C   0  0  0  0  0  2  0  0  0  0  0  0
  -18.1190  -26.8200   22.1170 C   0  0  0  0  0  2  0  0  0  0  0  0
  -19.1590  -28.8640   23.2630 C   0  0  0  0  0  0  0  0  0  0  0  0
  -18.9960  -30.1080   23.9100 C   0  0  0  0  0  3  0  0  0  0  0  0
  -17.7110  -30.6340   24.1480 C   0  0  0  0  0  3  0  0  0  0  0  0
  -16.5730  -29.9120   23.7490 C   0  0  0  0  0  3  0  0  0  0  0  0
  -16.7210  -28.6700   23.1060 C   0  0  0  0  0  3  0  0  0  0  0  0
  -25.7670  -32.5710   23.7120 C   0  0  0  0  0  3  0  0  0  0  0  0
  -26.2970  -31.8020   24.9840 C   0  0  1  0  0  0  0  0  0  0  0  0
  -25.2020  -31.5110   26.0370 C   0  0  0  0  0  1  0  0  0  0  0  0
  -26.9350  -30.4510   24.5850 C   0  0  0  0  0  1  0  0  0  0  0  0
  -27.4120  -32.6270   25.6670 C   0  0  0  0  0  1  0  0  0  0  0  0
  -25.4020  -33.9520   24.0610 N   0  0  0  0  0  0  0  0  0  0  0  0
  -25.7730  -35.0370   23.3680 C   0  0  0  0  0  0  0  0  0  0  0  0
  -26.5250  -34.9810   22.3910 O   0  0  0  0  0  0  0  0  0  0  0  0
  -24.7460  -34.0690   24.8200 H   0  0  0  0  0  0  0  0  0  0  0  0
  -24.0830  -36.8420   22.9030 C   0  0  0  0  0  1  0  0  0  0  0  0
  -25.2250  -36.4010   23.8330 C   0  0  0  0  0  3  0  0  0  0  0  0
  -27.2410  -37.2510   24.9470 C   0  0  0  0  0  1  0  0  0  0  0  0
  -26.2550  -37.4610   23.8910 N   0  0  0  0  0  0  0  0  0  0  0  0
  -25.8270  -38.3720   24.0340 H   0  0  0  0  0  0  0  0  0  0  0  0
  1 50  1  0
  1  2  1  0
  2  4  1  0
  3  1  2  0
  5  6  2  0
  5  8  1  0
  6  9  1  0
  8 10  2  0
  9  2  1  0
  9  7  2  0
 10  7  1  0
 10 20  1  0
 11  8  1  0
 12 20  1  0
 13 18  1  0
 14 15  1  0
 14 13  1  0
 16 15  1  0
 16 25  1  0
 16 17  1  0
 18 12  1  0
 18 17  1  0
 19 12  2  0
 20 21  1  0
 22 23  2  0
 23 24  1  0
 23 42  1  0
 24 27  1  0
 25 22  1  0
 25 26  1  0
 26 24  2  0
 27 28  1  0
 28 29  2  0
 30 33  1  0
 30 29  1  0
 31 30  2  0
 32 31  1  0
 32 27  2  0
 33 34  1  0
 34 35  1  0
 35 36  2  0
 37 36  1  0
 37 41  1  0
 38 37  2  0
 39 34  2  0
 39 38  1  0
 40 39  1  0
 42 43  1  0
 43 46  1  0
 43 45  1  0
 44 42  2  0
 47 48  1  0
 47 22  1  0
 49 47  1  0
 51 52  1  0
 51 50  2  0
 53 64  2  0
 54 52  1  0
 54 59  1  0
 55 63  1  0
 55 65  1  0
 56 62  1  0
 56 58  1  0
 57 63  1  0
 58 59  2  0
 58 57  1  0
 60 54  2  0
 61 60  1  0
 61 56  2  0
 62 55  1  0
 63 53  1  0
 65 67  2  0
 66 65  1  0
 68 66  1  0
 69 78  2  0
 69 74  1  0
 70 66  1  0
 70 74  1  0
 71 70  1  0
 72 73  1  0
 72 71  1  0
 73 69  1  0
 74 75  2  0
 75 76  1  0
 77 76  2  0
 78 77  1  0
 79 53  1  0
 79 84  1  0
 79 80  1  0
 80 83  1  1
 80 81  1  0
 82 80  1  0
 84 87  1  0
 85 89  1  0
 85 84  1  0
 86 85  2  0
 89 88  1  0
 89 91  1  0
 91 92  1  0
 91 90  1  0
M  ISO  4  12 100  20 100  51 101  52 101
M  END
>  <TORSDO>  (36) 
F 18

>  <SCORE>  (36) 
-13.945

>  <name>  (36) 
35

>  <ligand_id>  (36) 
35

>  <original_smiles>  (36) 
[H]C(Oc1c([H])c([H])c2c(c1[H])C([H])([H])N(C(=O)C([H])(N([H])C(=O)C([H])(N([H])C([H])([H])[H])C([H])([H])[H])C(C([H])([H])[H])(C([H])([H])[H])C([H])([H])[H])C([H])(C(=O)N([H])C1([H])c3c([H])c([H])c([H])c([H])c3C([H])([H])C([H])([H])C1([H])[H])C2([H])[H])=C([H])C(=O)N([H])c1c([H])c([H])c(C([H])([H])[H])c(N([H])C(=O)N2C([H])([H])C([H])([H])C([H])([H])C([H])(n3nc(-c4c([H])c([H])c(Oc5c([H])c([H])c(F)c([H])c5F)c([H])c4[H])c(C(=O)N([H])[H])c3N([H])[H])C2([H])[H])c1[H]

>  <smiles>  (36) 
[H]C(Oc1c([H])c([H])c2c(c1[H])C([H])([H])N(C(=O)C([H])(N([H])C(=O)C([H])(N([H])C([H])([H])[H])C([H])([H])[H])C(C([H])([H])[H])(C([H])([H])[H])C([H])([H])[H])C([H])(C(=O)N([H])C1([H])c3c([H])c([H])c([H])c([H])c3C([H])([H])C([H])([H])C1([H])[H])C2([H])[H])=C([H])C(=O)N([H])c1c([H])c([H])c(C([H])([H])[H])c(N([H])C(=O)N2C([H])([H])C([H])([H])C([H])([H])C([H])(n3nc(-c4c([H])c([H])c(Oc5c([H])c([H])c(F)c([H])c5F)c([H])c4[H])c(C(=O)N([H])[H])c3N([H])[H])C2([H])[H])c1[H]

$$$$
36:0:0
     RDKit          3D

 92101  0  0  1  0  0  0  0  0999 V2000
  -28.5330  -23.7840   20.4570 C   0  0  0  0  0  0  0  0  0  0  0  0
  -28.0270  -22.5530   21.0520 C   0  0  0  0  0  0  0  0  0  0  0  0
  -28.0250  -25.0730   20.6320 C   0  0  0  0  0  3  0  0  0  0  0  0
  -29.6300  -22.9410   19.7370 C   0  0  0  0  0  2  0  0  0  0  0  0
  -29.0100  -21.7640   20.4190 N   0  0  0  0  0  0  0  0  0  0  0  0
  -27.0890  -22.3590   21.7980 O   0  0  0  0  0  0  0  0  0  0  0  0
  -30.4850  -19.6790   19.6990 C   0  0  0  0  0  3  0  0  0  0  0  0
  -30.7350  -18.2510   19.6760 C   0  0  0  0  0  3  0  0  0  0  0  0
  -28.5160  -19.3290   20.9340 C   0  0  0  0  0  3  0  0  0  0  0  0
  -29.3590  -20.3110   20.3300 C   0  0  0  0  0  0  0  0  0  0  0  0
  -29.8530  -17.3120   20.2900 C   0  0  0  0  0  0  0  0  0  0  0  0
  -28.7360  -17.9170   20.9170 C   0  0  0  0  0  0  0  0  0  0  0  0
  -27.8300  -17.1090   21.5210 F   0  0  0  0  0  0  0  0  0  0  0  0
  -30.7090  -14.8220   19.7990 C   0  0  0  0  0  0  0  0  0  0  0  0
  -30.4900  -12.5900   18.6820 C   0  0  0  0  0  2  0  0  0  0  0  0
  -29.4410  -12.7090   17.5510 C   0  0  0  0  0  2  0  0  0  0  0  0
  -28.0130  -12.5000   18.0940 C   0  0  0  0  0  2  0  0  0  0  0  0
  -27.7410  -13.3180   19.3850 C   0  0  0  0  0  3  0  0  0  0  0  0
  -28.8920  -13.1530   20.4030 C   0  0  0  0  0  2  0  0  0  0  0  0
  -30.1370  -13.5690   19.7350 N   0  0  0  0  0  0  0  0  0  0  0  0
  -31.8230  -15.0270   19.3060 O   0  0  0  0  0  0  0  0  0  0  0  0
  -29.9140  -15.8270   20.3180 N   0  0  0  0  0  0  0  0  0  0  0  0
  -29.1070  -15.4380   20.7840 H   0  0  0  0  0  0  0  0  0  0  0  0
  -25.4210  -13.8610   20.3420 C   0  0  0  0  0  0  0  0  0  0  0  0
  -24.3900  -13.0630   20.7560 C   0  0  0  0  0  0  0  0  0  0  0  0
  -24.8450  -11.7180   20.6050 C   0  0  0  0  0  0  0  0  0  0  0  0
  -26.4410  -13.0000   19.9670 N   0  0  0  0  0  0  0  0  0  0  0  0
  -26.1050  -11.7030   20.1840 N   0  0  0  0  0  0  0  0  0  0  0  0
  -24.1350  -10.4440   20.7810 C   0  0  0  0  0  0  0  0  0  0  0  0
  -24.6290   -9.4360   21.6360 C   0  0  0  0  0  3  0  0  0  0  0  0
  -23.9190   -8.2270   21.8030 C   0  0  0  0  0  3  0  0  0  0  0  0
  -22.7000   -8.0200   21.1160 C   0  0  0  0  0  0  0  0  0  0  0  0
  -22.2240   -9.0190   20.2470 C   0  0  0  0  0  3  0  0  0  0  0  0
  -22.9350  -10.2170   20.0780 C   0  0  0  0  0  3  0  0  0  0  0  0
  -21.9550   -6.8680   21.1960 O   0  0  0  0  0  0  0  0  0  0  0  0
  -21.9620   -6.0830   22.3210 C   0  0  0  0  0  0  0  0  0  0  0  0
  -21.6090   -6.5950   23.5890 C   0  0  0  0  0  3  0  0  0  0  0  0
  -21.5640   -5.7370   24.7070 C   0  0  0  0  0  3  0  0  0  0  0  0
  -21.8610   -4.3690   24.5580 C   0  0  0  0  0  0  0  0  0  0  0  0
  -22.2070   -3.8580   23.2950 C   0  0  0  0  0  3  0  0  0  0  0  0
  -22.2550   -4.7110   22.1790 C   0  0  0  0  0  0  0  0  0  0  0  0
  -22.5680   -4.2080   20.9610 F   0  0  0  0  0  0  0  0  0  0  0  0
  -21.8100   -3.5440   25.6290 F   0  0  0  0  0  0  0  0  0  0  0  0
  -23.0220  -13.5190   21.1780 C   0  0  0  0  0  0  0  0  0  0  0  0
  -22.3790  -12.7800   22.0740 N   0  0  0  0  0  0  0  0  0  0  0  0
  -22.5360  -14.5640   20.7470 O   0  0  0  0  0  0  0  0  0  0  0  0
  -22.7870  -11.9330   22.4420 H   0  0  0  0  0  0  0  0  0  0  0  0
  -21.4660  -13.0660   22.4000 H   0  0  0  0  0  0  0  0  0  0  0  0
  -25.5710  -15.2400   20.2320 N   0  0  0  0  0  0  0  0  0  0  0  0
  -24.8230  -15.8840   20.4630 H   0  0  0  0  0  0  0  0  0  0  0  0
  -26.4030  -15.7070   19.8970 H   0  0  0  0  0  0  0  0  0  0  0  0
  -28.3510  -26.3770   20.1520 O   0  0  0  0  0  0  0  0  0  0  0  0
  -24.6480  -31.8910   23.1380 C   0  0  0  0  0  0  0  0  0  0  0  0
  -27.2830  -27.3060   20.1010 C   0  0  0  0  0  0  0  0  0  0  0  0
  -23.4500  -30.4690   21.5160 C   0  0  0  0  0  3  0  0  0  0  0  0
  -24.9100  -28.9240   20.0870 C   0  0  0  0  0  0  0  0  0  0  0  0
  -25.9890  -30.8020   21.3190 C   0  0  0  0  0  2  0  0  0  0  0  0
  -26.0810  -29.4170   20.6780 C   0  0  0  0  0  0  0  0  0  0  0  0
  -27.2720  -28.6200   20.6780 C   0  0  0  0  0  3  0  0  0  0  0  0
  -26.0930  -26.8820   19.4710 C   0  0  0  0  0  3  0  0  0  0  0  0
  -24.9210  -27.6620   19.4710 C   0  0  0  0  0  3  0  0  0  0  0  0
  -23.6640  -29.7870   20.1400 C   0  0  0  0  0  2  0  0  0  0  0  0
  -24.7150  -31.0730   22.0470 N   0  0  0  0  0  0  0  0  0  0  0  0
  -23.5650  -32.1620   23.6770 O   0  0  0  0  0  0  0  0  0  0  0  0
  -22.8020  -29.4540   22.4890 C   0  0  0  0  0  0  0  0  0  0  0  0
  -21.4720  -29.2780   22.3860 N   0  0  0  0  0  0  0  0  0  0  0  0
  -23.4930  -28.8270   23.2950 O   0  0  0  0  0  0  0  0  0  0  0  0
  -20.9720  -29.8360   21.7080 H   0  0  0  0  0  0  0  0  0  0  0  0
  -18.1030  -28.0850   22.9540 C   0  0  0  0  0  0  0  0  0  0  0  0
  -20.6670  -28.3410   23.1710 C   0  0  0  0  0  3  0  0  0  0  0  0
  -20.7540  -26.9090   22.5920 C   0  0  0  0  0  2  0  0  0  0  0  0
  -19.6310  -26.5910   21.6000 C   0  0  0  0  0  2  0  0  0  0  0  0
  -18.2630  -26.7370   22.2720 C   0  0  0  0  0  2  0  0  0  0  0  0
  -19.2320  -28.8450   23.3620 C   0  0  0  0  0  0  0  0  0  0  0  0
  -19.0260  -30.1070   23.9620 C   0  0  0  0  0  3  0  0  0  0  0  0
  -17.7260  -30.6100   24.1560 C   0  0  0  0  0  3  0  0  0  0  0  0
  -16.6120  -29.8470   23.7630 C   0  0  0  0  0  3  0  0  0  0  0  0
  -16.8020  -28.5870   23.1670 C   0  0  0  0  0  3  0  0  0  0  0  0
  -25.9270  -32.5430   23.7480 C   0  0  0  0  0  3  0  0  0  0  0  0
  -25.6030  -33.9380   24.0780 N   0  0  0  0  0  0  0  0  0  0  0  0
  -25.9140  -34.9940   23.3150 C   0  0  0  0  0  0  0  0  0  0  0  0
  -26.5760  -34.8980   22.2780 O   0  0  0  0  0  0  0  0  0  0  0  0
  -25.0120  -34.0850   24.8840 H   0  0  0  0  0  0  0  0  0  0  0  0
  -24.1600  -36.7660   22.9800 C   0  0  0  0  0  1  0  0  0  0  0  0
  -25.4160  -36.3770   23.7760 C   0  0  0  0  0  3  0  0  0  0  0  0
  -27.5510  -37.2890   24.5790 C   0  0  0  0  0  1  0  0  0  0  0  0
  -26.4340  -37.4430   23.6500 N   0  0  0  0  0  0  0  0  0  0  0  0
  -26.0190  -38.3590   23.8010 H   0  0  0  0  0  0  0  0  0  0  0  0
  -26.4640  -31.7810   25.0230 C   0  0  1  0  0  0  0  0  0  0  0  0
  -25.3820  -31.5370   26.1020 C   0  0  0  0  0  1  0  0  0  0  0  0
  -27.0590  -30.4090   24.6340 C   0  0  0  0  0  1  0  0  0  0  0  0
  -27.6100  -32.5930   25.6730 C   0  0  0  0  0  1  0  0  0  0  0  0
  1  3  2  0
  1  2  1  0
  2  6  2  0
  4  5  1  0
  4  1  1  0
  5  2  1  0
  7 10  1  0
  8  7  2  0
  8 11  1  0
 10  5  1  0
 10  9  2  0
 11 22  1  0
 11 12  2  0
 12  9  1  0
 12 13  1  0
 14 22  1  0
 15 20  1  0
 16 17  1  0
 16 15  1  0
 18 17  1  0
 18 27  1  0
 18 19  1  0
 20 14  1  0
 20 19  1  0
 21 14  2  0
 22 23  1  0
 24 25  2  0
 25 44  1  0
 26 25  1  0
 26 29  1  0
 27 28  1  0
 27 24  1  0
 28 26  2  0
 29 30  1  0
 30 31  2  0
 32 35  1  0
 32 31  1  0
 33 32  2  0
 34 33  1  0
 34 29  2  0
 35 36  1  0
 36 37  1  0
 37 38  2  0
 39 38  1  0
 39 43  1  0
 40 39  2  0
 41 36  2  0
 41 40  1  0
 42 41  1  0
 44 45  1  0
 45 48  1  0
 45 47  1  0
 46 44  2  0
 49 24  1  0
 49 50  1  0
 51 49  1  0
 52  3  1  0
 53 64  2  0
 54 52  1  0
 54 59  1  0
 55 63  1  0
 55 65  1  0
 56 62  1  0
 56 58  1  0
 57 63  1  0
 58 57  1  0
 59 58  2  0
 60 54  2  0
 61 60  1  0
 61 56  2  0
 62 55  1  0
 63 53  1  0
 65 67  2  0
 66 65  1  0
 68 66  1  0
 69 78  2  0
 69 74  1  0
 70 66  1  0
 70 74  1  0
 71 70  1  0
 72 73  1  0
 72 71  1  0
 73 69  1  0
 74 75  2  0
 75 76  1  0
 77 76  2  0
 78 77  1  0
 79 53  1  0
 79 80  1  0
 79 89  1  0
 80 83  1  0
 81 85  1  0
 81 80  1  0
 82 81  2  0
 85 84  1  0
 87 85  1  0
 87 88  1  0
 87 86  1  0
 89 92  1  1
 89 90  1  0
 91 89  1  0
M  ISO  4   3 101  14 100  22 100  52 101
M  END
>  <TORSDO>  (37) 
F 17

>  <SCORE>  (37) 
-12.991

>  <name>  (37) 
36

>  <ligand_id>  (37) 
36

>  <original_smiles>  (37) 
[H]C(Oc1c([H])c([H])c2c(c1[H])C([H])([H])N(C(=O)C([H])(N([H])C(=O)C([H])(N([H])C([H])([H])[H])C([H])([H])[H])C(C([H])([H])[H])(C([H])([H])[H])C([H])([H])[H])C([H])(C(=O)N([H])C1([H])c3c([H])c([H])c([H])c([H])c3C([H])([H])C([H])([H])C1([H])[H])C2([H])[H])=C1C(=O)N(c2c([H])c([H])c(N([H])C(=O)N3C([H])([H])C([H])([H])C([H])([H])C([H])(n4nc(-c5c([H])c([H])c(Oc6c([H])c([H])c(F)c([H])c6F)c([H])c5[H])c(C(=O)N([H])[H])c4N([H])[H])C3([H])[H])c(F)c2[H])C1([H])[H]

>  <smiles>  (37) 
[H]C(Oc1c([H])c([H])c2c(c1[H])C([H])([H])N(C(=O)C([H])(N([H])C(=O)C([H])(N([H])C([H])([H])[H])C([H])([H])[H])C(C([H])([H])[H])(C([H])([H])[H])C([H])([H])[H])C([H])(C(=O)N([H])C1([H])c3c([H])c([H])c([H])c([H])c3C([H])([H])C([H])([H])C1([H])[H])C2([H])[H])=C1C(=O)N(c2c([H])c([H])c(N([H])C(=O)N3C([H])([H])C([H])([H])C([H])([H])C([H])(n4nc(-c5c([H])c([H])c(Oc6c([H])c([H])c(F)c([H])c6F)c([H])c5[H])c(C(=O)N([H])[H])c4N([H])[H])C3([H])[H])c(F)c2[H])C1([H])[H]

$$$$
37:0:0
     RDKit          3D

106116  0  0  1  0  0  0  0  0999 V2000
  -28.5630  -23.4510   18.7050 C   0  0  0  0  0  3  0  0  0  0  0  0
  -26.8280  -23.3760   17.0040 C   0  0  0  0  0  3  0  0  0  0  0  0
  -27.7790  -22.7110   17.7980 C   0  0  0  0  0  0  0  0  0  0  0  0
  -28.4500  -24.8540   18.8310 C   0  0  0  0  0  0  0  0  0  0  0  0
  -27.4670  -25.5140   18.0270 C   0  0  0  0  0  0  0  0  0  0  0  0
  -26.6820  -24.7670   17.1190 C   0  0  0  0  0  0  0  0  0  0  0  0
  -25.7570  -25.4020   16.3560 F   0  0  0  0  0  0  0  0  0  0  0  0
  -27.1660  -20.3800   17.0740 C   0  0  0  0  0  3  0  0  0  0  0  0
  -27.9620  -21.2510   17.7040 C   0  0  0  0  0  0  0  0  0  0  0  0
  -27.7640  -19.0710   17.1330 C   0  0  0  0  0  0  0  0  0  0  0  0
  -29.1270  -20.5150   18.1460 C   0  0  0  0  0  0  0  0  0  0  0  0
  -28.9250  -19.2430   17.7820 N   0  0  0  0  0  0  0  0  0  0  0  0
  -27.3210  -18.0090   16.6820 O   0  0  0  0  0  0  0  0  0  0  0  0
  -30.1330  -20.9500   18.7210 O   0  0  0  0  0  0  0  0  0  0  0  0
  -32.0280  -17.2530   17.4390 C   0  0  0  0  0  3  0  0  0  0  0  0
  -30.9680  -18.1080   17.1180 C   0  0  0  0  0  3  0  0  0  0  0  0
  -32.0130  -16.5470   18.6520 C   0  0  0  0  0  3  0  0  0  0  0  0
  -29.8970  -18.2430   18.0210 C   0  0  0  0  0  0  0  0  0  0  0  0
  -30.9230  -16.6280   19.5690 C   0  0  0  0  0  0  0  0  0  0  0  0
  -29.8520  -17.4950   19.2200 C   0  0  0  0  0  0  0  0  0  0  0  0
  -28.7670  -17.6350   20.0210 F   0  0  0  0  0  0  0  0  0  0  0  0
  -31.5610  -14.6860   20.8950 C   0  0  0  0  0  0  0  0  0  0  0  0
  -31.1600  -12.8150   19.3640 C   0  0  0  0  0  2  0  0  0  0  0  0
  -30.2800  -13.2830   18.1850 C   0  0  0  0  0  2  0  0  0  0  0  0
  -28.7830  -13.2260   18.5430 C   0  0  0  0  0  2  0  0  0  0  0  0
  -28.4470  -13.8410   19.9290 C   0  0  0  0  0  3  0  0  0  0  0  0
  -29.4370  -13.3540   21.0090 C   0  0  0  0  0  2  0  0  0  0  0  0
  -30.7980  -13.6280   20.5260 N   0  0  0  0  0  0  0  0  0  0  0  0
  -32.7910  -14.6970   20.8340 O   0  0  0  0  0  0  0  0  0  0  0  0
  -30.3920  -16.4400   22.0510 C   0  0  0  0  0  1  0  0  0  0  0  0
  -30.9170  -15.8680   20.8050 N   0  0  0  0  0  0  0  0  0  0  0  0
  -26.0030  -14.4680   20.4340 C   0  0  0  0  0  0  0  0  0  0  0  0
  -24.9010  -13.7000   20.7010 C   0  0  0  0  0  0  0  0  0  0  0  0
  -25.3560  -12.3460   20.7120 C   0  0  0  0  0  0  0  0  0  0  0  0
  -27.0590  -13.5800   20.2990 N   0  0  0  0  0  0  0  0  0  0  0  0
  -26.6680  -12.3010   20.5290 N   0  0  0  0  0  0  0  0  0  0  0  0
  -24.6120  -11.0850   20.8290 C   0  0  0  0  0  0  0  0  0  0  0  0
  -25.0020  -10.0800   21.7410 C   0  0  0  0  0  3  0  0  0  0  0  0
  -24.2600   -8.8840   21.8480 C   0  0  0  0  0  3  0  0  0  0  0  0
  -23.1130   -8.6860   21.0430 C   0  0  0  0  0  0  0  0  0  0  0  0
  -22.7420   -9.6800   20.1210 C   0  0  0  0  0  3  0  0  0  0  0  0
  -23.4850  -10.8680   20.0110 C   0  0  0  0  0  3  0  0  0  0  0  0
  -22.3460   -7.5460   21.0620 O   0  0  0  0  0  0  0  0  0  0  0  0
  -22.0910   -6.8690   22.2260 C   0  0  0  0  0  0  0  0  0  0  0  0
  -21.5250   -7.5090   23.3500 C   0  0  0  0  0  3  0  0  0  0  0  0
  -21.2160   -6.7600   24.5050 C   0  0  0  0  0  3  0  0  0  0  0  0
  -21.4610   -5.3740   24.5330 C   0  0  0  0  0  0  0  0  0  0  0  0
  -22.0190   -4.7350   23.4120 C   0  0  0  0  0  3  0  0  0  0  0  0
  -22.3300   -5.4800   22.2610 C   0  0  0  0  0  0  0  0  0  0  0  0
  -22.8490   -4.8560   21.1770 F   0  0  0  0  0  0  0  0  0  0  0  0
  -21.1570   -4.6540   25.6380 F   0  0  0  0  0  0  0  0  0  0  0  0
  -23.4860  -14.1820   20.8420 C   0  0  0  0  0  0  0  0  0  0  0  0
  -22.6970  -13.5240   21.6840 N   0  0  0  0  0  0  0  0  0  0  0  0
  -23.0860  -15.1780   20.2400 O   0  0  0  0  0  0  0  0  0  0  0  0
  -23.0310  -12.7190   22.1930 H   0  0  0  0  0  0  0  0  0  0  0  0
  -21.7450  -13.8320   21.8230 H   0  0  0  0  0  0  0  0  0  0  0  0
  -26.1900  -15.8380   20.2740 N   0  0  0  0  0  0  0  0  0  0  0  0
  -25.4190  -16.4940   20.3180 H   0  0  0  0  0  0  0  0  0  0  0  0
  -27.0720  -16.2800   20.0450 H   0  0  0  0  0  0  0  0  0  0  0  0
  -27.1710  -26.8780   18.0720 N   0  0  0  0  0  0  0  0  0  0  0  0
  -27.0630  -27.3020   18.9850 H   0  0  0  0  0  0  0  0  0  0  0  0
  -26.3880  -27.1290   17.4760 H   0  0  0  0  0  0  0  0  0  0  0  0
  -29.3710  -25.4640   19.8560 C   0  0  0  0  0  0  0  0  0  0  0  0
  -29.7320  -24.8400   20.8630 O   0  0  0  0  0  0  0  0  0  0  0  0
  -29.9270  -26.8850   19.6790 C   0  0  0  0  0  2  0  0  0  0  0  0
  -29.5860  -27.7020   20.8020 O   0  0  0  0  0  0  0  0  0  0  0  0
  -25.0480  -32.0320   24.1240 C   0  0  0  0  0  0  0  0  0  0  0  0
  -28.3140  -28.2240   20.8190 C   0  0  0  0  0  0  0  0  0  0  0  0
  -24.0760  -30.6430   22.3240 C   0  0  0  0  0  3  0  0  0  0  0  0
  -25.7500  -29.4080   20.8560 C   0  0  0  0  0  0  0  0  0  0  0  0
  -26.5430  -31.3070   22.2730 C   0  0  0  0  0  2  0  0  0  0  0  0
  -26.8120  -30.0110   21.5400 C   0  0  0  0  0  0  0  0  0  0  0  0
  -28.0910  -29.4180   21.5340 C   0  0  0  0  0  3  0  0  0  0  0  0
  -27.2240  -27.6110   20.1560 C   0  0  0  0  0  3  0  0  0  0  0  0
  -25.9480  -28.1990   20.1700 C   0  0  0  0  0  3  0  0  0  0  0  0
  -24.4130  -30.1080   20.9070 C   0  0  0  0  0  2  0  0  0  0  0  0
  -25.2360  -31.3380   22.9680 N   0  0  0  0  0  0  0  0  0  0  0  0
  -23.9240  -32.1360   24.6330 O   0  0  0  0  0  0  0  0  0  0  0  0
  -23.5160  -29.4770   23.1700 C   0  0  0  0  0  0  0  0  0  0  0  0
  -22.4340  -28.8490   22.6790 N   0  0  0  0  0  0  0  0  0  0  0  0
  -24.0650  -29.1350   24.2200 O   0  0  0  0  0  0  0  0  0  0  0  0
  -22.0380  -29.1930   21.8160 H   0  0  0  0  0  0  0  0  0  0  0  0
  -19.8110  -26.4200   22.1690 C   0  0  0  0  0  0  0  0  0  0  0  0
  -21.7580  -27.7030   23.2850 C   0  0  0  0  0  3  0  0  0  0  0  0
  -22.5820  -26.4080   23.1010 C   0  0  0  0  0  2  0  0  0  0  0  0
  -22.1890  -25.6150   21.8500 C   0  0  0  0  0  2  0  0  0  0  0  0
  -20.7090  -25.2240   21.9060 C   0  0  0  0  0  2  0  0  0  0  0  0
  -20.3070  -27.5910   22.8030 C   0  0  0  0  0  0  0  0  0  0  0  0
  -19.4390  -28.6870   22.9920 C   0  0  0  0  0  3  0  0  0  0  0  0
  -18.1000  -28.6290   22.5610 C   0  0  0  0  0  3  0  0  0  0  0  0
  -17.6090  -27.4620   21.9500 C   0  0  0  0  0  3  0  0  0  0  0  0
  -18.4630  -26.3600   21.7590 C   0  0  0  0  0  3  0  0  0  0  0  0
  -26.2300  -32.7500   24.8490 C   0  0  0  0  0  3  0  0  0  0  0  0
  -25.7850  -34.1110   25.1750 N   0  0  0  0  0  0  0  0  0  0  0  0
  -26.0750  -35.1990   24.4500 C   0  0  0  0  0  0  0  0  0  0  0  0
  -26.8160  -35.1700   23.4620 O   0  0  0  0  0  0  0  0  0  0  0  0
  -25.1280  -34.2020   25.9360 H   0  0  0  0  0  0  0  0  0  0  0  0
  -24.2080  -36.8280   24.0250 C   0  0  0  0  0  1  0  0  0  0  0  0
  -25.4430  -36.5330   24.8890 C   0  0  0  0  0  3  0  0  0  0  0  0
  -27.4560  -37.5940   25.8130 C   0  0  0  0  0  1  0  0  0  0  0  0
  -26.3800  -37.6760   24.8270 N   0  0  0  0  0  0  0  0  0  0  0  0
  -25.8870  -38.5530   24.9710 H   0  0  0  0  0  0  0  0  0  0  0  0
  -26.7190  -31.9950   26.1460 C   0  0  1  0  0  0  0  0  0  0  0  0
  -25.5630  -31.4810   27.0370 C   0  0  0  0  0  1  0  0  0  0  0  0
  -27.6000  -30.7810   25.7700 C   0  0  0  0  0  1  0  0  0  0  0  0
  -27.6030  -32.9330   27.0000 C   0  0  0  0  0  1  0  0  0  0  0  0
  1  4  1  0
  2  6  2  0
  2  3  1  0
  3  1  2  0
  4 63  1  0
  5 60  1  0
  5  4  2  0
  6  5  1  0
  7  6  1  0
  8 10  1  0
  8  9  2  0
  9  3  1  0
  9 11  1  0
 10 12  1  0
 11 14  2  0
 12 18  1  0
 12 11  1  0
 13 10  2  0
 15 17  1  0
 16 15  2  0
 16 18  1  0
 17 19  2  0
 18 20  2  0
 19 31  1  0
 20 19  1  0
 20 21  1  0
 23 28  1  0
 24 25  1  0
 24 23  1  0
 26 25  1  0
 26 35  1  0
 26 27  1  0
 28 22  1  0
 28 27  1  0
 29 22  2  0
 31 22  1  0
 31 30  1  0
 32 33  2  0
 33 34  1  0
 33 52  1  0
 34 37  1  0
 35 32  1  0
 35 36  1  0
 36 34  2  0
 37 38  1  0
 38 39  2  0
 40 43  1  0
 40 39  1  0
 41 40  2  0
 42 41  1  0
 42 37  2  0
 43 44  1  0
 44 49  2  0
 44 45  1  0
 45 46  2  0
 46 47  1  0
 47 51  1  0
 48 47  2  0
 49 48  1  0
 50 49  1  0
 52 53  1  0
 53 56  1  0
 53 55  1  0
 54 52  2  0
 57 58  1  0
 57 32  1  0
 59 57  1  0
 60 61  1  0
 62 60  1  0
 63 64  2  0
 65 63  1  0
 65 66  1  0
 66 68  1  0
 67 78  2  0
 68 73  1  0
 69 77  1  0
 69 79  1  0
 70 76  1  0
 70 72  1  0
 71 77  1  0
 72 71  1  0
 73 72  2  0
 74 75  1  0
 74 68  2  0
 75 70  2  0
 76 69  1  0
 77 67  1  0
 79 81  2  0
 80 79  1  0
 82 80  1  0
 83 88  1  0
 84 80  1  0
 85 84  1  0
 86 87  1  0
 86 85  1  0
 87 83  1  0
 88 89  2  0
 88 84  1  0
 90 89  1  0
 91 90  2  0
 92 91  1  0
 92 83  2  0
 93 67  1  0
 93 94  1  0
 93103  1  0
 94 97  1  0
 95 99  1  0
 95 94  1  0
 96 95  2  0
 99 98  1  0
101 99  1  0
101102  1  0
101100  1  0
103106  1  1
103104  1  0
105103  1  0
M  ISO  4  22 100  31 100  65 101  66 101
M  END
>  <TORSDO>  (38) 
F 21

>  <SCORE>  (38) 
-9.392

>  <name>  (38) 
37

>  <ligand_id>  (38) 
37

>  <original_smiles>  (38) 
[H]C1=C(c2c([H])c(F)c(N([H])[H])c(C(=O)C([H])([H])Oc3c([H])c([H])c4c(c3[H])C([H])([H])N(C(=O)C([H])(N([H])C(=O)C([H])(N([H])C([H])([H])[H])C([H])([H])[H])C(C([H])([H])[H])(C([H])([H])[H])C([H])([H])[H])C([H])(C(=O)N([H])C3([H])c5c([H])c([H])c([H])c([H])c5C([H])([H])C([H])([H])C3([H])[H])C4([H])[H])c2[H])C(=O)N(c2c([H])c([H])c([H])c(N(C(=O)N3C([H])([H])C([H])([H])C([H])([H])C([H])(n4nc(-c5c([H])c([H])c(Oc6c([H])c([H])c(F)c([H])c6F)c([H])c5[H])c(C(=O)N([H])[H])c4N([H])[H])C3([H])[H])C([H])([H])[H])c2F)C1=O

>  <smiles>  (38) 
[H]C1=C(c2c([H])c(F)c(N([H])[H])c(C(=O)C([H])([H])Oc3c([H])c([H])c4c(c3[H])C([H])([H])N(C(=O)C([H])(N([H])C(=O)C([H])(N([H])C([H])([H])[H])C([H])([H])[H])C(C([H])([H])[H])(C([H])([H])[H])C([H])([H])[H])C([H])(C(=O)N([H])C3([H])c5c([H])c([H])c([H])c([H])c5C([H])([H])C([H])([H])C3([H])[H])C4([H])[H])c2[H])C(=O)N(c2c([H])c([H])c([H])c(N(C(=O)N3C([H])([H])C([H])([H])C([H])([H])C([H])(n4nc(-c5c([H])c([H])c(Oc6c([H])c([H])c(F)c([H])c6F)c([H])c5[H])c(C(=O)N([H])[H])c4N([H])[H])C3([H])[H])C([H])([H])[H])c2F)C1=O

$$$$
38:0:0
     RDKit          3D

 95105  0  0  1  0  0  0  0  0999 V2000
  -28.3800  -19.3420   19.8950 C   0  0  0  0  0  3  0  0  0  0  0  0
  -30.6930  -18.2080   20.9280 C   0  0  0  0  0  3  0  0  0  0  0  0
  -29.3360  -20.2920   20.3640 C   0  0  0  0  0  0  0  0  0  0  0  0
  -28.5530  -17.9190   19.9260 C   0  0  0  0  0  0  0  0  0  0  0  0
  -29.7060  -17.2920   20.4680 C   0  0  0  0  0  0  0  0  0  0  0  0
  -30.5120  -19.6390   20.8700 C   0  0  0  0  0  0  0  0  0  0  0  0
  -31.5140  -20.4150   21.3480 F   0  0  0  0  0  0  0  0  0  0  0  0
  -30.5430  -14.7650   20.4000 C   0  0  0  0  0  0  0  0  0  0  0  0
  -30.3800  -12.4960   19.3600 C   0  0  0  0  0  2  0  0  0  0  0  0
  -29.4240  -12.5900   18.1480 C   0  0  0  0  0  2  0  0  0  0  0  0
  -27.9560  -12.4140   18.5850 C   0  0  0  0  0  2  0  0  0  0  0  0
  -27.5910  -13.2800   19.8210 C   0  0  0  0  0  3  0  0  0  0  0  0
  -28.6600  -13.1510   20.9290 C   0  0  0  0  0  2  0  0  0  0  0  0
  -29.9560  -13.5200   20.3390 N   0  0  0  0  0  0  0  0  0  0  0  0
  -31.7250  -14.9220   20.0770 O   0  0  0  0  0  0  0  0  0  0  0  0
  -29.6790  -15.8170   20.6260 N   0  0  0  0  0  0  0  0  0  0  0  0
  -28.7340  -15.4880   20.7520 H   0  0  0  0  0  0  0  0  0  0  0  0
  -25.2020  -13.8720   20.5580 C   0  0  0  0  0  0  0  0  0  0  0  0
  -24.1370  -13.0960   20.9210 C   0  0  0  0  0  0  0  0  0  0  0  0
  -24.6000  -11.7450   20.8830 C   0  0  0  0  0  0  0  0  0  0  0  0
  -26.2470  -12.9940   20.3130 N   0  0  0  0  0  0  0  0  0  0  0  0
  -25.8910  -11.7090   20.5720 N   0  0  0  0  0  0  0  0  0  0  0  0
  -23.8750  -10.4830   21.0690 C   0  0  0  0  0  0  0  0  0  0  0  0
  -24.3110   -9.5100   21.9950 C   0  0  0  0  0  3  0  0  0  0  0  0
  -23.5840   -8.3130   22.1690 C   0  0  0  0  0  3  0  0  0  0  0  0
  -22.4080   -8.0800   21.4170 C   0  0  0  0  0  0  0  0  0  0  0  0
  -21.9910   -9.0420   20.4810 C   0  0  0  0  0  3  0  0  0  0  0  0
  -22.7180  -10.2320   20.3050 C   0  0  0  0  0  3  0  0  0  0  0  0
  -21.6520   -6.9360   21.5020 O   0  0  0  0  0  0  0  0  0  0  0  0
  -21.6070   -6.1860   22.6500 C   0  0  0  0  0  0  0  0  0  0  0  0
  -21.1750   -6.7320   23.8790 C   0  0  0  0  0  3  0  0  0  0  0  0
  -21.0780   -5.9080   25.0190 C   0  0  0  0  0  3  0  0  0  0  0  0
  -21.4020   -4.5410   24.9310 C   0  0  0  0  0  0  0  0  0  0  0  0
  -21.8290   -3.9960   23.7070 C   0  0  0  0  0  3  0  0  0  0  0  0
  -21.9280   -4.8160   22.5690 C   0  0  0  0  0  0  0  0  0  0  0  0
  -22.3180   -4.2820   21.3870 F   0  0  0  0  0  0  0  0  0  0  0  0
  -21.3020   -3.7480   26.0230 F   0  0  0  0  0  0  0  0  0  0  0  0
  -22.7400  -13.5720   21.1970 C   0  0  0  0  0  0  0  0  0  0  0  0
  -22.0120  -12.8710   22.0590 N   0  0  0  0  0  0  0  0  0  0  0  0
  -22.3020  -14.6020   20.6840 O   0  0  0  0  0  0  0  0  0  0  0  0
  -22.3800  -12.0380   22.4950 H   0  0  0  0  0  0  0  0  0  0  0  0
  -21.0750  -13.1720   22.2870 H   0  0  0  0  0  0  0  0  0  0  0  0
  -25.3520  -15.2460   20.3980 N   0  0  0  0  0  0  0  0  0  0  0  0
  -24.5710  -15.8750   20.5400 H   0  0  0  0  0  0  0  0  0  0  0  0
  -26.1950  -15.7460   20.1130 H   0  0  0  0  0  0  0  0  0  0  0  0
  -28.0280  -22.6130   19.9200 C   0  0  0  0  0  3  0  0  0  0  0  0
  -28.7570  -23.7540   20.0100 C   0  0  0  0  0  3  0  0  0  0  0  0
  -29.8020  -22.9640   20.3590 C   0  0  1  0  0  0  0  0  0  0  0  0
  -29.0880  -21.7610   20.2900 N   0  0  0  0  0  0  0  0  0  0  0  0
  -30.9730  -23.2730   20.5510 O   0  0  0  0  0  1  0  0  0  0  0  0
  -28.5670  -25.2510   19.4850 C   0  0  0  0  0  2  0  0  0  0  0  0
  -28.3440  -26.4400   20.3640 O   0  0  0  0  0  0  0  0  0  0  0  0
  -24.5630  -31.8990   23.2600 C   0  0  0  0  0  0  0  0  0  0  0  0
  -27.2240  -27.2990   20.2510 C   0  0  0  0  0  0  0  0  0  0  0  0
  -23.3860  -30.4970   21.6040 C   0  0  0  0  0  3  0  0  0  0  0  0
  -24.8590  -28.9370   20.2020 C   0  0  0  0  0  0  0  0  0  0  0  0
  -25.9310  -30.8020   21.4650 C   0  0  0  0  0  2  0  0  0  0  0  0
  -26.0190  -29.4190   20.8200 C   0  0  0  0  0  0  0  0  0  0  0  0
  -27.1980  -28.6090   20.8390 C   0  0  0  0  0  3  0  0  0  0  0  0
  -26.0320  -26.8740   19.6230 C   0  0  0  0  0  3  0  0  0  0  0  0
  -24.8700  -27.6710   19.5970 C   0  0  0  0  0  3  0  0  0  0  0  0
  -23.6230  -29.8170   20.2290 C   0  0  0  0  0  2  0  0  0  0  0  0
  -24.6460  -31.0840   22.1660 N   0  0  0  0  0  0  0  0  0  0  0  0
  -23.4720  -32.1810   23.7750 O   0  0  0  0  0  0  0  0  0  0  0  0
  -22.7040  -29.4860   22.5570 C   0  0  0  0  0  0  0  0  0  0  0  0
  -21.3760  -29.3250   22.4200 N   0  0  0  0  0  0  0  0  0  0  0  0
  -23.3680  -28.8510   23.3790 O   0  0  0  0  0  0  0  0  0  0  0  0
  -20.8990  -29.8890   21.7310 H   0  0  0  0  0  0  0  0  0  0  0  0
  -17.9760  -28.1920   22.9210 C   0  0  0  0  0  0  0  0  0  0  0  0
  -20.5410  -28.3950   23.1820 C   0  0  0  0  0  3  0  0  0  0  0  0
  -20.6110  -26.9690   22.5870 C   0  0  0  0  0  2  0  0  0  0  0  0
  -19.4970  -26.6830   21.5730 C   0  0  0  0  0  2  0  0  0  0  0  0
  -18.1220  -26.8490   22.2260 C   0  0  0  0  0  2  0  0  0  0  0  0
  -19.1120  -28.9250   23.3560 C   0  0  0  0  0  0  0  0  0  0  0  0
  -18.9230  -30.1830   23.9670 C   0  0  0  0  0  3  0  0  0  0  0  0
  -17.6280  -30.7080   24.1470 C   0  0  0  0  0  3  0  0  0  0  0  0
  -16.5080  -29.9720   23.7280 C   0  0  0  0  0  3  0  0  0  0  0  0
  -16.6820  -28.7150   23.1210 C   0  0  0  0  0  3  0  0  0  0  0  0
  -25.8360  -32.5330   23.9020 C   0  0  0  0  0  3  0  0  0  0  0  0
  -26.3170  -31.7770   25.2020 C   0  0  1  0  0  0  0  0  0  0  0  0
  -25.1960  -31.5620   26.2470 C   0  0  0  0  0  1  0  0  0  0  0  0
  -26.9010  -30.3920   24.8460 C   0  0  0  0  0  1  0  0  0  0  0  0
  -27.4550  -32.5760   25.8800 C   0  0  0  0  0  1  0  0  0  0  0  0
  -25.5280  -33.9380   24.2070 N   0  0  0  0  0  0  0  0  0  0  0  0
  -25.8830  -34.9800   23.4430 C   0  0  0  0  0  0  0  0  0  0  0  0
  -26.5730  -34.8580   22.4270 O   0  0  0  0  0  0  0  0  0  0  0  0
  -24.9170  -34.1060   24.9930 H   0  0  0  0  0  0  0  0  0  0  0  0
  -24.1810  -36.7840   23.0270 C   0  0  0  0  0  1  0  0  0  0  0  0
  -25.3980  -36.3780   23.8730 C   0  0  0  0  0  3  0  0  0  0  0  0
  -27.5170  -37.2550   24.7490 C   0  0  0  0  0  1  0  0  0  0  0  0
  -26.4420  -37.4200   23.7740 N   0  0  0  0  0  0  0  0  0  0  0  0
  -26.0400  -38.3450   23.8990 H   0  0  0  0  0  0  0  0  0  0  0  0
  -27.5630  -17.1050   19.3800 N   0  0  0  0  0  0  0  0  0  0  0  0
  -26.8480  -17.6040   18.8600 H   0  0  0  0  0  0  0  0  0  0  0  0
  -27.9400  -16.3620   18.8010 H   0  0  0  0  0  0  0  0  0  0  0  0
  1  4  2  0
  1  3  1  0
  3  6  2  0
  4  5  1  0
  5 16  1  0
  5  2  2  0
  6  2  1  0
  6  7  1  0
  8 16  1  0
  9 14  1  0
 10 11  1  0
 10  9  1  0
 12 11  1  0
 12 21  1  0
 12 13  1  0
 14  8  1  0
 14 13  1  0
 15  8  2  0
 16 17  1  0
 18 19  2  0
 19 38  1  0
 20 19  1  0
 20 23  1  0
 21 18  1  0
 21 22  1  0
 22 20  2  0
 23 24  1  0
 24 25  2  0
 26 29  1  0
 26 25  1  0
 27 26  2  0
 28 27  1  0
 28 23  2  0
 29 30  1  0
 30 31  1  0
 31 32  2  0
 33 32  1  0
 33 37  1  0
 34 33  2  0
 35 30  2  0
 35 34  1  0
 36 35  1  0
 38 39  1  0
 39 42  1  0
 39 41  1  0
 40 38  2  0
 43 44  1  0
 43 18  1  0
 45 43  1  0
 46 47  1  0
 46 49  1  0
 46 48  1  0
 47 51  1  0
 47 48  1  0
 48 50  1  6
 49 48  1  0
 49  3  1  0
 51 52  1  0
 53 64  2  0
 54 52  1  0
 54 59  1  0
 55 63  1  0
 55 65  1  0
 56 62  1  0
 56 58  1  0
 57 63  1  0
 58 59  2  0
 58 57  1  0
 60 54  2  0
 61 60  1  0
 61 56  2  0
 62 55  1  0
 63 53  1  0
 65 67  2  0
 66 65  1  0
 68 66  1  0
 69 78  2  0
 69 74  1  0
 70 66  1  0
 70 74  1  0
 71 70  1  0
 72 73  1  0
 72 71  1  0
 73 69  1  0
 74 75  2  0
 75 76  1  0
 77 76  2  0
 78 77  1  0
 79 53  1  0
 79 84  1  0
 79 80  1  0
 80 83  1  1
 80 81  1  0
 82 80  1  0
 84 87  1  0
 85 89  1  0
 85 84  1  0
 86 85  2  0
 89 88  1  0
 91 89  1  0
 91 92  1  0
 91 90  1  0
 93  4  1  0
 94 93  1  0
 95 93  1  0
M  ISO  4   8 100  16 100  51 101  52 101
M  END
>  <TORSDO>  (39) 
F 19

>  <SCORE>  (39) 
-14.927

>  <name>  (39) 
38

>  <ligand_id>  (39) 
38

>  <original_smiles>  (39) 
[H]C1=C(C([H])([H])Oc2c([H])c([H])c3c(c2[H])C([H])([H])N(C(=O)C([H])(N([H])C(=O)C([H])(N([H])C([H])([H])[H])C([H])([H])[H])C(C([H])([H])[H])(C([H])([H])[H])C([H])([H])[H])C([H])(C(=O)N([H])C2([H])c4c([H])c([H])c([H])c([H])c4C([H])([H])C([H])([H])C2([H])[H])C3([H])[H])C(=O)N1c1c([H])c(N([H])[H])c(N([H])C(=O)N2C([H])([H])C([H])([H])C([H])([H])C([H])(n3nc(-c4c([H])c([H])c(Oc5c([H])c([H])c(F)c([H])c5F)c([H])c4[H])c(C(=O)N([H])[H])c3N([H])[H])C2([H])[H])c([H])c1F

>  <smiles>  (39) 
[H]C1=C(C([H])([H])Oc2c([H])c([H])c3c(c2[H])C([H])([H])N(C(=O)C([H])(N([H])C(=O)C([H])(N([H])C([H])([H])[H])C([H])([H])[H])C(C([H])([H])[H])(C([H])([H])[H])C([H])([H])[H])C([H])(C(=O)N([H])C2([H])c4c([H])c([H])c([H])c([H])c4C([H])([H])C([H])([H])C2([H])[H])C3([H])[H])C(=O)N1c1c([H])c(N([H])[H])c(N([H])C(=O)N2C([H])([H])C([H])([H])C([H])([H])C([H])(n3nc(-c4c([H])c([H])c(Oc5c([H])c([H])c(F)c([H])c5F)c([H])c4[H])c(C(=O)N([H])[H])c3N([H])[H])C2([H])[H])c([H])c1F

$$$$
39:0:0
     RDKit          3D

 92100  0  0  1  0  0  0  0  0999 V2000
  -29.9590  -20.8630   21.7920 C   0  0  0  0  0  0  0  0  0  0  0  0
  -29.5660  -23.2650   21.5610 C   0  0  0  0  0  0  0  0  0  0  0  0
  -29.8310  -22.0160   21.0830 N   0  0  0  0  0  0  0  0  0  0  0  0
  -29.9910  -20.8250   23.0290 O   0  0  0  0  0  0  0  0  0  0  0  0
  -29.2840  -23.4900   22.7440 O   0  0  0  0  0  0  0  0  0  0  0  0
  -29.9370  -21.9270   20.0840 H   0  0  0  0  0  0  0  0  0  0  0  0
  -30.0700  -19.2290   19.7150 C   0  0  0  0  0  3  0  0  0  0  0  0
  -30.1660  -17.8140   19.4710 C   0  0  0  0  0  3  0  0  0  0  0  0
  -30.0690  -19.5630   21.0480 C   0  0  0  0  0  0  0  0  0  0  0  0
  -30.2360  -17.0430   20.6140 C   0  0  0  0  0  0  0  0  0  0  0  0
  -30.1960  -18.0980   22.0140 S   0  0  0  0  0  0  0  0  0  0  0  0
  -30.8870  -14.7310   20.0740 C   0  0  0  0  0  0  0  0  0  0  0  0
  -30.5910  -12.5640   18.9210 C   0  0  0  0  0  2  0  0  0  0  0  0
  -29.5770  -12.7650   17.7740 C   0  0  0  0  0  2  0  0  0  0  0  0
  -28.1250  -12.6200   18.2750 C   0  0  0  0  0  2  0  0  0  0  0  0
  -27.8570  -13.4230   19.5740 C   0  0  0  0  0  3  0  0  0  0  0  0
  -28.9700  -13.1820   20.6160 C   0  0  0  0  0  2  0  0  0  0  0  0
  -30.2620  -13.5230   19.9910 N   0  0  0  0  0  0  0  0  0  0  0  0
  -31.9600  -14.9650   19.5060 O   0  0  0  0  0  0  0  0  0  0  0  0
  -30.2120  -15.6830   20.7600 N   0  0  0  0  0  0  0  0  0  0  0  0
  -29.4700  -15.3260   21.3450 H   0  0  0  0  0  0  0  0  0  0  0  0
  -25.5090  -14.0130   20.4430 C   0  0  0  0  0  0  0  0  0  0  0  0
  -24.4600  -13.2310   20.8450 C   0  0  0  0  0  0  0  0  0  0  0  0
  -24.9100  -11.8780   20.7380 C   0  0  0  0  0  0  0  0  0  0  0  0
  -26.5320  -13.1350   20.1200 N   0  0  0  0  0  0  0  0  0  0  0  0
  -26.1790  -11.8440   20.3520 N   0  0  0  0  0  0  0  0  0  0  0  0
  -24.1890  -10.6140   20.9230 C   0  0  0  0  0  0  0  0  0  0  0  0
  -24.6060   -9.6570   21.8750 C   0  0  0  0  0  3  0  0  0  0  0  0
  -23.8830   -8.4560   22.0470 C   0  0  0  0  0  3  0  0  0  0  0  0
  -22.7280   -8.2060   21.2690 C   0  0  0  0  0  0  0  0  0  0  0  0
  -22.3330   -9.1500   20.3050 C   0  0  0  0  0  3  0  0  0  0  0  0
  -23.0570  -10.3400   20.1310 C   0  0  0  0  0  3  0  0  0  0  0  0
  -21.9760   -7.0570   21.3510 O   0  0  0  0  0  0  0  0  0  0  0  0
  -21.8190   -6.3840   22.5350 C   0  0  0  0  0  0  0  0  0  0  0  0
  -21.2180   -6.9850   23.6620 C   0  0  0  0  0  3  0  0  0  0  0  0
  -21.0140   -6.2350   24.8370 C   0  0  0  0  0  3  0  0  0  0  0  0
  -21.4000   -4.8810   24.8840 C   0  0  0  0  0  0  0  0  0  0  0  0
  -21.9890   -4.2780   23.7590 C   0  0  0  0  0  3  0  0  0  0  0  0
  -22.1950   -5.0270   22.5870 C   0  0  0  0  0  0  0  0  0  0  0  0
  -22.7470   -4.4350   21.5000 F   0  0  0  0  0  0  0  0  0  0  0  0
  -21.1960   -4.1560   26.0080 F   0  0  0  0  0  0  0  0  0  0  0  0
  -23.0830  -13.7020   21.2200 C   0  0  0  0  0  0  0  0  0  0  0  0
  -22.4040  -12.9740   22.1000 N   0  0  0  0  0  0  0  0  0  0  0  0
  -22.6200  -14.7470   20.7660 O   0  0  0  0  0  0  0  0  0  0  0  0
  -22.7910  -12.1240   22.4820 H   0  0  0  0  0  0  0  0  0  0  0  0
  -21.4780  -13.2620   22.3880 H   0  0  0  0  0  0  0  0  0  0  0  0
  -25.6790  -15.3890   20.3030 N   0  0  0  0  0  0  0  0  0  0  0  0
  -24.9380  -16.0580   20.4790 H   0  0  0  0  0  0  0  0  0  0  0  0
  -26.5180  -15.8200   19.9360 H   0  0  0  0  0  0  0  0  0  0  0  0
  -29.6150  -24.4870   20.6040 C   0  0  0  0  0  2  0  0  0  0  0  0
  -28.4900  -25.5420   20.8440 C   0  0  0  0  0  2  0  0  0  0  0  0
  -28.6590  -26.8050   20.1470 O   0  0  0  0  0  0  0  0  0  0  0  0
  -24.7220  -31.8910   23.2140 C   0  0  0  0  0  0  0  0  0  0  0  0
  -27.5050  -27.5670   20.1030 C   0  0  0  0  0  0  0  0  0  0  0  0
  -23.5600  -30.4660   21.5590 C   0  0  0  0  0  3  0  0  0  0  0  0
  -25.0650  -29.0050   20.1060 C   0  0  0  0  0  0  0  0  0  0  0  0
  -26.0640  -30.9310   21.3400 C   0  0  0  0  0  2  0  0  0  0  0  0
  -26.2070  -29.5640   20.6960 C   0  0  0  0  0  0  0  0  0  0  0  0
  -27.4340  -28.8540   20.6900 C   0  0  0  0  0  3  0  0  0  0  0  0
  -26.3510  -27.0390   19.4860 C   0  0  0  0  0  3  0  0  0  0  0  0
  -25.1360  -27.7440   19.4930 C   0  0  0  0  0  3  0  0  0  0  0  0
  -23.7860  -29.8080   20.1710 C   0  0  0  0  0  2  0  0  0  0  0  0
  -24.8010  -31.1110   22.0990 N   0  0  0  0  0  0  0  0  0  0  0  0
  -23.6340  -32.1110   23.7670 O   0  0  0  0  0  0  0  0  0  0  0  0
  -22.9550  -29.4090   22.5130 C   0  0  0  0  0  0  0  0  0  0  0  0
  -21.6390  -29.1680   22.3840 N   0  0  0  0  0  0  0  0  0  0  0  0
  -23.6650  -28.8070   23.3220 O   0  0  0  0  0  0  0  0  0  0  0  0
  -21.1230  -29.7120   21.7070 H   0  0  0  0  0  0  0  0  0  0  0  0
  -18.3230  -27.8120   22.8690 C   0  0  0  0  0  0  0  0  0  0  0  0
  -20.8660  -28.1850   23.1450 C   0  0  0  0  0  3  0  0  0  0  0  0
  -21.0350  -26.7650   22.5560 C   0  0  0  0  0  2  0  0  0  0  0  0
  -19.9490  -26.4030   21.5360 C   0  0  0  0  0  2  0  0  0  0  0  0
  -18.5610  -26.4780   22.1800 C   0  0  0  0  0  2  0  0  0  0  0  0
  -19.4060  -28.6210   23.3080 C   0  0  0  0  0  0  0  0  0  0  0  0
  -19.1300  -29.8670   23.9090 C   0  0  0  0  0  3  0  0  0  0  0  0
  -17.8050  -30.3100   24.0730 C   0  0  0  0  0  3  0  0  0  0  0  0
  -16.7370  -29.5000   23.6510 C   0  0  0  0  0  3  0  0  0  0  0  0
  -16.9970  -28.2520   23.0590 C   0  0  0  0  0  3  0  0  0  0  0  0
  -25.9860  -32.5630   23.8370 C   0  0  0  0  0  3  0  0  0  0  0  0
  -26.5310  -31.8050   25.1100 C   0  0  1  0  0  0  0  0  0  0  0  0
  -25.4370  -31.4700   26.1520 C   0  0  0  0  0  1  0  0  0  0  0  0
  -27.2110  -30.4790   24.6950 C   0  0  0  0  0  1  0  0  0  0  0  0
  -27.6200  -32.6540   25.8060 C   0  0  0  0  0  1  0  0  0  0  0  0
  -25.6320  -33.9500   24.1670 N   0  0  0  0  0  0  0  0  0  0  0  0
  -25.9440  -35.0110   23.4110 C   0  0  0  0  0  0  0  0  0  0  0  0
  -26.6280  -34.9260   22.3880 O   0  0  0  0  0  0  0  0  0  0  0  0
  -25.0300  -34.0880   24.9650 H   0  0  0  0  0  0  0  0  0  0  0  0
  -24.1780  -36.7560   23.0170 C   0  0  0  0  0  1  0  0  0  0  0  0
  -25.4070  -36.3840   23.8600 C   0  0  0  0  0  3  0  0  0  0  0  0
  -27.4940  -37.3210   24.7510 C   0  0  0  0  0  1  0  0  0  0  0  0
  -26.4130  -37.4660   23.7810 N   0  0  0  0  0  0  0  0  0  0  0  0
  -25.9780  -38.3730   23.9250 H   0  0  0  0  0  0  0  0  0  0  0  0
  1  4  2  0
  2  5  2  0
  3  2  1  0
  3  1  1  0
  6  3  1  0
  7  9  2  0
  8  7  1  0
  8 10  2  0
  9  1  1  0
  9 11  1  0
 10 20  1  0
 10 11  1  0
 12 20  1  0
 13 18  1  0
 14 15  1  0
 14 13  1  0
 16 15  1  0
 16 25  1  0
 16 17  1  0
 18 12  1  0
 18 17  1  0
 19 12  2  0
 20 21  1  0
 22 23  2  0
 23 42  1  0
 24 23  1  0
 24 27  1  0
 25 26  1  0
 25 22  1  0
 26 24  2  0
 27 28  1  0
 28 29  2  0
 30 33  1  0
 30 29  1  0
 31 30  2  0
 32 31  1  0
 32 27  2  0
 33 34  1  0
 34 39  2  0
 34 35  1  0
 35 36  2  0
 36 37  1  0
 37 41  1  0
 38 37  2  0
 39 38  1  0
 40 39  1  0
 42 43  1  0
 43 46  1  0
 43 45  1  0
 44 42  2  0
 47 22  1  0
 47 48  1  0
 49 47  1  0
 50 51  1  0
 50  2  1  0
 52 51  1  0
 53 64  2  0
 54 52  1  0
 54 59  1  0
 55 63  1  0
 55 65  1  0
 56 62  1  0
 56 58  1  0
 57 63  1  0
 58 57  1  0
 59 58  2  0
 60 61  1  0
 60 54  2  0
 61 56  2  0
 62 55  1  0
 63 53  1  0
 65 67  2  0
 66 65  1  0
 68 66  1  0
 69 78  2  0
 69 74  1  0
 70 66  1  0
 70 74  1  0
 71 70  1  0
 72 73  1  0
 72 71  1  0
 73 69  1  0
 74 75  2  0
 75 76  1  0
 77 76  2  0
 78 77  1  0
 79 53  1  0
 79 84  1  0
 79 80  1  0
 80 83  1  1
 80 81  1  0
 82 80  1  0
 84 87  1  0
 85 89  1  0
 85 84  1  0
 86 85  2  0
 89 88  1  0
 91 89  1  0
 91 92  1  0
 91 90  1  0
M  ISO  4  12 100  20 100  51 101  52 101
M  END
>  <TORSDO>  (40) 
F 19

>  <SCORE>  (40) 
-13.271

>  <name>  (40) 
39

>  <ligand_id>  (40) 
39

>  <original_smiles>  (40) 
[H]c1c(C(=O)N([H])C(=O)C([H])([H])C([H])([H])Oc2c([H])c([H])c3c(c2[H])C([H])([H])N(C(=O)C([H])(N([H])C(=O)C([H])(N([H])C([H])([H])[H])C([H])([H])[H])C(C([H])([H])[H])(C([H])([H])[H])C([H])([H])[H])C([H])(C(=O)N([H])C2([H])c4c([H])c([H])c([H])c([H])c4C([H])([H])C([H])([H])C2([H])[H])C3([H])[H])sc(N([H])C(=O)N2C([H])([H])C([H])([H])C([H])([H])C([H])(n3nc(-c4c([H])c([H])c(Oc5c([H])c([H])c(F)c([H])c5F)c([H])c4[H])c(C(=O)N([H])[H])c3N([H])[H])C2([H])[H])c1[H]

>  <smiles>  (40) 
[H]c1c(C(=O)N([H])C(=O)C([H])([H])C([H])([H])Oc2c([H])c([H])c3c(c2[H])C([H])([H])N(C(=O)C([H])(N([H])C(=O)C([H])(N([H])C([H])([H])[H])C([H])([H])[H])C(C([H])([H])[H])(C([H])([H])[H])C([H])([H])[H])C([H])(C(=O)N([H])C2([H])c4c([H])c([H])c([H])c([H])c4C([H])([H])C([H])([H])C2([H])[H])C3([H])[H])sc(N([H])C(=O)N2C([H])([H])C([H])([H])C([H])([H])C([H])(n3nc(-c4c([H])c([H])c(Oc5c([H])c([H])c(F)c([H])c5F)c([H])c4[H])c(C(=O)N([H])[H])c3N([H])[H])C2([H])[H])c1[H]

$$$$
40:0:0
     RDKit          3D

 97106  0  0  1  0  0  0  0  0999 V2000
  -28.8050  -24.1790   21.0690 C   0  0  0  0  0  0  0  0  0  0  0  0
  -28.8900  -23.6180   22.4100 C   0  0  0  0  0  0  0  0  0  0  0  0
  -29.1020  -23.0280   20.1530 C   0  0  0  0  0  0  0  0  0  0  0  0
  -28.4980  -25.5430   20.9580 C   0  0  0  0  0  3  0  0  0  0  0  0
  -29.3180  -22.1700   22.3330 C   0  0  0  0  0  2  0  0  0  0  0  0
  -29.3640  -21.8730   20.9000 N   0  0  0  0  0  0  0  0  0  0  0  0
  -28.6770  -24.1920   23.4840 O   0  0  0  0  0  0  0  0  0  0  0  0
  -29.1160  -23.0620   18.9160 O   0  0  0  0  0  0  0  0  0  0  0  0
  -28.6890  -19.6030   19.9040 C   0  0  0  0  0  3  0  0  0  0  0  0
  -30.9490  -18.3230   20.9610 C   0  0  0  0  0  3  0  0  0  0  0  0
  -29.6420  -20.4480   20.5410 C   0  0  0  0  0  0  0  0  0  0  0  0
  -28.8410  -18.1740   19.8380 C   0  0  0  0  0  0  0  0  0  0  0  0
  -29.9590  -17.4780   20.3870 C   0  0  0  0  0  0  0  0  0  0  0  0
  -30.7890  -19.7520   21.0440 C   0  0  0  0  0  0  0  0  0  0  0  0
  -31.7530  -20.4630   21.6760 F   0  0  0  0  0  0  0  0  0  0  0  0
  -30.7810  -14.9380   20.3330 C   0  0  0  0  0  0  0  0  0  0  0  0
  -30.6580  -12.6350   19.3560 C   0  0  0  0  0  2  0  0  0  0  0  0
  -29.7220  -12.6750   18.1260 C   0  0  0  0  0  2  0  0  0  0  0  0
  -28.2490  -12.4980   18.5440 C   0  0  0  0  0  2  0  0  0  0  0  0
  -27.8550  -13.4040   19.7420 C   0  0  0  0  0  3  0  0  0  0  0  0
  -28.9040  -13.3230   20.8730 C   0  0  0  0  0  2  0  0  0  0  0  0
  -30.2050  -13.6870   20.2900 N   0  0  0  0  0  0  0  0  0  0  0  0
  -31.9720  -15.0890   20.0450 O   0  0  0  0  0  0  0  0  0  0  0  0
  -29.9000  -15.9950   20.4670 N   0  0  0  0  0  0  0  0  0  0  0  0
  -28.9460  -15.6730   20.5160 H   0  0  0  0  0  0  0  0  0  0  0  0
  -25.4620  -14.0070   20.4480 C   0  0  0  0  0  0  0  0  0  0  0  0
  -24.3910  -13.2350   20.8090 C   0  0  0  0  0  0  0  0  0  0  0  0
  -24.8520  -11.8830   20.7860 C   0  0  0  0  0  0  0  0  0  0  0  0
  -26.5060  -13.1240   20.2210 N   0  0  0  0  0  0  0  0  0  0  0  0
  -26.1450  -11.8420   20.4890 N   0  0  0  0  0  0  0  0  0  0  0  0
  -24.1220  -10.6220   20.9740 C   0  0  0  0  0  0  0  0  0  0  0  0
  -24.5110   -9.6820   21.9520 C   0  0  0  0  0  3  0  0  0  0  0  0
  -23.7810   -8.4860   22.1270 C   0  0  0  0  0  3  0  0  0  0  0  0
  -22.6480   -8.2220   21.3210 C   0  0  0  0  0  0  0  0  0  0  0  0
  -22.2780   -9.1520   20.3320 C   0  0  0  0  0  3  0  0  0  0  0  0
  -23.0090  -10.3390   20.1570 C   0  0  0  0  0  3  0  0  0  0  0  0
  -21.8950   -7.0760   21.4000 O   0  0  0  0  0  0  0  0  0  0  0  0
  -21.7580   -6.3840   22.5780 C   0  0  0  0  0  0  0  0  0  0  0  0
  -21.1870   -6.9740   23.7260 C   0  0  0  0  0  3  0  0  0  0  0  0
  -21.0030   -6.2070   24.8940 C   0  0  0  0  0  3  0  0  0  0  0  0
  -21.3800   -4.8500   24.9130 C   0  0  0  0  0  0  0  0  0  0  0  0
  -21.9430   -4.2610   23.7680 C   0  0  0  0  0  3  0  0  0  0  0  0
  -22.1300   -5.0250   22.6030 C   0  0  0  0  0  0  0  0  0  0  0  0
  -22.6540   -4.4460   21.4960 F   0  0  0  0  0  0  0  0  0  0  0  0
  -21.1950   -4.1110   26.0310 F   0  0  0  0  0  0  0  0  0  0  0  0
  -22.9910  -13.7150   21.0670 C   0  0  0  0  0  0  0  0  0  0  0  0
  -22.2520  -13.0180   21.9220 N   0  0  0  0  0  0  0  0  0  0  0  0
  -22.5620  -14.7420   20.5450 O   0  0  0  0  0  0  0  0  0  0  0  0
  -22.6120  -12.1870   22.3660 H   0  0  0  0  0  0  0  0  0  0  0  0
  -21.3130  -13.3210   22.1360 H   0  0  0  0  0  0  0  0  0  0  0  0
  -25.6220  -15.3800   20.2730 N   0  0  0  0  0  0  0  0  0  0  0  0
  -24.8420  -16.0170   20.3880 H   0  0  0  0  0  0  0  0  0  0  0  0
  -26.4620  -15.8620   19.9630 H   0  0  0  0  0  0  0  0  0  0  0  0
  -27.8410  -17.4150   19.2320 N   0  0  0  0  0  0  0  0  0  0  0  0
  -27.1600  -17.9470   18.7010 H   0  0  0  0  0  0  0  0  0  0  0  0
  -28.1960  -16.6520   18.6650 H   0  0  0  0  0  0  0  0  0  0  0  0
  -28.3990  -26.5020   19.9230 O   0  0  0  0  0  0  0  0  0  0  0  0
  -24.6900  -31.8870   23.1690 C   0  0  0  0  0  0  0  0  0  0  0  0
  -27.3170  -27.4070   19.9740 C   0  0  0  0  0  0  0  0  0  0  0  0
  -23.4810  -30.5000   21.5230 C   0  0  0  0  0  3  0  0  0  0  0  0
  -24.9330  -28.9990   20.0400 C   0  0  0  0  0  0  0  0  0  0  0  0
  -26.0140  -30.8570   21.3020 C   0  0  0  0  0  2  0  0  0  0  0  0
  -26.1070  -29.4890   20.6280 C   0  0  0  0  0  0  0  0  0  0  0  0
  -27.3060  -28.7040   20.5890 C   0  0  0  0  0  3  0  0  0  0  0  0
  -26.1220  -26.9780   19.3660 C   0  0  0  0  0  3  0  0  0  0  0  0
  -24.9430  -27.7500   19.3980 C   0  0  0  0  0  3  0  0  0  0  0  0
  -23.6820  -29.8550   20.1270 C   0  0  0  0  0  2  0  0  0  0  0  0
  -24.7480  -31.0990   22.0540 N   0  0  0  0  0  0  0  0  0  0  0  0
  -23.6130  -32.1350   23.7290 O   0  0  0  0  0  0  0  0  0  0  0  0
  -22.8510  -29.4550   22.4760 C   0  0  0  0  0  0  0  0  0  0  0  0
  -21.5240  -29.2600   22.3730 N   0  0  0  0  0  0  0  0  0  0  0  0
  -23.5540  -28.8240   23.2690 O   0  0  0  0  0  0  0  0  0  0  0  0
  -21.0140  -29.8230   21.7060 H   0  0  0  0  0  0  0  0  0  0  0  0
  -18.1800  -27.9820   22.9010 C   0  0  0  0  0  0  0  0  0  0  0  0
  -20.7370  -28.2940   23.1400 C   0  0  0  0  0  3  0  0  0  0  0  0
  -20.8610  -26.8730   22.5420 C   0  0  0  0  0  2  0  0  0  0  0  0
  -19.7530  -26.5410   21.5380 C   0  0  0  0  0  2  0  0  0  0  0  0
  -18.3780  -26.6470   22.2020 C   0  0  0  0  0  2  0  0  0  0  0  0
  -19.2880  -28.7620   23.3270 C   0  0  0  0  0  0  0  0  0  0  0  0
  -19.0490  -30.0100   23.9420 C   0  0  0  0  0  3  0  0  0  0  0  0
  -17.7350  -30.4790   24.1340 C   0  0  0  0  0  3  0  0  0  0  0  0
  -16.6440  -29.6950   23.7230 C   0  0  0  0  0  3  0  0  0  0  0  0
  -16.8670  -28.4490   23.1130 C   0  0  0  0  0  3  0  0  0  0  0  0
  -25.9730  -32.5290   23.7800 C   0  0  0  0  0  3  0  0  0  0  0  0
  -25.6520  -33.9210   24.1270 N   0  0  0  0  0  0  0  0  0  0  0  0
  -25.9640  -34.9860   23.3770 C   0  0  0  0  0  0  0  0  0  0  0  0
  -26.6220  -34.9000   22.3360 O   0  0  0  0  0  0  0  0  0  0  0  0
  -25.0650  -34.0610   24.9370 H   0  0  0  0  0  0  0  0  0  0  0  0
  -24.2280  -36.7770   23.0460 C   0  0  0  0  0  1  0  0  0  0  0  0
  -25.4690  -36.3650   23.8550 C   0  0  0  0  0  3  0  0  0  0  0  0
  -27.5920  -37.2540   24.7130 C   0  0  0  0  0  1  0  0  0  0  0  0
  -26.4970  -37.4250   23.7600 N   0  0  0  0  0  0  0  0  0  0  0  0
  -26.0850  -38.3410   23.9120 H   0  0  0  0  0  0  0  0  0  0  0  0
  -26.5140  -31.7550   25.0440 C   0  0  1  0  0  0  0  0  0  0  0  0
  -25.4360  -31.4940   26.1220 C   0  0  0  0  0  1  0  0  0  0  0  0
  -27.1110  -30.3880   24.6350 C   0  0  0  0  0  1  0  0  0  0  0  0
  -27.6620  -32.5590   25.7000 C   0  0  0  0  0  1  0  0  0  0  0  0
  1  2  1  0
  2  7  2  0
  3  6  1  0
  3  1  1  0
  4  1  2  0
  5  2  1  0
  6  5  1  0
  8  3  2  0
  9 11  1  0
 10 14  1  0
 11  6  1  0
 11 14  2  0
 12  9  2  0
 12 13  1  0
 13 24  1  0
 13 10  2  0
 14 15  1  0
 16 24  1  0
 17 22  1  0
 18 19  1  0
 18 17  1  0
 20 19  1  0
 20 29  1  0
 20 21  1  0
 22 16  1  0
 22 21  1  0
 23 16  2  0
 24 25  1  0
 26 27  2  0
 27 46  1  0
 28 27  1  0
 28 31  1  0
 29 26  1  0
 29 30  1  0
 30 28  2  0
 31 32  1  0
 32 33  2  0
 34 37  1  0
 34 33  1  0
 35 34  2  0
 36 35  1  0
 36 31  2  0
 37 38  1  0
 38 43  2  0
 38 39  1  0
 39 40  2  0
 40 41  1  0
 41 45  1  0
 42 41  2  0
 43 42  1  0
 44 43  1  0
 46 47  1  0
 47 50  1  0
 47 49  1  0
 48 46  2  0
 51 52  1  0
 51 26  1  0
 53 51  1  0
 54 12  1  0
 55 54  1  0
 56 54  1  0
 57 59  1  0
 57  4  1  0
 58 69  2  0
 59 64  1  0
 60 68  1  0
 60 70  1  0
 61 67  1  0
 61 63  1  0
 62 68  1  0
 63 62  1  0
 64 63  2  0
 65 66  1  0
 65 59  2  0
 66 61  2  0
 67 60  1  0
 68 58  1  0
 70 72  2  0
 71 70  1  0
 73 71  1  0
 74 83  2  0
 74 79  1  0
 75 71  1  0
 75 79  1  0
 76 75  1  0
 77 78  1  0
 77 76  1  0
 78 74  1  0
 79 80  2  0
 80 81  1  0
 82 81  2  0
 83 82  1  0
 84 58  1  0
 84 85  1  0
 84 94  1  0
 85 88  1  0
 86 90  1  0
 86 85  1  0
 87 86  2  0
 90 89  1  0
 92 90  1  0
 92 93  1  0
 92 91  1  0
 94 97  1  1
 94 95  1  0
 96 94  1  0
M  ISO  4   4 101  16 100  24 100  57 101
M  END
>  <TORSDO>  (41) 
F 18

>  <SCORE>  (41) 
-14.805

>  <name>  (41) 
40

>  <ligand_id>  (41) 
40

>  <original_smiles>  (41) 
[H]C(Oc1c([H])c([H])c2c(c1[H])C([H])([H])N(C(=O)C([H])(N([H])C(=O)C([H])(N([H])C([H])([H])[H])C([H])([H])[H])C(C([H])([H])[H])(C([H])([H])[H])C([H])([H])[H])C([H])(C(=O)N([H])C1([H])c3c([H])c([H])c([H])c([H])c3C([H])([H])C([H])([H])C1([H])[H])C2([H])[H])=C1C(=O)N(c2c([H])c(N([H])[H])c(N([H])C(=O)N3C([H])([H])C([H])([H])C([H])([H])C([H])(n4nc(-c5c([H])c([H])c(Oc6c([H])c([H])c(F)c([H])c6F)c([H])c5[H])c(C(=O)N([H])[H])c4N([H])[H])C3([H])[H])c([H])c2F)C([H])([H])C1=O

>  <smiles>  (41) 
[H]C(Oc1c([H])c([H])c2c(c1[H])C([H])([H])N(C(=O)C([H])(N([H])C(=O)C([H])(N([H])C([H])([H])[H])C([H])([H])[H])C(C([H])([H])[H])(C([H])([H])[H])C([H])([H])[H])C([H])(C(=O)N([H])C1([H])c3c([H])c([H])c([H])c([H])c3C([H])([H])C([H])([H])C1([H])[H])C2([H])[H])=C1C(=O)N(c2c([H])c(N([H])[H])c(N([H])C(=O)N3C([H])([H])C([H])([H])C([H])([H])C([H])(n4nc(-c5c([H])c([H])c(Oc6c([H])c([H])c(F)c([H])c6F)c([H])c5[H])c(C(=O)N([H])[H])c4N([H])[H])C3([H])[H])c([H])c2F)C([H])([H])C1=O

$$$$
41:0:0
     RDKit          3D

 99109  0  0  1  0  0  0  0  0999 V2000
  -28.4720  -23.9420   19.9900 C   0  0  0  0  0  0  0  0  0  0  0  0
  -26.9860  -23.0030   18.2440 C   0  0  0  0  0  3  0  0  0  0  0  0
  -28.5710  -25.1580   20.6560 C   0  0  0  0  0  2  0  0  0  0  0  0
  -29.1360  -22.5710   20.5250 C   0  0  0  0  0  3  0  0  0  0  0  0
  -25.6690  -23.4930   17.6680 C   0  0  0  0  0  2  0  0  0  0  0  0
  -24.6960  -22.3710   17.2860 C   0  0  0  0  0  2  0  0  0  0  0  0
  -24.9800  -21.1180   18.1030 C   0  0  0  0  0  2  0  0  0  0  0  0
  -26.4000  -20.6460   17.8060 C   0  0  0  0  0  2  0  0  0  0  0  0
  -28.7300  -21.2710   18.4480 C   0  0  0  0  0  2  0  0  0  0  0  0
  -29.0530  -21.2000   19.8620 N   0  0  0  0  0  0  0  0  0  0  0  0
  -27.3510  -21.6940   18.1990 N   0  0  0  0  0  0  0  0  0  0  0  0
  -27.7070  -23.9840   18.8300 N   0  0  0  0  0  0  0  0  0  0  0  0
  -27.4030  -24.8810   18.4840 H   0  0  0  0  0  0  0  0  0  0  0  0
  -31.7760  -19.1140   21.4800 C   0  0  0  0  0  3  0  0  0  0  0  0
  -30.9670  -20.1890   21.0580 C   0  0  0  0  0  3  0  0  0  0  0  0
  -31.4530  -17.7780   21.1800 C   0  0  0  0  0  3  0  0  0  0  0  0
  -29.7820  -19.9970   20.3060 C   0  0  0  0  0  0  0  0  0  0  0  0
  -30.2770  -17.4460   20.4780 C   0  0  0  0  0  0  0  0  0  0  0  0
  -29.4380  -18.5780   20.0730 C   0  0  0  0  0  0  0  0  0  0  0  0
  -28.2570  -18.2700   19.4810 F   0  0  0  0  0  0  0  0  0  0  0  0
  -30.7500  -14.8690   20.1340 C   0  0  0  0  0  0  0  0  0  0  0  0
  -30.5560  -12.5760   19.1500 C   0  0  0  0  0  2  0  0  0  0  0  0
  -29.5780  -12.5980   17.9580 C   0  0  0  0  0  2  0  0  0  0  0  0
  -28.1210  -12.4400   18.4360 C   0  0  0  0  0  2  0  0  0  0  0  0
  -27.7780  -13.3560   19.6420 C   0  0  0  0  0  3  0  0  0  0  0  0
  -28.8660  -13.2900   20.7330 C   0  0  0  0  0  2  0  0  0  0  0  0
  -30.1340  -13.6410   20.0880 N   0  0  0  0  0  0  0  0  0  0  0  0
  -31.9410  -14.9590   19.8160 O   0  0  0  0  0  0  0  0  0  0  0  0
  -29.9440  -16.0010   20.2790 N   0  0  0  0  0  0  0  0  0  0  0  0
  -28.9560  -15.8040   20.2570 H   0  0  0  0  0  0  0  0  0  0  0  0
  -25.4350  -13.9740   20.4780 C   0  0  0  0  0  0  0  0  0  0  0  0
  -24.3720  -13.2120   20.8760 C   0  0  0  0  0  0  0  0  0  0  0  0
  -24.8100  -11.8530   20.8020 C   0  0  0  0  0  0  0  0  0  0  0  0
  -26.4520  -13.0810   20.1830 N   0  0  0  0  0  0  0  0  0  0  0  0
  -26.0870  -11.7990   20.4450 N   0  0  0  0  0  0  0  0  0  0  0  0
  -24.0670  -10.6020   20.9910 C   0  0  0  0  0  0  0  0  0  0  0  0
  -24.4770   -9.6300   21.9290 C   0  0  0  0  0  3  0  0  0  0  0  0
  -23.7310   -8.4440   22.1010 C   0  0  0  0  0  3  0  0  0  0  0  0
  -22.5610   -8.2210   21.3330 C   0  0  0  0  0  0  0  0  0  0  0  0
  -22.1720   -9.1840   20.3830 C   0  0  0  0  0  3  0  0  0  0  0  0
  -22.9190  -10.3600   20.2090 C   0  0  0  0  0  3  0  0  0  0  0  0
  -21.7860   -7.0890   21.4200 O   0  0  0  0  0  0  0  0  0  0  0  0
  -21.6780   -6.3790   22.5900 C   0  0  0  0  0  0  0  0  0  0  0  0
  -21.1860   -6.9660   23.7760 C   0  0  0  0  0  3  0  0  0  0  0  0
  -21.0190   -6.1810   24.9340 C   0  0  0  0  0  3  0  0  0  0  0  0
  -21.3400   -4.8100   24.9100 C   0  0  0  0  0  0  0  0  0  0  0  0
  -21.8240   -4.2220   23.7290 C   0  0  0  0  0  3  0  0  0  0  0  0
  -21.9920   -5.0040   22.5720 C   0  0  0  0  0  0  0  0  0  0  0  0
  -22.4400   -4.4250   21.4310 F   0  0  0  0  0  0  0  0  0  0  0  0
  -21.1730   -4.0560   26.0220 F   0  0  0  0  0  0  0  0  0  0  0  0
  -22.9940  -13.7090   21.2090 C   0  0  0  0  0  0  0  0  0  0  0  0
  -22.2820  -13.0130   22.0860 N   0  0  0  0  0  0  0  0  0  0  0  0
  -22.5620  -14.7550   20.7260 O   0  0  0  0  0  0  0  0  0  0  0  0
  -22.6380  -12.1680   22.5060 H   0  0  0  0  0  0  0  0  0  0  0  0
  -21.3620  -13.3350   22.3490 H   0  0  0  0  0  0  0  0  0  0  0  0
  -25.6190  -15.3440   20.3100 N   0  0  0  0  0  0  0  0  0  0  0  0
  -24.8640  -16.0060   20.4540 H   0  0  0  0  0  0  0  0  0  0  0  0
  -26.4500  -15.7690   19.9230 H   0  0  0  0  0  0  0  0  0  0  0  0
  -28.3310  -26.5220   20.2730 O   0  0  0  0  0  0  0  0  0  0  0  0
  -24.5140  -31.9710   23.3120 C   0  0  0  0  0  0  0  0  0  0  0  0
  -27.1630  -27.3130   20.3860 C   0  0  0  0  0  0  0  0  0  0  0  0
  -23.3340  -30.5530   21.6690 C   0  0  0  0  0  3  0  0  0  0  0  0
  -24.8020  -28.9600   20.3060 C   0  0  0  0  0  0  0  0  0  0  0  0
  -25.8790  -30.8410   21.5370 C   0  0  0  0  0  2  0  0  0  0  0  0
  -25.9610  -29.4420   20.9280 C   0  0  0  0  0  0  0  0  0  0  0  0
  -27.1410  -28.6300   20.9610 C   0  0  0  0  0  3  0  0  0  0  0  0
  -25.9890  -26.9110   19.7170 C   0  0  0  0  0  3  0  0  0  0  0  0
  -24.8220  -27.6990   19.6900 C   0  0  0  0  0  3  0  0  0  0  0  0
  -23.5730  -29.8500   20.3060 C   0  0  0  0  0  2  0  0  0  0  0  0
  -24.5930  -31.1430   22.2280 N   0  0  0  0  0  0  0  0  0  0  0  0
  -23.4230  -32.2630   23.8210 O   0  0  0  0  0  0  0  0  0  0  0  0
  -22.6450  -29.5560   22.6350 C   0  0  0  0  0  0  0  0  0  0  0  0
  -21.3230  -29.3730   22.4760 N   0  0  0  0  0  0  0  0  0  0  0  0
  -23.3010  -28.9450   23.4830 O   0  0  0  0  0  0  0  0  0  0  0  0
  -20.8530  -29.9130   21.7650 H   0  0  0  0  0  0  0  0  0  0  0  0
  -17.9300  -28.2100   22.9640 C   0  0  0  0  0  0  0  0  0  0  0  0
  -20.4900  -28.4410   23.2430 C   0  0  0  0  0  3  0  0  0  0  0  0
  -20.5780  -27.0090   22.6680 C   0  0  0  0  0  2  0  0  0  0  0  0
  -19.4730  -26.6920   21.6530 C   0  0  0  0  0  2  0  0  0  0  0  0
  -18.0940  -26.8560   22.2930 C   0  0  0  0  0  2  0  0  0  0  0  0
  -19.0560  -28.9600   23.3980 C   0  0  0  0  0  0  0  0  0  0  0  0
  -18.8530  -30.2240   23.9890 C   0  0  0  0  0  3  0  0  0  0  0  0
  -17.5540  -30.7410   24.1510 C   0  0  0  0  0  3  0  0  0  0  0  0
  -16.4440  -29.9900   23.7310 C   0  0  0  0  0  3  0  0  0  0  0  0
  -16.6290  -28.7280   23.1420 C   0  0  0  0  0  3  0  0  0  0  0  0
  -25.7890  -32.6070   23.9470 C   0  0  0  0  0  3  0  0  0  0  0  0
  -25.4770  -34.0110   24.2530 N   0  0  0  0  0  0  0  0  0  0  0  0
  -25.8040  -35.0500   23.4730 C   0  0  0  0  0  0  0  0  0  0  0  0
  -26.4750  -34.9280   22.4430 O   0  0  0  0  0  0  0  0  0  0  0  0
  -24.8850  -34.1760   25.0530 H   0  0  0  0  0  0  0  0  0  0  0  0
  -24.0740  -36.8340   23.0940 C   0  0  0  0  0  1  0  0  0  0  0  0
  -25.3200  -36.4450   23.9050 C   0  0  0  0  0  3  0  0  0  0  0  0
  -27.4570  -37.3520   24.7050 C   0  0  0  0  0  1  0  0  0  0  0  0
  -26.3500  -37.4980   23.7630 N   0  0  0  0  0  0  0  0  0  0  0  0
  -25.9430  -38.4210   23.8880 H   0  0  0  0  0  0  0  0  0  0  0  0
  -26.2740  -31.8530   25.2460 C   0  0  1  0  0  0  0  0  0  0  0  0
  -25.1490  -31.6100   26.2800 C   0  0  0  0  0  1  0  0  0  0  0  0
  -26.8940  -30.4800   24.8920 C   0  0  0  0  0  1  0  0  0  0  0  0
  -27.3870  -32.6740   25.9390 C   0  0  0  0  0  1  0  0  0  0  0  0
  1  4  2  0
  1  3  1  0
  2  5  1  0
  2 12  1  0
  6  5  1  0
  6  7  1  0
  8  7  1  0
  9 10  1  0
 10 17  1  0
 10  4  1  0
 11  8  1  0
 11  2  1  0
 11  9  1  0
 12  1  1  0
 13 12  1  0
 15 14  2  0
 16 14  1  0
 17 15  1  0
 18 16  2  0
 19 17  2  0
 19 18  1  0
 20 19  1  0
 21 29  1  0
 22 27  1  0
 23 24  1  0
 23 22  1  0
 25 24  1  0
 25 34  1  0
 25 26  1  0
 27 21  1  0
 27 26  1  0
 28 21  2  0
 29 18  1  0
 30 29  1  0
 31 32  2  0
 32 51  1  0
 33 32  1  0
 33 36  1  0
 34 35  1  0
 34 31  1  0
 35 33  2  0
 36 37  1  0
 37 38  2  0
 39 42  1  0
 39 38  1  0
 40 39  2  0
 41 40  1  0
 41 36  2  0
 42 43  1  0
 43 44  1  0
 44 45  2  0
 46 45  1  0
 46 50  1  0
 47 46  2  0
 48 43  2  0
 48 47  1  0
 49 48  1  0
 51 52  1  0
 52 55  1  0
 52 54  1  0
 53 51  2  0
 56 57  1  0
 56 31  1  0
 58 56  1  0
 59 61  1  0
 59  3  1  0
 60 71  2  0
 61 66  1  0
 62 70  1  0
 62 72  1  0
 63 69  1  0
 63 65  1  0
 64 70  1  0
 65 66  2  0
 65 64  1  0
 67 61  2  0
 68 67  1  0
 68 63  2  0
 69 62  1  0
 70 60  1  0
 72 74  2  0
 73 72  1  0
 75 73  1  0
 76 85  2  0
 76 81  1  0
 77 73  1  0
 77 81  1  0
 78 77  1  0
 79 80  1  0
 79 78  1  0
 80 76  1  0
 81 82  2  0
 82 83  1  0
 84 83  2  0
 85 84  1  0
 86 60  1  0
 86 87  1  0
 86 96  1  0
 87 90  1  0
 88 92  1  0
 88 87  1  0
 89 88  2  0
 92 91  1  0
 94 95  1  0
 94 92  1  0
 94 93  1  0
 96 99  1  1
 96 97  1  0
 98 96  1  0
M  ISO  4   3 101  21 100  29 100  59 101
M  END
>  <TORSDO>  (42) 
F 17

>  <SCORE>  (42) 
-15.691

>  <name>  (42) 
41

>  <ligand_id>  (42) 
41

>  <original_smiles>  (42) 
[H]C(Oc1c([H])c([H])c2c(c1[H])C([H])([H])N(C(=O)C([H])(N([H])C(=O)C([H])(N([H])C([H])([H])[H])C([H])([H])[H])C(C([H])([H])[H])(C([H])([H])[H])C([H])([H])[H])C([H])(C(=O)N([H])C1([H])c3c([H])c([H])c([H])c([H])c3C([H])([H])C([H])([H])C1([H])[H])C2([H])[H])=C1[N+]([H])=C2N(C([H])([H])N(c3c([H])c([H])c([H])c(N([H])C(=O)N4C([H])([H])C([H])([H])C([H])([H])C([H])(n5nc(-c6c([H])c([H])c(Oc7c([H])c([H])c(F)c([H])c7F)c([H])c6[H])c(C(=O)N([H])[H])c5N([H])[H])C4([H])[H])c3F)C1([H])[H])C([H])([H])C([H])([H])C([H])([H])C2([H])[H]

>  <smiles>  (42) 
[H]C(Oc1c([H])c([H])c2c(c1[H])C([H])([H])N(C(=O)C([H])(N([H])C(=O)C([H])(N([H])C([H])([H])[H])C([H])([H])[H])C(C([H])([H])[H])(C([H])([H])[H])C([H])([H])[H])C([H])(C(=O)N([H])C1([H])c3c([H])c([H])c([H])c([H])c3C([H])([H])C([H])([H])C1([H])[H])C2([H])[H])=C1[N+]([H])=C2N(C([H])([H])N(c3c([H])c([H])c([H])c(N([H])C(=O)N4C([H])([H])C([H])([H])C([H])([H])C([H])(n5nc(-c6c([H])c([H])c(Oc7c([H])c([H])c(F)c([H])c7F)c([H])c6[H])c(C(=O)N([H])[H])c5N([H])[H])C4([H])[H])c3F)C1([H])[H])C([H])([H])C([H])([H])C([H])([H])C2([H])[H]

$$$$
42:0:0
     RDKit          3D

 90 98  0  0  1  0  0  0  0  0999 V2000
  -28.8300  -21.3240   20.7950 C   0  0  0  0  0  0  0  0  0  0  0  0
  -27.9250  -21.1510   21.6130 O   0  0  0  0  0  0  0  0  0  0  0  0
  -32.0410  -19.2830   20.1510 C   0  0  0  0  0  3  0  0  0  0  0  0
  -31.1220  -20.3370   20.2990 C   0  0  0  0  0  3  0  0  0  0  0  0
  -31.6440  -17.9320   20.2230 C   0  0  0  0  0  3  0  0  0  0  0  0
  -29.3660  -18.6710   20.5940 C   0  0  0  0  0  3  0  0  0  0  0  0
  -29.7530  -20.0860   20.5230 C   0  0  0  0  0  0  0  0  0  0  0  0
  -30.2990  -17.5440   20.4410 C   0  0  0  0  0  0  0  0  0  0  0  0
  -30.6680  -14.9120   20.2390 C   0  0  0  0  0  0  0  0  0  0  0  0
  -30.4220  -12.6370   19.2090 C   0  0  0  0  0  2  0  0  0  0  0  0
  -29.4520  -12.7090   18.0100 C   0  0  0  0  0  2  0  0  0  0  0  0
  -28.0000  -12.5130   18.4830 C   0  0  0  0  0  2  0  0  0  0  0  0
  -27.6550  -13.3950   19.7120 C   0  0  0  0  0  3  0  0  0  0  0  0
  -28.7450  -13.3250   20.8040 C   0  0  0  0  0  2  0  0  0  0  0  0
  -30.0190  -13.6930   20.1740 N   0  0  0  0  0  0  0  0  0  0  0  0
  -31.8470  -14.9510   19.8770 O   0  0  0  0  0  0  0  0  0  0  0  0
  -29.9390  -16.0810   20.5140 N   0  0  0  0  0  0  0  0  0  0  0  0
  -28.9800  -15.8940   20.7570 H   0  0  0  0  0  0  0  0  0  0  0  0
  -25.2900  -13.9640   20.5140 C   0  0  0  0  0  0  0  0  0  0  0  0
  -24.2370  -13.1800   20.9020 C   0  0  0  0  0  0  0  0  0  0  0  0
  -24.7050  -11.8310   20.8420 C   0  0  0  0  0  0  0  0  0  0  0  0
  -26.3290  -13.0910   20.2370 N   0  0  0  0  0  0  0  0  0  0  0  0
  -25.9870  -11.8020   20.4990 N   0  0  0  0  0  0  0  0  0  0  0  0
  -23.9870  -10.5630   21.0310 C   0  0  0  0  0  0  0  0  0  0  0  0
  -24.4330   -9.5950   21.9580 C   0  0  0  0  0  3  0  0  0  0  0  0
  -23.7130   -8.3930   22.1390 C   0  0  0  0  0  3  0  0  0  0  0  0
  -22.5340   -8.1520   21.3940 C   0  0  0  0  0  0  0  0  0  0  0  0
  -22.1080   -9.1090   20.4550 C   0  0  0  0  0  3  0  0  0  0  0  0
  -22.8280  -10.3010   20.2740 C   0  0  0  0  0  3  0  0  0  0  0  0
  -21.7860   -7.0010   21.4840 O   0  0  0  0  0  0  0  0  0  0  0  0
  -21.7370   -6.2650   22.6400 C   0  0  0  0  0  0  0  0  0  0  0  0
  -21.2780   -6.8160   23.8560 C   0  0  0  0  0  3  0  0  0  0  0  0
  -21.1780   -6.0040   25.0040 C   0  0  0  0  0  3  0  0  0  0  0  0
  -21.5280   -4.6410   24.9360 C   0  0  0  0  0  0  0  0  0  0  0  0
  -21.9790   -4.0900   23.7240 C   0  0  0  0  0  3  0  0  0  0  0  0
  -22.0810   -4.8990   22.5790 C   0  0  0  0  0  0  0  0  0  0  0  0
  -22.4970   -4.3580   21.4080 F   0  0  0  0  0  0  0  0  0  0  0  0
  -21.4240   -3.8580   26.0350 F   0  0  0  0  0  0  0  0  0  0  0  0
  -22.8460  -13.6470   21.2150 C   0  0  0  0  0  0  0  0  0  0  0  0
  -22.1440  -12.9340   22.0870 N   0  0  0  0  0  0  0  0  0  0  0  0
  -22.3920  -14.6780   20.7200 O   0  0  0  0  0  0  0  0  0  0  0  0
  -22.5250  -12.0970   22.5060 H   0  0  0  0  0  0  0  0  0  0  0  0
  -21.2110  -13.2270   22.3400 H   0  0  0  0  0  0  0  0  0  0  0  0
  -25.4430  -15.3370   20.3440 N   0  0  0  0  0  0  0  0  0  0  0  0
  -24.6730  -15.9860   20.4630 H   0  0  0  0  0  0  0  0  0  0  0  0
  -26.2700  -15.7740   19.9570 H   0  0  0  0  0  0  0  0  0  0  0  0
  -28.5090  -23.7240   20.4950 C   0  0  0  0  0  3  0  0  0  0  0  0
  -29.0530  -22.5740   20.1090 N   0  0  0  0  0  0  0  0  0  0  0  0
  -28.5240  -25.1150   19.6680 C   0  0  0  0  0  2  0  0  0  0  0  0
  -28.3910  -26.4790   20.3050 O   0  0  0  0  0  0  0  0  0  0  0  0
  -24.6150  -31.9220   23.2290 C   0  0  0  0  0  0  0  0  0  0  0  0
  -27.2700  -27.3390   20.1870 C   0  0  0  0  0  0  0  0  0  0  0  0
  -23.4300  -30.5160   21.5780 C   0  0  0  0  0  3  0  0  0  0  0  0
  -24.8990  -28.9750   20.1490 C   0  0  0  0  0  0  0  0  0  0  0  0
  -25.9680  -30.8460   21.4060 C   0  0  0  0  0  2  0  0  0  0  0  0
  -26.0620  -29.4640   20.7570 C   0  0  0  0  0  0  0  0  0  0  0  0
  -27.2440  -28.6560   20.7660 C   0  0  0  0  0  3  0  0  0  0  0  0
  -26.0790  -26.9180   19.5540 C   0  0  0  0  0  3  0  0  0  0  0  0
  -24.9150  -27.7130   19.5370 C   0  0  0  0  0  3  0  0  0  0  0  0
  -23.6540  -29.8430   20.1980 C   0  0  0  0  0  2  0  0  0  0  0  0
  -24.6900  -31.1160   22.1270 N   0  0  0  0  0  0  0  0  0  0  0  0
  -23.5270  -32.1870   23.7630 O   0  0  0  0  0  0  0  0  0  0  0  0
  -22.7700  -29.4950   22.5390 C   0  0  0  0  0  0  0  0  0  0  0  0
  -21.4420  -29.3150   22.4170 N   0  0  0  0  0  0  0  0  0  0  0  0
  -23.4520  -28.8680   23.3540 O   0  0  0  0  0  0  0  0  0  0  0  0
  -20.9500  -29.8740   21.7330 H   0  0  0  0  0  0  0  0  0  0  0  0
  -18.0720  -28.1020   22.9280 C   0  0  0  0  0  0  0  0  0  0  0  0
  -20.6320  -28.3670   23.1840 C   0  0  0  0  0  3  0  0  0  0  0  0
  -20.7300  -26.9420   22.5920 C   0  0  0  0  0  2  0  0  0  0  0  0
  -19.6240  -26.6280   21.5790 C   0  0  0  0  0  2  0  0  0  0  0  0
  -18.2460  -26.7620   22.2340 C   0  0  0  0  0  2  0  0  0  0  0  0
  -19.1920  -28.8630   23.3580 C   0  0  0  0  0  0  0  0  0  0  0  0
  -18.9730  -30.1180   23.9660 C   0  0  0  0  0  3  0  0  0  0  0  0
  -17.6660  -30.6130   24.1470 C   0  0  0  0  0  3  0  0  0  0  0  0
  -16.5620  -29.8480   23.7330 C   0  0  0  0  0  3  0  0  0  0  0  0
  -16.7660  -28.5950   23.1290 C   0  0  0  0  0  3  0  0  0  0  0  0
  -25.8870  -32.5670   23.8590 C   0  0  0  0  0  3  0  0  0  0  0  0
  -26.3960  -31.8080   25.1460 C   0  0  1  0  0  0  0  0  0  0  0  0
  -25.2960  -31.5690   26.2070 C   0  0  0  0  0  1  0  0  0  0  0  0
  -26.9920  -30.4310   24.7700 C   0  0  0  0  0  1  0  0  0  0  0  0
  -27.5350  -32.6140   25.8160 C   0  0  0  0  0  1  0  0  0  0  0  0
  -25.5670  -33.9650   24.1800 N   0  0  0  0  0  0  0  0  0  0  0  0
  -25.9020  -35.0180   23.4220 C   0  0  0  0  0  0  0  0  0  0  0  0
  -26.5800  -34.9120   22.3950 O   0  0  0  0  0  0  0  0  0  0  0  0
  -24.9650  -34.1180   24.9750 H   0  0  0  0  0  0  0  0  0  0  0  0
  -24.1760  -36.8130   23.0440 C   0  0  0  0  0  1  0  0  0  0  0  0
  -25.4080  -36.4080   23.8710 C   0  0  0  0  0  3  0  0  0  0  0  0
  -27.5250  -37.3030   24.7370 C   0  0  0  0  0  1  0  0  0  0  0  0
  -26.4430  -37.4600   23.7680 N   0  0  0  0  0  0  0  0  0  0  0  0
  -26.0340  -38.3820   23.8950 H   0  0  0  0  0  0  0  0  0  0  0  0
  1  2  2  0
  3  5  2  0
  3  4  1  0
  4  7  2  0
  5  8  1  0
  7  6  1  0
  7  1  1  0
  8 17  1  0
  8  6  2  0
  9 17  1  0
 10 15  1  0
 11 12  1  0
 11 10  1  0
 13 12  1  0
 13 22  1  0
 13 14  1  0
 15  9  1  0
 15 14  1  0
 16  9  2  0
 17 18  1  0
 19 20  2  0
 20 39  1  0
 21 20  1  0
 21 24  1  0
 22 23  1  0
 22 19  1  0
 23 21  2  0
 24 25  1  0
 25 26  2  0
 27 30  1  0
 27 26  1  0
 28 27  2  0
 29 28  1  0
 29 24  2  0
 30 31  1  0
 31 32  1  0
 32 33  2  0
 34 33  1  0
 34 38  1  0
 35 34  2  0
 36 31  2  0
 36 35  1  0
 37 36  1  0
 39 40  1  0
 40 43  1  0
 40 42  1  0
 41 39  2  0
 44 45  1  0
 44 19  1  0
 46 44  1  0
 48 47  2  0
 48  1  1  0
 49 50  1  0
 49 47  1  0
 51 62  2  0
 52 50  1  0
 52 57  1  0
 53 61  1  0
 53 63  1  0
 54 60  1  0
 54 56  1  0
 55 61  1  0
 56 57  2  0
 56 55  1  0
 58 52  2  0
 59 58  1  0
 59 54  2  0
 60 53  1  0
 61 51  1  0
 63 65  2  0
 64 63  1  0
 66 64  1  0
 67 76  2  0
 67 72  1  0
 68 64  1  0
 68 72  1  0
 69 68  1  0
 70 71  1  0
 70 69  1  0
 71 67  1  0
 72 73  2  0
 73 74  1  0
 75 74  2  0
 76 75  1  0
 77 51  1  0
 77 82  1  0
 77 78  1  0
 78 81  1  1
 78 79  1  0
 80 78  1  0
 82 85  1  0
 83 87  1  0
 83 82  1  0
 84 83  2  0
 87 86  1  0
 89 87  1  0
 89 90  1  0
 89 88  1  0
M  ISO  4   9 100  17 100  49 101  50 101
M  END
>  <TORSDO>  (43) 
F 19

>  <SCORE>  (43) 
-14.130

>  <name>  (43) 
42

>  <ligand_id>  (43) 
42

>  <original_smiles>  (43) 
[H]C(=NC(=O)c1c([H])c([H])c([H])c(N([H])C(=O)N2C([H])([H])C([H])([H])C([H])([H])C([H])(n3nc(-c4c([H])c([H])c(Oc5c([H])c([H])c(F)c([H])c5F)c([H])c4[H])c(C(=O)N([H])[H])c3N([H])[H])C2([H])[H])c1[H])C([H])([H])Oc1c([H])c([H])c2c(c1[H])C([H])([H])N(C(=O)C([H])(N([H])C(=O)C([H])(N([H])C([H])([H])[H])C([H])([H])[H])C(C([H])([H])[H])(C([H])([H])[H])C([H])([H])[H])C([H])(C(=O)N([H])C1([H])c3c([H])c([H])c([H])c([H])c3C([H])([H])C([H])([H])C1([H])[H])C2([H])[H]

>  <smiles>  (43) 
[H]C(=NC(=O)c1c([H])c([H])c([H])c(N([H])C(=O)N2C([H])([H])C([H])([H])C([H])([H])C([H])(n3nc(-c4c([H])c([H])c(Oc5c([H])c([H])c(F)c([H])c5F)c([H])c4[H])c(C(=O)N([H])[H])c3N([H])[H])C2([H])[H])c1[H])C([H])([H])Oc1c([H])c([H])c2c(c1[H])C([H])([H])N(C(=O)C([H])(N([H])C(=O)C([H])(N([H])C([H])([H])[H])C([H])([H])[H])C(C([H])([H])[H])(C([H])([H])[H])C([H])([H])[H])C([H])(C(=O)N([H])C1([H])c3c([H])c([H])c([H])c([H])c3C([H])([H])C([H])([H])C1([H])[H])C2([H])[H]

$$$$
43:0:0
     RDKit          3D

 90 98  0  0  1  0  0  0  0  0999 V2000
  -29.3100  -20.0570   21.5180 C   0  0  0  0  0  3  0  0  0  0  0  0
  -29.4780  -18.6120   21.3680 C   0  0  0  0  0  3  0  0  0  0  0  0
  -30.3250  -18.9900   19.2140 C   0  0  0  0  0  3  0  0  0  0  0  0
  -29.6150  -21.0650   20.5280 C   0  0  0  0  0  0  0  0  0  0  0  0
  -30.0090  -17.9720   20.1980 C   0  0  0  0  0  0  0  0  0  0  0  0
  -30.1510  -20.4310   19.3570 C   0  0  0  0  0  0  0  0  0  0  0  0
  -30.5690  -21.2230   18.3410 F   0  0  0  0  0  0  0  0  0  0  0  0
  -30.7810  -15.2980   20.2520 C   0  0  0  0  0  0  0  0  0  0  0  0
  -30.7180  -12.9030   19.3860 C   0  0  0  0  0  2  0  0  0  0  0  0
  -29.7690  -12.7330   18.1750 C   0  0  0  0  0  2  0  0  0  0  0  0
  -28.3080  -12.5390   18.6290 C   0  0  0  0  0  2  0  0  0  0  0  0
  -27.8880  -13.4830   19.7850 C   0  0  0  0  0  3  0  0  0  0  0  0
  -28.9640  -13.5850   20.8860 C   0  0  0  0  0  2  0  0  0  0  0  0
  -30.2050  -14.0200   20.2270 N   0  0  0  0  0  0  0  0  0  0  0  0
  -32.0140  -15.3430   20.1730 O   0  0  0  0  0  0  0  0  0  0  0  0
  -29.9960  -16.4510   19.8670 N   0  0  0  0  0  0  0  0  0  0  0  0
  -25.5250  -14.0480   20.5770 C   0  0  0  0  0  0  0  0  0  0  0  0
  -24.4670  -13.2620   20.9390 C   0  0  0  0  0  0  0  0  0  0  0  0
  -24.9370  -11.9140   20.8780 C   0  0  0  0  0  0  0  0  0  0  0  0
  -26.5670  -13.1760   20.3100 N   0  0  0  0  0  0  0  0  0  0  0  0
  -26.2240  -11.8880   20.5590 N   0  0  0  0  0  0  0  0  0  0  0  0
  -24.2210  -10.6450   21.0460 C   0  0  0  0  0  0  0  0  0  0  0  0
  -24.6400   -9.6820   21.9900 C   0  0  0  0  0  3  0  0  0  0  0  0
  -23.9220   -8.4760   22.1480 C   0  0  0  0  0  3  0  0  0  0  0  0
  -22.7740   -8.2260   21.3590 C   0  0  0  0  0  0  0  0  0  0  0  0
  -22.3770   -9.1770   20.4040 C   0  0  0  0  0  3  0  0  0  0  0  0
  -23.0940  -10.3750   20.2440 C   0  0  0  0  0  3  0  0  0  0  0  0
  -22.0300   -7.0730   21.4260 O   0  0  0  0  0  0  0  0  0  0  0  0
  -21.9140   -6.3600   22.5920 C   0  0  0  0  0  0  0  0  0  0  0  0
  -21.3220   -6.9140   23.7490 C   0  0  0  0  0  3  0  0  0  0  0  0
  -21.1590   -6.1230   24.9030 C   0  0  0  0  0  3  0  0  0  0  0  0
  -21.5770   -4.7790   24.9010 C   0  0  0  0  0  0  0  0  0  0  0  0
  -22.1630   -4.2250   23.7490 C   0  0  0  0  0  3  0  0  0  0  0  0
  -22.3280   -5.0130   22.5980 C   0  0  0  0  0  0  0  0  0  0  0  0
  -22.8720   -4.4690   21.4830 F   0  0  0  0  0  0  0  0  0  0  0  0
  -21.4130   -4.0160   26.0070 F   0  0  0  0  0  0  0  0  0  0  0  0
  -23.0690  -13.7260   21.2280 C   0  0  0  0  0  0  0  0  0  0  0  0
  -22.3580  -13.0200   22.1000 N   0  0  0  0  0  0  0  0  0  0  0  0
  -22.6160  -14.7510   20.7170 O   0  0  0  0  0  0  0  0  0  0  0  0
  -22.7370  -12.1930   22.5340 H   0  0  0  0  0  0  0  0  0  0  0  0
  -21.4200  -13.3120   22.3370 H   0  0  0  0  0  0  0  0  0  0  0  0
  -25.6830  -15.4230   20.4260 N   0  0  0  0  0  0  0  0  0  0  0  0
  -24.9220  -16.0770   20.5620 H   0  0  0  0  0  0  0  0  0  0  0  0
  -26.5380  -15.8640   20.1090 H   0  0  0  0  0  0  0  0  0  0  0  0
  -28.2210  -16.8190   18.2150 C   0  0  0  0  0  2  0  0  0  0  0  0
  -29.3810  -16.2620   18.6130 C   0  0  0  0  0  3  0  0  0  0  0  0
  -29.4120  -23.8170   20.7430 C   0  0  0  0  0  3  0  0  0  0  0  0
  -29.7790  -22.5110   20.9000 N   0  0  0  0  0  0  0  0  0  0  0  0
  -28.3520  -24.8980   20.0690 C   0  0  0  0  0  2  0  0  0  0  0  0
  -28.4860  -26.4310   20.3620 O   0  0  0  0  0  0  0  0  0  0  0  0
  -24.7060  -32.0130   23.3340 C   0  0  0  0  0  0  0  0  0  0  0  0
  -27.3970  -27.3750   20.2830 C   0  0  0  0  0  0  0  0  0  0  0  0
  -23.5420  -30.6060   21.6760 C   0  0  0  0  0  3  0  0  0  0  0  0
  -25.0290  -29.0690   20.2470 C   0  0  0  0  0  0  0  0  0  0  0  0
  -26.0900  -30.9240   21.5270 C   0  0  0  0  0  2  0  0  0  0  0  0
  -26.1940  -29.5380   20.8650 C   0  0  0  0  0  0  0  0  0  0  0  0
  -27.3770  -28.7070   20.8660 C   0  0  0  0  0  3  0  0  0  0  0  0
  -26.2050  -27.0060   19.6240 C   0  0  0  0  0  3  0  0  0  0  0  0
  -25.0480  -27.8170   19.6090 C   0  0  0  0  0  3  0  0  0  0  0  0
  -23.7830  -29.9400   20.2940 C   0  0  0  0  0  2  0  0  0  0  0  0
  -24.7990  -31.2030   22.2340 N   0  0  0  0  0  0  0  0  0  0  0  0
  -23.6120  -32.2730   23.8570 O   0  0  0  0  0  0  0  0  0  0  0  0
  -22.8770  -29.5810   22.6290 C   0  0  0  0  0  0  0  0  0  0  0  0
  -21.5620  -29.3520   22.4620 N   0  0  0  0  0  0  0  0  0  0  0  0
  -23.5480  -28.9930   23.4810 O   0  0  0  0  0  0  0  0  0  0  0  0
  -21.0760  -29.8800   21.7500 H   0  0  0  0  0  0  0  0  0  0  0  0
  -18.2250  -28.0000   22.8580 C   0  0  0  0  0  0  0  0  0  0  0  0
  -20.7570  -28.3880   23.2160 C   0  0  0  0  0  3  0  0  0  0  0  0
  -20.9470  -26.9540   22.6680 C   0  0  0  0  0  2  0  0  0  0  0  0
  -19.9010  -26.5650   21.6190 C   0  0  0  0  0  2  0  0  0  0  0  0
  -18.4900  -26.6530   22.2090 C   0  0  0  0  0  2  0  0  0  0  0  0
  -19.2890  -28.8210   23.3170 C   0  0  0  0  0  0  0  0  0  0  0  0
  -18.9870  -30.0780   23.8830 C   0  0  0  0  0  3  0  0  0  0  0  0
  -17.6530  -30.5160   23.9960 C   0  0  0  0  0  3  0  0  0  0  0  0
  -16.6040  -29.6930   23.5530 C   0  0  0  0  0  3  0  0  0  0  0  0
  -16.8900  -28.4360   22.9890 C   0  0  0  0  0  3  0  0  0  0  0  0
  -25.9680  -32.6680   23.9740 C   0  0  0  0  0  3  0  0  0  0  0  0
  -26.4610  -31.9220   25.2750 C   0  0  1  0  0  0  0  0  0  0  0  0
  -25.3400  -31.6700   26.3110 C   0  0  0  0  0  1  0  0  0  0  0  0
  -27.0890  -30.5550   24.9220 C   0  0  0  0  0  1  0  0  0  0  0  0
  -27.5710  -32.7520   25.9640 C   0  0  0  0  0  1  0  0  0  0  0  0
  -25.6390  -34.0690   24.2800 N   0  0  0  0  0  0  0  0  0  0  0  0
  -25.9420  -35.1150   23.4980 C   0  0  0  0  0  0  0  0  0  0  0  0
  -26.5930  -35.0020   22.4560 O   0  0  0  0  0  0  0  0  0  0  0  0
  -25.0580  -34.2300   25.0890 H   0  0  0  0  0  0  0  0  0  0  0  0
  -24.1720  -36.8720   23.1620 C   0  0  0  0  0  1  0  0  0  0  0  0
  -25.4450  -36.5060   23.9410 C   0  0  0  0  0  3  0  0  0  0  0  0
  -27.5780  -37.4600   24.6980 C   0  0  0  0  0  1  0  0  0  0  0  0
  -26.4550  -37.5730   23.7700 N   0  0  0  0  0  0  0  0  0  0  0  0
  -26.0340  -38.4900   23.8920 H   0  0  0  0  0  0  0  0  0  0  0  0
  2  1  1  0
  3  6  2  0
  3  5  1  0
  4 48  1  0
  4  1  2  0
  5  2  2  0
  6  4  1  0
  7  6  1  0
  9 14  1  0
 10 11  1  0
 10  9  1  0
 12 11  1  0
 12 20  1  0
 12 13  1  0
 14  8  1  0
 14 13  1  0
 15  8  2  0
 16  5  1  0
 16  8  1  0
 17 18  2  0
 18 37  1  0
 19 18  1  0
 19 22  1  0
 20 21  1  0
 20 17  1  0
 21 19  2  0
 22 23  1  0
 23 24  2  0
 25 28  1  0
 25 24  1  0
 26 25  2  0
 27 26  1  0
 27 22  2  0
 28 29  1  0
 29 34  2  0
 29 30  1  0
 30 31  2  0
 32 31  1  0
 32 36  1  0
 33 32  2  0
 34 33  1  0
 35 34  1  0
 37 38  1  0
 38 41  1  0
 38 40  1  0
 39 37  2  0
 42 43  1  0
 42 17  1  0
 44 42  1  0
 45 46  2  0
 46 16  1  0
 47 48  2  0
 49 50  1  0
 49 47  1  0
 51 62  2  0
 52 50  1  0
 52 57  1  0
 53 61  1  0
 53 63  1  0
 54 60  1  0
 54 56  1  0
 55 61  1  0
 56 57  2  0
 56 55  1  0
 58 52  2  0
 59 58  1  0
 59 54  2  0
 60 53  1  0
 61 51  1  0
 63 65  2  0
 64 63  1  0
 66 64  1  0
 67 76  2  0
 67 72  1  0
 68 64  1  0
 68 72  1  0
 69 68  1  0
 70 71  1  0
 70 69  1  0
 71 67  1  0
 72 73  2  0
 73 74  1  0
 75 74  2  0
 76 75  1  0
 77 51  1  0
 77 82  1  0
 77 78  1  0
 78 81  1  1
 78 79  1  0
 80 78  1  0
 82 85  1  0
 83 87  1  0
 83 82  1  0
 84 83  2  0
 87 86  1  0
 89 90  1  0
 89 87  1  0
 89 88  1  0
M  ISO  4   8 100  16 100  49 101  50 101
M  END
>  <TORSDO>  (44) 
F 19

>  <SCORE>  (44) 
-12.553

>  <name>  (44) 
43

>  <ligand_id>  (44) 
43

>  <original_smiles>  (44) 
[H]C(=Nc1c([H])c([H])c(N(C(=O)N2C([H])([H])C([H])([H])C([H])([H])C([H])(n3nc(-c4c([H])c([H])c(Oc5c([H])c([H])c(F)c([H])c5F)c([H])c4[H])c(C(=O)N([H])[H])c3N([H])[H])C2([H])[H])C([H])=C([H])[H])c([H])c1F)C([H])([H])Oc1c([H])c([H])c2c(c1[H])C([H])([H])N(C(=O)C([H])(N([H])C(=O)C([H])(N([H])C([H])([H])[H])C([H])([H])[H])C(C([H])([H])[H])(C([H])([H])[H])C([H])([H])[H])C([H])(C(=O)N([H])C1([H])c3c([H])c([H])c([H])c([H])c3C([H])([H])C([H])([H])C1([H])[H])C2([H])[H]

>  <smiles>  (44) 
[H]C(=Nc1c([H])c([H])c(N(C(=O)N2C([H])([H])C([H])([H])C([H])([H])C([H])(n3nc(-c4c([H])c([H])c(Oc5c([H])c([H])c(F)c([H])c5F)c([H])c4[H])c(C(=O)N([H])[H])c3N([H])[H])C2([H])[H])C([H])=C([H])[H])c([H])c1F)C([H])([H])Oc1c([H])c([H])c2c(c1[H])C([H])([H])N(C(=O)C([H])(N([H])C(=O)C([H])(N([H])C([H])([H])[H])C([H])([H])[H])C(C([H])([H])[H])(C([H])([H])[H])C([H])([H])[H])C([H])(C(=O)N([H])C1([H])c3c([H])c([H])c([H])c([H])c3C([H])([H])C([H])([H])C1([H])[H])C2([H])[H]

$$$$
44:0:0
     RDKit          3D

 97105  0  0  1  0  0  0  0  0999 V2000
  -28.7710  -20.8690   20.6790 C   0  0  0  0  0  0  0  0  0  0  0  0
  -28.5420  -23.3280   20.3350 C   0  0  0  0  0  0  0  0  0  0  0  0
  -28.9930  -22.0630   20.0430 N   0  0  0  0  0  0  0  0  0  0  0  0
  -27.8290  -20.6910   21.4600 O   0  0  0  0  0  0  0  0  0  0  0  0
  -27.9660  -23.6250   21.3870 O   0  0  0  0  0  0  0  0  0  0  0  0
  -29.6060  -22.0010   19.2460 H   0  0  0  0  0  0  0  0  0  0  0  0
  -31.0970  -20.0450   20.1560 C   0  0  0  0  0  3  0  0  0  0  0  0
  -31.7510  -17.6930   20.2190 C   0  0  0  0  0  3  0  0  0  0  0  0
  -29.7490  -19.7130   20.4100 C   0  0  0  0  0  0  0  0  0  0  0  0
  -32.0850  -19.0530   20.0710 C   0  0  0  0  0  0  0  0  0  0  0  0
  -30.4100  -17.2720   20.4160 C   0  0  0  0  0  0  0  0  0  0  0  0
  -29.4190  -18.3100   20.5220 C   0  0  0  0  0  0  0  0  0  0  0  0
  -28.1340  -17.9280   20.7360 F   0  0  0  0  0  0  0  0  0  0  0  0
  -30.7270  -14.7270   20.1430 C   0  0  0  0  0  0  0  0  0  0  0  0
  -30.3770  -12.5370   19.0400 C   0  0  0  0  0  2  0  0  0  0  0  0
  -29.3920  -12.7270   17.8680 C   0  0  0  0  0  2  0  0  0  0  0  0
  -27.9420  -12.5700   18.3610 C   0  0  0  0  0  2  0  0  0  0  0  0
  -27.6510  -13.3940   19.6460 C   0  0  0  0  0  3  0  0  0  0  0  0
  -28.7610  -13.2200   20.7070 C   0  0  0  0  0  2  0  0  0  0  0  0
  -30.0410  -13.5440   20.0670 N   0  0  0  0  0  0  0  0  0  0  0  0
  -31.8780  -14.7890   19.7100 O   0  0  0  0  0  0  0  0  0  0  0  0
  -30.0370  -15.8530   20.5250 N   0  0  0  0  0  0  0  0  0  0  0  0
  -29.0890  -15.6910   20.8300 H   0  0  0  0  0  0  0  0  0  0  0  0
  -25.2940  -13.9720   20.4820 C   0  0  0  0  0  0  0  0  0  0  0  0
  -24.2440  -13.1900   20.8800 C   0  0  0  0  0  0  0  0  0  0  0  0
  -24.7050  -11.8400   20.8040 C   0  0  0  0  0  0  0  0  0  0  0  0
  -26.3280  -13.0980   20.1870 N   0  0  0  0  0  0  0  0  0  0  0  0
  -25.9810  -11.8100   20.4390 N   0  0  0  0  0  0  0  0  0  0  0  0
  -23.9870  -10.5730   20.9990 C   0  0  0  0  0  0  0  0  0  0  0  0
  -24.4360   -9.6030   21.9220 C   0  0  0  0  0  3  0  0  0  0  0  0
  -23.7160   -8.4030   22.1050 C   0  0  0  0  0  3  0  0  0  0  0  0
  -22.5340   -8.1630   21.3640 C   0  0  0  0  0  0  0  0  0  0  0  0
  -22.1050   -9.1220   20.4300 C   0  0  0  0  0  3  0  0  0  0  0  0
  -22.8250  -10.3140   20.2450 C   0  0  0  0  0  3  0  0  0  0  0  0
  -21.7860   -7.0140   21.4570 O   0  0  0  0  0  0  0  0  0  0  0  0
  -21.7330   -6.2800   22.6150 C   0  0  0  0  0  0  0  0  0  0  0  0
  -21.2690   -6.8340   23.8270 C   0  0  0  0  0  3  0  0  0  0  0  0
  -21.1670   -6.0260   24.9780 C   0  0  0  0  0  3  0  0  0  0  0  0
  -21.5180   -4.6640   24.9150 C   0  0  0  0  0  0  0  0  0  0  0  0
  -21.9740   -4.1090   23.7060 C   0  0  0  0  0  3  0  0  0  0  0  0
  -22.0790   -4.9150   22.5600 C   0  0  0  0  0  0  0  0  0  0  0  0
  -22.4990   -4.3700   21.3920 F   0  0  0  0  0  0  0  0  0  0  0  0
  -21.4120   -3.8860   26.0170 F   0  0  0  0  0  0  0  0  0  0  0  0
  -22.8610  -13.6610   21.2230 C   0  0  0  0  0  0  0  0  0  0  0  0
  -22.1700  -12.9420   22.1010 N   0  0  0  0  0  0  0  0  0  0  0  0
  -22.4040  -14.6990   20.7480 O   0  0  0  0  0  0  0  0  0  0  0  0
  -22.5570  -12.1010   22.5030 H   0  0  0  0  0  0  0  0  0  0  0  0
  -21.2450  -13.2360   22.3750 H   0  0  0  0  0  0  0  0  0  0  0  0
  -25.4510  -15.3460   20.3300 N   0  0  0  0  0  0  0  0  0  0  0  0
  -24.6890  -15.9940   20.4940 H   0  0  0  0  0  0  0  0  0  0  0  0
  -26.2960  -15.8040   20.0100 H   0  0  0  0  0  0  0  0  0  0  0  0
  -33.4100  -19.4260   19.8550 N   0  0  0  0  0  0  0  0  0  0  0  0
  -33.6910  -20.3970   19.9760 H   0  0  0  0  0  0  0  0  0  0  0  0
  -34.1560  -18.7640   20.0490 H   0  0  0  0  0  0  0  0  0  0  0  0
  -28.7950  -24.2920   19.2460 C   0  0  0  0  0  3  0  0  0  0  0  0
  -28.6980  -25.6630   19.2250 C   0  0  0  0  0  3  0  0  0  0  0  0
  -28.4240  -26.5900   20.2290 O   0  0  0  0  0  0  0  0  0  0  0  0
  -24.6270  -31.8970   23.2160 C   0  0  0  0  0  0  0  0  0  0  0  0
  -27.3200  -27.4370   20.1180 C   0  0  0  0  0  0  0  0  0  0  0  0
  -23.4540  -30.5070   21.5450 C   0  0  0  0  0  3  0  0  0  0  0  0
  -24.9360  -29.0020   20.1110 C   0  0  0  0  0  0  0  0  0  0  0  0
  -25.9900  -30.8650   21.3900 C   0  0  0  0  0  2  0  0  0  0  0  0
  -26.0890  -29.4980   20.7320 C   0  0  0  0  0  0  0  0  0  0  0  0
  -27.2820  -28.7220   20.7380 C   0  0  0  0  0  3  0  0  0  0  0  0
  -26.1490  -26.9930   19.4670 C   0  0  0  0  0  3  0  0  0  0  0  0
  -24.9680  -27.7570   19.4640 C   0  0  0  0  0  3  0  0  0  0  0  0
  -23.6910  -29.8590   20.1560 C   0  0  0  0  0  2  0  0  0  0  0  0
  -24.7080  -31.1070   22.1080 N   0  0  0  0  0  0  0  0  0  0  0  0
  -23.5360  -32.1550   23.7470 O   0  0  0  0  0  0  0  0  0  0  0  0
  -22.8000  -29.4680   22.4890 C   0  0  0  0  0  0  0  0  0  0  0  0
  -21.4720  -29.2880   22.3690 N   0  0  0  0  0  0  0  0  0  0  0  0
  -23.4850  -28.8280   23.2920 O   0  0  0  0  0  0  0  0  0  0  0  0
  -20.9800  -29.8590   21.6970 H   0  0  0  0  0  0  0  0  0  0  0  0
  -18.0940  -28.1160   22.8840 C   0  0  0  0  0  0  0  0  0  0  0  0
  -20.6580  -28.3380   23.1290 C   0  0  0  0  0  3  0  0  0  0  0  0
  -20.7380  -26.9240   22.5080 C   0  0  0  0  0  2  0  0  0  0  0  0
  -19.6180  -26.6430   21.5030 C   0  0  0  0  0  2  0  0  0  0  0  0
  -18.2470  -26.7850   22.1690 C   0  0  0  0  0  2  0  0  0  0  0  0
  -19.2270  -28.8540   23.3200 C   0  0  0  0  0  0  0  0  0  0  0  0
  -19.0260  -30.1050   23.9470 C   0  0  0  0  0  3  0  0  0  0  0  0
  -17.7270  -30.6100   24.1490 C   0  0  0  0  0  3  0  0  0  0  0  0
  -16.6110  -29.8680   23.7290 C   0  0  0  0  0  3  0  0  0  0  0  0
  -16.7960  -28.6250   23.0980 C   0  0  0  0  0  3  0  0  0  0  0  0
  -25.8990  -32.5380   23.8550 C   0  0  0  0  0  3  0  0  0  0  0  0
  -26.4000  -31.7710   25.1390 C   0  0  1  0  0  0  0  0  0  0  0  0
  -25.2910  -31.5190   26.1890 C   0  0  0  0  0  1  0  0  0  0  0  0
  -26.9960  -30.3990   24.7530 C   0  0  0  0  0  1  0  0  0  0  0  0
  -27.5400  -32.5680   25.8150 C   0  0  0  0  0  1  0  0  0  0  0  0
  -25.5770  -33.9350   24.1780 N   0  0  0  0  0  0  0  0  0  0  0  0
  -25.9090  -34.9880   23.4190 C   0  0  0  0  0  0  0  0  0  0  0  0
  -26.5900  -34.8880   22.3950 O   0  0  0  0  0  0  0  0  0  0  0  0
  -24.9670  -34.0840   24.9680 H   0  0  0  0  0  0  0  0  0  0  0  0
  -24.1770  -36.7720   23.0390 C   0  0  0  0  0  1  0  0  0  0  0  0
  -25.4090  -36.3740   23.8670 C   0  0  0  0  0  3  0  0  0  0  0  0
  -27.5220  -37.2740   24.7340 C   0  0  0  0  0  1  0  0  0  0  0  0
  -26.4380  -37.4320   23.7690 N   0  0  0  0  0  0  0  0  0  0  0  0
  -26.0230  -38.3510   23.9070 H   0  0  0  0  0  0  0  0  0  0  0  0
  1  4  2  0
  2  5  2  0
  3  2  1  0
  3  1  1  0
  6  3  1  0
  7  9  1  0
  8 11  2  0
  9 12  2  0
  9  1  1  0
 10  7  2  0
 10  8  1  0
 11 12  1  0
 11 22  1  0
 12 13  1  0
 14 22  1  0
 15 20  1  0
 16 17  1  0
 16 15  1  0
 18 17  1  0
 18 27  1  0
 18 19  1  0
 20 14  1  0
 20 19  1  0
 21 14  2  0
 22 23  1  0
 24 25  2  0
 25 44  1  0
 26 25  1  0
 26 29  1  0
 27 28  1  0
 27 24  1  0
 28 26  2  0
 29 30  1  0
 30 31  2  0
 32 35  1  0
 32 31  1  0
 33 32  2  0
 34 33  1  0
 34 29  2  0
 35 36  1  0
 36 37  1  0
 37 38  2  0
 39 38  1  0
 39 43  1  0
 40 39  2  0
 41 36  2  0
 41 40  1  0
 42 41  1  0
 44 45  1  0
 45 48  1  0
 45 47  1  0
 46 44  2  0
 49 24  1  0
 49 50  1  0
 51 49  1  0
 52 53  1  0
 52 54  1  0
 52 10  1  0
 55  2  1  0
 56 55  2  0
 56 57  1  0
 58 69  2  0
 59 57  1  0
 59 64  1  0
 60 68  1  0
 60 70  1  0
 61 67  1  0
 61 63  1  0
 62 68  1  0
 63 64  2  0
 63 62  1  0
 65 59  2  0
 66 65  1  0
 66 61  2  0
 67 60  1  0
 68 58  1  0
 70 72  2  0
 71 70  1  0
 73 71  1  0
 74 83  2  0
 74 79  1  0
 75 71  1  0
 75 79  1  0
 76 75  1  0
 77 78  1  0
 77 76  1  0
 78 74  1  0
 79 80  2  0
 80 81  1  0
 82 81  2  0
 83 82  1  0
 84 58  1  0
 84 89  1  0
 84 85  1  0
 85 88  1  1
 85 86  1  0
 87 85  1  0
 89 92  1  0
 90 94  1  0
 90 89  1  0
 91 90  2  0
 94 93  1  0
 96 94  1  0
 96 97  1  0
 96 95  1  0
M  ISO  4  14 100  22 100  56 101  57 101
M  END
>  <TORSDO>  (45) 
F 19

>  <SCORE>  (45) 
-14.377

>  <name>  (45) 
44

>  <ligand_id>  (45) 
44

>  <original_smiles>  (45) 
[H]C(Oc1c([H])c([H])c2c(c1[H])C([H])([H])N(C(=O)C([H])(N([H])C(=O)C([H])(N([H])C([H])([H])[H])C([H])([H])[H])C(C([H])([H])[H])(C([H])([H])[H])C([H])([H])[H])C([H])(C(=O)N([H])C1([H])c3c([H])c([H])c([H])c([H])c3C([H])([H])C([H])([H])C1([H])[H])C2([H])[H])=C([H])C(=O)N([H])C(=O)c1c([H])c(N([H])[H])c([H])c(N([H])C(=O)N2C([H])([H])C([H])([H])C([H])([H])C([H])(n3nc(-c4c([H])c([H])c(Oc5c([H])c([H])c(F)c([H])c5F)c([H])c4[H])c(C(=O)N([H])[H])c3N([H])[H])C2([H])[H])c1F

>  <smiles>  (45) 
[H]C(Oc1c([H])c([H])c2c(c1[H])C([H])([H])N(C(=O)C([H])(N([H])C(=O)C([H])(N([H])C([H])([H])[H])C([H])([H])[H])C(C([H])([H])[H])(C([H])([H])[H])C([H])([H])[H])C([H])(C(=O)N([H])C1([H])c3c([H])c([H])c([H])c([H])c3C([H])([H])C([H])([H])C1([H])[H])C2([H])[H])=C([H])C(=O)N([H])C(=O)c1c([H])c(N([H])[H])c([H])c(N([H])C(=O)N2C([H])([H])C([H])([H])C([H])([H])C([H])(n3nc(-c4c([H])c([H])c(Oc5c([H])c([H])c(F)c([H])c5F)c([H])c4[H])c(C(=O)N([H])[H])c3N([H])[H])C2([H])[H])c1F

$$$$
45:0:0
     RDKit          3D

 96105  0  0  1  0  0  0  0  0999 V2000
  -26.8400  -23.7770   20.1680 C   0  0  0  0  0  3  0  0  0  0  0  0
  -27.1970  -21.4240   19.9540 C   0  0  0  0  0  3  0  0  0  0  0  0
  -28.1360  -24.0300   20.4440 C   0  0  0  0  0  0  0  0  0  0  0  0
  -26.3500  -22.4580   19.8630 C   0  0  0  0  0  0  0  0  0  0  0  0
  -29.0820  -22.8380   20.5290 C   0  0  0  0  0  0  0  0  0  0  0  0
  -28.5560  -21.5570   20.3090 N   0  0  0  0  0  0  0  0  0  0  0  0
  -30.2720  -22.9820   20.8290 O   0  0  0  0  0  0  0  0  0  0  0  0
  -28.7290  -19.1750   21.1690 C   0  0  0  0  0  3  0  0  0  0  0  0
  -29.1540  -17.8160   21.0340 C   0  0  0  0  0  3  0  0  0  0  0  0
  -30.7850  -18.5270   19.4250 C   0  0  0  0  0  3  0  0  0  0  0  0
  -29.2560  -20.2470   20.3810 C   0  0  0  0  0  0  0  0  0  0  0  0
  -30.1570  -17.4390   20.1070 C   0  0  0  0  0  0  0  0  0  0  0  0
  -30.3470  -19.8850   19.5420 C   0  0  0  0  0  0  0  0  0  0  0  0
  -30.9140  -20.8150   18.7370 F   0  0  0  0  0  0  0  0  0  0  0  0
  -30.9960  -14.9830   20.1090 C   0  0  0  0  0  0  0  0  0  0  0  0
  -30.7880  -12.6520   19.2530 C   0  0  0  0  0  2  0  0  0  0  0  0
  -29.8480  -12.6120   18.0280 C   0  0  0  0  0  2  0  0  0  0  0  0
  -28.3660  -12.5430   18.4570 C   0  0  0  0  0  2  0  0  0  0  0  0
  -27.9970  -13.4880   19.6360 C   0  0  0  0  0  3  0  0  0  0  0  0
  -29.0640  -13.4680   20.7500 C   0  0  0  0  0  2  0  0  0  0  0  0
  -30.3540  -13.7670   20.1180 N   0  0  0  0  0  0  0  0  0  0  0  0
  -32.2230  -15.0290   19.9910 O   0  0  0  0  0  0  0  0  0  0  0  0
  -30.1270  -16.0190   18.1380 C   0  0  0  0  0  1  0  0  0  0  0  0
  -30.2570  -16.0520   19.6100 N   0  0  0  0  0  0  0  0  0  0  0  0
  -25.6280  -14.1250   20.3830 C   0  0  0  0  0  0  0  0  0  0  0  0
  -24.5500  -13.3680   20.7540 C   0  0  0  0  0  0  0  0  0  0  0  0
  -24.9910  -12.0100   20.7230 C   0  0  0  0  0  0  0  0  0  0  0  0
  -26.6550  -13.2260   20.1440 N   0  0  0  0  0  0  0  0  0  0  0  0
  -26.2800  -11.9510   20.4140 N   0  0  0  0  0  0  0  0  0  0  0  0
  -24.2450  -10.7590   20.9110 C   0  0  0  0  0  0  0  0  0  0  0  0
  -24.6330   -9.8090   21.8810 C   0  0  0  0  0  3  0  0  0  0  0  0
  -23.8910   -8.6220   22.0570 C   0  0  0  0  0  3  0  0  0  0  0  0
  -22.7450   -8.3770   21.2620 C   0  0  0  0  0  0  0  0  0  0  0  0
  -22.3770   -9.3160   20.2820 C   0  0  0  0  0  3  0  0  0  0  0  0
  -23.1220  -10.4940   20.1050 C   0  0  0  0  0  3  0  0  0  0  0  0
  -21.9760   -7.2420   21.3470 O   0  0  0  0  0  0  0  0  0  0  0  0
  -21.8210   -6.5650   22.5300 C   0  0  0  0  0  0  0  0  0  0  0  0
  -21.2930   -7.1890   23.6820 C   0  0  0  0  0  3  0  0  0  0  0  0
  -21.0860   -6.4370   24.8560 C   0  0  0  0  0  3  0  0  0  0  0  0
  -21.3940   -5.0650   24.8790 C   0  0  0  0  0  0  0  0  0  0  0  0
  -21.9150   -4.4410   23.7310 C   0  0  0  0  0  3  0  0  0  0  0  0
  -22.1240   -5.1890   22.5590 C   0  0  0  0  0  0  0  0  0  0  0  0
  -22.6060   -4.5790   21.4500 F   0  0  0  0  0  0  0  0  0  0  0  0
  -21.1880   -4.3410   26.0040 F   0  0  0  0  0  0  0  0  0  0  0  0
  -23.1600  -13.8670   21.0270 C   0  0  0  0  0  0  0  0  0  0  0  0
  -22.4280  -13.1890   21.9020 N   0  0  0  0  0  0  0  0  0  0  0  0
  -22.7350  -14.8940   20.4980 O   0  0  0  0  0  0  0  0  0  0  0  0
  -22.7860  -12.3600   22.3510 H   0  0  0  0  0  0  0  0  0  0  0  0
  -21.4960  -13.5050   22.1290 H   0  0  0  0  0  0  0  0  0  0  0  0
  -25.8140  -15.4930   20.2040 N   0  0  0  0  0  0  0  0  0  0  0  0
  -25.0580  -16.1610   20.3110 H   0  0  0  0  0  0  0  0  0  0  0  0
  -26.6710  -15.9140   19.8690 H   0  0  0  0  0  0  0  0  0  0  0  0
  -25.0780  -22.2590   19.5010 O   0  0  0  0  0  0  0  0  0  0  0  0
  -24.6380  -23.1000   19.4940 H   0  0  0  0  0  0  0  0  0  0  0  0
  -28.5240  -25.4910   20.9150 C   0  0  0  0  0  2  0  0  0  0  0  0
  -28.3840  -26.6620   20.0090 O   0  0  0  0  0  0  0  0  0  0  0  0
  -24.6360  -31.9770   23.2220 C   0  0  0  0  0  0  0  0  0  0  0  0
  -27.2580  -27.4910   20.0830 C   0  0  0  0  0  0  0  0  0  0  0  0
  -23.4270  -30.5850   21.5790 C   0  0  0  0  0  3  0  0  0  0  0  0
  -24.8780  -29.0710   20.1140 C   0  0  0  0  0  0  0  0  0  0  0  0
  -25.9570  -30.9370   21.3680 C   0  0  0  0  0  2  0  0  0  0  0  0
  -26.0450  -29.5640   20.7130 C   0  0  0  0  0  0  0  0  0  0  0  0
  -27.2390  -28.7810   20.6970 C   0  0  0  0  0  3  0  0  0  0  0  0
  -26.0860  -27.0730   19.4240 C   0  0  0  0  0  3  0  0  0  0  0  0
  -24.9000  -27.8290   19.4610 C   0  0  0  0  0  3  0  0  0  0  0  0
  -23.6300  -29.9300   20.1870 C   0  0  0  0  0  2  0  0  0  0  0  0
  -24.6920  -31.1840   22.1130 N   0  0  0  0  0  0  0  0  0  0  0  0
  -23.5580  -32.2320   23.7770 O   0  0  0  0  0  0  0  0  0  0  0  0
  -22.7930  -29.5450   22.5340 C   0  0  0  0  0  0  0  0  0  0  0  0
  -21.4690  -29.3470   22.4200 N   0  0  0  0  0  0  0  0  0  0  0  0
  -23.4920  -28.9210   23.3370 O   0  0  0  0  0  0  0  0  0  0  0  0
  -20.9640  -29.9030   21.7440 H   0  0  0  0  0  0  0  0  0  0  0  0
  -18.1190  -28.0840   22.9360 C   0  0  0  0  0  0  0  0  0  0  0  0
  -20.6750  -28.3870   23.1870 C   0  0  0  0  0  3  0  0  0  0  0  0
  -20.7970  -26.9640   22.5960 C   0  0  0  0  0  2  0  0  0  0  0  0
  -19.6930  -26.6310   21.5880 C   0  0  0  0  0  2  0  0  0  0  0  0
  -18.3140  -26.7450   22.2460 C   0  0  0  0  0  2  0  0  0  0  0  0
  -19.2270  -28.8620   23.3650 C   0  0  0  0  0  0  0  0  0  0  0  0
  -18.9910  -30.1140   23.9720 C   0  0  0  0  0  3  0  0  0  0  0  0
  -17.6780  -30.5900   24.1540 C   0  0  0  0  0  3  0  0  0  0  0  0
  -16.5850  -29.8090   23.7420 C   0  0  0  0  0  3  0  0  0  0  0  0
  -16.8050  -28.5580   23.1390 C   0  0  0  0  0  3  0  0  0  0  0  0
  -25.9200  -32.6170   23.8330 C   0  0  0  0  0  3  0  0  0  0  0  0
  -26.4570  -31.8430   25.1000 C   0  0  1  0  0  0  0  0  0  0  0  0
  -25.3790  -31.5900   26.1780 C   0  0  0  0  0  1  0  0  0  0  0  0
  -27.0480  -30.4710   24.6950 C   0  0  0  0  0  1  0  0  0  0  0  0
  -27.6090  -32.6420   25.7530 C   0  0  0  0  0  1  0  0  0  0  0  0
  -25.6020  -34.0100   24.1760 N   0  0  0  0  0  0  0  0  0  0  0  0
  -25.9210  -35.0710   23.4220 C   0  0  0  0  0  0  0  0  0  0  0  0
  -26.5840  -34.9800   22.3840 O   0  0  0  0  0  0  0  0  0  0  0  0
  -25.0120  -34.1540   24.9820 H   0  0  0  0  0  0  0  0  0  0  0  0
  -24.1780  -36.8550   23.0920 C   0  0  0  0  0  1  0  0  0  0  0  0
  -25.4270  -36.4530   23.8930 C   0  0  0  0  0  3  0  0  0  0  0  0
  -27.5600  -37.3470   24.7190 C   0  0  0  0  0  1  0  0  0  0  0  0
  -26.4520  -37.5140   23.7820 N   0  0  0  0  0  0  0  0  0  0  0  0
  -26.0410  -38.4290   23.9370 H   0  0  0  0  0  0  0  0  0  0  0  0
  1  3  2  0
  2  6  1  0
  3  5  1  0
  3 55  1  0
  4  2  2  0
  4  1  1  0
  5  7  2  0
  6 11  1  0
  6  5  1  0
  9  8  1  0
 10 13  2  0
 10 12  1  0
 11  8  2  0
 12  9  2  0
 13 11  1  0
 14 13  1  0
 15 21  1  0
 16 21  1  0
 17 18  1  0
 17 16  1  0
 19 18  1  0
 19 28  1  0
 19 20  1  0
 21 20  1  0
 22 15  2  0
 23 24  1  0
 24 12  1  0
 24 15  1  0
 25 26  2  0
 26 45  1  0
 27 26  1  0
 27 30  1  0
 28 25  1  0
 28 29  1  0
 29 27  2  0
 30 31  1  0
 31 32  2  0
 33 36  1  0
 33 32  1  0
 34 33  2  0
 35 34  1  0
 35 30  2  0
 36 37  1  0
 37 42  2  0
 37 38  1  0
 38 39  2  0
 39 40  1  0
 40 44  1  0
 41 40  2  0
 42 41  1  0
 43 42  1  0
 45 46  1  0
 46 49  1  0
 46 48  1  0
 47 45  2  0
 50 51  1  0
 50 25  1  0
 52 50  1  0
 53  4  1  0
 54 53  1  0
 56 58  1  0
 56 55  1  0
 57 68  2  0
 58 63  1  0
 59 67  1  0
 59 69  1  0
 60 66  1  0
 60 62  1  0
 61 67  1  0
 62 61  1  0
 63 62  2  0
 64 65  1  0
 64 58  2  0
 65 60  2  0
 66 59  1  0
 67 57  1  0
 69 71  2  0
 70 69  1  0
 72 70  1  0
 73 82  2  0
 73 78  1  0
 74 70  1  0
 74 78  1  0
 75 74  1  0
 76 77  1  0
 76 75  1  0
 77 73  1  0
 78 79  2  0
 79 80  1  0
 81 80  2  0
 82 81  1  0
 83 57  1  0
 83 88  1  0
 83 84  1  0
 84 87  1  1
 84 85  1  0
 86 84  1  0
 88 91  1  0
 89 93  1  0
 89 88  1  0
 90 89  2  0
 93 92  1  0
 95 93  1  0
 95 96  1  0
 95 94  1  0
M  ISO  4  15 100  24 100  55 101  56 101
M  END
>  <TORSDO>  (46) 
F 19

>  <SCORE>  (46) 
-13.008

>  <name>  (46) 
45

>  <ligand_id>  (46) 
45

>  <original_smiles>  (46) 
[H]Oc1c([H])c(C([H])([H])Oc2c([H])c([H])c3c(c2[H])C([H])([H])N(C(=O)C([H])(N([H])C(=O)C([H])(N([H])C([H])([H])[H])C([H])([H])[H])C(C([H])([H])[H])(C([H])([H])[H])C([H])([H])[H])C([H])(C(=O)N([H])C2([H])c4c([H])c([H])c([H])c([H])c4C([H])([H])C([H])([H])C2([H])[H])C3([H])[H])c(=O)n(-c2c([H])c([H])c(N(C(=O)N3C([H])([H])C([H])([H])C([H])([H])C([H])(n4nc(-c5c([H])c([H])c(Oc6c([H])c([H])c(F)c([H])c6F)c([H])c5[H])c(C(=O)N([H])[H])c4N([H])[H])C3([H])[H])C([H])([H])[H])c([H])c2F)c1[H]

>  <smiles>  (46) 
[H]Oc1c([H])c(C([H])([H])Oc2c([H])c([H])c3c(c2[H])C([H])([H])N(C(=O)C([H])(N([H])C(=O)C([H])(N([H])C([H])([H])[H])C([H])([H])[H])C(C([H])([H])[H])(C([H])([H])[H])C([H])([H])[H])C([H])(C(=O)N([H])C2([H])c4c([H])c([H])c([H])c([H])c4C([H])([H])C([H])([H])C2([H])[H])C3([H])[H])c(=O)n(-c2c([H])c([H])c(N(C(=O)N3C([H])([H])C([H])([H])C([H])([H])C([H])(n4nc(-c5c([H])c([H])c(Oc6c([H])c([H])c(F)c([H])c6F)c([H])c5[H])c(C(=O)N([H])[H])c4N([H])[H])C3([H])[H])C([H])([H])[H])c([H])c2F)c1[H]

$$$$
46:0:0
     RDKit          3D

 91 99  0  0  1  0  0  0  0  0999 V2000
  -29.1840  -21.3840   20.7050 C   0  0  0  0  0  0  0  0  0  0  0  0
  -29.1820  -21.4410   21.9350 O   0  0  0  0  0  0  0  0  0  0  0  0
  -30.0680  -19.9660   18.7550 C   0  0  0  0  0  3  0  0  0  0  0  0
  -30.4630  -18.7640   18.1310 C   0  0  0  0  0  3  0  0  0  0  0  0
  -29.5170  -18.6700   20.7370 C   0  0  0  0  0  3  0  0  0  0  0  0
  -29.5670  -19.9860   20.0730 C   0  0  0  0  0  0  0  0  0  0  0  0
  -29.9430  -17.4010   20.1210 C   0  0  0  0  0  0  0  0  0  0  0  0
  -30.3930  -17.5150   18.7810 C   0  0  0  0  0  0  0  0  0  0  0  0
  -30.7170  -16.4120   18.0630 F   0  0  0  0  0  0  0  0  0  0  0  0
  -30.6010  -14.8660   20.4740 C   0  0  0  0  0  0  0  0  0  0  0  0
  -30.4490  -12.5520   19.5230 C   0  0  0  0  0  2  0  0  0  0  0  0
  -29.5540  -12.5840   18.2640 C   0  0  0  0  0  2  0  0  0  0  0  0
  -28.0740  -12.4090   18.6490 C   0  0  0  0  0  2  0  0  0  0  0  0
  -27.6540  -13.3160   19.8350 C   0  0  0  0  0  3  0  0  0  0  0  0
  -28.6750  -13.2640   20.9920 C   0  0  0  0  0  2  0  0  0  0  0  0
  -29.9850  -13.6270   20.4380 N   0  0  0  0  0  0  0  0  0  0  0  0
  -31.7970  -14.9390   20.1750 O   0  0  0  0  0  0  0  0  0  0  0  0
  -29.8450  -16.0200   20.7180 N   0  0  0  0  0  0  0  0  0  0  0  0
  -28.9830  -15.8420   21.2080 H   0  0  0  0  0  0  0  0  0  0  0  0
  -25.2430  -13.9040   20.4770 C   0  0  0  0  0  0  0  0  0  0  0  0
  -24.1690  -13.1320   20.8240 C   0  0  0  0  0  0  0  0  0  0  0  0
  -24.6370  -11.7820   20.8290 C   0  0  0  0  0  0  0  0  0  0  0  0
  -26.2970  -13.0260   20.2870 N   0  0  0  0  0  0  0  0  0  0  0  0
  -25.9370  -11.7460   20.5630 N   0  0  0  0  0  0  0  0  0  0  0  0
  -23.9070  -10.5210   21.0150 C   0  0  0  0  0  0  0  0  0  0  0  0
  -24.3140   -9.5670   21.9740 C   0  0  0  0  0  3  0  0  0  0  0  0
  -23.5840   -8.3710   22.1480 C   0  0  0  0  0  3  0  0  0  0  0  0
  -22.4350   -8.1200   21.3610 C   0  0  0  0  0  0  0  0  0  0  0  0
  -22.0480   -9.0610   20.3910 C   0  0  0  0  0  3  0  0  0  0  0  0
  -22.7770  -10.2500   20.2160 C   0  0  0  0  0  3  0  0  0  0  0  0
  -21.6790   -6.9760   21.4430 O   0  0  0  0  0  0  0  0  0  0  0  0
  -21.5950   -6.2490   22.6030 C   0  0  0  0  0  0  0  0  0  0  0  0
  -21.1300   -6.8200   23.8080 C   0  0  0  0  0  3  0  0  0  0  0  0
  -20.9950   -6.0190   24.9600 C   0  0  0  0  0  3  0  0  0  0  0  0
  -21.3150   -4.6500   24.9070 C   0  0  0  0  0  0  0  0  0  0  0  0
  -21.7720   -4.0780   23.7070 C   0  0  0  0  0  3  0  0  0  0  0  0
  -21.9100   -4.8760   22.5580 C   0  0  0  0  0  0  0  0  0  0  0  0
  -22.3320   -4.3160   21.3990 F   0  0  0  0  0  0  0  0  0  0  0  0
  -21.1770   -3.8790   26.0120 F   0  0  0  0  0  0  0  0  0  0  0  0
  -22.7620  -13.6100   21.0410 C   0  0  0  0  0  0  0  0  0  0  0  0
  -22.0090  -12.9260   21.8940 N   0  0  0  0  0  0  0  0  0  0  0  0
  -22.3400  -14.6240   20.4880 O   0  0  0  0  0  0  0  0  0  0  0  0
  -22.3650  -12.1060   22.3640 H   0  0  0  0  0  0  0  0  0  0  0  0
  -21.0630  -13.2260   22.0830 H   0  0  0  0  0  0  0  0  0  0  0  0
  -25.4060  -15.2720   20.2820 N   0  0  0  0  0  0  0  0  0  0  0  0
  -24.6290  -15.9210   20.3530 H   0  0  0  0  0  0  0  0  0  0  0  0
  -26.2560  -15.7080   19.9480 H   0  0  0  0  0  0  0  0  0  0  0  0
  -28.5220  -23.6860   20.1930 C   0  0  0  0  0  2  0  0  0  0  0  0
  -27.9150  -24.8960   20.3640 C   0  0  0  0  0  2  0  0  0  0  0  0
  -28.8080  -22.5040   19.8690 N   0  0  0  0  0  2  0  0  0  0  0  0
  -28.2370  -26.2960   20.2020 O   0  0  0  0  0  0  0  0  0  0  0  0
  -24.5990  -31.8850   23.2320 C   0  0  0  0  0  0  0  0  0  0  0  0
  -27.1790  -27.2550   20.1600 C   0  0  0  0  0  0  0  0  0  0  0  0
  -23.3890  -30.4930   21.5960 C   0  0  0  0  0  3  0  0  0  0  0  0
  -24.8350  -28.9390   20.1550 C   0  0  0  0  0  0  0  0  0  0  0  0
  -25.9370  -30.7830   21.4130 C   0  0  0  0  0  2  0  0  0  0  0  0
  -26.0130  -29.3990   20.7620 C   0  0  0  0  0  0  0  0  0  0  0  0
  -27.1870  -28.5690   20.7560 C   0  0  0  0  0  3  0  0  0  0  0  0
  -25.9830  -26.8900   19.5000 C   0  0  0  0  0  3  0  0  0  0  0  0
  -24.8280  -27.6930   19.5140 C   0  0  0  0  0  3  0  0  0  0  0  0
  -23.6010  -29.8220   20.2140 C   0  0  0  0  0  2  0  0  0  0  0  0
  -24.6610  -31.0740   22.1360 N   0  0  0  0  0  0  0  0  0  0  0  0
  -23.5180  -32.1630   23.7720 O   0  0  0  0  0  0  0  0  0  0  0  0
  -22.7250  -29.4750   22.5580 C   0  0  0  0  0  0  0  0  0  0  0  0
  -21.3990  -29.2950   22.4350 N   0  0  0  0  0  0  0  0  0  0  0  0
  -23.4050  -28.8490   23.3760 O   0  0  0  0  0  0  0  0  0  0  0  0
  -20.9050  -29.8500   21.7490 H   0  0  0  0  0  0  0  0  0  0  0  0
  -18.0280  -28.0770   22.9380 C   0  0  0  0  0  0  0  0  0  0  0  0
  -20.5850  -28.3550   23.2080 C   0  0  0  0  0  3  0  0  0  0  0  0
  -20.6980  -26.9210   22.6390 C   0  0  0  0  0  2  0  0  0  0  0  0
  -19.5990  -26.5880   21.6240 C   0  0  0  0  0  2  0  0  0  0  0  0
  -18.2160  -26.7270   22.2660 C   0  0  0  0  0  2  0  0  0  0  0  0
  -19.1410  -28.8490   23.3670 C   0  0  0  0  0  0  0  0  0  0  0  0
  -18.9130  -30.1110   23.9550 C   0  0  0  0  0  3  0  0  0  0  0  0
  -17.6050  -30.6040   24.1180 C   0  0  0  0  0  3  0  0  0  0  0  0
  -16.5050  -29.8290   23.7070 C   0  0  0  0  0  3  0  0  0  0  0  0
  -16.7180  -28.5680   23.1230 C   0  0  0  0  0  3  0  0  0  0  0  0
  -25.8830  -32.5210   23.8490 C   0  0  0  0  0  3  0  0  0  0  0  0
  -25.5730  -33.9200   24.1780 N   0  0  0  0  0  0  0  0  0  0  0  0
  -25.9050  -34.9740   23.4210 C   0  0  0  0  0  0  0  0  0  0  0  0
  -26.5710  -34.8700   22.3880 O   0  0  0  0  0  0  0  0  0  0  0  0
  -24.9770  -34.0730   24.9780 H   0  0  0  0  0  0  0  0  0  0  0  0
  -24.1800  -36.7740   23.0770 C   0  0  0  0  0  1  0  0  0  0  0  0
  -25.4220  -36.3630   23.8840 C   0  0  0  0  0  3  0  0  0  0  0  0
  -27.5600  -37.2430   24.7110 C   0  0  0  0  0  1  0  0  0  0  0  0
  -26.4560  -37.4150   23.7710 N   0  0  0  0  0  0  0  0  0  0  0  0
  -26.0520  -38.3350   23.9210 H   0  0  0  0  0  0  0  0  0  0  0  0
  -26.3990  -31.7550   25.1290 C   0  0  1  0  0  0  0  0  0  0  0  0
  -25.3060  -31.5260   26.2000 C   0  0  0  0  0  1  0  0  0  0  0  0
  -26.9780  -30.3730   24.7460 C   0  0  0  0  0  1  0  0  0  0  0  0
  -27.5490  -32.5500   25.7870 C   0  0  0  0  0  1  0  0  0  0  0  0
  1  2  2  0
  3  6  1  0
  4  3  2  0
  4  8  1  0
  6  1  1  0
  6  5  2  0
  7 18  1  0
  7  5  1  0
  8  7  2  0
  9  8  1  0
 10 18  1  0
 11 16  1  0
 12 13  1  0
 12 11  1  0
 14 13  1  0
 14 23  1  0
 14 15  1  0
 16 10  1  0
 16 15  1  0
 17 10  2  0
 18 19  1  0
 20 21  2  0
 21 22  1  0
 21 40  1  0
 22 25  1  0
 23 20  1  0
 23 24  1  0
 24 22  2  0
 25 26  1  0
 26 27  2  0
 28 31  1  0
 28 27  1  0
 29 28  2  0
 30 29  1  0
 30 25  2  0
 31 32  1  0
 32 33  1  0
 33 34  2  0
 35 34  1  0
 35 39  1  0
 36 35  2  0
 37 32  2  0
 37 36  1  0
 38 37  1  0
 40 41  1  0
 41 44  1  0
 41 43  1  0
 42 40  2  0
 45 46  1  0
 45 20  1  0
 47 45  1  0
 48 49  1  0
 50 48  1  0
 50  1  1  0
 51 49  1  0
 52 63  2  0
 53 51  1  0
 53 58  1  0
 54 62  1  0
 54 64  1  0
 55 61  1  0
 55 57  1  0
 56 62  1  0
 57 56  1  0
 58 57  2  0
 59 60  1  0
 59 53  2  0
 60 55  2  0
 61 54  1  0
 62 52  1  0
 64 66  2  0
 65 64  1  0
 67 65  1  0
 68 77  2  0
 68 73  1  0
 69 65  1  0
 69 73  1  0
 70 69  1  0
 71 72  1  0
 71 70  1  0
 72 68  1  0
 73 74  2  0
 74 75  1  0
 76 75  2  0
 77 76  1  0
 78 52  1  0
 78 79  1  0
 78 88  1  0
 79 82  1  0
 80 84  1  0
 80 79  1  0
 81 80  2  0
 84 83  1  0
 86 84  1  0
 86 87  1  0
 86 85  1  0
 88 91  1  1
 88 89  1  0
 90 88  1  0
M  ISO  4  10 100  18 100  49 101  51 101
M  END
>  <TORSDO>  (47) 
F 18

>  <SCORE>  (47) 
-14.628

>  <name>  (47) 
46

>  <ligand_id>  (47) 
46

>  <original_smiles>  (47) 
[H]C(=C=NC(=O)c1c([H])c([H])c(F)c(N([H])C(=O)N2C([H])([H])C([H])([H])C([H])([H])C([H])(n3nc(-c4c([H])c([H])c(Oc5c([H])c([H])c(F)c([H])c5F)c([H])c4[H])c(C(=O)N([H])[H])c3N([H])[H])C2([H])[H])c1[H])Oc1c([H])c([H])c2c(c1[H])C([H])([H])N(C(=O)C([H])(N([H])C(=O)C([H])(N([H])C([H])([H])[H])C([H])([H])[H])C(C([H])([H])[H])(C([H])([H])[H])C([H])([H])[H])C([H])(C(=O)N([H])C1([H])c3c([H])c([H])c([H])c([H])c3C([H])([H])C([H])([H])C1([H])[H])C2([H])[H]

>  <smiles>  (47) 
[H]C(=C=NC(=O)c1c([H])c([H])c(F)c(N([H])C(=O)N2C([H])([H])C([H])([H])C([H])([H])C([H])(n3nc(-c4c([H])c([H])c(Oc5c([H])c([H])c(F)c([H])c5F)c([H])c4[H])c(C(=O)N([H])[H])c3N([H])[H])C2([H])[H])c1[H])Oc1c([H])c([H])c2c(c1[H])C([H])([H])N(C(=O)C([H])(N([H])C(=O)C([H])(N([H])C([H])([H])[H])C([H])([H])[H])C(C([H])([H])[H])(C([H])([H])[H])C([H])([H])[H])C([H])(C(=O)N([H])C1([H])c3c([H])c([H])c([H])c([H])c3C([H])([H])C([H])([H])C1([H])[H])C2([H])[H]

$$$$
47:0:0
     RDKit          3D

 95103  0  0  1  0  0  0  0  0999 V2000
  -29.1520  -21.0600   20.4500 N   0  0  0  0  0  0  0  0  0  0  0  0
  -28.1530  -20.8630   20.5270 H   0  0  0  0  0  0  0  0  0  0  0  0
  -31.8810  -17.4560   20.9360 C   0  0  0  0  0  3  0  0  0  0  0  0
  -32.8320  -18.4020   21.0060 C   0  0  0  0  0  3  0  0  0  0  0  0
  -29.8390  -18.6130   20.4440 C   0  0  0  0  0  3  0  0  0  0  0  0
  -31.4250  -20.4600   20.2850 C   0  0  0  0  0  2  0  0  0  0  0  0
  -30.5860  -17.4340   20.5360 C   0  0  0  0  0  3  0  0  0  0  0  0
  -30.1640  -19.9780   20.4210 C   0  0  0  0  0  0  0  0  0  0  0  0
  -32.7030  -19.7860   20.5540 C   0  0  0  0  0  0  0  0  0  0  0  0
  -33.7360  -20.4540   20.4410 O   0  0  0  0  0  0  0  0  0  0  0  0
  -30.7010  -14.8950   19.9810 C   0  0  0  0  0  0  0  0  0  0  0  0
  -30.4040  -12.6280   18.9540 C   0  0  0  0  0  2  0  0  0  0  0  0
  -29.3990  -12.6660   17.7850 C   0  0  0  0  0  2  0  0  0  0  0  0
  -27.9670  -12.4510   18.3070 C   0  0  0  0  0  2  0  0  0  0  0  0
  -27.6420  -13.3510   19.5290 C   0  0  0  0  0  3  0  0  0  0  0  0
  -28.7700  -13.3260   20.5840 C   0  0  0  0  0  2  0  0  0  0  0  0
  -30.0200  -13.6950   19.9090 N   0  0  0  0  0  0  0  0  0  0  0  0
  -31.8640  -14.9290   19.5680 O   0  0  0  0  0  0  0  0  0  0  0  0
  -30.0320  -16.0820   20.3180 N   0  0  0  0  0  0  0  0  0  0  0  0
  -29.0340  -15.9930   20.4310 H   0  0  0  0  0  0  0  0  0  0  0  0
  -25.3040  -13.8800   20.4330 C   0  0  0  0  0  0  0  0  0  0  0  0
  -24.2770  -13.0770   20.8510 C   0  0  0  0  0  0  0  0  0  0  0  0
  -24.7590  -11.7350   20.7570 C   0  0  0  0  0  0  0  0  0  0  0  0
  -26.3440  -13.0250   20.1080 N   0  0  0  0  0  0  0  0  0  0  0  0
  -26.0280  -11.7280   20.3680 N   0  0  0  0  0  0  0  0  0  0  0  0
  -24.0650  -10.4570   20.9600 C   0  0  0  0  0  0  0  0  0  0  0  0
  -24.5170   -9.5080   21.9040 C   0  0  0  0  0  3  0  0  0  0  0  0
  -23.8180   -8.2980   22.0930 C   0  0  0  0  0  3  0  0  0  0  0  0
  -22.6500   -8.0280   21.3410 C   0  0  0  0  0  0  0  0  0  0  0  0
  -22.2160   -8.9640   20.3860 C   0  0  0  0  0  3  0  0  0  0  0  0
  -22.9180  -10.1670   20.1960 C   0  0  0  0  0  3  0  0  0  0  0  0
  -21.9210   -6.8680   21.4420 O   0  0  0  0  0  0  0  0  0  0  0  0
  -21.8420   -6.1700   22.6190 C   0  0  0  0  0  0  0  0  0  0  0  0
  -21.3130   -6.7460   23.7940 C   0  0  0  0  0  3  0  0  0  0  0  0
  -21.1810   -5.9690   24.9640 C   0  0  0  0  0  3  0  0  0  0  0  0
  -21.5740   -4.6170   24.9580 C   0  0  0  0  0  0  0  0  0  0  0  0
  -22.0940   -4.0390   23.7870 C   0  0  0  0  0  3  0  0  0  0  0  0
  -22.2260   -4.8130   22.6210 C   0  0  0  0  0  0  0  0  0  0  0  0
  -22.7120   -4.2460   21.4900 F   0  0  0  0  0  0  0  0  0  0  0  0
  -21.4410   -3.8690   26.0780 F   0  0  0  0  0  0  0  0  0  0  0  0
  -22.8930  -13.5260   21.2190 C   0  0  0  0  0  0  0  0  0  0  0  0
  -22.2210  -12.7950   22.1010 N   0  0  0  0  0  0  0  0  0  0  0  0
  -22.4130  -14.5600   20.7590 O   0  0  0  0  0  0  0  0  0  0  0  0
  -22.6200  -11.9580   22.4980 H   0  0  0  0  0  0  0  0  0  0  0  0
  -21.2980  -13.0850   22.3910 H   0  0  0  0  0  0  0  0  0  0  0  0
  -25.4300  -15.2580   20.2780 N   0  0  0  0  0  0  0  0  0  0  0  0
  -24.6500  -15.8840   20.4590 H   0  0  0  0  0  0  0  0  0  0  0  0
  -26.2420  -15.7320   19.8990 H   0  0  0  0  0  0  0  0  0  0  0  0
  -29.6400  -23.2580   18.9970 O   0  0  0  0  0  0  0  0  0  0  0  0
  -30.5340  -23.1370   21.3620 O   0  0  0  0  0  0  0  0  0  0  0  0
  -29.4420  -22.8820   20.4080 S   0  0  2  0  0  0  0  0  0  0  0  0
  -27.6350  -25.2410   20.9250 C   0  0  0  0  0  3  0  0  0  0  0  0
  -28.0160  -23.9100   21.0910 C   0  0  0  0  0  0  0  0  0  0  0  0
  -27.1610  -23.0620   22.0190 C   0  0  0  0  0  1  0  0  0  0  0  0
  -28.0770  -26.4080   20.2440 O   0  0  0  0  0  0  0  0  0  0  0  0
  -24.5330  -31.9610   23.2430 C   0  0  0  0  0  0  0  0  0  0  0  0
  -27.0710  -27.3920   20.1250 C   0  0  0  0  0  0  0  0  0  0  0  0
  -23.3020  -30.5870   21.5990 C   0  0  0  0  0  3  0  0  0  0  0  0
  -24.7320  -29.0480   20.1320 C   0  0  0  0  0  0  0  0  0  0  0  0
  -25.8460  -30.8880   21.3950 C   0  0  0  0  0  2  0  0  0  0  0  0
  -25.9120  -29.5140   20.7310 C   0  0  0  0  0  0  0  0  0  0  0  0
  -27.0870  -28.6960   20.7230 C   0  0  0  0  0  3  0  0  0  0  0  0
  -25.8810  -27.0020   19.4720 C   0  0  0  0  0  3  0  0  0  0  0  0
  -24.7240  -27.7990   19.4870 C   0  0  0  0  0  3  0  0  0  0  0  0
  -23.4990  -29.9280   20.2080 C   0  0  0  0  0  2  0  0  0  0  0  0
  -24.5790  -31.1610   22.1370 N   0  0  0  0  0  0  0  0  0  0  0  0
  -23.4590  -32.2400   23.7920 O   0  0  0  0  0  0  0  0  0  0  0  0
  -22.6440  -29.5660   22.5560 C   0  0  0  0  0  0  0  0  0  0  0  0
  -21.3180  -29.3860   22.4350 N   0  0  0  0  0  0  0  0  0  0  0  0
  -23.3300  -28.9370   23.3660 O   0  0  0  0  0  0  0  0  0  0  0  0
  -20.8250  -29.9390   21.7480 H   0  0  0  0  0  0  0  0  0  0  0  0
  -17.9460  -28.1800   22.9520 C   0  0  0  0  0  0  0  0  0  0  0  0
  -20.5060  -28.4430   23.2090 C   0  0  0  0  0  3  0  0  0  0  0  0
  -20.6060  -27.0140   22.6280 C   0  0  0  0  0  2  0  0  0  0  0  0
  -19.4980  -26.6920   21.6190 C   0  0  0  0  0  2  0  0  0  0  0  0
  -18.1200  -26.8330   22.2700 C   0  0  0  0  0  2  0  0  0  0  0  0
  -19.0660  -28.9410   23.3800 C   0  0  0  0  0  0  0  0  0  0  0  0
  -18.8460  -30.2000   23.9790 C   0  0  0  0  0  3  0  0  0  0  0  0
  -17.5410  -30.7000   24.1510 C   0  0  0  0  0  3  0  0  0  0  0  0
  -16.4370  -29.9350   23.7390 C   0  0  0  0  0  3  0  0  0  0  0  0
  -16.6400  -28.6760   23.1470 C   0  0  0  0  0  3  0  0  0  0  0  0
  -25.8300  -32.5800   23.8510 C   0  0  0  0  0  3  0  0  0  0  0  0
  -26.3480  -31.8050   25.1230 C   0  0  1  0  0  0  0  0  0  0  0  0
  -25.2590  -31.5770   26.1970 C   0  0  0  0  0  1  0  0  0  0  0  0
  -26.9170  -30.4210   24.7310 C   0  0  0  0  0  1  0  0  0  0  0  0
  -27.5100  -32.5890   25.7780 C   0  0  0  0  0  1  0  0  0  0  0  0
  -25.5410  -33.9830   24.1820 N   0  0  0  0  0  0  0  0  0  0  0  0
  -25.8830  -35.0280   23.4170 C   0  0  0  0  0  0  0  0  0  0  0  0
  -26.5430  -34.9160   22.3820 O   0  0  0  0  0  0  0  0  0  0  0  0
  -24.9570  -34.1520   24.9880 H   0  0  0  0  0  0  0  0  0  0  0  0
  -24.1850  -36.8480   23.0560 C   0  0  0  0  0  1  0  0  0  0  0  0
  -25.4160  -36.4240   23.8730 C   0  0  0  0  0  3  0  0  0  0  0  0
  -27.5590  -37.2730   24.7200 C   0  0  0  0  0  1  0  0  0  0  0  0
  -26.4660  -37.4600   23.7680 N   0  0  0  0  0  0  0  0  0  0  0  0
  -26.0730  -38.3840   23.9150 H   0  0  0  0  0  0  0  0  0  0  0  0
  1  2  1  0
  3  4  2  0
  5  7  1  0
  6  8  1  0
  6  9  1  0
  7 19  1  0
  7  3  1  0
  8  5  2  0
  8  1  1  0
  9  4  1  0
 10  9  2  0
 11 19  1  0
 12 17  1  0
 13 14  1  0
 13 12  1  0
 15 14  1  0
 15 24  1  0
 15 16  1  0
 17 11  1  0
 17 16  1  0
 18 11  2  0
 19 20  1  0
 21 22  2  0
 22 41  1  0
 23 22  1  0
 23 26  1  0
 24 25  1  0
 24 21  1  0
 25 23  2  0
 26 27  1  0
 27 28  2  0
 29 32  1  0
 29 28  1  0
 30 29  2  0
 31 30  1  0
 31 26  2  0
 32 33  1  0
 33 38  2  0
 33 34  1  0
 34 35  2  0
 36 35  1  0
 36 40  1  0
 37 36  2  0
 38 37  1  0
 39 38  1  0
 41 42  1  0
 42 45  1  0
 42 44  1  0
 43 41  2  0
 46 21  1  0
 46 47  1  0
 48 46  1  0
 49 51  2  0
 51  1  1  6
 51 53  1  0
 51 50  2  0
 52 53  2  0
 53 54  1  0
 55 52  1  0
 56 67  2  0
 57 55  1  0
 57 62  1  0
 58 66  1  0
 58 68  1  0
 59 65  1  0
 59 61  1  0
 60 66  1  0
 61 60  1  0
 62 61  2  0
 63 64  1  0
 63 57  2  0
 64 59  2  0
 65 58  1  0
 66 56  1  0
 68 70  2  0
 69 68  1  0
 71 69  1  0
 72 81  2  0
 72 77  1  0
 73 69  1  0
 73 77  1  0
 74 73  1  0
 75 76  1  0
 75 74  1  0
 76 72  1  0
 77 78  2  0
 78 79  1  0
 80 79  2  0
 81 80  1  0
 82 56  1  0
 82 87  1  0
 82 83  1  0
 83 86  1  1
 83 84  1  0
 85 83  1  0
 87 90  1  0
 88 92  1  0
 88 87  1  0
 89 88  2  0
 92 91  1  0
 94 92  1  0
 94 95  1  0
 94 93  1  0
M  ISO  4  11 100  19 100  52 101  55 101
M  END
>  <TORSDO>  (48) 
F 19

>  <SCORE>  (48) 
-14.020

>  <name>  (48) 
47

>  <ligand_id>  (48) 
47

>  <original_smiles>  (48) 
[H]C(Oc1c([H])c([H])c2c(c1[H])C([H])([H])N(C(=O)C([H])(N([H])C(=O)C([H])(N([H])C([H])([H])[H])C([H])([H])[H])C(C([H])([H])[H])(C([H])([H])[H])C([H])([H])[H])C([H])(C(=O)N([H])C1([H])c3c([H])c([H])c([H])c([H])c3C([H])([H])C([H])([H])C1([H])[H])C2([H])[H])=C(C([H])([H])[H])S(=O)(=O)N([H])c1c([H])c(N([H])C(=O)N2C([H])([H])C([H])([H])C([H])([H])C([H])(n3nc(-c4c([H])c([H])c(Oc5c([H])c([H])c(F)c([H])c5F)c([H])c4[H])c(C(=O)N([H])[H])c3N([H])[H])C2([H])[H])c([H])c([H])c(=O)c1[H]

>  <smiles>  (48) 
[H]C(Oc1c([H])c([H])c2c(c1[H])C([H])([H])N(C(=O)C([H])(N([H])C(=O)C([H])(N([H])C([H])([H])[H])C([H])([H])[H])C(C([H])([H])[H])(C([H])([H])[H])C([H])([H])[H])C([H])(C(=O)N([H])C1([H])c3c([H])c([H])c([H])c([H])c3C([H])([H])C([H])([H])C1([H])[H])C2([H])[H])=C(C([H])([H])[H])S(=O)(=O)N([H])c1c([H])c(N([H])C(=O)N2C([H])([H])C([H])([H])C([H])([H])C([H])(n3nc(-c4c([H])c([H])c(Oc5c([H])c([H])c(F)c([H])c5F)c([H])c4[H])c(C(=O)N([H])[H])c3N([H])[H])C2([H])[H])c([H])c([H])c(=O)c1[H]

$$$$
48:0:0
     RDKit          3D

 89 97  0  0  1  0  0  0  0  0999 V2000
  -28.5580  -19.0130   19.6540 C   0  0  0  0  0  3  0  0  0  0  0  0
  -28.2370  -20.4380   19.6860 C   0  0  0  0  0  3  0  0  0  0  0  0
  -29.6040  -18.6080   20.4620 C   0  0  0  0  0  0  0  0  0  0  0  0
  -29.0070  -21.2250   20.5270 C   0  0  0  0  0  0  0  0  0  0  0  0
  -30.1860  -20.1000   21.2710 S   0  0  0  0  0  0  0  0  0  0  0  0
  -30.6490  -14.8100   20.3270 C   0  0  0  0  0  0  0  0  0  0  0  0
  -30.4080  -12.5390   19.3000 C   0  0  0  0  0  2  0  0  0  0  0  0
  -29.4660  -12.5970   18.0800 C   0  0  0  0  0  2  0  0  0  0  0  0
  -28.0020  -12.4170   18.5230 C   0  0  0  0  0  2  0  0  0  0  0  0
  -27.6290  -13.3100   19.7370 C   0  0  0  0  0  3  0  0  0  0  0  0
  -28.6960  -13.2540   20.8500 C   0  0  0  0  0  2  0  0  0  0  0  0
  -29.9790  -13.6080   20.2330 N   0  0  0  0  0  0  0  0  0  0  0  0
  -31.8530  -14.8190   20.0560 O   0  0  0  0  0  0  0  0  0  0  0  0
  -30.4210  -17.2900   20.6490 C   0  0  0  0  0  0  0  0  0  0  0  0
  -29.9260  -15.9990   20.4690 N   0  0  0  0  0  0  0  0  0  0  0  0
  -31.5930  -17.4590   21.0000 O   0  0  0  0  0  0  0  0  0  0  0  0
  -28.9260  -15.9230   20.4000 H   0  0  0  0  0  0  0  0  0  0  0  0
  -25.2460  -13.8840   20.4850 C   0  0  0  0  0  0  0  0  0  0  0  0
  -24.1870  -13.1030   20.8580 C   0  0  0  0  0  0  0  0  0  0  0  0
  -24.6570  -11.7540   20.8250 C   0  0  0  0  0  0  0  0  0  0  0  0
  -26.2930  -13.0110   20.2410 N   0  0  0  0  0  0  0  0  0  0  0  0
  -25.9470  -11.7240   20.5110 N   0  0  0  0  0  0  0  0  0  0  0  0
  -23.9380  -10.4890   21.0150 C   0  0  0  0  0  0  0  0  0  0  0  0
  -24.3700   -9.5270   21.9550 C   0  0  0  0  0  3  0  0  0  0  0  0
  -23.6490   -8.3260   22.1330 C   0  0  0  0  0  3  0  0  0  0  0  0
  -22.4820   -8.0790   21.3710 C   0  0  0  0  0  0  0  0  0  0  0  0
  -22.0700   -9.0280   20.4200 C   0  0  0  0  0  3  0  0  0  0  0  0
  -22.7920  -10.2200   20.2400 C   0  0  0  0  0  3  0  0  0  0  0  0
  -21.7330   -6.9300   21.4590 O   0  0  0  0  0  0  0  0  0  0  0  0
  -21.6670   -6.2000   22.6190 C   0  0  0  0  0  0  0  0  0  0  0  0
  -21.1980   -6.7620   23.8270 C   0  0  0  0  0  3  0  0  0  0  0  0
  -21.0810   -5.9580   24.9780 C   0  0  0  0  0  3  0  0  0  0  0  0
  -21.4230   -4.5930   24.9220 C   0  0  0  0  0  0  0  0  0  0  0  0
  -21.8840   -4.0310   23.7190 C   0  0  0  0  0  3  0  0  0  0  0  0
  -22.0030   -4.8320   22.5700 C   0  0  0  0  0  0  0  0  0  0  0  0
  -22.4280   -4.2810   21.4080 F   0  0  0  0  0  0  0  0  0  0  0  0
  -21.3030   -3.8190   26.0260 F   0  0  0  0  0  0  0  0  0  0  0  0
  -22.7880  -13.5730   21.1310 C   0  0  0  0  0  0  0  0  0  0  0  0
  -22.0630  -12.8710   21.9940 N   0  0  0  0  0  0  0  0  0  0  0  0
  -22.3470  -14.6000   20.6150 O   0  0  0  0  0  0  0  0  0  0  0  0
  -22.4340  -12.0400   22.4330 H   0  0  0  0  0  0  0  0  0  0  0  0
  -21.1240  -13.1680   22.2190 H   0  0  0  0  0  0  0  0  0  0  0  0
  -25.3990  -15.2560   20.3060 N   0  0  0  0  0  0  0  0  0  0  0  0
  -24.6220  -15.8980   20.4170 H   0  0  0  0  0  0  0  0  0  0  0  0
  -26.2290  -15.7010   19.9410 H   0  0  0  0  0  0  0  0  0  0  0  0
  -28.4750  -23.6520   20.2820 C   0  0  0  0  0  3  0  0  0  0  0  0
  -28.9400  -22.5980   20.9290 N   0  0  0  0  0  0  0  0  0  0  0  0
  -28.1740  -25.0900   20.9500 C   0  0  0  0  0  2  0  0  0  0  0  0
  -28.3640  -26.4080   20.2470 O   0  0  0  0  0  0  0  0  0  0  0  0
  -24.6270  -31.8970   23.2440 C   0  0  0  0  0  0  0  0  0  0  0  0
  -27.2730  -27.3060   20.2300 C   0  0  0  0  0  0  0  0  0  0  0  0
  -23.4440  -30.4890   21.5980 C   0  0  0  0  0  3  0  0  0  0  0  0
  -24.9130  -28.9360   20.1870 C   0  0  0  0  0  0  0  0  0  0  0  0
  -25.9850  -30.8110   21.4330 C   0  0  0  0  0  2  0  0  0  0  0  0
  -26.0800  -29.4270   20.7910 C   0  0  0  0  0  0  0  0  0  0  0  0
  -27.2670  -28.6260   20.7970 C   0  0  0  0  0  3  0  0  0  0  0  0
  -26.0880  -26.8780   19.6010 C   0  0  0  0  0  3  0  0  0  0  0  0
  -24.9230  -27.6710   19.5790 C   0  0  0  0  0  3  0  0  0  0  0  0
  -23.6730  -29.8090   20.2230 C   0  0  0  0  0  2  0  0  0  0  0  0
  -24.7050  -31.0840   22.1490 N   0  0  0  0  0  0  0  0  0  0  0  0
  -23.5380  -32.1700   23.7690 O   0  0  0  0  0  0  0  0  0  0  0  0
  -22.7780  -29.4730   22.5580 C   0  0  0  0  0  0  0  0  0  0  0  0
  -21.4510  -29.2960   22.4290 N   0  0  0  0  0  0  0  0  0  0  0  0
  -23.4530  -28.8460   23.3780 O   0  0  0  0  0  0  0  0  0  0  0  0
  -20.9640  -29.8540   21.7410 H   0  0  0  0  0  0  0  0  0  0  0  0
  -18.0700  -28.1090   22.9360 C   0  0  0  0  0  0  0  0  0  0  0  0
  -20.6310  -28.3570   23.1970 C   0  0  0  0  0  3  0  0  0  0  0  0
  -20.7240  -26.9290   22.6130 C   0  0  0  0  0  2  0  0  0  0  0  0
  -19.6160  -26.6170   21.6000 C   0  0  0  0  0  2  0  0  0  0  0  0
  -18.2380  -26.7630   22.2510 C   0  0  0  0  0  2  0  0  0  0  0  0
  -19.1930  -28.8640   23.3660 C   0  0  0  0  0  0  0  0  0  0  0  0
  -18.9820  -30.1230   23.9680 C   0  0  0  0  0  3  0  0  0  0  0  0
  -17.6790  -30.6280   24.1430 C   0  0  0  0  0  3  0  0  0  0  0  0
  -16.5700  -29.8710   23.7290 C   0  0  0  0  0  3  0  0  0  0  0  0
  -16.7670  -28.6130   23.1310 C   0  0  0  0  0  3  0  0  0  0  0  0
  -25.9000  -32.5400   23.8750 C   0  0  0  0  0  3  0  0  0  0  0  0
  -25.5820  -33.9390   24.1940 N   0  0  0  0  0  0  0  0  0  0  0  0
  -25.9130  -34.9900   23.4310 C   0  0  0  0  0  0  0  0  0  0  0  0
  -26.5870  -34.8830   22.4030 O   0  0  0  0  0  0  0  0  0  0  0  0
  -24.9830  -34.0950   24.9920 H   0  0  0  0  0  0  0  0  0  0  0  0
  -24.1840  -36.7780   23.0550 C   0  0  0  0  0  1  0  0  0  0  0  0
  -25.4190  -36.3790   23.8780 C   0  0  0  0  0  3  0  0  0  0  0  0
  -27.5420  -37.2760   24.7270 C   0  0  0  0  0  1  0  0  0  0  0  0
  -26.4500  -37.4340   23.7700 N   0  0  0  0  0  0  0  0  0  0  0  0
  -26.0400  -38.3540   23.9060 H   0  0  0  0  0  0  0  0  0  0  0  0
  -26.4060  -31.7790   25.1630 C   0  0  1  0  0  0  0  0  0  0  0  0
  -25.3020  -31.5470   26.2210 C   0  0  0  0  0  1  0  0  0  0  0  0
  -26.9960  -30.4000   24.7880 C   0  0  0  0  0  1  0  0  0  0  0  0
  -27.5470  -32.5820   25.8310 C   0  0  0  0  0  1  0  0  0  0  0  0
  1  2  1  0
  1  3  2  0
  2  4  2  0
  3 14  1  0
  3  5  1  0
  4 47  1  0
  4  5  1  0
  6 15  1  0
  7 12  1  0
  8  9  1  0
  8  7  1  0
 10  9  1  0
 10 21  1  0
 10 11  1  0
 12  6  1  0
 12 11  1  0
 13  6  2  0
 14 16  2  0
 15 14  1  0
 17 15  1  0
 18 19  2  0
 19 38  1  0
 20 19  1  0
 20 23  1  0
 21 18  1  0
 21 22  1  0
 22 20  2  0
 23 24  1  0
 24 25  2  0
 26 29  1  0
 26 25  1  0
 27 26  2  0
 28 27  1  0
 28 23  2  0
 29 30  1  0
 30 31  1  0
 31 32  2  0
 33 32  1  0
 33 37  1  0
 34 33  2  0
 35 30  2  0
 35 34  1  0
 36 35  1  0
 38 39  1  0
 39 42  1  0
 39 41  1  0
 40 38  2  0
 43 44  1  0
 43 18  1  0
 45 43  1  0
 46 47  2  0
 46 48  1  0
 49 48  1  0
 50 61  2  0
 51 49  1  0
 51 56  1  0
 52 60  1  0
 52 62  1  0
 53 59  1  0
 53 55  1  0
 54 60  1  0
 55 56  2  0
 55 54  1  0
 57 51  2  0
 58 57  1  0
 58 53  2  0
 59 52  1  0
 60 50  1  0
 62 64  2  0
 63 62  1  0
 65 63  1  0
 66 75  2  0
 66 71  1  0
 67 63  1  0
 67 71  1  0
 68 67  1  0
 69 70  1  0
 69 68  1  0
 70 66  1  0
 71 72  2  0
 72 73  1  0
 74 73  2  0
 75 74  1  0
 76 50  1  0
 76 77  1  0
 76 86  1  0
 77 80  1  0
 78 82  1  0
 78 77  1  0
 79 78  2  0
 82 81  1  0
 84 82  1  0
 84 85  1  0
 84 83  1  0
 86 89  1  1
 86 87  1  0
 88 86  1  0
M  ISO  4   6 100  15 100  48 101  49 101
M  END
>  <TORSDO>  (49) 
F 18

>  <SCORE>  (49) 
-14.732

>  <name>  (49) 
48

>  <ligand_id>  (49) 
48

>  <original_smiles>  (49) 
[H]C(=Nc1sc(C(=O)N([H])C(=O)N2C([H])([H])C([H])([H])C([H])([H])C([H])(n3nc(-c4c([H])c([H])c(Oc5c([H])c([H])c(F)c([H])c5F)c([H])c4[H])c(C(=O)N([H])[H])c3N([H])[H])C2([H])[H])c([H])c1[H])C([H])([H])Oc1c([H])c([H])c2c(c1[H])C([H])([H])N(C(=O)C([H])(N([H])C(=O)C([H])(N([H])C([H])([H])[H])C([H])([H])[H])C(C([H])([H])[H])(C([H])([H])[H])C([H])([H])[H])C([H])(C(=O)N([H])C1([H])c3c([H])c([H])c([H])c([H])c3C([H])([H])C([H])([H])C1([H])[H])C2([H])[H]

>  <smiles>  (49) 
[H]C(=Nc1sc(C(=O)N([H])C(=O)N2C([H])([H])C([H])([H])C([H])([H])C([H])(n3nc(-c4c([H])c([H])c(Oc5c([H])c([H])c(F)c([H])c5F)c([H])c4[H])c(C(=O)N([H])[H])c3N([H])[H])C2([H])[H])c([H])c1[H])C([H])([H])Oc1c([H])c([H])c2c(c1[H])C([H])([H])N(C(=O)C([H])(N([H])C(=O)C([H])(N([H])C([H])([H])[H])C([H])([H])[H])C(C([H])([H])[H])(C([H])([H])[H])C([H])([H])[H])C([H])(C(=O)N([H])C1([H])c3c([H])c([H])c([H])c([H])c3C([H])([H])C([H])([H])C1([H])[H])C2([H])[H]

$$$$
49:0:0
     RDKit          3D

 95104  0  0  1  0  0  0  0  0999 V2000
  -29.0450  -19.4120   20.9150 C   0  0  0  0  0  3  0  0  0  0  0  0
  -30.2980  -19.6400   18.9390 C   0  0  0  0  0  3  0  0  0  0  0  0
  -29.5220  -20.3320   19.9300 C   0  0  0  0  0  0  0  0  0  0  0  0
  -29.2770  -17.9980   20.9220 C   0  0  0  0  0  0  0  0  0  0  0  0
  -30.0300  -17.3340   19.9160 C   0  0  0  0  0  0  0  0  0  0  0  0
  -30.5430  -18.2130   18.9110 C   0  0  0  0  0  0  0  0  0  0  0  0
  -31.2400  -17.6950   17.8730 F   0  0  0  0  0  0  0  0  0  0  0  0
  -30.8230  -14.8270   19.4250 C   0  0  0  0  0  0  0  0  0  0  0  0
  -30.5380  -12.5600   18.3950 C   0  0  0  0  0  2  0  0  0  0  0  0
  -29.4160  -12.6490   17.3330 C   0  0  0  0  0  2  0  0  0  0  0  0
  -28.0290  -12.4500   17.9750 C   0  0  0  0  0  2  0  0  0  0  0  0
  -27.8400  -13.3040   19.2560 C   0  0  0  0  0  3  0  0  0  0  0  0
  -29.0560  -13.1740   20.1990 C   0  0  0  0  0  2  0  0  0  0  0  0
  -30.2510  -13.5720   19.4370 N   0  0  0  0  0  0  0  0  0  0  0  0
  -31.9090  -15.0070   18.8670 O   0  0  0  0  0  0  0  0  0  0  0  0
  -30.0660  -15.8480   19.9670 N   0  0  0  0  0  0  0  0  0  0  0  0
  -29.2900  -15.4920   20.5030 H   0  0  0  0  0  0  0  0  0  0  0  0
  -25.6230  -13.8700   20.4230 C   0  0  0  0  0  0  0  0  0  0  0  0
  -24.6060  -13.0840   20.8930 C   0  0  0  0  0  0  0  0  0  0  0  0
  -25.0110  -11.7340   20.6600 C   0  0  0  0  0  0  0  0  0  0  0  0
  -26.5840  -12.9990   19.9350 N   0  0  0  0  0  0  0  0  0  0  0  0
  -26.2300  -11.7020   20.1360 N   0  0  0  0  0  0  0  0  0  0  0  0
  -24.2830  -10.4730   20.8530 C   0  0  0  0  0  0  0  0  0  0  0  0
  -24.7310   -9.4940   21.7660 C   0  0  0  0  0  3  0  0  0  0  0  0
  -24.0020   -8.2970   21.9460 C   0  0  0  0  0  3  0  0  0  0  0  0
  -22.8120   -8.0730   21.2140 C   0  0  0  0  0  0  0  0  0  0  0  0
  -22.3830   -9.0430   20.2900 C   0  0  0  0  0  3  0  0  0  0  0  0
  -23.1120  -10.2300   20.1070 C   0  0  0  0  0  3  0  0  0  0  0  0
  -22.0540   -6.9310   21.3060 O   0  0  0  0  0  0  0  0  0  0  0  0
  -21.8550   -6.2930   22.5040 C   0  0  0  0  0  0  0  0  0  0  0  0
  -21.2360   -6.9370   23.5980 C   0  0  0  0  0  3  0  0  0  0  0  0
  -20.9890   -6.2220   24.7870 C   0  0  0  0  0  3  0  0  0  0  0  0
  -21.3510   -4.8650   24.8830 C   0  0  0  0  0  0  0  0  0  0  0  0
  -21.9630   -4.2220   23.7930 C   0  0  0  0  0  3  0  0  0  0  0  0
  -22.2120   -4.9340   22.6050 C   0  0  0  0  0  0  0  0  0  0  0  0
  -22.7820   -4.3020   21.5510 F   0  0  0  0  0  0  0  0  0  0  0  0
  -21.1070   -4.1760   26.0220 F   0  0  0  0  0  0  0  0  0  0  0  0
  -23.2920  -13.5590   21.4420 C   0  0  0  0  0  0  0  0  0  0  0  0
  -22.6990  -12.8020   22.3580 N   0  0  0  0  0  0  0  0  0  0  0  0
  -22.8050  -14.6340   21.0930 O   0  0  0  0  0  0  0  0  0  0  0  0
  -23.1090  -11.9300   22.6600 H   0  0  0  0  0  0  0  0  0  0  0  0
  -21.8240  -13.1000   22.7660 H   0  0  0  0  0  0  0  0  0  0  0  0
  -25.8030  -15.2490   20.3500 N   0  0  0  0  0  0  0  0  0  0  0  0
  -25.1040  -15.9040   20.6820 H   0  0  0  0  0  0  0  0  0  0  0  0
  -26.6350  -15.7060   19.9990 H   0  0  0  0  0  0  0  0  0  0  0  0
  -28.7220  -23.8150   20.0880 C   0  0  0  0  0  0  0  0  0  0  0  0
  -28.3740  -22.6120   20.8410 C   0  0  0  0  0  0  0  0  0  0  0  0
  -28.2710  -25.1170   20.3210 C   0  0  0  0  0  3  0  0  0  0  0  0
  -29.6190  -22.9310   19.1660 C   0  0  0  0  0  2  0  0  0  0  0  0
  -29.1810  -21.7890   20.0260 N   0  0  0  0  0  0  0  0  0  0  0  0
  -27.6440  -22.4590   21.7980 O   0  0  0  0  0  0  0  0  0  0  0  0
  -28.4950  -26.3940   19.7270 O   0  0  0  0  0  0  0  0  0  0  0  0
  -24.6760  -31.6770   22.9830 C   0  0  0  0  0  0  0  0  0  0  0  0
  -27.4050  -27.2960   19.7330 C   0  0  0  0  0  0  0  0  0  0  0  0
  -23.5090  -30.3130   21.2910 C   0  0  0  0  0  3  0  0  0  0  0  0
  -25.0010  -28.8650   19.7920 C   0  0  0  0  0  0  0  0  0  0  0  0
  -26.0400  -30.7050   21.1150 C   0  0  0  0  0  2  0  0  0  0  0  0
  -26.1610  -29.3550   20.4090 C   0  0  0  0  0  0  0  0  0  0  0  0
  -27.3690  -28.5820   20.3700 C   0  0  0  0  0  3  0  0  0  0  0  0
  -26.2230  -26.8750   19.0900 C   0  0  0  0  0  3  0  0  0  0  0  0
  -25.0370  -27.6320   19.1220 C   0  0  0  0  0  3  0  0  0  0  0  0
  -23.7380  -29.7020   19.8830 C   0  0  0  0  0  2  0  0  0  0  0  0
  -24.7610  -30.9150   21.8530 N   0  0  0  0  0  0  0  0  0  0  0  0
  -23.5880  -31.8990   23.5330 O   0  0  0  0  0  0  0  0  0  0  0  0
  -22.8780  -29.2380   22.2120 C   0  0  0  0  0  0  0  0  0  0  0  0
  -21.5520  -29.0480   22.1030 N   0  0  0  0  0  0  0  0  0  0  0  0
  -23.5830  -28.5820   22.9830 O   0  0  0  0  0  0  0  0  0  0  0  0
  -21.0410  -29.6310   21.4550 H   0  0  0  0  0  0  0  0  0  0  0  0
  -18.1980  -27.8050   22.6500 C   0  0  0  0  0  0  0  0  0  0  0  0
  -20.7640  -28.0590   22.8420 C   0  0  0  0  0  3  0  0  0  0  0  0
  -20.8470  -26.6680   22.1730 C   0  0  0  0  0  2  0  0  0  0  0  0
  -19.7100  -26.4060   21.1810 C   0  0  0  0  0  2  0  0  0  0  0  0
  -18.3530  -26.5030   21.8820 C   0  0  0  0  0  2  0  0  0  0  0  0
  -19.3290  -28.5430   23.0870 C   0  0  0  0  0  0  0  0  0  0  0  0
  -19.1290  -29.7630   23.7680 C   0  0  0  0  0  3  0  0  0  0  0  0
  -17.8300  -30.2450   24.0160 C   0  0  0  0  0  3  0  0  0  0  0  0
  -16.7130  -29.5030   23.5930 C   0  0  0  0  0  3  0  0  0  0  0  0
  -16.8980  -28.2840   22.9170 C   0  0  0  0  0  3  0  0  0  0  0  0
  -25.9420  -32.3230   23.6270 C   0  0  0  0  0  3  0  0  0  0  0  0
  -25.5810  -33.6840   24.0490 N   0  0  0  0  0  0  0  0  0  0  0  0
  -25.8320  -34.7950   23.3420 C   0  0  0  0  0  0  0  0  0  0  0  0
  -26.4620  -34.7820   22.2810 O   0  0  0  0  0  0  0  0  0  0  0  0
  -25.0140  -33.7630   24.8800 H   0  0  0  0  0  0  0  0  0  0  0  0
  -24.0000  -36.5110   23.1780 C   0  0  0  0  0  1  0  0  0  0  0  0
  -25.3020  -36.1290   23.9000 C   0  0  0  0  0  3  0  0  0  0  0  0
  -27.4250  -37.0900   24.6760 C   0  0  0  0  0  1  0  0  0  0  0  0
  -26.2730  -37.2410   23.7910 N   0  0  0  0  0  0  0  0  0  0  0  0
  -25.8270  -38.1310   23.9990 H   0  0  0  0  0  0  0  0  0  0  0  0
  -26.5080  -31.4970   24.8470 C   0  0  1  0  0  0  0  0  0  0  0  0
  -25.4410  -31.1490   25.9110 C   0  0  0  0  0  1  0  0  0  0  0  0
  -27.1420  -30.1700   24.3660 C   0  0  0  0  0  1  0  0  0  0  0  0
  -27.6330  -32.2980   25.5430 C   0  0  0  0  0  1  0  0  0  0  0  0
  -28.7300  -17.2320   21.9580 N   0  0  0  0  0  0  0  0  0  0  0  0
  -28.3610  -17.7400   22.7550 H   0  0  0  0  0  0  0  0  0  0  0  0
  -29.2760  -16.4340   22.2600 H   0  0  0  0  0  0  0  0  0  0  0  0
  1  4  1  0
  2  3  1  0
  3 50  1  0
  3  1  2  0
  4 93  1  0
  5 16  1  0
  5  4  2  0
  6  2  2  0
  6  5  1  0
  7  6  1  0
  8 14  1  0
  8 16  1  0
  9 14  1  0
 10 11  1  0
 10  9  1  0
 12 11  1  0
 12 21  1  0
 12 13  1  0
 14 13  1  0
 15  8  2  0
 16 17  1  0
 18 19  2  0
 19 38  1  0
 20 23  1  0
 20 19  1  0
 21 22  1  0
 21 18  1  0
 22 20  2  0
 23 24  1  0
 24 25  2  0
 26 29  1  0
 26 25  1  0
 27 26  2  0
 28 27  1  0
 28 23  2  0
 29 30  1  0
 30 35  2  0
 30 31  1  0
 31 32  2  0
 32 33  1  0
 33 37  1  0
 34 33  2  0
 35 34  1  0
 36 35  1  0
 38 39  1  0
 39 41  1  0
 39 42  1  0
 40 38  2  0
 43 18  1  0
 43 44  1  0
 45 43  1  0
 46 48  2  0
 46 47  1  0
 47 51  2  0
 49 50  1  0
 49 46  1  0
 50 47  1  0
 52 54  1  0
 52 48  1  0
 53 64  2  0
 54 59  1  0
 55 63  1  0
 55 65  1  0
 56 62  1  0
 56 58  1  0
 57 63  1  0
 58 57  1  0
 59 58  2  0
 60 61  1  0
 60 54  2  0
 61 56  2  0
 62 55  1  0
 63 53  1  0
 65 67  2  0
 66 65  1  0
 68 66  1  0
 69 78  2  0
 69 74  1  0
 70 66  1  0
 70 74  1  0
 71 70  1  0
 72 73  1  0
 72 71  1  0
 73 69  1  0
 74 75  2  0
 75 76  1  0
 77 76  2  0
 78 77  1  0
 79 53  1  0
 79 80  1  0
 79 89  1  0
 80 83  1  0
 81 85  1  0
 81 80  1  0
 82 81  2  0
 85 84  1  0
 87 85  1  0
 87 88  1  0
 87 86  1  0
 89 92  1  1
 89 90  1  0
 91 89  1  0
 93 95  1  0
 93 94  1  0
M  ISO  4   8 100  16 100  48 101  52 101
M  END
>  <TORSDO>  (50) 
F 18

>  <SCORE>  (50) 
-11.806

>  <name>  (50) 
49

>  <ligand_id>  (50) 
49

>  <original_smiles>  (50) 
[H]C(Oc1c([H])c([H])c2c(c1[H])C([H])([H])N(C(=O)C([H])(N([H])C(=O)C([H])(N([H])C([H])([H])[H])C([H])([H])[H])C(C([H])([H])[H])(C([H])([H])[H])C([H])([H])[H])C([H])(C(=O)N([H])C1([H])c3c([H])c([H])c([H])c([H])c3C([H])([H])C([H])([H])C1([H])[H])C2([H])[H])=C1C(=O)N(c2c([H])c(F)c(N([H])C(=O)N3C([H])([H])C([H])([H])C([H])([H])C([H])(n4nc(-c5c([H])c([H])c(Oc6c([H])c([H])c(F)c([H])c6F)c([H])c5[H])c(C(=O)N([H])[H])c4N([H])[H])C3([H])[H])c(N([H])[H])c2[H])C1([H])[H]

>  <smiles>  (50) 
[H]C(Oc1c([H])c([H])c2c(c1[H])C([H])([H])N(C(=O)C([H])(N([H])C(=O)C([H])(N([H])C([H])([H])[H])C([H])([H])[H])C(C([H])([H])[H])(C([H])([H])[H])C([H])([H])[H])C([H])(C(=O)N([H])C1([H])c3c([H])c([H])c([H])c([H])c3C([H])([H])C([H])([H])C1([H])[H])C2([H])[H])=C1C(=O)N(c2c([H])c(F)c(N([H])C(=O)N3C([H])([H])C([H])([H])C([H])([H])C([H])(n4nc(-c5c([H])c([H])c(Oc6c([H])c([H])c(F)c([H])c6F)c([H])c5[H])c(C(=O)N([H])[H])c4N([H])[H])C3([H])[H])c(N([H])[H])c2[H])C1([H])[H]

$$$$
50:0:0
     RDKit          3D

 95103  0  0  1  0  0  0  0  0999 V2000
  -28.7500  -23.2890   20.3830 C   0  0  0  0  0  0  0  0  0  0  0  0
  -29.1990  -22.0530   20.8020 N   0  0  0  0  0  0  0  0  0  0  0  0
  -28.2760  -23.4790   19.2580 O   0  0  0  0  0  0  0  0  0  0  0  0
  -29.7280  -22.1190   21.6590 H   0  0  0  0  0  0  0  0  0  0  0  0
  -27.3250  -19.1290   19.3590 C   0  0  0  0  0  3  0  0  0  0  0  0
  -28.2000  -18.0610   19.6240 C   0  0  0  0  0  3  0  0  0  0  0  0
  -27.6910  -20.4380   19.7160 C   0  0  0  0  0  3  0  0  0  0  0  0
  -29.4300  -18.3130   20.2620 C   0  0  0  0  0  0  0  0  0  0  0  0
  -28.9230  -20.6900   20.3520 C   0  0  0  0  0  0  0  0  0  0  0  0
  -29.7540  -19.6170   20.6170 N   0  0  0  0  0  0  0  0  0  0  0  0
  -30.7640  -14.7020   20.2680 C   0  0  0  0  0  0  0  0  0  0  0  0
  -30.5040  -12.4350   19.2780 C   0  0  0  0  0  2  0  0  0  0  0  0
  -29.5760  -12.5190   18.0490 C   0  0  0  0  0  2  0  0  0  0  0  0
  -28.1050  -12.3570   18.4780 C   0  0  0  0  0  2  0  0  0  0  0  0
  -27.7310  -13.2650   19.6800 C   0  0  0  0  0  3  0  0  0  0  0  0
  -28.7870  -13.1990   20.8060 C   0  0  0  0  0  2  0  0  0  0  0  0
  -30.0930  -13.5070   20.2070 N   0  0  0  0  0  0  0  0  0  0  0  0
  -31.9560  -14.7410   19.9540 O   0  0  0  0  0  0  0  0  0  0  0  0
  -30.4500  -17.1580   20.4410 C   0  0  0  0  0  0  0  0  0  0  0  0
  -30.0190  -15.8480   20.4460 N   0  0  0  0  0  0  0  0  0  0  0  0
  -31.6410  -17.4710   20.5770 O   0  0  0  0  0  0  0  0  0  0  0  0
  -29.0240  -15.7340   20.5020 H   0  0  0  0  0  0  0  0  0  0  0  0
  -25.3460  -13.8620   20.4150 C   0  0  0  0  0  0  0  0  0  0  0  0
  -24.2800  -13.0900   20.7920 C   0  0  0  0  0  0  0  0  0  0  0  0
  -24.7440  -11.7390   20.7690 C   0  0  0  0  0  0  0  0  0  0  0  0
  -26.3880  -12.9820   20.1780 N   0  0  0  0  0  0  0  0  0  0  0  0
  -26.0340  -11.7000   20.4570 N   0  0  0  0  0  0  0  0  0  0  0  0
  -24.0190  -10.4780   20.9690 C   0  0  0  0  0  0  0  0  0  0  0  0
  -24.4480   -9.5220   21.9150 C   0  0  0  0  0  3  0  0  0  0  0  0
  -23.7210   -8.3260   22.1030 C   0  0  0  0  0  3  0  0  0  0  0  0
  -22.5530   -8.0790   21.3470 C   0  0  0  0  0  0  0  0  0  0  0  0
  -22.1420   -9.0250   20.3910 C   0  0  0  0  0  3  0  0  0  0  0  0
  -22.8690  -10.2120   20.1990 C   0  0  0  0  0  3  0  0  0  0  0  0
  -21.7980   -6.9360   21.4450 O   0  0  0  0  0  0  0  0  0  0  0  0
  -21.7370   -6.2110   22.6070 C   0  0  0  0  0  0  0  0  0  0  0  0
  -21.2750   -6.7780   23.8160 C   0  0  0  0  0  3  0  0  0  0  0  0
  -21.1630   -5.9780   24.9710 C   0  0  0  0  0  3  0  0  0  0  0  0
  -21.5010   -4.6130   24.9190 C   0  0  0  0  0  0  0  0  0  0  0  0
  -21.9560   -4.0450   23.7160 C   0  0  0  0  0  3  0  0  0  0  0  0
  -22.0710   -4.8420   22.5630 C   0  0  0  0  0  0  0  0  0  0  0  0
  -22.4900   -4.2850   21.4000 F   0  0  0  0  0  0  0  0  0  0  0  0
  -21.3860   -3.8430   26.0260 F   0  0  0  0  0  0  0  0  0  0  0  0
  -22.8850  -13.5720   21.0600 C   0  0  0  0  0  0  0  0  0  0  0  0
  -22.1580  -12.8860   21.9380 N   0  0  0  0  0  0  0  0  0  0  0  0
  -22.4460  -14.5900   20.5270 O   0  0  0  0  0  0  0  0  0  0  0  0
  -22.5230  -12.0610   22.3870 H   0  0  0  0  0  0  0  0  0  0  0  0
  -21.2240  -13.1940   22.1610 H   0  0  0  0  0  0  0  0  0  0  0  0
  -25.5070  -15.2320   20.2330 N   0  0  0  0  0  0  0  0  0  0  0  0
  -24.7430  -15.8860   20.3680 H   0  0  0  0  0  0  0  0  0  0  0  0
  -26.3480  -15.6740   19.8970 H   0  0  0  0  0  0  0  0  0  0  0  0
  -28.7020  -25.7200   21.2810 C   0  0  0  0  0  3  0  0  0  0  0  0
  -28.9120  -24.3590   21.4100 C   0  0  0  0  0  0  0  0  0  0  0  0
  -29.2900  -23.9390   22.6310 O   0  0  0  0  0  0  0  0  0  0  0  0
  -29.3370  -24.6990   23.1960 H   0  0  0  0  0  0  0  0  0  0  0  0
  -28.3890  -26.5080   20.1800 O   0  0  0  0  0  0  0  0  0  0  0  0
  -24.5880  -31.8760   23.2480 C   0  0  0  0  0  0  0  0  0  0  0  0
  -27.2880  -27.3630   20.2340 C   0  0  0  0  0  0  0  0  0  0  0  0
  -23.4220  -30.4720   21.5830 C   0  0  0  0  0  3  0  0  0  0  0  0
  -24.9110  -28.9350   20.1860 C   0  0  0  0  0  0  0  0  0  0  0  0
  -25.9580  -30.8190   21.4410 C   0  0  0  0  0  2  0  0  0  0  0  0
  -26.0640  -29.4380   20.8070 C   0  0  0  0  0  0  0  0  0  0  0  0
  -27.2610  -28.6610   20.8290 C   0  0  0  0  0  3  0  0  0  0  0  0
  -26.1210  -26.9050   19.5980 C   0  0  0  0  0  3  0  0  0  0  0  0
  -24.9400  -27.6700   19.5760 C   0  0  0  0  0  3  0  0  0  0  0  0
  -23.6650  -29.7960   20.2080 C   0  0  0  0  0  2  0  0  0  0  0  0
  -24.6730  -31.0740   22.1480 N   0  0  0  0  0  0  0  0  0  0  0  0
  -23.4940  -32.1430   23.7680 O   0  0  0  0  0  0  0  0  0  0  0  0
  -22.7520  -29.4490   22.5290 C   0  0  0  0  0  0  0  0  0  0  0  0
  -21.4250  -29.2790   22.3930 N   0  0  0  0  0  0  0  0  0  0  0  0
  -23.4240  -28.8120   23.3460 O   0  0  0  0  0  0  0  0  0  0  0  0
  -20.9450  -29.8350   21.6990 H   0  0  0  0  0  0  0  0  0  0  0  0
  -18.0350  -28.1270   22.9010 C   0  0  0  0  0  0  0  0  0  0  0  0
  -20.5990  -28.3390   23.1520 C   0  0  0  0  0  3  0  0  0  0  0  0
  -20.6700  -26.9190   22.5440 C   0  0  0  0  0  2  0  0  0  0  0  0
  -19.5530  -26.6360   21.5350 C   0  0  0  0  0  2  0  0  0  0  0  0
  -18.1810  -26.7880   22.1990 C   0  0  0  0  0  2  0  0  0  0  0  0
  -19.1700  -28.8620   23.3360 C   0  0  0  0  0  0  0  0  0  0  0  0
  -18.9780  -30.1160   23.9550 C   0  0  0  0  0  3  0  0  0  0  0  0
  -17.6830  -30.6340   24.1460 C   0  0  0  0  0  3  0  0  0  0  0  0
  -16.5620  -29.8960   23.7270 C   0  0  0  0  0  3  0  0  0  0  0  0
  -16.7380  -28.6450   23.1090 C   0  0  0  0  0  3  0  0  0  0  0  0
  -25.8560  -32.5160   23.8930 C   0  0  0  0  0  3  0  0  0  0  0  0
  -26.3460  -31.7560   25.1860 C   0  0  1  0  0  0  0  0  0  0  0  0
  -25.2280  -31.5230   26.2310 C   0  0  0  0  0  1  0  0  0  0  0  0
  -26.9400  -30.3770   24.8170 C   0  0  0  0  0  1  0  0  0  0  0  0
  -27.4780  -32.5590   25.8670 C   0  0  0  0  0  1  0  0  0  0  0  0
  -25.5390  -33.9170   24.2030 N   0  0  0  0  0  0  0  0  0  0  0  0
  -25.8850  -34.9630   23.4410 C   0  0  0  0  0  0  0  0  0  0  0  0
  -26.5740  -34.8500   22.4230 O   0  0  0  0  0  0  0  0  0  0  0  0
  -24.9280  -34.0780   24.9920 H   0  0  0  0  0  0  0  0  0  0  0  0
  -24.1700  -36.7550   23.0270 C   0  0  0  0  0  1  0  0  0  0  0  0
  -25.3870  -36.3550   23.8740 C   0  0  0  0  0  3  0  0  0  0  0  0
  -27.4980  -37.2480   24.7580 C   0  0  0  0  0  1  0  0  0  0  0  0
  -26.4250  -37.4050   23.7800 N   0  0  0  0  0  0  0  0  0  0  0  0
  -26.0170  -38.3280   23.9030 H   0  0  0  0  0  0  0  0  0  0  0  0
  1  2  1  0
  1 52  1  0
  2  4  1  0
  3  1  2  0
  5  6  2  0
  5  7  1  0
  6  8  1  0
  7  9  2  0
  8 19  1  0
  8 10  2  0
  9 10  1  0
  9  2  1  0
 11 20  1  0
 12 17  1  0
 13 14  1  0
 13 12  1  0
 15 14  1  0
 15 26  1  0
 15 16  1  0
 17 11  1  0
 17 16  1  0
 18 11  2  0
 19 20  1  0
 19 21  2  0
 20 22  1  0
 23 24  2  0
 24 43  1  0
 25 24  1  0
 25 28  1  0
 26 23  1  0
 26 27  1  0
 27 25  2  0
 28 29  1  0
 29 30  2  0
 31 34  1  0
 31 30  1  0
 32 31  2  0
 33 32  1  0
 33 28  2  0
 34 35  1  0
 35 36  1  0
 36 37  2  0
 38 37  1  0
 38 42  1  0
 39 38  2  0
 40 35  2  0
 40 39  1  0
 41 40  1  0
 43 44  1  0
 44 47  1  0
 44 46  1  0
 45 43  2  0
 48 49  1  0
 48 23  1  0
 50 48  1  0
 51 52  2  0
 52 53  1  0
 53 54  1  0
 55 57  1  0
 55 51  1  0
 56 67  2  0
 57 62  1  0
 58 66  1  0
 58 68  1  0
 59 65  1  0
 59 61  1  0
 60 66  1  0
 61 62  2  0
 61 60  1  0
 63 57  2  0
 64 63  1  0
 64 59  2  0
 65 58  1  0
 66 56  1  0
 68 70  2  0
 69 68  1  0
 71 69  1  0
 72 81  2  0
 72 77  1  0
 73 69  1  0
 73 77  1  0
 74 73  1  0
 75 76  1  0
 75 74  1  0
 76 72  1  0
 77 78  2  0
 78 79  1  0
 80 79  2  0
 81 80  1  0
 82 56  1  0
 82 87  1  0
 82 83  1  0
 83 86  1  1
 83 84  1  0
 85 83  1  0
 87 90  1  0
 88 92  1  0
 88 87  1  0
 89 88  2  0
 92 91  1  0
 94 92  1  0
 94 95  1  0
 94 93  1  0
M  ISO  4  11 100  20 100  51 101  55 101
M  END
>  <TORSDO>  (51) 
F 19

>  <SCORE>  (51) 
-14.789

>  <name>  (51) 
50

>  <ligand_id>  (51) 
50

>  <original_smiles>  (51) 
[H]OC(C(=O)N([H])c1nc(C(=O)N([H])C(=O)N2C([H])([H])C([H])([H])C([H])([H])C([H])(n3nc(-c4c([H])c([H])c(Oc5c([H])c([H])c(F)c([H])c5F)c([H])c4[H])c(C(=O)N([H])[H])c3N([H])[H])C2([H])[H])c([H])c([H])c1[H])=C([H])Oc1c([H])c([H])c2c(c1[H])C([H])([H])N(C(=O)C([H])(N([H])C(=O)C([H])(N([H])C([H])([H])[H])C([H])([H])[H])C(C([H])([H])[H])(C([H])([H])[H])C([H])([H])[H])C([H])(C(=O)N([H])C1([H])c3c([H])c([H])c([H])c([H])c3C([H])([H])C([H])([H])C1([H])[H])C2([H])[H]

>  <smiles>  (51) 
[H]OC(C(=O)N([H])c1nc(C(=O)N([H])C(=O)N2C([H])([H])C([H])([H])C([H])([H])C([H])(n3nc(-c4c([H])c([H])c(Oc5c([H])c([H])c(F)c([H])c5F)c([H])c4[H])c(C(=O)N([H])[H])c3N([H])[H])C2([H])[H])c([H])c([H])c1[H])=C([H])Oc1c([H])c([H])c2c(c1[H])C([H])([H])N(C(=O)C([H])(N([H])C(=O)C([H])(N([H])C([H])([H])[H])C([H])([H])[H])C(C([H])([H])[H])(C([H])([H])[H])C([H])([H])[H])C([H])(C(=O)N([H])C1([H])c3c([H])c([H])c([H])c([H])c3C([H])([H])C([H])([H])C1([H])[H])C2([H])[H]

$$$$
51:0:0
     RDKit          3D

 98107  0  0  1  0  0  0  0  0999 V2000
  -28.8350  -19.3180   20.7530 C   0  0  0  0  0  3  0  0  0  0  0  0
  -31.0670  -17.9700   19.7300 C   0  0  0  0  0  3  0  0  0  0  0  0
  -29.8790  -20.1220   20.2190 C   0  0  0  0  0  0  0  0  0  0  0  0
  -28.9100  -17.8950   20.7930 C   0  0  0  0  0  0  0  0  0  0  0  0
  -30.0260  -17.1780   20.2870 C   0  0  0  0  0  0  0  0  0  0  0  0
  -31.0020  -19.4120   19.6870 C   0  0  0  0  0  0  0  0  0  0  0  0
  -30.7140  -14.6890   19.8280 C   0  0  0  0  0  0  0  0  0  0  0  0
  -30.4070  -12.4950   18.6920 C   0  0  0  0  0  2  0  0  0  0  0  0
  -29.3550  -12.6690   17.5730 C   0  0  0  0  0  2  0  0  0  0  0  0
  -27.9240  -12.4990   18.1240 C   0  0  0  0  0  2  0  0  0  0  0  0
  -27.6830  -13.3100   19.4260 C   0  0  0  0  0  3  0  0  0  0  0  0
  -28.8360  -13.0970   20.4320 C   0  0  0  0  0  2  0  0  0  0  0  0
  -30.0920  -13.4670   19.7590 N   0  0  0  0  0  0  0  0  0  0  0  0
  -31.8300  -14.8670   19.3310 O   0  0  0  0  0  0  0  0  0  0  0  0
  -29.9610  -15.7120   20.3410 N   0  0  0  0  0  0  0  0  0  0  0  0
  -29.0960  -15.3950   20.7500 H   0  0  0  0  0  0  0  0  0  0  0  0
  -25.3660  -13.8920   20.3730 C   0  0  0  0  0  0  0  0  0  0  0  0
  -24.3250  -13.1090   20.7950 C   0  0  0  0  0  0  0  0  0  0  0  0
  -24.7720  -11.7580   20.6700 C   0  0  0  0  0  0  0  0  0  0  0  0
  -26.3790  -13.0160   20.0150 N   0  0  0  0  0  0  0  0  0  0  0  0
  -26.0310  -11.7250   20.2520 N   0  0  0  0  0  0  0  0  0  0  0  0
  -24.0530  -10.4930   20.8720 C   0  0  0  0  0  0  0  0  0  0  0  0
  -24.4970   -9.5300   21.8050 C   0  0  0  0  0  3  0  0  0  0  0  0
  -23.7790   -8.3290   21.9940 C   0  0  0  0  0  3  0  0  0  0  0  0
  -22.6010   -8.0840   21.2480 C   0  0  0  0  0  0  0  0  0  0  0  0
  -22.1750   -9.0350   20.3040 C   0  0  0  0  0  3  0  0  0  0  0  0
  -22.8950  -10.2260   20.1140 C   0  0  0  0  0  3  0  0  0  0  0  0
  -21.8540   -6.9360   21.3450 O   0  0  0  0  0  0  0  0  0  0  0  0
  -21.7270   -6.2560   22.5310 C   0  0  0  0  0  0  0  0  0  0  0  0
  -21.1810   -6.8640   23.6820 C   0  0  0  0  0  3  0  0  0  0  0  0
  -21.0050   -6.1100   24.8600 C   0  0  0  0  0  3  0  0  0  0  0  0
  -21.3650   -4.7490   24.8860 C   0  0  0  0  0  0  0  0  0  0  0  0
  -21.9030   -4.1410   23.7380 C   0  0  0  0  0  3  0  0  0  0  0  0
  -22.0810   -4.8920   22.5620 C   0  0  0  0  0  0  0  0  0  0  0  0
  -22.5800   -4.2970   21.4530 F   0  0  0  0  0  0  0  0  0  0  0  0
  -21.1890   -4.0220   26.0130 F   0  0  0  0  0  0  0  0  0  0  0  0
  -22.9610  -13.5820   21.2080 C   0  0  0  0  0  0  0  0  0  0  0  0
  -22.3090  -12.8600   22.1130 N   0  0  0  0  0  0  0  0  0  0  0  0
  -22.4850  -14.6260   20.7640 O   0  0  0  0  0  0  0  0  0  0  0  0
  -22.7080  -12.0140   22.4920 H   0  0  0  0  0  0  0  0  0  0  0  0
  -21.3990  -13.1590   22.4320 H   0  0  0  0  0  0  0  0  0  0  0  0
  -25.5280  -15.2680   20.2520 N   0  0  0  0  0  0  0  0  0  0  0  0
  -24.8000  -15.9160   20.5320 H   0  0  0  0  0  0  0  0  0  0  0  0
  -26.4150  -15.7300   20.0900 H   0  0  0  0  0  0  0  0  0  0  0  0
  -30.2470  -23.7710   20.7860 C   0  0  0  0  0  3  0  0  0  0  0  0
  -29.1550  -23.8090   20.0180 C   0  0  0  0  0  0  0  0  0  0  0  0
  -30.6680  -22.3880   20.9540 C   0  0  0  0  0  0  0  0  0  0  0  0
  -28.8670  -22.4020   19.6750 C   0  0  0  0  0  0  0  0  0  0  0  0
  -29.8090  -21.6030   20.2610 N   0  0  0  0  0  0  0  0  0  0  0  0
  -31.6200  -21.9880   21.6360 O   0  0  0  0  0  0  0  0  0  0  0  0
  -27.9380  -21.9910   18.9710 O   0  0  0  0  0  0  0  0  0  0  0  0
  -28.2750  -25.0210   19.5470 C   0  0  0  0  0  2  0  0  0  0  0  0
  -28.5060  -26.4310   19.9820 O   0  0  0  0  0  0  0  0  0  0  0  0
  -24.6260  -31.6690   23.1510 C   0  0  0  0  0  0  0  0  0  0  0  0
  -27.3850  -27.2920   19.9370 C   0  0  0  0  0  0  0  0  0  0  0  0
  -23.4750  -30.3010   21.4510 C   0  0  0  0  0  3  0  0  0  0  0  0
  -24.9780  -28.8580   19.9730 C   0  0  0  0  0  0  0  0  0  0  0  0
  -26.0090  -30.6920   21.3030 C   0  0  0  0  0  2  0  0  0  0  0  0
  -26.1320  -29.3440   20.6010 C   0  0  0  0  0  0  0  0  0  0  0  0
  -27.3360  -28.5720   20.5790 C   0  0  0  0  0  3  0  0  0  0  0  0
  -26.2040  -26.8840   19.2660 C   0  0  0  0  0  3  0  0  0  0  0  0
  -25.0180  -27.6340   19.2970 C   0  0  0  0  0  3  0  0  0  0  0  0
  -23.7170  -29.6920   20.0460 C   0  0  0  0  0  2  0  0  0  0  0  0
  -24.7210  -30.9030   22.0250 N   0  0  0  0  0  0  0  0  0  0  0  0
  -23.5310  -31.8950   23.6860 O   0  0  0  0  0  0  0  0  0  0  0  0
  -22.8360  -29.2270   22.3640 C   0  0  0  0  0  0  0  0  0  0  0  0
  -21.5180  -29.0120   22.2160 N   0  0  0  0  0  0  0  0  0  0  0  0
  -23.5270  -28.5930   23.1670 O   0  0  0  0  0  0  0  0  0  0  0  0
  -21.0190  -29.5760   21.5430 H   0  0  0  0  0  0  0  0  0  0  0  0
  -18.1690  -27.7180   22.6660 C   0  0  0  0  0  0  0  0  0  0  0  0
  -20.7210  -28.0240   22.9460 C   0  0  0  0  0  3  0  0  0  0  0  0
  -20.8550  -26.6220   22.3070 C   0  0  0  0  0  2  0  0  0  0  0  0
  -19.7600  -26.3180   21.2810 C   0  0  0  0  0  2  0  0  0  0  0  0
  -18.3760  -26.4040   21.9310 C   0  0  0  0  0  2  0  0  0  0  0  0
  -19.2710  -28.4860   23.1280 C   0  0  0  0  0  0  0  0  0  0  0  0
  -19.0230  -29.7160   23.7750 C   0  0  0  0  0  3  0  0  0  0  0  0
  -17.7070  -30.1800   23.9630 C   0  0  0  0  0  3  0  0  0  0  0  0
  -16.6200  -29.4090   23.5170 C   0  0  0  0  0  3  0  0  0  0  0  0
  -16.8520  -28.1790   22.8740 C   0  0  0  0  0  3  0  0  0  0  0  0
  -25.8860  -32.3140   23.8040 C   0  0  0  0  0  3  0  0  0  0  0  0
  -26.3870  -31.5380   25.0830 C   0  0  1  0  0  0  0  0  0  0  0  0
  -25.2740  -31.2660   26.1220 C   0  0  0  0  0  1  0  0  0  0  0  0
  -27.0060  -30.1760   24.6910 C   0  0  0  0  0  1  0  0  0  0  0  0
  -27.5090  -32.3450   25.7790 C   0  0  0  0  0  1  0  0  0  0  0  0
  -25.5490  -33.7040   24.1420 N   0  0  0  0  0  0  0  0  0  0  0  0
  -25.8490  -34.7660   23.3840 C   0  0  0  0  0  0  0  0  0  0  0  0
  -26.5090  -34.6820   22.3440 O   0  0  0  0  0  0  0  0  0  0  0  0
  -24.9630  -33.8430   24.9530 H   0  0  0  0  0  0  0  0  0  0  0  0
  -24.0620  -36.5080   23.0710 C   0  0  0  0  0  1  0  0  0  0  0  0
  -25.3360  -36.1420   23.8510 C   0  0  0  0  0  3  0  0  0  0  0  0
  -27.4590  -37.0930   24.6320 C   0  0  0  0  0  1  0  0  0  0  0  0
  -26.3350  -37.2230   23.7090 N   0  0  0  0  0  0  0  0  0  0  0  0
  -25.9060  -38.1320   23.8580 H   0  0  0  0  0  0  0  0  0  0  0  0
  -27.8580  -17.1760   21.3610 N   0  0  0  0  0  0  0  0  0  0  0  0
  -27.1410  -17.7300   21.8200 H   0  0  0  0  0  0  0  0  0  0  0  0
  -28.1350  -16.4110   21.9650 H   0  0  0  0  0  0  0  0  0  0  0  0
  -33.1160  -19.5380   18.5390 C   0  0  0  0  0  1  0  0  0  0  0  0
  -31.9950  -20.1870   19.1250 O   0  0  0  0  0  0  0  0  0  0  0  0
  1  4  1  0
  2  5  1  0
  3 49  1  0
  3  1  2  0
  4 94  1  0
  5 15  1  0
  5  4  2  0
  6  2  2  0
  6  3  1  0
  7 15  1  0
  8 13  1  0
  9 10  1  0
  9  8  1  0
 11 10  1  0
 11 20  1  0
 11 12  1  0
 13  7  1  0
 13 12  1  0
 14  7  2  0
 15 16  1  0
 17 18  2  0
 18 37  1  0
 19 18  1  0
 19 22  1  0
 20 21  1  0
 20 17  1  0
 21 19  2  0
 22 23  1  0
 23 24  2  0
 25 28  1  0
 25 24  1  0
 26 25  2  0
 27 26  1  0
 27 22  2  0
 28 29  1  0
 29 34  2  0
 29 30  1  0
 30 31  2  0
 31 32  1  0
 32 36  1  0
 33 32  2  0
 34 33  1  0
 35 34  1  0
 37 38  1  0
 38 41  1  0
 38 40  1  0
 39 37  2  0
 42 17  1  0
 42 43  1  0
 44 42  1  0
 45 47  1  0
 46 45  2  0
 47 50  2  0
 48 46  1  0
 48 49  1  0
 49 47  1  0
 51 48  2  0
 52 53  1  0
 52 46  1  0
 54 65  2  0
 55 53  1  0
 55 60  1  0
 56 64  1  0
 56 66  1  0
 57 63  1  0
 57 59  1  0
 58 64  1  0
 59 58  1  0
 60 59  2  0
 61 62  1  0
 61 55  2  0
 62 57  2  0
 63 56  1  0
 64 54  1  0
 66 68  2  0
 67 66  1  0
 69 67  1  0
 70 79  2  0
 70 75  1  0
 71 67  1  0
 71 75  1  0
 72 71  1  0
 73 74  1  0
 73 72  1  0
 74 70  1  0
 75 76  2  0
 76 77  1  0
 78 77  2  0
 79 78  1  0
 80 54  1  0
 80 85  1  0
 80 81  1  0
 81 84  1  1
 81 82  1  0
 83 81  1  0
 85 88  1  0
 86 90  1  0
 86 85  1  0
 87 86  2  0
 90 89  1  0
 92 90  1  0
 92 93  1  0
 92 91  1  0
 94 95  1  0
 94 96  1  0
 97 98  1  0
 98  6  1  0
M  ISO  4   7 100  15 100  52 101  53 101
M  END
>  <TORSDO>  (52) 
F 20

>  <SCORE>  (52) 
-12.651

>  <name>  (52) 
51

>  <ligand_id>  (52) 
51

>  <original_smiles>  (52) 
[H]C1=C(C([H])([H])Oc2c([H])c([H])c3c(c2[H])C([H])([H])N(C(=O)C([H])(N([H])C(=O)C([H])(N([H])C([H])([H])[H])C([H])([H])[H])C(C([H])([H])[H])(C([H])([H])[H])C([H])([H])[H])C([H])(C(=O)N([H])C2([H])c4c([H])c([H])c([H])c([H])c4C([H])([H])C([H])([H])C2([H])[H])C3([H])[H])C(=O)N(c2c([H])c(N([H])[H])c(N([H])C(=O)N3C([H])([H])C([H])([H])C([H])([H])C([H])(n4nc(-c5c([H])c([H])c(Oc6c([H])c([H])c(F)c([H])c6F)c([H])c5[H])c(C(=O)N([H])[H])c4N([H])[H])C3([H])[H])c([H])c2OC([H])([H])[H])C1=O

>  <smiles>  (52) 
[H]C1=C(C([H])([H])Oc2c([H])c([H])c3c(c2[H])C([H])([H])N(C(=O)C([H])(N([H])C(=O)C([H])(N([H])C([H])([H])[H])C([H])([H])[H])C(C([H])([H])[H])(C([H])([H])[H])C([H])([H])[H])C([H])(C(=O)N([H])C2([H])c4c([H])c([H])c([H])c([H])c4C([H])([H])C([H])([H])C2([H])[H])C3([H])[H])C(=O)N(c2c([H])c(N([H])[H])c(N([H])C(=O)N3C([H])([H])C([H])([H])C([H])([H])C([H])(n4nc(-c5c([H])c([H])c(Oc6c([H])c([H])c(F)c([H])c6F)c([H])c5[H])c(C(=O)N([H])[H])c4N([H])[H])C3([H])[H])c([H])c2OC([H])([H])[H])C1=O

$$$$
52:0:0
     RDKit          3D

 93101  0  0  1  0  0  0  0  0999 V2000
  -29.2110  -22.8980   20.1270 C   0  0  0  0  0  0  0  0  0  0  0  0
  -30.2360  -22.2390   20.7180 N   0  0  0  0  0  0  0  0  0  0  0  0
  -28.3150  -22.3080   19.5180 O   0  0  0  0  0  0  0  0  0  0  0  0
  -30.8850  -22.8510   21.1920 H   0  0  0  0  0  0  0  0  0  0  0  0
  -30.6480  -19.2680   22.9390 C   0  0  0  0  0  3  0  0  0  0  0  0
  -30.7490  -18.1930   22.0360 C   0  0  0  0  0  3  0  0  0  0  0  0
  -30.4520  -20.5810   22.4720 C   0  0  0  0  0  3  0  0  0  0  0  0
  -30.4430  -19.7520   20.1820 C   0  0  0  0  0  3  0  0  0  0  0  0
  -30.6560  -18.4090   20.6430 C   0  0  0  0  0  0  0  0  0  0  0  0
  -30.3320  -20.8490   21.0930 C   0  0  0  0  0  0  0  0  0  0  0  0
  -29.8960  -17.4210   18.4290 C   0  0  0  0  0  1  0  0  0  0  0  0
  -30.8060  -17.2160   19.6570 C   0  0  0  0  0  3  0  0  0  0  0  0
  -31.2980  -14.7390   19.9730 C   0  0  0  0  0  0  0  0  0  0  0  0
  -30.9710  -12.4860   19.0190 C   0  0  0  0  0  2  0  0  0  0  0  0
  -30.0200  -12.6220   17.8110 C   0  0  0  0  0  2  0  0  0  0  0  0
  -28.5480  -12.5370   18.2620 C   0  0  0  0  0  2  0  0  0  0  0  0
  -28.2390  -13.4580   19.4730 C   0  0  0  0  0  3  0  0  0  0  0  0
  -29.3060  -13.3100   20.5820 C   0  0  0  0  0  2  0  0  0  0  0  0
  -30.6240  -13.5530   19.9750 N   0  0  0  0  0  0  0  0  0  0  0  0
  -32.4530  -14.8320   19.5510 O   0  0  0  0  0  0  0  0  0  0  0  0
  -30.5470  -15.8480   20.1990 N   0  0  0  0  0  0  0  0  0  0  0  0
  -29.6150  -15.6780   20.5430 H   0  0  0  0  0  0  0  0  0  0  0  0
  -25.8930  -14.1630   20.2530 C   0  0  0  0  0  0  0  0  0  0  0  0
  -24.7990  -13.4370   20.6400 C   0  0  0  0  0  0  0  0  0  0  0  0
  -25.1960  -12.0650   20.5830 C   0  0  0  0  0  0  0  0  0  0  0  0
  -26.8890  -13.2370   19.9860 N   0  0  0  0  0  0  0  0  0  0  0  0
  -26.4760  -11.9700   20.2430 N   0  0  0  0  0  0  0  0  0  0  0  0
  -24.4150  -10.8370   20.7770 C   0  0  0  0  0  0  0  0  0  0  0  0
  -24.7870   -9.8690   21.7360 C   0  0  0  0  0  3  0  0  0  0  0  0
  -24.0100   -8.7040   21.9160 C   0  0  0  0  0  3  0  0  0  0  0  0
  -22.8470   -8.4990   21.1360 C   0  0  0  0  0  0  0  0  0  0  0  0
  -22.4950   -9.4530   20.1680 C   0  0  0  0  0  3  0  0  0  0  0  0
  -23.2720  -10.6100   19.9850 C   0  0  0  0  0  3  0  0  0  0  0  0
  -22.0460   -7.3860   21.2250 O   0  0  0  0  0  0  0  0  0  0  0  0
  -21.8860   -6.7050   22.4060 C   0  0  0  0  0  0  0  0  0  0  0  0
  -21.4160   -7.3430   23.5750 C   0  0  0  0  0  3  0  0  0  0  0  0
  -21.2000   -6.5920   24.7470 C   0  0  0  0  0  3  0  0  0  0  0  0
  -21.4440   -5.2060   24.7520 C   0  0  0  0  0  0  0  0  0  0  0  0
  -21.9060   -4.5690   23.5870 C   0  0  0  0  0  3  0  0  0  0  0  0
  -22.1240   -5.3160   22.4160 C   0  0  0  0  0  0  0  0  0  0  0  0
  -22.5500   -4.6940   21.2910 F   0  0  0  0  0  0  0  0  0  0  0  0
  -21.2290   -4.4830   25.8750 F   0  0  0  0  0  0  0  0  0  0  0  0
  -23.4330  -13.9750   20.9530 C   0  0  0  0  0  0  0  0  0  0  0  0
  -22.7140  -13.3320   21.8670 N   0  0  0  0  0  0  0  0  0  0  0  0
  -23.0120  -15.0010   20.4200 O   0  0  0  0  0  0  0  0  0  0  0  0
  -23.0680  -12.5020   22.3200 H   0  0  0  0  0  0  0  0  0  0  0  0
  -21.7990  -13.6770   22.1190 H   0  0  0  0  0  0  0  0  0  0  0  0
  -26.1170  -15.5270   20.0870 N   0  0  0  0  0  0  0  0  0  0  0  0
  -25.3810  -16.2120   20.2240 H   0  0  0  0  0  0  0  0  0  0  0  0
  -26.9710  -15.9330   19.7290 H   0  0  0  0  0  0  0  0  0  0  0  0
  -29.3000  -24.3650   20.2800 C   0  0  0  0  0  3  0  0  0  0  0  0
  -28.5030  -25.2290   19.5910 C   0  0  0  0  0  3  0  0  0  0  0  0
  -28.5390  -26.6180   19.7110 O   0  0  0  0  0  0  0  0  0  0  0  0
  -24.7620  -31.7690   22.9640 C   0  0  0  0  0  0  0  0  0  0  0  0
  -27.3610  -27.3650   19.7290 C   0  0  0  0  0  0  0  0  0  0  0  0
  -23.5230  -30.3690   21.3500 C   0  0  0  0  0  3  0  0  0  0  0  0
  -24.9470  -28.8770   19.8470 C   0  0  0  0  0  0  0  0  0  0  0  0
  -26.0390  -30.7610   21.0670 C   0  0  0  0  0  2  0  0  0  0  0  0
  -26.1230  -29.3980   20.4010 C   0  0  0  0  0  0  0  0  0  0  0  0
  -27.3290  -28.6500   20.3390 C   0  0  0  0  0  3  0  0  0  0  0  0
  -26.1570  -26.8760   19.1680 C   0  0  0  0  0  3  0  0  0  0  0  0
  -24.9620  -27.6170   19.2280 C   0  0  0  0  0  3  0  0  0  0  0  0
  -23.6940  -29.7180   19.9520 C   0  0  0  0  0  2  0  0  0  0  0  0
  -24.7960  -30.9810   21.8510 N   0  0  0  0  0  0  0  0  0  0  0  0
  -23.6960  -32.0150   23.5460 O   0  0  0  0  0  0  0  0  0  0  0  0
  -22.9240  -29.3230   22.3180 C   0  0  0  0  0  0  0  0  0  0  0  0
  -21.6010  -29.1080   22.2270 N   0  0  0  0  0  0  0  0  0  0  0  0
  -23.6440  -28.7080   23.1080 O   0  0  0  0  0  0  0  0  0  0  0  0
  -21.0750  -29.6580   21.5630 H   0  0  0  0  0  0  0  0  0  0  0  0
  -18.2830  -27.7770   22.7680 C   0  0  0  0  0  0  0  0  0  0  0  0
  -20.8310  -28.1420   23.0110 C   0  0  0  0  0  3  0  0  0  0  0  0
  -20.9860  -26.7120   22.4430 C   0  0  0  0  0  2  0  0  0  0  0  0
  -19.8880  -26.3380   21.4430 C   0  0  0  0  0  2  0  0  0  0  0  0
  -18.5080  -26.4310   22.1000 C   0  0  0  0  0  2  0  0  0  0  0  0
  -19.3730  -28.5860   23.1830 C   0  0  0  0  0  0  0  0  0  0  0  0
  -19.1090  -29.8430   23.7680 C   0  0  0  0  0  3  0  0  0  0  0  0
  -17.7870  -30.2930   23.9430 C   0  0  0  0  0  3  0  0  0  0  0  0
  -16.7110  -29.4800   23.5470 C   0  0  0  0  0  3  0  0  0  0  0  0
  -16.9590  -28.2240   22.9650 C   0  0  0  0  0  3  0  0  0  0  0  0
  -26.0570  -32.4170   23.5450 C   0  0  0  0  0  3  0  0  0  0  0  0
  -26.6910  -31.5850   24.7280 C   0  0  1  0  0  0  0  0  0  0  0  0
  -25.6830  -31.2200   25.8420 C   0  0  0  0  0  1  0  0  0  0  0  0
  -27.3100  -30.2700   24.2020 C   0  0  0  0  0  1  0  0  0  0  0  0
  -27.8450  -32.3890   25.3740 C   0  0  0  0  0  1  0  0  0  0  0  0
  -25.7120  -33.7730   23.9900 N   0  0  0  0  0  0  0  0  0  0  0  0
  -25.9950  -34.8920   23.3110 C   0  0  0  0  0  0  0  0  0  0  0  0
  -26.6470  -34.8920   22.2620 O   0  0  0  0  0  0  0  0  0  0  0  0
  -25.1300  -33.8450   24.8120 H   0  0  0  0  0  0  0  0  0  0  0  0
  -24.2140  -36.6580   23.1200 C   0  0  0  0  0  1  0  0  0  0  0  0
  -25.4740  -36.2230   23.8850 C   0  0  0  0  0  3  0  0  0  0  0  0
  -27.5930  -37.0960   24.7680 C   0  0  0  0  0  1  0  0  0  0  0  0
  -26.4750  -37.3110   23.8510 N   0  0  0  0  0  0  0  0  0  0  0  0
  -26.0460  -38.2040   24.0800 H   0  0  0  0  0  0  0  0  0  0  0  0
  1 51  1  0
  1  2  1  0
  2 10  1  0
  2  4  1  0
  3  1  2  0
  6  5  2  0
  7  5  1  0
  8  9  2  0
  8 10  1  0
  9  6  1  0
 10  7  2  0
 12 11  1  0
 12 21  1  0
 12  9  1  0
 13 19  1  0
 13 21  1  0
 14 19  1  0
 15 16  1  0
 15 14  1  0
 17 16  1  0
 17 26  1  0
 17 18  1  0
 19 18  1  0
 20 13  2  0
 21 22  1  0
 23 24  2  0
 24 43  1  0
 25 24  1  0
 25 28  1  0
 26 27  1  0
 26 23  1  0
 27 25  2  0
 28 29  1  0
 29 30  2  0
 31 34  1  0
 31 30  1  0
 32 31  2  0
 33 32  1  0
 33 28  2  0
 34 35  1  0
 35 40  2  0
 35 36  1  0
 36 37  2  0
 37 38  1  0
 38 42  1  0
 39 38  2  0
 40 39  1  0
 41 40  1  0
 43 44  1  0
 44 47  1  0
 44 46  1  0
 45 43  2  0
 48 49  1  0
 48 23  1  0
 50 48  1  0
 52 53  1  0
 52 51  2  0
 53 55  1  0
 54 65  2  0
 55 60  1  0
 56 64  1  0
 56 66  1  0
 57 63  1  0
 57 59  1  0
 58 64  1  0
 59 58  1  0
 60 59  2  0
 61 62  1  0
 61 55  2  0
 62 57  2  0
 63 56  1  0
 64 54  1  0
 66 68  2  0
 67 66  1  0
 69 67  1  0
 70 79  2  0
 70 75  1  0
 71 67  1  0
 71 75  1  0
 72 71  1  0
 73 74  1  0
 73 72  1  0
 74 70  1  0
 75 76  2  0
 76 77  1  0
 78 77  2  0
 79 78  1  0
 80 54  1  0
 80 85  1  0
 80 81  1  0
 81 84  1  1
 81 82  1  0
 83 81  1  0
 85 88  1  0
 86 90  1  0
 86 85  1  0
 87 86  2  0
 90 89  1  0
 92 90  1  0
 92 93  1  0
 92 91  1  0
M  ISO  4  13 100  21 100  52 101  53 101
M  END
>  <TORSDO>  (53) 
F 19

>  <SCORE>  (53) 
-12.709

>  <name>  (53) 
52

>  <ligand_id>  (53) 
52

>  <original_smiles>  (53) 
[H]C(Oc1c([H])c([H])c2c(c1[H])C([H])([H])N(C(=O)C([H])(N([H])C(=O)C([H])(N([H])C([H])([H])[H])C([H])([H])[H])C(C([H])([H])[H])(C([H])([H])[H])C([H])([H])[H])C([H])(C(=O)N([H])C1([H])c3c([H])c([H])c([H])c([H])c3C([H])([H])C([H])([H])C1([H])[H])C2([H])[H])=C([H])C(=O)N([H])c1c([H])c([H])c([H])c(C([H])(N([H])C(=O)N2C([H])([H])C([H])([H])C([H])([H])C([H])(n3nc(-c4c([H])c([H])c(Oc5c([H])c([H])c(F)c([H])c5F)c([H])c4[H])c(C(=O)N([H])[H])c3N([H])[H])C2([H])[H])C([H])([H])[H])c1[H]

>  <smiles>  (53) 
[H]C(Oc1c([H])c([H])c2c(c1[H])C([H])([H])N(C(=O)C([H])(N([H])C(=O)C([H])(N([H])C([H])([H])[H])C([H])([H])[H])C(C([H])([H])[H])(C([H])([H])[H])C([H])([H])[H])C([H])(C(=O)N([H])C1([H])c3c([H])c([H])c([H])c([H])c3C([H])([H])C([H])([H])C1([H])[H])C2([H])[H])=C([H])C(=O)N([H])c1c([H])c([H])c([H])c(C([H])(N([H])C(=O)N2C([H])([H])C([H])([H])C([H])([H])C([H])(n3nc(-c4c([H])c([H])c(Oc5c([H])c([H])c(F)c([H])c5F)c([H])c4[H])c(C(=O)N([H])[H])c3N([H])[H])C2([H])[H])C([H])([H])[H])c1[H]

$$$$
53:0:0
     RDKit          3D

 94102  0  0  1  0  0  0  0  0999 V2000
  -29.1020  -22.6880   20.3540 C   0  0  0  0  0  0  0  0  0  0  0  0
  -28.9030  -21.3030   20.5720 N   0  0  0  0  0  0  0  0  0  0  0  0
  -30.0430  -23.0970   19.6740 O   0  0  0  0  0  0  0  0  0  0  0  0
  -27.9730  -21.0790   20.8960 H   0  0  0  0  0  0  0  0  0  0  0  0
  -32.0750  -19.1930   20.2820 C   0  0  0  0  0  3  0  0  0  0  0  0
  -31.1810  -20.2790   20.3230 C   0  0  0  0  0  3  0  0  0  0  0  0
  -31.6380  -17.8570   20.3580 C   0  0  0  0  0  3  0  0  0  0  0  0
  -29.7880  -20.0870   20.4480 C   0  0  0  0  0  0  0  0  0  0  0  0
  -30.2680  -17.5120   20.4710 C   0  0  0  0  0  0  0  0  0  0  0  0
  -29.3590  -18.6740   20.5270 C   0  0  0  0  0  0  0  0  0  0  0  0
  -28.0340  -18.4270   20.6680 F   0  0  0  0  0  0  0  0  0  0  0  0
  -30.5890  -14.8550   20.3380 C   0  0  0  0  0  0  0  0  0  0  0  0
  -30.3680  -12.5540   19.3500 C   0  0  0  0  0  2  0  0  0  0  0  0
  -29.4240  -12.5850   18.1280 C   0  0  0  0  0  2  0  0  0  0  0  0
  -27.9630  -12.3930   18.5750 C   0  0  0  0  0  2  0  0  0  0  0  0
  -27.5880  -13.2950   19.7820 C   0  0  0  0  0  3  0  0  0  0  0  0
  -28.6570  -13.2640   20.8940 C   0  0  0  0  0  2  0  0  0  0  0  0
  -29.9370  -13.6340   20.2770 N   0  0  0  0  0  0  0  0  0  0  0  0
  -31.7800  -14.8720   20.0170 O   0  0  0  0  0  0  0  0  0  0  0  0
  -29.8690  -16.0490   20.5440 N   0  0  0  0  0  0  0  0  0  0  0  0
  -28.8880  -15.9010   20.7270 H   0  0  0  0  0  0  0  0  0  0  0  0
  -25.2090  -13.8660   20.5420 C   0  0  0  0  0  0  0  0  0  0  0  0
  -24.1510  -13.0860   20.9190 C   0  0  0  0  0  0  0  0  0  0  0  0
  -24.6200  -11.7360   20.8790 C   0  0  0  0  0  0  0  0  0  0  0  0
  -26.2550  -12.9930   20.2910 N   0  0  0  0  0  0  0  0  0  0  0  0
  -25.9090  -11.7060   20.5590 N   0  0  0  0  0  0  0  0  0  0  0  0
  -23.8990  -10.4710   21.0700 C   0  0  0  0  0  0  0  0  0  0  0  0
  -24.3420   -9.4990   21.9940 C   0  0  0  0  0  3  0  0  0  0  0  0
  -23.6190   -8.3000   22.1750 C   0  0  0  0  0  3  0  0  0  0  0  0
  -22.4400   -8.0620   21.4300 C   0  0  0  0  0  0  0  0  0  0  0  0
  -22.0150   -9.0230   20.4940 C   0  0  0  0  0  3  0  0  0  0  0  0
  -22.7380  -10.2140   20.3120 C   0  0  0  0  0  3  0  0  0  0  0  0
  -21.6880   -6.9160   21.5190 O   0  0  0  0  0  0  0  0  0  0  0  0
  -21.6560   -6.1630   22.6660 C   0  0  0  0  0  0  0  0  0  0  0  0
  -21.2410   -6.7060   23.9020 C   0  0  0  0  0  3  0  0  0  0  0  0
  -21.1570   -5.8820   25.0410 C   0  0  0  0  0  3  0  0  0  0  0  0
  -21.4780   -4.5140   24.9460 C   0  0  0  0  0  0  0  0  0  0  0  0
  -21.8860   -3.9700   23.7150 C   0  0  0  0  0  3  0  0  0  0  0  0
  -21.9710   -4.7930   22.5770 C   0  0  0  0  0  0  0  0  0  0  0  0
  -22.3450   -4.2600   21.3890 F   0  0  0  0  0  0  0  0  0  0  0  0
  -21.3900   -3.7180   26.0370 F   0  0  0  0  0  0  0  0  0  0  0  0
  -22.7550  -13.5570   21.2020 C   0  0  0  0  0  0  0  0  0  0  0  0
  -22.0360  -12.8550   22.0700 N   0  0  0  0  0  0  0  0  0  0  0  0
  -22.3100  -14.5830   20.6890 O   0  0  0  0  0  0  0  0  0  0  0  0
  -22.4090  -12.0250   22.5080 H   0  0  0  0  0  0  0  0  0  0  0  0
  -21.0990  -13.1520   22.3030 H   0  0  0  0  0  0  0  0  0  0  0  0
  -25.3650  -15.2380   20.3670 N   0  0  0  0  0  0  0  0  0  0  0  0
  -24.5930  -15.8840   20.4880 H   0  0  0  0  0  0  0  0  0  0  0  0
  -26.2020  -15.6860   20.0170 H   0  0  0  0  0  0  0  0  0  0  0  0
  -27.8020  -25.0100   20.9270 C   0  0  0  0  0  3  0  0  0  0  0  0
  -28.0880  -23.6280   20.9910 C   0  0  0  0  0  0  0  0  0  0  0  0
  -27.2980  -22.9950   21.8750 O   0  0  0  0  0  0  0  0  0  0  0  0
  -27.7560  -22.2090   22.1430 H   0  0  0  0  0  0  0  0  0  0  0  0
  -28.2190  -26.2290   20.2860 O   0  0  0  0  0  0  0  0  0  0  0  0
  -24.6180  -31.8790   23.2330 C   0  0  0  0  0  0  0  0  0  0  0  0
  -27.2130  -27.2370   20.1970 C   0  0  0  0  0  0  0  0  0  0  0  0
  -23.4180  -30.4780   21.5970 C   0  0  0  0  0  3  0  0  0  0  0  0
  -24.8730  -28.9210   20.1660 C   0  0  0  0  0  0  0  0  0  0  0  0
  -25.9660  -30.7720   21.4210 C   0  0  0  0  0  2  0  0  0  0  0  0
  -26.0480  -29.3860   20.7730 C   0  0  0  0  0  0  0  0  0  0  0  0
  -27.2230  -28.5560   20.7810 C   0  0  0  0  0  3  0  0  0  0  0  0
  -26.0200  -26.8620   19.5400 C   0  0  0  0  0  3  0  0  0  0  0  0
  -24.8670  -27.6690   19.5350 C   0  0  0  0  0  3  0  0  0  0  0  0
  -23.6370  -29.8020   20.2170 C   0  0  0  0  0  2  0  0  0  0  0  0
  -24.6870  -31.0630   22.1380 N   0  0  0  0  0  0  0  0  0  0  0  0
  -23.5330  -32.1590   23.7650 O   0  0  0  0  0  0  0  0  0  0  0  0
  -22.7500  -29.4660   22.5600 C   0  0  0  0  0  0  0  0  0  0  0  0
  -21.4220  -29.2880   22.4370 N   0  0  0  0  0  0  0  0  0  0  0  0
  -23.4270  -28.8420   23.3820 O   0  0  0  0  0  0  0  0  0  0  0  0
  -20.9320  -29.8420   21.7470 H   0  0  0  0  0  0  0  0  0  0  0  0
  -18.0450  -28.0840   22.9450 C   0  0  0  0  0  0  0  0  0  0  0  0
  -20.6040  -28.3520   23.2110 C   0  0  0  0  0  3  0  0  0  0  0  0
  -20.7090  -26.9180   22.6410 C   0  0  0  0  0  2  0  0  0  0  0  0
  -19.6070  -26.5890   21.6290 C   0  0  0  0  0  2  0  0  0  0  0  0
  -18.2250  -26.7330   22.2740 C   0  0  0  0  0  2  0  0  0  0  0  0
  -19.1630  -28.8510   23.3720 C   0  0  0  0  0  0  0  0  0  0  0  0
  -18.9390  -30.1140   23.9610 C   0  0  0  0  0  3  0  0  0  0  0  0
  -17.6330  -30.6120   24.1270 C   0  0  0  0  0  3  0  0  0  0  0  0
  -16.5310  -29.8420   23.7160 C   0  0  0  0  0  3  0  0  0  0  0  0
  -16.7380  -28.5800   23.1310 C   0  0  0  0  0  3  0  0  0  0  0  0
  -25.8980  -32.5170   23.8530 C   0  0  0  0  0  3  0  0  0  0  0  0
  -26.4130  -31.7530   25.1350 C   0  0  1  0  0  0  0  0  0  0  0  0
  -25.3180  -31.5230   26.2040 C   0  0  0  0  0  1  0  0  0  0  0  0
  -26.9950  -30.3720   24.7550 C   0  0  0  0  0  1  0  0  0  0  0  0
  -27.5630  -32.5500   25.7930 C   0  0  0  0  0  1  0  0  0  0  0  0
  -25.5860  -33.9160   24.1810 N   0  0  0  0  0  0  0  0  0  0  0  0
  -25.9130  -34.9690   23.4190 C   0  0  0  0  0  0  0  0  0  0  0  0
  -26.5800  -34.8640   22.3870 O   0  0  0  0  0  0  0  0  0  0  0  0
  -24.9940  -34.0710   24.9840 H   0  0  0  0  0  0  0  0  0  0  0  0
  -24.1850  -36.7630   23.0680 C   0  0  0  0  0  1  0  0  0  0  0  0
  -25.4280  -36.3580   23.8770 C   0  0  0  0  0  3  0  0  0  0  0  0
  -27.5650  -37.2460   24.7020 C   0  0  0  0  0  1  0  0  0  0  0  0
  -26.4610  -37.4120   23.7610 N   0  0  0  0  0  0  0  0  0  0  0  0
  -26.0550  -38.3320   23.9070 H   0  0  0  0  0  0  0  0  0  0  0  0
  1  2  1  0
  1 51  1  0
  2  4  1  0
  3  1  2  0
  5  6  2  0
  5  7  1  0
  6  8  1  0
  7  9  2  0
  8 10  2  0
  8  2  1  0
  9 10  1  0
  9 20  1  0
 10 11  1  0
 12 20  1  0
 13 18  1  0
 14 15  1  0
 14 13  1  0
 16 15  1  0
 16 25  1  0
 16 17  1  0
 18 12  1  0
 18 17  1  0
 19 12  2  0
 20 21  1  0
 22 23  2  0
 23 42  1  0
 24 23  1  0
 24 27  1  0
 25 22  1  0
 25 26  1  0
 26 24  2  0
 27 28  1  0
 28 29  2  0
 30 33  1  0
 30 29  1  0
 31 30  2  0
 32 31  1  0
 32 27  2  0
 33 34  1  0
 34 35  1  0
 35 36  2  0
 37 36  1  0
 37 41  1  0
 38 37  2  0
 39 34  2  0
 39 38  1  0
 40 39  1  0
 42 43  1  0
 43 46  1  0
 43 45  1  0
 44 42  2  0
 47 48  1  0
 47 22  1  0
 49 47  1  0
 50 51  2  0
 51 52  1  0
 52 53  1  0
 54 50  1  0
 55 66  2  0
 56 54  1  0
 56 61  1  0
 57 65  1  0
 57 67  1  0
 58 64  1  0
 58 60  1  0
 59 65  1  0
 60 61  2  0
 60 59  1  0
 62 56  2  0
 63 62  1  0
 63 58  2  0
 64 57  1  0
 65 55  1  0
 67 69  2  0
 68 67  1  0
 70 68  1  0
 71 80  2  0
 71 76  1  0
 72 68  1  0
 72 76  1  0
 73 72  1  0
 74 75  1  0
 74 73  1  0
 75 71  1  0
 76 77  2  0
 77 78  1  0
 79 78  2  0
 80 79  1  0
 81 55  1  0
 81 86  1  0
 81 82  1  0
 82 85  1  1
 82 83  1  0
 84 82  1  0
 86 89  1  0
 87 91  1  0
 87 86  1  0
 88 87  2  0
 91 90  1  0
 93 91  1  0
 93 94  1  0
 93 92  1  0
M  ISO  4  12 100  20 100  50 101  54 101
M  END
>  <TORSDO>  (54) 
F 19

>  <SCORE>  (54) 
-14.932

>  <name>  (54) 
53

>  <ligand_id>  (54) 
53

>  <original_smiles>  (54) 
[H]OC(C(=O)N([H])c1c([H])c([H])c([H])c(N([H])C(=O)N2C([H])([H])C([H])([H])C([H])([H])C([H])(n3nc(-c4c([H])c([H])c(Oc5c([H])c([H])c(F)c([H])c5F)c([H])c4[H])c(C(=O)N([H])[H])c3N([H])[H])C2([H])[H])c1F)=C([H])Oc1c([H])c([H])c2c(c1[H])C([H])([H])N(C(=O)C([H])(N([H])C(=O)C([H])(N([H])C([H])([H])[H])C([H])([H])[H])C(C([H])([H])[H])(C([H])([H])[H])C([H])([H])[H])C([H])(C(=O)N([H])C1([H])c3c([H])c([H])c([H])c([H])c3C([H])([H])C([H])([H])C1([H])[H])C2([H])[H]

>  <smiles>  (54) 
[H]OC(C(=O)N([H])c1c([H])c([H])c([H])c(N([H])C(=O)N2C([H])([H])C([H])([H])C([H])([H])C([H])(n3nc(-c4c([H])c([H])c(Oc5c([H])c([H])c(F)c([H])c5F)c([H])c4[H])c(C(=O)N([H])[H])c3N([H])[H])C2([H])[H])c1F)=C([H])Oc1c([H])c([H])c2c(c1[H])C([H])([H])N(C(=O)C([H])(N([H])C(=O)C([H])(N([H])C([H])([H])[H])C([H])([H])[H])C(C([H])([H])[H])(C([H])([H])[H])C([H])([H])[H])C([H])(C(=O)N([H])C1([H])c3c([H])c([H])c([H])c([H])c3C([H])([H])C([H])([H])C1([H])[H])C2([H])[H]

$$$$
54:0:0
     RDKit          3D

 95104  0  0  1  0  0  0  0  0999 V2000
  -27.3070  -23.7970   20.7970 C   0  0  0  0  0  3  0  0  0  0  0  0
  -28.3040  -24.6370   20.1890 C   0  0  0  0  0  0  0  0  0  0  0  0
  -27.6280  -22.4370   20.7180 C   0  0  0  0  0  0  0  0  0  0  0  0
  -29.2060  -23.5900   19.7730 C   0  0  0  0  0  0  0  0  0  0  0  0
  -28.8370  -22.1680   20.0520 N   0  0  0  0  0  0  0  0  0  0  0  0
  -30.6670  -18.2590   18.5250 C   0  0  0  0  0  3  0  0  0  0  0  0
  -30.6960  -19.5210   17.8870 C   0  0  0  0  0  3  0  0  0  0  0  0
  -29.4330  -19.3600   20.3010 C   0  0  0  0  0  3  0  0  0  0  0  0
  -29.4540  -20.7500   19.6700 C   0  0  0  0  0  0  0  0  0  0  0  0
  -30.0380  -18.0570   19.7690 C   0  0  0  0  0  0  0  0  0  0  0  0
  -30.1210  -20.7000   18.4180 C   0  0  0  0  0  0  0  0  0  0  0  0
  -30.1930  -21.8120   17.6460 F   0  0  0  0  0  0  0  0  0  0  0  0
  -30.7300  -15.3240   19.9310 C   0  0  0  0  0  0  0  0  0  0  0  0
  -30.6090  -12.9420   18.9470 C   0  0  0  0  0  2  0  0  0  0  0  0
  -29.6030  -12.8260   17.7720 C   0  0  0  0  0  2  0  0  0  0  0  0
  -28.1770  -12.5640   18.2930 C   0  0  0  0  0  2  0  0  0  0  0  0
  -27.8250  -13.4720   19.4970 C   0  0  0  0  0  3  0  0  0  0  0  0
  -28.9470  -13.4990   20.5510 C   0  0  0  0  0  2  0  0  0  0  0  0
  -30.1480  -14.0300   19.8820 N   0  0  0  0  0  0  0  0  0  0  0  0
  -31.8890  -15.3570   19.4880 O   0  0  0  0  0  0  0  0  0  0  0  0
  -29.4510  -16.5170   21.6680 C   0  0  0  0  0  1  0  0  0  0  0  0
  -30.0410  -16.5700   20.3310 N   0  0  0  0  0  0  0  0  0  0  0  0
  -25.5120  -14.0150   20.4330 C   0  0  0  0  0  0  0  0  0  0  0  0
  -24.4740  -13.2280   20.8430 C   0  0  0  0  0  0  0  0  0  0  0  0
  -24.9290  -11.8790   20.7250 C   0  0  0  0  0  0  0  0  0  0  0  0
  -26.5290  -13.1460   20.0790 N   0  0  0  0  0  0  0  0  0  0  0  0
  -26.1940  -11.8520   20.3230 N   0  0  0  0  0  0  0  0  0  0  0  0
  -24.2100  -10.6120   20.9150 C   0  0  0  0  0  0  0  0  0  0  0  0
  -24.6300   -9.6560   21.8680 C   0  0  0  0  0  3  0  0  0  0  0  0
  -23.9060   -8.4570   22.0450 C   0  0  0  0  0  3  0  0  0  0  0  0
  -22.7510   -8.2030   21.2680 C   0  0  0  0  0  0  0  0  0  0  0  0
  -22.3500   -9.1470   20.3060 C   0  0  0  0  0  3  0  0  0  0  0  0
  -23.0740  -10.3370   20.1260 C   0  0  0  0  0  3  0  0  0  0  0  0
  -22.0010   -7.0540   21.3530 O   0  0  0  0  0  0  0  0  0  0  0  0
  -21.8350   -6.3880   22.5410 C   0  0  0  0  0  0  0  0  0  0  0  0
  -21.2710   -7.0170   23.6730 C   0  0  0  0  0  3  0  0  0  0  0  0
  -21.0530   -6.2780   24.8530 C   0  0  0  0  0  3  0  0  0  0  0  0
  -21.3900   -4.9120   24.9010 C   0  0  0  0  0  0  0  0  0  0  0  0
  -21.9460   -4.2840   23.7740 C   0  0  0  0  0  3  0  0  0  0  0  0
  -22.1650   -5.0190   22.5960 C   0  0  0  0  0  0  0  0  0  0  0  0
  -22.6820   -4.4040   21.5050 F   0  0  0  0  0  0  0  0  0  0  0  0
  -21.1750   -4.1990   26.0320 F   0  0  0  0  0  0  0  0  0  0  0  0
  -23.1010  -13.6980   21.2260 C   0  0  0  0  0  0  0  0  0  0  0  0
  -22.4350  -12.9790   22.1220 N   0  0  0  0  0  0  0  0  0  0  0  0
  -22.6300  -14.7380   20.7680 O   0  0  0  0  0  0  0  0  0  0  0  0
  -22.8300  -12.1360   22.5130 H   0  0  0  0  0  0  0  0  0  0  0  0
  -21.5170  -13.2750   22.4250 H   0  0  0  0  0  0  0  0  0  0  0  0
  -25.6690  -15.3930   20.3040 N   0  0  0  0  0  0  0  0  0  0  0  0
  -24.9160  -16.0400   20.5060 H   0  0  0  0  0  0  0  0  0  0  0  0
  -26.4970  -15.8470   19.9410 H   0  0  0  0  0  0  0  0  0  0  0  0
  -26.8750  -21.4080   21.1990 O   0  0  0  0  0  0  0  0  0  0  0  0
  -27.3050  -20.5900   20.9760 H   0  0  0  0  0  0  0  0  0  0  0  0
  -30.3910  -23.8310   19.1450 O   0  0  0  0  0  0  0  0  0  0  0  0
  -30.5430  -23.1040   18.5400 H   0  0  0  0  0  0  0  0  0  0  0  0
  -28.3650  -26.1470   20.1220 O   0  0  0  0  0  0  0  0  0  0  0  0
  -24.6800  -31.9090   23.1770 C   0  0  0  0  0  0  0  0  0  0  0  0
  -27.2920  -27.1490   20.1320 C   0  0  0  0  0  0  0  0  0  0  0  0
  -23.4940  -30.5070   21.5300 C   0  0  0  0  0  3  0  0  0  0  0  0
  -24.9580  -28.9360   20.1020 C   0  0  0  0  0  0  0  0  0  0  0  0
  -26.0500  -30.7740   21.3760 C   0  0  0  0  0  2  0  0  0  0  0  0
  -26.1350  -29.3720   20.7230 C   0  0  0  0  0  0  0  0  0  0  0  0
  -27.2980  -28.4960   20.7200 C   0  0  0  0  0  3  0  0  0  0  0  0
  -26.0860  -26.8390   19.4700 C   0  0  0  0  0  3  0  0  0  0  0  0
  -24.9510  -27.6870   19.4610 C   0  0  0  0  0  3  0  0  0  0  0  0
  -23.7250  -29.8310   20.1510 C   0  0  0  0  0  2  0  0  0  0  0  0
  -24.7610  -31.0900   22.0810 N   0  0  0  0  0  0  0  0  0  0  0  0
  -23.5910  -32.1770   23.7110 O   0  0  0  0  0  0  0  0  0  0  0  0
  -22.8250  -29.4940   22.4940 C   0  0  0  0  0  0  0  0  0  0  0  0
  -21.5010  -29.2960   22.3650 N   0  0  0  0  0  0  0  0  0  0  0  0
  -23.5060  -28.8810   23.3220 O   0  0  0  0  0  0  0  0  0  0  0  0
  -21.0050  -29.8390   21.6720 H   0  0  0  0  0  0  0  0  0  0  0  0
  -18.1500  -28.0040   22.8530 C   0  0  0  0  0  0  0  0  0  0  0  0
  -20.6980  -28.3420   23.1380 C   0  0  0  0  0  3  0  0  0  0  0  0
  -20.8440  -26.9090   22.5760 C   0  0  0  0  0  2  0  0  0  0  0  0
  -19.7610  -26.5480   21.5540 C   0  0  0  0  0  2  0  0  0  0  0  0
  -18.3700  -26.6580   22.1850 C   0  0  0  0  0  2  0  0  0  0  0  0
  -19.2430  -28.8020   23.2850 C   0  0  0  0  0  0  0  0  0  0  0  0
  -18.9830  -30.0590   23.8720 C   0  0  0  0  0  3  0  0  0  0  0  0
  -17.6630  -30.5200   24.0290 C   0  0  0  0  0  3  0  0  0  0  0  0
  -16.5840  -29.7220   23.6110 C   0  0  0  0  0  3  0  0  0  0  0  0
  -16.8280  -28.4650   23.0290 C   0  0  0  0  0  3  0  0  0  0  0  0
  -25.9490  -32.5640   23.8010 C   0  0  0  0  0  3  0  0  0  0  0  0
  -26.4720  -31.8070   25.0840 C   0  0  1  0  0  0  0  0  0  0  0  0
  -25.3800  -31.5620   26.1520 C   0  0  0  0  0  1  0  0  0  0  0  0
  -27.0760  -30.4350   24.7100 C   0  0  0  0  0  1  0  0  0  0  0  0
  -27.6100  -32.6200   25.7450 C   0  0  0  0  0  1  0  0  0  0  0  0
  -25.6180  -33.9590   24.1360 N   0  0  0  0  0  0  0  0  0  0  0  0
  -25.9410  -35.0260   23.3930 C   0  0  0  0  0  0  0  0  0  0  0  0
  -26.6120  -34.9400   22.3610 O   0  0  0  0  0  0  0  0  0  0  0  0
  -25.0270  -34.0980   24.9430 H   0  0  0  0  0  0  0  0  0  0  0  0
  -24.2020  -36.8130   23.0500 C   0  0  0  0  0  1  0  0  0  0  0  0
  -25.4410  -36.4060   23.8650 C   0  0  0  0  0  3  0  0  0  0  0  0
  -27.5590  -37.3010   24.7220 C   0  0  0  0  0  1  0  0  0  0  0  0
  -26.4630  -37.4700   23.7720 N   0  0  0  0  0  0  0  0  0  0  0  0
  -26.0450  -38.3830   23.9330 H   0  0  0  0  0  0  0  0  0  0  0  0
  2  1  1  0
  3  1  2  0
  3 51  1  0
  4  5  1  0
  4  2  2  0
  5  3  1  0
  6 10  1  0
  7 11  1  0
  7  6  2  0
  9  5  1  0
  9  8  1  0
 10  8  2  0
 10 22  1  0
 11  9  2  0
 12 11  1  0
 13 22  1  0
 14 19  1  0
 15 16  1  0
 15 14  1  0
 17 16  1  0
 17 26  1  0
 17 18  1  0
 19 13  1  0
 19 18  1  0
 20 13  2  0
 22 21  1  0
 23 24  2  0
 24 43  1  0
 25 24  1  0
 25 28  1  0
 26 27  1  0
 26 23  1  0
 27 25  2  0
 28 29  1  0
 29 30  2  0
 31 34  1  0
 31 30  1  0
 32 31  2  0
 33 32  1  0
 33 28  2  0
 34 35  1  0
 35 40  2  0
 35 36  1  0
 36 37  2  0
 37 38  1  0
 38 42  1  0
 39 38  2  0
 40 39  1  0
 41 40  1  0
 43 44  1  0
 44 47  1  0
 44 46  1  0
 45 43  2  0
 48 23  1  0
 48 49  1  0
 50 48  1  0
 52 51  1  0
 53  4  1  0
 54 53  1  0
 55 57  1  0
 55  2  1  0
 56 67  2  0
 57 62  1  0
 58 66  1  0
 58 68  1  0
 59 65  1  0
 59 61  1  0
 60 66  1  0
 61 60  1  0
 62 61  2  0
 63 57  2  0
 64 63  1  0
 64 59  2  0
 65 58  1  0
 66 56  1  0
 68 70  2  0
 69 68  1  0
 71 69  1  0
 72 81  2  0
 72 77  1  0
 73 69  1  0
 73 77  1  0
 74 73  1  0
 75 76  1  0
 75 74  1  0
 76 72  1  0
 77 78  2  0
 78 79  1  0
 80 79  2  0
 81 80  1  0
 82 56  1  0
 82 87  1  0
 82 83  1  0
 83 86  1  1
 83 84  1  0
 85 83  1  0
 87 90  1  0
 88 92  1  0
 88 87  1  0
 89 88  2  0
 92 91  1  0
 94 92  1  0
 94 95  1  0
 94 93  1  0
M  ISO  4   2 101  13 100  22 100  55 101
M  END
>  <TORSDO>  (55) 
F 19

>  <SCORE>  (55) 
-13.698

>  <name>  (55) 
54

>  <ligand_id>  (55) 
54

>  <original_smiles>  (55) 
[H]Oc1c([H])c(Oc2c([H])c([H])c3c(c2[H])C([H])([H])N(C(=O)C([H])(N([H])C(=O)C([H])(N([H])C([H])([H])[H])C([H])([H])[H])C(C([H])([H])[H])(C([H])([H])[H])C([H])([H])[H])C([H])(C(=O)N([H])C2([H])c4c([H])c([H])c([H])c([H])c4C([H])([H])C([H])([H])C2([H])[H])C3([H])[H])c(O[H])n1-c1c([H])c(N(C(=O)N2C([H])([H])C([H])([H])C([H])([H])C([H])(n3nc(-c4c([H])c([H])c(Oc5c([H])c([H])c(F)c([H])c5F)c([H])c4[H])c(C(=O)N([H])[H])c3N([H])[H])C2([H])[H])C([H])([H])[H])c([H])c([H])c1F

>  <smiles>  (55) 
[H]Oc1c([H])c(Oc2c([H])c([H])c3c(c2[H])C([H])([H])N(C(=O)C([H])(N([H])C(=O)C([H])(N([H])C([H])([H])[H])C([H])([H])[H])C(C([H])([H])[H])(C([H])([H])[H])C([H])([H])[H])C([H])(C(=O)N([H])C2([H])c4c([H])c([H])c([H])c([H])c4C([H])([H])C([H])([H])C2([H])[H])C3([H])[H])c(O[H])n1-c1c([H])c(N(C(=O)N2C([H])([H])C([H])([H])C([H])([H])C([H])(n3nc(-c4c([H])c([H])c(Oc5c([H])c([H])c(F)c([H])c5F)c([H])c4[H])c(C(=O)N([H])[H])c3N([H])[H])C2([H])[H])C([H])([H])[H])c([H])c([H])c1F

$$$$
55:0:0
     RDKit          3D

 97105  0  0  1  0  0  0  0  0999 V2000
  -29.5750  -18.6800   20.8360 C   0  0  0  0  0  3  0  0  0  0  0  0
  -29.0400  -17.3670   18.8670 C   0  0  0  0  0  3  0  0  0  0  0  0
  -29.1080  -19.9510   20.2420 C   0  0  0  0  0  0  0  0  0  0  0  0
  -29.5760  -17.3670   20.1710 C   0  0  0  0  0  0  0  0  0  0  0  0
  -28.4620  -18.5340   18.3010 C   0  0  0  0  0  0  0  0  0  0  0  0
  -28.5370  -19.8010   18.9460 C   0  0  0  0  0  0  0  0  0  0  0  0
  -30.5920  -14.9040   20.3930 C   0  0  0  0  0  0  0  0  0  0  0  0
  -30.4530  -12.6070   19.3660 C   0  0  0  0  0  2  0  0  0  0  0  0
  -29.5180  -12.7010   18.1350 C   0  0  0  0  0  2  0  0  0  0  0  0
  -28.0310  -12.5720   18.5290 C   0  0  0  0  0  2  0  0  0  0  0  0
  -27.6730  -13.4000   19.7880 C   0  0  0  0  0  3  0  0  0  0  0  0
  -28.7210  -13.2250   20.9090 C   0  0  0  0  0  2  0  0  0  0  0  0
  -30.0140  -13.6410   20.3480 N   0  0  0  0  0  0  0  0  0  0  0  0
  -31.7570  -15.0360   20.0070 O   0  0  0  0  0  0  0  0  0  0  0  0
  -29.8260  -16.0140   20.7970 N   0  0  0  0  0  0  0  0  0  0  0  0
  -29.0400  -15.7140   21.3570 H   0  0  0  0  0  0  0  0  0  0  0  0
  -25.2810  -14.0020   20.4690 C   0  0  0  0  0  0  0  0  0  0  0  0
  -24.2030  -13.2290   20.8220 C   0  0  0  0  0  0  0  0  0  0  0  0
  -24.6630  -11.8760   20.8130 C   0  0  0  0  0  0  0  0  0  0  0  0
  -26.3210  -13.1120   20.2530 N   0  0  0  0  0  0  0  0  0  0  0  0
  -25.9580  -11.8300   20.5220 N   0  0  0  0  0  0  0  0  0  0  0  0
  -23.9280  -10.6180   21.0050 C   0  0  0  0  0  0  0  0  0  0  0  0
  -24.3370   -9.6520   21.9540 C   0  0  0  0  0  3  0  0  0  0  0  0
  -23.5960   -8.4650   22.1330 C   0  0  0  0  0  3  0  0  0  0  0  0
  -22.4320   -8.2330   21.3620 C   0  0  0  0  0  0  0  0  0  0  0  0
  -22.0440   -9.1810   20.4010 C   0  0  0  0  0  3  0  0  0  0  0  0
  -22.7870  -10.3610   20.2170 C   0  0  0  0  0  3  0  0  0  0  0  0
  -21.6630   -7.0940   21.4520 O   0  0  0  0  0  0  0  0  0  0  0  0
  -21.5930   -6.3610   22.6090 C   0  0  0  0  0  0  0  0  0  0  0  0
  -21.1520   -6.9320   23.8210 C   0  0  0  0  0  3  0  0  0  0  0  0
  -21.0240   -6.1320   24.9730 C   0  0  0  0  0  3  0  0  0  0  0  0
  -21.3240   -4.7580   24.9150 C   0  0  0  0  0  0  0  0  0  0  0  0
  -21.7600   -4.1840   23.7070 C   0  0  0  0  0  3  0  0  0  0  0  0
  -21.8890   -4.9840   22.5560 C   0  0  0  0  0  0  0  0  0  0  0  0
  -22.2860   -4.4220   21.3900 F   0  0  0  0  0  0  0  0  0  0  0  0
  -21.1970   -3.9850   26.0190 F   0  0  0  0  0  0  0  0  0  0  0  0
  -22.8030  -13.7180   21.0650 C   0  0  0  0  0  0  0  0  0  0  0  0
  -22.0550  -13.0400   21.9310 N   0  0  0  0  0  0  0  0  0  0  0  0
  -22.3810  -14.7360   20.5210 O   0  0  0  0  0  0  0  0  0  0  0  0
  -22.3970  -12.2180   22.4010 H   0  0  0  0  0  0  0  0  0  0  0  0
  -21.1140  -13.3520   22.1240 H   0  0  0  0  0  0  0  0  0  0  0  0
  -25.4700  -15.3670   20.2900 N   0  0  0  0  0  0  0  0  0  0  0  0
  -24.7450  -16.0620   20.4320 H   0  0  0  0  0  0  0  0  0  0  0  0
  -26.3550  -15.7850   20.0350 H   0  0  0  0  0  0  0  0  0  0  0  0
  -29.0970  -21.3420   21.0180 C   0  0  0  0  0  0  0  0  0  0  0  0
  -28.8150  -22.6150   20.4560 N   0  0  0  0  0  0  0  0  0  0  0  0
  -29.3530  -21.2800   22.2270 O   0  0  0  0  0  0  0  0  0  0  0  0
  -28.6280  -22.6060   19.4570 H   0  0  0  0  0  0  0  0  0  0  0  0
  -28.5390  -23.8320   21.2530 C   0  0  0  0  0  3  0  0  0  0  0  0
  -28.3280  -25.2310   21.1690 C   0  0  0  0  0  3  0  0  0  0  0  0
  -28.3070  -26.3030   20.2250 O   0  0  0  0  0  0  0  0  0  0  0  0
  -24.6000  -31.9340   23.2470 C   0  0  0  0  0  0  0  0  0  0  0  0
  -27.2530  -27.2640   20.2640 C   0  0  0  0  0  0  0  0  0  0  0  0
  -23.4250  -30.5200   21.6010 C   0  0  0  0  0  3  0  0  0  0  0  0
  -24.9080  -28.9500   20.2130 C   0  0  0  0  0  0  0  0  0  0  0  0
  -25.9780  -30.8080   21.4710 C   0  0  0  0  0  2  0  0  0  0  0  0
  -26.0720  -29.4160   20.8300 C   0  0  0  0  0  0  0  0  0  0  0  0
  -27.2540  -28.5910   20.8380 C   0  0  0  0  0  3  0  0  0  0  0  0
  -26.0590  -26.8730   19.6250 C   0  0  0  0  0  3  0  0  0  0  0  0
  -24.9100  -27.6910   19.6000 C   0  0  0  0  0  3  0  0  0  0  0  0
  -23.6660  -29.8250   20.2350 C   0  0  0  0  0  2  0  0  0  0  0  0
  -24.6830  -31.1120   22.1580 N   0  0  0  0  0  0  0  0  0  0  0  0
  -23.5110  -32.2100   23.7710 O   0  0  0  0  0  0  0  0  0  0  0  0
  -22.7450  -29.5150   22.5630 C   0  0  0  0  0  0  0  0  0  0  0  0
  -21.4190  -29.3390   22.4300 N   0  0  0  0  0  0  0  0  0  0  0  0
  -23.4160  -28.8960   23.3930 O   0  0  0  0  0  0  0  0  0  0  0  0
  -20.9510  -29.8730   21.7160 H   0  0  0  0  0  0  0  0  0  0  0  0
  -18.0350  -28.1320   22.9570 C   0  0  0  0  0  0  0  0  0  0  0  0
  -20.5930  -28.4070   23.2060 C   0  0  0  0  0  3  0  0  0  0  0  0
  -20.6910  -26.9730   22.6200 C   0  0  0  0  0  2  0  0  0  0  0  0
  -19.5830  -26.6430   21.6120 C   0  0  0  0  0  2  0  0  0  0  0  0
  -18.2050  -26.7850   22.2750 C   0  0  0  0  0  2  0  0  0  0  0  0
  -19.1510  -28.9020   23.3810 C   0  0  0  0  0  0  0  0  0  0  0  0
  -18.9210  -30.1600   23.9840 C   0  0  0  0  0  3  0  0  0  0  0  0
  -17.6120  -30.6550   24.1500 C   0  0  0  0  0  3  0  0  0  0  0  0
  -16.5120  -29.8870   23.7270 C   0  0  0  0  0  3  0  0  0  0  0  0
  -16.7240  -28.6260   23.1410 C   0  0  0  0  0  3  0  0  0  0  0  0
  -25.8690  -32.5810   23.8800 C   0  0  0  0  0  3  0  0  0  0  0  0
  -26.3650  -31.8360   25.1800 C   0  0  1  0  0  0  0  0  0  0  0  0
  -25.2550  -31.6040   26.2340 C   0  0  0  0  0  1  0  0  0  0  0  0
  -26.9660  -30.4570   24.8280 C   0  0  0  0  0  1  0  0  0  0  0  0
  -27.5000  -32.6530   25.8420 C   0  0  0  0  0  1  0  0  0  0  0  0
  -25.5440  -33.9820   24.1910 N   0  0  0  0  0  0  0  0  0  0  0  0
  -25.8800  -35.0310   23.4260 C   0  0  0  0  0  0  0  0  0  0  0  0
  -26.5610  -34.9230   22.4030 O   0  0  0  0  0  0  0  0  0  0  0  0
  -24.9380  -34.1390   24.9830 H   0  0  0  0  0  0  0  0  0  0  0  0
  -24.1520  -36.8190   23.0250 C   0  0  0  0  0  1  0  0  0  0  0  0
  -25.3790  -36.4240   23.8630 C   0  0  0  0  0  3  0  0  0  0  0  0
  -27.4940  -37.3210   24.7300 C   0  0  0  0  0  1  0  0  0  0  0  0
  -26.4130  -37.4800   23.7610 N   0  0  0  0  0  0  0  0  0  0  0  0
  -26.0030  -38.4000   23.8980 H   0  0  0  0  0  0  0  0  0  0  0  0
  -27.6740  -18.4520   17.1410 N   0  0  0  0  0  0  0  0  0  0  0  0
  -26.9340  -19.1450   17.1600 H   0  0  0  0  0  0  0  0  0  0  0  0
  -27.2040  -17.5710   16.9480 H   0  0  0  0  0  0  0  0  0  0  0  0
  -27.9310  -20.8560   18.2580 N   0  0  0  0  0  0  0  0  0  0  0  0
  -27.0100  -21.0420   18.6380 H   0  0  0  0  0  0  0  0  0  0  0  0
  -27.8140  -20.5870   17.2830 H   0  0  0  0  0  0  0  0  0  0  0  0
  2  4  1  0
  3  1  1  0
  3 45  1  0
  4 15  1  0
  4  1  2  0
  5  2  2  0
  5  6  1  0
  6  3  2  0
  7 15  1  0
  8 13  1  0
  9 10  1  0
  9  8  1  0
 11 10  1  0
 11 20  1  0
 11 12  1  0
 13  7  1  0
 13 12  1  0
 14  7  2  0
 15 16  1  0
 17 18  2  0
 18 37  1  0
 19 18  1  0
 19 22  1  0
 20 17  1  0
 20 21  1  0
 21 19  2  0
 22 23  1  0
 23 24  2  0
 25 28  1  0
 25 24  1  0
 26 25  2  0
 27 26  1  0
 27 22  2  0
 28 29  1  0
 29 30  1  0
 30 31  2  0
 32 31  1  0
 32 36  1  0
 33 32  2  0
 34 29  2  0
 34 33  1  0
 35 34  1  0
 37 38  1  0
 38 41  1  0
 38 40  1  0
 39 37  2  0
 42 43  1  0
 42 17  1  0
 44 42  1  0
 45 47  2  0
 46 45  1  0
 46 49  1  0
 48 46  1  0
 50 49  2  0
 51 53  1  0
 51 50  1  0
 52 63  2  0
 53 58  1  0
 54 62  1  0
 54 64  1  0
 55 61  1  0
 55 57  1  0
 56 62  1  0
 57 58  2  0
 57 56  1  0
 59 53  2  0
 60 59  1  0
 60 55  2  0
 61 54  1  0
 62 52  1  0
 64 66  2  0
 65 64  1  0
 67 65  1  0
 68 77  2  0
 68 73  1  0
 69 65  1  0
 69 73  1  0
 70 69  1  0
 71 72  1  0
 71 70  1  0
 72 68  1  0
 73 74  2  0
 74 75  1  0
 76 75  2  0
 77 76  1  0
 78 52  1  0
 78 83  1  0
 78 79  1  0
 79 82  1  1
 79 80  1  0
 81 79  1  0
 83 86  1  0
 84 88  1  0
 84 83  1  0
 85 84  2  0
 88 87  1  0
 90 88  1  0
 90 91  1  0
 90 89  1  0
 92 93  1  0
 92  5  1  0
 94 92  1  0
 95 96  1  0
 95  6  1  0
 97 95  1  0
M  ISO  4   7 100  15 100  50 101  51 101
M  END
>  <TORSDO>  (56) 
F 20

>  <SCORE>  (56) 
-14.442

>  <name>  (56) 
55

>  <ligand_id>  (56) 
55

>  <original_smiles>  (56) 
[H]C(Oc1c([H])c([H])c2c(c1[H])C([H])([H])N(C(=O)C([H])(N([H])C(=O)C([H])(N([H])C([H])([H])[H])C([H])([H])[H])C(C([H])([H])[H])(C([H])([H])[H])C([H])([H])[H])C([H])(C(=O)N([H])C1([H])c3c([H])c([H])c([H])c([H])c3C([H])([H])C([H])([H])C1([H])[H])C2([H])[H])=C([H])N([H])C(=O)c1c([H])c(N([H])C(=O)N2C([H])([H])C([H])([H])C([H])([H])C([H])(n3nc(-c4c([H])c([H])c(Oc5c([H])c([H])c(F)c([H])c5F)c([H])c4[H])c(C(=O)N([H])[H])c3N([H])[H])C2([H])[H])c([H])c(N([H])[H])c1N([H])[H]

>  <smiles>  (56) 
[H]C(Oc1c([H])c([H])c2c(c1[H])C([H])([H])N(C(=O)C([H])(N([H])C(=O)C([H])(N([H])C([H])([H])[H])C([H])([H])[H])C(C([H])([H])[H])(C([H])([H])[H])C([H])([H])[H])C([H])(C(=O)N([H])C1([H])c3c([H])c([H])c([H])c([H])c3C([H])([H])C([H])([H])C1([H])[H])C2([H])[H])=C([H])N([H])C(=O)c1c([H])c(N([H])C(=O)N2C([H])([H])C([H])([H])C([H])([H])C([H])(n3nc(-c4c([H])c([H])c(Oc5c([H])c([H])c(F)c([H])c5F)c([H])c4[H])c(C(=O)N([H])[H])c3N([H])[H])C2([H])[H])c([H])c(N([H])[H])c1N([H])[H]

$$$$
56:0:0
     RDKit          3D

 96105  0  0  1  0  0  0  0  0999 V2000
  -28.8130  -23.7600   20.4350 C   0  0  0  0  0  0  0  0  0  0  0  0
  -28.3770  -22.3260   20.2890 C   0  0  0  0  0  0  0  0  0  0  0  0
  -30.4890  -22.1410   20.9520 C   0  0  0  0  0  0  0  0  0  0  0  0
  -28.0180  -24.8820   20.1600 C   0  0  0  0  0  3  0  0  0  0  0  0
  -30.2390  -23.6620   20.8930 C   0  0  0  0  0  2  0  0  0  0  0  0
  -29.3980  -21.4250   20.5890 N   0  0  0  0  0  0  0  0  0  0  0  0
  -27.2440  -21.9660   19.9510 O   0  0  0  0  0  0  0  0  0  0  0  0
  -31.5750  -21.6660   21.3010 O   0  0  0  0  0  0  0  0  0  0  0  0
  -29.3500  -19.7190   18.8160 C   0  0  0  0  0  3  0  0  0  0  0  0
  -29.4460  -18.4300   18.2690 C   0  0  0  0  0  3  0  0  0  0  0  0
  -29.6980  -18.7530   21.0210 C   0  0  0  0  0  3  0  0  0  0  0  0
  -29.4670  -19.9600   20.2020 C   0  0  0  0  0  0  0  0  0  0  0  0
  -29.6600  -17.2900   19.0640 C   0  0  0  0  0  0  0  0  0  0  0  0
  -29.8090  -17.3830   20.4750 C   0  0  0  0  0  0  0  0  0  0  0  0
  -30.6670  -14.9480   21.0890 C   0  0  0  0  0  0  0  0  0  0  0  0
  -30.6410  -12.5790   20.2550 C   0  0  0  0  0  2  0  0  0  0  0  0
  -29.8550  -12.5110   18.9260 C   0  0  0  0  0  2  0  0  0  0  0  0
  -28.3450  -12.3510   19.1840 C   0  0  0  0  0  2  0  0  0  0  0  0
  -27.8160  -13.3090   20.2850 C   0  0  0  0  0  3  0  0  0  0  0  0
  -28.7350  -13.3320   21.5270 C   0  0  0  0  0  2  0  0  0  0  0  0
  -30.0840  -13.6920   21.0690 N   0  0  0  0  0  0  0  0  0  0  0  0
  -31.8710  -15.0450   20.8380 O   0  0  0  0  0  0  0  0  0  0  0  0
  -29.8710  -16.0880   21.2490 N   0  0  0  0  0  0  0  0  0  0  0  0
  -28.9880  -15.8640   21.6840 H   0  0  0  0  0  0  0  0  0  0  0  0
  -25.3600  -13.8960   20.7270 C   0  0  0  0  0  0  0  0  0  0  0  0
  -24.2640  -13.1240   21.0020 C   0  0  0  0  0  0  0  0  0  0  0  0
  -24.7350  -11.7770   21.0660 C   0  0  0  0  0  0  0  0  0  0  0  0
  -26.4280  -13.0200   20.6350 N   0  0  0  0  0  0  0  0  0  0  0  0
  -26.0520  -11.7420   20.9040 N   0  0  0  0  0  0  0  0  0  0  0  0
  -23.9980  -10.5140   21.2150 C   0  0  0  0  0  0  0  0  0  0  0  0
  -24.3630   -9.5560   22.1870 C   0  0  0  0  0  3  0  0  0  0  0  0
  -23.6270   -8.3590   22.3240 C   0  0  0  0  0  3  0  0  0  0  0  0
  -22.5100   -8.1130   21.4890 C   0  0  0  0  0  0  0  0  0  0  0  0
  -22.1660   -9.0590   20.5080 C   0  0  0  0  0  3  0  0  0  0  0  0
  -22.9040  -10.2470   20.3690 C   0  0  0  0  0  3  0  0  0  0  0  0
  -21.7540   -6.9670   21.5310 O   0  0  0  0  0  0  0  0  0  0  0  0
  -21.6550   -6.2120   22.6730 C   0  0  0  0  0  0  0  0  0  0  0  0
  -21.1800   -6.7550   23.8860 C   0  0  0  0  0  3  0  0  0  0  0  0
  -21.0290   -5.9270   25.0170 C   0  0  0  0  0  3  0  0  0  0  0  0
  -21.3430   -4.5570   24.9350 C   0  0  0  0  0  0  0  0  0  0  0  0
  -21.8110   -4.0140   23.7240 C   0  0  0  0  0  3  0  0  0  0  0  0
  -21.9630   -4.8390   22.5960 C   0  0  0  0  0  0  0  0  0  0  0  0
  -22.3940   -4.3050   21.4280 F   0  0  0  0  0  0  0  0  0  0  0  0
  -21.1910   -3.7590   26.0170 F   0  0  0  0  0  0  0  0  0  0  0  0
  -22.8420  -13.5970   21.1010 C   0  0  0  0  0  0  0  0  0  0  0  0
  -22.0300  -12.9290   21.9120 N   0  0  0  0  0  0  0  0  0  0  0  0
  -22.4570  -14.5950   20.4950 O   0  0  0  0  0  0  0  0  0  0  0  0
  -22.3520  -12.1220   22.4250 H   0  0  0  0  0  0  0  0  0  0  0  0
  -21.0720  -13.2300   22.0220 H   0  0  0  0  0  0  0  0  0  0  0  0
  -25.5380  -15.2610   20.5220 N   0  0  0  0  0  0  0  0  0  0  0  0
  -24.7640  -15.9160   20.5150 H   0  0  0  0  0  0  0  0  0  0  0  0
  -26.4140  -15.6800   20.2340 H   0  0  0  0  0  0  0  0  0  0  0  0
  -29.6630  -16.0640   18.4020 N   0  0  0  0  0  0  0  0  0  0  0  0
  -29.7580  -16.0860   17.3940 H   0  0  0  0  0  0  0  0  0  0  0  0
  -30.2020  -15.3160   18.8160 H   0  0  0  0  0  0  0  0  0  0  0  0
  -28.2690  -26.3120   20.1500 O   0  0  0  0  0  0  0  0  0  0  0  0
  -24.5320  -31.8790   23.0900 C   0  0  0  0  0  0  0  0  0  0  0  0
  -27.1920  -27.2530   20.0690 C   0  0  0  0  0  0  0  0  0  0  0  0
  -23.3540  -30.4620   21.4530 C   0  0  0  0  0  3  0  0  0  0  0  0
  -24.8300  -28.9240   20.0290 C   0  0  0  0  0  0  0  0  0  0  0  0
  -25.9000  -30.7790   21.2920 C   0  0  0  0  0  2  0  0  0  0  0  0
  -25.9950  -29.3920   20.6490 C   0  0  0  0  0  0  0  0  0  0  0  0
  -27.1740  -28.5660   20.6690 C   0  0  0  0  0  3  0  0  0  0  0  0
  -26.0130  -26.8980   19.3700 C   0  0  0  0  0  3  0  0  0  0  0  0
  -24.8470  -27.6860   19.3770 C   0  0  0  0  0  3  0  0  0  0  0  0
  -23.5860  -29.7920   20.0740 C   0  0  0  0  0  2  0  0  0  0  0  0
  -24.6140  -31.0610   22.0000 N   0  0  0  0  0  0  0  0  0  0  0  0
  -23.4420  -32.1470   23.6180 O   0  0  0  0  0  0  0  0  0  0  0  0
  -22.6970  -29.4400   22.4130 C   0  0  0  0  0  0  0  0  0  0  0  0
  -21.3660  -29.2740   22.3090 N   0  0  0  0  0  0  0  0  0  0  0  0
  -23.3830  -28.8010   23.2150 O   0  0  0  0  0  0  0  0  0  0  0  0
  -20.8690  -29.8410   21.6370 H   0  0  0  0  0  0  0  0  0  0  0  0
  -17.9880  -28.1060   22.8810 C   0  0  0  0  0  0  0  0  0  0  0  0
  -20.5550  -28.3340   23.0870 C   0  0  0  0  0  3  0  0  0  0  0  0
  -20.6250  -26.9100   22.4880 C   0  0  0  0  0  2  0  0  0  0  0  0
  -19.4940  -26.6150   21.4980 C   0  0  0  0  0  2  0  0  0  0  0  0
  -18.1310  -26.7650   22.1790 C   0  0  0  0  0  2  0  0  0  0  0  0
  -19.1250  -28.8490   23.2930 C   0  0  0  0  0  0  0  0  0  0  0  0
  -18.9350  -30.1030   23.9130 C   0  0  0  0  0  3  0  0  0  0  0  0
  -17.6410  -30.6150   24.1210 C   0  0  0  0  0  3  0  0  0  0  0  0
  -16.5180  -29.8700   23.7240 C   0  0  0  0  0  3  0  0  0  0  0  0
  -16.6920  -28.6160   23.1110 C   0  0  0  0  0  3  0  0  0  0  0  0
  -25.8030  -32.5340   23.7130 C   0  0  0  0  0  3  0  0  0  0  0  0
  -25.4570  -33.9160   24.0800 N   0  0  0  0  0  0  0  0  0  0  0  0
  -25.7740  -34.9990   23.3580 C   0  0  0  0  0  0  0  0  0  0  0  0
  -26.4560  -34.9410   22.3320 O   0  0  0  0  0  0  0  0  0  0  0  0
  -24.8510  -34.0320   24.8800 H   0  0  0  0  0  0  0  0  0  0  0  0
  -24.0270  -36.7790   23.0240 C   0  0  0  0  0  1  0  0  0  0  0  0
  -25.2530  -36.3620   23.8530 C   0  0  0  0  0  3  0  0  0  0  0  0
  -27.3520  -37.2470   24.7710 C   0  0  0  0  0  1  0  0  0  0  0  0
  -26.2710  -37.4340   23.8060 N   0  0  0  0  0  0  0  0  0  0  0  0
  -25.8470  -38.3420   23.9790 H   0  0  0  0  0  0  0  0  0  0  0  0
  -26.3510  -31.7500   24.9690 C   0  0  1  0  0  0  0  0  0  0  0  0
  -25.2750  -31.4640   26.0430 C   0  0  0  0  0  1  0  0  0  0  0  0
  -26.9640  -30.3940   24.5480 C   0  0  0  0  0  1  0  0  0  0  0  0
  -27.4900  -32.5590   25.6350 C   0  0  0  0  0  1  0  0  0  0  0  0
  1  5  1  0
  2  1  1  0
  2  6  1  0
  3  8  2  0
  4  1  2  0
  5  3  1  0
  6  3  1  0
  7  2  2  0
  9 12  1  0
 10  9  2  0
 10 13  1  0
 12  6  1  0
 12 11  2  0
 13 14  2  0
 14 11  1  0
 14 23  1  0
 15 23  1  0
 16 21  1  0
 17 18  1  0
 17 16  1  0
 19 18  1  0
 19 28  1  0
 19 20  1  0
 21 15  1  0
 21 20  1  0
 22 15  2  0
 23 24  1  0
 25 26  2  0
 26 27  1  0
 26 45  1  0
 27 30  1  0
 28 25  1  0
 28 29  1  0
 29 27  2  0
 30 31  1  0
 31 32  2  0
 33 36  1  0
 33 32  1  0
 34 33  2  0
 35 34  1  0
 35 30  2  0
 36 37  1  0
 37 38  1  0
 38 39  2  0
 40 39  1  0
 40 44  1  0
 41 40  2  0
 42 37  2  0
 42 41  1  0
 43 42  1  0
 45 46  1  0
 46 49  1  0
 46 48  1  0
 47 45  2  0
 50 25  1  0
 51 50  1  0
 52 50  1  0
 53 55  1  0
 53 13  1  0
 54 53  1  0
 56  4  1  0
 57 68  2  0
 58 56  1  0
 58 63  1  0
 59 67  1  0
 59 69  1  0
 60 66  1  0
 60 62  1  0
 61 67  1  0
 62 63  2  0
 62 61  1  0
 64 65  1  0
 64 58  2  0
 65 60  2  0
 66 59  1  0
 67 57  1  0
 69 71  2  0
 70 69  1  0
 72 70  1  0
 73 82  2  0
 73 78  1  0
 74 70  1  0
 74 78  1  0
 75 74  1  0
 76 77  1  0
 76 75  1  0
 77 73  1  0
 78 79  2  0
 79 80  1  0
 81 80  2  0
 82 81  1  0
 83 57  1  0
 83 84  1  0
 83 93  1  0
 84 87  1  0
 85 89  1  0
 85 84  1  0
 86 85  2  0
 89 88  1  0
 91 89  1  0
 91 92  1  0
 91 90  1  0
 93 96  1  1
 93 94  1  0
 95 93  1  0
M  ISO  4   4 101  15 100  23 100  56 101
M  END
>  <TORSDO>  (57) 
F 18

>  <SCORE>  (57) 
-14.676

>  <name>  (57) 
56

>  <ligand_id>  (57) 
56

>  <original_smiles>  (57) 
[H]C(Oc1c([H])c([H])c2c(c1[H])C([H])([H])N(C(=O)C([H])(N([H])C(=O)C([H])(N([H])C([H])([H])[H])C([H])([H])[H])C(C([H])([H])[H])(C([H])([H])[H])C([H])([H])[H])C([H])(C(=O)N([H])C1([H])c3c([H])c([H])c([H])c([H])c3C([H])([H])C([H])([H])C1([H])[H])C2([H])[H])=C1C(=O)N(c2c([H])c([H])c(N([H])[H])c(N([H])C(=O)N3C([H])([H])C([H])([H])C([H])([H])C([H])(n4nc(-c5c([H])c([H])c(Oc6c([H])c([H])c(F)c([H])c6F)c([H])c5[H])c(C(=O)N([H])[H])c4N([H])[H])C3([H])[H])c2[H])C(=O)C1([H])[H]

>  <smiles>  (57) 
[H]C(Oc1c([H])c([H])c2c(c1[H])C([H])([H])N(C(=O)C([H])(N([H])C(=O)C([H])(N([H])C([H])([H])[H])C([H])([H])[H])C(C([H])([H])[H])(C([H])([H])[H])C([H])([H])[H])C([H])(C(=O)N([H])C1([H])c3c([H])c([H])c([H])c([H])c3C([H])([H])C([H])([H])C1([H])[H])C2([H])[H])=C1C(=O)N(c2c([H])c([H])c(N([H])[H])c(N([H])C(=O)N3C([H])([H])C([H])([H])C([H])([H])C([H])(n4nc(-c5c([H])c([H])c(Oc6c([H])c([H])c(F)c([H])c6F)c([H])c5[H])c(C(=O)N([H])[H])c4N([H])[H])C3([H])[H])c2[H])C(=O)C1([H])[H]

$$$$
57:0:0
     RDKit          3D

 94103  0  0  1  0  0  0  0  0999 V2000
  -30.3490  -23.8360   20.5260 C   0  0  0  0  0  3  0  0  0  0  0  0
  -28.7270  -22.4610   19.8850 C   0  0  0  0  0  3  0  0  0  0  0  0
  -29.0250  -23.8210   20.0010 C   0  0  0  0  0  0  0  0  0  0  0  0
  -30.7710  -22.5380   20.6940 C   0  0  0  0  0  0  0  0  0  0  0  0
  -29.7900  -21.6300   20.2990 N   0  0  0  0  0  0  0  0  0  0  0  0
  -31.0570  -19.4220   20.1360 C   0  0  0  0  0  3  0  0  0  0  0  0
  -31.1180  -17.9920   20.1930 C   0  0  0  0  0  3  0  0  0  0  0  0
  -28.6950  -19.3610   20.5470 C   0  0  0  0  0  3  0  0  0  0  0  0
  -29.8480  -20.1570   20.3210 C   0  0  0  0  0  0  0  0  0  0  0  0
  -29.9580  -17.2070   20.4320 C   0  0  0  0  0  0  0  0  0  0  0  0
  -28.7510  -17.9370   20.6020 C   0  0  0  0  0  0  0  0  0  0  0  0
  -27.6090  -17.2430   20.8260 F   0  0  0  0  0  0  0  0  0  0  0  0
  -30.6630  -14.7120   20.0570 C   0  0  0  0  0  0  0  0  0  0  0  0
  -30.4000  -12.5060   18.9310 C   0  0  0  0  0  2  0  0  0  0  0  0
  -29.3850  -12.6640   17.7760 C   0  0  0  0  0  2  0  0  0  0  0  0
  -27.9370  -12.4950   18.2800 C   0  0  0  0  0  2  0  0  0  0  0  0
  -27.6510  -13.3160   19.5660 C   0  0  0  0  0  3  0  0  0  0  0  0
  -28.7700  -13.1200   20.6130 C   0  0  0  0  0  2  0  0  0  0  0  0
  -30.0460  -13.4870   19.9770 N   0  0  0  0  0  0  0  0  0  0  0  0
  -31.7990  -14.8840   19.6060 O   0  0  0  0  0  0  0  0  0  0  0  0
  -29.8820  -15.7420   20.5120 N   0  0  0  0  0  0  0  0  0  0  0  0
  -28.9970  -15.4230   20.8770 H   0  0  0  0  0  0  0  0  0  0  0  0
  -25.2960  -13.9000   20.4170 C   0  0  0  0  0  0  0  0  0  0  0  0
  -24.2470  -13.1190   20.8200 C   0  0  0  0  0  0  0  0  0  0  0  0
  -24.7040  -11.7690   20.7360 C   0  0  0  0  0  0  0  0  0  0  0  0
  -26.3270  -13.0250   20.1110 N   0  0  0  0  0  0  0  0  0  0  0  0
  -25.9770  -11.7360   20.3610 N   0  0  0  0  0  0  0  0  0  0  0  0
  -23.9850  -10.5040   20.9330 C   0  0  0  0  0  0  0  0  0  0  0  0
  -24.4220   -9.5450   21.8740 C   0  0  0  0  0  3  0  0  0  0  0  0
  -23.7030   -8.3440   22.0590 C   0  0  0  0  0  3  0  0  0  0  0  0
  -22.5330   -8.0940   21.3030 C   0  0  0  0  0  0  0  0  0  0  0  0
  -22.1140   -9.0420   20.3530 C   0  0  0  0  0  3  0  0  0  0  0  0
  -22.8340  -10.2340   20.1660 C   0  0  0  0  0  3  0  0  0  0  0  0
  -21.7860   -6.9450   21.3970 O   0  0  0  0  0  0  0  0  0  0  0  0
  -21.6840   -6.2450   22.5730 C   0  0  0  0  0  0  0  0  0  0  0  0
  -21.1870   -6.8410   23.7530 C   0  0  0  0  0  3  0  0  0  0  0  0
  -21.0350   -6.0670   24.9210 C   0  0  0  0  0  3  0  0  0  0  0  0
  -21.3690   -4.6990   24.9100 C   0  0  0  0  0  0  0  0  0  0  0  0
  -21.8600   -4.1040   23.7340 C   0  0  0  0  0  3  0  0  0  0  0  0
  -22.0130   -4.8740   22.5680 C   0  0  0  0  0  0  0  0  0  0  0  0
  -22.4670   -4.2910   21.4320 F   0  0  0  0  0  0  0  0  0  0  0  0
  -21.2160   -3.9530   26.0280 F   0  0  0  0  0  0  0  0  0  0  0  0
  -22.8660  -13.5940   21.1750 C   0  0  0  0  0  0  0  0  0  0  0  0
  -22.1850  -12.8840   22.0680 N   0  0  0  0  0  0  0  0  0  0  0  0
  -22.4020  -14.6270   20.6960 O   0  0  0  0  0  0  0  0  0  0  0  0
  -22.5730  -12.0490   22.4810 H   0  0  0  0  0  0  0  0  0  0  0  0
  -21.2620  -13.1870   22.3490 H   0  0  0  0  0  0  0  0  0  0  0  0
  -25.4530  -15.2740   20.2680 N   0  0  0  0  0  0  0  0  0  0  0  0
  -24.7020  -15.9240   20.4730 H   0  0  0  0  0  0  0  0  0  0  0  0
  -26.3150  -15.7400   20.0130 H   0  0  0  0  0  0  0  0  0  0  0  0
  -31.9650  -22.1150   21.1880 O   0  0  0  0  0  0  0  0  0  0  0  0
  -32.4960  -22.8880   21.3590 H   0  0  0  0  0  0  0  0  0  0  0  0
  -28.1030  -25.0220   19.5940 C   0  0  0  0  0  2  0  0  0  0  0  0
  -28.3650  -26.4380   19.9810 O   0  0  0  0  0  0  0  0  0  0  0  0
  -24.5450  -31.7290   23.1380 C   0  0  0  0  0  0  0  0  0  0  0  0
  -27.2530  -27.3090   19.9370 C   0  0  0  0  0  0  0  0  0  0  0  0
  -23.3740  -30.3530   21.4610 C   0  0  0  0  0  3  0  0  0  0  0  0
  -24.8580  -28.8910   19.9830 C   0  0  0  0  0  0  0  0  0  0  0  0
  -25.9120  -30.7260   21.2960 C   0  0  0  0  0  2  0  0  0  0  0  0
  -26.0200  -29.3730   20.5990 C   0  0  0  0  0  0  0  0  0  0  0  0
  -27.2190  -28.5940   20.5710 C   0  0  0  0  0  3  0  0  0  0  0  0
  -26.0620  -26.9020   19.2850 C   0  0  0  0  0  3  0  0  0  0  0  0
  -24.8820  -27.6600   19.3190 C   0  0  0  0  0  3  0  0  0  0  0  0
  -23.6040  -29.7350   20.0590 C   0  0  0  0  0  2  0  0  0  0  0  0
  -24.6290  -30.9520   22.0200 N   0  0  0  0  0  0  0  0  0  0  0  0
  -23.4550  -31.9670   23.6780 O   0  0  0  0  0  0  0  0  0  0  0  0
  -22.7370  -29.2900   22.3860 C   0  0  0  0  0  0  0  0  0  0  0  0
  -21.4180  -29.0710   22.2420 N   0  0  0  0  0  0  0  0  0  0  0  0
  -23.4280  -28.6660   23.1950 O   0  0  0  0  0  0  0  0  0  0  0  0
  -20.9180  -29.6290   21.5630 H   0  0  0  0  0  0  0  0  0  0  0  0
  -18.0730  -27.7690   22.6930 C   0  0  0  0  0  0  0  0  0  0  0  0
  -20.6220  -28.0940   22.9860 C   0  0  0  0  0  3  0  0  0  0  0  0
  -20.7650  -26.6790   22.3770 C   0  0  0  0  0  2  0  0  0  0  0  0
  -19.6790  -26.3510   21.3470 C   0  0  0  0  0  2  0  0  0  0  0  0
  -18.2900  -26.4430   21.9850 C   0  0  0  0  0  2  0  0  0  0  0  0
  -19.1680  -28.5510   23.1490 C   0  0  0  0  0  0  0  0  0  0  0  0
  -18.9100  -29.7920   23.7700 C   0  0  0  0  0  3  0  0  0  0  0  0
  -17.5900  -30.2530   23.9400 C   0  0  0  0  0  3  0  0  0  0  0  0
  -16.5100  -29.4670   23.5010 C   0  0  0  0  0  3  0  0  0  0  0  0
  -16.7520  -28.2280   22.8830 C   0  0  0  0  0  3  0  0  0  0  0  0
  -25.8130  -32.3740   23.7780 C   0  0  0  0  0  3  0  0  0  0  0  0
  -26.3280  -31.5970   25.0510 C   0  0  1  0  0  0  0  0  0  0  0  0
  -25.2280  -31.3340   26.1070 C   0  0  0  0  0  1  0  0  0  0  0  0
  -26.9340  -30.2300   24.6550 C   0  0  0  0  0  1  0  0  0  0  0  0
  -27.4620  -32.4020   25.7290 C   0  0  0  0  0  1  0  0  0  0  0  0
  -25.4760  -33.7630   24.1220 N   0  0  0  0  0  0  0  0  0  0  0  0
  -25.7800  -34.8290   23.3690 C   0  0  0  0  0  0  0  0  0  0  0  0
  -26.4410  -34.7490   22.3300 O   0  0  0  0  0  0  0  0  0  0  0  0
  -24.8810  -33.8970   24.9260 H   0  0  0  0  0  0  0  0  0  0  0  0
  -24.0000  -36.5820   23.0650 C   0  0  0  0  0  1  0  0  0  0  0  0
  -25.2690  -36.2040   23.8450 C   0  0  0  0  0  3  0  0  0  0  0  0
  -27.3970  -37.1400   24.6350 C   0  0  0  0  0  1  0  0  0  0  0  0
  -26.2730  -37.2810   23.7130 N   0  0  0  0  0  0  0  0  0  0  0  0
  -25.8480  -38.1920   23.8660 H   0  0  0  0  0  0  0  0  0  0  0  0
  1  4  2  0
  2  3  2  0
  2  5  1  0
  3  1  1  0
  4 51  1  0
  5  9  1  0
  5  4  1  0
  6  7  2  0
  6  9  1  0
  7 10  1  0
  8 11  1  0
  9  8  2  0
 10 21  1  0
 10 11  2  0
 11 12  1  0
 13 21  1  0
 14 19  1  0
 15 16  1  0
 15 14  1  0
 17 16  1  0
 17 26  1  0
 17 18  1  0
 19 13  1  0
 19 18  1  0
 20 13  2  0
 21 22  1  0
 23 24  2  0
 24 43  1  0
 25 24  1  0
 25 28  1  0
 26 27  1  0
 26 23  1  0
 27 25  2  0
 28 29  1  0
 29 30  2  0
 31 34  1  0
 31 30  1  0
 32 31  2  0
 33 32  1  0
 33 28  2  0
 34 35  1  0
 35 36  1  0
 36 37  2  0
 38 37  1  0
 38 42  1  0
 39 38  2  0
 40 35  2  0
 40 39  1  0
 41 40  1  0
 43 44  1  0
 44 47  1  0
 44 46  1  0
 45 43  2  0
 48 23  1  0
 48 49  1  0
 50 48  1  0
 51 52  1  0
 53 54  1  0
 53  3  1  0
 55 66  2  0
 56 54  1  0
 56 61  1  0
 57 65  1  0
 57 67  1  0
 58 64  1  0
 58 60  1  0
 59 65  1  0
 60 59  1  0
 61 60  2  0
 62 63  1  0
 62 56  2  0
 63 58  2  0
 64 57  1  0
 65 55  1  0
 67 69  2  0
 68 67  1  0
 70 68  1  0
 71 80  2  0
 71 76  1  0
 72 68  1  0
 72 76  1  0
 73 72  1  0
 74 75  1  0
 74 73  1  0
 75 71  1  0
 76 77  2  0
 77 78  1  0
 79 78  2  0
 80 79  1  0
 81 55  1  0
 81 86  1  0
 81 82  1  0
 82 85  1  1
 82 83  1  0
 84 82  1  0
 86 89  1  0
 87 91  1  0
 87 86  1  0
 88 87  2  0
 91 90  1  0
 93 91  1  0
 93 94  1  0
 93 92  1  0
M  ISO  4  13 100  21 100  53 101  54 101
M  END
>  <TORSDO>  (58) 
F 19

>  <SCORE>  (58) 
-14.501

>  <name>  (58) 
57

>  <ligand_id>  (58) 
57

>  <original_smiles>  (58) 
[H]Oc1c([H])c(C([H])([H])Oc2c([H])c([H])c3c(c2[H])C([H])([H])N(C(=O)C([H])(N([H])C(=O)C([H])(N([H])C([H])([H])[H])C([H])([H])[H])C(C([H])([H])[H])(C([H])([H])[H])C([H])([H])[H])C([H])(C(=O)N([H])C2([H])c4c([H])c([H])c([H])c([H])c4C([H])([H])C([H])([H])C2([H])[H])C3([H])[H])c([H])n1-c1c([H])c([H])c(N([H])C(=O)N2C([H])([H])C([H])([H])C([H])([H])C([H])(n3nc(-c4c([H])c([H])c(Oc5c([H])c([H])c(F)c([H])c5F)c([H])c4[H])c(C(=O)N([H])[H])c3N([H])[H])C2([H])[H])c(F)c1[H]

>  <smiles>  (58) 
[H]Oc1c([H])c(C([H])([H])Oc2c([H])c([H])c3c(c2[H])C([H])([H])N(C(=O)C([H])(N([H])C(=O)C([H])(N([H])C([H])([H])[H])C([H])([H])[H])C(C([H])([H])[H])(C([H])([H])[H])C([H])([H])[H])C([H])(C(=O)N([H])C2([H])c4c([H])c([H])c([H])c([H])c4C([H])([H])C([H])([H])C2([H])[H])C3([H])[H])c([H])n1-c1c([H])c([H])c(N([H])C(=O)N2C([H])([H])C([H])([H])C([H])([H])C([H])(n3nc(-c4c([H])c([H])c(Oc5c([H])c([H])c(F)c([H])c5F)c([H])c4[H])c(C(=O)N([H])[H])c3N([H])[H])C2([H])[H])c(F)c1[H]

$$$$
58:0:0
     RDKit          3D

 93102  0  0  1  0  0  0  0  0999 V2000
  -28.1720  -23.6650   20.7200 C   0  0  0  0  0  0  0  0  0  0  0  0
  -29.2450  -22.7930   20.1290 C   0  0  0  0  0  0  0  0  0  0  0  0
  -27.8320  -25.0360   20.7320 C   0  0  0  0  0  3  0  0  0  0  0  0
  -27.2700  -22.7120   21.4680 C   0  0  0  0  0  3  0  0  0  0  0  0
  -27.7800  -21.2960   21.1670 C   0  0  0  0  0  3  0  0  0  0  0  0
  -29.0470  -21.4290   20.4530 N   0  0  0  0  0  0  0  0  0  0  0  0
  -30.1740  -23.2170   19.4350 O   0  0  0  0  0  0  0  0  0  0  0  0
  -32.1330  -19.2910   19.6910 C   0  0  0  0  0  3  0  0  0  0  0  0
  -31.2510  -20.3730   19.8660 C   0  0  0  0  0  3  0  0  0  0  0  0
  -31.7260  -17.9560   19.8680 C   0  0  0  0  0  3  0  0  0  0  0  0
  -29.8980  -20.1870   20.2340 C   0  0  0  0  0  0  0  0  0  0  0  0
  -30.4020  -17.6100   20.2320 C   0  0  0  0  0  0  0  0  0  0  0  0
  -29.5040  -18.7680   20.4140 C   0  0  0  0  0  0  0  0  0  0  0  0
  -28.2260  -18.4890   20.7670 F   0  0  0  0  0  0  0  0  0  0  0  0
  -30.7440  -14.9530   20.1820 C   0  0  0  0  0  0  0  0  0  0  0  0
  -30.5210  -12.6530   19.1980 C   0  0  0  0  0  2  0  0  0  0  0  0
  -29.5600  -12.6840   17.9910 C   0  0  0  0  0  2  0  0  0  0  0  0
  -28.1080  -12.4750   18.4590 C   0  0  0  0  0  2  0  0  0  0  0  0
  -27.7410  -13.3690   19.6750 C   0  0  0  0  0  3  0  0  0  0  0  0
  -28.8310  -13.3470   20.7710 C   0  0  0  0  0  2  0  0  0  0  0  0
  -30.0970  -13.7290   20.1340 N   0  0  0  0  0  0  0  0  0  0  0  0
  -31.9330  -14.9700   19.8550 O   0  0  0  0  0  0  0  0  0  0  0  0
  -30.0270  -16.1480   20.3950 N   0  0  0  0  0  0  0  0  0  0  0  0
  -29.0620  -16.0010   20.6500 H   0  0  0  0  0  0  0  0  0  0  0  0
  -25.3750  -13.9150   20.4910 C   0  0  0  0  0  0  0  0  0  0  0  0
  -24.3270  -13.1230   20.8730 C   0  0  0  0  0  0  0  0  0  0  0  0
  -24.8020  -11.7770   20.8010 C   0  0  0  0  0  0  0  0  0  0  0  0
  -26.4200  -13.0510   20.2040 N   0  0  0  0  0  0  0  0  0  0  0  0
  -26.0840  -11.7580   20.4550 N   0  0  0  0  0  0  0  0  0  0  0  0
  -24.0900  -10.5040   20.9830 C   0  0  0  0  0  0  0  0  0  0  0  0
  -24.5170   -9.5480   21.9310 C   0  0  0  0  0  3  0  0  0  0  0  0
  -23.8020   -8.3420   22.1020 C   0  0  0  0  0  3  0  0  0  0  0  0
  -22.6470   -8.0850   21.3260 C   0  0  0  0  0  0  0  0  0  0  0  0
  -22.2390   -9.0300   20.3690 C   0  0  0  0  0  3  0  0  0  0  0  0
  -22.9530  -10.2270   20.1960 C   0  0  0  0  0  3  0  0  0  0  0  0
  -21.9060   -6.9300   21.4060 O   0  0  0  0  0  0  0  0  0  0  0  0
  -21.7960   -6.2250   22.5790 C   0  0  0  0  0  0  0  0  0  0  0  0
  -21.2680   -6.8080   23.7510 C   0  0  0  0  0  3  0  0  0  0  0  0
  -21.1070   -6.0280   24.9130 C   0  0  0  0  0  3  0  0  0  0  0  0
  -21.4640   -4.6660   24.9040 C   0  0  0  0  0  0  0  0  0  0  0  0
  -21.9840   -4.0820   23.7360 C   0  0  0  0  0  3  0  0  0  0  0  0
  -22.1470   -4.8600   22.5750 C   0  0  0  0  0  0  0  0  0  0  0  0
  -22.6290   -4.2870   21.4450 F   0  0  0  0  0  0  0  0  0  0  0  0
  -21.3020   -3.9140   26.0180 F   0  0  0  0  0  0  0  0  0  0  0  0
  -22.9340  -13.5830   21.1910 C   0  0  0  0  0  0  0  0  0  0  0  0
  -22.2330  -12.8620   22.0570 N   0  0  0  0  0  0  0  0  0  0  0  0
  -22.4770  -14.6170   20.7060 O   0  0  0  0  0  0  0  0  0  0  0  0
  -22.6170  -12.0260   22.4730 H   0  0  0  0  0  0  0  0  0  0  0  0
  -21.2980  -13.1510   22.3100 H   0  0  0  0  0  0  0  0  0  0  0  0
  -25.5220  -15.2900   20.3380 N   0  0  0  0  0  0  0  0  0  0  0  0
  -24.7530  -15.9340   20.4880 H   0  0  0  0  0  0  0  0  0  0  0  0
  -26.3560  -15.7510   19.9970 H   0  0  0  0  0  0  0  0  0  0  0  0
  -28.2630  -26.3110   20.2180 O   0  0  0  0  0  0  0  0  0  0  0  0
  -24.6330  -31.9150   23.2250 C   0  0  0  0  0  0  0  0  0  0  0  0
  -27.2460  -27.3110   20.1450 C   0  0  0  0  0  0  0  0  0  0  0  0
  -23.4370  -30.5220   21.5790 C   0  0  0  0  0  3  0  0  0  0  0  0
  -24.8960  -28.9860   20.1330 C   0  0  0  0  0  0  0  0  0  0  0  0
  -25.9820  -30.8310   21.4030 C   0  0  0  0  0  2  0  0  0  0  0  0
  -26.0700  -29.4500   20.7440 C   0  0  0  0  0  0  0  0  0  0  0  0
  -27.2490  -28.6240   20.7440 C   0  0  0  0  0  3  0  0  0  0  0  0
  -26.0560  -26.9410   19.4820 C   0  0  0  0  0  3  0  0  0  0  0  0
  -24.8960  -27.7410   19.4890 C   0  0  0  0  0  3  0  0  0  0  0  0
  -23.6560  -29.8600   20.1930 C   0  0  0  0  0  2  0  0  0  0  0  0
  -24.7030  -31.1070   22.1250 N   0  0  0  0  0  0  0  0  0  0  0  0
  -23.5470  -32.1860   23.7610 O   0  0  0  0  0  0  0  0  0  0  0  0
  -22.7730  -29.4980   22.5340 C   0  0  0  0  0  0  0  0  0  0  0  0
  -21.4470  -29.3140   22.4060 N   0  0  0  0  0  0  0  0  0  0  0  0
  -23.4530  -28.8740   23.3520 O   0  0  0  0  0  0  0  0  0  0  0  0
  -20.9560  -29.8700   21.7200 H   0  0  0  0  0  0  0  0  0  0  0  0
  -18.0770  -28.0880   22.9060 C   0  0  0  0  0  0  0  0  0  0  0  0
  -20.6340  -28.3680   23.1740 C   0  0  0  0  0  3  0  0  0  0  0  0
  -20.7470  -26.9390   22.5930 C   0  0  0  0  0  2  0  0  0  0  0  0
  -19.6470  -26.6130   21.5760 C   0  0  0  0  0  2  0  0  0  0  0  0
  -18.2650  -26.7440   22.2230 C   0  0  0  0  0  2  0  0  0  0  0  0
  -19.1910  -28.8580   23.3380 C   0  0  0  0  0  0  0  0  0  0  0  0
  -18.9610  -30.1140   23.9380 C   0  0  0  0  0  3  0  0  0  0  0  0
  -17.6530  -30.6030   24.1100 C   0  0  0  0  0  3  0  0  0  0  0  0
  -16.5540  -29.8300   23.6930 C   0  0  0  0  0  3  0  0  0  0  0  0
  -16.7680  -28.5750   23.0970 C   0  0  0  0  0  3  0  0  0  0  0  0
  -25.9110  -32.5530   23.8500 C   0  0  0  0  0  3  0  0  0  0  0  0
  -25.5960  -33.9510   24.1820 N   0  0  0  0  0  0  0  0  0  0  0  0
  -25.9200  -35.0080   23.4240 C   0  0  0  0  0  0  0  0  0  0  0  0
  -26.5860  -34.9070   22.3900 O   0  0  0  0  0  0  0  0  0  0  0  0
  -25.0080  -34.1030   24.9890 H   0  0  0  0  0  0  0  0  0  0  0  0
  -24.1890  -36.8000   23.0740 C   0  0  0  0  0  1  0  0  0  0  0  0
  -25.4320  -36.3950   23.8840 C   0  0  0  0  0  3  0  0  0  0  0  0
  -27.5630  -37.2850   24.7200 C   0  0  0  0  0  1  0  0  0  0  0  0
  -26.4620  -37.4500   23.7720 N   0  0  0  0  0  0  0  0  0  0  0  0
  -26.0550  -38.3700   23.9160 H   0  0  0  0  0  0  0  0  0  0  0  0
  -26.4260  -31.7840   25.1280 C   0  0  1  0  0  0  0  0  0  0  0  0
  -25.3310  -31.5470   26.1950 C   0  0  0  0  0  1  0  0  0  0  0  0
  -27.0120  -30.4060   24.7420 C   0  0  0  0  0  1  0  0  0  0  0  0
  -27.5740  -32.5800   25.7930 C   0  0  0  0  0  1  0  0  0  0  0  0
  1  3  2  0
  1  4  1  0
  2  6  1  0
  2  1  1  0
  5  4  2  0
  6  5  1  0
  7  2  2  0
  8  9  2  0
  8 10  1  0
  9 11  1  0
 10 12  2  0
 11 13  2  0
 11  6  1  0
 12 23  1  0
 12 13  1  0
 13 14  1  0
 15 23  1  0
 16 21  1  0
 17 18  1  0
 17 16  1  0
 19 18  1  0
 19 28  1  0
 19 20  1  0
 21 15  1  0
 21 20  1  0
 22 15  2  0
 23 24  1  0
 25 26  2  0
 26 45  1  0
 27 26  1  0
 27 30  1  0
 28 29  1  0
 28 25  1  0
 29 27  2  0
 30 31  1  0
 31 32  2  0
 33 36  1  0
 33 32  1  0
 34 33  2  0
 35 34  1  0
 35 30  2  0
 36 37  1  0
 37 38  1  0
 38 39  2  0
 40 39  1  0
 40 44  1  0
 41 40  2  0
 42 37  2  0
 42 41  1  0
 43 42  1  0
 45 46  1  0
 46 49  1  0
 46 48  1  0
 47 45  2  0
 50 51  1  0
 50 25  1  0
 52 50  1  0
 53  3  1  0
 54 65  2  0
 55 53  1  0
 55 60  1  0
 56 64  1  0
 56 66  1  0
 57 63  1  0
 57 59  1  0
 58 64  1  0
 59 60  2  0
 59 58  1  0
 61 62  1  0
 61 55  2  0
 62 57  2  0
 63 56  1  0
 64 54  1  0
 66 68  2  0
 67 66  1  0
 69 67  1  0
 70 79  2  0
 70 75  1  0
 71 67  1  0
 71 75  1  0
 72 71  1  0
 73 74  1  0
 73 72  1  0
 74 70  1  0
 75 76  2  0
 76 77  1  0
 78 77  2  0
 79 78  1  0
 80 54  1  0
 80 81  1  0
 80 90  1  0
 81 84  1  0
 82 86  1  0
 82 81  1  0
 83 82  2  0
 86 85  1  0
 88 86  1  0
 88 89  1  0
 88 87  1  0
 90 93  1  1
 90 91  1  0
 92 90  1  0
M  ISO  4   3 101  15 100  23 100  53 101
M  END
>  <TORSDO>  (59) 
F 17

>  <SCORE>  (59) 
-15.100

>  <name>  (59) 
58

>  <ligand_id>  (59) 
58

>  <original_smiles>  (59) 
[H]C(Oc1c([H])c([H])c2c(c1[H])C([H])([H])N(C(=O)C([H])(N([H])C(=O)C([H])(N([H])C([H])([H])[H])C([H])([H])[H])C(C([H])([H])[H])(C([H])([H])[H])C([H])([H])[H])C([H])(C(=O)N([H])C1([H])c3c([H])c([H])c([H])c([H])c3C([H])([H])C([H])([H])C1([H])[H])C2([H])[H])=C1C(=O)N(c2c([H])c([H])c([H])c(N([H])C(=O)N3C([H])([H])C([H])([H])C([H])([H])C([H])(n4nc(-c5c([H])c([H])c(Oc6c([H])c([H])c(F)c([H])c6F)c([H])c5[H])c(C(=O)N([H])[H])c4N([H])[H])C3([H])[H])c2F)C([H])([H])C1([H])[H]

>  <smiles>  (59) 
[H]C(Oc1c([H])c([H])c2c(c1[H])C([H])([H])N(C(=O)C([H])(N([H])C(=O)C([H])(N([H])C([H])([H])[H])C([H])([H])[H])C(C([H])([H])[H])(C([H])([H])[H])C([H])([H])[H])C([H])(C(=O)N([H])C1([H])c3c([H])c([H])c([H])c([H])c3C([H])([H])C([H])([H])C1([H])[H])C2([H])[H])=C1C(=O)N(c2c([H])c([H])c([H])c(N([H])C(=O)N3C([H])([H])C([H])([H])C([H])([H])C([H])(n4nc(-c5c([H])c([H])c(Oc6c([H])c([H])c(F)c([H])c6F)c([H])c5[H])c(C(=O)N([H])[H])c4N([H])[H])C3([H])[H])c2F)C([H])([H])C1([H])[H]

$$$$
59:0:0
     RDKit          3D

 90 98  0  0  1  0  0  0  0  0999 V2000
  -30.5830  -21.4820   20.4650 C   0  0  0  0  0  3  0  0  0  0  0  0
  -28.8890  -19.7980   20.2820 C   0  0  0  0  0  2  0  0  0  0  0  0
  -31.1420  -18.9930   20.4540 C   0  0  0  0  0  3  0  0  0  0  0  0
  -29.1810  -21.3360   20.3450 C   0  0  0  0  0  0  0  0  0  0  0  0
  -31.5000  -20.3810   20.5190 C   0  0  0  0  0  0  0  0  0  0  0  0
  -29.8110  -18.5240   20.3340 C   0  0  0  0  0  0  0  0  0  0  0  0
  -30.3230  -15.5440   20.2410 C   0  0  0  0  0  0  0  0  0  0  0  0
  -30.3880  -13.0620   19.3280 C   0  0  0  0  0  2  0  0  0  0  0  0
  -29.4460  -12.7310   18.1360 C   0  0  0  0  0  2  0  0  0  0  0  0
  -28.0220  -12.3880   18.6140 C   0  0  0  0  0  2  0  0  0  0  0  0
  -27.5590  -13.3420   19.7390 C   0  0  0  0  0  3  0  0  0  0  0  0
  -28.6420  -13.5300   20.8300 C   0  0  0  0  0  2  0  0  0  0  0  0
  -29.7940  -14.1900   20.1590 N   0  0  0  0  0  0  0  0  0  0  0  0
  -31.5530  -15.5110   20.0560 O   0  0  0  0  0  0  0  0  0  0  0  0
  -28.0990  -16.6770   20.2930 C   0  0  0  0  0  1  0  0  0  0  0  0
  -29.5410  -16.8750   20.3020 N   0  0  0  0  0  0  0  0  0  0  0  0
  -25.1860  -13.8740   20.5170 C   0  0  0  0  0  0  0  0  0  0  0  0
  -24.1380  -13.0880   20.8950 C   0  0  0  0  0  0  0  0  0  0  0  0
  -24.6210  -11.7450   20.8530 C   0  0  0  0  0  0  0  0  0  0  0  0
  -26.2420  -13.0130   20.2670 N   0  0  0  0  0  0  0  0  0  0  0  0
  -25.9120  -11.7240   20.5340 N   0  0  0  0  0  0  0  0  0  0  0  0
  -23.9090  -10.4760   21.0400 C   0  0  0  0  0  0  0  0  0  0  0  0
  -24.3550   -9.5080   21.9670 C   0  0  0  0  0  3  0  0  0  0  0  0
  -23.6380   -8.3060   22.1460 C   0  0  0  0  0  3  0  0  0  0  0  0
  -22.4610   -8.0640   21.3960 C   0  0  0  0  0  0  0  0  0  0  0  0
  -22.0350   -9.0210   20.4590 C   0  0  0  0  0  3  0  0  0  0  0  0
  -22.7530  -10.2130   20.2770 C   0  0  0  0  0  3  0  0  0  0  0  0
  -21.7150   -6.9140   21.4860 O   0  0  0  0  0  0  0  0  0  0  0  0
  -21.6760   -6.1710   22.6380 C   0  0  0  0  0  0  0  0  0  0  0  0
  -21.2340   -6.7170   23.8630 C   0  0  0  0  0  3  0  0  0  0  0  0
  -21.1420   -5.8990   25.0060 C   0  0  0  0  0  3  0  0  0  0  0  0
  -21.4820   -4.5350   24.9270 C   0  0  0  0  0  0  0  0  0  0  0  0
  -21.9170   -3.9880   23.7070 C   0  0  0  0  0  3  0  0  0  0  0  0
  -22.0100   -4.8040   22.5650 C   0  0  0  0  0  0  0  0  0  0  0  0
  -22.4090   -4.2660   21.3870 F   0  0  0  0  0  0  0  0  0  0  0  0
  -21.3860   -3.7460   26.0230 F   0  0  0  0  0  0  0  0  0  0  0  0
  -22.7400  -13.5520   21.1770 C   0  0  0  0  0  0  0  0  0  0  0  0
  -22.0280  -12.8540   22.0550 N   0  0  0  0  0  0  0  0  0  0  0  0
  -22.2860  -14.5720   20.6570 O   0  0  0  0  0  0  0  0  0  0  0  0
  -22.4090  -12.0310   22.4970 H   0  0  0  0  0  0  0  0  0  0  0  0
  -21.0910  -13.1490   22.2890 H   0  0  0  0  0  0  0  0  0  0  0  0
  -25.3080  -15.2460   20.3350 N   0  0  0  0  0  0  0  0  0  0  0  0
  -24.5280  -15.8800   20.4700 H   0  0  0  0  0  0  0  0  0  0  0  0
  -26.1470  -15.7120   20.0170 H   0  0  0  0  0  0  0  0  0  0  0  0
  -32.8540  -20.6890   20.6590 N   0  0  0  0  0  0  0  0  0  0  0  0
  -33.1750  -21.6390   20.4940 H   0  0  0  0  0  0  0  0  0  0  0  0
  -33.5570  -19.9830   20.4580 H   0  0  0  0  0  0  0  0  0  0  0  0
  -28.1720  -22.7530   20.3160 C   0  0  0  0  0  0  0  0  0  0  0  0
  -27.7940  -24.2240   20.3130 C   0  0  0  0  0  3  0  0  0  0  0  0
  -28.1690  -25.7380   20.3300 O   0  0  0  0  0  0  0  0  0  0  0  0
  -24.6740  -31.9080   23.2500 C   0  0  0  0  0  0  0  0  0  0  0  0
  -27.1990  -26.9120   20.2800 C   0  0  0  0  0  0  0  0  0  0  0  0
  -23.4760  -30.5080   21.6200 C   0  0  0  0  0  3  0  0  0  0  0  0
  -24.9180  -28.8700   20.2150 C   0  0  0  0  0  0  0  0  0  0  0  0
  -26.0500  -30.6700   21.4920 C   0  0  0  0  0  2  0  0  0  0  0  0
  -26.1100  -29.2460   20.8490 C   0  0  0  0  0  0  0  0  0  0  0  0
  -27.2370  -28.2880   20.8630 C   0  0  0  0  0  3  0  0  0  0  0  0
  -25.9820  -26.7270   19.5750 C   0  0  0  0  0  3  0  0  0  0  0  0
  -24.8840  -27.6310   19.5580 C   0  0  0  0  0  3  0  0  0  0  0  0
  -23.7090  -29.8090   20.2510 C   0  0  0  0  0  2  0  0  0  0  0  0
  -24.7550  -31.0590   22.1730 N   0  0  0  0  0  0  0  0  0  0  0  0
  -23.5850  -32.2140   23.7630 O   0  0  0  0  0  0  0  0  0  0  0  0
  -22.7640  -29.5310   22.5930 C   0  0  0  0  0  0  0  0  0  0  0  0
  -21.4320  -29.3780   22.4670 N   0  0  0  0  0  0  0  0  0  0  0  0
  -23.4200  -28.9100   23.4330 O   0  0  0  0  0  0  0  0  0  0  0  0
  -20.9540  -29.9300   21.7680 H   0  0  0  0  0  0  0  0  0  0  0  0
  -18.0400  -28.1840   22.9730 C   0  0  0  0  0  0  0  0  0  0  0  0
  -20.6000  -28.4520   23.2450 C   0  0  0  0  0  3  0  0  0  0  0  0
  -20.7010  -27.0120   22.6900 C   0  0  0  0  0  2  0  0  0  0  0  0
  -19.6050  -26.6790   21.6730 C   0  0  0  0  0  2  0  0  0  0  0  0
  -18.2200  -26.8290   22.3090 C   0  0  0  0  0  2  0  0  0  0  0  0
  -19.1580  -28.9520   23.3990 C   0  0  0  0  0  0  0  0  0  0  0  0
  -18.9320  -30.2170   23.9840 C   0  0  0  0  0  3  0  0  0  0  0  0
  -17.6250  -30.7150   24.1460 C   0  0  0  0  0  3  0  0  0  0  0  0
  -16.5240  -29.9450   23.7340 C   0  0  0  0  0  3  0  0  0  0  0  0
  -16.7330  -28.6810   23.1550 C   0  0  0  0  0  3  0  0  0  0  0  0
  -25.9460  -32.5480   23.8830 C   0  0  0  0  0  3  0  0  0  0  0  0
  -25.6330  -33.9500   24.2170 N   0  0  0  0  0  0  0  0  0  0  0  0
  -25.9430  -35.0100   23.4580 C   0  0  0  0  0  0  0  0  0  0  0  0
  -26.5850  -34.9120   22.4100 O   0  0  0  0  0  0  0  0  0  0  0  0
  -25.0570  -34.0980   25.0330 H   0  0  0  0  0  0  0  0  0  0  0  0
  -24.1920  -36.8020   23.1870 C   0  0  0  0  0  1  0  0  0  0  0  0
  -25.4720  -36.4000   23.9380 C   0  0  0  0  0  3  0  0  0  0  0  0
  -27.6350  -37.3050   24.6700 C   0  0  0  0  0  1  0  0  0  0  0  0
  -26.4930  -37.4590   23.7740 N   0  0  0  0  0  0  0  0  0  0  0  0
  -26.0880  -38.3770   23.9320 H   0  0  0  0  0  0  0  0  0  0  0  0
  -26.4470  -31.7860   25.1720 C   0  0  1  0  0  0  0  0  0  0  0  0
  -25.3430  -31.5670   26.2340 C   0  0  0  0  0  1  0  0  0  0  0  0
  -27.0240  -30.4000   24.8100 C   0  0  0  0  0  1  0  0  0  0  0  0
  -27.5970  -32.5790   25.8350 C   0  0  0  0  0  1  0  0  0  0  0  0
  1  5  2  0
  2  6  1  0
  2  4  1  0
  3  5  1  0
  4  1  1  0
  5 45  1  0
  6  3  2  0
  7 16  1  0
  8 13  1  0
  9 10  1  0
  9  8  1  0
 11 10  1  0
 11 20  1  0
 11 12  1  0
 13  7  1  0
 13 12  1  0
 14  7  2  0
 15 16  1  0
 16  6  1  0
 17 18  2  0
 18 37  1  0
 19 18  1  0
 19 22  1  0
 20 17  1  0
 20 21  1  0
 21 19  2  0
 22 23  1  0
 23 24  2  0
 25 28  1  0
 25 24  1  0
 26 25  2  0
 27 26  1  0
 27 22  2  0
 28 29  1  0
 29 30  1  0
 30 31  2  0
 32 31  1  0
 32 36  1  0
 33 32  2  0
 34 29  2  0
 34 33  1  0
 35 34  1  0
 37 38  1  0
 38 41  1  0
 38 40  1  0
 39 37  2  0
 42 43  1  0
 42 17  1  0
 44 42  1  0
 46 45  1  0
 47 45  1  0
 48  4  2  0
 49 48  2  0
 49 50  1  0
 51 62  2  0
 52 50  1  0
 52 57  1  0
 53 61  1  0
 53 63  1  0
 54 60  1  0
 54 56  1  0
 55 61  1  0
 56 57  2  0
 56 55  1  0
 58 52  2  0
 59 58  1  0
 59 54  2  0
 60 53  1  0
 61 51  1  0
 63 65  2  0
 64 63  1  0
 66 64  1  0
 67 76  2  0
 67 72  1  0
 68 64  1  0
 68 72  1  0
 69 68  1  0
 70 71  1  0
 70 69  1  0
 71 67  1  0
 72 73  2  0
 73 74  1  0
 75 74  2  0
 76 75  1  0
 77 51  1  0
 77 78  1  0
 77 87  1  0
 78 81  1  0
 79 83  1  0
 79 78  1  0
 80 79  2  0
 83 82  1  0
 85 86  1  0
 85 83  1  0
 85 84  1  0
 87 90  1  1
 87 88  1  0
 89 87  1  0
M  ISO  4   7 100  16 100  49 101  50 101
M  END
>  <TORSDO>  (60) 
F 18

>  <SCORE>  (60) 
-15.319

>  <name>  (60) 
59

>  <ligand_id>  (60) 
59

>  <original_smiles>  (60) 
[H]C(Oc1c([H])c([H])c2c(c1[H])C([H])([H])N(C(=O)C([H])(N([H])C(=O)C([H])(N([H])C([H])([H])[H])C([H])([H])[H])C(C([H])([H])[H])(C([H])([H])[H])C([H])([H])[H])C([H])(C(=O)N([H])C1([H])c3c([H])c([H])c([H])c([H])c3C([H])([H])C([H])([H])C1([H])[H])C2([H])[H])=C([H])c1c([H])c(N([H])[H])c([H])c(N(C(=O)N2C([H])([H])C([H])([H])C([H])([H])C([H])(n3nc(-c4c([H])c([H])c(Oc5c([H])c([H])c(F)c([H])c5F)c([H])c4[H])c(C(=O)N([H])[H])c3N([H])[H])C2([H])[H])C([H])([H])[H])c1[H]

>  <smiles>  (60) 
[H]C(Oc1c([H])c([H])c2c(c1[H])C([H])([H])N(C(=O)C([H])(N([H])C(=O)C([H])(N([H])C([H])([H])[H])C([H])([H])[H])C(C([H])([H])[H])(C([H])([H])[H])C([H])([H])[H])C([H])(C(=O)N([H])C1([H])c3c([H])c([H])c([H])c([H])c3C([H])([H])C([H])([H])C1([H])[H])C2([H])[H])=C([H])c1c([H])c(N([H])[H])c([H])c(N(C(=O)N2C([H])([H])C([H])([H])C([H])([H])C([H])(n3nc(-c4c([H])c([H])c(Oc5c([H])c([H])c(F)c([H])c5F)c([H])c4[H])c(C(=O)N([H])[H])c3N([H])[H])C2([H])[H])C([H])([H])[H])c1[H]

$$$$
60:0:0
     RDKit          3D

 95103  0  0  1  0  0  0  0  0999 V2000
  -31.0790  -19.6260   20.4510 C   0  0  0  0  0  3  0  0  0  0  0  0
  -30.6020  -20.9640   20.3400 C   0  0  0  0  0  3  0  0  0  0  0  0
  -28.8800  -18.7490   20.0400 C   0  0  0  0  0  3  0  0  0  0  0  0
  -30.2460  -18.4750   20.3050 C   0  0  0  0  0  0  0  0  0  0  0  0
  -29.2410  -21.2350   20.0720 C   0  0  0  0  0  0  0  0  0  0  0  0
  -28.3960  -20.0930   19.9300 C   0  0  0  0  0  0  0  0  0  0  0  0
  -30.8070  -14.6580   20.0800 C   0  0  0  0  0  0  0  0  0  0  0  0
  -30.4120  -12.4020   19.1020 C   0  0  0  0  0  2  0  0  0  0  0  0
  -29.4490  -12.4790   17.9020 C   0  0  0  0  0  2  0  0  0  0  0  0
  -27.9920  -12.3610   18.3870 C   0  0  0  0  0  2  0  0  0  0  0  0
  -27.6780  -13.3000   19.5820 C   0  0  0  0  0  3  0  0  0  0  0  0
  -28.7710  -13.2420   20.6730 C   0  0  0  0  0  2  0  0  0  0  0  0
  -30.0560  -13.5090   20.0190 N   0  0  0  0  0  0  0  0  0  0  0  0
  -31.9820  -14.6110   19.7100 O   0  0  0  0  0  0  0  0  0  0  0  0
  -30.8490  -17.0670   20.5490 C   0  0  0  0  0  0  0  0  0  0  0  0
  -30.1920  -15.8760   20.3120 N   0  0  0  0  0  0  0  0  0  0  0  0
  -32.0170  -17.0740   20.9580 O   0  0  0  0  0  0  0  0  0  0  0  0
  -29.1900  -15.9080   20.2450 H   0  0  0  0  0  0  0  0  0  0  0  0
  -25.3390  -13.9620   20.4000 C   0  0  0  0  0  0  0  0  0  0  0  0
  -24.2630  -13.2210   20.8030 C   0  0  0  0  0  0  0  0  0  0  0  0
  -24.6810  -11.8560   20.7520 C   0  0  0  0  0  0  0  0  0  0  0  0
  -26.3460  -13.0510   20.1240 N   0  0  0  0  0  0  0  0  0  0  0  0
  -25.9580  -11.7790   20.3990 N   0  0  0  0  0  0  0  0  0  0  0  0
  -23.9200  -10.6170   20.9600 C   0  0  0  0  0  0  0  0  0  0  0  0
  -24.3440   -9.6360   21.8840 C   0  0  0  0  0  3  0  0  0  0  0  0
  -23.5840   -8.4630   22.0820 C   0  0  0  0  0  3  0  0  0  0  0  0
  -22.3860   -8.2620   21.3540 C   0  0  0  0  0  0  0  0  0  0  0  0
  -21.9810   -9.2300   20.4200 C   0  0  0  0  0  3  0  0  0  0  0  0
  -22.7420  -10.3950   20.2200 C   0  0  0  0  0  3  0  0  0  0  0  0
  -21.5970   -7.1420   21.4620 O   0  0  0  0  0  0  0  0  0  0  0  0
  -21.5530   -6.4000   22.6160 C   0  0  0  0  0  0  0  0  0  0  0  0
  -21.1500   -6.9610   23.8470 C   0  0  0  0  0  3  0  0  0  0  0  0
  -21.0530   -6.1470   24.9930 C   0  0  0  0  0  3  0  0  0  0  0  0
  -21.3480   -4.7730   24.9090 C   0  0  0  0  0  0  0  0  0  0  0  0
  -21.7460   -4.2120   23.6820 C   0  0  0  0  0  3  0  0  0  0  0  0
  -21.8440   -5.0230   22.5390 C   0  0  0  0  0  0  0  0  0  0  0  0
  -22.2070   -4.4730   21.3550 F   0  0  0  0  0  0  0  0  0  0  0  0
  -21.2480   -3.9890   26.0080 F   0  0  0  0  0  0  0  0  0  0  0  0
  -22.8920  -13.7420   21.1230 C   0  0  0  0  0  0  0  0  0  0  0  0
  -22.1720  -13.0680   22.0120 N   0  0  0  0  0  0  0  0  0  0  0  0
  -22.4700  -14.7810   20.6170 O   0  0  0  0  0  0  0  0  0  0  0  0
  -22.5270  -12.2270   22.4420 H   0  0  0  0  0  0  0  0  0  0  0  0
  -21.2530  -13.4000   22.2690 H   0  0  0  0  0  0  0  0  0  0  0  0
  -25.5410  -15.3280   20.2180 N   0  0  0  0  0  0  0  0  0  0  0  0
  -24.7930  -16.0020   20.3450 H   0  0  0  0  0  0  0  0  0  0  0  0
  -26.3760  -15.7350   19.8180 H   0  0  0  0  0  0  0  0  0  0  0  0
  -29.1100  -23.8540   20.0990 C   0  0  0  0  0  0  0  0  0  0  0  0
  -28.6760  -22.5710   19.8640 N   0  0  0  0  0  0  0  0  0  0  0  0
  -30.1690  -24.1140   20.6770 O   0  0  0  0  0  0  0  0  0  0  0  0
  -27.7650  -22.5290   19.4290 H   0  0  0  0  0  0  0  0  0  0  0  0
  -28.1750  -25.0200   19.5820 C   0  0  0  0  0  2  0  0  0  0  0  0
  -28.4270  -26.4320   19.9910 O   0  0  0  0  0  0  0  0  0  0  0  0
  -24.4820  -31.6390   23.1030 C   0  0  0  0  0  0  0  0  0  0  0  0
  -27.3100  -27.2930   19.9230 C   0  0  0  0  0  0  0  0  0  0  0  0
  -23.3670  -30.2760   21.3770 C   0  0  0  0  0  3  0  0  0  0  0  0
  -24.9020  -28.8480   19.9190 C   0  0  0  0  0  0  0  0  0  0  0  0
  -25.9010  -30.6810   21.2740 C   0  0  0  0  0  2  0  0  0  0  0  0
  -26.0420  -29.3360   20.5710 C   0  0  0  0  0  0  0  0  0  0  0  0
  -27.2500  -28.5710   20.5680 C   0  0  0  0  0  3  0  0  0  0  0  0
  -26.1450  -26.8810   19.2290 C   0  0  0  0  0  3  0  0  0  0  0  0
  -24.9570  -27.6270   19.2390 C   0  0  0  0  0  3  0  0  0  0  0  0
  -23.6360  -29.6750   19.9740 C   0  0  0  0  0  2  0  0  0  0  0  0
  -24.6010  -30.8800   21.9760 N   0  0  0  0  0  0  0  0  0  0  0  0
  -23.3780  -31.8590   23.6200 O   0  0  0  0  0  0  0  0  0  0  0  0
  -22.7160  -29.1940   22.2730 C   0  0  0  0  0  0  0  0  0  0  0  0
  -21.3920  -29.0120   22.1360 N   0  0  0  0  0  0  0  0  0  0  0  0
  -23.4020  -28.5270   23.0510 O   0  0  0  0  0  0  0  0  0  0  0  0
  -20.8970  -29.6040   21.4830 H   0  0  0  0  0  0  0  0  0  0  0  0
  -18.0150  -27.8070   22.6190 C   0  0  0  0  0  0  0  0  0  0  0  0
  -20.5810  -28.0240   22.8490 C   0  0  0  0  0  3  0  0  0  0  0  0
  -20.6570  -26.6410   22.1630 C   0  0  0  0  0  2  0  0  0  0  0  0
  -19.5290  -26.4060   21.1530 C   0  0  0  0  0  2  0  0  0  0  0  0
  -18.1640  -26.5120   21.8370 C   0  0  0  0  0  2  0  0  0  0  0  0
  -19.1510  -28.5250   23.0800 C   0  0  0  0  0  0  0  0  0  0  0  0
  -18.9570  -29.7400   23.7720 C   0  0  0  0  0  3  0  0  0  0  0  0
  -17.6610  -30.2370   24.0050 C   0  0  0  0  0  3  0  0  0  0  0  0
  -16.5400  -29.5150   23.5610 C   0  0  0  0  0  3  0  0  0  0  0  0
  -16.7180  -28.3000   22.8730 C   0  0  0  0  0  3  0  0  0  0  0  0
  -25.7270  -32.2860   23.7840 C   0  0  0  0  0  3  0  0  0  0  0  0
  -26.2090  -31.5040   25.0660 C   0  0  1  0  0  0  0  0  0  0  0  0
  -25.0790  -31.2240   26.0850 C   0  0  0  0  0  1  0  0  0  0  0  0
  -26.8370  -30.1460   24.6770 C   0  0  0  0  0  1  0  0  0  0  0  0
  -27.3160  -32.3100   25.7870 C   0  0  0  0  0  1  0  0  0  0  0  0
  -25.3770  -33.6720   24.1240 N   0  0  0  0  0  0  0  0  0  0  0  0
  -25.6960  -34.7420   23.3840 C   0  0  0  0  0  0  0  0  0  0  0  0
  -26.3890  -34.6680   22.3650 O   0  0  0  0  0  0  0  0  0  0  0  0
  -24.7640  -33.8020   24.9160 H   0  0  0  0  0  0  0  0  0  0  0  0
  -23.9210  -36.4880   23.0310 C   0  0  0  0  0  1  0  0  0  0  0  0
  -25.1660  -36.1120   23.8490 C   0  0  0  0  0  3  0  0  0  0  0  0
  -27.2620  -37.0560   24.7120 C   0  0  0  0  0  1  0  0  0  0  0  0
  -26.1680  -37.1960   23.7540 N   0  0  0  0  0  0  0  0  0  0  0  0
  -25.7330  -38.1030   23.8990 H   0  0  0  0  0  0  0  0  0  0  0  0
  -27.0360  -20.2950   19.6920 N   0  0  0  0  0  0  0  0  0  0  0  0
  -26.4380  -19.4850   19.8160 H   0  0  0  0  0  0  0  0  0  0  0  0
  -26.6240  -21.1110   20.1300 H   0  0  0  0  0  0  0  0  0  0  0  0
  2  1  1  0
  3  4  1  0
  4  1  2  0
  4 15  1  0
  5  2  2  0
  6  3  2  0
  6  5  1  0
  7 16  1  0
  8 13  1  0
  9 10  1  0
  9  8  1  0
 11 10  1  0
 11 22  1  0
 11 12  1  0
 13  7  1  0
 13 12  1  0
 14  7  2  0
 15 17  2  0
 16 15  1  0
 18 16  1  0
 19 20  2  0
 20 39  1  0
 21 20  1  0
 21 24  1  0
 22 23  1  0
 22 19  1  0
 23 21  2  0
 24 25  1  0
 25 26  2  0
 27 30  1  0
 27 26  1  0
 28 27  2  0
 29 28  1  0
 29 24  2  0
 30 31  1  0
 31 32  1  0
 32 33  2  0
 34 33  1  0
 34 38  1  0
 35 34  2  0
 36 31  2  0
 36 35  1  0
 37 36  1  0
 39 40  1  0
 40 43  1  0
 40 42  1  0
 41 39  2  0
 44 45  1  0
 44 19  1  0
 46 44  1  0
 47 49  2  0
 48  5  1  0
 48 47  1  0
 50 48  1  0
 51 52  1  0
 51 47  1  0
 53 64  2  0
 54 52  1  0
 54 59  1  0
 55 63  1  0
 55 65  1  0
 56 62  1  0
 56 58  1  0
 57 63  1  0
 58 57  1  0
 59 58  2  0
 60 61  1  0
 60 54  2  0
 61 56  2  0
 62 55  1  0
 63 53  1  0
 65 67  2  0
 66 65  1  0
 68 66  1  0
 69 78  2  0
 69 74  1  0
 70 66  1  0
 70 74  1  0
 71 70  1  0
 72 73  1  0
 72 71  1  0
 73 69  1  0
 74 75  2  0
 75 76  1  0
 77 76  2  0
 78 77  1  0
 79 53  1  0
 79 84  1  0
 79 80  1  0
 80 83  1  1
 80 81  1  0
 82 80  1  0
 84 87  1  0
 85 89  1  0
 85 84  1  0
 86 85  2  0
 89 88  1  0
 91 89  1  0
 91 92  1  0
 91 90  1  0
 93 94  1  0
 93  6  1  0
 93 95  1  0
M  ISO  4   7 100  16 100  51 101  52 101
M  END
>  <TORSDO>  (61) 
F 19

>  <SCORE>  (61) 
-14.333

>  <name>  (61) 
60

>  <ligand_id>  (61) 
60

>  <original_smiles>  (61) 
[H]c1c([H])c([H])c2c(c1[H])C([H])([H])C([H])([H])C([H])([H])C2([H])N([H])C(=O)C1([H])N(C(=O)C([H])(N([H])C(=O)C([H])(N([H])C([H])([H])[H])C([H])([H])[H])C(C([H])([H])[H])(C([H])([H])[H])C([H])([H])[H])C([H])([H])c2c([H])c(OC([H])([H])C(=O)N([H])c3c([H])c([H])c(C(=O)N([H])C(=O)N4C([H])([H])C([H])([H])C([H])([H])C([H])(n5nc(-c6c([H])c([H])c(Oc7c([H])c([H])c(F)c([H])c7F)c([H])c6[H])c(C(=O)N([H])[H])c5N([H])[H])C4([H])[H])c([H])c3N([H])[H])c([H])c([H])c2C1([H])[H]

>  <smiles>  (61) 
[H]c1c([H])c([H])c2c(c1[H])C([H])([H])C([H])([H])C([H])([H])C2([H])N([H])C(=O)C1([H])N(C(=O)C([H])(N([H])C(=O)C([H])(N([H])C([H])([H])[H])C([H])([H])[H])C(C([H])([H])[H])(C([H])([H])[H])C([H])([H])[H])C([H])([H])c2c([H])c(OC([H])([H])C(=O)N([H])c3c([H])c([H])c(C(=O)N([H])C(=O)N4C([H])([H])C([H])([H])C([H])([H])C([H])(n5nc(-c6c([H])c([H])c(Oc7c([H])c([H])c(F)c([H])c7F)c([H])c6[H])c(C(=O)N([H])[H])c5N([H])[H])C4([H])[H])c([H])c3N([H])[H])c([H])c([H])c2C1([H])[H]

$$$$
61:0:0
     RDKit          3D

 91 99  0  0  1  0  0  0  0  0999 V2000
  -29.6710  -21.8170   20.7510 C   0  0  0  0  0  0  0  0  0  0  0  0
  -30.5300  -22.2430   21.5280 O   0  0  0  0  0  0  0  0  0  0  0  0
  -28.5470  -19.4520   20.7420 C   0  0  0  0  0  3  0  0  0  0  0  0
  -28.6160  -18.0200   20.7090 C   0  0  0  0  0  3  0  0  0  0  0  0
  -30.9500  -18.1160   20.1900 C   0  0  0  0  0  3  0  0  0  0  0  0
  -29.6850  -20.2740   20.5170 C   0  0  0  0  0  0  0  0  0  0  0  0
  -29.8170  -17.2920   20.4530 C   0  0  0  0  0  0  0  0  0  0  0  0
  -30.8860  -19.5540   20.2230 C   0  0  0  0  0  0  0  0  0  0  0  0
  -32.0300  -20.2450   19.9970 F   0  0  0  0  0  0  0  0  0  0  0  0
  -30.6040  -14.7690   20.1040 C   0  0  0  0  0  0  0  0  0  0  0  0
  -30.3910  -12.5220   19.0260 C   0  0  0  0  0  2  0  0  0  0  0  0
  -29.3840  -12.6280   17.8580 C   0  0  0  0  0  2  0  0  0  0  0  0
  -27.9360  -12.4440   18.3580 C   0  0  0  0  0  2  0  0  0  0  0  0
  -27.6280  -13.3040   19.6110 C   0  0  0  0  0  3  0  0  0  0  0  0
  -28.7390  -13.1520   20.6740 C   0  0  0  0  0  2  0  0  0  0  0  0
  -30.0120  -13.5280   20.0410 N   0  0  0  0  0  0  0  0  0  0  0  0
  -31.7540  -14.9380   19.6850 O   0  0  0  0  0  0  0  0  0  0  0  0
  -29.7730  -15.8090   20.4850 N   0  0  0  0  0  0  0  0  0  0  0  0
  -28.8850  -15.4450   20.7950 H   0  0  0  0  0  0  0  0  0  0  0  0
  -25.2830  -13.8970   20.4730 C   0  0  0  0  0  0  0  0  0  0  0  0
  -24.2300  -13.1220   20.8770 C   0  0  0  0  0  0  0  0  0  0  0  0
  -24.6790  -11.7690   20.7840 C   0  0  0  0  0  0  0  0  0  0  0  0
  -26.3060  -13.0160   20.1580 N   0  0  0  0  0  0  0  0  0  0  0  0
  -25.9510  -11.7300   20.4060 N   0  0  0  0  0  0  0  0  0  0  0  0
  -23.9540  -10.5070   20.9720 C   0  0  0  0  0  0  0  0  0  0  0  0
  -24.3930   -9.5340   21.8980 C   0  0  0  0  0  3  0  0  0  0  0  0
  -23.6680   -8.3370   22.0740 C   0  0  0  0  0  3  0  0  0  0  0  0
  -22.4910   -8.1030   21.3250 C   0  0  0  0  0  0  0  0  0  0  0  0
  -22.0720   -9.0630   20.3880 C   0  0  0  0  0  3  0  0  0  0  0  0
  -22.7970  -10.2520   20.2100 C   0  0  0  0  0  3  0  0  0  0  0  0
  -21.7370   -6.9570   21.4120 O   0  0  0  0  0  0  0  0  0  0  0  0
  -21.6460   -6.2400   22.5780 C   0  0  0  0  0  0  0  0  0  0  0  0
  -21.1530   -6.8150   23.7690 C   0  0  0  0  0  3  0  0  0  0  0  0
  -21.0120   -6.0240   24.9270 C   0  0  0  0  0  3  0  0  0  0  0  0
  -21.3550   -4.6600   24.8940 C   0  0  0  0  0  0  0  0  0  0  0  0
  -21.8420   -4.0840   23.7080 C   0  0  0  0  0  3  0  0  0  0  0  0
  -21.9840   -4.8720   22.5520 C   0  0  0  0  0  0  0  0  0  0  0  0
  -22.4330   -4.3080   21.4050 F   0  0  0  0  0  0  0  0  0  0  0  0
  -21.2130   -3.8970   26.0040 F   0  0  0  0  0  0  0  0  0  0  0  0
  -22.8530  -13.6000   21.2330 C   0  0  0  0  0  0  0  0  0  0  0  0
  -22.1630  -12.8800   22.1100 N   0  0  0  0  0  0  0  0  0  0  0  0
  -22.3990  -14.6450   20.7690 O   0  0  0  0  0  0  0  0  0  0  0  0
  -22.5450  -12.0360   22.5090 H   0  0  0  0  0  0  0  0  0  0  0  0
  -21.2400  -13.1810   22.3910 H   0  0  0  0  0  0  0  0  0  0  0  0
  -25.4500  -15.2720   20.3240 N   0  0  0  0  0  0  0  0  0  0  0  0
  -24.6900  -15.9240   20.4840 H   0  0  0  0  0  0  0  0  0  0  0  0
  -26.2650  -15.7100   19.9140 H   0  0  0  0  0  0  0  0  0  0  0  0
  -28.5920  -23.8850   20.3190 C   0  0  0  0  0  2  0  0  0  0  0  0
  -28.0920  -25.1030   20.6150 C   0  0  0  0  0  2  0  0  0  0  0  0
  -28.7490  -22.6690   20.0800 N   0  0  0  0  0  2  0  0  0  0  0  0
  -28.3480  -26.4350   20.1890 O   0  0  0  0  0  0  0  0  0  0  0  0
  -24.6240  -31.9030   23.1670 C   0  0  0  0  0  0  0  0  0  0  0  0
  -27.2570  -27.3250   20.1500 C   0  0  0  0  0  0  0  0  0  0  0  0
  -23.4270  -30.4850   21.5380 C   0  0  0  0  0  3  0  0  0  0  0  0
  -24.8870  -28.9320   20.1180 C   0  0  0  0  0  0  0  0  0  0  0  0
  -25.9640  -30.8160   21.3480 C   0  0  0  0  0  2  0  0  0  0  0  0
  -26.0540  -29.4290   20.7150 C   0  0  0  0  0  0  0  0  0  0  0  0
  -27.2440  -28.6370   20.7220 C   0  0  0  0  0  3  0  0  0  0  0  0
  -26.0720  -26.8870   19.5210 C   0  0  0  0  0  3  0  0  0  0  0  0
  -24.8980  -27.6660   19.5110 C   0  0  0  0  0  3  0  0  0  0  0  0
  -23.6440  -29.8010   20.1630 C   0  0  0  0  0  2  0  0  0  0  0  0
  -24.6910  -31.0860   22.0740 N   0  0  0  0  0  0  0  0  0  0  0  0
  -23.5400  -32.1780   23.7020 O   0  0  0  0  0  0  0  0  0  0  0  0
  -22.7700  -29.4730   22.5090 C   0  0  0  0  0  0  0  0  0  0  0  0
  -21.4430  -29.2950   22.3920 N   0  0  0  0  0  0  0  0  0  0  0  0
  -23.4540  -28.8510   23.3250 O   0  0  0  0  0  0  0  0  0  0  0  0
  -20.9500  -29.8510   21.7060 H   0  0  0  0  0  0  0  0  0  0  0  0
  -18.0650  -28.1160   22.9340 C   0  0  0  0  0  0  0  0  0  0  0  0
  -20.6290  -28.3600   23.1700 C   0  0  0  0  0  3  0  0  0  0  0  0
  -20.7120  -26.9280   22.5910 C   0  0  0  0  0  2  0  0  0  0  0  0
  -19.5960  -26.6170   21.5900 C   0  0  0  0  0  2  0  0  0  0  0  0
  -18.2240  -26.7670   22.2520 C   0  0  0  0  0  2  0  0  0  0  0  0
  -19.1940  -28.8700   23.3510 C   0  0  0  0  0  0  0  0  0  0  0  0
  -18.9900  -30.1320   23.9510 C   0  0  0  0  0  3  0  0  0  0  0  0
  -17.6910  -30.6410   24.1350 C   0  0  0  0  0  3  0  0  0  0  0  0
  -16.5760  -29.8850   23.7320 C   0  0  0  0  0  3  0  0  0  0  0  0
  -16.7650  -28.6230   23.1390 C   0  0  0  0  0  3  0  0  0  0  0  0
  -25.9050  -32.5460   23.7840 C   0  0  0  0  0  3  0  0  0  0  0  0
  -25.5820  -33.9400   24.1250 N   0  0  0  0  0  0  0  0  0  0  0  0
  -25.9070  -35.0020   23.3770 C   0  0  0  0  0  0  0  0  0  0  0  0
  -26.5790  -34.9120   22.3450 O   0  0  0  0  0  0  0  0  0  0  0  0
  -24.9810  -34.0820   24.9230 H   0  0  0  0  0  0  0  0  0  0  0  0
  -24.1750  -36.7930   23.0260 C   0  0  0  0  0  1  0  0  0  0  0  0
  -25.4090  -36.3840   23.8450 C   0  0  0  0  0  3  0  0  0  0  0  0
  -27.5320  -37.2670   24.7100 C   0  0  0  0  0  1  0  0  0  0  0  0
  -26.4400  -37.4420   23.7560 N   0  0  0  0  0  0  0  0  0  0  0  0
  -26.0300  -38.3600   23.9080 H   0  0  0  0  0  0  0  0  0  0  0  0
  -26.4360  -31.7720   25.0510 C   0  0  1  0  0  0  0  0  0  0  0  0
  -25.3520  -31.5180   26.1240 C   0  0  0  0  0  1  0  0  0  0  0  0
  -27.0310  -30.4040   24.6460 C   0  0  0  0  0  1  0  0  0  0  0  0
  -27.5830  -32.5750   25.7100 C   0  0  0  0  0  1  0  0  0  0  0  0
  1  2  2  0
  4  3  1  0
  5  8  2  0
  5  7  1  0
  6  3  2  0
  6  1  1  0
  7 18  1  0
  7  4  2  0
  8  6  1  0
  9  8  1  0
 10 18  1  0
 11 16  1  0
 12 13  1  0
 12 11  1  0
 14 13  1  0
 14 23  1  0
 14 15  1  0
 16 10  1  0
 16 15  1  0
 17 10  2  0
 18 19  1  0
 20 21  2  0
 21 40  1  0
 22 21  1  0
 22 25  1  0
 23 24  1  0
 23 20  1  0
 24 22  2  0
 25 26  1  0
 26 27  2  0
 28 31  1  0
 28 27  1  0
 29 28  2  0
 30 29  1  0
 30 25  2  0
 31 32  1  0
 32 33  1  0
 33 34  2  0
 35 34  1  0
 35 39  1  0
 36 35  2  0
 37 32  2  0
 37 36  1  0
 38 37  1  0
 40 41  1  0
 41 44  1  0
 41 43  1  0
 42 40  2  0
 45 20  1  0
 45 46  1  0
 47 45  1  0
 48 49  1  0
 50 48  1  0
 50  1  1  0
 51 49  1  0
 52 63  2  0
 53 51  1  0
 53 58  1  0
 54 62  1  0
 54 64  1  0
 55 61  1  0
 55 57  1  0
 56 62  1  0
 57 58  2  0
 57 56  1  0
 59 53  2  0
 60 59  1  0
 60 55  2  0
 61 54  1  0
 62 52  1  0
 64 66  2  0
 65 64  1  0
 67 65  1  0
 68 77  2  0
 68 73  1  0
 69 65  1  0
 69 73  1  0
 70 69  1  0
 71 72  1  0
 71 70  1  0
 72 68  1  0
 73 74  2  0
 74 75  1  0
 76 75  2  0
 77 76  1  0
 78 52  1  0
 78 79  1  0
 78 88  1  0
 79 82  1  0
 80 84  1  0
 80 79  1  0
 81 80  2  0
 84 83  1  0
 86 84  1  0
 86 87  1  0
 86 85  1  0
 88 91  1  1
 88 89  1  0
 90 88  1  0
M  ISO  4  10 100  18 100  49 101  51 101
M  END
>  <TORSDO>  (62) 
F 18

>  <SCORE>  (62) 
-14.601

>  <name>  (62) 
61

>  <ligand_id>  (62) 
61

>  <original_smiles>  (62) 
[H]C(=C=NC(=O)c1c([H])c([H])c(N([H])C(=O)N2C([H])([H])C([H])([H])C([H])([H])C([H])(n3nc(-c4c([H])c([H])c(Oc5c([H])c([H])c(F)c([H])c5F)c([H])c4[H])c(C(=O)N([H])[H])c3N([H])[H])C2([H])[H])c([H])c1F)Oc1c([H])c([H])c2c(c1[H])C([H])([H])N(C(=O)C([H])(N([H])C(=O)C([H])(N([H])C([H])([H])[H])C([H])([H])[H])C(C([H])([H])[H])(C([H])([H])[H])C([H])([H])[H])C([H])(C(=O)N([H])C1([H])c3c([H])c([H])c([H])c([H])c3C([H])([H])C([H])([H])C1([H])[H])C2([H])[H]

>  <smiles>  (62) 
[H]C(=C=NC(=O)c1c([H])c([H])c(N([H])C(=O)N2C([H])([H])C([H])([H])C([H])([H])C([H])(n3nc(-c4c([H])c([H])c(Oc5c([H])c([H])c(F)c([H])c5F)c([H])c4[H])c(C(=O)N([H])[H])c3N([H])[H])C2([H])[H])c([H])c1F)Oc1c([H])c([H])c2c(c1[H])C([H])([H])N(C(=O)C([H])(N([H])C(=O)C([H])(N([H])C([H])([H])[H])C([H])([H])[H])C(C([H])([H])[H])(C([H])([H])[H])C([H])([H])[H])C([H])(C(=O)N([H])C1([H])c3c([H])c([H])c([H])c([H])c3C([H])([H])C([H])([H])C1([H])[H])C2([H])[H]

$$$$
62:0:0
     RDKit          3D

 91 99  0  0  1  0  0  0  0  0999 V2000
  -28.8530  -21.1990   20.6140 O   0  0  0  0  0  0  0  0  0  0  0  0
  -32.0470  -19.2030   20.4150 C   0  0  0  0  0  3  0  0  0  0  0  0
  -31.6280  -17.8590   20.4600 C   0  0  0  0  0  3  0  0  0  0  0  0
  -31.1340  -20.2740   20.4400 C   0  0  0  0  0  3  0  0  0  0  0  0
  -30.2600  -17.4980   20.5230 C   0  0  0  0  0  0  0  0  0  0  0  0
  -29.7400  -20.0610   20.5120 C   0  0  0  0  0  0  0  0  0  0  0  0
  -29.3330  -18.6420   20.5510 C   0  0  0  0  0  0  0  0  0  0  0  0
  -28.0090  -18.3640   20.6330 F   0  0  0  0  0  0  0  0  0  0  0  0
  -30.6030  -14.8510   20.3710 C   0  0  0  0  0  0  0  0  0  0  0  0
  -30.3910  -12.5550   19.3730 C   0  0  0  0  0  2  0  0  0  0  0  0
  -29.4570  -12.5950   18.1450 C   0  0  0  0  0  2  0  0  0  0  0  0
  -27.9910  -12.4060   18.5800 C   0  0  0  0  0  2  0  0  0  0  0  0
  -27.6080  -13.3030   19.7870 C   0  0  0  0  0  3  0  0  0  0  0  0
  -28.6690  -13.2610   20.9080 C   0  0  0  0  0  2  0  0  0  0  0  0
  -29.9550  -13.6290   20.3040 N   0  0  0  0  0  0  0  0  0  0  0  0
  -31.7940  -14.8790   20.0560 O   0  0  0  0  0  0  0  0  0  0  0  0
  -29.8720  -16.0350   20.5780 N   0  0  0  0  0  0  0  0  0  0  0  0
  -28.8910  -15.8790   20.7510 H   0  0  0  0  0  0  0  0  0  0  0  0
  -25.2210  -13.8720   20.5250 C   0  0  0  0  0  0  0  0  0  0  0  0
  -24.1610  -13.0900   20.8920 C   0  0  0  0  0  0  0  0  0  0  0  0
  -24.6310  -11.7420   20.8570 C   0  0  0  0  0  0  0  0  0  0  0  0
  -26.2690  -12.9990   20.2830 N   0  0  0  0  0  0  0  0  0  0  0  0
  -25.9220  -11.7120   20.5480 N   0  0  0  0  0  0  0  0  0  0  0  0
  -23.9100  -10.4750   21.0430 C   0  0  0  0  0  0  0  0  0  0  0  0
  -24.3430   -9.5080   21.9750 C   0  0  0  0  0  3  0  0  0  0  0  0
  -23.6200   -8.3070   22.1490 C   0  0  0  0  0  3  0  0  0  0  0  0
  -22.4510   -8.0660   21.3890 C   0  0  0  0  0  0  0  0  0  0  0  0
  -22.0380   -9.0230   20.4450 C   0  0  0  0  0  3  0  0  0  0  0  0
  -22.7610  -10.2140   20.2690 C   0  0  0  0  0  3  0  0  0  0  0  0
  -21.7010   -6.9180   21.4730 O   0  0  0  0  0  0  0  0  0  0  0  0
  -21.6450   -6.1770   22.6260 C   0  0  0  0  0  0  0  0  0  0  0  0
  -21.1930   -6.7260   23.8450 C   0  0  0  0  0  3  0  0  0  0  0  0
  -21.0860   -5.9100   24.9880 C   0  0  0  0  0  3  0  0  0  0  0  0
  -21.4210   -4.5450   24.9150 C   0  0  0  0  0  0  0  0  0  0  0  0
  -21.8660   -3.9930   23.7000 C   0  0  0  0  0  3  0  0  0  0  0  0
  -21.9740   -4.8070   22.5580 C   0  0  0  0  0  0  0  0  0  0  0  0
  -22.3840   -4.2670   21.3850 F   0  0  0  0  0  0  0  0  0  0  0  0
  -21.3120   -3.7580   26.0110 F   0  0  0  0  0  0  0  0  0  0  0  0
  -22.7610  -13.5600   21.1640 C   0  0  0  0  0  0  0  0  0  0  0  0
  -22.0340  -12.8570   22.0250 N   0  0  0  0  0  0  0  0  0  0  0  0
  -22.3210  -14.5860   20.6490 O   0  0  0  0  0  0  0  0  0  0  0  0
  -22.4040  -12.0260   22.4630 H   0  0  0  0  0  0  0  0  0  0  0  0
  -21.0960  -13.1530   22.2500 H   0  0  0  0  0  0  0  0  0  0  0  0
  -25.3760  -15.2440   20.3510 N   0  0  0  0  0  0  0  0  0  0  0  0
  -24.6020  -15.8890   20.4660 H   0  0  0  0  0  0  0  0  0  0  0  0
  -26.2150  -15.6940   20.0080 H   0  0  0  0  0  0  0  0  0  0  0  0
  -29.0970  -22.6350   20.2570 C   0  0  0  0  0  0  0  0  0  0  0  0
  -30.0140  -23.0020   19.5180 O   0  0  0  0  0  0  0  0  0  0  0  0
  -28.1170  -23.6450   20.8940 C   0  0  0  0  0  3  0  0  0  0  0  0
  -27.8200  -25.0210   20.9010 C   0  0  0  0  0  3  0  0  0  0  0  0
  -28.2450  -26.2600   20.3060 O   0  0  0  0  0  0  0  0  0  0  0  0
  -24.6340  -31.8980   23.2460 C   0  0  0  0  0  0  0  0  0  0  0  0
  -27.2350  -27.2620   20.2190 C   0  0  0  0  0  0  0  0  0  0  0  0
  -23.4390  -30.5000   21.6030 C   0  0  0  0  0  3  0  0  0  0  0  0
  -24.8980  -28.9460   20.1780 C   0  0  0  0  0  0  0  0  0  0  0  0
  -25.9880  -30.7930   21.4420 C   0  0  0  0  0  2  0  0  0  0  0  0
  -26.0700  -29.4090   20.7920 C   0  0  0  0  0  0  0  0  0  0  0  0
  -27.2450  -28.5780   20.8060 C   0  0  0  0  0  3  0  0  0  0  0  0
  -26.0470  -26.8870   19.5550 C   0  0  0  0  0  3  0  0  0  0  0  0
  -24.8940  -27.6950   19.5440 C   0  0  0  0  0  3  0  0  0  0  0  0
  -23.6640  -29.8280   20.2230 C   0  0  0  0  0  2  0  0  0  0  0  0
  -24.7070  -31.0830   22.1520 N   0  0  0  0  0  0  0  0  0  0  0  0
  -23.5470  -32.1800   23.7730 O   0  0  0  0  0  0  0  0  0  0  0  0
  -22.7660  -29.4880   22.5610 C   0  0  0  0  0  0  0  0  0  0  0  0
  -21.4380  -29.3160   22.4320 N   0  0  0  0  0  0  0  0  0  0  0  0
  -23.4380  -28.8590   23.3830 O   0  0  0  0  0  0  0  0  0  0  0  0
  -20.9540  -29.8740   21.7430 H   0  0  0  0  0  0  0  0  0  0  0  0
  -18.0520  -28.1350   22.9370 C   0  0  0  0  0  0  0  0  0  0  0  0
  -20.6130  -28.3820   23.2030 C   0  0  0  0  0  3  0  0  0  0  0  0
  -20.7050  -26.9510   22.6230 C   0  0  0  0  0  2  0  0  0  0  0  0
  -19.6010  -26.6370   21.6090 C   0  0  0  0  0  2  0  0  0  0  0  0
  -18.2200  -26.7880   22.2560 C   0  0  0  0  0  2  0  0  0  0  0  0
  -19.1760  -28.8900   23.3670 C   0  0  0  0  0  0  0  0  0  0  0  0
  -18.9630  -30.1520   23.9650 C   0  0  0  0  0  3  0  0  0  0  0  0
  -17.6610  -30.6570   24.1360 C   0  0  0  0  0  3  0  0  0  0  0  0
  -16.5520  -29.9000   23.7210 C   0  0  0  0  0  3  0  0  0  0  0  0
  -16.7490  -28.6400   23.1280 C   0  0  0  0  0  3  0  0  0  0  0  0
  -25.9120  -32.5330   23.8760 C   0  0  0  0  0  3  0  0  0  0  0  0
  -26.4140  -31.7690   25.1620 C   0  0  1  0  0  0  0  0  0  0  0  0
  -25.3100  -31.5440   26.2230 C   0  0  0  0  0  1  0  0  0  0  0  0
  -26.9950  -30.3860   24.7890 C   0  0  0  0  0  1  0  0  0  0  0  0
  -27.5620  -32.5640   25.8290 C   0  0  0  0  0  1  0  0  0  0  0  0
  -25.6020  -33.9340   24.1970 N   0  0  0  0  0  0  0  0  0  0  0  0
  -25.9400  -34.9830   23.4360 C   0  0  0  0  0  0  0  0  0  0  0  0
  -26.6150  -34.8740   22.4080 O   0  0  0  0  0  0  0  0  0  0  0  0
  -25.0050  -34.0920   24.9940 H   0  0  0  0  0  0  0  0  0  0  0  0
  -24.2230  -36.7840   23.0650 C   0  0  0  0  0  1  0  0  0  0  0  0
  -25.4560  -36.3760   23.8860 C   0  0  0  0  0  3  0  0  0  0  0  0
  -27.5870  -37.2550   24.7330 C   0  0  0  0  0  1  0  0  0  0  0  0
  -26.4940  -37.4240   23.7790 N   0  0  0  0  0  0  0  0  0  0  0  0
  -26.0900  -38.3460   23.9190 H   0  0  0  0  0  0  0  0  0  0  0  0
  2  4  2  0
  2  3  1  0
  3  5  2  0
  4  6  1  0
  5  7  1  0
  5 17  1  0
  6  7  2  0
  6  1  1  0
  7  8  1  0
  9 17  1  0
 10 15  1  0
 11 12  1  0
 11 10  1  0
 13 12  1  0
 13 22  1  0
 13 14  1  0
 15  9  1  0
 15 14  1  0
 16  9  2  0
 17 18  1  0
 19 20  2  0
 20 39  1  0
 21 20  1  0
 21 24  1  0
 22 19  1  0
 22 23  1  0
 23 21  2  0
 24 25  1  0
 25 26  2  0
 27 30  1  0
 27 26  1  0
 28 27  2  0
 29 28  1  0
 29 24  2  0
 30 31  1  0
 31 32  1  0
 32 33  2  0
 34 33  1  0
 34 38  1  0
 35 34  2  0
 36 31  2  0
 36 35  1  0
 37 36  1  0
 39 40  1  0
 40 43  1  0
 40 42  1  0
 41 39  2  0
 44 45  1  0
 44 19  1  0
 46 44  1  0
 47  1  1  0
 47 49  1  0
 48 47  2  0
 49 50  2  0
 51 50  1  0
 52 63  2  0
 53 51  1  0
 53 58  1  0
 54 62  1  0
 54 64  1  0
 55 61  1  0
 55 57  1  0
 56 62  1  0
 57 58  2  0
 57 56  1  0
 59 53  2  0
 60 59  1  0
 60 55  2  0
 61 54  1  0
 62 52  1  0
 64 66  2  0
 65 64  1  0
 67 65  1  0
 68 77  2  0
 68 73  1  0
 69 65  1  0
 69 73  1  0
 70 69  1  0
 71 72  1  0
 71 70  1  0
 72 68  1  0
 73 74  2  0
 74 75  1  0
 76 75  2  0
 77 76  1  0
 78 52  1  0
 78 83  1  0
 78 79  1  0
 79 82  1  1
 79 80  1  0
 81 79  1  0
 83 86  1  0
 84 88  1  0
 84 83  1  0
 85 84  2  0
 88 87  1  0
 90 88  1  0
 90 91  1  0
 90 89  1  0
M  ISO  4   9 100  17 100  50 101  51 101
M  END
>  <TORSDO>  (63) 
F 19

>  <SCORE>  (63) 
-14.526

>  <name>  (63) 
62

>  <ligand_id>  (63) 
62

>  <original_smiles>  (63) 
[H]C(Oc1c([H])c([H])c2c(c1[H])C([H])([H])N(C(=O)C([H])(N([H])C(=O)C([H])(N([H])C([H])([H])[H])C([H])([H])[H])C(C([H])([H])[H])(C([H])([H])[H])C([H])([H])[H])C([H])(C(=O)N([H])C1([H])c3c([H])c([H])c([H])c([H])c3C([H])([H])C([H])([H])C1([H])[H])C2([H])[H])=C([H])C(=O)Oc1c([H])c([H])c([H])c(N([H])C(=O)N2C([H])([H])C([H])([H])C([H])([H])C([H])(n3nc(-c4c([H])c([H])c(Oc5c([H])c([H])c(F)c([H])c5F)c([H])c4[H])c(C(=O)N([H])[H])c3N([H])[H])C2([H])[H])c1F

>  <smiles>  (63) 
[H]C(Oc1c([H])c([H])c2c(c1[H])C([H])([H])N(C(=O)C([H])(N([H])C(=O)C([H])(N([H])C([H])([H])[H])C([H])([H])[H])C(C([H])([H])[H])(C([H])([H])[H])C([H])([H])[H])C([H])(C(=O)N([H])C1([H])c3c([H])c([H])c([H])c([H])c3C([H])([H])C([H])([H])C1([H])[H])C2([H])[H])=C([H])C(=O)Oc1c([H])c([H])c([H])c(N([H])C(=O)N2C([H])([H])C([H])([H])C([H])([H])C([H])(n3nc(-c4c([H])c([H])c(Oc5c([H])c([H])c(F)c([H])c5F)c([H])c4[H])c(C(=O)N([H])[H])c3N([H])[H])C2([H])[H])c1F

$$$$
63:0:0
     RDKit          3D

 97106  0  0  1  0  0  0  0  0999 V2000
  -28.8110  -24.1950   21.0540 C   0  0  0  0  0  0  0  0  0  0  0  0
  -28.8930  -23.6360   22.3960 C   0  0  0  0  0  0  0  0  0  0  0  0
  -29.1160  -23.0410   20.1410 C   0  0  0  0  0  0  0  0  0  0  0  0
  -28.5010  -25.5570   20.9390 C   0  0  0  0  0  3  0  0  0  0  0  0
  -29.3260  -22.1890   22.3250 C   0  0  0  0  0  2  0  0  0  0  0  0
  -29.3790  -21.8890   20.8930 N   0  0  0  0  0  0  0  0  0  0  0  0
  -28.6740  -24.2130   23.4690 O   0  0  0  0  0  0  0  0  0  0  0  0
  -29.1330  -23.0740   18.9050 O   0  0  0  0  0  0  0  0  0  0  0  0
  -28.7100  -19.6130   19.9050 C   0  0  0  0  0  3  0  0  0  0  0  0
  -30.9790  -18.3470   20.9610 C   0  0  0  0  0  3  0  0  0  0  0  0
  -29.6610  -20.4650   20.5380 C   0  0  0  0  0  0  0  0  0  0  0  0
  -28.8680  -18.1850   19.8440 C   0  0  0  0  0  0  0  0  0  0  0  0
  -29.9900  -17.4950   20.3920 C   0  0  0  0  0  0  0  0  0  0  0  0
  -30.8130  -19.7750   21.0400 C   0  0  0  0  0  0  0  0  0  0  0  0
  -31.7750  -20.4920   21.6670 F   0  0  0  0  0  0  0  0  0  0  0  0
  -30.8230  -14.9580   20.3460 C   0  0  0  0  0  0  0  0  0  0  0  0
  -30.7090  -12.6520   19.3760 C   0  0  0  0  0  2  0  0  0  0  0  0
  -29.7710  -12.6840   18.1470 C   0  0  0  0  0  2  0  0  0  0  0  0
  -28.2990  -12.5020   18.5690 C   0  0  0  0  0  2  0  0  0  0  0  0
  -27.9030  -13.4100   19.7640 C   0  0  0  0  0  3  0  0  0  0  0  0
  -28.9540  -13.3370   20.8930 C   0  0  0  0  0  2  0  0  0  0  0  0
  -30.2520  -13.7060   20.3080 N   0  0  0  0  0  0  0  0  0  0  0  0
  -32.0130  -15.1140   20.0550 O   0  0  0  0  0  0  0  0  0  0  0  0
  -29.9380  -16.0130   20.4770 N   0  0  0  0  0  0  0  0  0  0  0  0
  -28.9850  -15.6870   20.5290 H   0  0  0  0  0  0  0  0  0  0  0  0
  -25.5130  -14.0070   20.4840 C   0  0  0  0  0  0  0  0  0  0  0  0
  -24.4430  -13.2320   20.8430 C   0  0  0  0  0  0  0  0  0  0  0  0
  -24.9040  -11.8800   20.8060 C   0  0  0  0  0  0  0  0  0  0  0  0
  -26.5560  -13.1260   20.2470 N   0  0  0  0  0  0  0  0  0  0  0  0
  -26.1960  -11.8420   20.5040 N   0  0  0  0  0  0  0  0  0  0  0  0
  -24.1750  -10.6180   20.9860 C   0  0  0  0  0  0  0  0  0  0  0  0
  -24.5680   -9.6680   21.9550 C   0  0  0  0  0  3  0  0  0  0  0  0
  -23.8390   -8.4710   22.1210 C   0  0  0  0  0  3  0  0  0  0  0  0
  -22.7020   -8.2140   21.3180 C   0  0  0  0  0  0  0  0  0  0  0  0
  -22.3280   -9.1530   20.3400 C   0  0  0  0  0  3  0  0  0  0  0  0
  -23.0580  -10.3420   20.1720 C   0  0  0  0  0  3  0  0  0  0  0  0
  -21.9490   -7.0680   21.3910 O   0  0  0  0  0  0  0  0  0  0  0  0
  -21.8170   -6.3660   22.5630 C   0  0  0  0  0  0  0  0  0  0  0  0
  -21.2400   -6.9430   23.7150 C   0  0  0  0  0  3  0  0  0  0  0  0
  -21.0610   -6.1650   24.8760 C   0  0  0  0  0  3  0  0  0  0  0  0
  -21.4480   -4.8110   24.8860 C   0  0  0  0  0  0  0  0  0  0  0  0
  -22.0190   -4.2350   23.7380 C   0  0  0  0  0  3  0  0  0  0  0  0
  -22.2000   -5.0100   22.5780 C   0  0  0  0  0  0  0  0  0  0  0  0
  -22.7310   -4.4440   21.4680 F   0  0  0  0  0  0  0  0  0  0  0  0
  -21.2690   -4.0630   25.9990 F   0  0  0  0  0  0  0  0  0  0  0  0
  -23.0440  -13.7090   21.1100 C   0  0  0  0  0  0  0  0  0  0  0  0
  -22.3070  -13.0040   21.9600 N   0  0  0  0  0  0  0  0  0  0  0  0
  -22.6140  -14.7430   20.6010 O   0  0  0  0  0  0  0  0  0  0  0  0
  -22.6680  -12.1680   22.3940 H   0  0  0  0  0  0  0  0  0  0  0  0
  -21.3690  -13.3040   22.1800 H   0  0  0  0  0  0  0  0  0  0  0  0
  -25.6720  -15.3810   20.3200 N   0  0  0  0  0  0  0  0  0  0  0  0
  -24.8930  -16.0170   20.4450 H   0  0  0  0  0  0  0  0  0  0  0  0
  -26.5110  -15.8670   20.0120 H   0  0  0  0  0  0  0  0  0  0  0  0
  -27.8700  -17.4190   19.2420 N   0  0  0  0  0  0  0  0  0  0  0  0
  -27.1860  -17.9470   18.7110 H   0  0  0  0  0  0  0  0  0  0  0  0
  -28.2270  -16.6580   18.6760 H   0  0  0  0  0  0  0  0  0  0  0  0
  -28.4040  -26.5140   19.9010 O   0  0  0  0  0  0  0  0  0  0  0  0
  -24.6850  -31.8950   23.1410 C   0  0  0  0  0  0  0  0  0  0  0  0
  -27.3240  -27.4200   19.9490 C   0  0  0  0  0  0  0  0  0  0  0  0
  -23.4830  -30.5140   21.4860 C   0  0  0  0  0  3  0  0  0  0  0  0
  -24.9410  -29.0150   20.0060 C   0  0  0  0  0  0  0  0  0  0  0  0
  -26.0170  -30.8700   21.2790 C   0  0  0  0  0  2  0  0  0  0  0  0
  -26.1130  -29.5020   20.6020 C   0  0  0  0  0  0  0  0  0  0  0  0
  -27.3110  -28.7160   20.5680 C   0  0  0  0  0  3  0  0  0  0  0  0
  -26.1310  -26.9950   19.3330 C   0  0  0  0  0  3  0  0  0  0  0  0
  -24.9530  -27.7680   19.3610 C   0  0  0  0  0  3  0  0  0  0  0  0
  -23.6910  -29.8730   20.0890 C   0  0  0  0  0  2  0  0  0  0  0  0
  -24.7480  -31.1100   22.0250 N   0  0  0  0  0  0  0  0  0  0  0  0
  -23.6040  -32.1430   23.6960 O   0  0  0  0  0  0  0  0  0  0  0  0
  -22.8460  -29.4670   22.4320 C   0  0  0  0  0  0  0  0  0  0  0  0
  -21.5180  -29.2850   22.3310 N   0  0  0  0  0  0  0  0  0  0  0  0
  -23.5460  -28.8240   23.2180 O   0  0  0  0  0  0  0  0  0  0  0  0
  -21.0110  -29.8570   21.6700 H   0  0  0  0  0  0  0  0  0  0  0  0
  -18.1630  -28.0370   22.8640 C   0  0  0  0  0  0  0  0  0  0  0  0
  -20.7230  -28.3200   23.0930 C   0  0  0  0  0  3  0  0  0  0  0  0
  -20.8300  -26.9030   22.4800 C   0  0  0  0  0  2  0  0  0  0  0  0
  -19.7130  -26.5930   21.4790 C   0  0  0  0  0  2  0  0  0  0  0  0
  -18.3420  -26.7070   22.1510 C   0  0  0  0  0  2  0  0  0  0  0  0
  -19.2810  -28.8010   23.2920 C   0  0  0  0  0  0  0  0  0  0  0  0
  -19.0590  -30.0460   23.9200 C   0  0  0  0  0  3  0  0  0  0  0  0
  -17.7510  -30.5270   24.1240 C   0  0  0  0  0  3  0  0  0  0  0  0
  -16.6490  -29.7590   23.7110 C   0  0  0  0  0  3  0  0  0  0  0  0
  -16.8550  -28.5160   23.0870 C   0  0  0  0  0  3  0  0  0  0  0  0
  -25.9650  -32.5340   23.7610 C   0  0  0  0  0  3  0  0  0  0  0  0
  -25.6420  -33.9240   24.1140 N   0  0  0  0  0  0  0  0  0  0  0  0
  -25.9560  -34.9930   23.3690 C   0  0  0  0  0  0  0  0  0  0  0  0
  -26.6180  -34.9120   22.3300 O   0  0  0  0  0  0  0  0  0  0  0  0
  -25.0530  -34.0600   24.9230 H   0  0  0  0  0  0  0  0  0  0  0  0
  -24.2250  -36.7880   23.0380 C   0  0  0  0  0  1  0  0  0  0  0  0
  -25.4600  -36.3700   23.8530 C   0  0  0  0  0  3  0  0  0  0  0  0
  -27.5760  -37.2510   24.7330 C   0  0  0  0  0  1  0  0  0  0  0  0
  -26.4900  -37.4290   23.7720 N   0  0  0  0  0  0  0  0  0  0  0  0
  -26.0770  -38.3440   23.9260 H   0  0  0  0  0  0  0  0  0  0  0  0
  -26.5000  -31.7530   25.0240 C   0  0  1  0  0  0  0  0  0  0  0  0
  -25.4170  -31.4860   26.0950 C   0  0  0  0  0  1  0  0  0  0  0  0
  -27.1000  -30.3890   24.6120 C   0  0  0  0  0  1  0  0  0  0  0  0
  -27.6440  -32.5540   25.6890 C   0  0  0  0  0  1  0  0  0  0  0  0
  1  2  1  0
  2  7  2  0
  3  6  1  0
  3  1  1  0
  4  1  2  0
  5  2  1  0
  6  5  1  0
  8  3  2  0
  9 11  1  0
 10 14  1  0
 11  6  1  0
 11 14  2  0
 12  9  2  0
 12 13  1  0
 13 24  1  0
 13 10  2  0
 14 15  1  0
 16 24  1  0
 17 22  1  0
 18 19  1  0
 18 17  1  0
 20 19  1  0
 20 29  1  0
 20 21  1  0
 22 16  1  0
 22 21  1  0
 23 16  2  0
 24 25  1  0
 26 27  2  0
 27 46  1  0
 28 27  1  0
 28 31  1  0
 29 26  1  0
 29 30  1  0
 30 28  2  0
 31 32  1  0
 32 33  2  0
 34 37  1  0
 34 33  1  0
 35 34  2  0
 36 35  1  0
 36 31  2  0
 37 38  1  0
 38 43  2  0
 38 39  1  0
 39 40  2  0
 40 41  1  0
 41 45  1  0
 42 41  2  0
 43 42  1  0
 44 43  1  0
 46 47  1  0
 47 50  1  0
 47 49  1  0
 48 46  2  0
 51 52  1  0
 51 26  1  0
 53 51  1  0
 54 12  1  0
 55 54  1  0
 56 54  1  0
 57 59  1  0
 57  4  1  0
 58 69  2  0
 59 64  1  0
 60 68  1  0
 60 70  1  0
 61 67  1  0
 61 63  1  0
 62 68  1  0
 63 62  1  0
 64 63  2  0
 65 66  1  0
 65 59  2  0
 66 61  2  0
 67 60  1  0
 68 58  1  0
 70 72  2  0
 71 70  1  0
 73 71  1  0
 74 83  2  0
 74 79  1  0
 75 71  1  0
 75 79  1  0
 76 75  1  0
 77 78  1  0
 77 76  1  0
 78 74  1  0
 79 80  2  0
 80 81  1  0
 82 81  2  0
 83 82  1  0
 84 58  1  0
 84 85  1  0
 84 94  1  0
 85 88  1  0
 86 90  1  0
 86 85  1  0
 87 86  2  0
 90 89  1  0
 92 90  1  0
 92 93  1  0
 92 91  1  0
 94 97  1  1
 94 95  1  0
 96 94  1  0
M  ISO  4   4 101  16 100  24 100  57 101
M  END
>  <TORSDO>  (64) 
F 18

>  <SCORE>  (64) 
-14.780

>  <name>  (64) 
63

>  <ligand_id>  (64) 
63

>  <original_smiles>  (64) 
[H]C(Oc1c([H])c([H])c2c(c1[H])C([H])([H])N(C(=O)C([H])(N([H])C(=O)C([H])(N([H])C([H])([H])[H])C([H])([H])[H])C(C([H])([H])[H])(C([H])([H])[H])C([H])([H])[H])C([H])(C(=O)N([H])C1([H])c3c([H])c([H])c([H])c([H])c3C([H])([H])C([H])([H])C1([H])[H])C2([H])[H])=C1C(=O)N(c2c([H])c(N([H])[H])c(N([H])C(=O)N3C([H])([H])C([H])([H])C([H])([H])C([H])(n4nc(-c5c([H])c([H])c(Oc6c([H])c([H])c(F)c([H])c6F)c([H])c5[H])c(C(=O)N([H])[H])c4N([H])[H])C3([H])[H])c([H])c2F)C([H])([H])C1=O

>  <smiles>  (64) 
[H]C(Oc1c([H])c([H])c2c(c1[H])C([H])([H])N(C(=O)C([H])(N([H])C(=O)C([H])(N([H])C([H])([H])[H])C([H])([H])[H])C(C([H])([H])[H])(C([H])([H])[H])C([H])([H])[H])C([H])(C(=O)N([H])C1([H])c3c([H])c([H])c([H])c([H])c3C([H])([H])C([H])([H])C1([H])[H])C2([H])[H])=C1C(=O)N(c2c([H])c(N([H])[H])c(N([H])C(=O)N3C([H])([H])C([H])([H])C([H])([H])C([H])(n4nc(-c5c([H])c([H])c(Oc6c([H])c([H])c(F)c([H])c6F)c([H])c5[H])c(C(=O)N([H])[H])c4N([H])[H])C3([H])[H])c([H])c2F)C([H])([H])C1=O

$$$$
64:0:0
     RDKit          3D

 95103  0  0  1  0  0  0  0  0999 V2000
  -29.2960  -22.8300   20.2080 C   0  0  0  0  0  0  0  0  0  0  0  0
  -29.2250  -21.4600   20.5180 N   0  0  0  0  0  0  0  0  0  0  0  0
  -30.1220  -23.2740   19.4100 O   0  0  0  0  0  0  0  0  0  0  0  0
  -28.4440  -21.2800   21.1370 H   0  0  0  0  0  0  0  0  0  0  0  0
  -32.0520  -19.2170   19.2200 C   0  0  0  0  0  3  0  0  0  0  0  0
  -31.2770  -20.3560   19.5320 C   0  0  0  0  0  3  0  0  0  0  0  0
  -31.6130  -17.9020   19.4960 C   0  0  0  0  0  3  0  0  0  0  0  0
  -30.0240  -20.2360   20.1700 C   0  0  0  0  0  0  0  0  0  0  0  0
  -30.3690  -17.6400   20.1200 C   0  0  0  0  0  0  0  0  0  0  0  0
  -29.6140  -18.8650   20.4810 C   0  0  0  0  0  0  0  0  0  0  0  0
  -28.4390  -18.7420   21.1470 F   0  0  0  0  0  0  0  0  0  0  0  0
  -30.5450  -14.9480   20.2230 C   0  0  0  0  0  0  0  0  0  0  0  0
  -30.3680  -12.6140   19.2600 C   0  0  0  0  0  2  0  0  0  0  0  0
  -29.4150  -12.5510   18.0440 C   0  0  0  0  0  2  0  0  0  0  0  0
  -27.9630  -12.3020   18.5000 C   0  0  0  0  0  2  0  0  0  0  0  0
  -27.5550  -13.2300   19.6670 C   0  0  0  0  0  3  0  0  0  0  0  0
  -28.6350  -13.2650   20.7790 C   0  0  0  0  0  2  0  0  0  0  0  0
  -29.8920  -13.7110   20.1490 N   0  0  0  0  0  0  0  0  0  0  0  0
  -31.7670  -14.9160   20.0520 O   0  0  0  0  0  0  0  0  0  0  0  0
  -29.8510  -16.2080   20.2370 N   0  0  0  0  0  0  0  0  0  0  0  0
  -25.1750  -13.8510   20.3950 C   0  0  0  0  0  0  0  0  0  0  0  0
  -24.1100  -13.0870   20.7780 C   0  0  0  0  0  0  0  0  0  0  0  0
  -24.5780  -11.7370   20.7720 C   0  0  0  0  0  0  0  0  0  0  0  0
  -26.2190  -12.9650   20.1760 N   0  0  0  0  0  0  0  0  0  0  0  0
  -25.8690  -11.6920   20.4710 N   0  0  0  0  0  0  0  0  0  0  0  0
  -23.8570  -10.4790   20.9750 C   0  0  0  0  0  0  0  0  0  0  0  0
  -24.2940   -9.5280   21.9210 C   0  0  0  0  0  3  0  0  0  0  0  0
  -23.5750   -8.3290   22.1110 C   0  0  0  0  0  3  0  0  0  0  0  0
  -22.4060   -8.0780   21.3550 C   0  0  0  0  0  0  0  0  0  0  0  0
  -21.9890   -9.0190   20.3970 C   0  0  0  0  0  3  0  0  0  0  0  0
  -22.7100  -10.2090   20.2050 C   0  0  0  0  0  3  0  0  0  0  0  0
  -21.6560   -6.9310   21.4570 O   0  0  0  0  0  0  0  0  0  0  0  0
  -21.6110   -6.2040   22.6190 C   0  0  0  0  0  0  0  0  0  0  0  0
  -21.1870   -6.7720   23.8390 C   0  0  0  0  0  3  0  0  0  0  0  0
  -21.0910   -5.9700   24.9930 C   0  0  0  0  0  3  0  0  0  0  0  0
  -21.4080   -4.6000   24.9270 C   0  0  0  0  0  0  0  0  0  0  0  0
  -21.8260   -4.0310   23.7110 C   0  0  0  0  0  3  0  0  0  0  0  0
  -21.9260   -4.8310   22.5590 C   0  0  0  0  0  0  0  0  0  0  0  0
  -22.3090   -4.2740   21.3850 F   0  0  0  0  0  0  0  0  0  0  0  0
  -21.3070   -3.8260   26.0330 F   0  0  0  0  0  0  0  0  0  0  0  0
  -22.7110  -13.5680   21.0290 C   0  0  0  0  0  0  0  0  0  0  0  0
  -21.9790  -12.8880   21.9030 N   0  0  0  0  0  0  0  0  0  0  0  0
  -22.2750  -14.5830   20.4850 O   0  0  0  0  0  0  0  0  0  0  0  0
  -22.3450  -12.0700   22.3660 H   0  0  0  0  0  0  0  0  0  0  0  0
  -21.0380  -13.1930   22.1140 H   0  0  0  0  0  0  0  0  0  0  0  0
  -25.3150  -15.2170   20.1840 N   0  0  0  0  0  0  0  0  0  0  0  0
  -24.5230  -15.8450   20.2480 H   0  0  0  0  0  0  0  0  0  0  0  0
  -26.1250  -15.6490   19.7530 H   0  0  0  0  0  0  0  0  0  0  0  0
  -27.7580  -16.6660   19.0020 C   0  0  0  0  0  2  0  0  0  0  0  0
  -28.4590  -16.2300   20.0830 C   0  0  0  0  0  3  0  0  0  0  0  0
  -27.9350  -25.0650   20.9030 C   0  0  0  0  0  3  0  0  0  0  0  0
  -28.2780  -23.6980   20.9240 C   0  0  0  0  0  0  0  0  0  0  0  0
  -27.5270  -22.9890   21.7890 O   0  0  0  0  0  0  0  0  0  0  0  0
  -26.9220  -23.5870   22.2080 H   0  0  0  0  0  0  0  0  0  0  0  0
  -28.2950  -26.2960   20.2600 O   0  0  0  0  0  0  0  0  0  0  0  0
  -24.6370  -31.8810   23.2390 C   0  0  0  0  0  0  0  0  0  0  0  0
  -27.2570  -27.2690   20.1900 C   0  0  0  0  0  0  0  0  0  0  0  0
  -23.4390  -30.4800   21.6000 C   0  0  0  0  0  3  0  0  0  0  0  0
  -24.8980  -28.9280   20.1700 C   0  0  0  0  0  0  0  0  0  0  0  0
  -25.9840  -30.7870   21.4230 C   0  0  0  0  0  2  0  0  0  0  0  0
  -26.0700  -29.4020   20.7740 C   0  0  0  0  0  0  0  0  0  0  0  0
  -27.2540  -28.5850   20.7760 C   0  0  0  0  0  3  0  0  0  0  0  0
  -26.0630  -26.8740   19.5490 C   0  0  0  0  0  3  0  0  0  0  0  0
  -24.9000  -27.6710   19.5440 C   0  0  0  0  0  3  0  0  0  0  0  0
  -23.6580  -29.8030   20.2210 C   0  0  0  0  0  2  0  0  0  0  0  0
  -24.7050  -31.0690   22.1430 N   0  0  0  0  0  0  0  0  0  0  0  0
  -23.5520  -32.1590   23.7720 O   0  0  0  0  0  0  0  0  0  0  0  0
  -22.7720  -29.4650   22.5620 C   0  0  0  0  0  0  0  0  0  0  0  0
  -21.4460  -29.2860   22.4380 N   0  0  0  0  0  0  0  0  0  0  0  0
  -23.4510  -28.8410   23.3830 O   0  0  0  0  0  0  0  0  0  0  0  0
  -20.9570  -29.8400   21.7490 H   0  0  0  0  0  0  0  0  0  0  0  0
  -18.0720  -28.0690   22.9360 C   0  0  0  0  0  0  0  0  0  0  0  0
  -20.6290  -28.3480   23.2110 C   0  0  0  0  0  3  0  0  0  0  0  0
  -20.7400  -26.9130   22.6420 C   0  0  0  0  0  2  0  0  0  0  0  0
  -19.6430  -26.5800   21.6270 C   0  0  0  0  0  2  0  0  0  0  0  0
  -18.2590  -26.7180   22.2670 C   0  0  0  0  0  2  0  0  0  0  0  0
  -19.1850  -28.8410   23.3650 C   0  0  0  0  0  0  0  0  0  0  0  0
  -18.9550  -30.1040   23.9520 C   0  0  0  0  0  3  0  0  0  0  0  0
  -17.6460  -30.5960   24.1140 C   0  0  0  0  0  3  0  0  0  0  0  0
  -16.5480  -29.8210   23.7010 C   0  0  0  0  0  3  0  0  0  0  0  0
  -16.7620  -28.5600   23.1170 C   0  0  0  0  0  3  0  0  0  0  0  0
  -25.9160  -32.5190   23.8620 C   0  0  0  0  0  3  0  0  0  0  0  0
  -26.4310  -31.7530   25.1430 C   0  0  1  0  0  0  0  0  0  0  0  0
  -25.3380  -31.5230   26.2130 C   0  0  0  0  0  1  0  0  0  0  0  0
  -27.0120  -30.3720   24.7610 C   0  0  0  0  0  1  0  0  0  0  0  0
  -27.5830  -32.5490   25.8010 C   0  0  0  0  0  1  0  0  0  0  0  0
  -25.6040  -33.9180   24.1900 N   0  0  0  0  0  0  0  0  0  0  0  0
  -25.9310  -34.9710   23.4290 C   0  0  0  0  0  0  0  0  0  0  0  0
  -26.5950  -34.8680   22.3960 O   0  0  0  0  0  0  0  0  0  0  0  0
  -25.0120  -34.0710   24.9940 H   0  0  0  0  0  0  0  0  0  0  0  0
  -24.1990  -36.7630   23.0800 C   0  0  0  0  0  1  0  0  0  0  0  0
  -25.4420  -36.3600   23.8880 C   0  0  0  0  0  3  0  0  0  0  0  0
  -27.5800  -37.2480   24.7090 C   0  0  0  0  0  1  0  0  0  0  0  0
  -26.4720  -37.4150   23.7710 N   0  0  0  0  0  0  0  0  0  0  0  0
  -26.0650  -38.3340   23.9220 H   0  0  0  0  0  0  0  0  0  0  0  0
  1  2  1  0
  1 52  1  0
  2  4  1  0
  3  1  2  0
  5  7  2  0
  5  6  1  0
  6  8  2  0
  7  9  1  0
  8 10  1  0
  8  2  1  0
  9 20  1  0
  9 10  2  0
 10 11  1  0
 12 20  1  0
 13 18  1  0
 14 15  1  0
 14 13  1  0
 16 15  1  0
 16 24  1  0
 16 17  1  0
 18 12  1  0
 18 17  1  0
 19 12  2  0
 21 22  2  0
 22 41  1  0
 23 22  1  0
 23 26  1  0
 24 21  1  0
 24 25  1  0
 25 23  2  0
 26 27  1  0
 27 28  2  0
 29 32  1  0
 29 28  1  0
 30 29  2  0
 31 30  1  0
 31 26  2  0
 32 33  1  0
 33 34  1  0
 34 35  2  0
 36 35  1  0
 36 40  1  0
 37 36  2  0
 38 33  2  0
 38 37  1  0
 39 38  1  0
 41 42  1  0
 42 45  1  0
 42 44  1  0
 43 41  2  0
 46 47  1  0
 46 21  1  0
 48 46  1  0
 49 50  2  0
 50 20  1  0
 51 52  2  0
 52 53  1  0
 53 54  1  0
 55 51  1  0
 56 67  2  0
 57 55  1  0
 57 62  1  0
 58 66  1  0
 58 68  1  0
 59 65  1  0
 59 61  1  0
 60 66  1  0
 61 62  2  0
 61 60  1  0
 63 57  2  0
 64 63  1  0
 64 59  2  0
 65 58  1  0
 66 56  1  0
 68 70  2  0
 69 68  1  0
 71 69  1  0
 72 81  2  0
 72 77  1  0
 73 69  1  0
 73 77  1  0
 74 73  1  0
 75 76  1  0
 75 74  1  0
 76 72  1  0
 77 78  2  0
 78 79  1  0
 80 79  2  0
 81 80  1  0
 82 56  1  0
 82 87  1  0
 82 83  1  0
 83 86  1  1
 83 84  1  0
 85 83  1  0
 87 90  1  0
 88 92  1  0
 88 87  1  0
 89 88  2  0
 92 91  1  0
 94 92  1  0
 94 95  1  0
 94 93  1  0
M  ISO  4  12 100  20 100  51 101  55 101
M  END
>  <TORSDO>  (65) 
F 20

>  <SCORE>  (65) 
-14.359

>  <name>  (65) 
64

>  <ligand_id>  (65) 
64

>  <original_smiles>  (65) 
[H]OC(C(=O)N([H])c1c([H])c([H])c([H])c(N(C(=O)N2C([H])([H])C([H])([H])C([H])([H])C([H])(n3nc(-c4c([H])c([H])c(Oc5c([H])c([H])c(F)c([H])c5F)c([H])c4[H])c(C(=O)N([H])[H])c3N([H])[H])C2([H])[H])C([H])=C([H])[H])c1F)=C([H])Oc1c([H])c([H])c2c(c1[H])C([H])([H])N(C(=O)C([H])(N([H])C(=O)C([H])(N([H])C([H])([H])[H])C([H])([H])[H])C(C([H])([H])[H])(C([H])([H])[H])C([H])([H])[H])C([H])(C(=O)N([H])C1([H])c3c([H])c([H])c([H])c([H])c3C([H])([H])C([H])([H])C1([H])[H])C2([H])[H]

>  <smiles>  (65) 
[H]OC(C(=O)N([H])c1c([H])c([H])c([H])c(N(C(=O)N2C([H])([H])C([H])([H])C([H])([H])C([H])(n3nc(-c4c([H])c([H])c(Oc5c([H])c([H])c(F)c([H])c5F)c([H])c4[H])c(C(=O)N([H])[H])c3N([H])[H])C2([H])[H])C([H])=C([H])[H])c1F)=C([H])Oc1c([H])c([H])c2c(c1[H])C([H])([H])N(C(=O)C([H])(N([H])C(=O)C([H])(N([H])C([H])([H])[H])C([H])([H])[H])C(C([H])([H])[H])(C([H])([H])[H])C([H])([H])[H])C([H])(C(=O)N([H])C1([H])c3c([H])c([H])c([H])c([H])c3C([H])([H])C([H])([H])C1([H])[H])C2([H])[H]

$$$$
65:0:0
     RDKit          3D

 96105  0  0  1  0  0  0  0  0999 V2000
  -30.4540  -24.3850   20.0090 C   0  0  0  0  0  3  0  0  0  0  0  0
  -31.2610  -22.1240   20.0080 C   0  0  0  0  0  3  0  0  0  0  0  0
  -29.1900  -23.9850   20.2540 C   0  0  0  0  0  0  0  0  0  0  0  0
  -31.5320  -23.4340   19.8830 C   0  0  0  0  0  0  0  0  0  0  0  0
  -28.9160  -22.5080   20.4420 C   0  0  0  0  0  0  0  0  0  0  0  0
  -29.9760  -21.6050   20.2970 N   0  0  0  0  0  0  0  0  0  0  0  0
  -27.7820  -22.1130   20.7320 O   0  0  0  0  0  0  0  0  0  0  0  0
  -31.0090  -19.3470   20.9280 C   0  0  0  0  0  3  0  0  0  0  0  0
  -31.0040  -17.9210   21.0020 C   0  0  0  0  0  3  0  0  0  0  0  0
  -28.7710  -19.3380   20.0700 C   0  0  0  0  0  3  0  0  0  0  0  0
  -29.9030  -20.1200   20.4430 C   0  0  0  0  0  0  0  0  0  0  0  0
  -29.8710  -17.1650   20.6190 C   0  0  0  0  0  0  0  0  0  0  0  0
  -28.7520  -17.9140   20.1690 C   0  0  0  0  0  0  0  0  0  0  0  0
  -27.6280  -17.2420   19.8150 F   0  0  0  0  0  0  0  0  0  0  0  0
  -30.5690  -14.6730   20.4490 C   0  0  0  0  0  0  0  0  0  0  0  0
  -30.3690  -12.4350   19.3800 C   0  0  0  0  0  2  0  0  0  0  0  0
  -29.4140  -12.5590   18.1710 C   0  0  0  0  0  2  0  0  0  0  0  0
  -27.9430  -12.3950   18.6090 C   0  0  0  0  0  2  0  0  0  0  0  0
  -27.5890  -13.2580   19.8480 C   0  0  0  0  0  3  0  0  0  0  0  0
  -28.6540  -13.1000   20.9580 C   0  0  0  0  0  2  0  0  0  0  0  0
  -29.9600  -13.4480   20.3730 N   0  0  0  0  0  0  0  0  0  0  0  0
  -31.7360  -14.8380   20.0820 O   0  0  0  0  0  0  0  0  0  0  0  0
  -29.7400  -15.7160   20.7560 N   0  0  0  0  0  0  0  0  0  0  0  0
  -28.7900  -15.4150   20.9140 H   0  0  0  0  0  0  0  0  0  0  0  0
  -25.2020  -13.8580   20.5850 C   0  0  0  0  0  0  0  0  0  0  0  0
  -24.1340  -13.0840   20.9540 C   0  0  0  0  0  0  0  0  0  0  0  0
  -24.5930  -11.7320   20.9090 C   0  0  0  0  0  0  0  0  0  0  0  0
  -26.2420  -12.9760   20.3380 N   0  0  0  0  0  0  0  0  0  0  0  0
  -25.8820  -11.6920   20.5940 N   0  0  0  0  0  0  0  0  0  0  0  0
  -23.8660  -10.4690   21.0930 C   0  0  0  0  0  0  0  0  0  0  0  0
  -24.3040   -9.4900   22.0110 C   0  0  0  0  0  3  0  0  0  0  0  0
  -23.5760   -8.2920   22.1830 C   0  0  0  0  0  3  0  0  0  0  0  0
  -22.3950   -8.0660   21.4360 C   0  0  0  0  0  0  0  0  0  0  0  0
  -21.9760   -9.0340   20.5070 C   0  0  0  0  0  3  0  0  0  0  0  0
  -22.7040  -10.2230   20.3330 C   0  0  0  0  0  3  0  0  0  0  0  0
  -21.6390   -6.9220   21.5180 O   0  0  0  0  0  0  0  0  0  0  0  0
  -21.6010   -6.1650   22.6610 C   0  0  0  0  0  0  0  0  0  0  0  0
  -21.1730   -6.6990   23.8960 C   0  0  0  0  0  3  0  0  0  0  0  0
  -21.0840   -5.8670   25.0290 C   0  0  0  0  0  3  0  0  0  0  0  0
  -21.4110   -4.5030   24.9310 C   0  0  0  0  0  0  0  0  0  0  0  0
  -21.8320   -3.9670   23.7010 C   0  0  0  0  0  3  0  0  0  0  0  0
  -21.9240   -4.7950   22.5680 C   0  0  0  0  0  0  0  0  0  0  0  0
  -22.3090   -4.2700   21.3800 F   0  0  0  0  0  0  0  0  0  0  0  0
  -21.3180   -3.7010   26.0170 F   0  0  0  0  0  0  0  0  0  0  0  0
  -22.7390  -13.5620   21.2380 C   0  0  0  0  0  0  0  0  0  0  0  0
  -22.0170  -12.8620   22.1060 N   0  0  0  0  0  0  0  0  0  0  0  0
  -22.2990  -14.5900   20.7260 O   0  0  0  0  0  0  0  0  0  0  0  0
  -22.3860  -12.0290   22.5420 H   0  0  0  0  0  0  0  0  0  0  0  0
  -21.0810  -13.1640   22.3380 H   0  0  0  0  0  0  0  0  0  0  0  0
  -25.3650  -15.2300   20.4210 N   0  0  0  0  0  0  0  0  0  0  0  0
  -24.5930  -15.8750   20.5470 H   0  0  0  0  0  0  0  0  0  0  0  0
  -26.2060  -15.6920   20.0930 H   0  0  0  0  0  0  0  0  0  0  0  0
  -32.7740  -23.8410   19.6010 O   0  0  0  0  0  0  0  0  0  0  0  0
  -32.7620  -24.7880   19.5230 H   0  0  0  0  0  0  0  0  0  0  0  0
  -28.0160  -25.0210   20.2560 C   0  0  0  0  0  2  0  0  0  0  0  0
  -28.3050  -26.4810   20.2180 O   0  0  0  0  0  0  0  0  0  0  0  0
  -24.6300  -31.9230   23.2540 C   0  0  0  0  0  0  0  0  0  0  0  0
  -27.1970  -27.3490   20.1790 C   0  0  0  0  0  0  0  0  0  0  0  0
  -23.4120  -30.5420   21.6130 C   0  0  0  0  0  3  0  0  0  0  0  0
  -24.8470  -28.9870   20.1820 C   0  0  0  0  0  0  0  0  0  0  0  0
  -25.9560  -30.8370   21.4280 C   0  0  0  0  0  2  0  0  0  0  0  0
  -26.0230  -29.4600   20.7770 C   0  0  0  0  0  0  0  0  0  0  0  0
  -27.2020  -28.6550   20.7640 C   0  0  0  0  0  3  0  0  0  0  0  0
  -25.9930  -26.9360   19.5590 C   0  0  0  0  0  3  0  0  0  0  0  0
  -24.8340  -27.7310   19.5640 C   0  0  0  0  0  3  0  0  0  0  0  0
  -23.6180  -29.8720   20.2310 C   0  0  0  0  0  2  0  0  0  0  0  0
  -24.6850  -31.1170   22.1550 N   0  0  0  0  0  0  0  0  0  0  0  0
  -23.5490  -32.2100   23.7890 O   0  0  0  0  0  0  0  0  0  0  0  0
  -22.7420  -29.5260   22.5700 C   0  0  0  0  0  0  0  0  0  0  0  0
  -21.4140  -29.3600   22.4420 N   0  0  0  0  0  0  0  0  0  0  0  0
  -23.4140  -28.8920   23.3860 O   0  0  0  0  0  0  0  0  0  0  0  0
  -20.9310  -29.9220   21.7560 H   0  0  0  0  0  0  0  0  0  0  0  0
  -18.0250  -28.1980   22.9430 C   0  0  0  0  0  0  0  0  0  0  0  0
  -20.5860  -28.4280   23.2110 C   0  0  0  0  0  3  0  0  0  0  0  0
  -20.6720  -26.9980   22.6320 C   0  0  0  0  0  2  0  0  0  0  0  0
  -19.5650  -26.6890   21.6180 C   0  0  0  0  0  2  0  0  0  0  0  0
  -18.1860  -26.8480   22.2640 C   0  0  0  0  0  2  0  0  0  0  0  0
  -19.1520  -28.9470   23.3730 C   0  0  0  0  0  0  0  0  0  0  0  0
  -18.9470  -30.2110   23.9690 C   0  0  0  0  0  3  0  0  0  0  0  0
  -17.6480  -30.7250   24.1370 C   0  0  0  0  0  3  0  0  0  0  0  0
  -16.5350  -29.9730   23.7220 C   0  0  0  0  0  3  0  0  0  0  0  0
  -16.7240  -28.7110   23.1310 C   0  0  0  0  0  3  0  0  0  0  0  0
  -25.9190  -32.5430   23.8760 C   0  0  0  0  0  3  0  0  0  0  0  0
  -26.4380  -31.7550   25.1400 C   0  0  1  0  0  0  0  0  0  0  0  0
  -25.3480  -31.5090   26.2110 C   0  0  0  0  0  1  0  0  0  0  0  0
  -27.0130  -30.3790   24.7310 C   0  0  0  0  0  1  0  0  0  0  0  0
  -27.5950  -32.5360   25.8070 C   0  0  0  0  0  1  0  0  0  0  0  0
  -25.6160  -33.9380   24.2240 N   0  0  0  0  0  0  0  0  0  0  0  0
  -25.9220  -34.9970   23.4620 C   0  0  0  0  0  0  0  0  0  0  0  0
  -26.5590  -34.9010   22.4090 O   0  0  0  0  0  0  0  0  0  0  0  0
  -25.0470  -34.0870   25.0450 H   0  0  0  0  0  0  0  0  0  0  0  0
  -24.1720  -36.7820   23.1860 C   0  0  0  0  0  1  0  0  0  0  0  0
  -25.4470  -36.3820   23.9440 C   0  0  0  0  0  3  0  0  0  0  0  0
  -27.6090  -37.2760   24.6890 C   0  0  0  0  0  1  0  0  0  0  0  0
  -26.4690  -37.4400   23.7910 N   0  0  0  0  0  0  0  0  0  0  0  0
  -26.0640  -38.3580   23.9550 H   0  0  0  0  0  0  0  0  0  0  0  0
  1  3  2  0
  2  6  1  0
  3 55  1  0
  3  5  1  0
  4  2  2  0
  4  1  1  0
  5  7  2  0
  6  5  1  0
  6 11  1  0
  8  9  1  0
 10 13  2  0
 10 11  1  0
 11  8  2  0
 12 23  1  0
 12  9  2  0
 13 12  1  0
 14 13  1  0
 15 23  1  0
 16 21  1  0
 17 18  1  0
 17 16  1  0
 19 18  1  0
 19 28  1  0
 19 20  1  0
 21 15  1  0
 21 20  1  0
 22 15  2  0
 23 24  1  0
 25 26  2  0
 26 45  1  0
 27 26  1  0
 27 30  1  0
 28 25  1  0
 28 29  1  0
 29 27  2  0
 30 31  1  0
 31 32  2  0
 33 36  1  0
 33 32  1  0
 34 33  2  0
 35 34  1  0
 35 30  2  0
 36 37  1  0
 37 38  1  0
 38 39  2  0
 40 39  1  0
 40 44  1  0
 41 40  2  0
 42 37  2  0
 42 41  1  0
 43 42  1  0
 45 46  1  0
 46 49  1  0
 46 48  1  0
 47 45  2  0
 50 51  1  0
 50 25  1  0
 52 50  1  0
 53  4  1  0
 54 53  1  0
 56 55  1  0
 57 68  2  0
 58 56  1  0
 58 63  1  0
 59 67  1  0
 59 69  1  0
 60 66  1  0
 60 62  1  0
 61 67  1  0
 62 61  1  0
 63 62  2  0
 64 65  1  0
 64 58  2  0
 65 60  2  0
 66 59  1  0
 67 57  1  0
 69 71  2  0
 70 69  1  0
 72 70  1  0
 73 82  2  0
 73 78  1  0
 74 70  1  0
 74 78  1  0
 75 74  1  0
 76 77  1  0
 76 75  1  0
 77 73  1  0
 78 79  2  0
 79 80  1  0
 81 80  2  0
 82 81  1  0
 83 57  1  0
 83 88  1  0
 83 84  1  0
 84 87  1  1
 84 85  1  0
 86 84  1  0
 88 91  1  0
 89 93  1  0
 89 88  1  0
 90 89  2  0
 93 92  1  0
 95 93  1  0
 95 96  1  0
 95 94  1  0
M  ISO  4  15 100  23 100  55 101  56 101
M  END
>  <TORSDO>  (66) 
F 19

>  <SCORE>  (66) 
-15.004

>  <name>  (66) 
65

>  <ligand_id>  (66) 
65

>  <original_smiles>  (66) 
[H]Oc1c([H])c(C([H])([H])Oc2c([H])c([H])c3c(c2[H])C([H])([H])N(C(=O)C([H])(N([H])C(=O)C([H])(N([H])C([H])([H])[H])C([H])([H])[H])C(C([H])([H])[H])(C([H])([H])[H])C([H])([H])[H])C([H])(C(=O)N([H])C2([H])c4c([H])c([H])c([H])c([H])c4C([H])([H])C([H])([H])C2([H])[H])C3([H])[H])c(=O)n(-c2c([H])c([H])c(N([H])C(=O)N3C([H])([H])C([H])([H])C([H])([H])C([H])(n4nc(-c5c([H])c([H])c(Oc6c([H])c([H])c(F)c([H])c6F)c([H])c5[H])c(C(=O)N([H])[H])c4N([H])[H])C3([H])[H])c(F)c2[H])c1[H]

>  <smiles>  (66) 
[H]Oc1c([H])c(C([H])([H])Oc2c([H])c([H])c3c(c2[H])C([H])([H])N(C(=O)C([H])(N([H])C(=O)C([H])(N([H])C([H])([H])[H])C([H])([H])[H])C(C([H])([H])[H])(C([H])([H])[H])C([H])([H])[H])C([H])(C(=O)N([H])C2([H])c4c([H])c([H])c([H])c([H])c4C([H])([H])C([H])([H])C2([H])[H])C3([H])[H])c(=O)n(-c2c([H])c([H])c(N([H])C(=O)N3C([H])([H])C([H])([H])C([H])([H])C([H])(n4nc(-c5c([H])c([H])c(Oc6c([H])c([H])c(F)c([H])c6F)c([H])c5[H])c(C(=O)N([H])[H])c4N([H])[H])C3([H])[H])c(F)c2[H])c1[H]

$$$$
66:0:0
     RDKit          3D

 89 97  0  0  1  0  0  0  0  0999 V2000
  -28.8720  -21.2010   20.0440 C   0  0  0  0  0  3  0  0  0  0  0  0
  -29.0890  -22.4870   20.5170 C   0  0  0  0  0  3  0  0  0  0  0  0
  -30.6380  -19.4680   20.8890 C   0  0  0  0  0  3  0  0  0  0  0  0
  -30.8760  -18.0320   20.9690 C   0  0  0  0  0  3  0  0  0  0  0  0
  -29.4320  -19.8430   20.3340 C   0  0  0  0  0  0  0  0  0  0  0  0
  -29.8450  -17.2200   20.5350 C   0  0  0  0  0  0  0  0  0  0  0  0
  -28.5490  -18.3300   19.9880 S   0  0  0  0  0  0  0  0  0  0  0  0
  -30.5520  -14.7520   20.3860 C   0  0  0  0  0  0  0  0  0  0  0  0
  -30.3950  -12.4800   19.3530 C   0  0  0  0  0  2  0  0  0  0  0  0
  -29.4450  -12.5600   18.1360 C   0  0  0  0  0  2  0  0  0  0  0  0
  -27.9760  -12.3830   18.5690 C   0  0  0  0  0  2  0  0  0  0  0  0
  -27.6040  -13.2590   19.7940 C   0  0  0  0  0  3  0  0  0  0  0  0
  -28.6660  -13.1450   20.9100 C   0  0  0  0  0  2  0  0  0  0  0  0
  -29.9610  -13.5110   20.3200 N   0  0  0  0  0  0  0  0  0  0  0  0
  -31.7400  -14.8970   20.0810 O   0  0  0  0  0  0  0  0  0  0  0  0
  -29.6920  -15.8240   20.5610 N   0  0  0  0  0  0  0  0  0  0  0  0
  -28.7350  -15.5200   20.6440 H   0  0  0  0  0  0  0  0  0  0  0  0
  -25.2130  -13.8500   20.5190 C   0  0  0  0  0  0  0  0  0  0  0  0
  -24.1500  -13.0740   20.8930 C   0  0  0  0  0  0  0  0  0  0  0  0
  -24.6170  -11.7250   20.8650 C   0  0  0  0  0  0  0  0  0  0  0  0
  -26.2590  -12.9720   20.2850 N   0  0  0  0  0  0  0  0  0  0  0  0
  -25.9080  -11.6890   20.5560 N   0  0  0  0  0  0  0  0  0  0  0  0
  -23.8950  -10.4610   21.0570 C   0  0  0  0  0  0  0  0  0  0  0  0
  -24.3380   -9.4900   21.9840 C   0  0  0  0  0  3  0  0  0  0  0  0
  -23.6150   -8.2910   22.1630 C   0  0  0  0  0  3  0  0  0  0  0  0
  -22.4350   -8.0540   21.4190 C   0  0  0  0  0  0  0  0  0  0  0  0
  -22.0120   -9.0120   20.4810 C   0  0  0  0  0  3  0  0  0  0  0  0
  -22.7350  -10.2030   20.2990 C   0  0  0  0  0  3  0  0  0  0  0  0
  -21.6840   -6.9080   21.5090 O   0  0  0  0  0  0  0  0  0  0  0  0
  -21.6560   -6.1540   22.6550 C   0  0  0  0  0  0  0  0  0  0  0  0
  -21.2540   -6.6970   23.8940 C   0  0  0  0  0  3  0  0  0  0  0  0
  -21.1730   -5.8700   25.0330 C   0  0  0  0  0  3  0  0  0  0  0  0
  -21.4840   -4.5010   24.9320 C   0  0  0  0  0  0  0  0  0  0  0  0
  -21.8780   -3.9570   23.6970 C   0  0  0  0  0  3  0  0  0  0  0  0
  -21.9610   -4.7810   22.5610 C   0  0  0  0  0  0  0  0  0  0  0  0
  -22.3210   -4.2470   21.3690 F   0  0  0  0  0  0  0  0  0  0  0  0
  -21.3990   -3.7040   26.0230 F   0  0  0  0  0  0  0  0  0  0  0  0
  -22.7510  -13.5470   21.1610 C   0  0  0  0  0  0  0  0  0  0  0  0
  -22.0230  -12.8510   22.0260 N   0  0  0  0  0  0  0  0  0  0  0  0
  -22.3110  -14.5710   20.6380 O   0  0  0  0  0  0  0  0  0  0  0  0
  -22.3910  -12.0240   22.4720 H   0  0  0  0  0  0  0  0  0  0  0  0
  -21.0840  -13.1500   22.2490 H   0  0  0  0  0  0  0  0  0  0  0  0
  -25.3700  -15.2210   20.3340 N   0  0  0  0  0  0  0  0  0  0  0  0
  -24.5920  -15.8630   20.4320 H   0  0  0  0  0  0  0  0  0  0  0  0
  -26.1960  -15.6620   19.9510 H   0  0  0  0  0  0  0  0  0  0  0  0
  -28.4590  -23.7890   19.9670 C   0  0  0  0  0  0  0  0  0  0  0  0
  -28.0650  -23.8370   18.7970 O   0  0  0  0  0  0  0  0  0  0  0  0
  -28.2650  -25.1080   20.8520 C   0  0  0  0  0  2  0  0  0  0  0  0
  -28.3530  -26.4510   20.1950 O   0  0  0  0  0  0  0  0  0  0  0  0
  -24.6100  -31.8900   23.2370 C   0  0  0  0  0  0  0  0  0  0  0  0
  -27.2320  -27.3010   20.2160 C   0  0  0  0  0  0  0  0  0  0  0  0
  -23.4100  -30.4800   21.6030 C   0  0  0  0  0  3  0  0  0  0  0  0
  -24.8640  -28.9150   20.1920 C   0  0  0  0  0  0  0  0  0  0  0  0
  -25.9490  -30.7990   21.4170 C   0  0  0  0  0  2  0  0  0  0  0  0
  -26.0330  -29.4130   20.7820 C   0  0  0  0  0  0  0  0  0  0  0  0
  -27.2240  -28.6210   20.7770 C   0  0  0  0  0  3  0  0  0  0  0  0
  -26.0400  -26.8540   19.6120 C   0  0  0  0  0  3  0  0  0  0  0  0
  -24.8700  -27.6420   19.5970 C   0  0  0  0  0  3  0  0  0  0  0  0
  -23.6270  -29.7920   20.2300 C   0  0  0  0  0  2  0  0  0  0  0  0
  -24.6760  -31.0750   22.1420 N   0  0  0  0  0  0  0  0  0  0  0  0
  -23.5260  -32.1680   23.7710 O   0  0  0  0  0  0  0  0  0  0  0  0
  -22.7460  -29.4710   22.5700 C   0  0  0  0  0  0  0  0  0  0  0  0
  -21.4200  -29.2950   22.4480 N   0  0  0  0  0  0  0  0  0  0  0  0
  -23.4250  -28.8470   23.3910 O   0  0  0  0  0  0  0  0  0  0  0  0
  -20.9310  -29.8500   21.7580 H   0  0  0  0  0  0  0  0  0  0  0  0
  -18.0420  -28.1050   22.9610 C   0  0  0  0  0  0  0  0  0  0  0  0
  -20.6010  -28.3610   23.2230 C   0  0  0  0  0  3  0  0  0  0  0  0
  -20.7000  -26.9280   22.6500 C   0  0  0  0  0  2  0  0  0  0  0  0
  -19.5940  -26.6050   21.6400 C   0  0  0  0  0  2  0  0  0  0  0  0
  -18.2140  -26.7530   22.2880 C   0  0  0  0  0  2  0  0  0  0  0  0
  -19.1630  -28.8660   23.3860 C   0  0  0  0  0  0  0  0  0  0  0  0
  -18.9480  -30.1300   23.9760 C   0  0  0  0  0  3  0  0  0  0  0  0
  -17.6430  -30.6330   24.1440 C   0  0  0  0  0  3  0  0  0  0  0  0
  -16.5370  -29.8690   23.7350 C   0  0  0  0  0  3  0  0  0  0  0  0
  -16.7380  -28.6070   23.1490 C   0  0  0  0  0  3  0  0  0  0  0  0
  -25.8910  -32.5280   23.8580 C   0  0  0  0  0  3  0  0  0  0  0  0
  -26.4080  -31.7630   25.1380 C   0  0  1  0  0  0  0  0  0  0  0  0
  -25.3160  -31.5300   26.2070 C   0  0  0  0  0  1  0  0  0  0  0  0
  -26.9920  -30.3840   24.7520 C   0  0  0  0  0  1  0  0  0  0  0  0
  -27.5600  -32.5600   25.7950 C   0  0  0  0  0  1  0  0  0  0  0  0
  -25.5780  -33.9270   24.1850 N   0  0  0  0  0  0  0  0  0  0  0  0
  -25.9090  -34.9800   23.4250 C   0  0  0  0  0  0  0  0  0  0  0  0
  -26.5790  -34.8760   22.3940 O   0  0  0  0  0  0  0  0  0  0  0  0
  -24.9840  -34.0810   24.9860 H   0  0  0  0  0  0  0  0  0  0  0  0
  -24.1800  -36.7710   23.0690 C   0  0  0  0  0  1  0  0  0  0  0  0
  -25.4210  -36.3680   23.8820 C   0  0  0  0  0  3  0  0  0  0  0  0
  -27.5550  -37.2560   24.7120 C   0  0  0  0  0  1  0  0  0  0  0  0
  -26.4530  -37.4220   23.7680 N   0  0  0  0  0  0  0  0  0  0  0  0
  -26.0460  -38.3420   23.9150 H   0  0  0  0  0  0  0  0  0  0  0  0
  1  5  1  0
  1  2  2  0
  3  4  1  0
  5  3  2  0
  6 16  1  0
  6  4  2  0
  7  5  1  0
  7  6  1  0
  8 16  1  0
  9 14  1  0
 10 11  1  0
 10  9  1  0
 12 11  1  0
 12 21  1  0
 12 13  1  0
 14  8  1  0
 14 13  1  0
 15  8  2  0
 16 17  1  0
 18 19  2  0
 19 38  1  0
 20 19  1  0
 20 23  1  0
 21 18  1  0
 21 22  1  0
 22 20  2  0
 23 24  1  0
 24 25  2  0
 26 29  1  0
 26 25  1  0
 27 26  2  0
 28 27  1  0
 28 23  2  0
 29 30  1  0
 30 31  1  0
 31 32  2  0
 33 32  1  0
 33 37  1  0
 34 33  2  0
 35 30  2  0
 35 34  1  0
 36 35  1  0
 38 39  1  0
 39 42  1  0
 39 41  1  0
 40 38  2  0
 43 44  1  0
 43 18  1  0
 45 43  1  0
 46  2  1  0
 46 48  1  0
 47 46  2  0
 49 51  1  0
 49 48  1  0
 50 61  2  0
 51 56  1  0
 52 60  1  0
 52 62  1  0
 53 59  1  0
 53 55  1  0
 54 60  1  0
 55 54  1  0
 56 55  2  0
 57 51  2  0
 58 57  1  0
 58 53  2  0
 59 52  1  0
 60 50  1  0
 62 64  2  0
 63 62  1  0
 65 63  1  0
 66 75  2  0
 66 71  1  0
 67 63  1  0
 67 71  1  0
 68 67  1  0
 69 70  1  0
 69 68  1  0
 70 66  1  0
 71 72  2  0
 72 73  1  0
 74 73  2  0
 75 74  1  0
 76 50  1  0
 76 81  1  0
 76 77  1  0
 77 80  1  1
 77 78  1  0
 79 77  1  0
 81 84  1  0
 82 86  1  0
 82 81  1  0
 83 82  2  0
 86 85  1  0
 88 86  1  0
 88 89  1  0
 88 87  1  0
M  ISO  4   8 100  16 100  48 101  49 101
M  END
>  <TORSDO>  (67) 
F 19

>  <SCORE>  (67) 
-14.308

>  <name>  (67) 
66

>  <ligand_id>  (67) 
66

>  <original_smiles>  (67) 
[H]C(C(=O)C([H])([H])Oc1c([H])c([H])c2c(c1[H])C([H])([H])N(C(=O)C([H])(N([H])C(=O)C([H])(N([H])C([H])([H])[H])C([H])([H])[H])C(C([H])([H])[H])(C([H])([H])[H])C([H])([H])[H])C([H])(C(=O)N([H])C1([H])c3c([H])c([H])c([H])c([H])c3C([H])([H])C([H])([H])C1([H])[H])C2([H])[H])=C([H])c1sc(N([H])C(=O)N2C([H])([H])C([H])([H])C([H])([H])C([H])(n3nc(-c4c([H])c([H])c(Oc5c([H])c([H])c(F)c([H])c5F)c([H])c4[H])c(C(=O)N([H])[H])c3N([H])[H])C2([H])[H])c([H])c1[H]

>  <smiles>  (67) 
[H]C(C(=O)C([H])([H])Oc1c([H])c([H])c2c(c1[H])C([H])([H])N(C(=O)C([H])(N([H])C(=O)C([H])(N([H])C([H])([H])[H])C([H])([H])[H])C(C([H])([H])[H])(C([H])([H])[H])C([H])([H])[H])C([H])(C(=O)N([H])C1([H])c3c([H])c([H])c([H])c([H])c3C([H])([H])C([H])([H])C1([H])[H])C2([H])[H])=C([H])c1sc(N([H])C(=O)N2C([H])([H])C([H])([H])C([H])([H])C([H])(n3nc(-c4c([H])c([H])c(Oc5c([H])c([H])c(F)c([H])c5F)c([H])c4[H])c(C(=O)N([H])[H])c3N([H])[H])C2([H])[H])c([H])c1[H]

$$$$
67:0:0
     RDKit          3D

 95103  0  0  1  0  0  0  0  0999 V2000
  -30.6490  -19.6360   20.5570 C   0  0  0  0  0  3  0  0  0  0  0  0
  -30.8760  -18.2070   20.5230 C   0  0  0  0  0  3  0  0  0  0  0  0
  -29.3490  -20.2170   20.4040 C   0  0  0  0  0  0  0  0  0  0  0  0
  -29.8090  -17.2730   20.3380 C   0  0  0  0  0  0  0  0  0  0  0  0
  -28.3090  -19.2800   20.1680 C   0  0  0  0  0  0  0  0  0  0  0  0
  -28.5400  -17.8690   20.1290 C   0  0  0  0  0  0  0  0  0  0  0  0
  -27.4870  -17.0480   19.9130 F   0  0  0  0  0  0  0  0  0  0  0  0
  -30.6460  -14.7460   20.1120 C   0  0  0  0  0  0  0  0  0  0  0  0
  -30.4120  -12.5110   19.0220 C   0  0  0  0  0  2  0  0  0  0  0  0
  -29.4130  -12.6470   17.8500 C   0  0  0  0  0  2  0  0  0  0  0  0
  -27.9570  -12.4770   18.3330 C   0  0  0  0  0  2  0  0  0  0  0  0
  -27.6480  -13.3150   19.6010 C   0  0  0  0  0  3  0  0  0  0  0  0
  -28.7550  -13.1430   20.6680 C   0  0  0  0  0  2  0  0  0  0  0  0
  -30.0380  -13.5120   20.0430 N   0  0  0  0  0  0  0  0  0  0  0  0
  -31.8110  -14.9030   19.7330 O   0  0  0  0  0  0  0  0  0  0  0  0
  -29.8130  -15.7930   20.4350 N   0  0  0  0  0  0  0  0  0  0  0  0
  -28.8920  -15.4440   20.6540 H   0  0  0  0  0  0  0  0  0  0  0  0
  -25.2730  -13.9000   20.3930 C   0  0  0  0  0  0  0  0  0  0  0  0
  -24.2190  -13.1250   20.7880 C   0  0  0  0  0  0  0  0  0  0  0  0
  -24.6860  -11.7770   20.7420 C   0  0  0  0  0  0  0  0  0  0  0  0
  -26.3160  -13.0260   20.1310 N   0  0  0  0  0  0  0  0  0  0  0  0
  -25.9680  -11.7410   20.4010 N   0  0  0  0  0  0  0  0  0  0  0  0
  -23.9650  -10.5150   20.9490 C   0  0  0  0  0  0  0  0  0  0  0  0
  -24.4120   -9.5520   21.8810 C   0  0  0  0  0  3  0  0  0  0  0  0
  -23.6890   -8.3560   22.0750 C   0  0  0  0  0  3  0  0  0  0  0  0
  -22.5060   -8.1130   21.3380 C   0  0  0  0  0  0  0  0  0  0  0  0
  -22.0780   -9.0640   20.3940 C   0  0  0  0  0  3  0  0  0  0  0  0
  -22.8020  -10.2530   20.1970 C   0  0  0  0  0  3  0  0  0  0  0  0
  -21.7550   -6.9690   21.4430 O   0  0  0  0  0  0  0  0  0  0  0  0
  -21.7150   -6.2370   22.6030 C   0  0  0  0  0  0  0  0  0  0  0  0
  -21.2780   -6.7980   23.8230 C   0  0  0  0  0  3  0  0  0  0  0  0
  -21.1870   -5.9920   24.9750 C   0  0  0  0  0  3  0  0  0  0  0  0
  -21.5240   -4.6260   24.9090 C   0  0  0  0  0  0  0  0  0  0  0  0
  -21.9550   -4.0660   23.6930 C   0  0  0  0  0  3  0  0  0  0  0  0
  -22.0470   -4.8690   22.5440 C   0  0  0  0  0  0  0  0  0  0  0  0
  -22.4420   -4.3190   21.3690 F   0  0  0  0  0  0  0  0  0  0  0  0
  -21.4290   -3.8490   26.0130 F   0  0  0  0  0  0  0  0  0  0  0  0
  -22.8310  -13.6020   21.1010 C   0  0  0  0  0  0  0  0  0  0  0  0
  -22.1300  -12.9040   21.9870 N   0  0  0  0  0  0  0  0  0  0  0  0
  -22.3790  -14.6300   20.5980 O   0  0  0  0  0  0  0  0  0  0  0  0
  -22.5090  -12.0710   22.4130 H   0  0  0  0  0  0  0  0  0  0  0  0
  -21.2000  -13.2040   22.2410 H   0  0  0  0  0  0  0  0  0  0  0  0
  -25.4130  -15.2700   20.2180 N   0  0  0  0  0  0  0  0  0  0  0  0
  -24.6430  -15.9090   20.3780 H   0  0  0  0  0  0  0  0  0  0  0  0
  -26.2680  -15.7590   19.9680 H   0  0  0  0  0  0  0  0  0  0  0  0
  -29.1770  -22.8840   20.2870 C   0  0  0  0  0  0  0  0  0  0  0  0
  -28.9510  -21.6010   20.7500 N   0  0  0  0  0  0  0  0  0  0  0  0
  -29.9360  -23.1330   19.3480 O   0  0  0  0  0  0  0  0  0  0  0  0
  -28.1910  -21.5910   21.4170 H   0  0  0  0  0  0  0  0  0  0  0  0
  -28.4080  -23.8960   21.0850 C   0  0  0  0  0  3  0  0  0  0  0  0
  -28.1000  -25.2530   21.0410 C   0  0  0  0  0  3  0  0  0  0  0  0
  -28.3490  -26.3720   20.2130 O   0  0  0  0  0  0  0  0  0  0  0  0
  -24.5790  -31.8190   23.1960 C   0  0  0  0  0  0  0  0  0  0  0  0
  -27.2910  -27.3000   20.1460 C   0  0  0  0  0  0  0  0  0  0  0  0
  -23.4220  -30.4350   21.5100 C   0  0  0  0  0  3  0  0  0  0  0  0
  -24.9190  -28.9080   20.0990 C   0  0  0  0  0  0  0  0  0  0  0  0
  -25.9660  -30.7650   21.3930 C   0  0  0  0  0  2  0  0  0  0  0  0
  -26.0720  -29.3940   20.7290 C   0  0  0  0  0  0  0  0  0  0  0  0
  -27.2640  -28.6020   20.7460 C   0  0  0  0  0  3  0  0  0  0  0  0
  -26.1170  -26.8730   19.4910 C   0  0  0  0  0  3  0  0  0  0  0  0
  -24.9430  -27.6520   19.4710 C   0  0  0  0  0  3  0  0  0  0  0  0
  -23.6740  -29.7750   20.1280 C   0  0  0  0  0  2  0  0  0  0  0  0
  -24.6730  -31.0250   22.0900 N   0  0  0  0  0  0  0  0  0  0  0  0
  -23.4820  -32.0860   23.7080 O   0  0  0  0  0  0  0  0  0  0  0  0
  -22.7400  -29.4060   22.4440 C   0  0  0  0  0  0  0  0  0  0  0  0
  -21.4180  -29.2240   22.2850 N   0  0  0  0  0  0  0  0  0  0  0  0
  -23.4020  -28.7740   23.2720 O   0  0  0  0  0  0  0  0  0  0  0  0
  -20.9420  -29.7840   21.5910 H   0  0  0  0  0  0  0  0  0  0  0  0
  -18.0340  -28.0100   22.7060 C   0  0  0  0  0  0  0  0  0  0  0  0
  -20.5870  -28.2750   23.0280 C   0  0  0  0  0  3  0  0  0  0  0  0
  -20.7040  -26.8500   22.4370 C   0  0  0  0  0  2  0  0  0  0  0  0
  -19.6240  -26.5370   21.3970 C   0  0  0  0  0  2  0  0  0  0  0  0
  -18.2290  -26.6700   22.0150 C   0  0  0  0  0  2  0  0  0  0  0  0
  -19.1420  -28.7700   23.1670 C   0  0  0  0  0  0  0  0  0  0  0  0
  -18.9080  -30.0230   23.7730 C   0  0  0  0  0  3  0  0  0  0  0  0
  -17.5990  -30.5170   23.9230 C   0  0  0  0  0  3  0  0  0  0  0  0
  -16.5050  -29.7550   23.4770 C   0  0  0  0  0  3  0  0  0  0  0  0
  -16.7240  -28.5030   22.8740 C   0  0  0  0  0  3  0  0  0  0  0  0
  -25.8440  -32.4530   23.8540 C   0  0  0  0  0  3  0  0  0  0  0  0
  -26.3170  -31.6890   25.1520 C   0  0  1  0  0  0  0  0  0  0  0  0
  -25.1900  -31.4610   26.1860 C   0  0  0  0  0  1  0  0  0  0  0  0
  -26.9100  -30.3070   24.7930 C   0  0  0  0  0  1  0  0  0  0  0  0
  -27.4470  -32.4860   25.8430 C   0  0  0  0  0  1  0  0  0  0  0  0
  -25.5270  -33.8540   24.1670 N   0  0  0  0  0  0  0  0  0  0  0  0
  -25.8890  -34.9040   23.4160 C   0  0  0  0  0  0  0  0  0  0  0  0
  -26.5910  -34.7930   22.4080 O   0  0  0  0  0  0  0  0  0  0  0  0
  -24.9120  -34.0150   24.9500 H   0  0  0  0  0  0  0  0  0  0  0  0
  -24.1880  -36.7080   22.9900 C   0  0  0  0  0  1  0  0  0  0  0  0
  -25.3930  -36.2960   23.8510 C   0  0  0  0  0  3  0  0  0  0  0  0
  -27.4930  -37.1730   24.7710 C   0  0  0  0  0  1  0  0  0  0  0  0
  -26.4350  -37.3430   23.7780 N   0  0  0  0  0  0  0  0  0  0  0  0
  -26.0270  -38.2650   23.9040 H   0  0  0  0  0  0  0  0  0  0  0  0
  -26.9990  -19.7450   20.0070 N   0  0  0  0  0  0  0  0  0  0  0  0
  -26.9070  -20.6300   19.5220 H   0  0  0  0  0  0  0  0  0  0  0  0
  -26.3560  -19.0510   19.6400 H   0  0  0  0  0  0  0  0  0  0  0  0
  2  1  1  0
  3  1  2  0
  3 47  1  0
  4 16  1  0
  4  2  2  0
  5  3  1  0
  6  5  2  0
  6  4  1  0
  7  6  1  0
  8 16  1  0
  9 14  1  0
 10 11  1  0
 10  9  1  0
 12 11  1  0
 12 21  1  0
 12 13  1  0
 14  8  1  0
 14 13  1  0
 15  8  2  0
 16 17  1  0
 18 19  2  0
 19 38  1  0
 20 19  1  0
 20 23  1  0
 21 18  1  0
 21 22  1  0
 22 20  2  0
 23 24  1  0
 24 25  2  0
 26 29  1  0
 26 25  1  0
 27 26  2  0
 28 27  1  0
 28 23  2  0
 29 30  1  0
 30 31  1  0
 31 32  2  0
 33 32  1  0
 33 37  1  0
 34 33  2  0
 35 30  2  0
 35 34  1  0
 36 35  1  0
 38 39  1  0
 39 42  1  0
 39 41  1  0
 40 38  2  0
 43 44  1  0
 43 18  1  0
 45 43  1  0
 46 47  1  0
 46 50  1  0
 47 49  1  0
 48 46  2  0
 51 50  2  0
 52 51  1  0
 53 64  2  0
 54 52  1  0
 54 59  1  0
 55 63  1  0
 55 65  1  0
 56 62  1  0
 56 58  1  0
 57 63  1  0
 58 59  2  0
 58 57  1  0
 60 54  2  0
 61 60  1  0
 61 56  2  0
 62 55  1  0
 63 53  1  0
 65 67  2  0
 66 65  1  0
 68 66  1  0
 69 78  2  0
 69 74  1  0
 70 66  1  0
 70 74  1  0
 71 70  1  0
 72 73  1  0
 72 71  1  0
 73 69  1  0
 74 75  2  0
 75 76  1  0
 77 76  2  0
 78 77  1  0
 79 53  1  0
 79 84  1  0
 79 80  1  0
 80 83  1  1
 80 81  1  0
 82 80  1  0
 84 87  1  0
 85 89  1  0
 85 84  1  0
 86 85  2  0
 89 88  1  0
 91 89  1  0
 91 92  1  0
 91 90  1  0
 93  5  1  0
 94 93  1  0
 95 93  1  0
M  ISO  4   8 100  16 100  51 101  52 101
M  END
>  <TORSDO>  (68) 
F 19

>  <SCORE>  (68) 
-14.590

>  <name>  (68) 
67

>  <ligand_id>  (68) 
67

>  <original_smiles>  (68) 
[H]C(Oc1c([H])c([H])c2c(c1[H])C([H])([H])N(C(=O)C([H])(N([H])C(=O)C([H])(N([H])C([H])([H])[H])C([H])([H])[H])C(C([H])([H])[H])(C([H])([H])[H])C([H])([H])[H])C([H])(C(=O)N([H])C1([H])c3c([H])c([H])c([H])c([H])c3C([H])([H])C([H])([H])C1([H])[H])C2([H])[H])=C([H])C(=O)N([H])c1c([H])c([H])c(N([H])C(=O)N2C([H])([H])C([H])([H])C([H])([H])C([H])(n3nc(-c4c([H])c([H])c(Oc5c([H])c([H])c(F)c([H])c5F)c([H])c4[H])c(C(=O)N([H])[H])c3N([H])[H])C2([H])[H])c(F)c1N([H])[H]

>  <smiles>  (68) 
[H]C(Oc1c([H])c([H])c2c(c1[H])C([H])([H])N(C(=O)C([H])(N([H])C(=O)C([H])(N([H])C([H])([H])[H])C([H])([H])[H])C(C([H])([H])[H])(C([H])([H])[H])C([H])([H])[H])C([H])(C(=O)N([H])C1([H])c3c([H])c([H])c([H])c([H])c3C([H])([H])C([H])([H])C1([H])[H])C2([H])[H])=C([H])C(=O)N([H])c1c([H])c([H])c(N([H])C(=O)N2C([H])([H])C([H])([H])C([H])([H])C([H])(n3nc(-c4c([H])c([H])c(Oc5c([H])c([H])c(F)c([H])c5F)c([H])c4[H])c(C(=O)N([H])[H])c3N([H])[H])C2([H])[H])c(F)c1N([H])[H]

$$$$
68:0:0
     RDKit          3D

 97106  0  0  1  0  0  0  0  0999 V2000
  -28.2010  -23.7050   20.6550 C   0  0  0  0  0  0  0  0  0  0  0  0
  -27.4240  -22.7680   21.4620 C   0  0  0  0  0  0  0  0  0  0  0  0
  -29.1990  -22.8180   19.9650 C   0  0  0  0  0  0  0  0  0  0  0  0
  -27.8590  -25.0790   20.7030 C   0  0  0  0  0  3  0  0  0  0  0  0
  -27.8930  -21.3390   21.2300 C   0  0  0  0  0  2  0  0  0  0  0  0
  -29.0480  -21.4580   20.3400 N   0  0  0  0  0  0  0  0  0  0  0  0
  -26.4980  -23.0360   22.2370 O   0  0  0  0  0  0  0  0  0  0  0  0
  -30.0380  -23.2220   19.1530 O   0  0  0  0  0  0  0  0  0  0  0  0
  -31.1930  -20.4130   19.5560 C   0  0  0  0  0  3  0  0  0  0  0  0
  -31.6870  -18.0020   19.5340 C   0  0  0  0  0  3  0  0  0  0  0  0
  -29.8810  -20.2190   20.0470 C   0  0  0  0  0  0  0  0  0  0  0  0
  -32.0700  -19.3390   19.3080 C   0  0  0  0  0  0  0  0  0  0  0  0
  -30.4060  -17.6480   20.0260 C   0  0  0  0  0  0  0  0  0  0  0  0
  -29.5180  -18.8010   20.2760 C   0  0  0  0  0  0  0  0  0  0  0  0
  -28.2800  -18.5200   20.7470 F   0  0  0  0  0  0  0  0  0  0  0  0
  -30.7650  -14.9910   19.9810 C   0  0  0  0  0  0  0  0  0  0  0  0
  -30.5090  -12.7060   18.9700 C   0  0  0  0  0  2  0  0  0  0  0  0
  -29.5060  -12.7540   17.7960 C   0  0  0  0  0  2  0  0  0  0  0  0
  -28.0700  -12.5440   18.3100 C   0  0  0  0  0  2  0  0  0  0  0  0
  -27.7460  -13.4170   19.5520 C   0  0  0  0  0  3  0  0  0  0  0  0
  -28.8710  -13.3750   20.6090 C   0  0  0  0  0  2  0  0  0  0  0  0
  -30.1170  -13.7660   19.9370 N   0  0  0  0  0  0  0  0  0  0  0  0
  -31.9440  -15.0140   19.6220 O   0  0  0  0  0  0  0  0  0  0  0  0
  -30.0550  -16.1820   20.2300 N   0  0  0  0  0  0  0  0  0  0  0  0
  -29.1070  -16.0310   20.5420 H   0  0  0  0  0  0  0  0  0  0  0  0
  -25.4070  -13.9490   20.4490 C   0  0  0  0  0  0  0  0  0  0  0  0
  -24.3740  -13.1520   20.8590 C   0  0  0  0  0  0  0  0  0  0  0  0
  -24.8470  -11.8070   20.7580 C   0  0  0  0  0  0  0  0  0  0  0  0
  -26.4420  -13.0910   20.1210 N   0  0  0  0  0  0  0  0  0  0  0  0
  -26.1180  -11.7960   20.3710 N   0  0  0  0  0  0  0  0  0  0  0  0
  -24.1440  -10.5320   20.9520 C   0  0  0  0  0  0  0  0  0  0  0  0
  -24.5900   -9.5770   21.8930 C   0  0  0  0  0  3  0  0  0  0  0  0
  -23.8840   -8.3680   22.0750 C   0  0  0  0  0  3  0  0  0  0  0  0
  -22.7170   -8.1050   21.3160 C   0  0  0  0  0  0  0  0  0  0  0  0
  -22.2920   -9.0500   20.3650 C   0  0  0  0  0  3  0  0  0  0  0  0
  -22.9990  -10.2490   20.1820 C   0  0  0  0  0  3  0  0  0  0  0  0
  -21.9850   -6.9470   21.4070 O   0  0  0  0  0  0  0  0  0  0  0  0
  -21.8730   -6.2560   22.5860 C   0  0  0  0  0  0  0  0  0  0  0  0
  -21.3380   -6.8490   23.7500 C   0  0  0  0  0  3  0  0  0  0  0  0
  -21.1770   -6.0820   24.9210 C   0  0  0  0  0  3  0  0  0  0  0  0
  -21.5400   -4.7230   24.9290 C   0  0  0  0  0  0  0  0  0  0  0  0
  -22.0690   -4.1280   23.7690 C   0  0  0  0  0  3  0  0  0  0  0  0
  -22.2310   -4.8920   22.6000 C   0  0  0  0  0  0  0  0  0  0  0  0
  -22.7200   -4.3090   21.4800 F   0  0  0  0  0  0  0  0  0  0  0  0
  -21.3780   -3.9830   26.0500 F   0  0  0  0  0  0  0  0  0  0  0  0
  -22.9900  -13.6060   21.2250 C   0  0  0  0  0  0  0  0  0  0  0  0
  -22.3220  -12.8780   22.1130 N   0  0  0  0  0  0  0  0  0  0  0  0
  -22.5140  -14.6410   20.7630 O   0  0  0  0  0  0  0  0  0  0  0  0
  -22.7220  -12.0410   22.5110 H   0  0  0  0  0  0  0  0  0  0  0  0
  -21.3960  -13.1640   22.3990 H   0  0  0  0  0  0  0  0  0  0  0  0
  -25.5460  -15.3260   20.3050 N   0  0  0  0  0  0  0  0  0  0  0  0
  -24.7790  -15.9660   20.4820 H   0  0  0  0  0  0  0  0  0  0  0  0
  -26.3620  -15.7900   19.9290 H   0  0  0  0  0  0  0  0  0  0  0  0
  -33.3570  -19.6130   18.8440 N   0  0  0  0  0  0  0  0  0  0  0  0
  -33.5780  -20.5270   18.4600 H   0  0  0  0  0  0  0  0  0  0  0  0
  -33.9370  -18.8660   18.4730 H   0  0  0  0  0  0  0  0  0  0  0  0
  -28.2580  -26.3440   20.1410 O   0  0  0  0  0  0  0  0  0  0  0  0
  -24.6500  -31.9270   23.2130 C   0  0  0  0  0  0  0  0  0  0  0  0
  -27.2400  -27.3430   20.0880 C   0  0  0  0  0  0  0  0  0  0  0  0
  -23.4470  -30.5570   21.5520 C   0  0  0  0  0  3  0  0  0  0  0  0
  -24.8990  -29.0280   20.0910 C   0  0  0  0  0  0  0  0  0  0  0  0
  -25.9940  -30.8550   21.3790 C   0  0  0  0  0  2  0  0  0  0  0  0
  -26.0760  -29.4820   20.7050 C   0  0  0  0  0  0  0  0  0  0  0  0
  -27.2520  -28.6520   20.6950 C   0  0  0  0  0  3  0  0  0  0  0  0
  -26.0470  -26.9780   19.4310 C   0  0  0  0  0  3  0  0  0  0  0  0
  -24.8930  -27.7860   19.4400 C   0  0  0  0  0  3  0  0  0  0  0  0
  -23.6640  -29.9080   20.1600 C   0  0  0  0  0  2  0  0  0  0  0  0
  -24.7160  -31.1320   22.1040 N   0  0  0  0  0  0  0  0  0  0  0  0
  -23.5650  -32.1970   23.7510 O   0  0  0  0  0  0  0  0  0  0  0  0
  -22.7800  -29.5270   22.4970 C   0  0  0  0  0  0  0  0  0  0  0  0
  -21.4530  -29.3540   22.3720 N   0  0  0  0  0  0  0  0  0  0  0  0
  -23.4580  -28.8870   23.3040 O   0  0  0  0  0  0  0  0  0  0  0  0
  -20.9620  -29.9230   21.6960 H   0  0  0  0  0  0  0  0  0  0  0  0
  -18.0690  -28.1770   22.8980 C   0  0  0  0  0  0  0  0  0  0  0  0
  -20.6350  -28.4030   23.1290 C   0  0  0  0  0  3  0  0  0  0  0  0
  -20.7110  -26.9870   22.5110 C   0  0  0  0  0  2  0  0  0  0  0  0
  -19.5880  -26.7060   21.5070 C   0  0  0  0  0  2  0  0  0  0  0  0
  -18.2190  -26.8460   22.1790 C   0  0  0  0  0  2  0  0  0  0  0  0
  -19.2020  -28.9150   23.3300 C   0  0  0  0  0  0  0  0  0  0  0  0
  -19.0070  -30.1600   23.9630 C   0  0  0  0  0  3  0  0  0  0  0  0
  -17.7100  -30.6690   24.1670 C   0  0  0  0  0  3  0  0  0  0  0  0
  -16.5910  -29.9290   23.7510 C   0  0  0  0  0  3  0  0  0  0  0  0
  -16.7710  -28.6830   23.1220 C   0  0  0  0  0  3  0  0  0  0  0  0
  -25.9300  -32.5540   23.8440 C   0  0  0  0  0  3  0  0  0  0  0  0
  -25.6210  -33.9510   24.1860 N   0  0  0  0  0  0  0  0  0  0  0  0
  -25.9380  -35.0100   23.4280 C   0  0  0  0  0  0  0  0  0  0  0  0
  -26.5880  -34.9140   22.3840 O   0  0  0  0  0  0  0  0  0  0  0  0
  -25.0420  -34.0990   24.9990 H   0  0  0  0  0  0  0  0  0  0  0  0
  -24.1970  -36.8010   23.1240 C   0  0  0  0  0  1  0  0  0  0  0  0
  -25.4590  -36.3950   23.9030 C   0  0  0  0  0  3  0  0  0  0  0  0
  -27.6080  -37.2870   24.6880 C   0  0  0  0  0  1  0  0  0  0  0  0
  -26.4840  -37.4530   23.7710 N   0  0  0  0  0  0  0  0  0  0  0  0
  -26.0780  -38.3700   23.9320 H   0  0  0  0  0  0  0  0  0  0  0  0
  -26.4380  -31.7730   25.1190 C   0  0  1  0  0  0  0  0  0  0  0  0
  -25.3380  -31.5320   26.1790 C   0  0  0  0  0  1  0  0  0  0  0  0
  -27.0200  -30.3950   24.7240 C   0  0  0  0  0  1  0  0  0  0  0  0
  -27.5860  -32.5600   25.7920 C   0  0  0  0  0  1  0  0  0  0  0  0
  1  4  2  0
  1  2  1  0
  2  7  2  0
  3  6  1  0
  3  1  1  0
  5  2  1  0
  6  5  1  0
  8  3  2  0
  9 11  1  0
 10 13  2  0
 11 14  2  0
 11  6  1  0
 12 10  1  0
 12  9  2  0
 13 24  1  0
 13 14  1  0
 14 15  1  0
 16 24  1  0
 17 22  1  0
 18 19  1  0
 18 17  1  0
 20 19  1  0
 20 29  1  0
 20 21  1  0
 22 16  1  0
 22 21  1  0
 23 16  2  0
 24 25  1  0
 26 27  2  0
 27 46  1  0
 28 27  1  0
 28 31  1  0
 29 30  1  0
 29 26  1  0
 30 28  2  0
 31 32  1  0
 32 33  2  0
 34 37  1  0
 34 33  1  0
 35 34  2  0
 36 35  1  0
 36 31  2  0
 37 38  1  0
 38 43  2  0
 38 39  1  0
 39 40  2  0
 40 41  1  0
 41 45  1  0
 42 41  2  0
 43 42  1  0
 44 43  1  0
 46 47  1  0
 47 50  1  0
 47 49  1  0
 48 46  2  0
 51 26  1  0
 51 52  1  0
 53 51  1  0
 54 12  1  0
 55 54  1  0
 56 54  1  0
 57  4  1  0
 58 69  2  0
 59 57  1  0
 59 64  1  0
 60 68  1  0
 60 70  1  0
 61 67  1  0
 61 63  1  0
 62 68  1  0
 63 62  1  0
 64 63  2  0
 65 66  1  0
 65 59  2  0
 66 61  2  0
 67 60  1  0
 68 58  1  0
 70 72  2  0
 71 70  1  0
 73 71  1  0
 74 83  2  0
 74 79  1  0
 75 71  1  0
 75 79  1  0
 76 75  1  0
 77 78  1  0
 77 76  1  0
 78 74  1  0
 79 80  2  0
 80 81  1  0
 82 81  2  0
 83 82  1  0
 84 58  1  0
 84 85  1  0
 84 94  1  0
 85 88  1  0
 86 90  1  0
 86 85  1  0
 87 86  2  0
 90 89  1  0
 92 90  1  0
 92 93  1  0
 92 91  1  0
 94 97  1  1
 94 95  1  0
 96 94  1  0
M  ISO  4   4 101  16 100  24 100  57 101
M  END
>  <TORSDO>  (69) 
F 18

>  <SCORE>  (69) 
-14.593

>  <name>  (69) 
68

>  <ligand_id>  (69) 
68

>  <original_smiles>  (69) 
[H]C(Oc1c([H])c([H])c2c(c1[H])C([H])([H])N(C(=O)C([H])(N([H])C(=O)C([H])(N([H])C([H])([H])[H])C([H])([H])[H])C(C([H])([H])[H])(C([H])([H])[H])C([H])([H])[H])C([H])(C(=O)N([H])C1([H])c3c([H])c([H])c([H])c([H])c3C([H])([H])C([H])([H])C1([H])[H])C2([H])[H])=C1C(=O)N(c2c([H])c(N([H])[H])c([H])c(N([H])C(=O)N3C([H])([H])C([H])([H])C([H])([H])C([H])(n4nc(-c5c([H])c([H])c(Oc6c([H])c([H])c(F)c([H])c6F)c([H])c5[H])c(C(=O)N([H])[H])c4N([H])[H])C3([H])[H])c2F)C([H])([H])C1=O

>  <smiles>  (69) 
[H]C(Oc1c([H])c([H])c2c(c1[H])C([H])([H])N(C(=O)C([H])(N([H])C(=O)C([H])(N([H])C([H])([H])[H])C([H])([H])[H])C(C([H])([H])[H])(C([H])([H])[H])C([H])([H])[H])C([H])(C(=O)N([H])C1([H])c3c([H])c([H])c([H])c([H])c3C([H])([H])C([H])([H])C1([H])[H])C2([H])[H])=C1C(=O)N(c2c([H])c(N([H])[H])c([H])c(N([H])C(=O)N3C([H])([H])C([H])([H])C([H])([H])C([H])(n4nc(-c5c([H])c([H])c(Oc6c([H])c([H])c(F)c([H])c6F)c([H])c5[H])c(C(=O)N([H])[H])c4N([H])[H])C3([H])[H])c2F)C([H])([H])C1=O

$$$$
69:0:0
     RDKit          3D

 97106  0  0  1  0  0  0  0  0999 V2000
  -27.2110  -24.1440   21.1120 C   0  0  0  0  0  3  0  0  0  0  0  0
  -28.5360  -24.6590   21.0000 C   0  0  0  0  0  0  0  0  0  0  0  0
  -29.3670  -23.5540   20.9050 C   0  0  0  0  0  0  0  0  0  0  0  0
  -27.2860  -22.7810   21.1200 C   0  0  0  0  0  0  0  0  0  0  0  0
  -30.8570  -23.5030   20.7430 C   0  0  0  0  0  1  0  0  0  0  0  0
  -28.6060  -22.3760   21.0120 N   0  0  0  0  0  0  0  0  0  0  0  0
  -30.6450  -19.3460   21.9390 C   0  0  0  0  0  3  0  0  0  0  0  0
  -30.1100  -20.6550   21.9440 C   0  0  0  0  0  3  0  0  0  0  0  0
  -28.5730  -20.0180   20.1850 C   0  0  0  0  0  3  0  0  0  0  0  0
  -30.1770  -18.3500   21.0420 C   0  0  0  0  0  0  0  0  0  0  0  0
  -29.0880  -21.0220   21.0420 C   0  0  0  0  0  0  0  0  0  0  0  0
  -29.1080  -18.7020   20.1780 C   0  0  0  0  0  0  0  0  0  0  0  0
  -28.6100  -17.7950   19.3000 F   0  0  0  0  0  0  0  0  0  0  0  0
  -30.9610  -14.7980   20.0500 C   0  0  0  0  0  0  0  0  0  0  0  0
  -30.5530  -12.6350   18.9170 C   0  0  0  0  0  2  0  0  0  0  0  0
  -29.5360  -12.8070   17.7730 C   0  0  0  0  0  2  0  0  0  0  0  0
  -28.1000  -12.6480   18.3070 C   0  0  0  0  0  2  0  0  0  0  0  0
  -27.8350  -13.4940   19.5830 C   0  0  0  0  0  3  0  0  0  0  0  0
  -28.9700  -13.3370   20.6190 C   0  0  0  0  0  2  0  0  0  0  0  0
  -30.2370  -13.6460   19.9430 N   0  0  0  0  0  0  0  0  0  0  0  0
  -32.0710  -14.8850   19.5160 O   0  0  0  0  0  0  0  0  0  0  0  0
  -30.9620  -17.0510   20.9180 C   0  0  0  0  0  0  0  0  0  0  0  0
  -30.3450  -15.8810   20.5960 N   0  0  0  0  0  0  0  0  0  0  0  0
  -32.1740  -17.1140   21.1660 O   0  0  0  0  0  0  0  0  0  0  0  0
  -29.3440  -15.8460   20.6920 H   0  0  0  0  0  0  0  0  0  0  0  0
  -25.5180  -14.0660   20.5290 C   0  0  0  0  0  0  0  0  0  0  0  0
  -24.4740  -13.2810   20.9380 C   0  0  0  0  0  0  0  0  0  0  0  0
  -24.9150  -11.9310   20.7890 C   0  0  0  0  0  0  0  0  0  0  0  0
  -26.5280  -13.1940   20.1590 N   0  0  0  0  0  0  0  0  0  0  0  0
  -26.1760  -11.9000   20.3750 N   0  0  0  0  0  0  0  0  0  0  0  0
  -24.1910  -10.6640   20.9630 C   0  0  0  0  0  0  0  0  0  0  0  0
  -24.6150   -9.6930   21.8960 C   0  0  0  0  0  3  0  0  0  0  0  0
  -23.8890   -8.4920   22.0590 C   0  0  0  0  0  3  0  0  0  0  0  0
  -22.7270   -8.2540   21.2870 C   0  0  0  0  0  0  0  0  0  0  0  0
  -22.3230   -9.2150   20.3440 C   0  0  0  0  0  3  0  0  0  0  0  0
  -23.0480  -10.4080   20.1790 C   0  0  0  0  0  3  0  0  0  0  0  0
  -21.9760   -7.1060   21.3580 O   0  0  0  0  0  0  0  0  0  0  0  0
  -21.8260   -6.4150   22.5340 C   0  0  0  0  0  0  0  0  0  0  0  0
  -21.2720   -7.0160   23.6860 C   0  0  0  0  0  3  0  0  0  0  0  0
  -21.0720   -6.2490   24.8520 C   0  0  0  0  0  3  0  0  0  0  0  0
  -21.4170   -4.8840   24.8660 C   0  0  0  0  0  0  0  0  0  0  0  0
  -21.9650   -4.2840   23.7190 C   0  0  0  0  0  3  0  0  0  0  0  0
  -22.1660   -5.0480   22.5560 C   0  0  0  0  0  0  0  0  0  0  0  0
  -22.6740   -4.4590   21.4460 F   0  0  0  0  0  0  0  0  0  0  0  0
  -21.2190   -4.1470   25.9840 F   0  0  0  0  0  0  0  0  0  0  0  0
  -23.1100  -13.7520   21.3520 C   0  0  0  0  0  0  0  0  0  0  0  0
  -22.4590  -13.0250   22.2530 N   0  0  0  0  0  0  0  0  0  0  0  0
  -22.6350  -14.7990   20.9140 O   0  0  0  0  0  0  0  0  0  0  0  0
  -22.8580  -12.1780   22.6300 H   0  0  0  0  0  0  0  0  0  0  0  0
  -21.5470  -13.3210   22.5710 H   0  0  0  0  0  0  0  0  0  0  0  0
  -25.6850  -15.4440   20.4170 N   0  0  0  0  0  0  0  0  0  0  0  0
  -24.9340  -16.0950   20.6230 H   0  0  0  0  0  0  0  0  0  0  0  0
  -26.4940  -15.8960   20.0120 H   0  0  0  0  0  0  0  0  0  0  0  0
  -26.2790  -21.8740   21.2510 O   0  0  0  0  0  0  0  0  0  0  0  0
  -25.4690  -22.3600   21.3750 H   0  0  0  0  0  0  0  0  0  0  0  0
  -28.9280  -26.1420   21.0620 C   0  0  0  0  0  2  0  0  0  0  0  0
  -28.5500  -26.9400   19.9280 O   0  0  0  0  0  0  0  0  0  0  0  0
  -24.5460  -31.9120   23.1960 C   0  0  0  0  0  0  0  0  0  0  0  0
  -27.3660  -27.6430   20.0200 C   0  0  0  0  0  0  0  0  0  0  0  0
  -23.3990  -30.5010   21.5180 C   0  0  0  0  0  3  0  0  0  0  0  0
  -24.9170  -29.0570   20.0590 C   0  0  0  0  0  0  0  0  0  0  0  0
  -25.9070  -30.9660   21.3320 C   0  0  0  0  0  2  0  0  0  0  0  0
  -26.0510  -29.6110   20.6660 C   0  0  0  0  0  0  0  0  0  0  0  0
  -27.2810  -28.9090   20.6490 C   0  0  0  0  0  3  0  0  0  0  0  0
  -26.2200  -27.1100   19.4010 C   0  0  0  0  0  3  0  0  0  0  0  0
  -24.9950  -27.8050   19.4230 C   0  0  0  0  0  3  0  0  0  0  0  0
  -23.6380  -29.8630   20.1230 C   0  0  0  0  0  2  0  0  0  0  0  0
  -24.6350  -31.1410   22.0750 N   0  0  0  0  0  0  0  0  0  0  0  0
  -23.4550  -32.1250   23.7430 O   0  0  0  0  0  0  0  0  0  0  0  0
  -22.7910  -29.4320   22.4550 C   0  0  0  0  0  0  0  0  0  0  0  0
  -21.4770  -29.1920   22.3170 N   0  0  0  0  0  0  0  0  0  0  0  0
  -23.4990  -28.8200   23.2610 O   0  0  0  0  0  0  0  0  0  0  0  0
  -20.9660  -29.7370   21.6370 H   0  0  0  0  0  0  0  0  0  0  0  0
  -18.1610  -27.8290   22.7700 C   0  0  0  0  0  0  0  0  0  0  0  0
  -20.7020  -28.2000   23.0630 C   0  0  0  0  0  3  0  0  0  0  0  0
  -20.8760  -26.7890   22.4560 C   0  0  0  0  0  2  0  0  0  0  0  0
  -19.7940  -26.4370   21.4290 C   0  0  0  0  0  2  0  0  0  0  0  0
  -18.4040  -26.5050   22.0670 C   0  0  0  0  0  2  0  0  0  0  0  0
  -19.2400  -28.6330   23.2240 C   0  0  0  0  0  0  0  0  0  0  0  0
  -18.9590  -29.8720   23.8390 C   0  0  0  0  0  3  0  0  0  0  0  0
  -17.6310  -30.3070   24.0080 C   0  0  0  0  0  3  0  0  0  0  0  0
  -16.5670  -29.5000   23.5720 C   0  0  0  0  0  3  0  0  0  0  0  0
  -16.8320  -28.2630   22.9580 C   0  0  0  0  0  3  0  0  0  0  0  0
  -25.8050  -32.5820   23.8310 C   0  0  0  0  0  3  0  0  0  0  0  0
  -26.3370  -31.8200   25.1050 C   0  0  1  0  0  0  0  0  0  0  0  0
  -25.2450  -31.5360   26.1630 C   0  0  0  0  0  1  0  0  0  0  0  0
  -26.9710  -30.4660   24.7080 C   0  0  0  0  0  1  0  0  0  0  0  0
  -27.4570  -32.6470   25.7810 C   0  0  0  0  0  1  0  0  0  0  0  0
  -25.4490  -33.9680   24.1640 N   0  0  0  0  0  0  0  0  0  0  0  0
  -25.7550  -35.0330   23.4100 C   0  0  0  0  0  0  0  0  0  0  0  0
  -26.4380  -34.9540   22.3850 O   0  0  0  0  0  0  0  0  0  0  0  0
  -24.8450  -34.1010   24.9620 H   0  0  0  0  0  0  0  0  0  0  0  0
  -23.9800  -36.7750   23.0370 C   0  0  0  0  0  1  0  0  0  0  0  0
  -25.2180  -36.4030   23.8680 C   0  0  0  0  0  3  0  0  0  0  0  0
  -27.3090  -37.3460   24.7450 C   0  0  0  0  0  1  0  0  0  0  0  0
  -26.2200  -37.4870   23.7810 N   0  0  0  0  0  0  0  0  0  0  0  0
  -25.7840  -38.3940   23.9290 H   0  0  0  0  0  0  0  0  0  0  0  0
  1  4  2  0
  2 56  1  0
  2  1  1  0
  3  2  2  0
  3  6  1  0
  4 54  1  0
  5  3  1  0
  6 11  1  0
  6  4  1  0
  7  8  1  0
  9 11  1  0
 10  7  2  0
 11  8  2  0
 12  9  2  0
 12 10  1  0
 13 12  1  0
 14 23  1  0
 15 20  1  0
 16 17  1  0
 16 15  1  0
 18 17  1  0
 18 29  1  0
 18 19  1  0
 20 14  1  0
 20 19  1  0
 21 14  2  0
 22 10  1  0
 22 24  2  0
 23 25  1  0
 23 22  1  0
 26 27  2  0
 27 46  1  0
 28 27  1  0
 28 31  1  0
 29 30  1  0
 29 26  1  0
 30 28  2  0
 31 32  1  0
 32 33  2  0
 34 37  1  0
 34 33  1  0
 35 34  2  0
 36 35  1  0
 36 31  2  0
 37 38  1  0
 38 43  2  0
 38 39  1  0
 39 40  2  0
 40 41  1  0
 41 45  1  0
 42 41  2  0
 43 42  1  0
 44 43  1  0
 46 47  1  0
 47 50  1  0
 47 49  1  0
 48 46  2  0
 51 26  1  0
 51 52  1  0
 53 51  1  0
 54 55  1  0
 57 59  1  0
 57 56  1  0
 58 69  2  0
 59 64  1  0
 60 68  1  0
 60 70  1  0
 61 67  1  0
 61 63  1  0
 62 68  1  0
 63 62  1  0
 64 63  2  0
 65 66  1  0
 65 59  2  0
 66 61  2  0
 67 60  1  0
 68 58  1  0
 70 72  2  0
 71 70  1  0
 73 71  1  0
 74 83  2  0
 74 79  1  0
 75 71  1  0
 75 79  1  0
 76 75  1  0
 77 78  1  0
 77 76  1  0
 78 74  1  0
 79 80  2  0
 80 81  1  0
 82 81  2  0
 83 82  1  0
 84 58  1  0
 84 89  1  0
 84 85  1  0
 85 88  1  1
 85 86  1  0
 87 85  1  0
 89 92  1  0
 90 94  1  0
 90 89  1  0
 91 90  2  0
 94 93  1  0
 96 94  1  0
 96 97  1  0
 96 95  1  0
M  ISO  4  14 100  23 100  56 101  57 101
M  END
>  <TORSDO>  (70) 
F 19

>  <SCORE>  (70) 
-13.728

>  <name>  (70) 
69

>  <ligand_id>  (70) 
69

>  <original_smiles>  (70) 
[H]Oc1c([H])c(C([H])([H])Oc2c([H])c([H])c3c(c2[H])C([H])([H])N(C(=O)C([H])(N([H])C(=O)C([H])(N([H])C([H])([H])[H])C([H])([H])[H])C(C([H])([H])[H])(C([H])([H])[H])C([H])([H])[H])C([H])(C(=O)N([H])C2([H])c4c([H])c([H])c([H])c([H])c4C([H])([H])C([H])([H])C2([H])[H])C3([H])[H])c(C([H])([H])[H])n1-c1c([H])c([H])c(C(=O)N([H])C(=O)N2C([H])([H])C([H])([H])C([H])([H])C([H])(n3nc(-c4c([H])c([H])c(Oc5c([H])c([H])c(F)c([H])c5F)c([H])c4[H])c(C(=O)N([H])[H])c3N([H])[H])C2([H])[H])c(F)c1[H]

>  <smiles>  (70) 
[H]Oc1c([H])c(C([H])([H])Oc2c([H])c([H])c3c(c2[H])C([H])([H])N(C(=O)C([H])(N([H])C(=O)C([H])(N([H])C([H])([H])[H])C([H])([H])[H])C(C([H])([H])[H])(C([H])([H])[H])C([H])([H])[H])C([H])(C(=O)N([H])C2([H])c4c([H])c([H])c([H])c([H])c4C([H])([H])C([H])([H])C2([H])[H])C3([H])[H])c(C([H])([H])[H])n1-c1c([H])c([H])c(C(=O)N([H])C(=O)N2C([H])([H])C([H])([H])C([H])([H])C([H])(n3nc(-c4c([H])c([H])c(Oc5c([H])c([H])c(F)c([H])c5F)c([H])c4[H])c(C(=O)N([H])[H])c3N([H])[H])C2([H])[H])c(F)c1[H]

$$$$
70:0:0
     RDKit          3D

 92101  0  0  1  0  0  0  0  0999 V2000
  -29.0590  -23.6690   21.2210 C   0  0  0  0  0  0  0  0  0  0  0  0
  -28.4100  -23.4080   19.3570 C   0  0  0  0  0  0  0  0  0  0  0  0
  -28.0040  -24.5720   20.3930 C   0  0  0  0  0  3  0  0  0  0  0  0
  -28.8760  -22.4960   20.3900 N   0  0  0  0  0  0  0  0  0  0  0  0
  -29.7540  -23.8300   22.2070 O   0  0  0  0  0  0  0  0  0  0  0  0
  -28.3380  -23.2560   18.1520 O   0  0  0  0  0  0  0  0  0  0  0  0
  -29.9290  -20.1970   21.4880 C   0  0  0  0  0  3  0  0  0  0  0  0
  -28.8810  -20.0010   19.4630 C   0  0  0  0  0  3  0  0  0  0  0  0
  -30.2230  -18.7460   21.5100 C   0  0  0  0  0  3  0  0  0  0  0  0
  -29.1500  -18.5710   19.4710 C   0  0  0  0  0  3  0  0  0  0  0  0
  -29.2330  -20.9730   20.4630 C   0  0  0  0  0  0  0  0  0  0  0  0
  -29.8580  -17.8020   20.4790 C   0  0  0  0  0  0  0  0  0  0  0  0
  -30.7480  -15.1570   21.0290 C   0  0  0  0  0  0  0  0  0  0  0  0
  -30.8040  -12.7030   20.3320 C   0  0  0  0  0  2  0  0  0  0  0  0
  -30.0140  -12.4530   19.0250 C   0  0  0  0  0  2  0  0  0  0  0  0
  -28.5110  -12.2600   19.3100 C   0  0  0  0  0  2  0  0  0  0  0  0
  -27.9470  -13.2710   20.3440 C   0  0  0  0  0  3  0  0  0  0  0  0
  -28.8800  -13.4570   21.5570 C   0  0  0  0  0  2  0  0  0  0  0  0
  -30.1830  -13.8710   21.0190 N   0  0  0  0  0  0  0  0  0  0  0  0
  -31.9790  -15.1970   21.1520 O   0  0  0  0  0  0  0  0  0  0  0  0
  -30.0780  -16.2420   20.3340 N   0  0  0  0  0  0  0  0  0  0  0  0
  -25.5090  -13.8610   20.8280 C   0  0  0  0  0  0  0  0  0  0  0  0
  -24.4110  -13.0890   21.0910 C   0  0  0  0  0  0  0  0  0  0  0  0
  -24.8790  -11.7400   21.1360 C   0  0  0  0  0  0  0  0  0  0  0  0
  -26.5720  -12.9780   20.7190 N   0  0  0  0  0  0  0  0  0  0  0  0
  -26.1960  -11.7000   20.9730 N   0  0  0  0  0  0  0  0  0  0  0  0
  -24.1390  -10.4790   21.2670 C   0  0  0  0  0  0  0  0  0  0  0  0
  -24.5030   -9.5050   22.2230 C   0  0  0  0  0  3  0  0  0  0  0  0
  -23.7630   -8.3100   22.3440 C   0  0  0  0  0  3  0  0  0  0  0  0
  -22.6450   -8.0790   21.5060 C   0  0  0  0  0  0  0  0  0  0  0  0
  -22.3010   -9.0410   20.5410 C   0  0  0  0  0  3  0  0  0  0  0  0
  -23.0420  -10.2290   20.4190 C   0  0  0  0  0  3  0  0  0  0  0  0
  -21.8820   -6.9370   21.5360 O   0  0  0  0  0  0  0  0  0  0  0  0
  -21.7680   -6.1770   22.6730 C   0  0  0  0  0  0  0  0  0  0  0  0
  -21.2680   -6.7130   23.8800 C   0  0  0  0  0  3  0  0  0  0  0  0
  -21.1020   -5.8790   25.0040 C   0  0  0  0  0  3  0  0  0  0  0  0
  -21.4260   -4.5120   24.9220 C   0  0  0  0  0  0  0  0  0  0  0  0
  -21.9190   -3.9760   23.7190 C   0  0  0  0  0  3  0  0  0  0  0  0
  -22.0870   -4.8060   22.5970 C   0  0  0  0  0  0  0  0  0  0  0  0
  -22.5420   -4.2810   21.4340 F   0  0  0  0  0  0  0  0  0  0  0  0
  -21.2600   -3.7090   25.9980 F   0  0  0  0  0  0  0  0  0  0  0  0
  -22.9930  -13.5660   21.1950 C   0  0  0  0  0  0  0  0  0  0  0  0
  -22.1800  -12.8960   22.0030 N   0  0  0  0  0  0  0  0  0  0  0  0
  -22.6110  -14.5710   20.5950 O   0  0  0  0  0  0  0  0  0  0  0  0
  -22.5000  -12.0860   22.5120 H   0  0  0  0  0  0  0  0  0  0  0  0
  -21.2230  -13.2000   22.1180 H   0  0  0  0  0  0  0  0  0  0  0  0
  -25.6900  -15.2290   20.6450 N   0  0  0  0  0  0  0  0  0  0  0  0
  -24.9170  -15.8860   20.6760 H   0  0  0  0  0  0  0  0  0  0  0  0
  -26.5780  -15.6720   20.4450 H   0  0  0  0  0  0  0  0  0  0  0  0
  -30.9930  -16.0770   18.0880 C   0  0  0  0  0  2  0  0  0  0  0  0
  -29.9910  -15.9110   18.9720 C   0  0  0  0  0  3  0  0  0  0  0  0
  -28.2960  -26.1040   20.1080 O   0  0  0  0  0  0  0  0  0  0  0  0
  -24.5780  -31.7930   23.0860 C   0  0  0  0  0  0  0  0  0  0  0  0
  -27.2360  -27.0970   20.0600 C   0  0  0  0  0  0  0  0  0  0  0  0
  -23.4080  -30.3900   21.4340 C   0  0  0  0  0  3  0  0  0  0  0  0
  -24.8870  -28.8320   20.0140 C   0  0  0  0  0  0  0  0  0  0  0  0
  -25.9620  -30.6800   21.2890 C   0  0  0  0  0  2  0  0  0  0  0  0
  -26.0590  -29.2880   20.6330 C   0  0  0  0  0  0  0  0  0  0  0  0
  -27.2350  -28.4380   20.6330 C   0  0  0  0  0  3  0  0  0  0  0  0
  -26.0350  -26.7490   19.4040 C   0  0  0  0  0  3  0  0  0  0  0  0
  -24.8910  -27.5790   19.3830 C   0  0  0  0  0  3  0  0  0  0  0  0
  -23.6490  -29.7180   20.0550 C   0  0  0  0  0  2  0  0  0  0  0  0
  -24.6690  -30.9780   21.9920 N   0  0  0  0  0  0  0  0  0  0  0  0
  -23.4830  -32.0630   23.6080 O   0  0  0  0  0  0  0  0  0  0  0  0
  -22.7320  -29.3740   22.3890 C   0  0  0  0  0  0  0  0  0  0  0  0
  -21.4030  -29.2090   22.2720 N   0  0  0  0  0  0  0  0  0  0  0  0
  -23.4080  -28.7340   23.1990 O   0  0  0  0  0  0  0  0  0  0  0  0
  -20.9130  -29.7760   21.5930 H   0  0  0  0  0  0  0  0  0  0  0  0
  -18.0210  -28.0200   22.8000 C   0  0  0  0  0  0  0  0  0  0  0  0
  -20.5850  -28.2620   23.0350 C   0  0  0  0  0  3  0  0  0  0  0  0
  -20.6690  -26.8410   22.4320 C   0  0  0  0  0  2  0  0  0  0  0  0
  -19.5500  -26.5440   21.4280 C   0  0  0  0  0  2  0  0  0  0  0  0
  -18.1790  -26.6830   22.0940 C   0  0  0  0  0  2  0  0  0  0  0  0
  -19.1500  -28.7680   23.2280 C   0  0  0  0  0  0  0  0  0  0  0  0
  -18.9450  -30.0180   23.8510 C   0  0  0  0  0  3  0  0  0  0  0  0
  -17.6460  -30.5210   24.0490 C   0  0  0  0  0  3  0  0  0  0  0  0
  -16.5310  -29.7700   23.6360 C   0  0  0  0  0  3  0  0  0  0  0  0
  -16.7200  -28.5210   23.0170 C   0  0  0  0  0  3  0  0  0  0  0  0
  -25.8420  -32.4440   23.7270 C   0  0  0  0  0  3  0  0  0  0  0  0
  -25.5030  -33.8330   24.0810 N   0  0  0  0  0  0  0  0  0  0  0  0
  -25.8430  -34.9110   23.3620 C   0  0  0  0  0  0  0  0  0  0  0  0
  -26.5410  -34.8410   22.3470 O   0  0  0  0  0  0  0  0  0  0  0  0
  -24.8830  -33.9580   24.8680 H   0  0  0  0  0  0  0  0  0  0  0  0
  -24.1140  -36.7050   23.0040 C   0  0  0  0  0  1  0  0  0  0  0  0
  -25.3310  -36.2830   23.8440 C   0  0  0  0  0  3  0  0  0  0  0  0
  -27.4280  -37.1600   24.7740 C   0  0  0  0  0  1  0  0  0  0  0  0
  -26.3580  -37.3460   23.7970 N   0  0  0  0  0  0  0  0  0  0  0  0
  -25.9400  -38.2590   23.9550 H   0  0  0  0  0  0  0  0  0  0  0  0
  -26.3620  -31.6670   24.9990 C   0  0  1  0  0  0  0  0  0  0  0  0
  -25.2680  -31.4110   26.0630 C   0  0  0  0  0  1  0  0  0  0  0  0
  -26.9590  -30.2980   24.6010 C   0  0  0  0  0  1  0  0  0  0  0  0
  -27.5040  -32.4670   25.6700 C   0  0  0  0  0  1  0  0  0  0  0  0
  1  5  2  0
  2  4  1  0
  2  3  1  0
  3 52  1  0
  3  1  1  0
  4 11  1  0
  4  1  1  0
  6  2  2  0
  7  9  1  0
  8 10  2  0
  8 11  1  0
 10 12  1  0
 11  7  2  0
 12  9  2  0
 13 20  2  0
 14 19  1  0
 15 16  1  0
 15 14  1  0
 17 16  1  0
 17 25  1  0
 17 18  1  0
 19 13  1  0
 19 18  1  0
 21 12  1  0
 21 13  1  0
 22 23  2  0
 23 24  1  0
 23 42  1  0
 24 27  1  0
 25 22  1  0
 25 26  1  0
 26 24  2  0
 27 28  1  0
 28 29  2  0
 30 33  1  0
 30 29  1  0
 31 30  2  0
 32 31  1  0
 32 27  2  0
 33 34  1  0
 34 35  1  0
 35 36  2  0
 37 36  1  0
 37 41  1  0
 38 37  2  0
 39 34  2  0
 39 38  1  0
 40 39  1  0
 42 43  1  0
 43 46  1  0
 43 45  1  0
 44 42  2  0
 47 48  1  0
 47 22  1  0
 49 47  1  0
 50 51  2  0
 51 21  1  0
 53 64  2  0
 54 52  1  0
 54 59  1  0
 55 63  1  0
 55 65  1  0
 56 62  1  0
 56 58  1  0
 57 63  1  0
 58 59  2  0
 58 57  1  0
 60 54  2  0
 61 60  1  0
 61 56  2  0
 62 55  1  0
 63 53  1  0
 65 67  2  0
 66 65  1  0
 68 66  1  0
 69 78  2  0
 69 74  1  0
 70 66  1  0
 70 74  1  0
 71 70  1  0
 72 73  1  0
 72 71  1  0
 73 69  1  0
 74 75  2  0
 75 76  1  0
 77 76  2  0
 78 77  1  0
 79 53  1  0
 79 80  1  0
 79 89  1  0
 80 83  1  0
 81 85  1  0
 81 80  1  0
 82 81  2  0
 85 84  1  0
 87 85  1  0
 87 88  1  0
 87 86  1  0
 89 92  1  1
 89 90  1  0
 91 89  1  0
M  ISO  4   3 101  13 100  21 100  52 101
M  END
>  <TORSDO>  (71) 
F 18

>  <SCORE>  (71) 
-13.753

>  <name>  (71) 
70

>  <ligand_id>  (71) 
70

>  <original_smiles>  (71) 
[H]C([H])=C([H])N(C(=O)N1C([H])([H])C([H])([H])C([H])([H])C([H])(n2nc(-c3c([H])c([H])c(Oc4c([H])c([H])c(F)c([H])c4F)c([H])c3[H])c(C(=O)N([H])[H])c2N([H])[H])C1([H])[H])c1c([H])c([H])c(N2C(=O)C([H])(Oc3c([H])c([H])c4c(c3[H])C([H])([H])N(C(=O)C([H])(N([H])C(=O)C([H])(N([H])C([H])([H])[H])C([H])([H])[H])C(C([H])([H])[H])(C([H])([H])[H])C([H])([H])[H])C([H])(C(=O)N([H])C3([H])c5c([H])c([H])c([H])c([H])c5C([H])([H])C([H])([H])C3([H])[H])C4([H])[H])C2=O)c([H])c1[H]

>  <smiles>  (71) 
[H]C([H])=C([H])N(C(=O)N1C([H])([H])C([H])([H])C([H])([H])C([H])(n2nc(-c3c([H])c([H])c(Oc4c([H])c([H])c(F)c([H])c4F)c([H])c3[H])c(C(=O)N([H])[H])c2N([H])[H])C1([H])[H])c1c([H])c([H])c(N2C(=O)C([H])(Oc3c([H])c([H])c4c(c3[H])C([H])([H])N(C(=O)C([H])(N([H])C(=O)C([H])(N([H])C([H])([H])[H])C([H])([H])[H])C(C([H])([H])[H])(C([H])([H])[H])C([H])([H])[H])C([H])(C(=O)N([H])C3([H])c5c([H])c([H])c([H])c([H])c5C([H])([H])C([H])([H])C3([H])[H])C4([H])[H])C2=O)c([H])c1[H]

$$$$
71:0:0
     RDKit          3D

 96104  0  0  1  0  0  0  0  0999 V2000
  -30.4050  -18.0880   21.7970 C   0  0  0  0  0  3  0  0  0  0  0  0
  -29.6740  -19.4070   19.4410 C   0  0  0  0  0  3  0  0  0  0  0  0
  -30.3060  -19.5100   21.7650 C   0  0  0  0  0  0  0  0  0  0  0  0
  -30.1500  -17.2820   20.6580 C   0  0  0  0  0  0  0  0  0  0  0  0
  -29.9250  -20.2130   20.5890 C   0  0  0  0  0  0  0  0  0  0  0  0
  -29.7810  -17.9790   19.4740 C   0  0  0  0  0  0  0  0  0  0  0  0
  -29.4760  -17.2680   18.3610 F   0  0  0  0  0  0  0  0  0  0  0  0
  -30.8110  -14.8160   20.2520 C   0  0  0  0  0  0  0  0  0  0  0  0
  -30.5900  -12.5770   19.1840 C   0  0  0  0  0  2  0  0  0  0  0  0
  -29.6210  -12.7050   17.9870 C   0  0  0  0  0  2  0  0  0  0  0  0
  -28.1560  -12.5470   18.4410 C   0  0  0  0  0  2  0  0  0  0  0  0
  -27.8230  -13.4130   19.6860 C   0  0  0  0  0  3  0  0  0  0  0  0
  -28.8980  -13.2440   20.7820 C   0  0  0  0  0  2  0  0  0  0  0  0
  -30.2020  -13.5890   20.1890 N   0  0  0  0  0  0  0  0  0  0  0  0
  -31.9380  -15.0010   19.7810 O   0  0  0  0  0  0  0  0  0  0  0  0
  -30.0660  -15.8280   20.7900 N   0  0  0  0  0  0  0  0  0  0  0  0
  -29.2310  -15.5000   21.2480 H   0  0  0  0  0  0  0  0  0  0  0  0
  -25.4480  -14.0280   20.4550 C   0  0  0  0  0  0  0  0  0  0  0  0
  -24.3820  -13.2610   20.8370 C   0  0  0  0  0  0  0  0  0  0  0  0
  -24.8290  -11.9060   20.7790 C   0  0  0  0  0  0  0  0  0  0  0  0
  -26.4800  -13.1400   20.1910 N   0  0  0  0  0  0  0  0  0  0  0  0
  -26.1120  -11.8570   20.4440 N   0  0  0  0  0  0  0  0  0  0  0  0
  -24.0940  -10.6480   20.9680 C   0  0  0  0  0  0  0  0  0  0  0  0
  -24.5010   -9.6900   21.9230 C   0  0  0  0  0  3  0  0  0  0  0  0
  -23.7670   -8.4970   22.0990 C   0  0  0  0  0  3  0  0  0  0  0  0
  -22.6100   -8.2540   21.3200 C   0  0  0  0  0  0  0  0  0  0  0  0
  -22.2220   -9.2010   20.3560 C   0  0  0  0  0  3  0  0  0  0  0  0
  -22.9570  -10.3850   20.1780 C   0  0  0  0  0  3  0  0  0  0  0  0
  -21.8510   -7.1130   21.4040 O   0  0  0  0  0  0  0  0  0  0  0  0
  -21.7330   -6.4110   22.5770 C   0  0  0  0  0  0  0  0  0  0  0  0
  -21.1460   -6.9770   23.7290 C   0  0  0  0  0  3  0  0  0  0  0  0
  -20.9840   -6.1970   24.8910 C   0  0  0  0  0  3  0  0  0  0  0  0
  -21.3960   -4.8520   24.9020 C   0  0  0  0  0  0  0  0  0  0  0  0
  -21.9770   -4.2850   23.7530 C   0  0  0  0  0  3  0  0  0  0  0  0
  -22.1420   -5.0610   22.5930 C   0  0  0  0  0  0  0  0  0  0  0  0
  -22.6810   -4.5040   21.4830 F   0  0  0  0  0  0  0  0  0  0  0  0
  -21.2330   -4.1000   26.0160 F   0  0  0  0  0  0  0  0  0  0  0  0
  -22.9950  -13.7480   21.1440 C   0  0  0  0  0  0  0  0  0  0  0  0
  -22.2730  -13.0420   22.0070 N   0  0  0  0  0  0  0  0  0  0  0  0
  -22.5610  -14.7910   20.6550 O   0  0  0  0  0  0  0  0  0  0  0  0
  -22.6370  -12.1980   22.4240 H   0  0  0  0  0  0  0  0  0  0  0  0
  -21.3440  -13.3510   22.2550 H   0  0  0  0  0  0  0  0  0  0  0  0
  -25.6240  -15.3990   20.2910 N   0  0  0  0  0  0  0  0  0  0  0  0
  -24.8640  -16.0580   20.4170 H   0  0  0  0  0  0  0  0  0  0  0  0
  -26.4660  -15.8310   19.9310 H   0  0  0  0  0  0  0  0  0  0  0  0
  -29.1960  -22.6080   19.8970 C   0  0  0  0  0  0  0  0  0  0  0  0
  -29.8760  -21.6800   20.6400 N   0  0  0  0  0  0  0  0  0  0  0  0
  -28.4640  -22.2990   18.9510 O   0  0  0  0  0  0  0  0  0  0  0  0
  -30.3960  -22.0860   21.4060 H   0  0  0  0  0  0  0  0  0  0  0  0
  -29.4040  -24.1510   20.3280 C   0  0  0  0  0  0  0  0  0  0  0  0
  -30.3620  -24.4880   21.0360 O   0  0  0  0  0  0  0  0  0  0  0  0
  -28.3530  -25.2270   19.8470 C   0  0  0  0  0  2  0  0  0  0  0  0
  -28.5160  -26.6280   20.3230 O   0  0  0  0  0  0  0  0  0  0  0  0
  -24.6580  -31.9140   23.3750 C   0  0  0  0  0  0  0  0  0  0  0  0
  -27.3930  -27.4720   20.2520 C   0  0  0  0  0  0  0  0  0  0  0  0
  -23.5090  -30.5520   21.6680 C   0  0  0  0  0  3  0  0  0  0  0  0
  -25.0100  -29.0610   20.2320 C   0  0  0  0  0  0  0  0  0  0  0  0
  -26.0490  -30.9000   21.5570 C   0  0  0  0  0  2  0  0  0  0  0  0
  -26.1590  -29.5420   20.8730 C   0  0  0  0  0  0  0  0  0  0  0  0
  -27.3510  -28.7580   20.8770 C   0  0  0  0  0  3  0  0  0  0  0  0
  -26.2220  -27.0550   19.5760 C   0  0  0  0  0  3  0  0  0  0  0  0
  -25.0440  -27.8240   19.5750 C   0  0  0  0  0  3  0  0  0  0  0  0
  -23.7630  -29.9200   20.2740 C   0  0  0  0  0  2  0  0  0  0  0  0
  -24.7560  -31.1380   22.2580 N   0  0  0  0  0  0  0  0  0  0  0  0
  -23.5590  -32.1650   23.8910 O   0  0  0  0  0  0  0  0  0  0  0  0
  -22.8350  -29.4990   22.5810 C   0  0  0  0  0  0  0  0  0  0  0  0
  -21.5130  -29.3140   22.4170 N   0  0  0  0  0  0  0  0  0  0  0  0
  -23.4990  -28.8560   23.3970 O   0  0  0  0  0  0  0  0  0  0  0  0
  -21.0370  -29.8860   21.7350 H   0  0  0  0  0  0  0  0  0  0  0  0
  -18.1290  -28.1090   22.8350 C   0  0  0  0  0  0  0  0  0  0  0  0
  -20.6850  -28.3490   23.1420 C   0  0  0  0  0  3  0  0  0  0  0  0
  -20.7890  -26.9410   22.5110 C   0  0  0  0  0  2  0  0  0  0  0  0
  -19.6970  -26.6620   21.4730 C   0  0  0  0  0  2  0  0  0  0  0  0
  -18.3090  -26.7860   22.1070 C   0  0  0  0  0  2  0  0  0  0  0  0
  -19.2450  -28.8500   23.3070 C   0  0  0  0  0  0  0  0  0  0  0  0
  -19.0220  -30.0890   23.9470 C   0  0  0  0  0  3  0  0  0  0  0  0
  -17.7170  -30.5860   24.1180 C   0  0  0  0  0  3  0  0  0  0  0  0
  -16.6150  -29.8420   23.6630 C   0  0  0  0  0  3  0  0  0  0  0  0
  -16.8220  -28.6040   23.0270 C   0  0  0  0  0  3  0  0  0  0  0  0
  -25.9190  -32.5400   24.0460 C   0  0  0  0  0  3  0  0  0  0  0  0
  -26.3530  -31.7960   25.3690 C   0  0  1  0  0  0  0  0  0  0  0  0
  -25.1990  -31.5990   26.3790 C   0  0  0  0  0  1  0  0  0  0  0  0
  -26.9400  -30.4020   25.0460 C   0  0  0  0  0  1  0  0  0  0  0  0
  -27.4750  -32.5940   26.0740 C   0  0  0  0  0  1  0  0  0  0  0  0
  -25.6200  -33.9520   24.3220 N   0  0  0  0  0  0  0  0  0  0  0  0
  -25.9510  -34.9720   23.5190 C   0  0  0  0  0  0  0  0  0  0  0  0
  -26.6120  -34.8230   22.4870 O   0  0  0  0  0  0  0  0  0  0  0  0
  -25.0320  -34.1430   25.1210 H   0  0  0  0  0  0  0  0  0  0  0  0
  -24.2070  -36.7440   23.1370 C   0  0  0  0  0  1  0  0  0  0  0  0
  -25.4760  -36.3800   23.9240 C   0  0  0  0  0  3  0  0  0  0  0  0
  -27.6210  -37.3250   24.6560 C   0  0  0  0  0  1  0  0  0  0  0  0
  -26.5010  -37.4290   23.7250 N   0  0  0  0  0  0  0  0  0  0  0  0
  -26.0930  -38.3540   23.8200 H   0  0  0  0  0  0  0  0  0  0  0  0
  -30.5610  -20.2320   22.9330 N   0  0  0  0  0  0  0  0  0  0  0  0
  -30.6220  -19.7000   23.7950 H   0  0  0  0  0  0  0  0  0  0  0  0
  -30.0240  -21.0810   23.0690 H   0  0  0  0  0  0  0  0  0  0  0  0
  2  6  2  0
  2  5  1  0
  3  1  1  0
  3 94  1  0
  4 16  1  0
  4  1  2  0
  5 47  1  0
  5  3  2  0
  6  4  1  0
  7  6  1  0
  8 16  1  0
  9 14  1  0
 10 11  1  0
 10  9  1  0
 12 11  1  0
 12 21  1  0
 12 13  1  0
 14  8  1  0
 14 13  1  0
 15  8  2  0
 16 17  1  0
 18 19  2  0
 19 38  1  0
 20 19  1  0
 20 23  1  0
 21 22  1  0
 21 18  1  0
 22 20  2  0
 23 24  1  0
 24 25  2  0
 26 29  1  0
 26 25  1  0
 27 26  2  0
 28 27  1  0
 28 23  2  0
 29 30  1  0
 30 35  2  0
 30 31  1  0
 31 32  2  0
 32 33  1  0
 33 37  1  0
 34 33  2  0
 35 34  1  0
 36 35  1  0
 38 39  1  0
 39 42  1  0
 39 41  1  0
 40 38  2  0
 43 44  1  0
 43 18  1  0
 45 43  1  0
 46 50  1  0
 46 47  1  0
 47 49  1  0
 48 46  2  0
 50 51  2  0
 52 53  1  0
 52 50  1  0
 54 65  2  0
 55 53  1  0
 55 60  1  0
 56 64  1  0
 56 66  1  0
 57 63  1  0
 57 59  1  0
 58 64  1  0
 59 60  2  0
 59 58  1  0
 61 55  2  0
 62 61  1  0
 62 57  2  0
 63 56  1  0
 64 54  1  0
 66 68  2  0
 67 66  1  0
 69 67  1  0
 70 79  2  0
 70 75  1  0
 71 67  1  0
 71 75  1  0
 72 71  1  0
 73 74  1  0
 73 72  1  0
 74 70  1  0
 75 76  2  0
 76 77  1  0
 78 77  2  0
 79 78  1  0
 80 54  1  0
 80 85  1  0
 80 81  1  0
 81 84  1  1
 81 82  1  0
 83 81  1  0
 85 88  1  0
 86 90  1  0
 86 85  1  0
 87 86  2  0
 90 89  1  0
 92 93  1  0
 92 90  1  0
 92 91  1  0
 94 96  1  0
 94 95  1  0
M  ISO  4   8 100  16 100  52 101  53 101
M  END
>  <TORSDO>  (72) 
F 20

>  <SCORE>  (72) 
-14.052

>  <name>  (72) 
71

>  <ligand_id>  (72) 
71

>  <original_smiles>  (72) 
[H]c1c([H])c([H])c2c(c1[H])C([H])([H])C([H])([H])C([H])([H])C2([H])N([H])C(=O)C1([H])N(C(=O)C([H])(N([H])C(=O)C([H])(N([H])C([H])([H])[H])C([H])([H])[H])C(C([H])([H])[H])(C([H])([H])[H])C([H])([H])[H])C([H])([H])c2c([H])c(OC([H])([H])C(=O)C(=O)N([H])c3c([H])c(F)c(N([H])C(=O)N4C([H])([H])C([H])([H])C([H])([H])C([H])(n5nc(-c6c([H])c([H])c(Oc7c([H])c([H])c(F)c([H])c7F)c([H])c6[H])c(C(=O)N([H])[H])c5N([H])[H])C4([H])[H])c([H])c3N([H])[H])c([H])c([H])c2C1([H])[H]

>  <smiles>  (72) 
[H]c1c([H])c([H])c2c(c1[H])C([H])([H])C([H])([H])C([H])([H])C2([H])N([H])C(=O)C1([H])N(C(=O)C([H])(N([H])C(=O)C([H])(N([H])C([H])([H])[H])C([H])([H])[H])C(C([H])([H])[H])(C([H])([H])[H])C([H])([H])[H])C([H])([H])c2c([H])c(OC([H])([H])C(=O)C(=O)N([H])c3c([H])c(F)c(N([H])C(=O)N4C([H])([H])C([H])([H])C([H])([H])C([H])(n5nc(-c6c([H])c([H])c(Oc7c([H])c([H])c(F)c([H])c7F)c([H])c6[H])c(C(=O)N([H])[H])c5N([H])[H])C4([H])[H])c([H])c3N([H])[H])c([H])c([H])c2C1([H])[H]

$$$$
72:0:0
     RDKit          3D

 95104  0  0  1  0  0  0  0  0999 V2000
  -28.8810  -23.9690   20.1780 C   0  0  0  0  0  0  0  0  0  0  0  0
  -30.1770  -23.9310   19.5410 C   0  0  0  0  0  0  0  0  0  0  0  0
  -28.5310  -22.5630   20.5040 C   0  0  0  0  0  0  0  0  0  0  0  0
  -28.1070  -25.0870   20.4350 C   0  0  0  0  0  3  0  0  0  0  0  0
  -30.6340  -22.4760   19.4930 C   0  0  0  0  0  2  0  0  0  0  0  0
  -29.5350  -21.6980   20.0980 N   0  0  0  0  0  0  0  0  0  0  0  0
  -30.8400  -24.8780   19.1020 O   0  0  0  0  0  0  0  0  0  0  0  0
  -27.4870  -22.2080   21.0640 O   0  0  0  0  0  0  0  0  0  0  0  0
  -30.8480  -19.5120   19.9100 C   0  0  0  0  0  3  0  0  0  0  0  0
  -28.5590  -19.3480   20.5700 C   0  0  0  0  0  3  0  0  0  0  0  0
  -29.6320  -20.2100   20.2000 C   0  0  0  0  0  0  0  0  0  0  0  0
  -29.9070  -17.2410   20.3530 C   0  0  0  0  0  0  0  0  0  0  0  0
  -30.9930  -18.0870   19.9820 C   0  0  0  0  0  0  0  0  0  0  0  0
  -28.6950  -17.9260   20.6410 C   0  0  0  0  0  0  0  0  0  0  0  0
  -32.2030  -17.5590   19.6860 F   0  0  0  0  0  0  0  0  0  0  0  0
  -27.6150  -17.1860   20.9910 F   0  0  0  0  0  0  0  0  0  0  0  0
  -30.6750  -14.7340   20.0220 C   0  0  0  0  0  0  0  0  0  0  0  0
  -30.4220  -12.5080   18.9250 C   0  0  0  0  0  2  0  0  0  0  0  0
  -29.4010  -12.6520   17.7740 C   0  0  0  0  0  2  0  0  0  0  0  0
  -27.9590  -12.4700   18.2900 C   0  0  0  0  0  2  0  0  0  0  0  0
  -27.6740  -13.2990   19.5710 C   0  0  0  0  0  3  0  0  0  0  0  0
  -28.8020  -13.1280   20.6130 C   0  0  0  0  0  2  0  0  0  0  0  0
  -30.0680  -13.5010   19.9620 N   0  0  0  0  0  0  0  0  0  0  0  0
  -31.8120  -14.8890   19.5720 O   0  0  0  0  0  0  0  0  0  0  0  0
  -29.8860  -15.7690   20.4630 N   0  0  0  0  0  0  0  0  0  0  0  0
  -29.0150  -15.4360   20.8480 H   0  0  0  0  0  0  0  0  0  0  0  0
  -25.3270  -13.8640   20.4500 C   0  0  0  0  0  0  0  0  0  0  0  0
  -24.2880  -13.0760   20.8630 C   0  0  0  0  0  0  0  0  0  0  0  0
  -24.7530  -11.7280   20.7720 C   0  0  0  0  0  0  0  0  0  0  0  0
  -26.3590  -12.9960   20.1320 N   0  0  0  0  0  0  0  0  0  0  0  0
  -26.0230  -11.7050   20.3860 N   0  0  0  0  0  0  0  0  0  0  0  0
  -24.0440  -10.4580   20.9760 C   0  0  0  0  0  0  0  0  0  0  0  0
  -24.5020   -9.4970   21.9040 C   0  0  0  0  0  3  0  0  0  0  0  0
  -23.7930   -8.2920   22.0950 C   0  0  0  0  0  3  0  0  0  0  0  0
  -22.6120   -8.0390   21.3590 C   0  0  0  0  0  0  0  0  0  0  0  0
  -22.1730   -8.9890   20.4190 C   0  0  0  0  0  3  0  0  0  0  0  0
  -22.8830  -10.1860   20.2260 C   0  0  0  0  0  3  0  0  0  0  0  0
  -21.8720   -6.8860   21.4590 O   0  0  0  0  0  0  0  0  0  0  0  0
  -21.8000   -6.1770   22.6310 C   0  0  0  0  0  0  0  0  0  0  0  0
  -21.3300   -6.7600   23.8290 C   0  0  0  0  0  3  0  0  0  0  0  0
  -21.2080   -5.9760   24.9930 C   0  0  0  0  0  3  0  0  0  0  0  0
  -21.5450   -4.6110   24.9620 C   0  0  0  0  0  0  0  0  0  0  0  0
  -22.0070   -4.0260   23.7690 C   0  0  0  0  0  3  0  0  0  0  0  0
  -22.1310   -4.8070   22.6070 C   0  0  0  0  0  0  0  0  0  0  0  0
  -22.5580   -4.2340   21.4550 F   0  0  0  0  0  0  0  0  0  0  0  0
  -21.4190   -3.8550   26.0780 F   0  0  0  0  0  0  0  0  0  0  0  0
  -22.9080  -13.5390   21.2320 C   0  0  0  0  0  0  0  0  0  0  0  0
  -22.2410  -12.8240   22.1310 N   0  0  0  0  0  0  0  0  0  0  0  0
  -22.4310  -14.5700   20.7590 O   0  0  0  0  0  0  0  0  0  0  0  0
  -22.6400  -11.9900   22.5360 H   0  0  0  0  0  0  0  0  0  0  0  0
  -21.3180  -13.1170   22.4220 H   0  0  0  0  0  0  0  0  0  0  0  0
  -25.4720  -15.2390   20.3000 N   0  0  0  0  0  0  0  0  0  0  0  0
  -24.7190  -15.8830   20.5130 H   0  0  0  0  0  0  0  0  0  0  0  0
  -26.3260  -15.7120   20.0360 H   0  0  0  0  0  0  0  0  0  0  0  0
  -28.3540  -26.4570   20.1580 O   0  0  0  0  0  0  0  0  0  0  0  0
  -24.6410  -31.8750   23.2220 C   0  0  0  0  0  0  0  0  0  0  0  0
  -27.2550  -27.3350   20.1350 C   0  0  0  0  0  0  0  0  0  0  0  0
  -23.4370  -30.4850   21.5760 C   0  0  0  0  0  3  0  0  0  0  0  0
  -24.8890  -28.9460   20.1360 C   0  0  0  0  0  0  0  0  0  0  0  0
  -25.9750  -30.8080   21.3910 C   0  0  0  0  0  2  0  0  0  0  0  0
  -26.0580  -29.4320   20.7380 C   0  0  0  0  0  0  0  0  0  0  0  0
  -27.2450  -28.6370   20.7310 C   0  0  0  0  0  3  0  0  0  0  0  0
  -26.0680  -26.9120   19.5000 C   0  0  0  0  0  3  0  0  0  0  0  0
  -24.8960  -27.6910   19.5080 C   0  0  0  0  0  3  0  0  0  0  0  0
  -23.6500  -29.8180   20.1920 C   0  0  0  0  0  2  0  0  0  0  0  0
  -24.7030  -31.0730   22.1200 N   0  0  0  0  0  0  0  0  0  0  0  0
  -23.5580  -32.1480   23.7610 O   0  0  0  0  0  0  0  0  0  0  0  0
  -22.7780  -29.4600   22.5310 C   0  0  0  0  0  0  0  0  0  0  0  0
  -21.4510  -29.2840   22.4080 N   0  0  0  0  0  0  0  0  0  0  0  0
  -23.4590  -28.8300   23.3440 O   0  0  0  0  0  0  0  0  0  0  0  0
  -20.9590  -29.8460   21.7280 H   0  0  0  0  0  0  0  0  0  0  0  0
  -18.0740  -28.0930   22.9250 C   0  0  0  0  0  0  0  0  0  0  0  0
  -20.6350  -28.3420   23.1770 C   0  0  0  0  0  3  0  0  0  0  0  0
  -20.7280  -26.9150   22.5860 C   0  0  0  0  0  2  0  0  0  0  0  0
  -19.6160  -26.6050   21.5780 C   0  0  0  0  0  2  0  0  0  0  0  0
  -18.2400  -26.7500   22.2350 C   0  0  0  0  0  2  0  0  0  0  0  0
  -19.1980  -28.8480   23.3540 C   0  0  0  0  0  0  0  0  0  0  0  0
  -18.9890  -30.1050   23.9590 C   0  0  0  0  0  3  0  0  0  0  0  0
  -17.6860  -30.6090   24.1410 C   0  0  0  0  0  3  0  0  0  0  0  0
  -16.5760  -29.8520   23.7280 C   0  0  0  0  0  3  0  0  0  0  0  0
  -16.7700  -28.5960   23.1260 C   0  0  0  0  0  3  0  0  0  0  0  0
  -25.9240  -32.5070   23.8450 C   0  0  0  0  0  3  0  0  0  0  0  0
  -25.6130  -33.9040   24.1810 N   0  0  0  0  0  0  0  0  0  0  0  0
  -25.9360  -34.9600   23.4220 C   0  0  0  0  0  0  0  0  0  0  0  0
  -26.5960  -34.8600   22.3840 O   0  0  0  0  0  0  0  0  0  0  0  0
  -25.0250  -34.0550   24.9880 H   0  0  0  0  0  0  0  0  0  0  0  0
  -24.1990  -36.7500   23.0910 C   0  0  0  0  0  1  0  0  0  0  0  0
  -25.4500  -36.3460   23.8870 C   0  0  0  0  0  3  0  0  0  0  0  0
  -27.5910  -37.2360   24.6970 C   0  0  0  0  0  1  0  0  0  0  0  0
  -26.4790  -37.4030   23.7650 N   0  0  0  0  0  0  0  0  0  0  0  0
  -26.0720  -38.3210   23.9180 H   0  0  0  0  0  0  0  0  0  0  0  0
  -26.4420  -31.7320   25.1180 C   0  0  1  0  0  0  0  0  0  0  0  0
  -25.3500  -31.4910   26.1870 C   0  0  0  0  0  1  0  0  0  0  0  0
  -27.0230  -30.3540   24.7220 C   0  0  0  0  0  1  0  0  0  0  0  0
  -27.5940  -32.5230   25.7800 C   0  0  0  0  0  1  0  0  0  0  0  0
  1  4  2  0
  1  3  1  0
  2  1  1  0
  3  8  2  0
  5  2  1  0
  5  6  1  0
  6 11  1  0
  6  3  1  0
  7  2  2  0
  9 13  2  0
  9 11  1  0
 10 14  1  0
 11 10  2  0
 12 25  1  0
 12 14  2  0
 13 12  1  0
 14 16  1  0
 15 13  1  0
 17 25  1  0
 18 23  1  0
 19 20  1  0
 19 18  1  0
 21 20  1  0
 21 30  1  0
 21 22  1  0
 23 17  1  0
 23 22  1  0
 24 17  2  0
 25 26  1  0
 27 28  2  0
 28 47  1  0
 29 28  1  0
 29 32  1  0
 30 31  1  0
 30 27  1  0
 31 29  2  0
 32 33  1  0
 33 34  2  0
 35 38  1  0
 35 34  1  0
 36 35  2  0
 37 36  1  0
 37 32  2  0
 38 39  1  0
 39 40  1  0
 40 41  2  0
 42 41  1  0
 42 46  1  0
 43 42  2  0
 44 39  2  0
 44 43  1  0
 45 44  1  0
 47 48  1  0
 48 51  1  0
 48 50  1  0
 49 47  2  0
 52 27  1  0
 52 53  1  0
 54 52  1  0
 55  4  1  0
 56 67  2  0
 57 55  1  0
 57 62  1  0
 58 66  1  0
 58 68  1  0
 59 65  1  0
 59 61  1  0
 60 66  1  0
 61 60  1  0
 62 61  2  0
 63 64  1  0
 63 57  2  0
 64 59  2  0
 65 58  1  0
 66 56  1  0
 68 70  2  0
 69 68  1  0
 71 69  1  0
 72 81  2  0
 72 77  1  0
 73 69  1  0
 73 77  1  0
 74 73  1  0
 75 76  1  0
 75 74  1  0
 76 72  1  0
 77 78  2  0
 78 79  1  0
 80 79  2  0
 81 80  1  0
 82 56  1  0
 82 83  1  0
 82 92  1  0
 83 86  1  0
 84 88  1  0
 84 83  1  0
 85 84  2  0
 88 87  1  0
 90 88  1  0
 90 91  1  0
 90 89  1  0
 92 95  1  1
 92 93  1  0
 94 92  1  0
M  ISO  4   4 101  17 100  25 100  55 101
M  END
>  <TORSDO>  (73) 
F 17

>  <SCORE>  (73) 
-15.021

>  <name>  (73) 
72

>  <ligand_id>  (73) 
72

>  <original_smiles>  (73) 
[H]C(Oc1c([H])c([H])c2c(c1[H])C([H])([H])N(C(=O)C([H])(N([H])C(=O)C([H])(N([H])C([H])([H])[H])C([H])([H])[H])C(C([H])([H])[H])(C([H])([H])[H])C([H])([H])[H])C([H])(C(=O)N([H])C1([H])c3c([H])c([H])c([H])c([H])c3C([H])([H])C([H])([H])C1([H])[H])C2([H])[H])=C1C(=O)N(c2c([H])c(F)c(N([H])C(=O)N3C([H])([H])C([H])([H])C([H])([H])C([H])(n4nc(-c5c([H])c([H])c(Oc6c([H])c([H])c(F)c([H])c6F)c([H])c5[H])c(C(=O)N([H])[H])c4N([H])[H])C3([H])[H])c(F)c2[H])C([H])([H])C1=O

>  <smiles>  (73) 
[H]C(Oc1c([H])c([H])c2c(c1[H])C([H])([H])N(C(=O)C([H])(N([H])C(=O)C([H])(N([H])C([H])([H])[H])C([H])([H])[H])C(C([H])([H])[H])(C([H])([H])[H])C([H])([H])[H])C([H])(C(=O)N([H])C1([H])c3c([H])c([H])c([H])c([H])c3C([H])([H])C([H])([H])C1([H])[H])C2([H])[H])=C1C(=O)N(c2c([H])c(F)c(N([H])C(=O)N3C([H])([H])C([H])([H])C([H])([H])C([H])(n4nc(-c5c([H])c([H])c(Oc6c([H])c([H])c(F)c([H])c6F)c([H])c5[H])c(C(=O)N([H])[H])c4N([H])[H])C3([H])[H])c(F)c2[H])C([H])([H])C1=O

$$$$
73:0:0
     RDKit          3D

 95104  0  0  1  0  0  0  0  0999 V2000
  -28.3410  -19.3420   19.9990 C   0  0  0  0  0  3  0  0  0  0  0  0
  -30.7330  -18.2500   20.7950 C   0  0  0  0  0  2  0  0  0  0  0  0
  -28.5190  -17.9250   19.9990 C   0  0  0  0  0  0  0  0  0  0  0  0
  -29.7170  -17.3100   20.4470 C   0  0  0  0  0  0  0  0  0  0  0  0
  -29.3490  -20.2740   20.3830 C   0  0  0  0  0  0  0  0  0  0  0  0
  -28.4930  -23.7260   20.4910 C   0  0  0  0  0  0  0  0  0  0  0  0
  -29.6670  -23.0790   20.2430 C   0  0  0  0  0  0  0  0  0  0  0  0
  -30.8830  -23.5580   19.9410 C   0  0  0  0  0  2  0  0  0  0  0  0
  -27.8730  -24.9720   20.5730 C   0  0  0  0  0  3  0  0  0  0  0  0
  -27.8460  -22.3510   20.7040 C   0  0  0  0  0  2  0  0  0  0  0  0
  -30.5150  -19.6240   20.7360 N   0  0  0  0  0  0  0  0  0  0  0  0
  -29.1540  -21.7580   20.3930 N   0  0  0  0  0  0  0  0  0  0  0  0
  -31.2950  -20.2240   21.0210 H   0  0  0  0  0  0  0  0  0  0  0  0
  -30.5490  -14.7790   20.3740 C   0  0  0  0  0  0  0  0  0  0  0  0
  -30.3830  -12.5050   19.3390 C   0  0  0  0  0  2  0  0  0  0  0  0
  -29.4230  -12.5850   18.1300 C   0  0  0  0  0  2  0  0  0  0  0  0
  -27.9570  -12.4030   18.5720 C   0  0  0  0  0  2  0  0  0  0  0  0
  -27.5910  -13.2730   19.8040 C   0  0  0  0  0  3  0  0  0  0  0  0
  -28.6650  -13.1600   20.9100 C   0  0  0  0  0  2  0  0  0  0  0  0
  -29.9590  -13.5340   20.3140 N   0  0  0  0  0  0  0  0  0  0  0  0
  -31.7270  -14.9360   20.0380 O   0  0  0  0  0  0  0  0  0  0  0  0
  -29.7000  -15.8350   20.6260 N   0  0  0  0  0  0  0  0  0  0  0  0
  -28.7580  -15.5100   20.7870 H   0  0  0  0  0  0  0  0  0  0  0  0
  -25.2010  -13.8540   20.5490 C   0  0  0  0  0  0  0  0  0  0  0  0
  -24.1390  -13.0750   20.9140 C   0  0  0  0  0  0  0  0  0  0  0  0
  -24.6080  -11.7280   20.8740 C   0  0  0  0  0  0  0  0  0  0  0  0
  -26.2500  -12.9810   20.3020 N   0  0  0  0  0  0  0  0  0  0  0  0
  -25.8970  -11.6960   20.5610 N   0  0  0  0  0  0  0  0  0  0  0  0
  -23.8850  -10.4640   21.0630 C   0  0  0  0  0  0  0  0  0  0  0  0
  -24.3270   -9.4910   21.9860 C   0  0  0  0  0  3  0  0  0  0  0  0
  -23.6030   -8.2930   22.1630 C   0  0  0  0  0  3  0  0  0  0  0  0
  -22.4240   -8.0590   21.4170 C   0  0  0  0  0  0  0  0  0  0  0  0
  -22.0010   -9.0210   20.4840 C   0  0  0  0  0  3  0  0  0  0  0  0
  -22.7240  -10.2110   20.3040 C   0  0  0  0  0  3  0  0  0  0  0  0
  -21.6710   -6.9120   21.5030 O   0  0  0  0  0  0  0  0  0  0  0  0
  -21.6350   -6.1610   22.6510 C   0  0  0  0  0  0  0  0  0  0  0  0
  -21.2180   -6.7060   23.8850 C   0  0  0  0  0  3  0  0  0  0  0  0
  -21.1290   -5.8810   25.0240 C   0  0  0  0  0  3  0  0  0  0  0  0
  -21.4460   -4.5120   24.9300 C   0  0  0  0  0  0  0  0  0  0  0  0
  -21.8550   -3.9670   23.7000 C   0  0  0  0  0  3  0  0  0  0  0  0
  -21.9470   -4.7900   22.5630 C   0  0  0  0  0  0  0  0  0  0  0  0
  -22.3210   -4.2550   21.3760 F   0  0  0  0  0  0  0  0  0  0  0  0
  -21.3530   -3.7180   26.0210 F   0  0  0  0  0  0  0  0  0  0  0  0
  -22.7410  -13.5490   21.1930 C   0  0  0  0  0  0  0  0  0  0  0  0
  -22.0220  -12.8530   22.0660 N   0  0  0  0  0  0  0  0  0  0  0  0
  -22.2970  -14.5730   20.6760 O   0  0  0  0  0  0  0  0  0  0  0  0
  -22.3930  -12.0250   22.5080 H   0  0  0  0  0  0  0  0  0  0  0  0
  -21.0850  -13.1520   22.2970 H   0  0  0  0  0  0  0  0  0  0  0  0
  -25.3410  -15.2280   20.3920 N   0  0  0  0  0  0  0  0  0  0  0  0
  -24.5560  -15.8520   20.5360 H   0  0  0  0  0  0  0  0  0  0  0  0
  -26.1860  -15.7330   20.1270 H   0  0  0  0  0  0  0  0  0  0  0  0
  -27.4960  -17.0970   19.5310 N   0  0  0  0  0  0  0  0  0  0  0  0
  -26.7440  -17.6070   19.0860 H   0  0  0  0  0  0  0  0  0  0  0  0
  -27.8570  -16.4180   18.8720 H   0  0  0  0  0  0  0  0  0  0  0  0
  -28.2580  -26.3340   20.3480 O   0  0  0  0  0  0  0  0  0  0  0  0
  -24.6150  -31.9280   23.2700 C   0  0  0  0  0  0  0  0  0  0  0  0
  -27.2090  -27.2890   20.2650 C   0  0  0  0  0  0  0  0  0  0  0  0
  -23.4150  -30.5280   21.6310 C   0  0  0  0  0  3  0  0  0  0  0  0
  -24.8680  -28.9600   20.2180 C   0  0  0  0  0  0  0  0  0  0  0  0
  -25.9630  -30.8110   21.4730 C   0  0  0  0  0  2  0  0  0  0  0  0
  -26.0380  -29.4250   20.8340 C   0  0  0  0  0  0  0  0  0  0  0  0
  -27.2110  -28.5990   20.8560 C   0  0  0  0  0  3  0  0  0  0  0  0
  -26.0260  -26.9140   19.5880 C   0  0  0  0  0  3  0  0  0  0  0  0
  -24.8670  -27.7110   19.5830 C   0  0  0  0  0  3  0  0  0  0  0  0
  -23.6370  -29.8460   20.2560 C   0  0  0  0  0  2  0  0  0  0  0  0
  -24.6830  -31.1080   22.1800 N   0  0  0  0  0  0  0  0  0  0  0  0
  -23.5300  -32.2190   23.7930 O   0  0  0  0  0  0  0  0  0  0  0  0
  -22.7360  -29.5230   22.5930 C   0  0  0  0  0  0  0  0  0  0  0  0
  -21.4070  -29.3600   22.4630 N   0  0  0  0  0  0  0  0  0  0  0  0
  -23.4030  -28.8930   23.4180 O   0  0  0  0  0  0  0  0  0  0  0  0
  -20.9270  -29.9200   21.7720 H   0  0  0  0  0  0  0  0  0  0  0  0
  -18.0130  -28.2060   22.9670 C   0  0  0  0  0  0  0  0  0  0  0  0
  -20.5750  -28.4350   23.2370 C   0  0  0  0  0  3  0  0  0  0  0  0
  -20.6590  -27.0010   22.6660 C   0  0  0  0  0  2  0  0  0  0  0  0
  -19.5540  -26.6880   21.6530 C   0  0  0  0  0  2  0  0  0  0  0  0
  -18.1740  -26.8520   22.2960 C   0  0  0  0  0  2  0  0  0  0  0  0
  -19.1410  -28.9560   23.3950 C   0  0  0  0  0  0  0  0  0  0  0  0
  -18.9370  -30.2230   23.9840 C   0  0  0  0  0  3  0  0  0  0  0  0
  -17.6380  -30.7400   24.1480 C   0  0  0  0  0  3  0  0  0  0  0  0
  -16.5250  -29.9860   23.7350 C   0  0  0  0  0  3  0  0  0  0  0  0
  -16.7130  -28.7210   23.1510 C   0  0  0  0  0  3  0  0  0  0  0  0
  -25.8960  -32.5580   23.8960 C   0  0  0  0  0  3  0  0  0  0  0  0
  -25.5920  -33.9590   24.2200 N   0  0  0  0  0  0  0  0  0  0  0  0
  -25.9180  -35.0080   23.4530 C   0  0  0  0  0  0  0  0  0  0  0  0
  -26.5780  -34.8980   22.4160 O   0  0  0  0  0  0  0  0  0  0  0  0
  -25.0040  -34.1180   25.0260 H   0  0  0  0  0  0  0  0  0  0  0  0
  -24.1830  -36.7980   23.1180 C   0  0  0  0  0  1  0  0  0  0  0  0
  -25.4390  -36.4000   23.9090 C   0  0  0  0  0  3  0  0  0  0  0  0
  -27.5880  -37.2930   24.6950 C   0  0  0  0  0  1  0  0  0  0  0  0
  -26.4690  -37.4530   23.7700 N   0  0  0  0  0  0  0  0  0  0  0  0
  -26.0650  -38.3740   23.9160 H   0  0  0  0  0  0  0  0  0  0  0  0
  -26.4020  -31.7890   25.1780 C   0  0  1  0  0  0  0  0  0  0  0  0
  -25.3010  -31.5630   26.2410 C   0  0  0  0  0  1  0  0  0  0  0  0
  -26.9790  -30.4060   24.7990 C   0  0  0  0  0  1  0  0  0  0  0  0
  -27.5520  -32.5810   25.8440 C   0  0  0  0  0  1  0  0  0  0  0  0
  1  5  2  0
  3  1  1  0
  3  4  2  0
  4 22  1  0
  4  2  1  0
  5 12  1  0
  5 11  1  0
  6  9  2  0
  6 10  1  0
  7 12  1  0
  7  6  1  0
  8  7  2  0
 11  2  1  0
 11 13  1  0
 12 10  1  0
 14 22  1  0
 15 20  1  0
 16 17  1  0
 16 15  1  0
 18 17  1  0
 18 27  1  0
 18 19  1  0
 20 14  1  0
 20 19  1  0
 21 14  2  0
 22 23  1  0
 24 25  2  0
 25 44  1  0
 26 25  1  0
 26 29  1  0
 27 24  1  0
 27 28  1  0
 28 26  2  0
 29 30  1  0
 30 31  2  0
 32 35  1  0
 32 31  1  0
 33 32  2  0
 34 33  1  0
 34 29  2  0
 35 36  1  0
 36 37  1  0
 37 38  2  0
 39 38  1  0
 39 43  1  0
 40 39  2  0
 41 36  2  0
 41 40  1  0
 42 41  1  0
 44 45  1  0
 45 48  1  0
 45 47  1  0
 46 44  2  0
 49 50  1  0
 49 24  1  0
 51 49  1  0
 52  3  1  0
 53 52  1  0
 54 52  1  0
 55  9  1  0
 56 67  2  0
 57 55  1  0
 57 62  1  0
 58 66  1  0
 58 68  1  0
 59 65  1  0
 59 61  1  0
 60 66  1  0
 61 62  2  0
 61 60  1  0
 63 57  2  0
 64 63  1  0
 64 59  2  0
 65 58  1  0
 66 56  1  0
 68 70  2  0
 69 68  1  0
 71 69  1  0
 72 81  2  0
 72 77  1  0
 73 69  1  0
 73 77  1  0
 74 73  1  0
 75 76  1  0
 75 74  1  0
 76 72  1  0
 77 78  2  0
 78 79  1  0
 80 79  2  0
 81 80  1  0
 82 56  1  0
 82 83  1  0
 82 92  1  0
 83 86  1  0
 84 88  1  0
 84 83  1  0
 85 84  2  0
 88 87  1  0
 90 88  1  0
 90 91  1  0
 90 89  1  0
 92 95  1  1
 92 93  1  0
 94 92  1  0
M  ISO  4   9 101  14 100  22 100  55 101
M  END
>  <TORSDO>  (74) 
F 17

>  <SCORE>  (74) 
-15.745

>  <name>  (74) 
73

>  <ligand_id>  (74) 
73

>  <original_smiles>  (74) 
[H]C([H])=C1C(=C([H])Oc2c([H])c([H])c3c(c2[H])C([H])([H])N(C(=O)C([H])(N([H])C(=O)C([H])(N([H])C([H])([H])[H])C([H])([H])[H])C(C([H])([H])[H])(C([H])([H])[H])C([H])([H])[H])C([H])(C(=O)N([H])C2([H])c4c([H])c([H])c([H])c([H])c4C([H])([H])C([H])([H])C2([H])[H])C3([H])[H])C([H])([H])N1c1c([H])c(N([H])[H])c(N([H])C(=O)N2C([H])([H])C([H])([H])C([H])([H])C([H])(n3nc(-c4c([H])c([H])c(Oc5c([H])c([H])c(F)c([H])c5F)c([H])c4[H])c(C(=O)N([H])[H])c3N([H])[H])C2([H])[H])c([H])[n+]1[H]

>  <smiles>  (74) 
[H]C([H])=C1C(=C([H])Oc2c([H])c([H])c3c(c2[H])C([H])([H])N(C(=O)C([H])(N([H])C(=O)C([H])(N([H])C([H])([H])[H])C([H])([H])[H])C(C([H])([H])[H])(C([H])([H])[H])C([H])([H])[H])C([H])(C(=O)N([H])C2([H])c4c([H])c([H])c([H])c([H])c4C([H])([H])C([H])([H])C2([H])[H])C3([H])[H])C([H])([H])N1c1c([H])c(N([H])[H])c(N([H])C(=O)N2C([H])([H])C([H])([H])C([H])([H])C([H])(n3nc(-c4c([H])c([H])c(Oc5c([H])c([H])c(F)c([H])c5F)c([H])c4[H])c(C(=O)N([H])[H])c3N([H])[H])C2([H])[H])c([H])[n+]1[H]

$$$$
74:0:0
     RDKit          3D

 95103  0  0  1  0  0  0  0  0999 V2000
  -29.6360  -21.3290   21.7780 C   0  0  0  0  0  0  0  0  0  0  0  0
  -29.3580  -21.3240   23.0830 N   0  0  0  0  0  4  0  0  0  0  0  0
  -29.3880  -22.5260   21.1850 N   0  0  0  0  0  0  0  0  0  0  0  0
  -29.4550  -20.4580   23.5950 H   0  0  0  0  0  0  0  0  0  0  0  0
  -29.0840  -22.1420   23.6000 H   0  0  0  0  0  0  0  0  0  0  0  0
  -28.9220  -23.1900   21.7830 H   0  0  0  0  0  0  0  0  0  0  0  0
  -29.3350  -19.3890   20.1900 C   0  0  0  0  0  3  0  0  0  0  0  0
  -29.4850  -17.9960   19.9540 C   0  0  0  0  0  3  0  0  0  0  0  0
  -31.2810  -17.9010   21.5840 C   0  0  0  0  0  3  0  0  0  0  0  0
  -30.0920  -20.0340   21.1950 C   0  0  0  0  0  0  0  0  0  0  0  0
  -30.4160  -17.2240   20.6950 C   0  0  0  0  0  0  0  0  0  0  0  0
  -31.1210  -19.2860   21.8340 C   0  0  0  0  0  0  0  0  0  0  0  0
  -31.9020  -19.8650   22.7800 F   0  0  0  0  0  0  0  0  0  0  0  0
  -31.0420  -14.8170   20.2190 C   0  0  0  0  0  0  0  0  0  0  0  0
  -30.7980  -12.6000   19.1470 C   0  0  0  0  0  2  0  0  0  0  0  0
  -29.8240  -12.7410   17.9590 C   0  0  0  0  0  2  0  0  0  0  0  0
  -28.3560  -12.6090   18.4150 C   0  0  0  0  0  2  0  0  0  0  0  0
  -28.0330  -13.4770   19.6600 C   0  0  0  0  0  3  0  0  0  0  0  0
  -29.1110  -13.2810   20.7500 C   0  0  0  0  0  2  0  0  0  0  0  0
  -30.4200  -13.6040   20.1540 N   0  0  0  0  0  0  0  0  0  0  0  0
  -32.1540  -15.0270   19.7270 O   0  0  0  0  0  0  0  0  0  0  0  0
  -30.2840  -15.7980   20.7530 N   0  0  0  0  0  0  0  0  0  0  0  0
  -29.3930  -15.4710   21.0950 H   0  0  0  0  0  0  0  0  0  0  0  0
  -25.6590  -14.1160   20.4280 C   0  0  0  0  0  0  0  0  0  0  0  0
  -24.5840  -13.3540   20.8030 C   0  0  0  0  0  0  0  0  0  0  0  0
  -25.0190  -11.9970   20.7340 C   0  0  0  0  0  0  0  0  0  0  0  0
  -26.6840  -13.2200   20.1610 N   0  0  0  0  0  0  0  0  0  0  0  0
  -26.3010  -11.9400   20.3980 N   0  0  0  0  0  0  0  0  0  0  0  0
  -24.2730  -10.7450   20.9140 C   0  0  0  0  0  0  0  0  0  0  0  0
  -24.6330   -9.8090   21.9080 C   0  0  0  0  0  3  0  0  0  0  0  0
  -23.8900   -8.6200   22.0770 C   0  0  0  0  0  3  0  0  0  0  0  0
  -22.7730   -8.3580   21.2500 C   0  0  0  0  0  0  0  0  0  0  0  0
  -22.4320   -9.2820   20.2450 C   0  0  0  0  0  3  0  0  0  0  0  0
  -23.1760  -10.4620   20.0750 C   0  0  0  0  0  3  0  0  0  0  0  0
  -22.0070   -7.2190   21.3220 O   0  0  0  0  0  0  0  0  0  0  0  0
  -21.7810   -6.5780   22.5130 C   0  0  0  0  0  0  0  0  0  0  0  0
  -21.1230   -7.2130   23.5890 C   0  0  0  0  0  3  0  0  0  0  0  0
  -20.8520   -6.4950   24.7710 C   0  0  0  0  0  3  0  0  0  0  0  0
  -21.2270   -5.1420   24.8750 C   0  0  0  0  0  0  0  0  0  0  0  0
  -21.8790   -4.5070   23.8030 C   0  0  0  0  0  3  0  0  0  0  0  0
  -22.1520   -5.2230   22.6250 C   0  0  0  0  0  0  0  0  0  0  0  0
  -22.7620   -4.6000   21.5880 F   0  0  0  0  0  0  0  0  0  0  0  0
  -20.9570   -4.4500   26.0070 F   0  0  0  0  0  0  0  0  0  0  0  0
  -23.2020  -13.8540   21.1100 C   0  0  0  0  0  0  0  0  0  0  0  0
  -22.4800  -13.1580   21.9830 N   0  0  0  0  0  0  0  0  0  0  0  0
  -22.7710  -14.8930   20.6150 O   0  0  0  0  0  0  0  0  0  0  0  0
  -22.8450  -12.3180   22.4090 H   0  0  0  0  0  0  0  0  0  0  0  0
  -21.5540  -13.4750   22.2330 H   0  0  0  0  0  0  0  0  0  0  0  0
  -25.8400  -15.4860   20.2780 N   0  0  0  0  0  0  0  0  0  0  0  0
  -25.0730  -16.1380   20.3980 H   0  0  0  0  0  0  0  0  0  0  0  0
  -26.6850  -15.9320   19.9450 H   0  0  0  0  0  0  0  0  0  0  0  0
  -29.5270  -23.0590   19.8090 C   0  0  0  0  0  2  0  0  0  0  0  0
  -29.6460  -24.6290   19.7770 C   0  0  0  0  0  3  0  0  0  0  0  0
  -28.3080  -25.4320   19.7380 C   0  0  0  0  0  3  0  0  0  0  0  0
  -28.4510  -26.8800   19.8020 O   0  0  0  0  0  0  0  0  0  0  0  0
  -24.6330  -31.8500   23.2730 C   0  0  0  0  0  0  0  0  0  0  0  0
  -27.2810  -27.6330   19.8520 C   0  0  0  0  0  0  0  0  0  0  0  0
  -23.4190  -30.5400   21.5660 C   0  0  0  0  0  3  0  0  0  0  0  0
  -24.8680  -29.1320   20.0110 C   0  0  0  0  0  0  0  0  0  0  0  0
  -25.9410  -30.9470   21.3480 C   0  0  0  0  0  2  0  0  0  0  0  0
  -26.0360  -29.6230   20.6080 C   0  0  0  0  0  0  0  0  0  0  0  0
  -27.2450  -28.8850   20.5230 C   0  0  0  0  0  3  0  0  0  0  0  0
  -26.0870  -27.1750   19.2450 C   0  0  0  0  0  3  0  0  0  0  0  0
  -24.8910  -27.9080   19.3270 C   0  0  0  0  0  3  0  0  0  0  0  0
  -23.6170  -29.9720   20.1370 C   0  0  0  0  0  2  0  0  0  0  0  0
  -24.6840  -31.1250   22.1190 N   0  0  0  0  0  0  0  0  0  0  0  0
  -23.5570  -32.0640   23.8470 O   0  0  0  0  0  0  0  0  0  0  0  0
  -22.8090  -29.4400   22.4670 C   0  0  0  0  0  0  0  0  0  0  0  0
  -21.4970  -29.1950   22.3130 N   0  0  0  0  0  0  0  0  0  0  0  0
  -23.5120  -28.8150   23.2670 O   0  0  0  0  0  0  0  0  0  0  0  0
  -20.9840  -29.7600   21.6500 H   0  0  0  0  0  0  0  0  0  0  0  0
  -18.1910  -27.7750   22.6760 C   0  0  0  0  0  0  0  0  0  0  0  0
  -20.7190  -28.1840   23.0300 C   0  0  0  0  0  3  0  0  0  0  0  0
  -20.9280  -26.7820   22.4140 C   0  0  0  0  0  2  0  0  0  0  0  0
  -19.8750  -26.4240   21.3590 C   0  0  0  0  0  2  0  0  0  0  0  0
  -18.4700  -26.4630   21.9640 C   0  0  0  0  0  2  0  0  0  0  0  0
  -19.2470  -28.5900   23.1620 C   0  0  0  0  0  0  0  0  0  0  0  0
  -18.9300  -29.8180   23.7840 C   0  0  0  0  0  3  0  0  0  0  0  0
  -17.5920  -30.2320   23.9240 C   0  0  0  0  0  3  0  0  0  0  0  0
  -16.5500  -29.4140   23.4500 C   0  0  0  0  0  3  0  0  0  0  0  0
  -16.8510  -28.1860   22.8330 C   0  0  0  0  0  3  0  0  0  0  0  0
  -25.9180  -32.4640   23.9080 C   0  0  0  0  0  3  0  0  0  0  0  0
  -26.4320  -31.6690   25.1700 C   0  0  1  0  0  0  0  0  0  0  0  0
  -25.3350  -31.3990   26.2270 C   0  0  0  0  0  1  0  0  0  0  0  0
  -27.0240  -30.3040   24.7480 C   0  0  0  0  0  1  0  0  0  0  0  0
  -27.5740  -32.4550   25.8540 C   0  0  0  0  0  1  0  0  0  0  0  0
  -25.6140  -33.8580   24.2610 N   0  0  0  0  0  0  0  0  0  0  0  0
  -25.9590  -34.9210   23.5240 C   0  0  0  0  0  0  0  0  0  0  0  0
  -26.6370  -34.8320   22.4980 O   0  0  0  0  0  0  0  0  0  0  0  0
  -25.0180  -34.0040   25.0620 H   0  0  0  0  0  0  0  0  0  0  0  0
  -24.2480  -36.7270   23.1790 C   0  0  0  0  0  1  0  0  0  0  0  0
  -25.4750  -36.3040   24.0010 C   0  0  0  0  0  3  0  0  0  0  0  0
  -27.5990  -37.1620   24.8840 C   0  0  0  0  0  1  0  0  0  0  0  0
  -26.5170  -37.3520   23.9210 N   0  0  0  0  0  0  0  0  0  0  0  0
  -26.1140  -38.2720   24.0730 H   0  0  0  0  0  0  0  0  0  0  0  0
  1  2  2  0
  2  4  1  0
  2  5  1  0
  3  1  1  0
  3  6  1  0
  7 10  1  0
  8  7  2  0
  8 11  1  0
  9 12  1  0
 10  1  1  0
 10 12  2  0
 11 22  1  0
 11  9  2  0
 12 13  1  0
 14 22  1  0
 15 20  1  0
 16 17  1  0
 16 15  1  0
 18 17  1  0
 18 27  1  0
 18 19  1  0
 20 14  1  0
 20 19  1  0
 21 14  2  0
 22 23  1  0
 24 25  2  0
 25 44  1  0
 26 25  1  0
 26 29  1  0
 27 28  1  0
 27 24  1  0
 28 26  2  0
 29 30  1  0
 30 31  2  0
 32 35  1  0
 32 31  1  0
 33 32  2  0
 34 33  1  0
 34 29  2  0
 35 36  1  0
 36 41  2  0
 36 37  1  0
 37 38  2  0
 38 39  1  0
 39 43  1  0
 40 39  2  0
 41 40  1  0
 42 41  1  0
 44 45  1  0
 45 48  1  0
 45 47  1  0
 46 44  2  0
 49 50  1  0
 49 24  1  0
 51 49  1  0
 52  3  1  0
 53 52  1  0
 54 53  2  0
 54 55  1  0
 55 57  1  0
 56 67  2  0
 57 62  1  0
 58 66  1  0
 58 68  1  0
 59 65  1  0
 59 61  1  0
 60 66  1  0
 61 60  1  0
 62 61  2  0
 63 64  1  0
 63 57  2  0
 64 59  2  0
 65 58  1  0
 66 56  1  0
 68 70  2  0
 69 68  1  0
 71 69  1  0
 72 81  2  0
 72 77  1  0
 73 69  1  0
 73 77  1  0
 74 73  1  0
 75 76  1  0
 75 74  1  0
 76 72  1  0
 77 78  2  0
 78 79  1  0
 80 79  2  0
 81 80  1  0
 82 56  1  0
 82 87  1  0
 82 83  1  0
 83 86  1  1
 83 84  1  0
 85 83  1  0
 87 90  1  0
 88 92  1  0
 88 87  1  0
 89 88  2  0
 92 91  1  0
 94 92  1  0
 94 95  1  0
 94 93  1  0
M  ISO  4  14 100  22 100  54 101  55 101
M  END
>  <TORSDO>  (75) 
F 20

>  <SCORE>  (75) 
-13.703

>  <name>  (75) 
74

>  <ligand_id>  (75) 
74

>  <original_smiles>  (75) 
[H]c1c([H])c([H])c2c(c1[H])C([H])([H])C([H])([H])C([H])([H])C2([H])N([H])C(=O)C1([H])N(C(=O)C([H])(N([H])C(=O)C([H])(N([H])C([H])([H])[H])C([H])([H])[H])C(C([H])([H])[H])(C([H])([H])[H])C([H])([H])[H])C([H])([H])c2c([H])c(OC([H])([H])C([H])([H])C([H])([H])[N+]([H])=C(c3c([H])c([H])c(N([H])C(=O)N4C([H])([H])C([H])([H])C([H])([H])C([H])(n5nc(-c6c([H])c([H])c(Oc7c([H])c([H])c(F)c([H])c7F)c([H])c6[H])c(C(=O)N([H])[H])c5N([H])[H])C4([H])[H])c([H])c3F)N([H])[H])c([H])c([H])c2C1([H])[H]

>  <smiles>  (75) 
[H]c1c([H])c([H])c2c(c1[H])C([H])([H])C([H])([H])C([H])([H])C2([H])N([H])C(=O)C1([H])N(C(=O)C([H])(N([H])C(=O)C([H])(N([H])C([H])([H])[H])C([H])([H])[H])C(C([H])([H])[H])(C([H])([H])[H])C([H])([H])[H])C([H])([H])c2c([H])c(OC([H])([H])C([H])([H])C([H])([H])[N+]([H])=C(c3c([H])c([H])c(N([H])C(=O)N4C([H])([H])C([H])([H])C([H])([H])C([H])(n5nc(-c6c([H])c([H])c(Oc7c([H])c([H])c(F)c([H])c7F)c([H])c6[H])c(C(=O)N([H])[H])c5N([H])[H])C4([H])[H])c([H])c3F)N([H])[H])c([H])c([H])c2C1([H])[H]

$$$$
75:0:0
     RDKit          3D

 93102  0  0  1  0  0  0  0  0999 V2000
  -28.7020  -23.5530   20.1640 C   0  0  0  0  0  0  0  0  0  0  0  0
  -29.8630  -22.9950   19.4610 C   0  0  0  0  0  0  0  0  0  0  0  0
  -28.1430  -24.8230   20.4550 C   0  0  0  0  0  3  0  0  0  0  0  0
  -28.3230  -22.0710   20.5360 C   0  0  0  0  0  2  0  0  0  0  0  0
  -29.4670  -21.6220   19.7010 N   0  0  0  0  0  0  0  0  0  0  0  0
  -30.8280  -23.5540   18.9780 O   0  0  0  0  0  0  0  0  0  0  0  0
  -32.4070  -19.2040   19.7100 C   0  0  0  0  0  3  0  0  0  0  0  0
  -31.5540  -20.3210   19.6970 C   0  0  0  0  0  3  0  0  0  0  0  0
  -31.9150  -17.8930   19.8010 C   0  0  0  0  0  3  0  0  0  0  0  0
  -30.1430  -20.2500   19.7600 C   0  0  0  0  0  0  0  0  0  0  0  0
  -30.5340  -17.6100   19.8610 C   0  0  0  0  0  0  0  0  0  0  0  0
  -29.6730  -18.8350   19.8220 C   0  0  0  0  0  0  0  0  0  0  0  0
  -28.3300  -18.6630   19.7910 F   0  0  0  0  0  0  0  0  0  0  0  0
  -30.8160  -14.9500   19.6060 C   0  0  0  0  0  0  0  0  0  0  0  0
  -30.5690  -12.6500   18.5520 C   0  0  0  0  0  2  0  0  0  0  0  0
  -29.4980  -12.6560   17.4350 C   0  0  0  0  0  2  0  0  0  0  0  0
  -28.0860  -12.4310   18.0130 C   0  0  0  0  0  2  0  0  0  0  0  0
  -27.8280  -13.2910   19.2760 C   0  0  0  0  0  3  0  0  0  0  0  0
  -29.0030  -13.1810   20.2650 C   0  0  0  0  0  2  0  0  0  0  0  0
  -30.2000  -13.6890   19.5650 N   0  0  0  0  0  0  0  0  0  0  0  0
  -31.9120  -15.0220   19.0370 O   0  0  0  0  0  0  0  0  0  0  0  0
  -30.1770  -16.1330   20.1200 N   0  0  0  0  0  0  0  0  0  0  0  0
  -25.5520  -13.8410   20.3150 C   0  0  0  0  0  0  0  0  0  0  0  0
  -24.5320  -13.0500   20.7650 C   0  0  0  0  0  0  0  0  0  0  0  0
  -24.9770  -11.7010   20.6060 C   0  0  0  0  0  0  0  0  0  0  0  0
  -26.5520  -12.9740   19.9070 N   0  0  0  0  0  0  0  0  0  0  0  0
  -26.2220  -11.6770   20.1440 N   0  0  0  0  0  0  0  0  0  0  0  0
  -24.2670  -10.4320   20.8140 C   0  0  0  0  0  0  0  0  0  0  0  0
  -24.7140   -9.4810   21.7570 C   0  0  0  0  0  3  0  0  0  0  0  0
  -24.0030   -8.2780   21.9520 C   0  0  0  0  0  3  0  0  0  0  0  0
  -22.8320   -8.0160   21.2030 C   0  0  0  0  0  0  0  0  0  0  0  0
  -22.4030   -8.9570   20.2490 C   0  0  0  0  0  3  0  0  0  0  0  0
  -23.1150  -10.1520   20.0540 C   0  0  0  0  0  3  0  0  0  0  0  0
  -22.0910   -6.8640   21.3070 O   0  0  0  0  0  0  0  0  0  0  0  0
  -21.9560   -6.2000   22.5000 C   0  0  0  0  0  0  0  0  0  0  0  0
  -21.4060   -6.8230   23.6420 C   0  0  0  0  0  3  0  0  0  0  0  0
  -21.2190   -6.0830   24.8250 C   0  0  0  0  0  3  0  0  0  0  0  0
  -21.5740   -4.7220   24.8690 C   0  0  0  0  0  0  0  0  0  0  0  0
  -22.1160   -4.0980   23.7320 C   0  0  0  0  0  3  0  0  0  0  0  0
  -22.3030   -4.8340   22.5500 C   0  0  0  0  0  0  0  0  0  0  0  0
  -22.8080   -4.2240   21.4510 F   0  0  0  0  0  0  0  0  0  0  0  0
  -21.3880   -4.0090   26.0040 F   0  0  0  0  0  0  0  0  0  0  0  0
  -23.1820  -13.5140   21.2270 C   0  0  0  0  0  0  0  0  0  0  0  0
  -22.5690  -12.7910   22.1570 N   0  0  0  0  0  0  0  0  0  0  0  0
  -22.6830  -14.5550   20.7990 O   0  0  0  0  0  0  0  0  0  0  0  0
  -22.9870  -11.9490   22.5250 H   0  0  0  0  0  0  0  0  0  0  0  0
  -21.6680  -13.0850   22.5080 H   0  0  0  0  0  0  0  0  0  0  0  0
  -25.7060  -15.2180   20.1960 N   0  0  0  0  0  0  0  0  0  0  0  0
  -24.9750  -15.8710   20.4540 H   0  0  0  0  0  0  0  0  0  0  0  0
  -26.5460  -15.6740   19.8630 H   0  0  0  0  0  0  0  0  0  0  0  0
  -28.4390  -16.4910   21.8370 C   0  0  0  0  0  2  0  0  0  0  0  0
  -29.5920  -15.9670   21.3870 C   0  0  0  0  0  3  0  0  0  0  0  0
  -28.4560  -26.2190   20.1850 O   0  0  0  0  0  0  0  0  0  0  0  0
  -24.6300  -31.7990   23.0930 C   0  0  0  0  0  0  0  0  0  0  0  0
  -27.3860  -27.1750   20.1290 C   0  0  0  0  0  0  0  0  0  0  0  0
  -23.4880  -30.3510   21.4560 C   0  0  0  0  0  3  0  0  0  0  0  0
  -25.0000  -28.8150   20.0590 C   0  0  0  0  0  0  0  0  0  0  0  0
  -26.0300  -30.7050   21.3090 C   0  0  0  0  0  2  0  0  0  0  0  0
  -26.1560  -29.3110   20.6770 C   0  0  0  0  0  0  0  0  0  0  0  0
  -27.3520  -28.5060   20.7000 C   0  0  0  0  0  3  0  0  0  0  0  0
  -26.2070  -26.7750   19.4660 C   0  0  0  0  0  3  0  0  0  0  0  0
  -25.0350  -27.5570   19.4410 C   0  0  0  0  0  3  0  0  0  0  0  0
  -23.7420  -29.6680   20.0870 C   0  0  0  0  0  2  0  0  0  0  0  0
  -24.7350  -30.9740   22.0080 N   0  0  0  0  0  0  0  0  0  0  0  0
  -23.5330  -32.0540   23.6100 O   0  0  0  0  0  0  0  0  0  0  0  0
  -22.8350  -29.3310   22.4210 C   0  0  0  0  0  0  0  0  0  0  0  0
  -21.5110  -29.1340   22.2990 N   0  0  0  0  0  0  0  0  0  0  0  0
  -23.5220  -28.7210   23.2450 O   0  0  0  0  0  0  0  0  0  0  0  0
  -21.0120  -29.6800   21.6090 H   0  0  0  0  0  0  0  0  0  0  0  0
  -18.1550  -27.8690   22.8090 C   0  0  0  0  0  0  0  0  0  0  0  0
  -20.7080  -28.1850   23.0740 C   0  0  0  0  0  3  0  0  0  0  0  0
  -20.8380  -26.7520   22.5070 C   0  0  0  0  0  2  0  0  0  0  0  0
  -19.7430  -26.4030   21.4940 C   0  0  0  0  0  2  0  0  0  0  0  0
  -18.3590  -26.5220   22.1380 C   0  0  0  0  0  2  0  0  0  0  0  0
  -19.2570  -28.6570   23.2340 C   0  0  0  0  0  0  0  0  0  0  0  0
  -19.0130  -29.9170   23.8230 C   0  0  0  0  0  3  0  0  0  0  0  0
  -17.6970  -30.3900   23.9900 C   0  0  0  0  0  3  0  0  0  0  0  0
  -16.6090  -29.6000   23.5800 C   0  0  0  0  0  3  0  0  0  0  0  0
  -16.8390  -28.3420   22.9960 C   0  0  0  0  0  3  0  0  0  0  0  0
  -25.8830  -32.4800   23.7220 C   0  0  0  0  0  3  0  0  0  0  0  0
  -25.5140  -33.8590   24.0760 N   0  0  0  0  0  0  0  0  0  0  0  0
  -25.8170  -34.9420   23.3480 C   0  0  0  0  0  0  0  0  0  0  0  0
  -26.5030  -34.8880   22.3250 O   0  0  0  0  0  0  0  0  0  0  0  0
  -24.9030  -33.9700   24.8720 H   0  0  0  0  0  0  0  0  0  0  0  0
  -24.0430  -36.6930   22.9940 C   0  0  0  0  0  1  0  0  0  0  0  0
  -25.2720  -36.3020   23.8310 C   0  0  0  0  0  3  0  0  0  0  0  0
  -27.3510  -37.2310   24.7530 C   0  0  0  0  0  1  0  0  0  0  0  0
  -26.2730  -37.3900   23.7790 N   0  0  0  0  0  0  0  0  0  0  0  0
  -25.8340  -38.2930   23.9350 H   0  0  0  0  0  0  0  0  0  0  0  0
  -26.4320  -31.7150   24.9890 C   0  0  1  0  0  0  0  0  0  0  0  0
  -25.3500  -31.4130   26.0520 C   0  0  0  0  0  1  0  0  0  0  0  0
  -27.0800  -30.3710   24.5840 C   0  0  0  0  0  1  0  0  0  0  0  0
  -27.5430  -32.5510   25.6660 C   0  0  0  0  0  1  0  0  0  0  0  0
  1  3  2  0
  1  4  1  0
  2  5  1  0
  2  1  1  0
  5 10  1  0
  5  4  1  0
  6  2  2  0
  7  9  1  0
  8  7  2  0
  8 10  1  0
  9 11  2  0
 10 12  2  0
 11 22  1  0
 12 11  1  0
 13 12  1  0
 14 22  1  0
 15 20  1  0
 16 17  1  0
 16 15  1  0
 18 17  1  0
 18 26  1  0
 18 19  1  0
 20 14  1  0
 20 19  1  0
 21 14  2  0
 22 52  1  0
 23 24  2  0
 24 43  1  0
 25 24  1  0
 25 28  1  0
 26 27  1  0
 26 23  1  0
 27 25  2  0
 28 29  1  0
 29 30  2  0
 31 34  1  0
 31 30  1  0
 32 31  2  0
 33 32  1  0
 33 28  2  0
 34 35  1  0
 35 40  2  0
 35 36  1  0
 36 37  2  0
 37 38  1  0
 38 42  1  0
 39 38  2  0
 40 39  1  0
 41 40  1  0
 43 44  1  0
 44 47  1  0
 44 46  1  0
 45 43  2  0
 48 23  1  0
 48 49  1  0
 50 48  1  0
 52 51  2  0
 53  3  1  0
 54 65  2  0
 55 53  1  0
 55 60  1  0
 56 64  1  0
 56 66  1  0
 57 63  1  0
 57 59  1  0
 58 64  1  0
 59 60  2  0
 59 58  1  0
 61 55  2  0
 62 61  1  0
 62 57  2  0
 63 56  1  0
 64 54  1  0
 66 68  2  0
 67 66  1  0
 69 67  1  0
 70 79  2  0
 70 75  1  0
 71 67  1  0
 71 75  1  0
 72 71  1  0
 73 74  1  0
 73 72  1  0
 74 70  1  0
 75 76  2  0
 76 77  1  0
 78 77  2  0
 79 78  1  0
 80 54  1  0
 80 81  1  0
 80 90  1  0
 81 84  1  0
 82 86  1  0
 82 81  1  0
 83 82  2  0
 86 85  1  0
 88 86  1  0
 88 89  1  0
 88 87  1  0
 90 93  1  1
 90 91  1  0
 92 90  1  0
M  ISO  4   3 101  14 100  22 100  53 101
M  END
>  <TORSDO>  (76) 
F 18

>  <SCORE>  (76) 
-11.998

>  <name>  (76) 
75

>  <ligand_id>  (76) 
75

>  <original_smiles>  (76) 
[H]C([H])=C([H])N(C(=O)N1C([H])([H])C([H])([H])C([H])([H])C([H])(n2nc(-c3c([H])c([H])c(Oc4c([H])c([H])c(F)c([H])c4F)c([H])c3[H])c(C(=O)N([H])[H])c2N([H])[H])C1([H])[H])c1c([H])c([H])c([H])c(N2C(=O)C(=C([H])Oc3c([H])c([H])c4c(c3[H])C([H])([H])N(C(=O)C([H])(N([H])C(=O)C([H])(N([H])C([H])([H])[H])C([H])([H])[H])C(C([H])([H])[H])(C([H])([H])[H])C([H])([H])[H])C([H])(C(=O)N([H])C3([H])c5c([H])c([H])c([H])c([H])c5C([H])([H])C([H])([H])C3([H])[H])C4([H])[H])C2([H])[H])c1F

>  <smiles>  (76) 
[H]C([H])=C([H])N(C(=O)N1C([H])([H])C([H])([H])C([H])([H])C([H])(n2nc(-c3c([H])c([H])c(Oc4c([H])c([H])c(F)c([H])c4F)c([H])c3[H])c(C(=O)N([H])[H])c2N([H])[H])C1([H])[H])c1c([H])c([H])c([H])c(N2C(=O)C(=C([H])Oc3c([H])c([H])c4c(c3[H])C([H])([H])N(C(=O)C([H])(N([H])C(=O)C([H])(N([H])C([H])([H])[H])C([H])([H])[H])C(C([H])([H])[H])(C([H])([H])[H])C([H])([H])[H])C([H])(C(=O)N([H])C3([H])c5c([H])c([H])c([H])c([H])c5C([H])([H])C([H])([H])C3([H])[H])C4([H])[H])C2([H])[H])c1F

$$$$
76:0:0
     RDKit          3D

 95104  0  0  1  0  0  0  0  0999 V2000
  -27.5900  -22.6960   21.7520 C   0  0  0  0  0  2  0  0  0  0  0  0
  -29.0450  -22.7800   19.5400 C   0  0  0  0  0  3  0  0  0  0  0  0
  -28.3980  -23.9690   19.9020 C   0  0  0  0  0  0  0  0  0  0  0  0
  -27.6200  -23.8940   21.0590 C   0  0  0  0  0  0  0  0  0  0  0  0
  -28.3180  -21.4780   21.4200 C   0  0  0  0  0  0  0  0  0  0  0  0
  -28.9970  -21.4890   20.2380 N   0  0  0  0  0  0  0  0  0  0  0  0
  -26.9400  -24.8450   21.4970 O   0  0  0  0  0  0  0  0  0  0  0  0
  -28.3310  -20.5340   22.2140 O   0  0  0  0  0  0  0  0  0  0  0  0
  -32.0430  -19.5320   19.0920 C   0  0  0  0  0  3  0  0  0  0  0  0
  -31.1250  -20.5640   19.3580 C   0  0  0  0  0  3  0  0  0  0  0  0
  -31.7290  -18.1790   19.3230 C   0  0  0  0  0  3  0  0  0  0  0  0
  -29.8350  -20.2930   19.8690 C   0  0  0  0  0  0  0  0  0  0  0  0
  -30.4630  -17.7740   19.8170 C   0  0  0  0  0  0  0  0  0  0  0  0
  -29.5210  -18.8660   20.0610 C   0  0  0  0  0  0  0  0  0  0  0  0
  -28.2780  -18.5070   20.4690 F   0  0  0  0  0  0  0  0  0  0  0  0
  -30.9180  -15.1610   19.8520 C   0  0  0  0  0  0  0  0  0  0  0  0
  -30.7030  -12.8350   18.9550 C   0  0  0  0  0  2  0  0  0  0  0  0
  -29.7100  -12.8340   17.7720 C   0  0  0  0  0  2  0  0  0  0  0  0
  -28.2670  -12.6490   18.2790 C   0  0  0  0  0  2  0  0  0  0  0  0
  -27.9310  -13.5710   19.4810 C   0  0  0  0  0  3  0  0  0  0  0  0
  -29.0450  -13.5710   20.5500 C   0  0  0  0  0  2  0  0  0  0  0  0
  -30.2970  -13.9270   19.8740 N   0  0  0  0  0  0  0  0  0  0  0  0
  -32.0930  -15.2080   19.4810 O   0  0  0  0  0  0  0  0  0  0  0  0
  -30.1620  -16.3200   20.0500 N   0  0  0  0  0  0  0  0  0  0  0  0
  -29.2170  -16.1440   20.3610 H   0  0  0  0  0  0  0  0  0  0  0  0
  -25.6070  -14.1340   20.4020 C   0  0  0  0  0  0  0  0  0  0  0  0
  -24.5620  -13.3480   20.8060 C   0  0  0  0  0  0  0  0  0  0  0  0
  -25.0090  -11.9980   20.6760 C   0  0  0  0  0  0  0  0  0  0  0  0
  -26.6240  -13.2620   20.0500 N   0  0  0  0  0  0  0  0  0  0  0  0
  -26.2760  -11.9690   20.2780 N   0  0  0  0  0  0  0  0  0  0  0  0
  -24.2830  -10.7330   20.8530 C   0  0  0  0  0  0  0  0  0  0  0  0
  -24.6820   -9.7800   21.8170 C   0  0  0  0  0  3  0  0  0  0  0  0
  -23.9550   -8.5810   21.9800 C   0  0  0  0  0  3  0  0  0  0  0  0
  -22.8160   -8.3260   21.1790 C   0  0  0  0  0  0  0  0  0  0  0  0
  -22.4380   -9.2670   20.2050 C   0  0  0  0  0  3  0  0  0  0  0  0
  -23.1640  -10.4580   20.0390 C   0  0  0  0  0  3  0  0  0  0  0  0
  -22.0640   -7.1780   21.2510 O   0  0  0  0  0  0  0  0  0  0  0  0
  -21.8470   -6.5340   22.4420 C   0  0  0  0  0  0  0  0  0  0  0  0
  -21.2110   -7.1720   23.5290 C   0  0  0  0  0  3  0  0  0  0  0  0
  -20.9430   -6.4510   24.7100 C   0  0  0  0  0  3  0  0  0  0  0  0
  -21.3040   -5.0930   24.8040 C   0  0  0  0  0  0  0  0  0  0  0  0
  -21.9330   -4.4550   23.7200 C   0  0  0  0  0  3  0  0  0  0  0  0
  -22.2000   -5.1730   22.5420 C   0  0  0  0  0  0  0  0  0  0  0  0
  -22.7880   -4.5470   21.4920 F   0  0  0  0  0  0  0  0  0  0  0  0
  -21.0410   -4.3970   25.9340 F   0  0  0  0  0  0  0  0  0  0  0  0
  -23.1920  -13.8220   21.1960 C   0  0  0  0  0  0  0  0  0  0  0  0
  -22.5190  -13.0900   22.0770 N   0  0  0  0  0  0  0  0  0  0  0  0
  -22.7290  -14.8730   20.7550 O   0  0  0  0  0  0  0  0  0  0  0  0
  -22.9090  -12.2390   22.4530 H   0  0  0  0  0  0  0  0  0  0  0  0
  -21.6020  -13.3870   22.3800 H   0  0  0  0  0  0  0  0  0  0  0  0
  -25.7710  -15.5100   20.2820 N   0  0  0  0  0  0  0  0  0  0  0  0
  -25.0230  -16.1620   20.4930 H   0  0  0  0  0  0  0  0  0  0  0  0
  -26.6000  -15.9680   19.9250 H   0  0  0  0  0  0  0  0  0  0  0  0
  -28.4550  -25.3190   19.0260 C   0  0  0  0  0  2  0  0  0  0  0  0
  -28.4160  -26.7100   19.6110 O   0  0  0  0  0  0  0  0  0  0  0  0
  -24.7110  -31.8710   23.1080 C   0  0  0  0  0  0  0  0  0  0  0  0
  -27.2740  -27.5510   19.6310 C   0  0  0  0  0  0  0  0  0  0  0  0
  -23.4590  -30.5310   21.4550 C   0  0  0  0  0  3  0  0  0  0  0  0
  -24.8700  -29.1250   19.8450 C   0  0  0  0  0  0  0  0  0  0  0  0
  -25.9760  -30.9350   21.1540 C   0  0  0  0  0  2  0  0  0  0  0  0
  -26.0580  -29.6010   20.4130 C   0  0  0  0  0  0  0  0  0  0  0  0
  -27.2570  -28.8240   20.2980 C   0  0  0  0  0  3  0  0  0  0  0  0
  -26.0550  -27.1440   19.0430 C   0  0  0  0  0  3  0  0  0  0  0  0
  -24.8750  -27.9060   19.1480 C   0  0  0  0  0  3  0  0  0  0  0  0
  -23.6130  -29.9520   20.0220 C   0  0  0  0  0  2  0  0  0  0  0  0
  -24.7360  -31.1300   21.9600 N   0  0  0  0  0  0  0  0  0  0  0  0
  -23.6520  -32.0750   23.7190 O   0  0  0  0  0  0  0  0  0  0  0  0
  -22.8860  -29.4360   22.3890 C   0  0  0  0  0  0  0  0  0  0  0  0
  -21.5720  -29.1730   22.2810 N   0  0  0  0  0  0  0  0  0  0  0  0
  -23.6210  -28.8320   23.1730 O   0  0  0  0  0  0  0  0  0  0  0  0
  -21.0310  -29.7140   21.6220 H   0  0  0  0  0  0  0  0  0  0  0  0
  -18.3130  -27.6700   22.7410 C   0  0  0  0  0  0  0  0  0  0  0  0
  -20.8380  -28.1510   23.0310 C   0  0  0  0  0  3  0  0  0  0  0  0
  -21.0700  -26.7470   22.4280 C   0  0  0  0  0  2  0  0  0  0  0  0
  -20.0040  -26.3470   21.4030 C   0  0  0  0  0  2  0  0  0  0  0  0
  -18.6120  -26.3560   22.0400 C   0  0  0  0  0  2  0  0  0  0  0  0
  -19.3580  -28.5200   23.1920 C   0  0  0  0  0  0  0  0  0  0  0  0
  -19.0220  -29.7470   23.8060 C   0  0  0  0  0  3  0  0  0  0  0  0
  -17.6760  -30.1240   23.9770 C   0  0  0  0  0  3  0  0  0  0  0  0
  -16.6470  -29.2710   23.5420 C   0  0  0  0  0  3  0  0  0  0  0  0
  -16.9670  -28.0460   22.9290 C   0  0  0  0  0  3  0  0  0  0  0  0
  -26.0060  -32.5120   23.6940 C   0  0  0  0  0  3  0  0  0  0  0  0
  -25.6830  -33.8940   24.0800 N   0  0  0  0  0  0  0  0  0  0  0  0
  -25.9730  -34.9780   23.3500 C   0  0  0  0  0  0  0  0  0  0  0  0
  -26.6120  -34.9240   22.2960 O   0  0  0  0  0  0  0  0  0  0  0  0
  -25.1160  -34.0090   24.9070 H   0  0  0  0  0  0  0  0  0  0  0  0
  -24.2150  -36.7620   23.1070 C   0  0  0  0  0  1  0  0  0  0  0  0
  -25.4800  -36.3420   23.8740 C   0  0  0  0  0  3  0  0  0  0  0  0
  -27.6160  -37.2320   24.6980 C   0  0  0  0  0  1  0  0  0  0  0  0
  -26.4950  -37.4130   23.7790 N   0  0  0  0  0  0  0  0  0  0  0  0
  -26.0770  -38.3210   23.9600 H   0  0  0  0  0  0  0  0  0  0  0  0
  -26.5890  -31.7170   24.9260 C   0  0  1  0  0  0  0  0  0  0  0  0
  -25.5450  -31.4280   26.0300 C   0  0  0  0  0  1  0  0  0  0  0  0
  -27.1880  -30.3640   24.4760 C   0  0  0  0  0  1  0  0  0  0  0  0
  -27.7470  -32.5210   25.5650 C   0  0  0  0  0  1  0  0  0  0  0  0
  2  3  2  0
  2  6  1  0
  3  4  1  0
  4  7  2  0
  4  1  1  0
  5  1  1  0
  5  8  2  0
  6  5  1  0
  9 11  2  0
  9 10  1  0
 10 12  2  0
 11 13  1  0
 12 14  1  0
 12  6  1  0
 13 24  1  0
 13 14  2  0
 14 15  1  0
 16 22  1  0
 16 24  1  0
 17 22  1  0
 18 19  1  0
 18 17  1  0
 20 19  1  0
 20 29  1  0
 20 21  1  0
 22 21  1  0
 23 16  2  0
 24 25  1  0
 26 27  2  0
 27 46  1  0
 28 27  1  0
 28 31  1  0
 29 30  1  0
 29 26  1  0
 30 28  2  0
 31 32  1  0
 32 33  2  0
 34 37  1  0
 34 33  1  0
 35 34  2  0
 36 35  1  0
 36 31  2  0
 37 38  1  0
 38 43  2  0
 38 39  1  0
 39 40  2  0
 40 41  1  0
 41 45  1  0
 42 41  2  0
 43 42  1  0
 44 43  1  0
 46 47  1  0
 47 50  1  0
 47 49  1  0
 48 46  2  0
 51 26  1  0
 51 52  1  0
 53 51  1  0
 54 55  1  0
 54  3  1  0
 55 57  1  0
 56 67  2  0
 57 62  1  0
 58 66  1  0
 58 68  1  0
 59 65  1  0
 59 61  1  0
 60 66  1  0
 61 60  1  0
 62 61  2  0
 63 64  1  0
 63 57  2  0
 64 59  2  0
 65 58  1  0
 66 56  1  0
 68 70  2  0
 69 68  1  0
 71 69  1  0
 72 81  2  0
 72 77  1  0
 73 69  1  0
 73 77  1  0
 74 73  1  0
 75 76  1  0
 75 74  1  0
 76 72  1  0
 77 78  2  0
 78 79  1  0
 80 79  2  0
 81 80  1  0
 82 56  1  0
 82 83  1  0
 82 92  1  0
 83 86  1  0
 84 88  1  0
 84 83  1  0
 85 84  2  0
 88 87  1  0
 90 88  1  0
 90 91  1  0
 90 89  1  0
 92 95  1  1
 92 93  1  0
 94 92  1  0
M  ISO  4  16 100  24 100  54 101  55 101
M  END
>  <TORSDO>  (77) 
F 18

>  <SCORE>  (77) 
-12.730

>  <name>  (77) 
76

>  <ligand_id>  (77) 
76

>  <original_smiles>  (77) 
[H]c1c([H])c(N([H])C(=O)N2C([H])([H])C([H])([H])C([H])([H])C([H])(n3nc(-c4c([H])c([H])c(Oc5c([H])c([H])c(F)c([H])c5F)c([H])c4[H])c(C(=O)N([H])[H])c3N([H])[H])C2([H])[H])c(F)c(-n2c([H])c(C([H])([H])Oc3c([H])c([H])c4c(c3[H])C([H])([H])N(C(=O)C([H])(N([H])C(=O)C([H])(N([H])C([H])([H])[H])C([H])([H])[H])C(C([H])([H])[H])(C([H])([H])[H])C([H])([H])[H])C([H])(C(=O)N([H])C3([H])c5c([H])c([H])c([H])c([H])c5C([H])([H])C([H])([H])C3([H])[H])C4([H])[H])c([O-])c([H])c2=O)c1[H]

>  <smiles>  (77) 
[H]c1c([H])c(N([H])C(=O)N2C([H])([H])C([H])([H])C([H])([H])C([H])(n3nc(-c4c([H])c([H])c(Oc5c([H])c([H])c(F)c([H])c5F)c([H])c4[H])c(C(=O)N([H])[H])c3N([H])[H])C2([H])[H])c(F)c(-n2c([H])c(C([H])([H])Oc3c([H])c([H])c4c(c3[H])C([H])([H])N(C(=O)C([H])(N([H])C(=O)C([H])(N([H])C([H])([H])[H])C([H])([H])[H])C(C([H])([H])[H])(C([H])([H])[H])C([H])([H])[H])C([H])(C(=O)N([H])C3([H])c5c([H])c([H])c([H])c([H])c5C([H])([H])C([H])([H])C3([H])[H])C4([H])[H])c([O-])c([H])c2=O)c1[H]

$$$$
77:0:0
     RDKit          3D

 95103  0  0  1  0  0  0  0  0999 V2000
  -28.5220  -23.2920   20.3990 C   0  0  0  0  0  0  0  0  0  0  0  0
  -28.8770  -22.0400   20.8500 N   0  0  0  0  0  0  0  0  0  0  0  0
  -28.1720  -23.5010   19.2350 O   0  0  0  0  0  0  0  0  0  0  0  0
  -29.3270  -22.0570   21.7520 H   0  0  0  0  0  0  0  0  0  0  0  0
  -27.7440  -19.1470   18.6400 C   0  0  0  0  0  3  0  0  0  0  0  0
  -28.4990  -18.0710   19.1480 C   0  0  0  0  0  3  0  0  0  0  0  0
  -27.8520  -20.4410   19.1940 C   0  0  0  0  0  3  0  0  0  0  0  0
  -29.4950  -19.5870   20.7710 C   0  0  0  0  0  3  0  0  0  0  0  0
  -29.3780  -18.2530   20.2390 C   0  0  0  0  0  0  0  0  0  0  0  0
  -28.7460  -20.7060   20.2600 C   0  0  0  0  0  0  0  0  0  0  0  0
  -30.6280  -14.6680   20.3810 C   0  0  0  0  0  0  0  0  0  0  0  0
  -30.3710  -12.4370   19.3160 C   0  0  0  0  0  2  0  0  0  0  0  0
  -29.4340  -12.5500   18.0970 C   0  0  0  0  0  2  0  0  0  0  0  0
  -27.9630  -12.3910   18.5300 C   0  0  0  0  0  2  0  0  0  0  0  0
  -27.5970  -13.2720   19.7550 C   0  0  0  0  0  3  0  0  0  0  0  0
  -28.6550  -13.1710   20.8750 C   0  0  0  0  0  2  0  0  0  0  0  0
  -29.9580  -13.4810   20.2740 N   0  0  0  0  0  0  0  0  0  0  0  0
  -31.8290  -14.7280   20.1060 O   0  0  0  0  0  0  0  0  0  0  0  0
  -30.2730  -17.0890   20.7030 C   0  0  0  0  0  0  0  0  0  0  0  0
  -29.8580  -15.7940   20.5180 N   0  0  0  0  0  0  0  0  0  0  0  0
  -31.3390  -17.3710   21.2610 O   0  0  0  0  0  0  0  0  0  0  0  0
  -28.8730  -15.6670   20.3680 H   0  0  0  0  0  0  0  0  0  0  0  0
  -25.2090  -13.8680   20.4730 C   0  0  0  0  0  0  0  0  0  0  0  0
  -24.1420  -13.0950   20.8420 C   0  0  0  0  0  0  0  0  0  0  0  0
  -24.6050  -11.7440   20.8180 C   0  0  0  0  0  0  0  0  0  0  0  0
  -26.2530  -12.9880   20.2430 N   0  0  0  0  0  0  0  0  0  0  0  0
  -25.8950  -11.7050   20.5120 N   0  0  0  0  0  0  0  0  0  0  0  0
  -23.8760  -10.4840   21.0130 C   0  0  0  0  0  0  0  0  0  0  0  0
  -24.3030   -9.5240   21.9560 C   0  0  0  0  0  3  0  0  0  0  0  0
  -23.5770   -8.3280   22.1380 C   0  0  0  0  0  3  0  0  0  0  0  0
  -22.4090   -8.0830   21.3740 C   0  0  0  0  0  0  0  0  0  0  0  0
  -22.0000   -9.0340   20.4230 C   0  0  0  0  0  3  0  0  0  0  0  0
  -22.7290  -10.2210   20.2410 C   0  0  0  0  0  3  0  0  0  0  0  0
  -21.6540   -6.9380   21.4640 O   0  0  0  0  0  0  0  0  0  0  0  0
  -21.5940   -6.2050   22.6220 C   0  0  0  0  0  0  0  0  0  0  0  0
  -21.1410   -6.7660   23.8370 C   0  0  0  0  0  3  0  0  0  0  0  0
  -21.0230   -5.9590   24.9850 C   0  0  0  0  0  3  0  0  0  0  0  0
  -21.3550   -4.5930   24.9220 C   0  0  0  0  0  0  0  0  0  0  0  0
  -21.8040   -4.0310   23.7130 C   0  0  0  0  0  3  0  0  0  0  0  0
  -21.9170   -4.8350   22.5650 C   0  0  0  0  0  0  0  0  0  0  0  0
  -22.3290   -4.2840   21.3980 F   0  0  0  0  0  0  0  0  0  0  0  0
  -21.2370   -3.8140   26.0240 F   0  0  0  0  0  0  0  0  0  0  0  0
  -22.7450  -13.5740   21.1040 C   0  0  0  0  0  0  0  0  0  0  0  0
  -22.0170  -12.8800   21.9690 N   0  0  0  0  0  0  0  0  0  0  0  0
  -22.3100  -14.6000   20.5830 O   0  0  0  0  0  0  0  0  0  0  0  0
  -22.3830  -12.0470   22.4050 H   0  0  0  0  0  0  0  0  0  0  0  0
  -21.0820  -13.1850   22.1960 H   0  0  0  0  0  0  0  0  0  0  0  0
  -25.3700  -15.2380   20.2920 N   0  0  0  0  0  0  0  0  0  0  0  0
  -24.5920  -15.8830   20.3880 H   0  0  0  0  0  0  0  0  0  0  0  0
  -26.1990  -15.6740   19.9100 H   0  0  0  0  0  0  0  0  0  0  0  0
  -28.5020  -25.7240   21.2690 C   0  0  0  0  0  3  0  0  0  0  0  0
  -28.6110  -24.3610   21.4360 C   0  0  0  0  0  0  0  0  0  0  0  0
  -28.7680  -23.9570   22.7070 O   0  0  0  0  0  0  0  0  0  0  0  0
  -28.4370  -23.0720   22.7680 H   0  0  0  0  0  0  0  0  0  0  0  0
  -28.3320  -26.5120   20.1390 O   0  0  0  0  0  0  0  0  0  0  0  0
  -24.6060  -31.8810   23.2080 C   0  0  0  0  0  0  0  0  0  0  0  0
  -27.2440  -27.3760   20.1440 C   0  0  0  0  0  0  0  0  0  0  0  0
  -23.4130  -30.4830   21.5590 C   0  0  0  0  0  3  0  0  0  0  0  0
  -24.8750  -28.9490   20.1290 C   0  0  0  0  0  0  0  0  0  0  0  0
  -25.9480  -30.8190   21.3890 C   0  0  0  0  0  2  0  0  0  0  0  0
  -26.0350  -29.4440   20.7410 C   0  0  0  0  0  0  0  0  0  0  0  0
  -27.2240  -28.6640   20.7530 C   0  0  0  0  0  3  0  0  0  0  0  0
  -26.0730  -26.9220   19.5070 C   0  0  0  0  0  3  0  0  0  0  0  0
  -24.8950  -27.6910   19.5030 C   0  0  0  0  0  3  0  0  0  0  0  0
  -23.6330  -29.8140   20.1760 C   0  0  0  0  0  2  0  0  0  0  0  0
  -24.6730  -31.0800   22.1080 N   0  0  0  0  0  0  0  0  0  0  0  0
  -23.5200  -32.1510   23.7410 O   0  0  0  0  0  0  0  0  0  0  0  0
  -22.7550  -29.4580   22.5120 C   0  0  0  0  0  0  0  0  0  0  0  0
  -21.4290  -29.2770   22.3830 N   0  0  0  0  0  0  0  0  0  0  0  0
  -23.4350  -28.8290   23.3270 O   0  0  0  0  0  0  0  0  0  0  0  0
  -20.9410  -29.8380   21.6990 H   0  0  0  0  0  0  0  0  0  0  0  0
  -18.0480  -28.0950   22.8930 C   0  0  0  0  0  0  0  0  0  0  0  0
  -20.6100  -28.3370   23.1510 C   0  0  0  0  0  3  0  0  0  0  0  0
  -20.6980  -26.9110   22.5600 C   0  0  0  0  0  2  0  0  0  0  0  0
  -19.5880  -26.6050   21.5500 C   0  0  0  0  0  2  0  0  0  0  0  0
  -18.2110  -26.7520   22.2030 C   0  0  0  0  0  2  0  0  0  0  0  0
  -19.1730  -28.8470   23.3240 C   0  0  0  0  0  0  0  0  0  0  0  0
  -18.9660  -30.1050   23.9290 C   0  0  0  0  0  3  0  0  0  0  0  0
  -17.6650  -30.6110   24.1070 C   0  0  0  0  0  3  0  0  0  0  0  0
  -16.5540  -29.8560   23.6920 C   0  0  0  0  0  3  0  0  0  0  0  0
  -16.7460  -28.6000   23.0910 C   0  0  0  0  0  3  0  0  0  0  0  0
  -25.8840  -32.5150   23.8370 C   0  0  0  0  0  3  0  0  0  0  0  0
  -26.3980  -31.7410   25.1120 C   0  0  1  0  0  0  0  0  0  0  0  0
  -25.3010  -31.4930   26.1760 C   0  0  0  0  0  1  0  0  0  0  0  0
  -26.9910  -30.3680   24.7160 C   0  0  0  0  0  1  0  0  0  0  0  0
  -27.5440  -32.5390   25.7800 C   0  0  0  0  0  1  0  0  0  0  0  0
  -25.5670  -33.9100   24.1730 N   0  0  0  0  0  0  0  0  0  0  0  0
  -25.8930  -34.9670   23.4160 C   0  0  0  0  0  0  0  0  0  0  0  0
  -26.5630  -34.8710   22.3840 O   0  0  0  0  0  0  0  0  0  0  0  0
  -24.9730  -34.0570   24.9750 H   0  0  0  0  0  0  0  0  0  0  0  0
  -24.1580  -36.7560   23.0640 C   0  0  0  0  0  1  0  0  0  0  0  0
  -25.3990  -36.3530   23.8790 C   0  0  0  0  0  3  0  0  0  0  0  0
  -27.5260  -37.2420   24.7230 C   0  0  0  0  0  1  0  0  0  0  0  0
  -26.4290  -37.4090   23.7730 N   0  0  0  0  0  0  0  0  0  0  0  0
  -26.0180  -38.3280   23.9180 H   0  0  0  0  0  0  0  0  0  0  0  0
  1  2  1  0
  1 52  1  0
  2  4  1  0
  3  1  2  0
  5  6  2  0
  5  7  1  0
  6  9  1  0
  7 10  2  0
  9 19  1  0
  9  8  2  0
 10  8  1  0
 10  2  1  0
 11 20  1  0
 12 17  1  0
 13 14  1  0
 13 12  1  0
 15 14  1  0
 15 26  1  0
 15 16  1  0
 17 11  1  0
 17 16  1  0
 18 11  2  0
 19 21  2  0
 20 19  1  0
 22 20  1  0
 23 24  2  0
 24 43  1  0
 25 24  1  0
 25 28  1  0
 26 23  1  0
 26 27  1  0
 27 25  2  0
 28 29  1  0
 29 30  2  0
 31 34  1  0
 31 30  1  0
 32 31  2  0
 33 32  1  0
 33 28  2  0
 34 35  1  0
 35 36  1  0
 36 37  2  0
 38 37  1  0
 38 42  1  0
 39 38  2  0
 40 35  2  0
 40 39  1  0
 41 40  1  0
 43 44  1  0
 44 47  1  0
 44 46  1  0
 45 43  2  0
 48 49  1  0
 48 23  1  0
 50 48  1  0
 51 52  2  0
 52 53  1  0
 53 54  1  0
 55 57  1  0
 55 51  1  0
 56 67  2  0
 57 62  1  0
 58 66  1  0
 58 68  1  0
 59 65  1  0
 59 61  1  0
 60 66  1  0
 61 62  2  0
 61 60  1  0
 63 57  2  0
 64 63  1  0
 64 59  2  0
 65 58  1  0
 66 56  1  0
 68 70  2  0
 69 68  1  0
 71 69  1  0
 72 81  2  0
 72 77  1  0
 73 69  1  0
 73 77  1  0
 74 73  1  0
 75 76  1  0
 75 74  1  0
 76 72  1  0
 77 78  2  0
 78 79  1  0
 80 79  2  0
 81 80  1  0
 82 56  1  0
 82 87  1  0
 82 83  1  0
 83 86  1  1
 83 84  1  0
 85 83  1  0
 87 90  1  0
 88 92  1  0
 88 87  1  0
 89 88  2  0
 92 91  1  0
 94 92  1  0
 94 95  1  0
 94 93  1  0
M  ISO  4  11 100  20 100  51 101  55 101
M  END
>  <TORSDO>  (78) 
F 19

>  <SCORE>  (78) 
-15.006

>  <name>  (78) 
77

>  <ligand_id>  (78) 
77

>  <original_smiles>  (78) 
[H]OC(C(=O)N([H])c1c([H])c([H])c([H])c(C(=O)N([H])C(=O)N2C([H])([H])C([H])([H])C([H])([H])C([H])(n3nc(-c4c([H])c([H])c(Oc5c([H])c([H])c(F)c([H])c5F)c([H])c4[H])c(C(=O)N([H])[H])c3N([H])[H])C2([H])[H])c1[H])=C([H])Oc1c([H])c([H])c2c(c1[H])C([H])([H])N(C(=O)C([H])(N([H])C(=O)C([H])(N([H])C([H])([H])[H])C([H])([H])[H])C(C([H])([H])[H])(C([H])([H])[H])C([H])([H])[H])C([H])(C(=O)N([H])C1([H])c3c([H])c([H])c([H])c([H])c3C([H])([H])C([H])([H])C1([H])[H])C2([H])[H]

>  <smiles>  (78) 
[H]OC(C(=O)N([H])c1c([H])c([H])c([H])c(C(=O)N([H])C(=O)N2C([H])([H])C([H])([H])C([H])([H])C([H])(n3nc(-c4c([H])c([H])c(Oc5c([H])c([H])c(F)c([H])c5F)c([H])c4[H])c(C(=O)N([H])[H])c3N([H])[H])C2([H])[H])c1[H])=C([H])Oc1c([H])c([H])c2c(c1[H])C([H])([H])N(C(=O)C([H])(N([H])C(=O)C([H])(N([H])C([H])([H])[H])C([H])([H])[H])C(C([H])([H])[H])(C([H])([H])[H])C([H])([H])[H])C([H])(C(=O)N([H])C1([H])c3c([H])c([H])c([H])c([H])c3C([H])([H])C([H])([H])C1([H])[H])C2([H])[H]

$$$$
78:0:0
     RDKit          3D

 96105  0  0  1  0  0  0  0  0999 V2000
  -28.2770  -23.7340   20.6030 C   0  0  0  0  0  0  0  0  0  0  0  0
  -27.5970  -22.8280   21.5180 C   0  0  0  0  0  0  0  0  0  0  0  0
  -29.1960  -22.8230   19.8350 C   0  0  0  0  0  0  0  0  0  0  0  0
  -27.9380  -25.1080   20.6440 C   0  0  0  0  0  3  0  0  0  0  0  0
  -28.0760  -21.4010   21.3110 C   0  0  0  0  0  2  0  0  0  0  0  0
  -29.0850  -21.4660   20.2490 N   0  0  0  0  0  0  0  0  0  0  0  0
  -26.7450  -23.1200   22.3640 O   0  0  0  0  0  0  0  0  0  0  0  0
  -29.9530  -23.2250   18.9440 O   0  0  0  0  0  0  0  0  0  0  0  0
  -31.5510  -19.2200   18.3280 C   0  0  0  0  0  3  0  0  0  0  0  0
  -30.8170  -20.3150   18.8190 C   0  0  0  0  0  3  0  0  0  0  0  0
  -31.3340  -17.9080   18.7820 C   0  0  0  0  0  3  0  0  0  0  0  0
  -29.8040  -20.1860   19.8020 C   0  0  0  0  0  0  0  0  0  0  0  0
  -30.3630  -17.6140   19.7620 C   0  0  0  0  0  0  0  0  0  0  0  0
  -29.6060  -18.7800   20.2570 C   0  0  0  0  0  0  0  0  0  0  0  0
  -30.8590  -15.0010   19.8480 C   0  0  0  0  0  0  0  0  0  0  0  0
  -30.6050  -12.7170   18.8350 C   0  0  0  0  0  2  0  0  0  0  0  0
  -29.5880  -12.7810   17.6740 C   0  0  0  0  0  2  0  0  0  0  0  0
  -28.1550  -12.5810   18.2000 C   0  0  0  0  0  2  0  0  0  0  0  0
  -27.8540  -13.4430   19.4560 C   0  0  0  0  0  3  0  0  0  0  0  0
  -28.9900  -13.3730   20.4990 C   0  0  0  0  0  2  0  0  0  0  0  0
  -30.2290  -13.7670   19.8200 N   0  0  0  0  0  0  0  0  0  0  0  0
  -32.0290  -15.0570   19.4590 O   0  0  0  0  0  0  0  0  0  0  0  0
  -30.1350  -16.1690   20.1470 N   0  0  0  0  0  0  0  0  0  0  0  0
  -29.2380  -15.9990   20.5730 H   0  0  0  0  0  0  0  0  0  0  0  0
  -25.5310  -13.9870   20.3910 C   0  0  0  0  0  0  0  0  0  0  0  0
  -24.4960  -13.1930   20.8050 C   0  0  0  0  0  0  0  0  0  0  0  0
  -24.9560  -11.8460   20.6800 C   0  0  0  0  0  0  0  0  0  0  0  0
  -26.5540  -13.1230   20.0360 N   0  0  0  0  0  0  0  0  0  0  0  0
  -26.2200  -11.8270   20.2730 N   0  0  0  0  0  0  0  0  0  0  0  0
  -24.2430  -10.5750   20.8670 C   0  0  0  0  0  0  0  0  0  0  0  0
  -24.6630   -9.6250   21.8250 C   0  0  0  0  0  3  0  0  0  0  0  0
  -23.9480   -8.4190   21.9990 C   0  0  0  0  0  3  0  0  0  0  0  0
  -22.7990   -8.1550   21.2150 C   0  0  0  0  0  0  0  0  0  0  0  0
  -22.4000   -9.0940   20.2480 C   0  0  0  0  0  3  0  0  0  0  0  0
  -23.1160  -10.2890   20.0710 C   0  0  0  0  0  3  0  0  0  0  0  0
  -22.0590   -7.0010   21.2970 O   0  0  0  0  0  0  0  0  0  0  0  0
  -21.8720   -6.3490   22.4890 C   0  0  0  0  0  0  0  0  0  0  0  0
  -21.2710   -6.9820   23.5990 C   0  0  0  0  0  3  0  0  0  0  0  0
  -21.0340   -6.2540   24.7830 C   0  0  0  0  0  3  0  0  0  0  0  0
  -21.3890   -4.8950   24.8550 C   0  0  0  0  0  0  0  0  0  0  0  0
  -21.9840   -4.2610   23.7500 C   0  0  0  0  0  3  0  0  0  0  0  0
  -22.2210   -4.9860   22.5690 C   0  0  0  0  0  0  0  0  0  0  0  0
  -22.7750   -4.3660   21.5000 F   0  0  0  0  0  0  0  0  0  0  0  0
  -21.1550   -4.1930   25.9900 F   0  0  0  0  0  0  0  0  0  0  0  0
  -23.1240  -13.6550   21.2000 C   0  0  0  0  0  0  0  0  0  0  0  0
  -22.4630  -12.9230   22.0900 N   0  0  0  0  0  0  0  0  0  0  0  0
  -22.6480  -14.6990   20.7560 O   0  0  0  0  0  0  0  0  0  0  0  0
  -22.8610  -12.0780   22.4710 H   0  0  0  0  0  0  0  0  0  0  0  0
  -21.5450  -13.2140   22.3970 H   0  0  0  0  0  0  0  0  0  0  0  0
  -25.6820  -15.3650   20.2650 N   0  0  0  0  0  0  0  0  0  0  0  0
  -24.9300  -16.0120   20.4760 H   0  0  0  0  0  0  0  0  0  0  0  0
  -26.5070  -15.8270   19.9080 H   0  0  0  0  0  0  0  0  0  0  0  0
  -28.6550  -18.4720   21.2270 N   0  0  0  0  0  0  0  0  0  0  0  0
  -28.3300  -19.2300   21.8130 H   0  0  0  0  0  0  0  0  0  0  0  0
  -28.8240  -17.6320   21.7680 H   0  0  0  0  0  0  0  0  0  0  0  0
  -28.2860  -26.3520   20.0120 O   0  0  0  0  0  0  0  0  0  0  0  0
  -24.6930  -31.8990   23.1650 C   0  0  0  0  0  0  0  0  0  0  0  0
  -27.2650  -27.3440   19.9840 C   0  0  0  0  0  0  0  0  0  0  0  0
  -23.4810  -30.5480   21.4940 C   0  0  0  0  0  3  0  0  0  0  0  0
  -24.9260  -29.0290   20.0140 C   0  0  0  0  0  0  0  0  0  0  0  0
  -26.0290  -30.8430   21.3150 C   0  0  0  0  0  2  0  0  0  0  0  0
  -26.1050  -29.4770   20.6270 C   0  0  0  0  0  0  0  0  0  0  0  0
  -27.2800  -28.6470   20.6020 C   0  0  0  0  0  3  0  0  0  0  0  0
  -26.0660  -26.9810   19.3340 C   0  0  0  0  0  3  0  0  0  0  0  0
  -24.9140  -27.7910   19.3540 C   0  0  0  0  0  3  0  0  0  0  0  0
  -23.6930  -29.9110   20.0950 C   0  0  0  0  0  2  0  0  0  0  0  0
  -24.7540  -31.1140   22.0470 N   0  0  0  0  0  0  0  0  0  0  0  0
  -23.6110  -32.1650   23.7100 O   0  0  0  0  0  0  0  0  0  0  0  0
  -22.8160  -29.5090   22.4300 C   0  0  0  0  0  0  0  0  0  0  0  0
  -21.4870  -29.3400   22.3080 N   0  0  0  0  0  0  0  0  0  0  0  0
  -23.4950  -28.8590   23.2290 O   0  0  0  0  0  0  0  0  0  0  0  0
  -20.9960  -29.9170   21.6380 H   0  0  0  0  0  0  0  0  0  0  0  0
  -18.1030  -28.1640   22.8310 C   0  0  0  0  0  0  0  0  0  0  0  0
  -20.6700  -28.3840   23.0590 C   0  0  0  0  0  3  0  0  0  0  0  0
  -20.7420  -26.9740   22.4280 C   0  0  0  0  0  2  0  0  0  0  0  0
  -19.6170  -26.7040   21.4240 C   0  0  0  0  0  2  0  0  0  0  0  0
  -18.2500  -26.8390   22.1000 C   0  0  0  0  0  2  0  0  0  0  0  0
  -19.2390  -28.8960   23.2660 C   0  0  0  0  0  0  0  0  0  0  0  0
  -19.0460  -30.1360   23.9130 C   0  0  0  0  0  3  0  0  0  0  0  0
  -17.7510  -30.6440   24.1260 C   0  0  0  0  0  3  0  0  0  0  0  0
  -16.6300  -29.9090   23.7040 C   0  0  0  0  0  3  0  0  0  0  0  0
  -16.8060  -28.6700   23.0630 C   0  0  0  0  0  3  0  0  0  0  0  0
  -25.9770  -32.5150   23.7990 C   0  0  0  0  0  3  0  0  0  0  0  0
  -25.6740  -33.9100   24.1540 N   0  0  0  0  0  0  0  0  0  0  0  0
  -26.0010  -34.9760   23.4120 C   0  0  0  0  0  0  0  0  0  0  0  0
  -26.6590  -34.8880   22.3720 O   0  0  0  0  0  0  0  0  0  0  0  0
  -25.0880  -34.0510   24.9650 H   0  0  0  0  0  0  0  0  0  0  0  0
  -24.2780  -36.7840   23.1100 C   0  0  0  0  0  1  0  0  0  0  0  0
  -25.5250  -36.3580   23.9000 C   0  0  0  0  0  3  0  0  0  0  0  0
  -27.6690  -37.2210   24.7290 C   0  0  0  0  0  1  0  0  0  0  0  0
  -26.5600  -37.4100   23.7960 N   0  0  0  0  0  0  0  0  0  0  0  0
  -26.1580  -38.3270   23.9650 H   0  0  0  0  0  0  0  0  0  0  0  0
  -26.4860  -31.7210   25.0640 C   0  0  1  0  0  0  0  0  0  0  0  0
  -25.3900  -31.4720   26.1260 C   0  0  0  0  0  1  0  0  0  0  0  0
  -27.0640  -30.3460   24.6550 C   0  0  0  0  0  1  0  0  0  0  0  0
  -27.6390  -32.4990   25.7420 C   0  0  0  0  0  1  0  0  0  0  0  0
  1  4  2  0
  1  2  1  0
  2  7  2  0
  3  6  1  0
  3  1  1  0
  5  2  1  0
  6  5  1  0
  8  3  2  0
  9 11  2  0
  9 10  1  0
 10 12  2  0
 11 13  1  0
 12  6  1  0
 12 14  1  0
 13 23  1  0
 13 14  2  0
 14 53  1  0
 15 23  1  0
 16 21  1  0
 17 18  1  0
 17 16  1  0
 19 18  1  0
 19 28  1  0
 19 20  1  0
 21 15  1  0
 21 20  1  0
 22 15  2  0
 23 24  1  0
 25 26  2  0
 26 45  1  0
 27 26  1  0
 27 30  1  0
 28 29  1  0
 28 25  1  0
 29 27  2  0
 30 31  1  0
 31 32  2  0
 33 36  1  0
 33 32  1  0
 34 33  2  0
 35 34  1  0
 35 30  2  0
 36 37  1  0
 37 42  2  0
 37 38  1  0
 38 39  2  0
 39 40  1  0
 40 44  1  0
 41 40  2  0
 42 41  1  0
 43 42  1  0
 45 46  1  0
 46 49  1  0
 46 48  1  0
 47 45  2  0
 50 25  1  0
 50 51  1  0
 52 50  1  0
 53 55  1  0
 53 54  1  0
 56  4  1  0
 57 68  2  0
 58 56  1  0
 58 63  1  0
 59 67  1  0
 59 69  1  0
 60 66  1  0
 60 62  1  0
 61 67  1  0
 62 61  1  0
 63 62  2  0
 64 65  1  0
 64 58  2  0
 65 60  2  0
 66 59  1  0
 67 57  1  0
 69 71  2  0
 70 69  1  0
 72 70  1  0
 73 82  2  0
 73 78  1  0
 74 70  1  0
 74 78  1  0
 75 74  1  0
 76 77  1  0
 76 75  1  0
 77 73  1  0
 78 79  2  0
 79 80  1  0
 81 80  2  0
 82 81  1  0
 83 57  1  0
 83 84  1  0
 83 93  1  0
 84 87  1  0
 85 89  1  0
 85 84  1  0
 86 85  2  0
 89 88  1  0
 91 89  1  0
 91 92  1  0
 91 90  1  0
 93 96  1  1
 93 94  1  0
 95 93  1  0
M  ISO  4   4 101  15 100  23 100  56 101
M  END
>  <TORSDO>  (79) 
F 18

>  <SCORE>  (79) 
-13.849

>  <name>  (79) 
78

>  <ligand_id>  (79) 
78

>  <original_smiles>  (79) 
[H]C(Oc1c([H])c([H])c2c(c1[H])C([H])([H])N(C(=O)C([H])(N([H])C(=O)C([H])(N([H])C([H])([H])[H])C([H])([H])[H])C(C([H])([H])[H])(C([H])([H])[H])C([H])([H])[H])C([H])(C(=O)N([H])C1([H])c3c([H])c([H])c([H])c([H])c3C([H])([H])C([H])([H])C1([H])[H])C2([H])[H])=C1C(=O)N(c2c([H])c([H])c([H])c(N([H])C(=O)N3C([H])([H])C([H])([H])C([H])([H])C([H])(n4nc(-c5c([H])c([H])c(Oc6c([H])c([H])c(F)c([H])c6F)c([H])c5[H])c(C(=O)N([H])[H])c4N([H])[H])C3([H])[H])c2N([H])[H])C([H])([H])C1=O

>  <smiles>  (79) 
[H]C(Oc1c([H])c([H])c2c(c1[H])C([H])([H])N(C(=O)C([H])(N([H])C(=O)C([H])(N([H])C([H])([H])[H])C([H])([H])[H])C(C([H])([H])[H])(C([H])([H])[H])C([H])([H])[H])C([H])(C(=O)N([H])C1([H])c3c([H])c([H])c([H])c([H])c3C([H])([H])C([H])([H])C1([H])[H])C2([H])[H])=C1C(=O)N(c2c([H])c([H])c([H])c(N([H])C(=O)N3C([H])([H])C([H])([H])C([H])([H])C([H])(n4nc(-c5c([H])c([H])c(Oc6c([H])c([H])c(F)c([H])c6F)c([H])c5[H])c(C(=O)N([H])[H])c4N([H])[H])C3([H])[H])c2N([H])[H])C([H])([H])C1=O

$$$$
79:0:0
     RDKit          3D

 94103  0  0  1  0  0  0  0  0999 V2000
  -29.0180  -23.4320   20.0910 C   0  0  0  0  0  0  0  0  0  0  0  0
  -28.1740  -23.7030   17.3530 C   0  0  0  0  0  2  0  0  0  0  0  0
  -28.5210  -24.9900   18.0940 C   0  0  0  0  0  2  0  0  0  0  0  0
  -29.0740  -22.5330   17.7930 C   0  0  0  0  0  2  0  0  0  0  0  0
  -28.2110  -24.8060   19.5790 C   0  0  0  0  0  3  0  0  0  0  0  0
  -29.2190  -22.2790   19.2520 N   0  0  0  0  0  0  0  0  0  0  0  0
  -29.4210  -23.4190   21.2580 O   0  0  0  0  0  0  0  0  0  0  0  0
  -29.7680  -20.1730   20.8210 C   0  0  0  0  0  3  0  0  0  0  0  0
  -30.0290  -18.7510   21.0120 C   0  0  0  0  0  3  0  0  0  0  0  0
  -29.9230  -19.8190   18.5100 C   0  0  0  0  0  3  0  0  0  0  0  0
  -29.6540  -20.8090   19.5440 C   0  0  0  0  0  0  0  0  0  0  0  0
  -30.2000  -17.7470   19.9710 C   0  0  0  0  0  0  0  0  0  0  0  0
  -30.1710  -18.3910   18.6950 C   0  0  0  0  0  0  0  0  0  0  0  0
  -30.3390  -17.6240   17.5920 F   0  0  0  0  0  0  0  0  0  0  0  0
  -30.8260  -15.1200   19.4880 C   0  0  0  0  0  0  0  0  0  0  0  0
  -30.5030  -12.8500   18.3670 C   0  0  0  0  0  2  0  0  0  0  0  0
  -29.3740  -12.8630   17.3050 C   0  0  0  0  0  2  0  0  0  0  0  0
  -27.9920  -12.6300   17.9460 C   0  0  0  0  0  2  0  0  0  0  0  0
  -27.8020  -13.4690   19.2330 C   0  0  0  0  0  3  0  0  0  0  0  0
  -29.0210  -13.3480   20.1590 C   0  0  0  0  0  2  0  0  0  0  0  0
  -30.1970  -13.8620   19.4260 N   0  0  0  0  0  0  0  0  0  0  0  0
  -31.8640  -15.2430   18.8230 O   0  0  0  0  0  0  0  0  0  0  0  0
  -30.3110  -16.2210   20.2560 N   0  0  0  0  0  0  0  0  0  0  0  0
  -25.6220  -14.0110   20.4630 C   0  0  0  0  0  0  0  0  0  0  0  0
  -24.6140  -13.2210   20.9400 C   0  0  0  0  0  0  0  0  0  0  0  0
  -25.0090  -11.8720   20.6760 C   0  0  0  0  0  0  0  0  0  0  0  0
  -26.5620  -13.1450   19.9330 N   0  0  0  0  0  0  0  0  0  0  0  0
  -26.2190  -11.8470   20.1280 N   0  0  0  0  0  0  0  0  0  0  0  0
  -24.2790  -10.6120   20.8660 C   0  0  0  0  0  0  0  0  0  0  0  0
  -24.7560   -9.6030   21.7310 C   0  0  0  0  0  3  0  0  0  0  0  0
  -24.0260   -8.4100   21.9120 C   0  0  0  0  0  3  0  0  0  0  0  0
  -22.8050   -8.2150   21.2240 C   0  0  0  0  0  0  0  0  0  0  0  0
  -22.3460   -9.2140   20.3460 C   0  0  0  0  0  3  0  0  0  0  0  0
  -23.0770  -10.3990   20.1650 C   0  0  0  0  0  3  0  0  0  0  0  0
  -22.0400   -7.0770   21.3150 O   0  0  0  0  0  0  0  0  0  0  0  0
  -21.9440   -6.3680   22.4840 C   0  0  0  0  0  0  0  0  0  0  0  0
  -21.4880   -6.9640   23.6820 C   0  0  0  0  0  3  0  0  0  0  0  0
  -21.3320   -6.1820   24.8420 C   0  0  0  0  0  3  0  0  0  0  0  0
  -21.6270   -4.8050   24.8080 C   0  0  0  0  0  0  0  0  0  0  0  0
  -22.0800   -4.2110   23.6170 C   0  0  0  0  0  3  0  0  0  0  0  0
  -22.2340   -4.9890   22.4570 C   0  0  0  0  0  0  0  0  0  0  0  0
  -22.6470   -4.4090   21.3050 F   0  0  0  0  0  0  0  0  0  0  0  0
  -21.4740   -4.0500   25.9200 F   0  0  0  0  0  0  0  0  0  0  0  0
  -23.3090  -13.6950   21.5160 C   0  0  0  0  0  0  0  0  0  0  0  0
  -22.7530  -12.9520   22.4660 N   0  0  0  0  0  0  0  0  0  0  0  0
  -22.7990  -14.7580   21.1610 O   0  0  0  0  0  0  0  0  0  0  0  0
  -23.1830  -12.0940   22.7750 H   0  0  0  0  0  0  0  0  0  0  0  0
  -21.8910  -13.2540   22.8970 H   0  0  0  0  0  0  0  0  0  0  0  0
  -25.8020  -15.3900   20.4150 N   0  0  0  0  0  0  0  0  0  0  0  0
  -25.0970  -16.0330   20.7600 H   0  0  0  0  0  0  0  0  0  0  0  0
  -26.5890  -15.8580   19.9810 H   0  0  0  0  0  0  0  0  0  0  0  0
  -30.6420  -15.1720   22.4740 C   0  0  0  0  0  2  0  0  0  0  0  0
  -29.9820  -15.9650   21.6050 C   0  0  0  0  0  3  0  0  0  0  0  0
  -28.2660  -26.2210   20.2450 O   0  0  0  0  0  0  0  0  0  0  0  0
  -24.4750  -31.8600   23.1620 C   0  0  0  0  0  0  0  0  0  0  0  0
  -27.1750  -27.1790   20.1590 C   0  0  0  0  0  0  0  0  0  0  0  0
  -23.3050  -30.4160   21.5450 C   0  0  0  0  0  3  0  0  0  0  0  0
  -24.7890  -28.8690   20.1290 C   0  0  0  0  0  0  0  0  0  0  0  0
  -25.8530  -30.7430   21.3700 C   0  0  0  0  0  2  0  0  0  0  0  0
  -25.9590  -29.3470   20.7290 C   0  0  0  0  0  0  0  0  0  0  0  0
  -27.1480  -28.5200   20.7280 C   0  0  0  0  0  3  0  0  0  0  0  0
  -25.9640  -26.8070   19.5250 C   0  0  0  0  0  3  0  0  0  0  0  0
  -24.8040  -27.6090   19.5120 C   0  0  0  0  0  3  0  0  0  0  0  0
  -23.5380  -29.7290   20.1720 C   0  0  0  0  0  2  0  0  0  0  0  0
  -24.5630  -31.0280   22.0790 N   0  0  0  0  0  0  0  0  0  0  0  0
  -23.3830  -32.1240   23.6910 O   0  0  0  0  0  0  0  0  0  0  0  0
  -22.6520  -29.4040   22.5220 C   0  0  0  0  0  0  0  0  0  0  0  0
  -21.3300  -29.1950   22.3960 N   0  0  0  0  0  0  0  0  0  0  0  0
  -23.3380  -28.8110   23.3580 O   0  0  0  0  0  0  0  0  0  0  0  0
  -20.8310  -29.7200   21.6910 H   0  0  0  0  0  0  0  0  0  0  0  0
  -17.9750  -27.9310   22.9350 C   0  0  0  0  0  0  0  0  0  0  0  0
  -20.5310  -28.2480   23.1800 C   0  0  0  0  0  3  0  0  0  0  0  0
  -20.6600  -26.8160   22.6180 C   0  0  0  0  0  2  0  0  0  0  0  0
  -19.5570  -26.4610   21.6140 C   0  0  0  0  0  2  0  0  0  0  0  0
  -18.1760  -26.5810   22.2670 C   0  0  0  0  0  2  0  0  0  0  0  0
  -19.0800  -28.7210   23.3500 C   0  0  0  0  0  0  0  0  0  0  0  0
  -18.8380  -29.9830   23.9370 C   0  0  0  0  0  3  0  0  0  0  0  0
  -17.5250  -30.4540   24.1110 C   0  0  0  0  0  3  0  0  0  0  0  0
  -16.4340  -29.6630   23.7130 C   0  0  0  0  0  3  0  0  0  0  0  0
  -16.6590  -28.4020   23.1300 C   0  0  0  0  0  3  0  0  0  0  0  0
  -25.7400  -32.5330   23.7770 C   0  0  0  0  0  3  0  0  0  0  0  0
  -25.3950  -33.9260   24.0950 N   0  0  0  0  0  0  0  0  0  0  0  0
  -25.6690  -34.9790   23.3140 C   0  0  0  0  0  0  0  0  0  0  0  0
  -26.3030  -34.8830   22.2600 O   0  0  0  0  0  0  0  0  0  0  0  0
  -24.8270  -34.0760   24.9160 H   0  0  0  0  0  0  0  0  0  0  0  0
  -23.8660  -36.7080   23.0170 C   0  0  0  0  0  1  0  0  0  0  0  0
  -25.1570  -36.3600   23.7730 C   0  0  0  0  0  3  0  0  0  0  0  0
  -27.2970  -37.3290   24.4900 C   0  0  0  0  0  1  0  0  0  0  0  0
  -26.1460  -37.4460   23.5990 N   0  0  0  0  0  0  0  0  0  0  0  0
  -25.7150  -38.3530   23.7560 H   0  0  0  0  0  0  0  0  0  0  0  0
  -26.2740  -31.7910   25.0630 C   0  0  1  0  0  0  0  0  0  0  0  0
  -25.1830  -31.5290   26.1280 C   0  0  0  0  0  1  0  0  0  0  0  0
  -26.9030  -30.4270   24.6950 C   0  0  0  0  0  1  0  0  0  0  0  0
  -27.3940  -32.6290   25.7240 C   0  0  0  0  0  1  0  0  0  0  0  0
  1  7  2  0
  2  4  1  0
  2  3  1  0
  3  5  1  0
  4  6  1  0
  5  1  1  0
  5 54  1  0
  6 11  1  0
  6  1  1  0
  8  9  1  0
 10 13  2  0
 10 11  1  0
 11  8  2  0
 12 23  1  0
 12  9  2  0
 13 12  1  0
 14 13  1  0
 15 23  1  0
 16 21  1  0
 17 18  1  0
 17 16  1  0
 19 18  1  0
 19 27  1  0
 19 20  1  0
 21 15  1  0
 21 20  1  0
 22 15  2  0
 23 53  1  0
 24 25  2  0
 25 44  1  0
 26 29  1  0
 26 25  1  0
 27 28  1  0
 27 24  1  0
 28 26  2  0
 29 30  1  0
 30 31  2  0
 32 35  1  0
 32 31  1  0
 33 32  2  0
 34 33  1  0
 34 29  2  0
 35 36  1  0
 36 37  1  0
 37 38  2  0
 39 38  1  0
 39 43  1  0
 40 39  2  0
 41 36  2  0
 41 40  1  0
 42 41  1  0
 44 45  1  0
 45 47  1  0
 45 48  1  0
 46 44  2  0
 49 24  1  0
 49 50  1  0
 51 49  1  0
 53 52  2  0
 55 66  2  0
 56 54  1  0
 56 61  1  0
 57 65  1  0
 57 67  1  0
 58 64  1  0
 58 60  1  0
 59 65  1  0
 60 59  1  0
 61 60  2  0
 62 56  2  0
 63 62  1  0
 63 58  2  0
 64 57  1  0
 65 55  1  0
 67 69  2  0
 68 67  1  0
 70 68  1  0
 71 80  2  0
 71 76  1  0
 72 68  1  0
 72 76  1  0
 73 72  1  0
 74 75  1  0
 74 73  1  0
 75 71  1  0
 76 77  2  0
 77 78  1  0
 79 78  2  0
 80 79  1  0
 81 55  1  0
 81 82  1  0
 81 91  1  0
 82 85  1  0
 83 87  1  0
 83 82  1  0
 84 83  2  0
 87 86  1  0
 89 90  1  0
 89 87  1  0
 89 88  1  0
 91 94  1  1
 91 92  1  0
 93 91  1  0
M  ISO  4   5 101  15 100  23 100  54 101
M  END
>  <TORSDO>  (80) 
F 18

>  <SCORE>  (80) 
-11.961

>  <name>  (80) 
79

>  <ligand_id>  (80) 
79

>  <original_smiles>  (80) 
[H]C([H])=C([H])N(C(=O)N1C([H])([H])C([H])([H])C([H])([H])C([H])(n2nc(-c3c([H])c([H])c(Oc4c([H])c([H])c(F)c([H])c4F)c([H])c3[H])c(C(=O)N([H])[H])c2N([H])[H])C1([H])[H])c1c([H])c([H])c(N2C(=O)C([H])(Oc3c([H])c([H])c4c(c3[H])C([H])([H])N(C(=O)C([H])(N([H])C(=O)C([H])(N([H])C([H])([H])[H])C([H])([H])[H])C(C([H])([H])[H])(C([H])([H])[H])C([H])([H])[H])C([H])(C(=O)N([H])C3([H])c5c([H])c([H])c([H])c([H])c5C([H])([H])C([H])([H])C3([H])[H])C4([H])[H])C([H])([H])C([H])([H])C2([H])[H])c([H])c1F

>  <smiles>  (80) 
[H]C([H])=C([H])N(C(=O)N1C([H])([H])C([H])([H])C([H])([H])C([H])(n2nc(-c3c([H])c([H])c(Oc4c([H])c([H])c(F)c([H])c4F)c([H])c3[H])c(C(=O)N([H])[H])c2N([H])[H])C1([H])[H])c1c([H])c([H])c(N2C(=O)C([H])(Oc3c([H])c([H])c4c(c3[H])C([H])([H])N(C(=O)C([H])(N([H])C(=O)C([H])(N([H])C([H])([H])[H])C([H])([H])[H])C(C([H])([H])[H])(C([H])([H])[H])C([H])([H])[H])C([H])(C(=O)N([H])C3([H])c5c([H])c([H])c([H])c([H])c5C([H])([H])C([H])([H])C3([H])[H])C4([H])[H])C([H])([H])C([H])([H])C2([H])[H])c([H])c1F

$$$$
80:0:0
     RDKit          3D

 95104  0  0  1  0  0  0  0  0999 V2000
  -29.7090  -20.2180   21.1620 C   0  0  0  0  0  3  0  0  0  0  0  0
  -30.0130  -18.7940   21.2080 C   0  0  0  0  0  3  0  0  0  0  0  0
  -29.4260  -20.0760   18.8920 C   0  0  0  0  0  3  0  0  0  0  0  0
  -29.3630  -21.0150   20.0120 C   0  0  0  0  0  0  0  0  0  0  0  0
  -30.0180  -17.8590   20.1020 C   0  0  0  0  0  0  0  0  0  0  0  0
  -29.7140  -18.6230   18.9110 C   0  0  0  0  0  0  0  0  0  0  0  0
  -30.7220  -15.1850   19.5900 C   0  0  0  0  0  0  0  0  0  0  0  0
  -30.4830  -12.8850   18.4710 C   0  0  0  0  0  2  0  0  0  0  0  0
  -29.3710  -12.8760   17.3900 C   0  0  0  0  0  2  0  0  0  0  0  0
  -27.9870  -12.6100   18.0110 C   0  0  0  0  0  2  0  0  0  0  0  0
  -27.7620  -13.4460   19.2940 C   0  0  0  0  0  3  0  0  0  0  0  0
  -28.9670  -13.3520   20.2420 C   0  0  0  0  0  2  0  0  0  0  0  0
  -30.1360  -13.8990   19.5210 N   0  0  0  0  0  0  0  0  0  0  0  0
  -31.7880  -15.3090   18.9720 O   0  0  0  0  0  0  0  0  0  0  0  0
  -30.1320  -16.2990   20.3130 N   0  0  0  0  0  0  0  0  0  0  0  0
  -25.5690  -13.9750   20.4980 C   0  0  0  0  0  0  0  0  0  0  0  0
  -24.5490  -13.1830   20.9470 C   0  0  0  0  0  0  0  0  0  0  0  0
  -24.9440  -11.8370   20.6710 C   0  0  0  0  0  0  0  0  0  0  0  0
  -26.5130  -13.1130   19.9700 N   0  0  0  0  0  0  0  0  0  0  0  0
  -26.1600  -11.8130   20.1370 N   0  0  0  0  0  0  0  0  0  0  0  0
  -24.2070  -10.5770   20.8290 C   0  0  0  0  0  0  0  0  0  0  0  0
  -24.6790   -9.5440   21.6670 C   0  0  0  0  0  3  0  0  0  0  0  0
  -23.9410   -8.3490   21.8150 C   0  0  0  0  0  3  0  0  0  0  0  0
  -22.7170   -8.1810   21.1250 C   0  0  0  0  0  0  0  0  0  0  0  0
  -22.2630   -9.2040   20.2750 C   0  0  0  0  0  3  0  0  0  0  0  0
  -23.0010  -10.3900   20.1240 C   0  0  0  0  0  3  0  0  0  0  0  0
  -21.9470   -7.0440   21.1890 O   0  0  0  0  0  0  0  0  0  0  0  0
  -21.8560   -6.2990   22.3360 C   0  0  0  0  0  0  0  0  0  0  0  0
  -21.4100   -6.8580   23.5530 C   0  0  0  0  0  3  0  0  0  0  0  0
  -21.2650   -6.0400   24.6920 C   0  0  0  0  0  3  0  0  0  0  0  0
  -21.5550   -4.6640   24.6140 C   0  0  0  0  0  0  0  0  0  0  0  0
  -21.9950   -4.1060   23.4010 C   0  0  0  0  0  3  0  0  0  0  0  0
  -22.1410   -4.9210   22.2650 C   0  0  0  0  0  0  0  0  0  0  0  0
  -22.5440   -4.3730   21.0930 F   0  0  0  0  0  0  0  0  0  0  0  0
  -21.4100   -3.8770   25.7050 F   0  0  0  0  0  0  0  0  0  0  0  0
  -23.2390  -13.6520   21.5080 C   0  0  0  0  0  0  0  0  0  0  0  0
  -22.6550  -12.8840   22.4220 N   0  0  0  0  0  0  0  0  0  0  0  0
  -22.7490  -14.7300   21.1740 O   0  0  0  0  0  0  0  0  0  0  0  0
  -23.0670  -12.0090   22.7090 H   0  0  0  0  0  0  0  0  0  0  0  0
  -21.7820  -13.1750   22.8390 H   0  0  0  0  0  0  0  0  0  0  0  0
  -25.7650  -15.3530   20.4720 N   0  0  0  0  0  0  0  0  0  0  0  0
  -25.0730  -16.0100   20.8150 H   0  0  0  0  0  0  0  0  0  0  0  0
  -26.5820  -15.8070   20.0810 H   0  0  0  0  0  0  0  0  0  0  0  0
  -30.5190  -15.3090   22.5500 C   0  0  0  0  0  2  0  0  0  0  0  0
  -29.8150  -16.0440   21.6650 C   0  0  0  0  0  3  0  0  0  0  0  0
  -28.8000  -23.6190   19.0940 C   0  0  0  0  0  0  0  0  0  0  0  0
  -28.8760  -23.5560   21.0810 C   0  0  0  0  0  0  0  0  0  0  0  0
  -28.0640  -24.5970   20.1560 C   0  0  0  0  0  3  0  0  0  0  0  0
  -28.9800  -22.5390   20.0490 N   0  0  0  0  0  0  0  0  0  0  0  0
  -29.0900  -23.6790   17.9150 O   0  0  0  0  0  0  0  0  0  0  0  0
  -29.2520  -23.5370   22.2370 O   0  0  0  0  0  0  0  0  0  0  0  0
  -28.3610  -26.1610   20.2310 O   0  0  0  0  0  0  0  0  0  0  0  0
  -24.6800  -31.9240   23.1410 C   0  0  0  0  0  0  0  0  0  0  0  0
  -27.3060  -27.1620   20.1680 C   0  0  0  0  0  0  0  0  0  0  0  0
  -23.4950  -30.4890   21.5290 C   0  0  0  0  0  3  0  0  0  0  0  0
  -24.9600  -28.9070   20.1200 C   0  0  0  0  0  0  0  0  0  0  0  0
  -26.0470  -30.7750   21.3520 C   0  0  0  0  0  2  0  0  0  0  0  0
  -26.1380  -29.3690   20.7200 C   0  0  0  0  0  0  0  0  0  0  0  0
  -27.3100  -28.5130   20.7250 C   0  0  0  0  0  3  0  0  0  0  0  0
  -26.1020  -26.8220   19.5140 C   0  0  0  0  0  3  0  0  0  0  0  0
  -24.9580  -27.6500   19.5000 C   0  0  0  0  0  3  0  0  0  0  0  0
  -23.7220  -29.7940   20.1590 C   0  0  0  0  0  2  0  0  0  0  0  0
  -24.7610  -31.0860   22.0620 N   0  0  0  0  0  0  0  0  0  0  0  0
  -23.5910  -32.2030   23.6660 O   0  0  0  0  0  0  0  0  0  0  0  0
  -22.8290  -29.4890   22.5080 C   0  0  0  0  0  0  0  0  0  0  0  0
  -21.5040  -29.2930   22.3830 N   0  0  0  0  0  0  0  0  0  0  0  0
  -23.5090  -28.8920   23.3470 O   0  0  0  0  0  0  0  0  0  0  0  0
  -21.0100  -29.8280   21.6820 H   0  0  0  0  0  0  0  0  0  0  0  0
  -18.1420  -28.0410   22.9100 C   0  0  0  0  0  0  0  0  0  0  0  0
  -20.6970  -28.3560   23.1700 C   0  0  0  0  0  3  0  0  0  0  0  0
  -20.8230  -26.9160   22.6230 C   0  0  0  0  0  2  0  0  0  0  0  0
  -19.7270  -26.5550   21.6140 C   0  0  0  0  0  2  0  0  0  0  0  0
  -18.3440  -26.6850   22.2560 C   0  0  0  0  0  2  0  0  0  0  0  0
  -19.2460  -28.8330   23.3250 C   0  0  0  0  0  0  0  0  0  0  0  0
  -19.0020  -30.0980   23.9010 C   0  0  0  0  0  3  0  0  0  0  0  0
  -17.6880  -30.5770   24.0600 C   0  0  0  0  0  3  0  0  0  0  0  0
  -16.5990  -29.7840   23.6590 C   0  0  0  0  0  3  0  0  0  0  0  0
  -16.8260  -28.5180   23.0910 C   0  0  0  0  0  3  0  0  0  0  0  0
  -25.9490  -32.5880   23.7540 C   0  0  0  0  0  3  0  0  0  0  0  0
  -26.5080  -31.8110   25.0090 C   0  0  1  0  0  0  0  0  0  0  0  0
  -25.4340  -31.4950   26.0760 C   0  0  0  0  0  1  0  0  0  0  0  0
  -27.1540  -30.4730   24.5850 C   0  0  0  0  0  1  0  0  0  0  0  0
  -27.6250  -32.6420   25.6870 C   0  0  0  0  0  1  0  0  0  0  0  0
  -25.6000  -33.9700   24.1240 N   0  0  0  0  0  0  0  0  0  0  0  0
  -25.8690  -35.0540   23.3820 C   0  0  0  0  0  0  0  0  0  0  0  0
  -26.5040  -34.9960   22.3260 O   0  0  0  0  0  0  0  0  0  0  0  0
  -25.0240  -34.0860   24.9460 H   0  0  0  0  0  0  0  0  0  0  0  0
  -24.0670  -36.7970   23.1410 C   0  0  0  0  0  1  0  0  0  0  0  0
  -25.3550  -36.4160   23.8910 C   0  0  0  0  0  3  0  0  0  0  0  0
  -27.4890  -37.3600   24.6550 C   0  0  0  0  0  1  0  0  0  0  0  0
  -26.3470  -37.5060   23.7570 N   0  0  0  0  0  0  0  0  0  0  0  0
  -25.9160  -38.4090   23.9360 H   0  0  0  0  0  0  0  0  0  0  0  0
  -29.6290  -17.9200   17.7100 N   0  0  0  0  0  0  0  0  0  0  0  0
  -29.1350  -18.3490   16.9370 H   0  0  0  0  0  0  0  0  0  0  0  0
  -29.4780  -16.9190   17.7580 H   0  0  0  0  0  0  0  0  0  0  0  0
  1  2  1  0
  3  6  2  0
  3  4  1  0
  4 49  1  0
  4  1  2  0
  5 15  1  0
  5  2  2  0
  6  5  1  0
  7 15  1  0
  8 13  1  0
  9 10  1  0
  9  8  1  0
 11 10  1  0
 11 19  1  0
 11 12  1  0
 13  7  1  0
 13 12  1  0
 14  7  2  0
 15 45  1  0
 16 17  2  0
 17 36  1  0
 18 21  1  0
 18 17  1  0
 19 20  1  0
 19 16  1  0
 20 18  2  0
 21 22  1  0
 22 23  2  0
 24 27  1  0
 24 23  1  0
 25 24  2  0
 26 25  1  0
 26 21  2  0
 27 28  1  0
 28 29  1  0
 29 30  2  0
 31 30  1  0
 31 35  1  0
 32 31  2  0
 33 28  2  0
 33 32  1  0
 34 33  1  0
 36 37  1  0
 37 39  1  0
 37 40  1  0
 38 36  2  0
 41 16  1  0
 41 42  1  0
 43 41  1  0
 45 44  2  0
 46 49  1  0
 46 48  1  0
 47 51  2  0
 48 52  1  0
 48 47  1  0
 49 47  1  0
 50 46  2  0
 53 64  2  0
 54 52  1  0
 54 59  1  0
 55 63  1  0
 55 65  1  0
 56 62  1  0
 56 58  1  0
 57 63  1  0
 58 59  2  0
 58 57  1  0
 60 54  2  0
 61 60  1  0
 61 56  2  0
 62 55  1  0
 63 53  1  0
 65 67  2  0
 66 65  1  0
 68 66  1  0
 69 78  2  0
 69 74  1  0
 70 66  1  0
 70 74  1  0
 71 70  1  0
 72 73  1  0
 72 71  1  0
 73 69  1  0
 74 75  2  0
 75 76  1  0
 77 76  2  0
 78 77  1  0
 79 53  1  0
 79 84  1  0
 79 80  1  0
 80 83  1  1
 80 81  1  0
 82 80  1  0
 84 87  1  0
 85 89  1  0
 85 84  1  0
 86 85  2  0
 89 88  1  0
 91 89  1  0
 91 92  1  0
 91 90  1  0
 93 95  1  0
 93  6  1  0
 94 93  1  0
M  ISO  4   7 100  15 100  48 101  52 101
M  END
>  <TORSDO>  (81) 
F 19

>  <SCORE>  (81) 
-12.043

>  <name>  (81) 
80

>  <ligand_id>  (81) 
80

>  <original_smiles>  (81) 
[H]C([H])=C([H])N(C(=O)N1C([H])([H])C([H])([H])C([H])([H])C([H])(n2nc(-c3c([H])c([H])c(Oc4c([H])c([H])c(F)c([H])c4F)c([H])c3[H])c(C(=O)N([H])[H])c2N([H])[H])C1([H])[H])c1c([H])c([H])c(N2C(=O)C([H])(Oc3c([H])c([H])c4c(c3[H])C([H])([H])N(C(=O)C([H])(N([H])C(=O)C([H])(N([H])C([H])([H])[H])C([H])([H])[H])C(C([H])([H])[H])(C([H])([H])[H])C([H])([H])[H])C([H])(C(=O)N([H])C3([H])c5c([H])c([H])c([H])c([H])c5C([H])([H])C([H])([H])C3([H])[H])C4([H])[H])C2=O)c([H])c1N([H])[H]

>  <smiles>  (81) 
[H]C([H])=C([H])N(C(=O)N1C([H])([H])C([H])([H])C([H])([H])C([H])(n2nc(-c3c([H])c([H])c(Oc4c([H])c([H])c(F)c([H])c4F)c([H])c3[H])c(C(=O)N([H])[H])c2N([H])[H])C1([H])[H])c1c([H])c([H])c(N2C(=O)C([H])(Oc3c([H])c([H])c4c(c3[H])C([H])([H])N(C(=O)C([H])(N([H])C(=O)C([H])(N([H])C([H])([H])[H])C([H])([H])[H])C(C([H])([H])[H])(C([H])([H])[H])C([H])([H])[H])C([H])(C(=O)N([H])C3([H])c5c([H])c([H])c([H])c([H])c5C([H])([H])C([H])([H])C3([H])[H])C4([H])[H])C2=O)c([H])c1N([H])[H]

$$$$
81:0:0
     RDKit          3D

 91100  0  0  1  0  0  0  0  0999 V2000
  -28.2000  -23.2600   19.3300 C   0  0  0  0  0  0  0  0  0  0  0  0
  -29.3510  -23.4000   20.9310 C   0  0  0  0  0  0  0  0  0  0  0  0
  -28.1240  -24.4090   20.4960 C   0  0  2  0  0  0  0  0  0  0  0  0
  -26.9920  -24.2220   21.5190 C   0  0  0  0  0  1  0  0  0  0  0  0
  -28.8830  -22.2540   20.1490 N   0  0  0  0  0  0  0  0  0  0  0  0
  -27.8250  -23.1870   18.1750 O   0  0  0  0  0  0  0  0  0  0  0  0
  -30.3150  -23.4910   21.6650 O   0  0  0  0  0  0  0  0  0  0  0  0
  -29.5650  -19.9800   18.8060 C   0  0  0  0  0  3  0  0  0  0  0  0
  -29.8670  -18.5140   18.8720 C   0  0  0  0  0  3  0  0  0  0  0  0
  -29.2720  -20.7100   19.9660 C   0  0  0  0  0  0  0  0  0  0  0  0
  -29.8160  -17.8400   20.0950 C   0  0  0  0  0  0  0  0  0  0  0  0
  -29.3900  -19.3150   21.1840 S   0  0  0  0  0  0  0  0  0  0  0  0
  -30.5830  -15.1990   19.8980 C   0  0  0  0  0  0  0  0  0  0  0  0
  -30.4370  -12.8200   18.8950 C   0  0  0  0  0  2  0  0  0  0  0  0
  -29.4190  -12.7190   17.7310 C   0  0  0  0  0  2  0  0  0  0  0  0
  -28.0040  -12.4460   18.2700 C   0  0  0  0  0  2  0  0  0  0  0  0
  -27.6640  -13.3550   19.4750 C   0  0  0  0  0  3  0  0  0  0  0  0
  -28.7930  -13.3780   20.5240 C   0  0  0  0  0  2  0  0  0  0  0  0
  -29.9980  -13.9040   19.8500 N   0  0  0  0  0  0  0  0  0  0  0  0
  -31.7050  -15.2540   19.3760 O   0  0  0  0  0  0  0  0  0  0  0  0
  -29.6780  -16.2160   21.9080 C   0  0  0  0  0  1  0  0  0  0  0  0
  -29.9560  -16.4050   20.4730 N   0  0  0  0  0  0  0  0  0  0  0  0
  -25.3580  -13.9070   20.4200 C   0  0  0  0  0  0  0  0  0  0  0  0
  -24.3210  -13.1240   20.8450 C   0  0  0  0  0  0  0  0  0  0  0  0
  -24.7750  -11.7740   20.7350 C   0  0  0  0  0  0  0  0  0  0  0  0
  -26.3720  -13.0350   20.0680 N   0  0  0  0  0  0  0  0  0  0  0  0
  -26.0380  -11.7430   20.3220 N   0  0  0  0  0  0  0  0  0  0  0  0
  -24.0580  -10.5090   20.9420 C   0  0  0  0  0  0  0  0  0  0  0  0
  -24.5080   -9.5460   21.8720 C   0  0  0  0  0  3  0  0  0  0  0  0
  -23.7890   -8.3470   22.0650 C   0  0  0  0  0  3  0  0  0  0  0  0
  -22.6040   -8.1050   21.3320 C   0  0  0  0  0  0  0  0  0  0  0  0
  -22.1720   -9.0560   20.3910 C   0  0  0  0  0  3  0  0  0  0  0  0
  -22.8920  -10.2460   20.1940 C   0  0  0  0  0  3  0  0  0  0  0  0
  -21.8540   -6.9580   21.4340 O   0  0  0  0  0  0  0  0  0  0  0  0
  -21.7580   -6.2640   22.6140 C   0  0  0  0  0  0  0  0  0  0  0  0
  -21.2820   -6.8690   23.7990 C   0  0  0  0  0  3  0  0  0  0  0  0
  -21.1350   -6.1010   24.9710 C   0  0  0  0  0  3  0  0  0  0  0  0
  -21.4550   -4.7290   24.9610 C   0  0  0  0  0  0  0  0  0  0  0  0
  -21.9230   -4.1240   23.7820 C   0  0  0  0  0  3  0  0  0  0  0  0
  -22.0740   -4.8890   22.6120 C   0  0  0  0  0  0  0  0  0  0  0  0
  -22.5050   -4.2960   21.4730 F   0  0  0  0  0  0  0  0  0  0  0  0
  -21.3060   -3.9900   26.0850 F   0  0  0  0  0  0  0  0  0  0  0  0
  -22.9530  -13.5990   21.2390 C   0  0  0  0  0  0  0  0  0  0  0  0
  -22.2980  -12.8880   22.1480 N   0  0  0  0  0  0  0  0  0  0  0  0
  -22.4790  -14.6370   20.7770 O   0  0  0  0  0  0  0  0  0  0  0  0
  -22.7010  -12.0490   22.5410 H   0  0  0  0  0  0  0  0  0  0  0  0
  -21.3840  -13.1840   22.4580 H   0  0  0  0  0  0  0  0  0  0  0  0
  -25.5160  -15.2830   20.2770 N   0  0  0  0  0  0  0  0  0  0  0  0
  -24.7590  -15.9310   20.4620 H   0  0  0  0  0  0  0  0  0  0  0  0
  -26.3470  -15.7320   19.9140 H   0  0  0  0  0  0  0  0  0  0  0  0
  -28.3560  -26.0000   20.2250 O   0  0  0  0  0  0  0  0  0  0  0  0
  -24.6710  -31.8240   23.1620 C   0  0  0  0  0  0  0  0  0  0  0  0
  -27.3050  -27.0360   20.1610 C   0  0  0  0  0  0  0  0  0  0  0  0
  -23.4910  -30.4040   21.5330 C   0  0  0  0  0  3  0  0  0  0  0  0
  -24.9600  -28.8250   20.1120 C   0  0  0  0  0  0  0  0  0  0  0  0
  -26.0470  -30.6760   21.3690 C   0  0  0  0  0  2  0  0  0  0  0  0
  -26.1390  -29.2700   20.7220 C   0  0  0  0  0  0  0  0  0  0  0  0
  -27.3080  -28.3970   20.7190 C   0  0  0  0  0  3  0  0  0  0  0  0
  -26.0990  -26.7280   19.4930 C   0  0  0  0  0  3  0  0  0  0  0  0
  -24.9590  -27.5710   19.4790 C   0  0  0  0  0  3  0  0  0  0  0  0
  -23.7230  -29.7160   20.1580 C   0  0  0  0  0  2  0  0  0  0  0  0
  -24.7580  -30.9930   22.0760 N   0  0  0  0  0  0  0  0  0  0  0  0
  -23.5790  -32.0990   23.6860 O   0  0  0  0  0  0  0  0  0  0  0  0
  -22.8170  -29.4020   22.5030 C   0  0  0  0  0  0  0  0  0  0  0  0
  -21.4870  -29.2340   22.3890 N   0  0  0  0  0  0  0  0  0  0  0  0
  -23.4950  -28.7760   23.3210 O   0  0  0  0  0  0  0  0  0  0  0  0
  -20.9960  -29.7880   21.7020 H   0  0  0  0  0  0  0  0  0  0  0  0
  -18.1150  -28.0200   22.9310 C   0  0  0  0  0  0  0  0  0  0  0  0
  -20.6750  -28.2920   23.1650 C   0  0  0  0  0  3  0  0  0  0  0  0
  -20.7720  -26.8620   22.5850 C   0  0  0  0  0  2  0  0  0  0  0  0
  -19.6590  -26.5380   21.5830 C   0  0  0  0  0  2  0  0  0  0  0  0
  -18.2880  -26.6730   22.2490 C   0  0  0  0  0  2  0  0  0  0  0  0
  -19.2350  -28.7870   23.3490 C   0  0  0  0  0  0  0  0  0  0  0  0
  -19.0170  -30.0430   23.9540 C   0  0  0  0  0  3  0  0  0  0  0  0
  -17.7120  -30.5320   24.1490 C   0  0  0  0  0  3  0  0  0  0  0  0
  -16.6060  -29.7630   23.7480 C   0  0  0  0  0  3  0  0  0  0  0  0
  -16.8080  -28.5090   23.1430 C   0  0  0  0  0  3  0  0  0  0  0  0
  -25.9350  -32.4830   23.7910 C   0  0  0  0  0  3  0  0  0  0  0  0
  -25.5950  -33.8740   24.1380 N   0  0  0  0  0  0  0  0  0  0  0  0
  -25.9000  -34.9470   23.3960 C   0  0  0  0  0  0  0  0  0  0  0  0
  -26.5640  -34.8710   22.3590 O   0  0  0  0  0  0  0  0  0  0  0  0
  -25.0010  -34.0050   24.9440 H   0  0  0  0  0  0  0  0  0  0  0  0
  -24.1360  -36.7180   23.0960 C   0  0  0  0  0  1  0  0  0  0  0  0
  -25.3960  -36.3220   23.8810 C   0  0  0  0  0  3  0  0  0  0  0  0
  -27.5240  -37.2400   24.6980 C   0  0  0  0  0  1  0  0  0  0  0  0
  -26.4090  -37.3950   23.7670 N   0  0  0  0  0  0  0  0  0  0  0  0
  -25.9900  -38.3070   23.9210 H   0  0  0  0  0  0  0  0  0  0  0  0
  -26.4630  -31.7180   25.0670 C   0  0  1  0  0  0  0  0  0  0  0  0
  -25.3760  -31.4620   26.1370 C   0  0  0  0  0  1  0  0  0  0  0  0
  -27.0670  -30.3500   24.6790 C   0  0  0  0  0  1  0  0  0  0  0  0
  -27.6010  -32.5300   25.7320 C   0  0  0  0  0  1  0  0  0  0  0  0
  1  5  1  0
  1  3  1  0
  2  7  2  0
  3  2  1  0
  3  4  1  1
  5  2  1  0
  6  1  2  0
  8  9  1  0
  8 10  2  0
  9 11  2  0
 10  5  1  0
 10 12  1  0
 11 22  1  0
 11 12  1  0
 13 22  1  0
 14 19  1  0
 15 16  1  0
 15 14  1  0
 17 16  1  0
 17 26  1  0
 17 18  1  0
 19 13  1  0
 19 18  1  0
 20 13  2  0
 22 21  1  0
 23 24  2  0
 24 43  1  0
 25 24  1  0
 25 28  1  0
 26 27  1  0
 26 23  1  0
 27 25  2  0
 28 29  1  0
 29 30  2  0
 31 34  1  0
 31 30  1  0
 32 31  2  0
 33 32  1  0
 33 28  2  0
 34 35  1  0
 35 36  1  0
 36 37  2  0
 38 37  1  0
 38 42  1  0
 39 38  2  0
 40 35  2  0
 40 39  1  0
 41 40  1  0
 43 44  1  0
 44 47  1  0
 44 46  1  0
 45 43  2  0
 48 23  1  0
 48 49  1  0
 50 48  1  0
 51  3  1  0
 52 63  2  0
 53 51  1  0
 53 58  1  0
 54 62  1  0
 54 64  1  0
 55 61  1  0
 55 57  1  0
 56 62  1  0
 57 56  1  0
 58 57  2  0
 59 53  2  0
 60 59  1  0
 60 55  2  0
 61 54  1  0
 62 52  1  0
 64 66  2  0
 65 64  1  0
 67 65  1  0
 68 77  2  0
 68 73  1  0
 69 65  1  0
 69 73  1  0
 70 69  1  0
 71 72  1  0
 71 70  1  0
 72 68  1  0
 73 74  2  0
 74 75  1  0
 76 75  2  0
 77 76  1  0
 78 52  1  0
 78 79  1  0
 78 88  1  0
 79 82  1  0
 80 84  1  0
 80 79  1  0
 81 80  2  0
 84 83  1  0
 86 84  1  0
 86 87  1  0
 86 85  1  0
 88 91  1  1
 88 89  1  0
 90 88  1  0
M  ISO  4   3 101  13 100  22 100  51 101
M  END
>  <TORSDO>  (82) 
F 17

>  <SCORE>  (82) 
-14.266

>  <name>  (82) 
81

>  <ligand_id>  (82) 
81

>  <original_smiles>  (82) 
[H]c1c(N2C(=O)C(Oc3c([H])c([H])c4c(c3[H])C([H])([H])N(C(=O)C([H])(N([H])C(=O)C([H])(N([H])C([H])([H])[H])C([H])([H])[H])C(C([H])([H])[H])(C([H])([H])[H])C([H])([H])[H])C([H])(C(=O)N([H])C3([H])c5c([H])c([H])c([H])c([H])c5C([H])([H])C([H])([H])C3([H])[H])C4([H])[H])(C([H])([H])[H])C2=O)sc(N(C(=O)N2C([H])([H])C([H])([H])C([H])([H])C([H])(n3nc(-c4c([H])c([H])c(Oc5c([H])c([H])c(F)c([H])c5F)c([H])c4[H])c(C(=O)N([H])[H])c3N([H])[H])C2([H])[H])C([H])([H])[H])c1[H]

>  <smiles>  (82) 
[H]c1c(N2C(=O)C(Oc3c([H])c([H])c4c(c3[H])C([H])([H])N(C(=O)C([H])(N([H])C(=O)C([H])(N([H])C([H])([H])[H])C([H])([H])[H])C(C([H])([H])[H])(C([H])([H])[H])C([H])([H])[H])C([H])(C(=O)N([H])C3([H])c5c([H])c([H])c([H])c([H])c5C([H])([H])C([H])([H])C3([H])[H])C4([H])[H])(C([H])([H])[H])C2=O)sc(N(C(=O)N2C([H])([H])C([H])([H])C([H])([H])C([H])(n3nc(-c4c([H])c([H])c(Oc5c([H])c([H])c(F)c([H])c5F)c([H])c4[H])c(C(=O)N([H])[H])c3N([H])[H])C2([H])[H])C([H])([H])[H])c1[H]

$$$$
82:0:0
     RDKit          3D

 93102  0  0  1  0  0  0  0  0999 V2000
  -30.9990  -19.7060   18.7840 C   0  0  0  0  0  3  0  0  0  0  0  0
  -29.1150  -19.0650   20.6500 C   0  0  0  0  0  3  0  0  0  0  0  0
  -30.2700  -20.7890   19.3430 C   0  0  0  0  0  0  0  0  0  0  0  0
  -30.8040  -18.3270   19.0990 C   0  0  0  0  0  0  0  0  0  0  0  0
  -29.2600  -20.5280   20.2880 C   0  0  0  0  0  0  0  0  0  0  0  0
  -29.8870  -17.8850   20.1060 C   0  0  0  0  0  0  0  0  0  0  0  0
  -30.5490  -22.2260   18.9060 C   0  0  0  0  0  0  0  0  0  0  0  0
  -28.7400  -23.0280   20.3120 C   0  0  0  0  0  0  0  0  0  0  0  0
  -31.5870  -17.3600   18.2260 C   0  0  0  0  0  1  0  0  0  0  0  0
  -28.4940  -21.7530   20.7420 N   0  0  0  0  0  0  0  0  0  0  0  0
  -29.7910  -23.2220   19.4200 N   0  0  0  0  0  0  0  0  0  0  0  0
  -31.4470  -22.4660   18.0930 O   0  0  0  0  0  0  0  0  0  0  0  0
  -29.9890  -24.1630   19.1190 H   0  0  0  0  0  0  0  0  0  0  0  0
  -30.4500  -15.1040   20.2900 C   0  0  0  0  0  0  0  0  0  0  0  0
  -30.3430  -12.7160   19.3840 C   0  0  0  0  0  2  0  0  0  0  0  0
  -29.4180  -12.6150   18.1500 C   0  0  0  0  0  2  0  0  0  0  0  0
  -27.9570  -12.3860   18.5830 C   0  0  0  0  0  2  0  0  0  0  0  0
  -27.5340  -13.3230   19.7440 C   0  0  0  0  0  3  0  0  0  0  0  0
  -28.5880  -13.3960   20.8690 C   0  0  0  0  0  2  0  0  0  0  0  0
  -29.8460  -13.8350   20.2500 N   0  0  0  0  0  0  0  0  0  0  0  0
  -31.6640  -15.0940   20.0640 O   0  0  0  0  0  0  0  0  0  0  0  0
  -29.6980  -16.3440   20.4280 N   0  0  0  0  0  0  0  0  0  0  0  0
  -28.7720  -16.1420   20.7740 H   0  0  0  0  0  0  0  0  0  0  0  0
  -25.1610  -13.8850   20.5040 C   0  0  0  0  0  0  0  0  0  0  0  0
  -24.1030  -13.1080   20.8830 C   0  0  0  0  0  0  0  0  0  0  0  0
  -24.5710  -11.7590   20.8520 C   0  0  0  0  0  0  0  0  0  0  0  0
  -26.2040  -13.0120   20.2550 N   0  0  0  0  0  0  0  0  0  0  0  0
  -25.8610  -11.7260   20.5340 N   0  0  0  0  0  0  0  0  0  0  0  0
  -23.8450  -10.4960   21.0500 C   0  0  0  0  0  0  0  0  0  0  0  0
  -24.2870   -9.5250   21.9770 C   0  0  0  0  0  3  0  0  0  0  0  0
  -23.5620   -8.3280   22.1620 C   0  0  0  0  0  3  0  0  0  0  0  0
  -22.3790   -8.0950   21.4220 C   0  0  0  0  0  0  0  0  0  0  0  0
  -21.9560   -9.0520   20.4830 C   0  0  0  0  0  3  0  0  0  0  0  0
  -22.6830  -10.2400   20.2960 C   0  0  0  0  0  3  0  0  0  0  0  0
  -21.6230   -6.9510   21.5180 O   0  0  0  0  0  0  0  0  0  0  0  0
  -21.5940   -6.1990   22.6670 C   0  0  0  0  0  0  0  0  0  0  0  0
  -21.1960   -6.7470   23.9050 C   0  0  0  0  0  3  0  0  0  0  0  0
  -21.1140   -5.9240   25.0450 C   0  0  0  0  0  3  0  0  0  0  0  0
  -21.4200   -4.5530   24.9480 C   0  0  0  0  0  0  0  0  0  0  0  0
  -21.8110   -4.0040   23.7140 C   0  0  0  0  0  3  0  0  0  0  0  0
  -21.8950   -4.8250   22.5760 C   0  0  0  0  0  0  0  0  0  0  0  0
  -22.2540   -4.2870   21.3840 F   0  0  0  0  0  0  0  0  0  0  0  0
  -21.3350   -3.7590   26.0410 F   0  0  0  0  0  0  0  0  0  0  0  0
  -22.7050  -13.5840   21.1540 C   0  0  0  0  0  0  0  0  0  0  0  0
  -21.9760  -12.8960   22.0280 N   0  0  0  0  0  0  0  0  0  0  0  0
  -22.2630  -14.6020   20.6250 O   0  0  0  0  0  0  0  0  0  0  0  0
  -22.3440  -12.0730   22.4820 H   0  0  0  0  0  0  0  0  0  0  0  0
  -21.0370  -13.1990   22.2430 H   0  0  0  0  0  0  0  0  0  0  0  0
  -25.3160  -15.2560   20.3200 N   0  0  0  0  0  0  0  0  0  0  0  0
  -24.5330  -15.8950   20.4200 H   0  0  0  0  0  0  0  0  0  0  0  0
  -26.1460  -15.6980   19.9500 H   0  0  0  0  0  0  0  0  0  0  0  0
  -27.8990  -24.5020   20.6570 C   0  0  0  0  0  2  0  0  0  0  0  0
  -28.2380  -26.0220   20.2990 O   0  0  0  0  0  0  0  0  0  0  0  0
  -24.6360  -31.8750   23.2220 C   0  0  0  0  0  0  0  0  0  0  0  0
  -27.2100  -27.0650   20.2570 C   0  0  0  0  0  0  0  0  0  0  0  0
  -23.4390  -30.4620   21.5960 C   0  0  0  0  0  3  0  0  0  0  0  0
  -24.8920  -28.8640   20.1910 C   0  0  0  0  0  0  0  0  0  0  0  0
  -25.9990  -30.7080   21.4370 C   0  0  0  0  0  2  0  0  0  0  0  0
  -26.0750  -29.3010   20.8020 C   0  0  0  0  0  0  0  0  0  0  0  0
  -27.2340  -28.4200   20.8150 C   0  0  0  0  0  3  0  0  0  0  0  0
  -26.0030  -26.7560   19.5940 C   0  0  0  0  0  3  0  0  0  0  0  0
  -24.8740  -27.6060   19.5690 C   0  0  0  0  0  3  0  0  0  0  0  0
  -23.6670  -29.7690   20.2270 C   0  0  0  0  0  2  0  0  0  0  0  0
  -24.7120  -31.0400   22.1390 N   0  0  0  0  0  0  0  0  0  0  0  0
  -23.5480  -32.1670   23.7450 O   0  0  0  0  0  0  0  0  0  0  0  0
  -22.7560  -29.4680   22.5710 C   0  0  0  0  0  0  0  0  0  0  0  0
  -21.4260  -29.3000   22.4510 N   0  0  0  0  0  0  0  0  0  0  0  0
  -23.4270  -28.8500   23.4000 O   0  0  0  0  0  0  0  0  0  0  0  0
  -20.9390  -29.8520   21.7590 H   0  0  0  0  0  0  0  0  0  0  0  0
  -18.0470  -28.0940   22.9680 C   0  0  0  0  0  0  0  0  0  0  0  0
  -20.6060  -28.3690   23.2310 C   0  0  0  0  0  3  0  0  0  0  0  0
  -20.7100  -26.9310   22.6710 C   0  0  0  0  0  2  0  0  0  0  0  0
  -19.6100  -26.5940   21.6600 C   0  0  0  0  0  2  0  0  0  0  0  0
  -18.2270  -26.7400   22.3030 C   0  0  0  0  0  2  0  0  0  0  0  0
  -19.1630  -28.8650   23.3890 C   0  0  0  0  0  0  0  0  0  0  0  0
  -18.9380  -30.1300   23.9730 C   0  0  0  0  0  3  0  0  0  0  0  0
  -17.6320  -30.6260   24.1390 C   0  0  0  0  0  3  0  0  0  0  0  0
  -16.5300  -29.8530   23.7330 C   0  0  0  0  0  3  0  0  0  0  0  0
  -16.7390  -28.5880   23.1560 C   0  0  0  0  0  3  0  0  0  0  0  0
  -25.9100  -32.5220   23.8460 C   0  0  0  0  0  3  0  0  0  0  0  0
  -25.5900  -33.9180   24.1850 N   0  0  0  0  0  0  0  0  0  0  0  0
  -25.8990  -34.9810   23.4300 C   0  0  0  0  0  0  0  0  0  0  0  0
  -26.5520  -34.8890   22.3870 O   0  0  0  0  0  0  0  0  0  0  0  0
  -25.0140  -34.0650   25.0020 H   0  0  0  0  0  0  0  0  0  0  0  0
  -24.1470  -36.7610   23.1260 C   0  0  0  0  0  1  0  0  0  0  0  0
  -25.4100  -36.3630   23.9060 C   0  0  0  0  0  3  0  0  0  0  0  0
  -27.5580  -37.2650   24.6860 C   0  0  0  0  0  1  0  0  0  0  0  0
  -26.4270  -37.4290   23.7760 N   0  0  0  0  0  0  0  0  0  0  0  0
  -26.0140  -38.3410   23.9450 H   0  0  0  0  0  0  0  0  0  0  0  0
  -26.4320  -31.7550   25.1240 C   0  0  1  0  0  0  0  0  0  0  0  0
  -25.3430  -31.5180   26.1960 C   0  0  0  0  0  1  0  0  0  0  0  0
  -27.0200  -30.3780   24.7390 C   0  0  0  0  0  1  0  0  0  0  0  0
  -27.5820  -32.5550   25.7800 C   0  0  0  0  0  1  0  0  0  0  0  0
  1  4  2  0
  1  3  1  0
  3  5  2  0
  4  6  1  0
  5  2  1  0
  5 10  1  0
  6 22  1  0
  6  2  2  0
  7  3  1  0
  7 11  1  0
  8 52  1  0
  8 10  2  0
  9  4  1  0
 11  8  1  0
 12  7  2  0
 13 11  1  0
 14 22  1  0
 15 20  1  0
 16 17  1  0
 16 15  1  0
 18 17  1  0
 18 27  1  0
 18 19  1  0
 20 14  1  0
 20 19  1  0
 21 14  2  0
 22 23  1  0
 24 25  2  0
 25 44  1  0
 26 25  1  0
 26 29  1  0
 27 24  1  0
 27 28  1  0
 28 26  2  0
 29 30  1  0
 30 31  2  0
 32 35  1  0
 32 31  1  0
 33 32  2  0
 34 33  1  0
 34 29  2  0
 35 36  1  0
 36 37  1  0
 37 38  2  0
 39 38  1  0
 39 43  1  0
 40 39  2  0
 41 36  2  0
 41 40  1  0
 42 41  1  0
 44 45  1  0
 45 48  1  0
 45 47  1  0
 46 44  2  0
 49 50  1  0
 49 24  1  0
 51 49  1  0
 53 52  1  0
 54 65  2  0
 55 53  1  0
 55 60  1  0
 56 64  1  0
 56 66  1  0
 57 63  1  0
 57 59  1  0
 58 64  1  0
 59 60  2  0
 59 58  1  0
 61 55  2  0
 62 61  1  0
 62 57  2  0
 63 56  1  0
 64 54  1  0
 66 68  2  0
 67 66  1  0
 69 67  1  0
 70 79  2  0
 70 75  1  0
 71 67  1  0
 71 75  1  0
 72 71  1  0
 73 74  1  0
 73 72  1  0
 74 70  1  0
 75 76  2  0
 76 77  1  0
 78 77  2  0
 79 78  1  0
 80 54  1  0
 80 81  1  0
 80 90  1  0
 81 84  1  0
 82 86  1  0
 82 81  1  0
 83 82  2  0
 86 85  1  0
 88 86  1  0
 88 89  1  0
 88 87  1  0
 90 93  1  1
 90 91  1  0
 92 90  1  0
M  ISO  4  14 100  22 100  52 101  53 101
M  END
>  <TORSDO>  (83) 
F 17

>  <SCORE>  (83) 
-15.816

>  <name>  (83) 
82

>  <ligand_id>  (83) 
82

>  <original_smiles>  (83) 
[H]c1c([H])c([H])c2c(c1[H])C([H])([H])C([H])([H])C([H])([H])C2([H])N([H])C(=O)C1([H])N(C(=O)C([H])(N([H])C(=O)C([H])(N([H])C([H])([H])[H])C([H])([H])[H])C(C([H])([H])[H])(C([H])([H])[H])C([H])([H])[H])C([H])([H])c2c([H])c(OC([H])([H])c3nc4c([H])c(N([H])C(=O)N5C([H])([H])C([H])([H])C([H])([H])C([H])(n6nc(-c7c([H])c([H])c(Oc8c([H])c([H])c(F)c([H])c8F)c([H])c7[H])c(C(=O)N([H])[H])c6N([H])[H])C5([H])[H])c(C([H])([H])[H])c([H])c4c(=O)n3[H])c([H])c([H])c2C1([H])[H]

>  <smiles>  (83) 
[H]c1c([H])c([H])c2c(c1[H])C([H])([H])C([H])([H])C([H])([H])C2([H])N([H])C(=O)C1([H])N(C(=O)C([H])(N([H])C(=O)C([H])(N([H])C([H])([H])[H])C([H])([H])[H])C(C([H])([H])[H])(C([H])([H])[H])C([H])([H])[H])C([H])([H])c2c([H])c(OC([H])([H])c3nc4c([H])c(N([H])C(=O)N5C([H])([H])C([H])([H])C([H])([H])C([H])(n6nc(-c7c([H])c([H])c(Oc8c([H])c([H])c(F)c([H])c8F)c([H])c7[H])c(C(=O)N([H])[H])c6N([H])[H])C5([H])[H])c(C([H])([H])[H])c([H])c4c(=O)n3[H])c([H])c([H])c2C1([H])[H]

$$$$
83:0:0
     RDKit          3D

 97106  0  0  1  0  0  0  0  0999 V2000
  -30.4020  -23.7970   20.0960 C   0  0  0  0  0  0  0  0  0  0  0  0
  -29.1020  -23.8140   19.7810 C   0  0  0  0  0  0  0  0  0  0  0  0
  -30.8410  -22.4120   20.2400 C   0  0  0  0  0  0  0  0  0  0  0  0
  -28.6970  -22.3950   19.7130 C   0  0  0  0  0  0  0  0  0  0  0  0
  -31.3560  -24.9730   20.2270 C   0  0  0  0  0  1  0  0  0  0  0  0
  -29.7810  -21.6050   19.9860 N   0  0  0  0  0  0  0  0  0  0  0  0
  -31.9790  -22.0380   20.5470 O   0  0  0  0  0  0  0  0  0  0  0  0
  -27.5680  -21.9730   19.4320 O   0  0  0  0  0  0  0  0  0  0  0  0
  -30.9540  -19.3540   19.6020 C   0  0  0  0  0  3  0  0  0  0  0  0
  -31.0160  -17.9260   19.6910 C   0  0  0  0  0  3  0  0  0  0  0  0
  -28.7450  -19.3330   20.5380 C   0  0  0  0  0  3  0  0  0  0  0  0
  -29.8230  -20.1170   20.0330 C   0  0  0  0  0  0  0  0  0  0  0  0
  -29.9400  -17.1620   20.2160 C   0  0  0  0  0  0  0  0  0  0  0  0
  -28.8030  -17.9080   20.6300 C   0  0  0  0  0  0  0  0  0  0  0  0
  -30.6130  -14.6680   19.8130 C   0  0  0  0  0  0  0  0  0  0  0  0
  -30.2810  -12.4720   18.6930 C   0  0  0  0  0  2  0  0  0  0  0  0
  -29.2220  -12.6600   17.5830 C   0  0  0  0  0  2  0  0  0  0  0  0
  -27.7960  -12.4940   18.1490 C   0  0  0  0  0  2  0  0  0  0  0  0
  -27.5740  -13.3040   19.4540 C   0  0  0  0  0  3  0  0  0  0  0  0
  -28.7360  -13.0900   20.4500 C   0  0  0  0  0  2  0  0  0  0  0  0
  -29.9860  -13.4490   19.7600 N   0  0  0  0  0  0  0  0  0  0  0  0
  -31.7290  -14.8350   19.3110 O   0  0  0  0  0  0  0  0  0  0  0  0
  -29.8660  -15.7010   20.3100 N   0  0  0  0  0  0  0  0  0  0  0  0
  -29.0070  -15.3950   20.7430 H   0  0  0  0  0  0  0  0  0  0  0  0
  -25.2720  -13.8950   20.4320 C   0  0  0  0  0  0  0  0  0  0  0  0
  -24.2310  -13.1180   20.8630 C   0  0  0  0  0  0  0  0  0  0  0  0
  -24.6660  -11.7640   20.7220 C   0  0  0  0  0  0  0  0  0  0  0  0
  -26.2750  -13.0150   20.0570 N   0  0  0  0  0  0  0  0  0  0  0  0
  -25.9200  -11.7250   20.2890 N   0  0  0  0  0  0  0  0  0  0  0  0
  -23.9400  -10.5030   20.9200 C   0  0  0  0  0  0  0  0  0  0  0  0
  -24.3920   -9.5270   21.8360 C   0  0  0  0  0  3  0  0  0  0  0  0
  -23.6660   -8.3310   22.0230 C   0  0  0  0  0  3  0  0  0  0  0  0
  -22.4740   -8.1020   21.2960 C   0  0  0  0  0  0  0  0  0  0  0  0
  -22.0400   -9.0670   20.3700 C   0  0  0  0  0  3  0  0  0  0  0  0
  -22.7660  -10.2550   20.1800 C   0  0  0  0  0  3  0  0  0  0  0  0
  -21.7180   -6.9590   21.3920 O   0  0  0  0  0  0  0  0  0  0  0  0
  -21.6260   -6.2560   22.5660 C   0  0  0  0  0  0  0  0  0  0  0  0
  -21.1530   -6.8500   23.7560 C   0  0  0  0  0  3  0  0  0  0  0  0
  -21.0080   -6.0720   24.9220 C   0  0  0  0  0  3  0  0  0  0  0  0
  -21.3240   -4.7000   24.8980 C   0  0  0  0  0  0  0  0  0  0  0  0
  -21.7890   -4.1060   23.7120 C   0  0  0  0  0  3  0  0  0  0  0  0
  -21.9360   -4.8810   22.5490 C   0  0  0  0  0  0  0  0  0  0  0  0
  -22.3640   -4.2970   21.4030 F   0  0  0  0  0  0  0  0  0  0  0  0
  -21.1780   -3.9510   26.0150 F   0  0  0  0  0  0  0  0  0  0  0  0
  -22.8770  -13.5980   21.2970 C   0  0  0  0  0  0  0  0  0  0  0  0
  -22.2350  -12.8800   22.2110 N   0  0  0  0  0  0  0  0  0  0  0  0
  -22.4000  -14.6460   20.8620 O   0  0  0  0  0  0  0  0  0  0  0  0
  -22.6340  -12.0320   22.5840 H   0  0  0  0  0  0  0  0  0  0  0  0
  -21.3310  -13.1840   22.5430 H   0  0  0  0  0  0  0  0  0  0  0  0
  -25.4410  -15.2710   20.3160 N   0  0  0  0  0  0  0  0  0  0  0  0
  -24.7170  -15.9240   20.5940 H   0  0  0  0  0  0  0  0  0  0  0  0
  -26.3170  -15.7330   20.1000 H   0  0  0  0  0  0  0  0  0  0  0  0
  -27.7040  -17.2180   21.1440 N   0  0  0  0  0  0  0  0  0  0  0  0
  -26.9680  -17.7900   21.5430 H   0  0  0  0  0  0  0  0  0  0  0  0
  -27.9150  -16.4390   21.7550 H   0  0  0  0  0  0  0  0  0  0  0  0
  -28.1440  -25.0040   19.4090 C   0  0  0  0  0  2  0  0  0  0  0  0
  -28.3730  -26.4200   19.8200 O   0  0  0  0  0  0  0  0  0  0  0  0
  -24.4690  -31.6320   23.0200 C   0  0  0  0  0  0  0  0  0  0  0  0
  -27.2410  -27.2670   19.7970 C   0  0  0  0  0  0  0  0  0  0  0  0
  -23.3220  -30.2610   21.3210 C   0  0  0  0  0  3  0  0  0  0  0  0
  -24.8260  -28.8200   19.8470 C   0  0  0  0  0  0  0  0  0  0  0  0
  -25.8550  -30.6590   21.1730 C   0  0  0  0  0  2  0  0  0  0  0  0
  -25.9810  -29.3120   20.4710 C   0  0  0  0  0  0  0  0  0  0  0  0
  -27.1890  -28.5470   20.4390 C   0  0  0  0  0  3  0  0  0  0  0  0
  -26.0520  -26.8460   19.1460 C   0  0  0  0  0  3  0  0  0  0  0  0
  -24.8650  -27.5920   19.1790 C   0  0  0  0  0  3  0  0  0  0  0  0
  -23.5640  -29.6520   19.9180 C   0  0  0  0  0  2  0  0  0  0  0  0
  -24.5670  -30.8670   21.8940 N   0  0  0  0  0  0  0  0  0  0  0  0
  -23.3730  -31.8550   23.5550 O   0  0  0  0  0  0  0  0  0  0  0  0
  -22.6860  -29.1860   22.2360 C   0  0  0  0  0  0  0  0  0  0  0  0
  -21.3610  -28.9940   22.1160 N   0  0  0  0  0  0  0  0  0  0  0  0
  -23.3840  -28.5300   23.0140 O   0  0  0  0  0  0  0  0  0  0  0  0
  -20.8560  -29.5750   21.4610 H   0  0  0  0  0  0  0  0  0  0  0  0
  -17.9980  -27.7700   22.6480 C   0  0  0  0  0  0  0  0  0  0  0  0
  -20.5650  -28.0080   22.8490 C   0  0  0  0  0  3  0  0  0  0  0  0
  -20.6440  -26.6170   22.1790 C   0  0  0  0  0  2  0  0  0  0  0  0
  -19.5080  -26.3620   21.1830 C   0  0  0  0  0  2  0  0  0  0  0  0
  -18.1480  -26.4680   21.8790 C   0  0  0  0  0  2  0  0  0  0  0  0
  -19.1320  -28.5010   23.0900 C   0  0  0  0  0  0  0  0  0  0  0  0
  -18.9360  -29.7230   23.7700 C   0  0  0  0  0  3  0  0  0  0  0  0
  -17.6400  -30.2130   24.0100 C   0  0  0  0  0  3  0  0  0  0  0  0
  -16.5190  -29.4770   23.5850 C   0  0  0  0  0  3  0  0  0  0  0  0
  -16.7000  -28.2580   22.9090 C   0  0  0  0  0  3  0  0  0  0  0  0
  -25.7260  -32.2830   23.6720 C   0  0  0  0  0  3  0  0  0  0  0  0
  -26.2500  -31.4900   24.9310 C   0  0  1  0  0  0  0  0  0  0  0  0
  -25.1510  -31.1910   25.9780 C   0  0  0  0  0  1  0  0  0  0  0  0
  -26.8770  -30.1410   24.5090 C   0  0  0  0  0  1  0  0  0  0  0  0
  -27.3690  -32.2970   25.6310 C   0  0  0  0  0  1  0  0  0  0  0  0
  -25.3730  -33.6620   24.0420 N   0  0  0  0  0  0  0  0  0  0  0  0
  -25.6630  -34.7440   23.3080 C   0  0  0  0  0  0  0  0  0  0  0  0
  -26.3290  -34.6900   22.2710 O   0  0  0  0  0  0  0  0  0  0  0  0
  -24.7820  -33.7750   24.8520 H   0  0  0  0  0  0  0  0  0  0  0  0
  -23.8640  -36.4770   23.0240 C   0  0  0  0  0  1  0  0  0  0  0  0
  -25.1330  -36.1020   23.8060 C   0  0  0  0  0  3  0  0  0  0  0  0
  -27.2480  -37.0480   24.6210 C   0  0  0  0  0  1  0  0  0  0  0  0
  -26.1220  -37.1980   23.7020 N   0  0  0  0  0  0  0  0  0  0  0  0
  -25.6840  -38.0970   23.8810 H   0  0  0  0  0  0  0  0  0  0  0  0
  1  5  1  0
  1  3  1  0
  2  1  2  0
  3  7  2  0
  4  2  1  0
  4  6  1  0
  6 12  1  0
  6  3  1  0
  8  4  2  0
  9 10  2  0
  9 12  1  0
 10 13  1  0
 11 14  1  0
 12 11  2  0
 13 23  1  0
 13 14  2  0
 14 53  1  0
 15 23  1  0
 16 21  1  0
 17 18  1  0
 17 16  1  0
 19 18  1  0
 19 28  1  0
 19 20  1  0
 21 15  1  0
 21 20  1  0
 22 15  2  0
 23 24  1  0
 25 26  2  0
 26 45  1  0
 27 26  1  0
 27 30  1  0
 28 29  1  0
 28 25  1  0
 29 27  2  0
 30 31  1  0
 31 32  2  0
 33 36  1  0
 33 32  1  0
 34 33  2  0
 35 34  1  0
 35 30  2  0
 36 37  1  0
 37 38  1  0
 38 39  2  0
 40 39  1  0
 40 44  1  0
 41 40  2  0
 42 37  2  0
 42 41  1  0
 43 42  1  0
 45 46  1  0
 46 49  1  0
 46 48  1  0
 47 45  2  0
 50 25  1  0
 50 51  1  0
 52 50  1  0
 53 54  1  0
 53 55  1  0
 56  2  1  0
 56 57  1  0
 58 69  2  0
 59 57  1  0
 59 64  1  0
 60 68  1  0
 60 70  1  0
 61 67  1  0
 61 63  1  0
 62 68  1  0
 63 62  1  0
 64 63  2  0
 65 66  1  0
 65 59  2  0
 66 61  2  0
 67 60  1  0
 68 58  1  0
 70 72  2  0
 71 70  1  0
 73 71  1  0
 74 83  2  0
 74 79  1  0
 75 71  1  0
 75 79  1  0
 76 75  1  0
 77 78  1  0
 77 76  1  0
 78 74  1  0
 79 80  2  0
 80 81  1  0
 82 81  2  0
 83 82  1  0
 84 58  1  0
 84 89  1  0
 84 85  1  0
 85 88  1  1
 85 86  1  0
 87 85  1  0
 89 92  1  0
 90 94  1  0
 90 89  1  0
 91 90  2  0
 94 93  1  0
 96 94  1  0
 96 97  1  0
 96 95  1  0
M  ISO  4  15 100  23 100  56 101  57 101
M  END
>  <TORSDO>  (84) 
F 19

>  <SCORE>  (84) 
-13.335

>  <name>  (84) 
83

>  <ligand_id>  (84) 
83

>  <original_smiles>  (84) 
[H]c1c([H])c([H])c2c(c1[H])C([H])([H])C([H])([H])C([H])([H])C2([H])N([H])C(=O)C1([H])N(C(=O)C([H])(N([H])C(=O)C([H])(N([H])C([H])([H])[H])C([H])([H])[H])C(C([H])([H])[H])(C([H])([H])[H])C([H])([H])[H])C([H])([H])c2c([H])c(OC([H])([H])C3=C(C([H])([H])[H])C(=O)N(c4c([H])c([H])c(N([H])C(=O)N5C([H])([H])C([H])([H])C([H])([H])C([H])(n6nc(-c7c([H])c([H])c(Oc8c([H])c([H])c(F)c([H])c8F)c([H])c7[H])c(C(=O)N([H])[H])c6N([H])[H])C5([H])[H])c(N([H])[H])c4[H])C3=O)c([H])c([H])c2C1([H])[H]

>  <smiles>  (84) 
[H]c1c([H])c([H])c2c(c1[H])C([H])([H])C([H])([H])C([H])([H])C2([H])N([H])C(=O)C1([H])N(C(=O)C([H])(N([H])C(=O)C([H])(N([H])C([H])([H])[H])C([H])([H])[H])C(C([H])([H])[H])(C([H])([H])[H])C([H])([H])[H])C([H])([H])c2c([H])c(OC([H])([H])C3=C(C([H])([H])[H])C(=O)N(c4c([H])c([H])c(N([H])C(=O)N5C([H])([H])C([H])([H])C([H])([H])C([H])(n6nc(-c7c([H])c([H])c(Oc8c([H])c([H])c(F)c([H])c8F)c([H])c7[H])c(C(=O)N([H])[H])c6N([H])[H])C5([H])[H])c(N([H])[H])c4[H])C3=O)c([H])c([H])c2C1([H])[H]

$$$$
84:0:0
     RDKit          3D

 96105  0  0  1  0  0  0  0  0999 V2000
  -28.7800  -24.3910   20.2280 C   0  0  0  0  0  0  0  0  0  0  0  0
  -29.5040  -23.3120   20.9660 C   0  0  0  0  0  0  0  0  0  0  0  0
  -26.8020  -23.4300   19.1180 C   0  0  0  0  0  0  0  0  0  0  0  0
  -28.7870  -25.6940   20.6750 C   0  0  0  0  0  3  0  0  0  0  0  0
  -28.1920  -24.0060   18.8830 C   0  0  0  0  0  2  0  0  0  0  0  0
  -26.5190  -22.8180   20.4890 C   0  0  0  0  0  2  0  0  0  0  0  0
  -27.5320  -21.7280   20.9180 C   0  0  0  0  0  2  0  0  0  0  0  0
  -28.9960  -22.0120   20.9560 N   0  0  0  0  0  0  0  0  0  0  0  0
  -30.5890  -23.5720   21.4980 O   0  0  0  0  0  0  0  0  0  0  0  0
  -25.9320  -23.4790   18.2490 O   0  0  0  0  0  0  0  0  0  0  0  0
  -29.6580  -19.5330   20.6350 C   0  0  0  0  0  3  0  0  0  0  0  0
  -31.2580  -18.4720   22.1250 C   0  0  0  0  0  3  0  0  0  0  0  0
  -30.6960  -20.8410   22.3960 C   0  0  0  0  0  3  0  0  0  0  0  0
  -30.3630  -18.3430   21.0420 C   0  0  0  0  0  0  0  0  0  0  0  0
  -29.8020  -20.8130   21.2950 C   0  0  0  0  0  0  0  0  0  0  0  0
  -31.4330  -19.7010   22.7840 C   0  0  0  0  0  0  0  0  0  0  0  0
  -32.3140  -19.7870   23.8100 F   0  0  0  0  0  0  0  0  0  0  0  0
  -30.2900  -16.9870   20.3460 C   0  0  0  0  0  2  0  0  0  0  0  0
  -30.4250  -15.8120   20.8910 N   0  0  0  0  0  2  0  0  0  0  0  0
  -30.9140  -14.7770   20.0700 C   0  0  0  0  0  0  0  0  0  0  0  0
  -30.5240  -12.5950   18.9240 C   0  0  0  0  0  2  0  0  0  0  0  0
  -29.5180  -12.7500   17.7680 C   0  0  0  0  0  2  0  0  0  0  0  0
  -28.0780  -12.6070   18.2800 C   0  0  0  0  0  2  0  0  0  0  0  0
  -27.8020  -13.4490   19.5510 C   0  0  0  0  0  3  0  0  0  0  0  0
  -28.9220  -13.2920   20.6040 C   0  0  0  0  0  2  0  0  0  0  0  0
  -30.2000  -13.6110   19.9520 N   0  0  0  0  0  0  0  0  0  0  0  0
  -31.9560  -14.9150   19.4240 O   0  0  0  0  0  0  0  0  0  0  0  0
  -25.4460  -14.0330   20.3880 C   0  0  0  0  0  0  0  0  0  0  0  0
  -24.3970  -13.2530   20.8040 C   0  0  0  0  0  0  0  0  0  0  0  0
  -24.8580  -11.9020   20.7290 C   0  0  0  0  0  0  0  0  0  0  0  0
  -26.4770  -13.1550   20.0970 N   0  0  0  0  0  0  0  0  0  0  0  0
  -26.1310  -11.8670   20.3530 N   0  0  0  0  0  0  0  0  0  0  0  0
  -24.1350  -10.6380   20.9360 C   0  0  0  0  0  0  0  0  0  0  0  0
  -24.5960   -9.6640   21.8510 C   0  0  0  0  0  3  0  0  0  0  0  0
  -23.8720   -8.4680   22.0480 C   0  0  0  0  0  3  0  0  0  0  0  0
  -22.6740   -8.2370   21.3310 C   0  0  0  0  0  0  0  0  0  0  0  0
  -22.2310   -9.2000   20.4060 C   0  0  0  0  0  3  0  0  0  0  0  0
  -22.9560  -10.3880   20.2060 C   0  0  0  0  0  3  0  0  0  0  0  0
  -21.9210   -7.0910   21.4350 O   0  0  0  0  0  0  0  0  0  0  0  0
  -21.8870   -6.3570   22.5940 C   0  0  0  0  0  0  0  0  0  0  0  0
  -21.4590   -6.9170   23.8180 C   0  0  0  0  0  3  0  0  0  0  0  0
  -21.3720   -6.1110   24.9700 C   0  0  0  0  0  3  0  0  0  0  0  0
  -21.7040   -4.7430   24.9000 C   0  0  0  0  0  0  0  0  0  0  0  0
  -22.1240   -4.1820   23.6800 C   0  0  0  0  0  3  0  0  0  0  0  0
  -22.2110   -4.9870   22.5310 C   0  0  0  0  0  0  0  0  0  0  0  0
  -22.5970   -4.4350   21.3540 F   0  0  0  0  0  0  0  0  0  0  0  0
  -21.6140   -3.9670   26.0040 F   0  0  0  0  0  0  0  0  0  0  0  0
  -23.0190  -13.7360   21.1530 C   0  0  0  0  0  0  0  0  0  0  0  0
  -22.3360  -13.0400   22.0550 N   0  0  0  0  0  0  0  0  0  0  0  0
  -22.5540  -14.7650   20.6670 O   0  0  0  0  0  0  0  0  0  0  0  0
  -22.7270  -12.2100   22.4740 H   0  0  0  0  0  0  0  0  0  0  0  0
  -21.4160  -13.3480   22.3300 H   0  0  0  0  0  0  0  0  0  0  0  0
  -25.6100  -15.4030   20.2260 N   0  0  0  0  0  0  0  0  0  0  0  0
  -24.8670  -16.0740   20.3920 H   0  0  0  0  0  0  0  0  0  0  0  0
  -26.4640  -15.8290   19.8890 H   0  0  0  0  0  0  0  0  0  0  0  0
  -28.4940  -26.8350   19.9100 O   0  0  0  0  0  0  0  0  0  0  0  0
  -24.6400  -31.9730   23.2340 C   0  0  0  0  0  0  0  0  0  0  0  0
  -27.3240  -27.5760   20.0500 C   0  0  0  0  0  0  0  0  0  0  0  0
  -23.4440  -30.5890   21.5700 C   0  0  0  0  0  3  0  0  0  0  0  0
  -24.9130  -29.1060   20.0980 C   0  0  0  0  0  0  0  0  0  0  0  0
  -25.9660  -30.9820   21.3570 C   0  0  0  0  0  2  0  0  0  0  0  0
  -26.0720  -29.6150   20.6950 C   0  0  0  0  0  0  0  0  0  0  0  0
  -27.2770  -28.8550   20.6720 C   0  0  0  0  0  3  0  0  0  0  0  0
  -26.1450  -27.1120   19.4290 C   0  0  0  0  0  3  0  0  0  0  0  0
  -24.9500  -27.8530   19.4630 C   0  0  0  0  0  3  0  0  0  0  0  0
  -23.6460  -29.9330   20.1790 C   0  0  0  0  0  2  0  0  0  0  0  0
  -24.7020  -31.1980   22.1110 N   0  0  0  0  0  0  0  0  0  0  0  0
  -23.5610  -32.2130   23.7940 O   0  0  0  0  0  0  0  0  0  0  0  0
  -22.8210  -29.5370   22.5140 C   0  0  0  0  0  0  0  0  0  0  0  0
  -21.5060  -29.2980   22.3620 N   0  0  0  0  0  0  0  0  0  0  0  0
  -23.5150  -28.9320   23.3320 O   0  0  0  0  0  0  0  0  0  0  0  0
  -21.0100  -29.8260   21.6560 H   0  0  0  0  0  0  0  0  0  0  0  0
  -18.1970  -27.9070   22.7410 C   0  0  0  0  0  0  0  0  0  0  0  0
  -20.7240  -28.3140   23.1060 C   0  0  0  0  0  3  0  0  0  0  0  0
  -20.9320  -26.8930   22.5360 C   0  0  0  0  0  2  0  0  0  0  0  0
  -19.8880  -26.5030   21.4850 C   0  0  0  0  0  2  0  0  0  0  0  0
  -18.4750  -26.5710   22.0720 C   0  0  0  0  0  2  0  0  0  0  0  0
  -19.2510  -28.7310   23.2130 C   0  0  0  0  0  0  0  0  0  0  0  0
  -18.9370  -29.9830   23.7840 C   0  0  0  0  0  3  0  0  0  0  0  0
  -17.6000  -30.4120   23.8930 C   0  0  0  0  0  3  0  0  0  0  0  0
  -16.5590  -29.5810   23.4430 C   0  0  0  0  0  3  0  0  0  0  0  0
  -16.8590  -28.3320   22.8710 C   0  0  0  0  0  3  0  0  0  0  0  0
  -25.9220  -32.6050   23.8580 C   0  0  0  0  0  3  0  0  0  0  0  0
  -25.6150  -34.0020   24.1850 N   0  0  0  0  0  0  0  0  0  0  0  0
  -25.9570  -35.0560   23.4300 C   0  0  0  0  0  0  0  0  0  0  0  0
  -26.6380  -34.9540   22.4060 O   0  0  0  0  0  0  0  0  0  0  0  0
  -25.0120  -34.1570   24.9780 H   0  0  0  0  0  0  0  0  0  0  0  0
  -24.2370  -36.8460   23.0430 C   0  0  0  0  0  1  0  0  0  0  0  0
  -25.4600  -36.4410   23.8810 C   0  0  0  0  0  3  0  0  0  0  0  0
  -27.5730  -37.3230   24.7610 C   0  0  0  0  0  1  0  0  0  0  0  0
  -26.4960  -37.4920   23.7890 N   0  0  0  0  0  0  0  0  0  0  0  0
  -26.0890  -38.4110   23.9260 H   0  0  0  0  0  0  0  0  0  0  0  0
  -26.4400  -31.8340   25.1340 C   0  0  1  0  0  0  0  0  0  0  0  0
  -25.3430  -31.5900   26.1930 C   0  0  0  0  0  1  0  0  0  0  0  0
  -27.0390  -30.4640   24.7410 C   0  0  0  0  0  1  0  0  0  0  0  0
  -27.5820  -32.6380   25.7990 C   0  0  0  0  0  1  0  0  0  0  0  0
  1  4  2  0
  1  2  1  0
  2  9  2  0
  3  6  1  0
  5  3  1  0
  5  1  1  0
  6  7  1  0
  7  8  1  0
  8  2  1  0
  8 15  1  0
 10  3  2  0
 11 14  2  0
 11 15  1  0
 12 16  2  0
 13 16  1  0
 14 12  1  0
 15 13  2  0
 16 17  1  0
 18 19  1  0
 18 14  1  0
 20 19  1  0
 21 26  1  0
 22 23  1  0
 22 21  1  0
 24 23  1  0
 24 31  1  0
 24 25  1  0
 26 20  1  0
 26 25  1  0
 27 20  2  0
 28 29  2  0
 29 48  1  0
 30 29  1  0
 30 33  1  0
 31 32  1  0
 31 28  1  0
 32 30  2  0
 33 34  1  0
 34 35  2  0
 36 39  1  0
 36 35  1  0
 37 36  2  0
 38 37  1  0
 38 33  2  0
 39 40  1  0
 40 41  1  0
 41 42  2  0
 43 42  1  0
 43 47  1  0
 44 43  2  0
 45 40  2  0
 45 44  1  0
 46 45  1  0
 48 49  1  0
 49 52  1  0
 49 51  1  0
 50 48  2  0
 53 28  1  0
 53 54  1  0
 55 53  1  0
 56 58  1  0
 56  4  1  0
 57 68  2  0
 58 63  1  0
 59 67  1  0
 59 69  1  0
 60 66  1  0
 60 62  1  0
 61 67  1  0
 62 61  1  0
 63 62  2  0
 64 65  1  0
 64 58  2  0
 65 60  2  0
 66 59  1  0
 67 57  1  0
 69 71  2  0
 70 69  1  0
 72 70  1  0
 73 82  2  0
 73 78  1  0
 74 70  1  0
 74 78  1  0
 75 74  1  0
 76 77  1  0
 76 75  1  0
 77 73  1  0
 78 79  2  0
 79 80  1  0
 81 80  2  0
 82 81  1  0
 83 57  1  0
 83 84  1  0
 83 93  1  0
 84 87  1  0
 85 89  1  0
 85 84  1  0
 86 85  2  0
 89 88  1  0
 91 89  1  0
 91 92  1  0
 91 90  1  0
 93 96  1  1
 93 94  1  0
 95 93  1  0
M  ISO  4   4 101  19 100  20 100  56 101
M  END
>  <TORSDO>  (85) 
F 18

>  <SCORE>  (85) 
-14.537

>  <name>  (85) 
84

>  <ligand_id>  (85) 
84

>  <original_smiles>  (85) 
[H]C(=NC(=O)N1C([H])([H])C([H])([H])C([H])([H])C([H])(n2nc(-c3c([H])c([H])c(Oc4c([H])c([H])c(F)c([H])c4F)c([H])c3[H])c(C(=O)N([H])[H])c2N([H])[H])C1([H])[H])c1c([H])c(F)c([H])c(N2C(=O)C(=C([H])Oc3c([H])c([H])c4c(c3[H])C([H])([H])N(C(=O)C([H])(N([H])C(=O)C([H])(N([H])C([H])([H])[H])C([H])([H])[H])C(C([H])([H])[H])(C([H])([H])[H])C([H])([H])[H])C([H])(C(=O)N([H])C3([H])c5c([H])c([H])c([H])c([H])c5C([H])([H])C([H])([H])C3([H])[H])C4([H])[H])C([H])([H])C(=O)C([H])([H])C2([H])[H])c1[H]

>  <smiles>  (85) 
[H]C(=NC(=O)N1C([H])([H])C([H])([H])C([H])([H])C([H])(n2nc(-c3c([H])c([H])c(Oc4c([H])c([H])c(F)c([H])c4F)c([H])c3[H])c(C(=O)N([H])[H])c2N([H])[H])C1([H])[H])c1c([H])c(F)c([H])c(N2C(=O)C(=C([H])Oc3c([H])c([H])c4c(c3[H])C([H])([H])N(C(=O)C([H])(N([H])C(=O)C([H])(N([H])C([H])([H])[H])C([H])([H])[H])C(C([H])([H])[H])(C([H])([H])[H])C([H])([H])[H])C([H])(C(=O)N([H])C3([H])c5c([H])c([H])c([H])c([H])c5C([H])([H])C([H])([H])C3([H])[H])C4([H])[H])C([H])([H])C(=O)C([H])([H])C2([H])[H])c1[H]

$$$$
85:0:0
     RDKit          3D

 92101  0  0  1  0  0  0  0  0999 V2000
  -28.5330  -23.7840   20.4570 C   0  0  0  0  0  0  0  0  0  0  0  0
  -28.0270  -22.5530   21.0520 C   0  0  0  0  0  0  0  0  0  0  0  0
  -28.0250  -25.0730   20.6320 C   0  0  0  0  0  3  0  0  0  0  0  0
  -29.6300  -22.9410   19.7370 C   0  0  0  0  0  2  0  0  0  0  0  0
  -29.0100  -21.7640   20.4190 N   0  0  0  0  0  0  0  0  0  0  0  0
  -27.0890  -22.3590   21.7980 O   0  0  0  0  0  0  0  0  0  0  0  0
  -30.4850  -19.6790   19.6990 C   0  0  0  0  0  3  0  0  0  0  0  0
  -30.7350  -18.2510   19.6760 C   0  0  0  0  0  3  0  0  0  0  0  0
  -28.5160  -19.3290   20.9340 C   0  0  0  0  0  3  0  0  0  0  0  0
  -29.3590  -20.3110   20.3300 C   0  0  0  0  0  0  0  0  0  0  0  0
  -29.8530  -17.3120   20.2900 C   0  0  0  0  0  0  0  0  0  0  0  0
  -28.7360  -17.9170   20.9170 C   0  0  0  0  0  0  0  0  0  0  0  0
  -27.8300  -17.1090   21.5210 F   0  0  0  0  0  0  0  0  0  0  0  0
  -30.7090  -14.8220   19.7990 C   0  0  0  0  0  0  0  0  0  0  0  0
  -30.4900  -12.5900   18.6820 C   0  0  0  0  0  2  0  0  0  0  0  0
  -29.4410  -12.7090   17.5510 C   0  0  0  0  0  2  0  0  0  0  0  0
  -28.0130  -12.5000   18.0940 C   0  0  0  0  0  2  0  0  0  0  0  0
  -27.7410  -13.3180   19.3850 C   0  0  0  0  0  3  0  0  0  0  0  0
  -28.8920  -13.1530   20.4030 C   0  0  0  0  0  2  0  0  0  0  0  0
  -30.1370  -13.5690   19.7350 N   0  0  0  0  0  0  0  0  0  0  0  0
  -31.8230  -15.0270   19.3060 O   0  0  0  0  0  0  0  0  0  0  0  0
  -29.9140  -15.8270   20.3180 N   0  0  0  0  0  0  0  0  0  0  0  0
  -29.1070  -15.4380   20.7840 H   0  0  0  0  0  0  0  0  0  0  0  0
  -25.4210  -13.8610   20.3420 C   0  0  0  0  0  0  0  0  0  0  0  0
  -24.3900  -13.0630   20.7560 C   0  0  0  0  0  0  0  0  0  0  0  0
  -24.8450  -11.7180   20.6050 C   0  0  0  0  0  0  0  0  0  0  0  0
  -26.4410  -13.0000   19.9670 N   0  0  0  0  0  0  0  0  0  0  0  0
  -26.1050  -11.7030   20.1840 N   0  0  0  0  0  0  0  0  0  0  0  0
  -24.1350  -10.4440   20.7810 C   0  0  0  0  0  0  0  0  0  0  0  0
  -24.6290   -9.4360   21.6360 C   0  0  0  0  0  3  0  0  0  0  0  0
  -23.9190   -8.2270   21.8030 C   0  0  0  0  0  3  0  0  0  0  0  0
  -22.7000   -8.0200   21.1160 C   0  0  0  0  0  0  0  0  0  0  0  0
  -22.2240   -9.0190   20.2470 C   0  0  0  0  0  3  0  0  0  0  0  0
  -22.9350  -10.2170   20.0780 C   0  0  0  0  0  3  0  0  0  0  0  0
  -21.9550   -6.8680   21.1960 O   0  0  0  0  0  0  0  0  0  0  0  0
  -21.9620   -6.0830   22.3210 C   0  0  0  0  0  0  0  0  0  0  0  0
  -21.6090   -6.5950   23.5890 C   0  0  0  0  0  3  0  0  0  0  0  0
  -21.5640   -5.7370   24.7070 C   0  0  0  0  0  3  0  0  0  0  0  0
  -21.8610   -4.3690   24.5580 C   0  0  0  0  0  0  0  0  0  0  0  0
  -22.2070   -3.8580   23.2950 C   0  0  0  0  0  3  0  0  0  0  0  0
  -22.2550   -4.7110   22.1790 C   0  0  0  0  0  0  0  0  0  0  0  0
  -22.5680   -4.2080   20.9610 F   0  0  0  0  0  0  0  0  0  0  0  0
  -21.8100   -3.5440   25.6290 F   0  0  0  0  0  0  0  0  0  0  0  0
  -23.0220  -13.5190   21.1780 C   0  0  0  0  0  0  0  0  0  0  0  0
  -22.3790  -12.7800   22.0740 N   0  0  0  0  0  0  0  0  0  0  0  0
  -22.5360  -14.5640   20.7470 O   0  0  0  0  0  0  0  0  0  0  0  0
  -22.7870  -11.9330   22.4420 H   0  0  0  0  0  0  0  0  0  0  0  0
  -21.4660  -13.0660   22.4000 H   0  0  0  0  0  0  0  0  0  0  0  0
  -25.5710  -15.2400   20.2320 N   0  0  0  0  0  0  0  0  0  0  0  0
  -24.8230  -15.8840   20.4630 H   0  0  0  0  0  0  0  0  0  0  0  0
  -26.4030  -15.7070   19.8970 H   0  0  0  0  0  0  0  0  0  0  0  0
  -28.3510  -26.3770   20.1520 O   0  0  0  0  0  0  0  0  0  0  0  0
  -24.6480  -31.8910   23.1380 C   0  0  0  0  0  0  0  0  0  0  0  0
  -27.2830  -27.3060   20.1010 C   0  0  0  0  0  0  0  0  0  0  0  0
  -23.4500  -30.4690   21.5160 C   0  0  0  0  0  3  0  0  0  0  0  0
  -24.9100  -28.9240   20.0870 C   0  0  0  0  0  0  0  0  0  0  0  0
  -25.9890  -30.8020   21.3190 C   0  0  0  0  0  2  0  0  0  0  0  0
  -26.0810  -29.4170   20.6780 C   0  0  0  0  0  0  0  0  0  0  0  0
  -27.2720  -28.6200   20.6780 C   0  0  0  0  0  3  0  0  0  0  0  0
  -26.0930  -26.8820   19.4710 C   0  0  0  0  0  3  0  0  0  0  0  0
  -24.9210  -27.6620   19.4710 C   0  0  0  0  0  3  0  0  0  0  0  0
  -23.6640  -29.7870   20.1400 C   0  0  0  0  0  2  0  0  0  0  0  0
  -24.7150  -31.0730   22.0470 N   0  0  0  0  0  0  0  0  0  0  0  0
  -23.5650  -32.1620   23.6770 O   0  0  0  0  0  0  0  0  0  0  0  0
  -22.8020  -29.4540   22.4890 C   0  0  0  0  0  0  0  0  0  0  0  0
  -21.4720  -29.2780   22.3860 N   0  0  0  0  0  0  0  0  0  0  0  0
  -23.4930  -28.8270   23.2950 O   0  0  0  0  0  0  0  0  0  0  0  0
  -20.9720  -29.8360   21.7080 H   0  0  0  0  0  0  0  0  0  0  0  0
  -18.1030  -28.0850   22.9540 C   0  0  0  0  0  0  0  0  0  0  0  0
  -20.6670  -28.3410   23.1710 C   0  0  0  0  0  3  0  0  0  0  0  0
  -20.7540  -26.9090   22.5920 C   0  0  0  0  0  2  0  0  0  0  0  0
  -19.6310  -26.5910   21.6000 C   0  0  0  0  0  2  0  0  0  0  0  0
  -18.2630  -26.7370   22.2720 C   0  0  0  0  0  2  0  0  0  0  0  0
  -19.2320  -28.8450   23.3620 C   0  0  0  0  0  0  0  0  0  0  0  0
  -19.0260  -30.1070   23.9620 C   0  0  0  0  0  3  0  0  0  0  0  0
  -17.7260  -30.6100   24.1560 C   0  0  0  0  0  3  0  0  0  0  0  0
  -16.6120  -29.8470   23.7630 C   0  0  0  0  0  3  0  0  0  0  0  0
  -16.8020  -28.5870   23.1670 C   0  0  0  0  0  3  0  0  0  0  0  0
  -25.9270  -32.5430   23.7480 C   0  0  0  0  0  3  0  0  0  0  0  0
  -25.6030  -33.9380   24.0780 N   0  0  0  0  0  0  0  0  0  0  0  0
  -25.9140  -34.9940   23.3150 C   0  0  0  0  0  0  0  0  0  0  0  0
  -26.5760  -34.8980   22.2780 O   0  0  0  0  0  0  0  0  0  0  0  0
  -25.0120  -34.0850   24.8840 H   0  0  0  0  0  0  0  0  0  0  0  0
  -24.1600  -36.7660   22.9800 C   0  0  0  0  0  1  0  0  0  0  0  0
  -25.4160  -36.3770   23.7760 C   0  0  0  0  0  3  0  0  0  0  0  0
  -27.5510  -37.2890   24.5790 C   0  0  0  0  0  1  0  0  0  0  0  0
  -26.4340  -37.4430   23.6500 N   0  0  0  0  0  0  0  0  0  0  0  0
  -26.0190  -38.3590   23.8010 H   0  0  0  0  0  0  0  0  0  0  0  0
  -26.4640  -31.7810   25.0230 C   0  0  1  0  0  0  0  0  0  0  0  0
  -25.3820  -31.5370   26.1020 C   0  0  0  0  0  1  0  0  0  0  0  0
  -27.0590  -30.4090   24.6340 C   0  0  0  0  0  1  0  0  0  0  0  0
  -27.6100  -32.5930   25.6730 C   0  0  0  0  0  1  0  0  0  0  0  0
  1  3  2  0
  1  2  1  0
  2  6  2  0
  4  5  1  0
  4  1  1  0
  5  2  1  0
  7 10  1  0
  8  7  2  0
  8 11  1  0
 10  5  1  0
 10  9  2  0
 11 22  1  0
 11 12  2  0
 12  9  1  0
 12 13  1  0
 14 22  1  0
 15 20  1  0
 16 17  1  0
 16 15  1  0
 18 17  1  0
 18 27  1  0
 18 19  1  0
 20 14  1  0
 20 19  1  0
 21 14  2  0
 22 23  1  0
 24 25  2  0
 25 44  1  0
 26 25  1  0
 26 29  1  0
 27 28  1  0
 27 24  1  0
 28 26  2  0
 29 30  1  0
 30 31  2  0
 32 35  1  0
 32 31  1  0
 33 32  2  0
 34 33  1  0
 34 29  2  0
 35 36  1  0
 36 37  1  0
 37 38  2  0
 39 38  1  0
 39 43  1  0
 40 39  2  0
 41 36  2  0
 41 40  1  0
 42 41  1  0
 44 45  1  0
 45 48  1  0
 45 47  1  0
 46 44  2  0
 49 24  1  0
 49 50  1  0
 51 49  1  0
 52  3  1  0
 53 64  2  0
 54 52  1  0
 54 59  1  0
 55 63  1  0
 55 65  1  0
 56 62  1  0
 56 58  1  0
 57 63  1  0
 58 57  1  0
 59 58  2  0
 60 54  2  0
 61 60  1  0
 61 56  2  0
 62 55  1  0
 63 53  1  0
 65 67  2  0
 66 65  1  0
 68 66  1  0
 69 78  2  0
 69 74  1  0
 70 66  1  0
 70 74  1  0
 71 70  1  0
 72 73  1  0
 72 71  1  0
 73 69  1  0
 74 75  2  0
 75 76  1  0
 77 76  2  0
 78 77  1  0
 79 53  1  0
 79 80  1  0
 79 89  1  0
 80 83  1  0
 81 85  1  0
 81 80  1  0
 82 81  2  0
 85 84  1  0
 87 85  1  0
 87 88  1  0
 87 86  1  0
 89 92  1  1
 89 90  1  0
 91 89  1  0
M  ISO  4   3 101  14 100  22 100  52 101
M  END
>  <TORSDO>  (86) 
F 17

>  <SCORE>  (86) 
-12.991

>  <name>  (86) 
85

>  <ligand_id>  (86) 
85

>  <original_smiles>  (86) 
[H]C(Oc1c([H])c([H])c2c(c1[H])C([H])([H])N(C(=O)C([H])(N([H])C(=O)C([H])(N([H])C([H])([H])[H])C([H])([H])[H])C(C([H])([H])[H])(C([H])([H])[H])C([H])([H])[H])C([H])(C(=O)N([H])C1([H])c3c([H])c([H])c([H])c([H])c3C([H])([H])C([H])([H])C1([H])[H])C2([H])[H])=C1C(=O)N(c2c([H])c([H])c(N([H])C(=O)N3C([H])([H])C([H])([H])C([H])([H])C([H])(n4nc(-c5c([H])c([H])c(Oc6c([H])c([H])c(F)c([H])c6F)c([H])c5[H])c(C(=O)N([H])[H])c4N([H])[H])C3([H])[H])c(F)c2[H])C1([H])[H]

>  <smiles>  (86) 
[H]C(Oc1c([H])c([H])c2c(c1[H])C([H])([H])N(C(=O)C([H])(N([H])C(=O)C([H])(N([H])C([H])([H])[H])C([H])([H])[H])C(C([H])([H])[H])(C([H])([H])[H])C([H])([H])[H])C([H])(C(=O)N([H])C1([H])c3c([H])c([H])c([H])c([H])c3C([H])([H])C([H])([H])C1([H])[H])C2([H])[H])=C1C(=O)N(c2c([H])c([H])c(N([H])C(=O)N3C([H])([H])C([H])([H])C([H])([H])C([H])(n4nc(-c5c([H])c([H])c(Oc6c([H])c([H])c(F)c([H])c6F)c([H])c5[H])c(C(=O)N([H])[H])c4N([H])[H])C3([H])[H])c(F)c2[H])C1([H])[H]

$$$$
86:0:0
     RDKit          3D

 87 94  0  0  1  0  0  0  0  0999 V2000
  -31.5890  -20.5200   20.3160 C   0  0  0  0  0  3  0  0  0  0  0  0
  -31.3210  -21.8490   20.3470 C   0  0  0  0  0  2  0  0  0  0  0  0
  -30.8830  -19.3670   20.2730 C   0  0  0  0  0  3  0  0  0  0  0  0
  -30.2290  -22.6500   20.3260 C   0  0  0  0  0  3  0  0  0  0  0  0
  -28.6950  -20.3840   20.2710 C   0  0  0  0  0  3  0  0  0  0  0  0
  -29.5670  -19.0660   20.2670 C   0  0  0  0  0  0  0  0  0  0  0  0
  -28.8090  -22.2670   20.2910 C   0  0  0  0  0  0  0  0  0  0  0  0
  -27.9250  -23.5220   20.2840 N   0  0  0  0  0  1  0  0  0  0  0  0
  -30.1630  -15.9200   20.2070 C   0  0  0  0  0  0  0  0  0  0  0  0
  -30.3530  -13.3240   19.3920 C   0  0  0  0  0  2  0  0  0  0  0  0
  -29.4990  -12.8100   18.1910 C   0  0  0  0  0  2  0  0  0  0  0  0
  -28.0900  -12.4000   18.6420 C   0  0  0  0  0  2  0  0  0  0  0  0
  -27.5370  -13.4010   19.6780 C   0  0  0  0  0  3  0  0  0  0  0  0
  -28.5440  -13.8060   20.7840 C   0  0  0  0  0  2  0  0  0  0  0  0
  -29.6740  -14.5130   20.1180 N   0  0  0  0  0  0  0  0  0  0  0  0
  -31.4050  -15.8210   20.0740 O   0  0  0  0  0  0  0  0  0  0  0  0
  -29.3890  -17.3380   20.2610 N   0  0  0  0  0  0  0  0  0  0  0  0
  -28.4050  -17.1150   20.3000 H   0  0  0  0  0  0  0  0  0  0  0  0
  -25.1660  -13.8800   20.4270 C   0  0  0  0  0  0  0  0  0  0  0  0
  -24.1200  -13.0830   20.7930 C   0  0  0  0  0  0  0  0  0  0  0  0
  -24.6180  -11.7440   20.7800 C   0  0  0  0  0  0  0  0  0  0  0  0
  -26.2290  -13.0290   20.1980 N   0  0  0  0  0  0  0  0  0  0  0  0
  -25.9150  -11.7350   20.4780 N   0  0  0  0  0  0  0  0  0  0  0  0
  -23.9110  -10.4700   20.9760 C   0  0  0  0  0  0  0  0  0  0  0  0
  -24.3390   -9.5230   21.9330 C   0  0  0  0  0  3  0  0  0  0  0  0
  -23.6260   -8.3190   22.1200 C   0  0  0  0  0  3  0  0  0  0  0  0
  -22.4690   -8.0520   21.3500 C   0  0  0  0  0  0  0  0  0  0  0  0
  -22.0590   -8.9870   20.3830 C   0  0  0  0  0  3  0  0  0  0  0  0
  -22.7740  -10.1820   20.1950 C   0  0  0  0  0  3  0  0  0  0  0  0
  -21.7280   -6.8990   21.4450 O   0  0  0  0  0  0  0  0  0  0  0  0
  -21.6650   -6.1770   22.6100 C   0  0  0  0  0  0  0  0  0  0  0  0
  -21.1970   -6.7450   23.8150 C   0  0  0  0  0  3  0  0  0  0  0  0
  -21.0820   -5.9490   24.9710 C   0  0  0  0  0  3  0  0  0  0  0  0
  -21.4250   -4.5850   24.9250 C   0  0  0  0  0  0  0  0  0  0  0  0
  -21.8860   -4.0150   23.7250 C   0  0  0  0  0  3  0  0  0  0  0  0
  -22.0020   -4.8080   22.5700 C   0  0  0  0  0  0  0  0  0  0  0  0
  -22.4260   -4.2490   21.4120 F   0  0  0  0  0  0  0  0  0  0  0  0
  -21.3080   -3.8180   26.0340 F   0  0  0  0  0  0  0  0  0  0  0  0
  -22.7110  -13.5370   21.0350 C   0  0  0  0  0  0  0  0  0  0  0  0
  -21.9860  -12.8440   21.9040 N   0  0  0  0  0  0  0  0  0  0  0  0
  -22.2630  -14.5430   20.4880 O   0  0  0  0  0  0  0  0  0  0  0  0
  -22.3640  -12.0310   22.3680 H   0  0  0  0  0  0  0  0  0  0  0  0
  -21.0390  -13.1290   22.1100 H   0  0  0  0  0  0  0  0  0  0  0  0
  -25.2970  -15.2530   20.2350 N   0  0  0  0  0  0  0  0  0  0  0  0
  -24.5110  -15.8850   20.3430 H   0  0  0  0  0  0  0  0  0  0  0  0
  -26.1220  -15.7030   19.8620 H   0  0  0  0  0  0  0  0  0  0  0  0
  -28.1740  -25.3270   20.3080 O   0  0  0  0  0  1  0  0  0  0  0  0
  -24.6640  -31.8500   23.1710 C   0  0  0  0  0  0  0  0  0  0  0  0
  -27.1920  -26.5900   20.2840 C   0  0  0  0  0  0  0  0  0  0  0  0
  -23.4980  -30.4410   21.5300 C   0  0  0  0  0  3  0  0  0  0  0  0
  -24.9550  -28.7370   20.1670 C   0  0  0  0  0  0  0  0  0  0  0  0
  -26.0840  -30.5170   21.4700 C   0  0  0  0  0  2  0  0  0  0  0  0
  -26.1430  -29.0600   20.8320 C   0  0  0  0  0  0  0  0  0  0  0  0
  -27.2340  -28.0170   20.8580 C   0  0  0  0  0  3  0  0  0  0  0  0
  -25.9760  -26.5250   19.5470 C   0  0  0  0  0  3  0  0  0  0  0  0
  -24.9190  -27.4980   19.5020 C   0  0  0  0  0  3  0  0  0  0  0  0
  -23.7610  -29.7160   20.1760 C   0  0  0  0  0  2  0  0  0  0  0  0
  -24.7740  -30.9750   22.1090 N   0  0  0  0  0  0  0  0  0  0  0  0
  -23.5620  -32.1680   23.6540 O   0  0  0  0  0  0  0  0  0  0  0  0
  -22.7460  -29.4920   22.5040 C   0  0  0  0  0  0  0  0  0  0  0  0
  -21.4110  -29.3690   22.3730 N   0  0  0  0  0  0  0  0  0  0  0  0
  -23.3810  -28.8590   23.3510 O   0  0  0  0  0  0  0  0  0  0  0  0
  -20.9470  -29.9250   21.6690 H   0  0  0  0  0  0  0  0  0  0  0  0
  -17.9950  -28.2320   22.8930 C   0  0  0  0  0  0  0  0  0  0  0  0
  -20.5620  -28.4490   23.1440 C   0  0  0  0  0  3  0  0  0  0  0  0
  -20.6310  -27.0160   22.5670 C   0  0  0  0  0  2  0  0  0  0  0  0
  -19.5210  -26.7200   21.5540 C   0  0  0  0  0  2  0  0  0  0  0  0
  -18.1440  -26.8860   22.2030 C   0  0  0  0  0  2  0  0  0  0  0  0
  -19.1300  -28.9730   23.3200 C   0  0  0  0  0  0  0  0  0  0  0  0
  -18.9320  -30.2300   23.9320 C   0  0  0  0  0  3  0  0  0  0  0  0
  -17.6360  -30.7470   24.1150 C   0  0  0  0  0  3  0  0  0  0  0  0
  -16.5170  -30.0040   23.7000 C   0  0  0  0  0  3  0  0  0  0  0  0
  -16.6980  -28.7480   23.0960 C   0  0  0  0  0  3  0  0  0  0  0  0
  -25.9140  -32.5070   23.8310 C   0  0  0  0  0  3  0  0  0  0  0  0
  -25.5830  -33.9080   24.1660 N   0  0  0  0  0  0  0  0  0  0  0  0
  -25.9060  -34.9790   23.4290 C   0  0  0  0  0  0  0  0  0  0  0  0
  -26.5660  -34.8930   22.3910 O   0  0  0  0  0  0  0  0  0  0  0  0
  -24.9890  -34.0460   24.9710 H   0  0  0  0  0  0  0  0  0  0  0  0
  -24.1530  -36.7710   23.1510 C   0  0  0  0  0  1  0  0  0  0  0  0
  -25.4250  -36.3650   23.9140 C   0  0  0  0  0  3  0  0  0  0  0  0
  -27.5750  -37.2750   24.6810 C   0  0  0  0  0  1  0  0  0  0  0  0
  -26.4450  -37.4280   23.7700 N   0  0  0  0  0  0  0  0  0  0  0  0
  -26.0340  -38.3450   23.9260 H   0  0  0  0  0  0  0  0  0  0  0  0
  -26.3900  -31.7520   25.1360 C   0  0  1  0  0  0  0  0  0  0  0  0
  -25.2680  -31.5340   26.1780 C   0  0  0  0  0  1  0  0  0  0  0  0
  -26.9790  -30.3660   24.7940 C   0  0  0  0  0  1  0  0  0  0  0  0
  -27.5260  -32.5520   25.8180 C   0  0  0  0  0  1  0  0  0  0  0  0
  1  2  1  0
  3  1  2  0
  4  2  1  0
  5  7  1  0
  6  5  2  0
  6  3  1  0
  7  4  2  0
  8  7  1  0
  9 17  1  0
 10 15  1  0
 11 12  1  0
 11 10  1  0
 13 12  1  0
 13 22  1  0
 13 14  1  0
 15  9  1  0
 15 14  1  0
 16  9  2  0
 17  6  1  0
 17 18  1  0
 19 20  2  0
 20 39  1  0
 21 20  1  0
 21 24  1  0
 22 19  1  0
 22 23  1  0
 23 21  2  0
 24 25  1  0
 25 26  2  0
 27 30  1  0
 27 26  1  0
 28 27  2  0
 29 28  1  0
 29 24  2  0
 30 31  1  0
 31 32  1  0
 32 33  2  0
 34 33  1  0
 34 38  1  0
 35 34  2  0
 36 31  2  0
 36 35  1  0
 37 36  1  0
 39 40  1  0
 40 43  1  0
 40 42  1  0
 41 39  2  0
 44 45  1  0
 44 19  1  0
 46 44  1  0
 48 59  2  0
 49 47  1  0
 49 54  1  0
 50 58  1  0
 50 60  1  0
 51 57  1  0
 51 53  1  0
 52 58  1  0
 53 54  2  0
 53 52  1  0
 55 49  2  0
 56 55  1  0
 56 51  2  0
 57 50  1  0
 58 48  1  0
 60 62  2  0
 61 60  1  0
 63 61  1  0
 64 73  2  0
 64 69  1  0
 65 61  1  0
 65 69  1  0
 66 65  1  0
 67 68  1  0
 67 66  1  0
 68 64  1  0
 69 70  2  0
 70 71  1  0
 72 71  2  0
 73 72  1  0
 74 48  1  0
 74 75  1  0
 74 84  1  0
 75 78  1  0
 76 80  1  0
 76 75  1  0
 77 76  2  0
 80 79  1  0
 82 80  1  0
 82 83  1  0
 82 81  1  0
 84 87  1  1
 84 85  1  0
 86 84  1  0
M  ISO  4   8 101   9 100  17 100  47 101
M  END
>  <TORSDO>  (87) 
F 16

>  <SCORE>  (87) 
-16.461

>  <name>  (87) 
86

>  <ligand_id>  (87) 
86

>  <original_smiles>  (87) 
[H]c1c([H])c([H])c2c(c1[H])C([H])([H])C([H])([H])C([H])([H])C2([H])N([H])C(=O)C1([H])N(C(=O)C([H])(N([H])C(=O)C([H])(N([H])C([H])([H])[H])C([H])([H])[H])C(C([H])([H])[H])(C([H])([H])[H])C([H])([H])[H])C([H])([H])c2c([H])c(ON=c3c([H])c([H])c([H])c([H])c(N([H])C(=O)N4C([H])([H])C([H])([H])C([H])([H])C([H])(n5nc(-c6c([H])c([H])c(Oc7c([H])c([H])c(F)c([H])c7F)c([H])c6[H])c(C(=O)N([H])[H])c5N([H])[H])C4([H])[H])c3[H])c([H])c([H])c2C1([H])[H]

>  <smiles>  (87) 
[H]c1c([H])c([H])c2c(c1[H])C([H])([H])C([H])([H])C([H])([H])C2([H])N([H])C(=O)C1([H])N(C(=O)C([H])(N([H])C(=O)C([H])(N([H])C([H])([H])[H])C([H])([H])[H])C(C([H])([H])[H])(C([H])([H])[H])C([H])([H])[H])C([H])([H])c2c([H])c(ON=c3c([H])c([H])c([H])c([H])c(N([H])C(=O)N4C([H])([H])C([H])([H])C([H])([H])C([H])(n5nc(-c6c([H])c([H])c(Oc7c([H])c([H])c(F)c([H])c7F)c([H])c6[H])c(C(=O)N([H])[H])c5N([H])[H])C4([H])[H])c3[H])c([H])c([H])c2C1([H])[H]

$$$$
87:0:0
     RDKit          3D

 94103  0  0  1  0  0  0  0  0999 V2000
  -28.8330  -24.1560   20.9920 C   0  0  0  0  0  0  0  0  0  0  0  0
  -28.8190  -23.5480   22.3160 C   0  0  0  0  0  0  0  0  0  0  0  0
  -29.1770  -23.0340   20.0570 C   0  0  0  0  0  0  0  0  0  0  0  0
  -28.5280  -25.5210   20.9080 C   0  0  0  0  0  3  0  0  0  0  0  0
  -29.1280  -22.0740   22.2070 C   0  0  0  0  0  2  0  0  0  0  0  0
  -29.3420  -21.8450   20.7780 N   0  0  0  0  0  0  0  0  0  0  0  0
  -28.6030  -24.1040   23.4010 O   0  0  0  0  0  0  0  0  0  0  0  0
  -29.2990  -23.1160   18.8280 O   0  0  0  0  0  0  0  0  0  0  0  0
  -28.4760  -19.5110   20.3950 C   0  0  0  0  0  3  0  0  0  0  0  0
  -28.6490  -18.0920   20.3440 C   0  0  0  0  0  3  0  0  0  0  0  0
  -31.0200  -18.3620   20.2310 C   0  0  0  0  0  3  0  0  0  0  0  0
  -29.5640  -20.4250   20.3910 C   0  0  0  0  0  0  0  0  0  0  0  0
  -29.9190  -17.4490   20.2820 C   0  0  0  0  0  0  0  0  0  0  0  0
  -30.8490  -19.7990   20.2950 C   0  0  0  0  0  0  0  0  0  0  0  0
  -31.9530  -20.5840   20.3380 F   0  0  0  0  0  0  0  0  0  0  0  0
  -30.7970  -14.9220   19.9980 C   0  0  0  0  0  0  0  0  0  0  0  0
  -30.6080  -12.6510   18.9480 C   0  0  0  0  0  2  0  0  0  0  0  0
  -29.6000  -12.7370   17.7800 C   0  0  0  0  0  2  0  0  0  0  0  0
  -28.1510  -12.5540   18.2800 C   0  0  0  0  0  2  0  0  0  0  0  0
  -27.8400  -13.4180   19.5280 C   0  0  0  0  0  3  0  0  0  0  0  0
  -28.9530  -13.2850   20.5920 C   0  0  0  0  0  2  0  0  0  0  0  0
  -30.2220  -13.6690   19.9510 N   0  0  0  0  0  0  0  0  0  0  0  0
  -31.9510  -15.0960   19.5940 O   0  0  0  0  0  0  0  0  0  0  0  0
  -29.9400  -15.9590   20.3350 N   0  0  0  0  0  0  0  0  0  0  0  0
  -29.0490  -15.5750   20.6100 H   0  0  0  0  0  0  0  0  0  0  0  0
  -25.4910  -14.0150   20.3800 C   0  0  0  0  0  0  0  0  0  0  0  0
  -24.4400  -13.2420   20.7930 C   0  0  0  0  0  0  0  0  0  0  0  0
  -24.8910  -11.8880   20.7140 C   0  0  0  0  0  0  0  0  0  0  0  0
  -26.5170  -13.1330   20.0770 N   0  0  0  0  0  0  0  0  0  0  0  0
  -26.1630  -11.8480   20.3390 N   0  0  0  0  0  0  0  0  0  0  0  0
  -24.1670  -10.6270   20.9150 C   0  0  0  0  0  0  0  0  0  0  0  0
  -24.6010   -9.6690   21.8570 C   0  0  0  0  0  3  0  0  0  0  0  0
  -23.8760   -8.4730   22.0470 C   0  0  0  0  0  3  0  0  0  0  0  0
  -22.7040   -8.2250   21.2950 C   0  0  0  0  0  0  0  0  0  0  0  0
  -22.2890   -9.1720   20.3410 C   0  0  0  0  0  3  0  0  0  0  0  0
  -23.0140  -10.3590   20.1500 C   0  0  0  0  0  3  0  0  0  0  0  0
  -21.9520   -7.0790   21.3930 O   0  0  0  0  0  0  0  0  0  0  0  0
  -21.8590   -6.3780   22.5680 C   0  0  0  0  0  0  0  0  0  0  0  0
  -21.3480   -6.9640   23.7470 C   0  0  0  0  0  3  0  0  0  0  0  0
  -21.2050   -6.1870   24.9140 C   0  0  0  0  0  3  0  0  0  0  0  0
  -21.5620   -4.8260   24.9030 C   0  0  0  0  0  0  0  0  0  0  0  0
  -22.0660   -4.2390   23.7290 C   0  0  0  0  0  3  0  0  0  0  0  0
  -22.2110   -5.0130   22.5640 C   0  0  0  0  0  0  0  0  0  0  0  0
  -22.6770   -4.4370   21.4300 F   0  0  0  0  0  0  0  0  0  0  0  0
  -21.4170   -4.0780   26.0230 F   0  0  0  0  0  0  0  0  0  0  0  0
  -23.0600  -13.7210   21.1390 C   0  0  0  0  0  0  0  0  0  0  0  0
  -22.3690  -13.0150   22.0300 N   0  0  0  0  0  0  0  0  0  0  0  0
  -22.6030  -14.7570   20.6570 O   0  0  0  0  0  0  0  0  0  0  0  0
  -22.7480  -12.1780   22.4450 H   0  0  0  0  0  0  0  0  0  0  0  0
  -21.4450  -13.3210   22.3000 H   0  0  0  0  0  0  0  0  0  0  0  0
  -25.6510  -15.3880   20.2080 N   0  0  0  0  0  0  0  0  0  0  0  0
  -24.8710  -16.0270   20.3180 H   0  0  0  0  0  0  0  0  0  0  0  0
  -26.4320  -15.8050   19.7210 H   0  0  0  0  0  0  0  0  0  0  0  0
  -28.4560  -26.5080   19.8980 O   0  0  0  0  0  0  0  0  0  0  0  0
  -24.6750  -31.8330   23.1540 C   0  0  0  0  0  0  0  0  0  0  0  0
  -27.3670  -27.4040   19.9440 C   0  0  0  0  0  0  0  0  0  0  0  0
  -23.4920  -30.4630   21.4740 C   0  0  0  0  0  3  0  0  0  0  0  0
  -24.9710  -28.9820   19.9960 C   0  0  0  0  0  0  0  0  0  0  0  0
  -26.0250  -30.8350   21.2870 C   0  0  0  0  0  2  0  0  0  0  0  0
  -26.1360  -29.4720   20.6040 C   0  0  0  0  0  0  0  0  0  0  0  0
  -27.3390  -28.6940   20.5710 C   0  0  0  0  0  3  0  0  0  0  0  0
  -26.1790  -26.9720   19.3200 C   0  0  0  0  0  3  0  0  0  0  0  0
  -24.9950  -27.7360   19.3470 C   0  0  0  0  0  3  0  0  0  0  0  0
  -23.7160  -29.8330   20.0740 C   0  0  0  0  0  2  0  0  0  0  0  0
  -24.7500  -31.0600   22.0290 N   0  0  0  0  0  0  0  0  0  0  0  0
  -23.5890  -32.0700   23.7020 O   0  0  0  0  0  0  0  0  0  0  0  0
  -22.8520  -29.4070   22.4060 C   0  0  0  0  0  0  0  0  0  0  0  0
  -21.5300  -29.2010   22.2720 N   0  0  0  0  0  0  0  0  0  0  0  0
  -23.5430  -28.7750   23.2090 O   0  0  0  0  0  0  0  0  0  0  0  0
  -21.0290  -29.7630   21.5990 H   0  0  0  0  0  0  0  0  0  0  0  0
  -18.1890  -27.8830   22.7110 C   0  0  0  0  0  0  0  0  0  0  0  0
  -20.7350  -28.2220   23.0150 C   0  0  0  0  0  3  0  0  0  0  0  0
  -20.8900  -26.8050   22.4130 C   0  0  0  0  0  2  0  0  0  0  0  0
  -19.8110  -26.4670   21.3790 C   0  0  0  0  0  2  0  0  0  0  0  0
  -18.4180  -26.5540   22.0090 C   0  0  0  0  0  2  0  0  0  0  0  0
  -19.2760  -28.6720   23.1690 C   0  0  0  0  0  0  0  0  0  0  0  0
  -19.0080  -29.9140   23.7860 C   0  0  0  0  0  3  0  0  0  0  0  0
  -17.6850  -30.3670   23.9460 C   0  0  0  0  0  3  0  0  0  0  0  0
  -16.6130  -29.5760   23.5000 C   0  0  0  0  0  3  0  0  0  0  0  0
  -16.8650  -28.3340   22.8900 C   0  0  0  0  0  3  0  0  0  0  0  0
  -25.9470  -32.4720   23.7910 C   0  0  0  0  0  3  0  0  0  0  0  0
  -25.6240  -33.8650   24.1290 N   0  0  0  0  0  0  0  0  0  0  0  0
  -25.9540  -34.9270   23.3810 C   0  0  0  0  0  0  0  0  0  0  0  0
  -26.6310  -34.8350   22.3530 O   0  0  0  0  0  0  0  0  0  0  0  0
  -25.0200  -34.0080   24.9250 H   0  0  0  0  0  0  0  0  0  0  0  0
  -24.2220  -36.7160   23.0190 C   0  0  0  0  0  1  0  0  0  0  0  0
  -25.4550  -36.3090   23.8440 C   0  0  0  0  0  3  0  0  0  0  0  0
  -27.5740  -37.1950   24.7140 C   0  0  0  0  0  1  0  0  0  0  0  0
  -26.4840  -37.3680   23.7570 N   0  0  0  0  0  0  0  0  0  0  0  0
  -26.0720  -38.2850   23.9110 H   0  0  0  0  0  0  0  0  0  0  0  0
  -26.4550  -31.6960   25.0670 C   0  0  1  0  0  0  0  0  0  0  0  0
  -25.3530  -31.4430   26.1230 C   0  0  0  0  0  1  0  0  0  0  0  0
  -27.0480  -30.3240   24.6700 C   0  0  0  0  0  1  0  0  0  0  0  0
  -27.5960  -32.4900   25.7440 C   0  0  0  0  0  1  0  0  0  0  0  0
  1  2  1  0
  2  7  2  0
  3  6  1  0
  3  1  1  0
  4  1  2  0
  5  2  1  0
  6  5  1  0
  8  3  2  0
 10  9  2  0
 11 13  2  0
 11 14  1  0
 12  9  1  0
 12  6  1  0
 13 24  1  0
 13 10  1  0
 14 15  1  0
 14 12  2  0
 16 24  1  0
 17 22  1  0
 18 19  1  0
 18 17  1  0
 20 19  1  0
 20 29  1  0
 20 21  1  0
 22 16  1  0
 22 21  1  0
 23 16  2  0
 24 25  1  0
 26 27  2  0
 27 46  1  0
 28 27  1  0
 28 31  1  0
 29 30  1  0
 29 26  1  0
 30 28  2  0
 31 32  1  0
 32 33  2  0
 34 37  1  0
 34 33  1  0
 35 34  2  0
 36 35  1  0
 36 31  2  0
 37 38  1  0
 38 39  1  0
 39 40  2  0
 41 40  1  0
 41 45  1  0
 42 41  2  0
 43 38  2  0
 43 42  1  0
 44 43  1  0
 46 47  1  0
 47 50  1  0
 47 49  1  0
 48 46  2  0
 51 52  1  0
 51 26  1  0
 53 51  1  0
 54 56  1  0
 54  4  1  0
 55 66  2  0
 56 61  1  0
 57 65  1  0
 57 67  1  0
 58 64  1  0
 58 60  1  0
 59 65  1  0
 60 59  1  0
 61 60  2  0
 62 63  1  0
 62 56  2  0
 63 58  2  0
 64 57  1  0
 65 55  1  0
 67 69  2  0
 68 67  1  0
 70 68  1  0
 71 80  2  0
 71 76  1  0
 72 68  1  0
 72 76  1  0
 73 72  1  0
 74 75  1  0
 74 73  1  0
 75 71  1  0
 76 77  2  0
 77 78  1  0
 79 78  2  0
 80 79  1  0
 81 55  1  0
 81 82  1  0
 81 91  1  0
 82 85  1  0
 83 87  1  0
 83 82  1  0
 84 83  2  0
 87 86  1  0
 89 87  1  0
 89 90  1  0
 89 88  1  0
 91 94  1  1
 91 92  1  0
 93 91  1  0
M  ISO  4   4 101  16 100  24 100  54 101
M  END
>  <TORSDO>  (88) 
F 17

>  <SCORE>  (88) 
-14.638

>  <name>  (88) 
87

>  <ligand_id>  (88) 
87

>  <original_smiles>  (88) 
[H]C(Oc1c([H])c([H])c2c(c1[H])C([H])([H])N(C(=O)C([H])(N([H])C(=O)C([H])(N([H])C([H])([H])[H])C([H])([H])[H])C(C([H])([H])[H])(C([H])([H])[H])C([H])([H])[H])C([H])(C(=O)N([H])C1([H])c3c([H])c([H])c([H])c([H])c3C([H])([H])C([H])([H])C1([H])[H])C2([H])[H])=C1C(=O)N(c2c([H])c([H])c(N([H])C(=O)N3C([H])([H])C([H])([H])C([H])([H])C([H])(n4nc(-c5c([H])c([H])c(Oc6c([H])c([H])c(F)c([H])c6F)c([H])c5[H])c(C(=O)N([H])[H])c4N([H])[H])C3([H])[H])c([H])c2F)C([H])([H])C1=O

>  <smiles>  (88) 
[H]C(Oc1c([H])c([H])c2c(c1[H])C([H])([H])N(C(=O)C([H])(N([H])C(=O)C([H])(N([H])C([H])([H])[H])C([H])([H])[H])C(C([H])([H])[H])(C([H])([H])[H])C([H])([H])[H])C([H])(C(=O)N([H])C1([H])c3c([H])c([H])c([H])c([H])c3C([H])([H])C([H])([H])C1([H])[H])C2([H])[H])=C1C(=O)N(c2c([H])c([H])c(N([H])C(=O)N3C([H])([H])C([H])([H])C([H])([H])C([H])(n4nc(-c5c([H])c([H])c(Oc6c([H])c([H])c(F)c([H])c6F)c([H])c5[H])c(C(=O)N([H])[H])c4N([H])[H])C3([H])[H])c([H])c2F)C([H])([H])C1=O

$$$$
88:0:0
     RDKit          3D

 97106  0  0  1  0  0  0  0  0999 V2000
  -30.3320  -23.8200   20.4090 C   0  0  0  0  0  3  0  0  0  0  0  0
  -29.0450  -23.8200   20.0550 C   0  0  0  0  0  0  0  0  0  0  0  0
  -30.7960  -22.4460   20.5270 C   0  0  0  0  0  0  0  0  0  0  0  0
  -28.6670  -22.3980   19.9410 C   0  0  0  0  0  0  0  0  0  0  0  0
  -29.7520  -21.6230   20.2510 N   0  0  0  0  0  0  0  0  0  0  0  0
  -31.9470  -22.0880   20.7990 O   0  0  0  0  0  0  0  0  0  0  0  0
  -27.5560  -21.9620   19.6160 O   0  0  0  0  0  0  0  0  0  0  0  0
  -29.1170  -19.2970   19.3860 C   0  0  0  0  0  3  0  0  0  0  0  0
  -30.5520  -19.4290   21.2950 C   0  0  0  0  0  3  0  0  0  0  0  0
  -29.1300  -17.8630   19.4580 C   0  0  0  0  0  0  0  0  0  0  0  0
  -29.8040  -20.1360   20.3080 C   0  0  0  0  0  0  0  0  0  0  0  0
  -29.8910  -17.1730   20.4650 C   0  0  0  0  0  0  0  0  0  0  0  0
  -30.5970  -18.0030   21.3740 C   0  0  0  0  0  0  0  0  0  0  0  0
  -31.2850  -17.4300   22.3900 F   0  0  0  0  0  0  0  0  0  0  0  0
  -30.6120  -14.6760   20.4660 C   0  0  0  0  0  0  0  0  0  0  0  0
  -30.4460  -12.4140   19.4500 C   0  0  0  0  0  2  0  0  0  0  0  0
  -29.5120  -12.5060   18.2230 C   0  0  0  0  0  2  0  0  0  0  0  0
  -28.0350  -12.3380   18.6350 C   0  0  0  0  0  2  0  0  0  0  0  0
  -27.6500  -13.2120   19.8580 C   0  0  0  0  0  3  0  0  0  0  0  0
  -28.7010  -13.0940   20.9860 C   0  0  0  0  0  2  0  0  0  0  0  0
  -30.0130  -13.4410   20.4160 N   0  0  0  0  0  0  0  0  0  0  0  0
  -31.7860  -14.8340   20.1200 O   0  0  0  0  0  0  0  0  0  0  0  0
  -29.7730  -15.7290   20.7220 N   0  0  0  0  0  0  0  0  0  0  0  0
  -28.8420  -15.4240   20.9540 H   0  0  0  0  0  0  0  0  0  0  0  0
  -25.2560  -13.8130   20.5730 C   0  0  0  0  0  0  0  0  0  0  0  0
  -24.1820  -13.0400   20.9210 C   0  0  0  0  0  0  0  0  0  0  0  0
  -24.6380  -11.6870   20.8730 C   0  0  0  0  0  0  0  0  0  0  0  0
  -26.2980  -12.9300   20.3310 N   0  0  0  0  0  0  0  0  0  0  0  0
  -25.9300  -11.6460   20.5730 N   0  0  0  0  0  0  0  0  0  0  0  0
  -23.9060  -10.4260   21.0410 C   0  0  0  0  0  0  0  0  0  0  0  0
  -24.3610   -9.4180   21.9180 C   0  0  0  0  0  3  0  0  0  0  0  0
  -23.6280   -8.2220   22.0760 C   0  0  0  0  0  3  0  0  0  0  0  0
  -22.4250   -8.0270   21.3560 C   0  0  0  0  0  0  0  0  0  0  0  0
  -21.9890   -9.0250   20.4660 C   0  0  0  0  0  3  0  0  0  0  0  0
  -22.7240  -10.2120   20.3060 C   0  0  0  0  0  3  0  0  0  0  0  0
  -21.6620   -6.8870   21.4240 O   0  0  0  0  0  0  0  0  0  0  0  0
  -21.6850   -6.0720   22.5280 C   0  0  0  0  0  0  0  0  0  0  0  0
  -21.4010   -6.5630   23.8210 C   0  0  0  0  0  3  0  0  0  0  0  0
  -21.3660   -5.6790   24.9180 C   0  0  0  0  0  3  0  0  0  0  0  0
  -21.6040   -4.3050   24.7240 C   0  0  0  0  0  0  0  0  0  0  0  0
  -21.8810   -3.8140   23.4360 C   0  0  0  0  0  3  0  0  0  0  0  0
  -21.9190   -4.6950   22.3410 C   0  0  0  0  0  0  0  0  0  0  0  0
  -22.1650   -4.2140   21.0990 F   0  0  0  0  0  0  0  0  0  0  0  0
  -21.5640   -3.4540   25.7760 F   0  0  0  0  0  0  0  0  0  0  0  0
  -22.7840  -13.5210   21.1860 C   0  0  0  0  0  0  0  0  0  0  0  0
  -22.0460  -12.8220   22.0430 N   0  0  0  0  0  0  0  0  0  0  0  0
  -22.3540  -14.5510   20.6700 O   0  0  0  0  0  0  0  0  0  0  0  0
  -22.4050  -11.9890   22.4850 H   0  0  0  0  0  0  0  0  0  0  0  0
  -21.1080  -13.1270   22.2590 H   0  0  0  0  0  0  0  0  0  0  0  0
  -25.4260  -15.1860   20.4230 N   0  0  0  0  0  0  0  0  0  0  0  0
  -24.6620  -15.8400   20.5590 H   0  0  0  0  0  0  0  0  0  0  0  0
  -26.2780  -15.6330   20.1190 H   0  0  0  0  0  0  0  0  0  0  0  0
  -28.3580  -17.1180   18.4180 C   0  0  0  0  0  0  0  0  0  0  0  0
  -27.0490  -17.7330   17.9330 C   0  0  0  0  0  1  0  0  0  0  0  0
  -28.7050  -16.0290   17.9550 O   0  0  0  0  0  0  0  0  0  0  0  0
  -28.0630  -25.0070   19.7560 C   0  0  0  0  0  2  0  0  0  0  0  0
  -28.3370  -26.4230   20.1300 O   0  0  0  0  0  0  0  0  0  0  0  0
  -24.6290  -31.8600   23.2020 C   0  0  0  0  0  0  0  0  0  0  0  0
  -27.2320  -27.3060   20.0940 C   0  0  0  0  0  0  0  0  0  0  0  0
  -23.4250  -30.4850   21.5470 C   0  0  0  0  0  3  0  0  0  0  0  0
  -24.8730  -28.9440   20.1140 C   0  0  0  0  0  0  0  0  0  0  0  0
  -25.9710  -30.7840   21.3790 C   0  0  0  0  0  2  0  0  0  0  0  0
  -26.0450  -29.4100   20.7220 C   0  0  0  0  0  0  0  0  0  0  0  0
  -27.2260  -28.6000   20.7100 C   0  0  0  0  0  3  0  0  0  0  0  0
  -26.0290  -26.9140   19.4520 C   0  0  0  0  0  3  0  0  0  0  0  0
  -24.8680  -27.7010   19.4740 C   0  0  0  0  0  3  0  0  0  0  0  0
  -23.6420  -29.8230   20.1630 C   0  0  0  0  0  2  0  0  0  0  0  0
  -24.6940  -31.0590   22.0990 N   0  0  0  0  0  0  0  0  0  0  0  0
  -23.5440  -32.1410   23.7310 O   0  0  0  0  0  0  0  0  0  0  0  0
  -22.7500  -29.4630   22.4930 C   0  0  0  0  0  0  0  0  0  0  0  0
  -21.4210  -29.3060   22.3670 N   0  0  0  0  0  0  0  0  0  0  0  0
  -23.4210  -28.8160   23.3010 O   0  0  0  0  0  0  0  0  0  0  0  0
  -20.9370  -29.8810   21.6920 H   0  0  0  0  0  0  0  0  0  0  0  0
  -18.0300  -28.1400   22.8500 C   0  0  0  0  0  0  0  0  0  0  0  0
  -20.5910  -28.3700   23.1280 C   0  0  0  0  0  3  0  0  0  0  0  0
  -20.6780  -26.9420   22.5420 C   0  0  0  0  0  2  0  0  0  0  0  0
  -19.5750  -26.6400   21.5220 C   0  0  0  0  0  2  0  0  0  0  0  0
  -18.1930  -26.7950   22.1630 C   0  0  0  0  0  2  0  0  0  0  0  0
  -19.1560  -28.8870   23.2890 C   0  0  0  0  0  0  0  0  0  0  0  0
  -18.9470  -30.1470   23.8910 C   0  0  0  0  0  3  0  0  0  0  0  0
  -17.6460  -30.6590   24.0570 C   0  0  0  0  0  3  0  0  0  0  0  0
  -16.5360  -29.9090   23.6320 C   0  0  0  0  0  3  0  0  0  0  0  0
  -16.7280  -28.6520   23.0340 C   0  0  0  0  0  3  0  0  0  0  0  0
  -25.9120  -32.4790   23.8370 C   0  0  0  0  0  3  0  0  0  0  0  0
  -26.4460  -31.6600   25.0750 C   0  0  1  0  0  0  0  0  0  0  0  0
  -25.3670  -31.3760   26.1470 C   0  0  0  0  0  1  0  0  0  0  0  0
  -27.0290  -30.3020   24.6200 C   0  0  0  0  0  1  0  0  0  0  0  0
  -27.6050  -32.4300   25.7500 C   0  0  0  0  0  1  0  0  0  0  0  0
  -25.5900  -33.8580   24.2290 N   0  0  0  0  0  0  0  0  0  0  0  0
  -25.9040  -34.9450   23.5110 C   0  0  0  0  0  0  0  0  0  0  0  0
  -26.5630  -34.8920   22.4690 O   0  0  0  0  0  0  0  0  0  0  0  0
  -25.0010  -33.9720   25.0400 H   0  0  0  0  0  0  0  0  0  0  0  0
  -24.1480  -36.7300   23.2630 C   0  0  0  0  0  1  0  0  0  0  0  0
  -25.4090  -36.3090   24.0340 C   0  0  0  0  0  3  0  0  0  0  0  0
  -27.5580  -37.1790   24.8450 C   0  0  0  0  0  1  0  0  0  0  0  0
  -26.4270  -37.3790   23.9430 N   0  0  0  0  0  0  0  0  0  0  0  0
  -26.0140  -38.2860   24.1450 H   0  0  0  0  0  0  0  0  0  0  0  0
  1  3  1  0
  2  1  2  0
  3  6  2  0
  4  2  1  0
  4  5  1  0
  5 11  1  0
  5  3  1  0
  7  4  2  0
  8 10  2  0
  8 11  1  0
  9 13  1  0
 10 12  1  0
 11  9  2  0
 12 23  1  0
 12 13  2  0
 13 14  1  0
 15 23  1  0
 16 21  1  0
 17 18  1  0
 17 16  1  0
 19 18  1  0
 19 28  1  0
 19 20  1  0
 21 15  1  0
 21 20  1  0
 22 15  2  0
 23 24  1  0
 25 26  2  0
 26 45  1  0
 27 26  1  0
 27 30  1  0
 28 29  1  0
 28 25  1  0
 29 27  2  0
 30 31  1  0
 31 32  2  0
 33 36  1  0
 33 32  1  0
 34 33  2  0
 35 34  1  0
 35 30  2  0
 36 37  1  0
 37 38  1  0
 38 39  2  0
 40 39  1  0
 40 44  1  0
 41 40  2  0
 42 37  2  0
 42 41  1  0
 43 42  1  0
 45 46  1  0
 46 49  1  0
 46 48  1  0
 47 45  2  0
 50 51  1  0
 50 25  1  0
 52 50  1  0
 53 10  1  0
 54 53  1  0
 55 53  2  0
 56  2  1  0
 56 57  1  0
 58 69  2  0
 59 57  1  0
 59 64  1  0
 60 68  1  0
 60 70  1  0
 61 67  1  0
 61 63  1  0
 62 68  1  0
 63 62  1  0
 64 63  2  0
 65 66  1  0
 65 59  2  0
 66 61  2  0
 67 60  1  0
 68 58  1  0
 70 72  2  0
 71 70  1  0
 73 71  1  0
 74 83  2  0
 74 79  1  0
 75 71  1  0
 75 79  1  0
 76 75  1  0
 77 78  1  0
 77 76  1  0
 78 74  1  0
 79 80  2  0
 80 81  1  0
 82 81  2  0
 83 82  1  0
 84 58  1  0
 84 89  1  0
 84 85  1  0
 85 88  1  1
 85 86  1  0
 87 85  1  0
 89 92  1  0
 90 94  1  0
 90 89  1  0
 91 90  2  0
 94 93  1  0
 96 94  1  0
 96 97  1  0
 96 95  1  0
M  ISO  4  15 100  23 100  56 101  57 101
M  END
>  <TORSDO>  (89) 
F 19

>  <SCORE>  (89) 
-12.520

>  <name>  (89) 
88

>  <ligand_id>  (89) 
88

>  <original_smiles>  (89) 
[H]C1=C(C([H])([H])Oc2c([H])c([H])c3c(c2[H])C([H])([H])N(C(=O)C([H])(N([H])C(=O)C([H])(N([H])C([H])([H])[H])C([H])([H])[H])C(C([H])([H])[H])(C([H])([H])[H])C([H])([H])[H])C([H])(C(=O)N([H])C2([H])c4c([H])c([H])c([H])c([H])c4C([H])([H])C([H])([H])C2([H])[H])C3([H])[H])C(=O)N(c2c([H])c(F)c(N([H])C(=O)N3C([H])([H])C([H])([H])C([H])([H])C([H])(n4nc(-c5c([H])c([H])c(Oc6c([H])c([H])c(F)c([H])c6F)c([H])c5[H])c(C(=O)N([H])[H])c4N([H])[H])C3([H])[H])c(C(=O)C([H])([H])[H])c2[H])C1=O

>  <smiles>  (89) 
[H]C1=C(C([H])([H])Oc2c([H])c([H])c3c(c2[H])C([H])([H])N(C(=O)C([H])(N([H])C(=O)C([H])(N([H])C([H])([H])[H])C([H])([H])[H])C(C([H])([H])[H])(C([H])([H])[H])C([H])([H])[H])C([H])(C(=O)N([H])C2([H])c4c([H])c([H])c([H])c([H])c4C([H])([H])C([H])([H])C2([H])[H])C3([H])[H])C(=O)N(c2c([H])c(F)c(N([H])C(=O)N3C([H])([H])C([H])([H])C([H])([H])C([H])(n4nc(-c5c([H])c([H])c(Oc6c([H])c([H])c(F)c([H])c6F)c([H])c5[H])c(C(=O)N([H])[H])c4N([H])[H])C3([H])[H])c(C(=O)C([H])([H])[H])c2[H])C1=O

$$$$
89:0:0
     RDKit          3D

 96105  0  0  1  0  0  0  0  0999 V2000
  -29.2610  -18.7540   21.1110 C   0  0  0  0  0  3  0  0  0  0  0  0
  -28.9140  -20.1450   21.0900 C   0  0  0  0  0  0  0  0  0  0  0  0
  -30.2390  -18.4230   20.2070 C   0  0  0  0  0  0  0  0  0  0  0  0
  -29.6040  -20.9320   20.1840 C   0  0  0  0  0  0  0  0  0  0  0  0
  -27.9690  -20.5840   21.8900 F   0  0  0  0  0  0  0  0  0  0  0  0
  -30.6950  -19.8660   19.3050 S   0  0  0  0  0  0  0  0  0  0  0  0
  -30.9790  -14.6400   19.9450 C   0  0  0  0  0  0  0  0  0  0  0  0
  -30.5270  -12.4400   18.9690 C   0  0  0  0  0  2  0  0  0  0  0  0
  -29.5560  -12.5940   17.7820 C   0  0  0  0  0  2  0  0  0  0  0  0
  -28.0950  -12.5100   18.2700 C   0  0  0  0  0  2  0  0  0  0  0  0
  -27.8180  -13.3760   19.5330 C   0  0  0  0  0  3  0  0  0  0  0  0
  -28.9300  -13.2680   20.6010 C   0  0  0  0  0  2  0  0  0  0  0  0
  -30.2170  -13.5090   19.9310 N   0  0  0  0  0  0  0  0  0  0  0  0
  -32.1300  -14.6460   19.4920 O   0  0  0  0  0  0  0  0  0  0  0  0
  -30.9300  -17.1530   19.9490 C   0  0  0  0  0  0  0  0  0  0  0  0
  -30.3610  -15.9260   20.2210 N   0  0  0  0  0  0  0  0  0  0  0  0
  -32.1590  -17.2710   19.4000 N   0  0  0  0  0  4  0  0  0  0  0  0
  -29.4140  -15.9810   20.5490 H   0  0  0  0  0  0  0  0  0  0  0  0
  -32.4760  -18.1350   18.9870 H   0  0  0  0  0  0  0  0  0  0  0  0
  -32.6800  -16.4180   19.1970 H   0  0  0  0  0  0  0  0  0  0  0  0
  -25.4910  -13.9820   20.4170 C   0  0  0  0  0  0  0  0  0  0  0  0
  -24.4400  -13.2220   20.8470 C   0  0  0  0  0  0  0  0  0  0  0  0
  -24.8730  -11.8620   20.7460 C   0  0  0  0  0  0  0  0  0  0  0  0
  -26.5010  -13.0940   20.0950 N   0  0  0  0  0  0  0  0  0  0  0  0
  -26.1380  -11.8120   20.3460 N   0  0  0  0  0  0  0  0  0  0  0  0
  -24.1400  -10.6080   20.9390 C   0  0  0  0  0  0  0  0  0  0  0  0
  -24.5850   -9.6240   21.8490 C   0  0  0  0  0  3  0  0  0  0  0  0
  -23.8490   -8.4330   22.0310 C   0  0  0  0  0  3  0  0  0  0  0  0
  -22.6530   -8.2180   21.3030 C   0  0  0  0  0  0  0  0  0  0  0  0
  -22.2290   -9.1930   20.3830 C   0  0  0  0  0  3  0  0  0  0  0  0
  -22.9680  -10.3750   20.1970 C   0  0  0  0  0  3  0  0  0  0  0  0
  -21.8860   -7.0830   21.3970 O   0  0  0  0  0  0  0  0  0  0  0  0
  -21.8110   -6.3610   22.5630 C   0  0  0  0  0  0  0  0  0  0  0  0
  -21.3230   -6.9270   23.7630 C   0  0  0  0  0  3  0  0  0  0  0  0
  -21.1980   -6.1280   24.9170 C   0  0  0  0  0  3  0  0  0  0  0  0
  -21.5510   -4.7670   24.8740 C   0  0  0  0  0  0  0  0  0  0  0  0
  -22.0300   -4.2000   23.6800 C   0  0  0  0  0  3  0  0  0  0  0  0
  -22.1570   -4.9940   22.5270 C   0  0  0  0  0  0  0  0  0  0  0  0
  -22.5990   -4.4350   21.3740 F   0  0  0  0  0  0  0  0  0  0  0  0
  -21.4230   -3.9990   25.9800 F   0  0  0  0  0  0  0  0  0  0  0  0
  -23.0770  -13.7190   21.2280 C   0  0  0  0  0  0  0  0  0  0  0  0
  -22.3870  -13.0170   22.1190 N   0  0  0  0  0  0  0  0  0  0  0  0
  -22.6350  -14.7720   20.7720 O   0  0  0  0  0  0  0  0  0  0  0  0
  -22.7480  -12.1640   22.5180 H   0  0  0  0  0  0  0  0  0  0  0  0
  -21.4780  -13.3510   22.4110 H   0  0  0  0  0  0  0  0  0  0  0  0
  -25.6750  -15.3530   20.2390 N   0  0  0  0  0  0  0  0  0  0  0  0
  -24.8850  -15.9860   20.2810 H   0  0  0  0  0  0  0  0  0  0  0  0
  -26.4410  -15.7190   19.6890 H   0  0  0  0  0  0  0  0  0  0  0  0
  -29.1180  -24.5170   19.8950 C   0  0  0  0  0  0  0  0  0  0  0  0
  -29.0540  -23.2850   20.6660 C   0  0  0  0  0  0  0  0  0  0  0  0
  -28.5010  -25.6570   20.2780 C   0  0  0  0  0  3  0  0  0  0  0  0
  -29.8930  -24.3130   18.6360 C   0  0  0  0  0  2  0  0  0  0  0  0
  -30.0180  -22.7890   18.5880 C   0  0  0  0  0  2  0  0  0  0  0  0
  -29.5340  -22.2780   19.8870 N   0  0  0  0  0  0  0  0  0  0  0  0
  -28.6780  -23.1830   21.8330 O   0  0  0  0  0  0  0  0  0  0  0  0
  -28.5270  -26.8280   19.5450 O   0  0  0  0  0  0  0  0  0  0  0  0
  -24.5960  -31.6250   23.0430 C   0  0  0  0  0  0  0  0  0  0  0  0
  -27.3660  -27.5680   19.5830 C   0  0  0  0  0  0  0  0  0  0  0  0
  -23.4290  -30.3090   21.3070 C   0  0  0  0  0  3  0  0  0  0  0  0
  -24.9260  -28.9740   19.7350 C   0  0  0  0  0  0  0  0  0  0  0  0
  -25.9360  -30.8000   21.1090 C   0  0  0  0  0  2  0  0  0  0  0  0
  -26.0720  -29.4970   20.3470 C   0  0  0  0  0  0  0  0  0  0  0  0
  -27.3050  -28.8100   20.2530 C   0  0  0  0  0  3  0  0  0  0  0  0
  -26.2060  -27.0610   18.9590 C   0  0  0  0  0  3  0  0  0  0  0  0
  -24.9890  -27.7630   19.0250 C   0  0  0  0  0  3  0  0  0  0  0  0
  -23.6480  -29.7760   19.8690 C   0  0  0  0  0  2  0  0  0  0  0  0
  -24.6730  -30.9210   21.8780 N   0  0  0  0  0  0  0  0  0  0  0  0
  -23.5100  -31.8070   23.6110 O   0  0  0  0  0  0  0  0  0  0  0  0
  -22.8380  -29.1810   22.1830 C   0  0  0  0  0  0  0  0  0  0  0  0
  -21.5180  -28.9670   22.0690 N   0  0  0  0  0  0  0  0  0  0  0  0
  -23.5630  -28.5100   22.9230 O   0  0  0  0  0  0  0  0  0  0  0  0
  -20.9940  -29.5670   21.4480 H   0  0  0  0  0  0  0  0  0  0  0  0
  -18.1790  -27.6740   22.5820 C   0  0  0  0  0  0  0  0  0  0  0  0
  -20.7450  -27.9400   22.7740 C   0  0  0  0  0  3  0  0  0  0  0  0
  -20.8370  -26.5810   22.0430 C   0  0  0  0  0  2  0  0  0  0  0  0
  -19.6940  -26.3490   21.0510 C   0  0  0  0  0  2  0  0  0  0  0  0
  -18.3400  -26.4070   21.7640 C   0  0  0  0  0  2  0  0  0  0  0  0
  -19.3070  -28.4040   23.0450 C   0  0  0  0  0  0  0  0  0  0  0  0
  -19.0980  -29.5970   23.7730 C   0  0  0  0  0  3  0  0  0  0  0  0
  -17.7950  -30.0570   24.0400 C   0  0  0  0  0  3  0  0  0  0  0  0
  -16.6840  -29.3210   23.5970 C   0  0  0  0  0  3  0  0  0  0  0  0
  -16.8770  -28.1300   22.8730 C   0  0  0  0  0  3  0  0  0  0  0  0
  -25.8610  -32.2550   23.7030 C   0  0  0  0  0  3  0  0  0  0  0  0
  -25.5130  -33.6270   24.1020 N   0  0  0  0  0  0  0  0  0  0  0  0
  -25.8020  -34.7210   23.3840 C   0  0  0  0  0  0  0  0  0  0  0  0
  -26.4560  -34.6820   22.3380 O   0  0  0  0  0  0  0  0  0  0  0  0
  -24.9070  -33.7260   24.9030 H   0  0  0  0  0  0  0  0  0  0  0  0
  -23.9960  -36.4530   23.1530 C   0  0  0  0  0  1  0  0  0  0  0  0
  -25.2810  -36.0730   23.9080 C   0  0  0  0  0  3  0  0  0  0  0  0
  -27.4050  -37.0070   24.7100 C   0  0  0  0  0  1  0  0  0  0  0  0
  -26.2730  -37.1640   23.7990 N   0  0  0  0  0  0  0  0  0  0  0  0
  -25.8420  -38.0680   23.9800 H   0  0  0  0  0  0  0  0  0  0  0  0
  -26.3970  -31.4270   24.9320 C   0  0  1  0  0  0  0  0  0  0  0  0
  -25.3050  -31.1020   25.9810 C   0  0  0  0  0  1  0  0  0  0  0  0
  -27.0070  -30.0880   24.4600 C   0  0  0  0  0  1  0  0  0  0  0  0
  -27.5330  -32.2100   25.6280 C   0  0  0  0  0  1  0  0  0  0  0  0
  2  1  1  0
  2  5  1  0
  3  1  2  0
  4  2  2  0
  6  4  1  0
  6  3  1  0
  7 16  1  0
  8 13  1  0
  9 10  1  0
  9  8  1  0
 11 10  1  0
 11 24  1  0
 11 12  1  0
 13  7  1  0
 13 12  1  0
 14  7  2  0
 15  3  1  0
 15 16  1  0
 16 18  1  0
 17 15  2  0
 19 17  1  0
 20 17  1  0
 21 22  2  0
 22 41  1  0
 23 22  1  0
 23 26  1  0
 24 25  1  0
 24 21  1  0
 25 23  2  0
 26 27  1  0
 27 28  2  0
 29 32  1  0
 29 28  1  0
 30 29  2  0
 31 30  1  0
 31 26  2  0
 32 33  1  0
 33 34  1  0
 34 35  2  0
 36 35  1  0
 36 40  1  0
 37 36  2  0
 38 33  2  0
 38 37  1  0
 39 38  1  0
 41 42  1  0
 42 45  1  0
 42 44  1  0
 43 41  2  0
 46 47  1  0
 46 21  1  0
 48 46  1  0
 49 51  2  0
 49 50  1  0
 50 55  2  0
 52 49  1  0
 53 52  1  0
 53 54  1  0
 54  4  1  0
 54 50  1  0
 56 58  1  0
 56 51  1  0
 57 68  2  0
 58 63  1  0
 59 67  1  0
 59 69  1  0
 60 66  1  0
 60 62  1  0
 61 67  1  0
 62 61  1  0
 63 62  2  0
 64 65  1  0
 64 58  2  0
 65 60  2  0
 66 59  1  0
 67 57  1  0
 69 71  2  0
 70 69  1  0
 72 70  1  0
 73 82  2  0
 73 78  1  0
 74 70  1  0
 74 78  1  0
 75 74  1  0
 76 77  1  0
 76 75  1  0
 77 73  1  0
 78 79  2  0
 79 80  1  0
 81 80  2  0
 82 81  1  0
 83 57  1  0
 83 84  1  0
 83 93  1  0
 84 87  1  0
 85 89  1  0
 85 84  1  0
 86 85  2  0
 89 88  1  0
 91 89  1  0
 91 92  1  0
 91 90  1  0
 93 96  1  1
 93 94  1  0
 95 93  1  0
M  ISO  4   7 100  16 100  51 101  56 101
M  END
>  <TORSDO>  (90) 
F 17

>  <SCORE>  (90) 
-13.261

>  <name>  (90) 
89

>  <ligand_id>  (90) 
89

>  <original_smiles>  (90) 
[H]C(Oc1c([H])c([H])c2c(c1[H])C([H])([H])N(C(=O)C([H])(N([H])C(=O)C([H])(N([H])C([H])([H])[H])C([H])([H])[H])C(C([H])([H])[H])(C([H])([H])[H])C([H])([H])[H])C([H])(C(=O)N([H])C1([H])c3c([H])c([H])c([H])c([H])c3C([H])([H])C([H])([H])C1([H])[H])C2([H])[H])=C1C(=O)N(c2sc(C(N([H])C(=O)N3C([H])([H])C([H])([H])C([H])([H])C([H])(n4nc(-c5c([H])c([H])c(Oc6c([H])c([H])c(F)c([H])c6F)c([H])c5[H])c(C(=O)N([H])[H])c4N([H])[H])C3([H])[H])=[N+]([H])[H])c([H])c2F)C([H])([H])C1([H])[H]

>  <smiles>  (90) 
[H]C(Oc1c([H])c([H])c2c(c1[H])C([H])([H])N(C(=O)C([H])(N([H])C(=O)C([H])(N([H])C([H])([H])[H])C([H])([H])[H])C(C([H])([H])[H])(C([H])([H])[H])C([H])([H])[H])C([H])(C(=O)N([H])C1([H])c3c([H])c([H])c([H])c([H])c3C([H])([H])C([H])([H])C1([H])[H])C2([H])[H])=C1C(=O)N(c2sc(C(N([H])C(=O)N3C([H])([H])C([H])([H])C([H])([H])C([H])(n4nc(-c5c([H])c([H])c(Oc6c([H])c([H])c(F)c([H])c6F)c([H])c5[H])c(C(=O)N([H])[H])c4N([H])[H])C3([H])[H])=[N+]([H])[H])c([H])c2F)C([H])([H])C1([H])[H]

$$$$
90:0:0
     RDKit          3D

 97106  0  0  1  0  0  0  0  0999 V2000
  -28.9200  -23.9730   20.3130 C   0  0  0  0  0  0  0  0  0  0  0  0
  -29.9060  -23.9600   21.3660 C   0  0  0  0  0  0  0  0  0  0  0  0
  -28.8000  -22.5630   19.8390 C   0  0  0  0  0  0  0  0  0  0  0  0
  -28.2370  -25.0790   19.8270 C   0  0  0  0  0  3  0  0  0  0  0  0
  -30.4530  -22.5410   21.4810 C   0  0  0  0  0  2  0  0  0  0  0  0
  -29.6590  -21.7250   20.5340 N   0  0  0  0  0  0  0  0  0  0  0  0
  -30.2900  -24.9060   22.0630 O   0  0  0  0  0  0  0  0  0  0  0  0
  -28.0430  -22.1790   18.9380 O   0  0  0  0  0  0  0  0  0  0  0  0
  -28.8340  -19.3260   20.0040 C   0  0  0  0  0  3  0  0  0  0  0  0
  -31.1800  -18.1560   20.9430 C   0  0  0  0  0  3  0  0  0  0  0  0
  -29.8400  -20.2360   20.4530 C   0  0  0  0  0  0  0  0  0  0  0  0
  -28.9760  -17.8960   20.0720 C   0  0  0  0  0  0  0  0  0  0  0  0
  -30.1550  -17.2530   20.5520 C   0  0  0  0  0  0  0  0  0  0  0  0
  -31.0340  -19.5790   20.9010 C   0  0  0  0  0  0  0  0  0  0  0  0
  -32.0880  -20.3100   21.3320 F   0  0  0  0  0  0  0  0  0  0  0  0
  -30.7380  -14.7810   20.0860 C   0  0  0  0  0  0  0  0  0  0  0  0
  -30.4160  -12.5770   18.9260 C   0  0  0  0  0  2  0  0  0  0  0  0
  -29.4000  -12.7040   17.7680 C   0  0  0  0  0  2  0  0  0  0  0  0
  -27.9620  -12.5070   18.2810 C   0  0  0  0  0  2  0  0  0  0  0  0
  -27.6700  -13.3430   19.5530 C   0  0  0  0  0  3  0  0  0  0  0  0
  -28.7920  -13.1890   20.5990 C   0  0  0  0  0  2  0  0  0  0  0  0
  -30.0670  -13.5760   19.9670 N   0  0  0  0  0  0  0  0  0  0  0  0
  -31.8000  -14.9480   19.4780 O   0  0  0  0  0  0  0  0  0  0  0  0
  -30.2330  -15.5450   22.3170 C   0  0  0  0  0  1  0  0  0  0  0  0
  -30.2090  -15.8010   20.8710 N   0  0  0  0  0  0  0  0  0  0  0  0
  -25.3290  -13.9060   20.4470 C   0  0  0  0  0  0  0  0  0  0  0  0
  -24.2920  -13.1210   20.8700 C   0  0  0  0  0  0  0  0  0  0  0  0
  -24.7520  -11.7730   20.7620 C   0  0  0  0  0  0  0  0  0  0  0  0
  -26.3570  -13.0390   20.1150 N   0  0  0  0  0  0  0  0  0  0  0  0
  -26.0190  -11.7470   20.3660 N   0  0  0  0  0  0  0  0  0  0  0  0
  -24.0370  -10.5060   20.9570 C   0  0  0  0  0  0  0  0  0  0  0  0
  -24.4910   -9.5350   21.8770 C   0  0  0  0  0  3  0  0  0  0  0  0
  -23.7750   -8.3330   22.0600 C   0  0  0  0  0  3  0  0  0  0  0  0
  -22.5900   -8.0930   21.3240 C   0  0  0  0  0  0  0  0  0  0  0  0
  -22.1550   -9.0530   20.3940 C   0  0  0  0  0  3  0  0  0  0  0  0
  -22.8720  -10.2470   20.2080 C   0  0  0  0  0  3  0  0  0  0  0  0
  -21.8430   -6.9430   21.4170 O   0  0  0  0  0  0  0  0  0  0  0  0
  -21.7680   -6.2280   22.5850 C   0  0  0  0  0  0  0  0  0  0  0  0
  -21.3130   -6.8100   23.7880 C   0  0  0  0  0  3  0  0  0  0  0  0
  -21.1850   -6.0210   24.9490 C   0  0  0  0  0  3  0  0  0  0  0  0
  -21.5020   -4.6500   24.9070 C   0  0  0  0  0  0  0  0  0  0  0  0
  -21.9510   -4.0670   23.7090 C   0  0  0  0  0  3  0  0  0  0  0  0
  -22.0810   -4.8540   22.5500 C   0  0  0  0  0  0  0  0  0  0  0  0
  -22.4930   -4.2820   21.3930 F   0  0  0  0  0  0  0  0  0  0  0  0
  -21.3730   -3.8890   26.0190 F   0  0  0  0  0  0  0  0  0  0  0  0
  -22.9170  -13.5890   21.2480 C   0  0  0  0  0  0  0  0  0  0  0  0
  -22.2540  -12.8770   22.1540 N   0  0  0  0  0  0  0  0  0  0  0  0
  -22.4410  -14.6210   20.7780 O   0  0  0  0  0  0  0  0  0  0  0  0
  -22.6540  -12.0430   22.5550 H   0  0  0  0  0  0  0  0  0  0  0  0
  -21.3350  -13.1720   22.4500 H   0  0  0  0  0  0  0  0  0  0  0  0
  -25.4630  -15.2790   20.2890 N   0  0  0  0  0  0  0  0  0  0  0  0
  -24.6720  -15.8970   20.4290 H   0  0  0  0  0  0  0  0  0  0  0  0
  -26.2180  -15.7160   19.7700 H   0  0  0  0  0  0  0  0  0  0  0  0
  -27.8820  -17.1040   19.7510 N   0  0  0  0  0  0  0  0  0  0  0  0
  -26.9940  -17.5940   19.7450 H   0  0  0  0  0  0  0  0  0  0  0  0
  -27.8260  -16.2720   20.3300 H   0  0  0  0  0  0  0  0  0  0  0  0
  -28.3160  -26.4580   20.1970 O   0  0  0  0  0  0  0  0  0  0  0  0
  -24.5920  -31.9050   23.2340 C   0  0  0  0  0  0  0  0  0  0  0  0
  -27.1930  -27.3210   20.1500 C   0  0  0  0  0  0  0  0  0  0  0  0
  -23.3820  -30.5060   21.6020 C   0  0  0  0  0  3  0  0  0  0  0  0
  -24.8250  -28.9600   20.1640 C   0  0  0  0  0  0  0  0  0  0  0  0
  -25.9230  -30.8180   21.4070 C   0  0  0  0  0  2  0  0  0  0  0  0
  -26.0010  -29.4390   20.7560 C   0  0  0  0  0  0  0  0  0  0  0  0
  -27.1820  -28.6300   20.7420 C   0  0  0  0  0  3  0  0  0  0  0  0
  -25.9830  -26.9110   19.5350 C   0  0  0  0  0  3  0  0  0  0  0  0
  -24.8220  -27.7030   19.5470 C   0  0  0  0  0  3  0  0  0  0  0  0
  -23.5890  -29.8360   20.2200 C   0  0  0  0  0  2  0  0  0  0  0  0
  -24.6520  -31.0940   22.1370 N   0  0  0  0  0  0  0  0  0  0  0  0
  -23.5110  -32.1800   23.7750 O   0  0  0  0  0  0  0  0  0  0  0  0
  -22.7260  -29.4860   22.5650 C   0  0  0  0  0  0  0  0  0  0  0  0
  -21.4000  -29.3020   22.4430 N   0  0  0  0  0  0  0  0  0  0  0  0
  -23.4100  -28.8650   23.3820 O   0  0  0  0  0  0  0  0  0  0  0  0
  -20.9080  -29.8550   21.7550 H   0  0  0  0  0  0  0  0  0  0  0  0
  -18.0300  -28.0850   22.9520 C   0  0  0  0  0  0  0  0  0  0  0  0
  -20.5880  -28.3620   23.2170 C   0  0  0  0  0  3  0  0  0  0  0  0
  -20.6980  -26.9290   22.6470 C   0  0  0  0  0  2  0  0  0  0  0  0
  -19.5970  -26.5970   21.6350 C   0  0  0  0  0  2  0  0  0  0  0  0
  -18.2150  -26.7340   22.2810 C   0  0  0  0  0  2  0  0  0  0  0  0
  -19.1450  -28.8560   23.3780 C   0  0  0  0  0  0  0  0  0  0  0  0
  -18.9190  -30.1190   23.9670 C   0  0  0  0  0  3  0  0  0  0  0  0
  -17.6100  -30.6110   24.1340 C   0  0  0  0  0  3  0  0  0  0  0  0
  -16.5110  -29.8380   23.7240 C   0  0  0  0  0  3  0  0  0  0  0  0
  -16.7220  -28.5770   23.1390 C   0  0  0  0  0  3  0  0  0  0  0  0
  -25.8770  -32.5400   23.8490 C   0  0  0  0  0  3  0  0  0  0  0  0
  -25.5630  -33.9370   24.1840 N   0  0  0  0  0  0  0  0  0  0  0  0
  -25.8770  -34.9920   23.4210 C   0  0  0  0  0  0  0  0  0  0  0  0
  -26.5290  -34.8930   22.3780 O   0  0  0  0  0  0  0  0  0  0  0  0
  -24.9810  -34.0870   24.9950 H   0  0  0  0  0  0  0  0  0  0  0  0
  -24.1260  -36.7720   23.1080 C   0  0  0  0  0  1  0  0  0  0  0  0
  -25.3910  -36.3780   23.8880 C   0  0  0  0  0  3  0  0  0  0  0  0
  -27.5390  -37.2810   24.6640 C   0  0  0  0  0  1  0  0  0  0  0  0
  -26.4120  -37.4390   23.7480 N   0  0  0  0  0  0  0  0  0  0  0  0
  -26.0030  -38.3570   23.9020 H   0  0  0  0  0  0  0  0  0  0  0  0
  -26.4030  -31.7700   25.1220 C   0  0  1  0  0  0  0  0  0  0  0  0
  -25.3160  -31.5270   26.1950 C   0  0  0  0  0  1  0  0  0  0  0  0
  -26.9880  -30.3930   24.7270 C   0  0  0  0  0  1  0  0  0  0  0  0
  -27.5550  -32.5660   25.7770 C   0  0  0  0  0  1  0  0  0  0  0  0
  1  2  1  0
  2  5  1  0
  2  7  2  0
  3  1  1  0
  3  6  1  0
  4 57  1  0
  4  1  2  0
  6  5  1  0
  8  3  2  0
  9 12  2  0
  9 11  1  0
 11  6  1  0
 11 14  2  0
 12 13  1  0
 13 25  1  0
 13 10  2  0
 14 10  1  0
 14 15  1  0
 16 25  1  0
 17 22  1  0
 18 19  1  0
 18 17  1  0
 20 19  1  0
 20 29  1  0
 20 21  1  0
 22 16  1  0
 22 21  1  0
 23 16  2  0
 25 24  1  0
 26 27  2  0
 27 46  1  0
 28 27  1  0
 28 31  1  0
 29 30  1  0
 29 26  1  0
 30 28  2  0
 31 32  1  0
 32 33  2  0
 34 37  1  0
 34 33  1  0
 35 34  2  0
 36 35  1  0
 36 31  2  0
 37 38  1  0
 38 39  1  0
 39 40  2  0
 41 40  1  0
 41 45  1  0
 42 41  2  0
 43 38  2  0
 43 42  1  0
 44 43  1  0
 46 47  1  0
 47 50  1  0
 47 49  1  0
 48 46  2  0
 51 52  1  0
 51 26  1  0
 53 51  1  0
 54 12  1  0
 54 56  1  0
 55 54  1  0
 58 69  2  0
 59 57  1  0
 59 64  1  0
 60 68  1  0
 60 70  1  0
 61 67  1  0
 61 63  1  0
 62 68  1  0
 63 62  1  0
 64 63  2  0
 65 66  1  0
 65 59  2  0
 66 61  2  0
 67 60  1  0
 68 58  1  0
 70 72  2  0
 71 70  1  0
 73 71  1  0
 74 83  2  0
 74 79  1  0
 75 71  1  0
 75 79  1  0
 76 75  1  0
 77 78  1  0
 77 76  1  0
 78 74  1  0
 79 80  2  0
 80 81  1  0
 82 81  2  0
 83 82  1  0
 84 58  1  0
 84 85  1  0
 84 94  1  0
 85 88  1  0
 86 90  1  0
 86 85  1  0
 87 86  2  0
 90 89  1  0
 92 90  1  0
 92 93  1  0
 92 91  1  0
 94 97  1  1
 94 95  1  0
 96 94  1  0
M  ISO  4   4 101  16 100  25 100  57 101
M  END
>  <TORSDO>  (91) 
F 18

>  <SCORE>  (91) 
-14.590

>  <name>  (91) 
90

>  <ligand_id>  (91) 
90

>  <original_smiles>  (91) 
[H]C(Oc1c([H])c([H])c2c(c1[H])C([H])([H])N(C(=O)C([H])(N([H])C(=O)C([H])(N([H])C([H])([H])[H])C([H])([H])[H])C(C([H])([H])[H])(C([H])([H])[H])C([H])([H])[H])C([H])(C(=O)N([H])C1([H])c3c([H])c([H])c([H])c([H])c3C([H])([H])C([H])([H])C1([H])[H])C2([H])[H])=C1C(=O)N(c2c([H])c(N([H])[H])c(N(C(=O)N3C([H])([H])C([H])([H])C([H])([H])C([H])(n4nc(-c5c([H])c([H])c(Oc6c([H])c([H])c(F)c([H])c6F)c([H])c5[H])c(C(=O)N([H])[H])c4N([H])[H])C3([H])[H])C([H])([H])[H])c([H])c2F)C([H])([H])C1=O

>  <smiles>  (91) 
[H]C(Oc1c([H])c([H])c2c(c1[H])C([H])([H])N(C(=O)C([H])(N([H])C(=O)C([H])(N([H])C([H])([H])[H])C([H])([H])[H])C(C([H])([H])[H])(C([H])([H])[H])C([H])([H])[H])C([H])(C(=O)N([H])C1([H])c3c([H])c([H])c([H])c([H])c3C([H])([H])C([H])([H])C1([H])[H])C2([H])[H])=C1C(=O)N(c2c([H])c(N([H])[H])c(N(C(=O)N3C([H])([H])C([H])([H])C([H])([H])C([H])(n4nc(-c5c([H])c([H])c(Oc6c([H])c([H])c(F)c([H])c6F)c([H])c5[H])c(C(=O)N([H])[H])c4N([H])[H])C3([H])[H])C([H])([H])[H])c([H])c2F)C([H])([H])C1=O

$$$$
