0:0:0
     RDKit          3D

 93101  0  0  1  0  0  0  0  0999 V2000
  -29.2590  -19.7780   20.7330 C   0  0  0  0  0  3  0  0  0  0  0  0
  -27.9540  -18.2360   19.3840 C   0  0  0  0  0  3  0  0  0  0  0  0
  -27.5170  -20.6460   19.2620 C   0  0  0  0  0  3  0  0  0  0  0  0
  -29.0260  -18.4000   20.2940 C   0  0  0  0  0  0  0  0  0  0  0  0
  -28.5080  -20.9260   20.2310 C   0  0  0  0  0  0  0  0  0  0  0  0
  -27.2430  -19.3320   18.8460 C   0  0  0  0  0  0  0  0  0  0  0  0
  -30.7420  -14.8770   20.4740 C   0  0  0  0  0  0  0  0  0  0  0  0
  -30.5460  -12.5760   19.4990 C   0  0  0  0  0  2  0  0  0  0  0  0
  -29.6430  -12.6400   18.2460 C   0  0  0  0  0  2  0  0  0  0  0  0
  -28.1530  -12.5260   18.6320 C   0  0  0  0  0  2  0  0  0  0  0  0
  -27.7640  -13.4260   19.8370 C   0  0  0  0  0  3  0  0  0  0  0  0
  -28.7970  -13.3300   20.9800 C   0  0  0  0  0  2  0  0  0  0  0  0
  -30.0990  -13.6620   20.4020 N   0  0  0  0  0  0  0  0  0  0  0  0
  -31.9680  -14.9080   20.3460 O   0  0  0  0  0  0  0  0  0  0  0  0
  -29.7760  -17.1340   20.8540 C   0  0  0  0  0  0  0  0  0  0  0  0
  -30.0480  -16.1750   18.6000 C   0  0  0  0  0  1  0  0  0  0  0  0
  -30.0140  -15.9990   20.0700 N   0  0  0  0  0  0  0  0  0  0  0  0
  -30.1360  -17.1870   22.0370 O   0  0  0  0  0  0  0  0  0  0  0  0
  -25.3510  -14.0320   20.4880 C   0  0  0  0  0  0  0  0  0  0  0  0
  -24.2720  -13.2580   20.8390 C   0  0  0  0  0  0  0  0  0  0  0  0
  -24.7410  -11.9140   20.8490 C   0  0  0  0  0  0  0  0  0  0  0  0
  -26.4070  -13.1470   20.3030 N   0  0  0  0  0  0  0  0  0  0  0  0
  -26.0430  -11.8710   20.5890 N   0  0  0  0  0  0  0  0  0  0  0  0
  -24.0060  -10.6520   21.0290 C   0  0  0  0  0  0  0  0  0  0  0  0
  -24.3950   -9.7000   21.9970 C   0  0  0  0  0  3  0  0  0  0  0  0
  -23.6590   -8.5080   22.1670 C   0  0  0  0  0  3  0  0  0  0  0  0
  -22.5180   -8.2580   21.3690 C   0  0  0  0  0  0  0  0  0  0  0  0
  -22.1510   -9.1960   20.3890 C   0  0  0  0  0  3  0  0  0  0  0  0
  -22.8900  -10.3770   20.2140 C   0  0  0  0  0  3  0  0  0  0  0  0
  -21.7610   -7.1120   21.4420 O   0  0  0  0  0  0  0  0  0  0  0  0
  -21.6540   -6.3960   22.6090 C   0  0  0  0  0  0  0  0  0  0  0  0
  -21.1400   -6.9740   23.7910 C   0  0  0  0  0  3  0  0  0  0  0  0
  -20.9760   -6.1850   24.9480 C   0  0  0  0  0  3  0  0  0  0  0  0
  -21.3220   -4.8220   24.9240 C   0  0  0  0  0  0  0  0  0  0  0  0
  -21.8350   -4.2430   23.7500 C   0  0  0  0  0  3  0  0  0  0  0  0
  -21.9950   -5.0270   22.5930 C   0  0  0  0  0  0  0  0  0  0  0  0
  -22.4640   -4.4590   21.4580 F   0  0  0  0  0  0  0  0  0  0  0  0
  -21.1580   -4.0640   26.0360 F   0  0  0  0  0  0  0  0  0  0  0  0
  -22.8680  -13.7420   21.0530 C   0  0  0  0  0  0  0  0  0  0  0  0
  -22.1090  -13.0600   21.9100 N   0  0  0  0  0  0  0  0  0  0  0  0
  -22.4430  -14.7500   20.5030 O   0  0  0  0  0  0  0  0  0  0  0  0
  -22.4570  -12.2460   22.3870 H   0  0  0  0  0  0  0  0  0  0  0  0
  -21.1680  -13.3780   22.1000 H   0  0  0  0  0  0  0  0  0  0  0  0
  -25.5160  -15.3970   20.3060 N   0  0  0  0  0  0  0  0  0  0  0  0
  -24.7420  -16.0480   20.3800 H   0  0  0  0  0  0  0  0  0  0  0  0
  -26.3770  -15.8350   20.0040 H   0  0  0  0  0  0  0  0  0  0  0  0
  -26.2370  -19.1020   17.9120 N   0  0  0  0  0  0  0  0  0  0  0  0
  -25.9360  -19.8510   17.2950 H   0  0  0  0  0  0  0  0  0  0  0  0
  -26.1950  -18.1900   17.4760 H   0  0  0  0  0  0  0  0  0  0  0  0
  -28.6500  -22.4290   20.7890 C   0  0  0  0  0  2  0  0  0  0  0  0
  -28.4410  -23.7900   19.9080 C   0  0  0  0  0  3  0  0  0  0  0  0
  -28.9780  -25.2010   20.5540 C   0  0  0  0  0  3  0  0  0  0  0  0
  -28.6400  -26.6540   20.2350 O   0  0  0  0  0  0  0  0  0  0  0  0
  -24.6580  -32.0050   23.3280 C   0  0  0  0  0  0  0  0  0  0  0  0
  -27.4220  -27.3800   20.3780 C   0  0  0  0  0  0  0  0  0  0  0  0
  -23.5090  -30.5750   21.6840 C   0  0  0  0  0  3  0  0  0  0  0  0
  -25.0050  -28.9950   20.3210 C   0  0  0  0  0  0  0  0  0  0  0  0
  -26.0520  -30.8970   21.5520 C   0  0  0  0  0  2  0  0  0  0  0  0
  -26.1580  -29.4980   20.9320 C   0  0  0  0  0  0  0  0  0  0  0  0
  -27.3570  -28.7060   20.9440 C   0  0  0  0  0  3  0  0  0  0  0  0
  -26.2220  -26.9160   19.7950 C   0  0  0  0  0  3  0  0  0  0  0  0
  -25.0410  -27.7090   19.7530 C   0  0  0  0  0  3  0  0  0  0  0  0
  -23.7610  -29.8750   20.3200 C   0  0  0  0  0  2  0  0  0  0  0  0
  -24.7630  -31.1800   22.2450 N   0  0  0  0  0  0  0  0  0  0  0  0
  -23.5610  -32.2710   23.8410 O   0  0  0  0  0  0  0  0  0  0  0  0
  -22.8390  -29.5630   22.6470 C   0  0  0  0  0  0  0  0  0  0  0  0
  -21.5180  -29.3560   22.4890 N   0  0  0  0  0  0  0  0  0  0  0  0
  -23.5150  -28.9610   23.4880 O   0  0  0  0  0  0  0  0  0  0  0  0
  -21.0320  -29.9050   21.7930 H   0  0  0  0  0  0  0  0  0  0  0  0
  -18.1520  -28.1250   22.9390 C   0  0  0  0  0  0  0  0  0  0  0  0
  -20.6970  -28.4110   23.2490 C   0  0  0  0  0  3  0  0  0  0  0  0
  -20.8280  -26.9800   22.6810 C   0  0  0  0  0  2  0  0  0  0  0  0
  -19.7460  -26.6390   21.6530 C   0  0  0  0  0  2  0  0  0  0  0  0
  -18.3520  -26.7720   22.2730 C   0  0  0  0  0  2  0  0  0  0  0  0
  -19.2530  -28.9000   23.3850 C   0  0  0  0  0  0  0  0  0  0  0  0
  -19.0100  -30.1630   23.9670 C   0  0  0  0  0  3  0  0  0  0  0  0
  -17.6970  -30.6510   24.1100 C   0  0  0  0  0  3  0  0  0  0  0  0
  -16.6080  -29.8720   23.6810 C   0  0  0  0  0  3  0  0  0  0  0  0
  -16.8380  -28.6110   23.1010 C   0  0  0  0  0  3  0  0  0  0  0  0
  -25.9120  -32.6680   23.9820 C   0  0  0  0  0  3  0  0  0  0  0  0
  -26.3860  -31.9390   25.3010 C   0  0  1  0  0  0  0  0  0  0  0  0
  -25.2590  -31.7170   26.3340 C   0  0  0  0  0  1  0  0  0  0  0  0
  -26.9980  -30.5590   24.9740 C   0  0  0  0  0  1  0  0  0  0  0  0
  -27.4990  -32.7680   25.9880 C   0  0  0  0  0  1  0  0  0  0  0  0
  -25.5840  -34.0740   24.2620 N   0  0  0  0  0  0  0  0  0  0  0  0
  -25.9300  -35.1090   23.4840 C   0  0  0  0  0  0  0  0  0  0  0  0
  -26.6310  -34.9810   22.4790 O   0  0  0  0  0  0  0  0  0  0  0  0
  -24.9670  -34.2470   25.0430 H   0  0  0  0  0  0  0  0  0  0  0  0
  -24.2090  -36.8790   23.0250 C   0  0  0  0  0  1  0  0  0  0  0  0
  -25.4230  -36.5030   23.8880 C   0  0  0  0  0  3  0  0  0  0  0  0
  -27.5220  -37.4300   24.7680 C   0  0  0  0  0  1  0  0  0  0  0  0
  -26.4520  -37.5590   23.7790 N   0  0  0  0  0  0  0  0  0  0  0  0
  -26.0390  -38.4840   23.8750 H   0  0  0  0  0  0  0  0  0  0  0  0
  2  4  2  0
  3  5  1  0
  4  1  1  0
  4 15  1  0
  5  1  2  0
  5 50  1  0
  6  3  2  0
  6  2  1  0
  8 13  1  0
  9 10  1  0
  9  8  1  0
 11 10  1  0
 11 22  1  0
 11 12  1  0
 13  7  1  0
 13 12  1  0
 14  7  2  0
 15 18  2  0
 16 17  1  0
 17  7  1  0
 17 15  1  0
 19 20  2  0
 20 21  1  0
 20 39  1  0
 21 24  1  0
 22 19  1  0
 22 23  1  0
 23 21  2  0
 24 25  1  0
 25 26  2  0
 27 30  1  0
 27 26  1  0
 28 27  2  0
 29 28  1  0
 29 24  2  0
 30 31  1  0
 31 32  1  0
 32 33  2  0
 34 33  1  0
 34 38  1  0
 35 34  2  0
 36 31  2  0
 36 35  1  0
 37 36  1  0
 39 40  1  0
 40 43  1  0
 40 42  1  0
 41 39  2  0
 44 45  1  0
 44 19  1  0
 46 44  1  0
 47  6  1  0
 48 47  1  0
 49 47  1  0
 51 52  2  0
 51 50  1  0
 53 55  1  0
 53 52  1  0
 54 65  2  0
 55 60  1  0
 56 64  1  0
 56 66  1  0
 57 59  1  0
 58 64  1  0
 59 60  2  0
 59 58  1  0
 61 55  2  0
 62 61  1  0
 62 57  2  0
 63 57  1  0
 63 56  1  0
 64 54  1  0
 66 68  2  0
 67 66  1  0
 69 67  1  0
 70 79  2  0
 70 75  1  0
 71 67  1  0
 71 75  1  0
 72 71  1  0
 73 74  1  0
 73 72  1  0
 74 70  1  0
 75 76  2  0
 76 77  1  0
 78 77  2  0
 79 78  1  0
 80 54  1  0
 80 85  1  0
 80 81  1  0
 81 84  1  1
 81 82  1  0
 83 81  1  0
 85 88  1  0
 86 90  1  0
 86 85  1  0
 87 86  2  0
 90 89  1  0
 92 93  1  0
 92 90  1  0
 92 91  1  0
M  ISO  4   7 100  17 100  52 101  53 101
M  END
>  <TORSDO>  (1) 
F 20

>  <SCORE>  (1) 
-13.403

>  <name>  (1) 
0

>  <ligand_id>  (1) 
0

>  <original_smiles>  (1) 
[H]c1c([H])c([H])c2c(c1[H])C([H])([H])C([H])([H])C([H])([H])C2([H])N([H])C(=O)C1([H])N(C(=O)C([H])(N([H])C(=O)C([H])(N([H])C([H])([H])[H])C([H])([H])[H])C(C([H])([H])[H])(C([H])([H])[H])C([H])([H])[H])C([H])([H])c2c([H])c(OC([H])([H])C([H])([H])C([H])([H])c3c([H])c(C(=O)N(C(=O)N4C([H])([H])C([H])([H])C([H])([H])C([H])(n5nc(-c6c([H])c([H])c(Oc7c([H])c([H])c(F)c([H])c7F)c([H])c6[H])c(C(=O)N([H])[H])c5N([H])[H])C4([H])[H])C([H])([H])[H])c([H])c(N([H])[H])c3[H])c([H])c([H])c2C1([H])[H]

>  <smiles>  (1) 
[H]c1c([H])c([H])c2c(c1[H])C([H])([H])C([H])([H])C([H])([H])C2([H])N([H])C(=O)C1([H])N(C(=O)C([H])(N([H])C(=O)C([H])(N([H])C([H])([H])[H])C([H])([H])[H])C(C([H])([H])[H])(C([H])([H])[H])C([H])([H])[H])C([H])([H])c2c([H])c(OC([H])([H])C([H])([H])C([H])([H])c3c([H])c(C(=O)N(C(=O)N4C([H])([H])C([H])([H])C([H])([H])C([H])(n5nc(-c6c([H])c([H])c(Oc7c([H])c([H])c(F)c([H])c7F)c([H])c6[H])c(C(=O)N([H])[H])c5N([H])[H])C4([H])[H])C([H])([H])[H])c([H])c(N([H])[H])c3[H])c([H])c([H])c2C1([H])[H]

$$$$
1:0:0
     RDKit          3D

 94103  0  0  1  0  0  0  0  0999 V2000
  -31.1780  -23.3580   20.1470 C   0  0  0  0  0  0  0  0  0  0  0  0
  -30.6950  -24.8010   20.2250 C   0  0  0  0  0  2  0  0  0  0  0  0
  -29.0660  -23.2360   21.0490 C   0  0  0  0  0  2  0  0  0  0  0  0
  -29.5550  -24.6920   21.2290 C   0  0  0  0  0  3  0  0  0  0  0  0
  -30.2550  -22.4790   20.6070 N   0  0  0  0  0  0  0  0  0  0  0  0
  -32.3110  -23.1020   19.7260 O   0  0  0  0  0  0  0  0  0  0  0  0
  -29.9800  -18.9130   21.9450 C   0  0  0  0  0  3  0  0  0  0  0  0
  -29.7680  -20.3070   21.7780 C   0  0  0  0  0  3  0  0  0  0  0  0
  -31.2580  -20.2910   19.8750 C   0  0  0  0  0  3  0  0  0  0  0  0
  -30.8490  -18.1960   21.0880 C   0  0  0  0  0  0  0  0  0  0  0  0
  -30.4220  -21.0390   20.7500 C   0  0  0  0  0  0  0  0  0  0  0  0
  -31.4770  -18.9070   20.0440 C   0  0  0  0  0  0  0  0  0  0  0  0
  -32.2980  -18.2580   19.1870 F   0  0  0  0  0  0  0  0  0  0  0  0
  -31.1260  -16.6840   21.2890 C   0  0  0  0  0  2  0  0  0  0  0  0
  -31.0630  -14.5480   19.9960 C   0  0  0  0  0  0  0  0  0  0  0  0
  -30.6530  -12.3400   18.9520 C   0  0  0  0  0  2  0  0  0  0  0  0
  -29.6510  -12.4760   17.7870 C   0  0  0  0  0  2  0  0  0  0  0  0
  -28.2050  -12.3390   18.3030 C   0  0  0  0  0  2  0  0  0  0  0  0
  -27.9220  -13.2360   19.5350 C   0  0  0  0  0  3  0  0  0  0  0  0
  -29.0430  -13.1260   20.5950 C   0  0  0  0  0  2  0  0  0  0  0  0
  -30.3310  -13.3920   19.9320 N   0  0  0  0  0  0  0  0  0  0  0  0
  -32.2240  -14.5960   19.5830 O   0  0  0  0  0  0  0  0  0  0  0  0
  -29.3660  -16.2480   19.5620 C   0  0  0  0  0  1  0  0  0  0  0  0
  -30.4350  -15.6930   20.4100 N   0  0  0  0  0  0  0  0  0  0  0  0
  -25.6130  -13.9180   20.4280 C   0  0  0  0  0  0  0  0  0  0  0  0
  -24.5430  -13.1770   20.8460 C   0  0  0  0  0  0  0  0  0  0  0  0
  -24.9500  -11.8110   20.7520 C   0  0  0  0  0  0  0  0  0  0  0  0
  -26.6030  -13.0010   20.1050 N   0  0  0  0  0  0  0  0  0  0  0  0
  -26.2140  -11.7290   20.3620 N   0  0  0  0  0  0  0  0  0  0  0  0
  -24.1920  -10.5720   20.9530 C   0  0  0  0  0  0  0  0  0  0  0  0
  -24.6200   -9.5910   21.8740 C   0  0  0  0  0  3  0  0  0  0  0  0
  -23.8670   -8.4120   22.0630 C   0  0  0  0  0  3  0  0  0  0  0  0
  -22.6720   -8.2090   21.3310 C   0  0  0  0  0  0  0  0  0  0  0  0
  -22.2640   -9.1790   20.4000 C   0  0  0  0  0  3  0  0  0  0  0  0
  -23.0170  -10.3490   20.2100 C   0  0  0  0  0  3  0  0  0  0  0  0
  -21.8880   -7.0870   21.4330 O   0  0  0  0  0  0  0  0  0  0  0  0
  -21.8080   -6.3690   22.6000 C   0  0  0  0  0  0  0  0  0  0  0  0
  -21.3540   -6.9520   23.8030 C   0  0  0  0  0  3  0  0  0  0  0  0
  -21.2240   -6.1620   24.9630 C   0  0  0  0  0  3  0  0  0  0  0  0
  -21.5330   -4.7890   24.9180 C   0  0  0  0  0  0  0  0  0  0  0  0
  -21.9770   -4.2060   23.7190 C   0  0  0  0  0  3  0  0  0  0  0  0
  -22.1130   -4.9940   22.5630 C   0  0  0  0  0  0  0  0  0  0  0  0
  -22.5230   -4.4230   21.4050 F   0  0  0  0  0  0  0  0  0  0  0  0
  -21.3990   -4.0280   26.0280 F   0  0  0  0  0  0  0  0  0  0  0  0
  -23.1850  -13.6970   21.2190 C   0  0  0  0  0  0  0  0  0  0  0  0
  -22.4850  -13.0020   22.1090 N   0  0  0  0  0  0  0  0  0  0  0  0
  -22.7550  -14.7530   20.7550 O   0  0  0  0  0  0  0  0  0  0  0  0
  -22.8460  -12.1470   22.5070 H   0  0  0  0  0  0  0  0  0  0  0  0
  -21.5760  -13.3290   22.3990 H   0  0  0  0  0  0  0  0  0  0  0  0
  -25.8180  -15.2850   20.2680 N   0  0  0  0  0  0  0  0  0  0  0  0
  -25.0840  -15.9680   20.4170 H   0  0  0  0  0  0  0  0  0  0  0  0
  -26.6660  -15.6890   19.8890 H   0  0  0  0  0  0  0  0  0  0  0  0
  -28.5060  -25.8440   21.2500 C   0  0  0  0  0  2  0  0  0  0  0  0
  -28.3480  -26.5710   20.0250 O   0  0  0  0  0  0  0  0  0  0  0  0
  -24.4850  -31.7290   23.1090 C   0  0  0  0  0  0  0  0  0  0  0  0
  -27.2120  -27.3500   20.0110 C   0  0  0  0  0  0  0  0  0  0  0  0
  -23.3130  -30.3310   21.4390 C   0  0  0  0  0  3  0  0  0  0  0  0
  -24.8030  -28.8270   20.0080 C   0  0  0  0  0  0  0  0  0  0  0  0
  -25.8360  -30.7210   21.2730 C   0  0  0  0  0  2  0  0  0  0  0  0
  -25.9480  -29.3580   20.6200 C   0  0  0  0  0  0  0  0  0  0  0  0
  -27.1570  -28.6240   20.6250 C   0  0  0  0  0  3  0  0  0  0  0  0
  -26.0600  -26.8380   19.3840 C   0  0  0  0  0  3  0  0  0  0  0  0
  -24.8530  -27.5660   19.3890 C   0  0  0  0  0  3  0  0  0  0  0  0
  -23.5460  -29.6700   20.0530 C   0  0  0  0  0  2  0  0  0  0  0  0
  -24.5620  -30.9420   21.9990 N   0  0  0  0  0  0  0  0  0  0  0  0
  -23.3970  -31.9820   23.6440 O   0  0  0  0  0  0  0  0  0  0  0  0
  -22.6650  -29.2910   22.3810 C   0  0  0  0  0  0  0  0  0  0  0  0
  -21.3430  -29.1020   22.2460 N   0  0  0  0  0  0  0  0  0  0  0  0
  -23.3490  -28.6590   23.1910 O   0  0  0  0  0  0  0  0  0  0  0  0
  -20.8520  -29.6640   21.5660 H   0  0  0  0  0  0  0  0  0  0  0  0
  -17.9750  -27.8730   22.7080 C   0  0  0  0  0  0  0  0  0  0  0  0
  -20.5300  -28.1470   22.9990 C   0  0  0  0  0  3  0  0  0  0  0  0
  -20.6470  -26.7250   22.4030 C   0  0  0  0  0  2  0  0  0  0  0  0
  -19.5540  -26.4080   21.3790 C   0  0  0  0  0  2  0  0  0  0  0  0
  -18.1660  -26.5340   22.0150 C   0  0  0  0  0  2  0  0  0  0  0  0
  -19.0850  -28.6360   23.1560 C   0  0  0  0  0  0  0  0  0  0  0  0
  -18.8540  -29.8900   23.7630 C   0  0  0  0  0  3  0  0  0  0  0  0
  -17.5460  -30.3800   23.9270 C   0  0  0  0  0  3  0  0  0  0  0  0
  -16.4490  -29.6140   23.4950 C   0  0  0  0  0  3  0  0  0  0  0  0
  -16.6660  -28.3610   22.8930 C   0  0  0  0  0  3  0  0  0  0  0  0
  -25.7590  -32.3670   23.7490 C   0  0  0  0  0  3  0  0  0  0  0  0
  -26.2770  -31.5860   25.0190 C   0  0  1  0  0  0  0  0  0  0  0  0
  -25.1790  -31.3230   26.0740 C   0  0  0  0  0  1  0  0  0  0  0  0
  -26.8820  -30.2200   24.6130 C   0  0  0  0  0  1  0  0  0  0  0  0
  -27.4100  -32.3880   25.6990 C   0  0  0  0  0  1  0  0  0  0  0  0
  -25.4320  -33.7580   24.0900 N   0  0  0  0  0  0  0  0  0  0  0  0
  -25.7480  -34.8200   23.3370 C   0  0  0  0  0  0  0  0  0  0  0  0
  -26.4150  -34.7330   22.3030 O   0  0  0  0  0  0  0  0  0  0  0  0
  -24.8390  -33.8980   24.8960 H   0  0  0  0  0  0  0  0  0  0  0  0
  -23.9890  -36.5850   23.0010 C   0  0  0  0  0  1  0  0  0  0  0  0
  -25.2410  -36.1980   23.8030 C   0  0  0  0  0  3  0  0  0  0  0  0
  -27.3640  -37.1160   24.6300 C   0  0  0  0  0  1  0  0  0  0  0  0
  -26.2570  -37.2680   23.6890 N   0  0  0  0  0  0  0  0  0  0  0  0
  -25.8370  -38.1810   23.8390 H   0  0  0  0  0  0  0  0  0  0  0  0
  1  2  1  0
  1  5  1  0
  2  4  1  0
  3  4  1  0
  4 53  1  0
  5 11  1  0
  5  3  1  0
  6  1  2  0
  8  7  1  0
  9 12  2  0
  9 11  1  0
 10 14  1  0
 10  7  2  0
 11  8  2  0
 12 10  1  0
 13 12  1  0
 15 24  1  0
 16 21  1  0
 17 18  1  0
 17 16  1  0
 19 18  1  0
 19 28  1  0
 19 20  1  0
 21 15  1  0
 21 20  1  0
 22 15  2  0
 23 24  1  0
 24 14  1  0
 25 26  2  0
 26 45  1  0
 27 26  1  0
 27 30  1  0
 28 29  1  0
 28 25  1  0
 29 27  2  0
 30 31  1  0
 31 32  2  0
 33 36  1  0
 33 32  1  0
 34 33  2  0
 35 34  1  0
 35 30  2  0
 36 37  1  0
 37 38  1  0
 38 39  2  0
 40 39  1  0
 40 44  1  0
 41 40  2  0
 42 37  2  0
 42 41  1  0
 43 42  1  0
 45 46  1  0
 46 49  1  0
 46 48  1  0
 47 45  2  0
 50 51  1  0
 50 25  1  0
 52 50  1  0
 54 53  1  0
 55 66  2  0
 56 54  1  0
 56 61  1  0
 57 65  1  0
 57 67  1  0
 58 64  1  0
 58 60  1  0
 59 65  1  0
 60 61  2  0
 60 59  1  0
 62 63  1  0
 62 56  2  0
 63 58  2  0
 64 57  1  0
 65 55  1  0
 67 69  2  0
 68 67  1  0
 70 68  1  0
 71 80  2  0
 71 76  1  0
 72 68  1  0
 72 76  1  0
 73 72  1  0
 74 75  1  0
 74 73  1  0
 75 71  1  0
 76 77  2  0
 77 78  1  0
 79 78  2  0
 80 79  1  0
 81 55  1  0
 81 86  1  0
 81 82  1  0
 82 85  1  1
 82 83  1  0
 84 82  1  0
 86 89  1  0
 87 91  1  0
 87 86  1  0
 88 87  2  0
 91 90  1  0
 93 91  1  0
 93 94  1  0
 93 92  1  0
M  ISO  4  15 100  24 100  53 101  54 101
M  END
>  <TORSDO>  (2) 
F 19

>  <SCORE>  (2) 
-13.553

>  <name>  (2) 
1

>  <ligand_id>  (2) 
1

>  <original_smiles>  (2) 
[H]c1c([H])c([H])c2c(c1[H])C([H])([H])C([H])([H])C([H])([H])C2([H])N([H])C(=O)C1([H])N(C(=O)C([H])(N([H])C(=O)C([H])(N([H])C([H])([H])[H])C([H])([H])[H])C(C([H])([H])[H])(C([H])([H])[H])C([H])([H])[H])C([H])([H])c2c([H])c(OC([H])([H])C3([H])C([H])([H])C(=O)N(c4c([H])c([H])c(C([H])([H])N(C(=O)N5C([H])([H])C([H])([H])C([H])([H])C([H])(n6nc(-c7c([H])c([H])c(Oc8c([H])c([H])c(F)c([H])c8F)c([H])c7[H])c(C(=O)N([H])[H])c6N([H])[H])C5([H])[H])C([H])([H])[H])c(F)c4[H])C3([H])[H])c([H])c([H])c2C1([H])[H]

>  <smiles>  (2) 
[H]c1c([H])c([H])c2c(c1[H])C([H])([H])C([H])([H])C([H])([H])C2([H])N([H])C(=O)C1([H])N(C(=O)C([H])(N([H])C(=O)C([H])(N([H])C([H])([H])[H])C([H])([H])[H])C(C([H])([H])[H])(C([H])([H])[H])C([H])([H])[H])C([H])([H])c2c([H])c(OC([H])([H])C3([H])C([H])([H])C(=O)N(c4c([H])c([H])c(C([H])([H])N(C(=O)N5C([H])([H])C([H])([H])C([H])([H])C([H])(n6nc(-c7c([H])c([H])c(Oc8c([H])c([H])c(F)c([H])c8F)c([H])c7[H])c(C(=O)N([H])[H])c6N([H])[H])C5([H])[H])C([H])([H])[H])c(F)c4[H])C3([H])[H])c([H])c([H])c2C1([H])[H]

$$$$
2:0:0
     RDKit          3D

 95104  0  0  1  0  0  0  0  0999 V2000
  -27.3550  -21.1630   19.7250 C   0  0  0  0  0  0  0  0  0  0  0  0
  -29.0830  -22.6930   20.3770 C   0  0  0  0  0  0  0  0  0  0  0  0
  -26.2940  -22.2660   19.6960 C   0  0  0  0  0  2  0  0  0  0  0  0
  -26.8220  -23.6970   19.6680 C   0  0  0  0  0  2  0  0  0  0  0  0
  -28.0470  -23.8980   20.5450 C   0  0  0  0  0  3  0  0  0  0  0  0
  -28.6570  -21.4010   20.0760 N   0  0  0  0  0  0  0  0  0  0  0  0
  -26.9310  -20.0350   19.4340 O   0  0  0  0  0  0  0  0  0  0  0  0
  -30.2820  -22.9380   20.5550 O   0  0  0  0  0  0  0  0  0  0  0  0
  -30.1200  -17.8790   19.4420 C   0  0  0  0  0  3  0  0  0  0  0  0
  -30.4940  -18.4770   21.7280 C   0  0  0  0  0  3  0  0  0  0  0  0
  -29.6270  -19.2000   19.1960 C   0  0  0  0  0  3  0  0  0  0  0  0
  -29.9970  -19.7910   21.4910 C   0  0  0  0  0  3  0  0  0  0  0  0
  -30.5260  -17.4470   20.7340 C   0  0  0  0  0  0  0  0  0  0  0  0
  -29.4900  -20.1820   20.2260 C   0  0  0  0  0  0  0  0  0  0  0  0
  -30.8810  -15.9900   21.1330 C   0  0  0  0  0  0  0  0  0  0  0  0
  -30.8530  -15.6840   22.3650 N   0  0  0  0  0  0  0  0  0  0  0  0
  -30.5630  -16.4740   22.9250 H   0  0  0  0  0  0  0  0  0  0  0  0
  -31.3380  -14.9000   20.0870 C   0  0  0  0  0  0  0  0  0  0  0  0
  -30.9820  -12.7040   18.9500 C   0  0  0  0  0  2  0  0  0  0  0  0
  -29.9910  -12.8420   17.7720 C   0  0  0  0  0  2  0  0  0  0  0  0
  -28.5380  -12.6920   18.2560 C   0  0  0  0  0  2  0  0  0  0  0  0
  -28.2470  -13.5670   19.5000 C   0  0  0  0  0  3  0  0  0  0  0  0
  -29.3320  -13.3800   20.5800 C   0  0  0  0  0  2  0  0  0  0  0  0
  -30.6420  -13.7120   19.9820 N   0  0  0  0  0  0  0  0  0  0  0  0
  -32.3630  -15.0920   19.4200 O   0  0  0  0  0  0  0  0  0  0  0  0
  -25.9140  -14.2320   20.3570 C   0  0  0  0  0  0  0  0  0  0  0  0
  -24.8400  -13.4830   20.7550 C   0  0  0  0  0  0  0  0  0  0  0  0
  -25.2430  -12.1190   20.6430 C   0  0  0  0  0  0  0  0  0  0  0  0
  -26.9110  -13.3220   20.0330 N   0  0  0  0  0  0  0  0  0  0  0  0
  -26.5120  -12.0440   20.2600 N   0  0  0  0  0  0  0  0  0  0  0  0
  -24.4760  -10.8790   20.8210 C   0  0  0  0  0  0  0  0  0  0  0  0
  -24.8660   -9.8920   21.7530 C   0  0  0  0  0  3  0  0  0  0  0  0
  -24.0980   -8.7180   21.9160 C   0  0  0  0  0  3  0  0  0  0  0  0
  -22.9290   -8.5200   21.1420 C   0  0  0  0  0  0  0  0  0  0  0  0
  -22.5600   -9.4950   20.2000 C   0  0  0  0  0  3  0  0  0  0  0  0
  -23.3260  -10.6620   20.0380 C   0  0  0  0  0  3  0  0  0  0  0  0
  -22.1380   -7.4000   21.2150 O   0  0  0  0  0  0  0  0  0  0  0  0
  -21.9760   -6.7080   22.3890 C   0  0  0  0  0  0  0  0  0  0  0  0
  -21.4800   -7.3280   23.5560 C   0  0  0  0  0  3  0  0  0  0  0  0
  -21.2620   -6.5630   24.7190 C   0  0  0  0  0  3  0  0  0  0  0  0
  -21.5300   -5.1810   24.7160 C   0  0  0  0  0  0  0  0  0  0  0  0
  -22.0200   -4.5630   23.5520 C   0  0  0  0  0  3  0  0  0  0  0  0
  -22.2400   -5.3250   22.3910 C   0  0  0  0  0  0  0  0  0  0  0  0
  -22.6880   -4.7180   21.2660 F   0  0  0  0  0  0  0  0  0  0  0  0
  -21.3140   -4.4440   25.8310 F   0  0  0  0  0  0  0  0  0  0  0  0
  -23.4800  -14.0020   21.1270 C   0  0  0  0  0  0  0  0  0  0  0  0
  -22.7890  -13.3140   22.0300 N   0  0  0  0  0  0  0  0  0  0  0  0
  -23.0420  -15.0500   20.6540 O   0  0  0  0  0  0  0  0  0  0  0  0
  -23.1660  -12.4760   22.4500 H   0  0  0  0  0  0  0  0  0  0  0  0
  -21.8770  -13.6370   22.3180 H   0  0  0  0  0  0  0  0  0  0  0  0
  -26.1190  -15.6030   20.2260 N   0  0  0  0  0  0  0  0  0  0  0  0
  -25.3730  -16.2720   20.3810 H   0  0  0  0  0  0  0  0  0  0  0  0
  -26.9590  -16.0290   19.8550 H   0  0  0  0  0  0  0  0  0  0  0  0
  -28.4890  -25.4460   20.7150 C   0  0  0  0  0  2  0  0  0  0  0  0
  -28.3230  -26.5280   19.7080 O   0  0  0  0  0  0  0  0  0  0  0  0
  -24.6810  -31.8530   23.0180 C   0  0  0  0  0  0  0  0  0  0  0  0
  -27.2160  -27.3830   19.7890 C   0  0  0  0  0  0  0  0  0  0  0  0
  -23.4370  -30.4960   21.3740 C   0  0  0  0  0  3  0  0  0  0  0  0
  -24.8530  -28.9890   19.8730 C   0  0  0  0  0  0  0  0  0  0  0  0
  -25.9690  -30.8240   21.1330 C   0  0  0  0  0  2  0  0  0  0  0  0
  -26.0330  -29.4590   20.4640 C   0  0  0  0  0  0  0  0  0  0  0  0
  -27.2180  -28.6630   20.4230 C   0  0  0  0  0  3  0  0  0  0  0  0
  -26.0300  -26.9930   19.1390 C   0  0  0  0  0  3  0  0  0  0  0  0
  -24.8510  -27.7560   19.2050 C   0  0  0  0  0  3  0  0  0  0  0  0
  -23.6160  -29.8580   19.9710 C   0  0  0  0  0  2  0  0  0  0  0  0
  -24.7150  -31.0760   21.8970 N   0  0  0  0  0  0  0  0  0  0  0  0
  -23.6130  -32.1130   23.5880 O   0  0  0  0  0  0  0  0  0  0  0  0
  -22.8050  -29.4490   22.3220 C   0  0  0  0  0  0  0  0  0  0  0  0
  -21.4750  -29.2740   22.2280 N   0  0  0  0  0  0  0  0  0  0  0  0
  -23.5080  -28.8010   23.1010 O   0  0  0  0  0  0  0  0  0  0  0  0
  -20.9690  -29.8510   21.5710 H   0  0  0  0  0  0  0  0  0  0  0  0
  -18.1130  -28.0570   22.7800 C   0  0  0  0  0  0  0  0  0  0  0  0
  -20.6770  -28.3150   22.9940 C   0  0  0  0  0  3  0  0  0  0  0  0
  -20.7670  -26.9000   22.3800 C   0  0  0  0  0  2  0  0  0  0  0  0
  -19.6420  -26.5990   21.3860 C   0  0  0  0  0  2  0  0  0  0  0  0
  -18.2760  -26.7250   22.0670 C   0  0  0  0  0  2  0  0  0  0  0  0
  -19.2410  -28.8110   23.2010 C   0  0  0  0  0  0  0  0  0  0  0  0
  -19.0340  -30.0590   23.8300 C   0  0  0  0  0  3  0  0  0  0  0  0
  -17.7330  -30.5520   24.0400 C   0  0  0  0  0  3  0  0  0  0  0  0
  -16.6210  -29.7950   23.6340 C   0  0  0  0  0  3  0  0  0  0  0  0
  -16.8120  -28.5490   23.0110 C   0  0  0  0  0  3  0  0  0  0  0  0
  -25.9820  -32.4700   23.6190 C   0  0  0  0  0  3  0  0  0  0  0  0
  -26.5450  -31.6530   24.8470 C   0  0  1  0  0  0  0  0  0  0  0  0
  -25.4910  -31.3690   25.9420 C   0  0  0  0  0  1  0  0  0  0  0  0
  -27.1150  -30.2930   24.3810 C   0  0  0  0  0  1  0  0  0  0  0  0
  -27.7150  -32.4260   25.4980 C   0  0  0  0  0  1  0  0  0  0  0  0
  -25.6730  -33.8510   24.0170 N   0  0  0  0  0  0  0  0  0  0  0  0
  -25.9910  -34.9380   23.3000 C   0  0  0  0  0  0  0  0  0  0  0  0
  -26.6450  -34.8820   22.2550 O   0  0  0  0  0  0  0  0  0  0  0  0
  -25.0940  -33.9680   24.8340 H   0  0  0  0  0  0  0  0  0  0  0  0
  -24.2660  -36.7500   23.0350 C   0  0  0  0  0  1  0  0  0  0  0  0
  -25.5060  -36.3030   23.8250 C   0  0  0  0  0  3  0  0  0  0  0  0
  -27.6400  -37.1430   24.7020 C   0  0  0  0  0  1  0  0  0  0  0  0
  -26.5410  -37.3580   23.7660 N   0  0  0  0  0  0  0  0  0  0  0  0
  -26.1360  -38.2710   23.9550 H   0  0  0  0  0  0  0  0  0  0  0  0
  1  6  1  0
  2  5  1  0
  2  8  2  0
  3  1  1  0
  4  3  1  0
  4  5  1  0
  5 54  1  0
  6 14  1  0
  6  2  1  0
  7  1  2  0
  9 13  1  0
 11  9  2  0
 11 14  1  0
 12 10  1  0
 13 15  1  0
 13 10  2  0
 14 12  2  0
 15 16  2  0
 16 17  1  0
 18 15  1  0
 19 24  1  0
 20 21  1  0
 20 19  1  0
 22 21  1  0
 22 29  1  0
 22 23  1  0
 24 18  1  0
 24 23  1  0
 25 18  2  0
 26 27  2  0
 27 46  1  0
 28 27  1  0
 28 31  1  0
 29 30  1  0
 29 26  1  0
 30 28  2  0
 31 32  1  0
 32 33  2  0
 34 37  1  0
 34 33  1  0
 35 34  2  0
 36 35  1  0
 36 31  2  0
 37 38  1  0
 38 43  2  0
 38 39  1  0
 39 40  2  0
 41 40  1  0
 41 45  1  0
 42 41  2  0
 43 42  1  0
 44 43  1  0
 46 47  1  0
 47 50  1  0
 47 49  1  0
 48 46  2  0
 51 26  1  0
 51 52  1  0
 53 51  1  0
 55 57  1  0
 55 54  1  0
 56 67  2  0
 57 62  1  0
 58 66  1  0
 58 68  1  0
 59 65  1  0
 59 61  1  0
 60 66  1  0
 61 60  1  0
 62 61  2  0
 63 64  1  0
 63 57  2  0
 64 59  2  0
 65 58  1  0
 66 56  1  0
 68 70  2  0
 69 68  1  0
 71 69  1  0
 72 81  2  0
 72 77  1  0
 73 69  1  0
 73 77  1  0
 74 73  1  0
 75 76  1  0
 75 74  1  0
 76 72  1  0
 77 78  2  0
 78 79  1  0
 80 79  2  0
 81 80  1  0
 82 56  1  0
 82 87  1  0
 82 83  1  0
 83 86  1  1
 83 84  1  0
 85 83  1  0
 87 90  1  0
 88 92  1  0
 88 87  1  0
 89 88  2  0
 92 91  1  0
 94 92  1  0
 94 95  1  0
 94 93  1  0
M  ISO  4  15 100  18 100  54 101  55 101
M  END
>  <TORSDO>  (3) 
F 19

>  <SCORE>  (3) 
-12.833

>  <name>  (3) 
2

>  <ligand_id>  (3) 
2

>  <original_smiles>  (3) 
[H]N=C(C(=O)N1C([H])([H])C([H])([H])C([H])([H])C([H])(n2nc(-c3c([H])c([H])c(Oc4c([H])c([H])c(F)c([H])c4F)c([H])c3[H])c(C(=O)N([H])[H])c2N([H])[H])C1([H])[H])c1c([H])c([H])c(N2C(=O)C([H])([H])C([H])([H])C([H])(C([H])([H])Oc3c([H])c([H])c4c(c3[H])C([H])([H])N(C(=O)C([H])(N([H])C(=O)C([H])(N([H])C([H])([H])[H])C([H])([H])[H])C(C([H])([H])[H])(C([H])([H])[H])C([H])([H])[H])C([H])(C(=O)N([H])C3([H])c5c([H])c([H])c([H])c([H])c5C([H])([H])C([H])([H])C3([H])[H])C4([H])[H])C2=O)c([H])c1[H]

>  <smiles>  (3) 
[H]N=C(C(=O)N1C([H])([H])C([H])([H])C([H])([H])C([H])(n2nc(-c3c([H])c([H])c(Oc4c([H])c([H])c(F)c([H])c4F)c([H])c3[H])c(C(=O)N([H])[H])c2N([H])[H])C1([H])[H])c1c([H])c([H])c(N2C(=O)C([H])([H])C([H])([H])C([H])(C([H])([H])Oc3c([H])c([H])c4c(c3[H])C([H])([H])N(C(=O)C([H])(N([H])C(=O)C([H])(N([H])C([H])([H])[H])C([H])([H])[H])C(C([H])([H])[H])(C([H])([H])[H])C([H])([H])[H])C([H])(C(=O)N([H])C3([H])c5c([H])c([H])c([H])c([H])c5C([H])([H])C([H])([H])C3([H])[H])C4([H])[H])C2=O)c([H])c1[H]

$$$$
3:0:0
     RDKit          3D

 94103  0  0  1  0  0  0  0  0999 V2000
  -29.8870  -21.1270   19.7540 C   0  0  0  0  0  0  0  0  0  0  0  0
  -28.0730  -23.3750   22.0880 C   0  0  0  0  0  2  0  0  0  0  0  0
  -28.3230  -21.9410   21.5810 C   0  0  0  0  0  2  0  0  0  0  0  0
  -29.2000  -23.5070   19.9870 C   0  0  0  0  0  2  0  0  0  0  0  0
  -28.1900  -24.2810   20.8560 C   0  0  0  0  0  3  0  0  0  0  0  0
  -29.1440  -22.0830   20.3780 N   0  0  0  0  0  0  0  0  0  0  0  0
  -30.6250  -21.4150   18.8070 O   0  0  0  0  0  0  0  0  0  0  0  0
  -28.7010  -18.8980   20.2720 C   0  0  0  0  0  3  0  0  0  0  0  0
  -28.7700  -17.5080   20.5410 C   0  0  0  0  0  3  0  0  0  0  0  0
  -31.1140  -19.0380   20.4780 C   0  0  0  0  0  3  0  0  0  0  0  0
  -29.8810  -19.6810   20.2170 C   0  0  0  0  0  0  0  0  0  0  0  0
  -30.0130  -16.8610   20.7520 C   0  0  0  0  0  0  0  0  0  0  0  0
  -31.1840  -17.6580   20.7720 C   0  0  0  0  0  0  0  0  0  0  0  0
  -32.3850  -17.1220   21.0870 F   0  0  0  0  0  0  0  0  0  0  0  0
  -30.6900  -14.5170   20.2320 C   0  0  0  0  0  0  0  0  0  0  0  0
  -30.3750  -12.3930   19.0100 C   0  0  0  0  0  2  0  0  0  0  0  0
  -29.3800  -12.6150   17.8510 C   0  0  0  0  0  2  0  0  0  0  0  0
  -27.9210  -12.4770   18.3320 C   0  0  0  0  0  2  0  0  0  0  0  0
  -27.6380  -13.2740   19.6340 C   0  0  0  0  0  3  0  0  0  0  0  0
  -28.7310  -12.9940   20.6880 C   0  0  0  0  0  2  0  0  0  0  0  0
  -30.0370  -13.3300   20.0930 N   0  0  0  0  0  0  0  0  0  0  0  0
  -31.7630  -14.7430   19.6660 O   0  0  0  0  0  0  0  0  0  0  0  0
  -30.0260  -15.4430   20.9610 N   0  0  0  0  0  0  0  0  0  0  0  0
  -29.2040  -15.0650   21.4040 H   0  0  0  0  0  0  0  0  0  0  0  0
  -25.2630  -13.8720   20.4380 C   0  0  0  0  0  0  0  0  0  0  0  0
  -24.2100  -13.0940   20.8370 C   0  0  0  0  0  0  0  0  0  0  0  0
  -24.6700  -11.7440   20.7680 C   0  0  0  0  0  0  0  0  0  0  0  0
  -26.2990  -12.9950   20.1550 N   0  0  0  0  0  0  0  0  0  0  0  0
  -25.9470  -11.7090   20.4090 N   0  0  0  0  0  0  0  0  0  0  0  0
  -23.9530  -10.4790   20.9630 C   0  0  0  0  0  0  0  0  0  0  0  0
  -24.3890   -9.5180   21.9000 C   0  0  0  0  0  3  0  0  0  0  0  0
  -23.6730   -8.3160   22.0810 C   0  0  0  0  0  3  0  0  0  0  0  0
  -22.5040   -8.0660   21.3250 C   0  0  0  0  0  0  0  0  0  0  0  0
  -22.0870   -9.0150   20.3740 C   0  0  0  0  0  3  0  0  0  0  0  0
  -22.8050  -10.2080   20.1910 C   0  0  0  0  0  3  0  0  0  0  0  0
  -21.7550   -6.9190   21.4190 O   0  0  0  0  0  0  0  0  0  0  0  0
  -21.6740   -6.2030   22.5850 C   0  0  0  0  0  0  0  0  0  0  0  0
  -21.1620   -6.7710   23.7730 C   0  0  0  0  0  3  0  0  0  0  0  0
  -21.0320   -5.9800   24.9320 C   0  0  0  0  0  3  0  0  0  0  0  0
  -21.4030   -4.6220   24.9050 C   0  0  0  0  0  0  0  0  0  0  0  0
  -21.9100   -4.0550   23.7230 C   0  0  0  0  0  3  0  0  0  0  0  0
  -22.0420   -4.8420   22.5660 C   0  0  0  0  0  0  0  0  0  0  0  0
  -22.5090   -4.2840   21.4240 F   0  0  0  0  0  0  0  0  0  0  0  0
  -21.2710   -3.8610   26.0160 F   0  0  0  0  0  0  0  0  0  0  0  0
  -22.8250  -13.5670   21.1690 C   0  0  0  0  0  0  0  0  0  0  0  0
  -22.1240  -12.8500   22.0400 N   0  0  0  0  0  0  0  0  0  0  0  0
  -22.3730  -14.6080   20.6920 O   0  0  0  0  0  0  0  0  0  0  0  0
  -22.5020  -12.0090   22.4500 H   0  0  0  0  0  0  0  0  0  0  0  0
  -21.1940  -13.1460   22.3020 H   0  0  0  0  0  0  0  0  0  0  0  0
  -25.4190  -15.2450   20.2750 N   0  0  0  0  0  0  0  0  0  0  0  0
  -24.6470  -15.8870   20.4150 H   0  0  0  0  0  0  0  0  0  0  0  0
  -26.2300  -15.6830   19.8590 H   0  0  0  0  0  0  0  0  0  0  0  0
  -28.5580  -25.7610   21.1900 C   0  0  0  0  0  2  0  0  0  0  0  0
  -28.4310  -26.6990   20.1050 O   0  0  0  0  0  0  0  0  0  0  0  0
  -24.6010  -31.8920   23.1700 C   0  0  0  0  0  0  0  0  0  0  0  0
  -27.2790  -27.4540   20.1150 C   0  0  0  0  0  0  0  0  0  0  0  0
  -23.4100  -30.4870   21.5150 C   0  0  0  0  0  3  0  0  0  0  0  0
  -24.8810  -28.9530   20.1000 C   0  0  0  0  0  0  0  0  0  0  0  0
  -25.9350  -30.8550   21.3350 C   0  0  0  0  0  2  0  0  0  0  0  0
  -26.0320  -29.4820   20.7000 C   0  0  0  0  0  0  0  0  0  0  0  0
  -27.2360  -28.7390   20.7070 C   0  0  0  0  0  3  0  0  0  0  0  0
  -26.1180  -26.9420   19.5040 C   0  0  0  0  0  3  0  0  0  0  0  0
  -24.9190  -27.6820   19.4990 C   0  0  0  0  0  3  0  0  0  0  0  0
  -23.6330  -29.8070   20.1370 C   0  0  0  0  0  2  0  0  0  0  0  0
  -24.6650  -31.0940   22.0640 N   0  0  0  0  0  0  0  0  0  0  0  0
  -23.5150  -32.1570   23.7050 O   0  0  0  0  0  0  0  0  0  0  0  0
  -22.7580  -29.4630   22.4740 C   0  0  0  0  0  0  0  0  0  0  0  0
  -21.4320  -29.2880   22.3560 N   0  0  0  0  0  0  0  0  0  0  0  0
  -23.4440  -28.8260   23.2790 O   0  0  0  0  0  0  0  0  0  0  0  0
  -20.9400  -29.8540   21.6790 H   0  0  0  0  0  0  0  0  0  0  0  0
  -18.0510  -28.1380   22.8980 C   0  0  0  0  0  0  0  0  0  0  0  0
  -20.6170  -28.3470   23.1230 C   0  0  0  0  0  3  0  0  0  0  0  0
  -20.6830  -26.9280   22.5130 C   0  0  0  0  0  2  0  0  0  0  0  0
  -19.5550  -26.6470   21.5140 C   0  0  0  0  0  2  0  0  0  0  0  0
  -18.1900  -26.8010   22.1900 C   0  0  0  0  0  2  0  0  0  0  0  0
  -19.1910  -28.8710   23.3220 C   0  0  0  0  0  0  0  0  0  0  0  0
  -19.0070  -30.1250   23.9460 C   0  0  0  0  0  3  0  0  0  0  0  0
  -17.7160  -30.6450   24.1490 C   0  0  0  0  0  3  0  0  0  0  0  0
  -16.5900  -29.9090   23.7420 C   0  0  0  0  0  3  0  0  0  0  0  0
  -16.7580  -28.6570   23.1220 C   0  0  0  0  0  3  0  0  0  0  0  0
  -25.8800  -32.5300   23.7960 C   0  0  0  0  0  3  0  0  0  0  0  0
  -25.5590  -33.9210   24.1390 N   0  0  0  0  0  0  0  0  0  0  0  0
  -25.8900  -34.9830   23.3900 C   0  0  0  0  0  0  0  0  0  0  0  0
  -26.5680  -34.8950   22.3630 O   0  0  0  0  0  0  0  0  0  0  0  0
  -24.9620  -34.0650   24.9390 H   0  0  0  0  0  0  0  0  0  0  0  0
  -24.1630  -36.7730   23.0270 C   0  0  0  0  0  1  0  0  0  0  0  0
  -25.3890  -36.3630   23.8580 C   0  0  0  0  0  3  0  0  0  0  0  0
  -27.4980  -37.2480   24.7500 C   0  0  0  0  0  1  0  0  0  0  0  0
  -26.4190  -37.4210   23.7800 N   0  0  0  0  0  0  0  0  0  0  0  0
  -26.0050  -38.3380   23.9240 H   0  0  0  0  0  0  0  0  0  0  0  0
  -26.4050  -31.7510   25.0650 C   0  0  1  0  0  0  0  0  0  0  0  0
  -25.3170  -31.4880   26.1300 C   0  0  0  0  0  1  0  0  0  0  0  0
  -27.0070  -30.3860   24.6560 C   0  0  0  0  0  1  0  0  0  0  0  0
  -27.5440  -32.5530   25.7400 C   0  0  0  0  0  1  0  0  0  0  0  0
  1 11  1  0
  1  6  1  0
  3  2  1  0
  4  6  1  0
  4  5  1  0
  5 53  1  0
  5  2  1  0
  6  3  1  0
  7  1  2  0
  8  9  1  0
  9 12  2  0
 10 13  2  0
 11  8  2  0
 11 10  1  0
 12 13  1  0
 12 23  1  0
 13 14  1  0
 15 23  1  0
 16 21  1  0
 17 18  1  0
 17 16  1  0
 19 18  1  0
 19 28  1  0
 19 20  1  0
 21 15  1  0
 21 20  1  0
 22 15  2  0
 23 24  1  0
 25 26  2  0
 26 45  1  0
 27 26  1  0
 27 30  1  0
 28 29  1  0
 28 25  1  0
 29 27  2  0
 30 31  1  0
 31 32  2  0
 33 36  1  0
 33 32  1  0
 34 33  2  0
 35 34  1  0
 35 30  2  0
 36 37  1  0
 37 38  1  0
 38 39  2  0
 40 39  1  0
 40 44  1  0
 41 40  2  0
 42 37  2  0
 42 41  1  0
 43 42  1  0
 45 46  1  0
 46 49  1  0
 46 48  1  0
 47 45  2  0
 50 51  1  0
 50 25  1  0
 52 50  1  0
 54 56  1  0
 54 53  1  0
 55 66  2  0
 56 61  1  0
 57 65  1  0
 57 67  1  0
 58 64  1  0
 58 60  1  0
 59 65  1  0
 60 61  2  0
 60 59  1  0
 62 56  2  0
 63 62  1  0
 63 58  2  0
 64 57  1  0
 65 55  1  0
 67 69  2  0
 68 67  1  0
 70 68  1  0
 71 80  2  0
 71 76  1  0
 72 68  1  0
 72 76  1  0
 73 72  1  0
 74 75  1  0
 74 73  1  0
 75 71  1  0
 76 77  2  0
 77 78  1  0
 79 78  2  0
 80 79  1  0
 81 55  1  0
 81 82  1  0
 81 91  1  0
 82 85  1  0
 83 87  1  0
 83 82  1  0
 84 83  2  0
 87 86  1  0
 89 87  1  0
 89 90  1  0
 89 88  1  0
 91 94  1  1
 91 92  1  0
 93 91  1  0
M  ISO  4  15 100  23 100  53 101  54 101
M  END
>  <TORSDO>  (4) 
F 18

>  <SCORE>  (4) 
-14.940

>  <name>  (4) 
3

>  <ligand_id>  (4) 
3

>  <original_smiles>  (4) 
[H]c1c([H])c([H])c2c(c1[H])C([H])([H])C([H])([H])C([H])([H])C2([H])N([H])C(=O)C1([H])N(C(=O)C([H])(N([H])C(=O)C([H])(N([H])C([H])([H])[H])C([H])([H])[H])C(C([H])([H])[H])(C([H])([H])[H])C([H])([H])[H])C([H])([H])c2c([H])c(OC([H])([H])C3([H])C([H])([H])N(C(=O)c4c([H])c([H])c(N([H])C(=O)N5C([H])([H])C([H])([H])C([H])([H])C([H])(n6nc(-c7c([H])c([H])c(Oc8c([H])c([H])c(F)c([H])c8F)c([H])c7[H])c(C(=O)N([H])[H])c6N([H])[H])C5([H])[H])c(F)c4[H])C([H])([H])C3([H])[H])c([H])c([H])c2C1([H])[H]

>  <smiles>  (4) 
[H]c1c([H])c([H])c2c(c1[H])C([H])([H])C([H])([H])C([H])([H])C2([H])N([H])C(=O)C1([H])N(C(=O)C([H])(N([H])C(=O)C([H])(N([H])C([H])([H])[H])C([H])([H])[H])C(C([H])([H])[H])(C([H])([H])[H])C([H])([H])[H])C([H])([H])c2c([H])c(OC([H])([H])C3([H])C([H])([H])N(C(=O)c4c([H])c([H])c(N([H])C(=O)N5C([H])([H])C([H])([H])C([H])([H])C([H])(n6nc(-c7c([H])c([H])c(Oc8c([H])c([H])c(F)c([H])c8F)c([H])c7[H])c(C(=O)N([H])[H])c6N([H])[H])C5([H])[H])c(F)c4[H])C([H])([H])C3([H])[H])c([H])c([H])c2C1([H])[H]

$$$$
4:0:0
     RDKit          3D

 95104  0  0  1  0  0  0  0  0999 V2000
  -30.6900  -24.9790   19.9570 C   0  0  0  0  0  3  0  0  0  0  0  0
  -29.4810  -24.3910   19.9800 C   0  0  0  0  0  0  0  0  0  0  0  0
  -31.9810  -24.2140   20.1510 C   0  0  0  0  0  2  0  0  0  0  0  0
  -29.3280  -22.8740   20.1830 C   0  0  0  0  0  2  0  0  0  0  0  0
  -31.7500  -22.8350   20.7910 C   0  0  0  0  0  2  0  0  0  0  0  0
  -30.6030  -22.1390   20.1920 N   0  0  0  0  0  0  0  0  0  0  0  0
  -31.9320  -18.6430   20.2160 C   0  0  0  0  0  3  0  0  0  0  0  0
  -31.8320  -20.0320   20.0280 C   0  0  0  0  0  3  0  0  0  0  0  0
  -29.4810  -19.9350   20.5990 C   0  0  0  0  0  3  0  0  0  0  0  0
  -30.8190  -17.8750   20.6200 C   0  0  0  0  0  0  0  0  0  0  0  0
  -30.6200  -20.7190   20.2680 C   0  0  0  0  0  0  0  0  0  0  0  0
  -29.5750  -18.5280   20.7750 C   0  0  0  0  0  0  0  0  0  0  0  0
  -28.4750  -17.8290   21.1460 F   0  0  0  0  0  0  0  0  0  0  0  0
  -30.7250  -14.3930   19.8260 C   0  0  0  0  0  0  0  0  0  0  0  0
  -30.1540  -12.3180   18.6200 C   0  0  0  0  0  2  0  0  0  0  0  0
  -29.1170  -12.5730   17.5110 C   0  0  0  0  0  2  0  0  0  0  0  0
  -27.6940  -12.4440   18.0840 C   0  0  0  0  0  2  0  0  0  0  0  0
  -27.4940  -13.2670   19.3860 C   0  0  0  0  0  3  0  0  0  0  0  0
  -28.6510  -13.0430   20.3860 C   0  0  0  0  0  2  0  0  0  0  0  0
  -29.9120  -13.3090   19.6810 N   0  0  0  0  0  0  0  0  0  0  0  0
  -31.8040  -14.4580   19.2280 O   0  0  0  0  0  0  0  0  0  0  0  0
  -31.0710  -16.4290   20.9690 C   0  0  0  0  0  0  0  0  0  0  0  0
  -30.2510  -15.4640   20.5020 N   0  0  0  0  0  0  0  0  0  0  0  0
  -32.1160  -16.1630   21.5810 O   0  0  0  0  0  0  0  0  0  0  0  0
  -29.2590  -15.6290   20.4840 H   0  0  0  0  0  0  0  0  0  0  0  0
  -25.1970  -13.8910   20.3550 C   0  0  0  0  0  0  0  0  0  0  0  0
  -24.1500  -13.1280   20.7950 C   0  0  0  0  0  0  0  0  0  0  0  0
  -24.5720  -11.7680   20.6680 C   0  0  0  0  0  0  0  0  0  0  0  0
  -26.1920  -12.9980   19.9900 N   0  0  0  0  0  0  0  0  0  0  0  0
  -25.8260  -11.7140   20.2380 N   0  0  0  0  0  0  0  0  0  0  0  0
  -23.8350  -10.5160   20.8780 C   0  0  0  0  0  0  0  0  0  0  0  0
  -24.2980   -9.5270   21.7750 C   0  0  0  0  0  3  0  0  0  0  0  0
  -23.5600   -8.3400   21.9750 C   0  0  0  0  0  3  0  0  0  0  0  0
  -22.3460   -8.1330   21.2770 C   0  0  0  0  0  0  0  0  0  0  0  0
  -21.9020   -9.1100   20.3680 C   0  0  0  0  0  3  0  0  0  0  0  0
  -22.6400  -10.2880   20.1670 C   0  0  0  0  0  3  0  0  0  0  0  0
  -21.5770   -7.0000   21.3880 O   0  0  0  0  0  0  0  0  0  0  0  0
  -21.5480   -6.2590   22.5420 C   0  0  0  0  0  0  0  0  0  0  0  0
  -21.1670   -6.8220   23.7800 C   0  0  0  0  0  3  0  0  0  0  0  0
  -21.0850   -6.0090   24.9280 C   0  0  0  0  0  3  0  0  0  0  0  0
  -21.3720   -4.6330   24.8400 C   0  0  0  0  0  0  0  0  0  0  0  0
  -21.7470   -4.0700   23.6070 C   0  0  0  0  0  3  0  0  0  0  0  0
  -21.8320   -4.8810   22.4610 C   0  0  0  0  0  0  0  0  0  0  0  0
  -22.1720   -4.3290   21.2720 F   0  0  0  0  0  0  0  0  0  0  0  0
  -21.2850   -3.8510   25.9400 F   0  0  0  0  0  0  0  0  0  0  0  0
  -22.7980  -13.6240   21.2150 C   0  0  0  0  0  0  0  0  0  0  0  0
  -22.1380  -12.9150   22.1250 N   0  0  0  0  0  0  0  0  0  0  0  0
  -22.3390  -14.6780   20.7750 O   0  0  0  0  0  0  0  0  0  0  0  0
  -22.5230  -12.0650   22.5050 H   0  0  0  0  0  0  0  0  0  0  0  0
  -21.2330  -13.2320   22.4450 H   0  0  0  0  0  0  0  0  0  0  0  0
  -25.3770  -15.2640   20.2130 N   0  0  0  0  0  0  0  0  0  0  0  0
  -24.6400  -15.9280   20.4220 H   0  0  0  0  0  0  0  0  0  0  0  0
  -26.2030  -15.7020   19.8240 H   0  0  0  0  0  0  0  0  0  0  0  0
  -28.1970  -25.1780   19.7510 C   0  0  0  0  0  2  0  0  0  0  0  0
  -28.3200  -26.5950   19.9920 O   0  0  0  0  0  0  0  0  0  0  0  0
  -24.4430  -31.7120   23.1030 C   0  0  0  0  0  0  0  0  0  0  0  0
  -27.1440  -27.3240   19.9760 C   0  0  0  0  0  0  0  0  0  0  0  0
  -23.2620  -30.3210   21.4370 C   0  0  0  0  0  3  0  0  0  0  0  0
  -24.7370  -28.8210   20.0010 C   0  0  0  0  0  0  0  0  0  0  0  0
  -25.7890  -30.7030   21.2610 C   0  0  0  0  0  2  0  0  0  0  0  0
  -25.8910  -29.3430   20.6000 C   0  0  0  0  0  0  0  0  0  0  0  0
  -27.0970  -28.6040   20.5830 C   0  0  0  0  0  3  0  0  0  0  0  0
  -25.9650  -26.8240   19.3740 C   0  0  0  0  0  3  0  0  0  0  0  0
  -24.7690  -27.5610   19.3870 C   0  0  0  0  0  3  0  0  0  0  0  0
  -23.4860  -29.6680   20.0500 C   0  0  0  0  0  2  0  0  0  0  0  0
  -24.5150  -30.9260   21.9910 N   0  0  0  0  0  0  0  0  0  0  0  0
  -23.3550  -31.9670   23.6380 O   0  0  0  0  0  0  0  0  0  0  0  0
  -22.6170  -29.2770   22.3770 C   0  0  0  0  0  0  0  0  0  0  0  0
  -21.2930  -29.0890   22.2480 N   0  0  0  0  0  0  0  0  0  0  0  0
  -23.3050  -28.6400   23.1800 O   0  0  0  0  0  0  0  0  0  0  0  0
  -20.7990  -29.6570   21.5730 H   0  0  0  0  0  0  0  0  0  0  0  0
  -17.9230  -27.8780   22.7310 C   0  0  0  0  0  0  0  0  0  0  0  0
  -20.4810  -28.1340   23.0020 C   0  0  0  0  0  3  0  0  0  0  0  0
  -20.5850  -26.7150   22.3970 C   0  0  0  0  0  2  0  0  0  0  0  0
  -19.4800  -26.4120   21.3800 C   0  0  0  0  0  2  0  0  0  0  0  0
  -18.1000  -26.5420   22.0300 C   0  0  0  0  0  2  0  0  0  0  0  0
  -19.0420  -28.6320   23.1730 C   0  0  0  0  0  0  0  0  0  0  0  0
  -18.8240  -29.8850   23.7890 C   0  0  0  0  0  3  0  0  0  0  0  0
  -17.5190  -30.3820   23.9660 C   0  0  0  0  0  3  0  0  0  0  0  0
  -16.4140  -29.6240   23.5400 C   0  0  0  0  0  3  0  0  0  0  0  0
  -16.6180  -28.3750   22.9280 C   0  0  0  0  0  3  0  0  0  0  0  0
  -25.7180  -32.3490   23.7380 C   0  0  0  0  0  3  0  0  0  0  0  0
  -25.3920  -33.7380   24.0840 N   0  0  0  0  0  0  0  0  0  0  0  0
  -25.6980  -34.8020   23.3290 C   0  0  0  0  0  0  0  0  0  0  0  0
  -26.3580  -34.7180   22.2890 O   0  0  0  0  0  0  0  0  0  0  0  0
  -24.8060  -33.8770   24.8940 H   0  0  0  0  0  0  0  0  0  0  0  0
  -23.9300  -36.5630   23.0180 C   0  0  0  0  0  1  0  0  0  0  0  0
  -25.1940  -36.1780   23.8040 C   0  0  0  0  0  3  0  0  0  0  0  0
  -27.3230  -37.0980   24.6050 C   0  0  0  0  0  1  0  0  0  0  0  0
  -26.2040  -37.2500   23.6800 N   0  0  0  0  0  0  0  0  0  0  0  0
  -25.7820  -38.1620   23.8390 H   0  0  0  0  0  0  0  0  0  0  0  0
  -26.2410  -31.5640   25.0030 C   0  0  1  0  0  0  0  0  0  0  0  0
  -25.1460  -31.3010   26.0630 C   0  0  0  0  0  1  0  0  0  0  0  0
  -26.8400  -30.1990   24.5920 C   0  0  0  0  0  1  0  0  0  0  0  0
  -27.3770  -32.3630   25.6830 C   0  0  0  0  0  1  0  0  0  0  0  0
  1  2  2  0
  1  3  1  0
  2  4  1  0
  3  5  1  0
  4  6  1  0
  6 11  1  0
  6  5  1  0
  7 10  1  0
  8  7  2  0
  8 11  1  0
  9 12  1  0
 10 12  2  0
 10 22  1  0
 11  9  2  0
 12 13  1  0
 14 23  1  0
 15 20  1  0
 16 17  1  0
 16 15  1  0
 18 17  1  0
 18 29  1  0
 18 19  1  0
 20 14  1  0
 20 19  1  0
 21 14  2  0
 22 24  2  0
 23 22  1  0
 25 23  1  0
 26 27  2  0
 27 46  1  0
 28 27  1  0
 28 31  1  0
 29 30  1  0
 29 26  1  0
 30 28  2  0
 31 32  1  0
 32 33  2  0
 34 37  1  0
 34 33  1  0
 35 34  2  0
 36 35  1  0
 36 31  2  0
 37 38  1  0
 38 39  1  0
 39 40  2  0
 41 40  1  0
 41 45  1  0
 42 41  2  0
 43 38  2  0
 43 42  1  0
 44 43  1  0
 46 47  1  0
 47 50  1  0
 47 49  1  0
 48 46  2  0
 51 26  1  0
 51 52  1  0
 53 51  1  0
 54  2  1  0
 54 55  1  0
 56 67  2  0
 57 55  1  0
 57 62  1  0
 58 66  1  0
 58 68  1  0
 59 65  1  0
 59 61  1  0
 60 66  1  0
 61 60  1  0
 62 61  2  0
 63 64  1  0
 63 57  2  0
 64 59  2  0
 65 58  1  0
 66 56  1  0
 68 70  2  0
 69 68  1  0
 71 69  1  0
 72 81  2  0
 72 77  1  0
 73 69  1  0
 73 77  1  0
 74 73  1  0
 75 76  1  0
 75 74  1  0
 76 72  1  0
 77 78  2  0
 78 79  1  0
 80 79  2  0
 81 80  1  0
 82 56  1  0
 82 83  1  0
 82 92  1  0
 83 86  1  0
 84 88  1  0
 84 83  1  0
 85 84  2  0
 88 87  1  0
 90 88  1  0
 90 91  1  0
 90 89  1  0
 92 95  1  1
 92 93  1  0
 94 92  1  0
M  ISO  4  14 100  23 100  54 101  55 101
M  END
>  <TORSDO>  (5) 
F 18

>  <SCORE>  (5) 
-13.766

>  <name>  (5) 
4

>  <ligand_id>  (5) 
4

>  <original_smiles>  (5) 
[H]C1=C(C([H])([H])Oc2c([H])c([H])c3c(c2[H])C([H])([H])N(C(=O)C([H])(N([H])C(=O)C([H])(N([H])C([H])([H])[H])C([H])([H])[H])C(C([H])([H])[H])(C([H])([H])[H])C([H])([H])[H])C([H])(C(=O)N([H])C2([H])c4c([H])c([H])c([H])c([H])c4C([H])([H])C([H])([H])C2([H])[H])C3([H])[H])C([H])([H])N(c2c([H])c([H])c(C(=O)N([H])C(=O)N3C([H])([H])C([H])([H])C([H])([H])C([H])(n4nc(-c5c([H])c([H])c(Oc6c([H])c([H])c(F)c([H])c6F)c([H])c5[H])c(C(=O)N([H])[H])c4N([H])[H])C3([H])[H])c(F)c2[H])C([H])([H])C1([H])[H]

>  <smiles>  (5) 
[H]C1=C(C([H])([H])Oc2c([H])c([H])c3c(c2[H])C([H])([H])N(C(=O)C([H])(N([H])C(=O)C([H])(N([H])C([H])([H])[H])C([H])([H])[H])C(C([H])([H])[H])(C([H])([H])[H])C([H])([H])[H])C([H])(C(=O)N([H])C2([H])c4c([H])c([H])c([H])c([H])c4C([H])([H])C([H])([H])C2([H])[H])C3([H])[H])C([H])([H])N(c2c([H])c([H])c(C(=O)N([H])C(=O)N3C([H])([H])C([H])([H])C([H])([H])C([H])(n4nc(-c5c([H])c([H])c(Oc6c([H])c([H])c(F)c([H])c6F)c([H])c5[H])c(C(=O)N([H])[H])c4N([H])[H])C3([H])[H])c(F)c2[H])C([H])([H])C1([H])[H]

$$$$
5:0:0
     RDKit          3D

 93101  0  0  1  0  0  0  0  0999 V2000
  -29.1000  -23.1370   20.3060 C   0  0  0  0  0  0  0  0  0  0  0  0
  -28.6360  -21.8950   20.0700 N   0  0  0  0  0  0  0  0  0  0  0  0
  -30.2900  -23.3610   20.5460 O   0  0  0  0  0  0  0  0  0  0  0  0
  -27.6450  -21.7970   19.8920 H   0  0  0  0  0  0  0  0  0  0  0  0
  -30.3880  -18.6760   19.2050 C   0  0  0  0  0  3  0  0  0  0  0  0
  -29.6940  -19.9020   19.0620 C   0  0  0  0  0  3  0  0  0  0  0  0
  -30.4290  -18.9820   21.6160 C   0  0  0  0  0  3  0  0  0  0  0  0
  -30.7720  -18.2090   20.4830 C   0  0  0  0  0  0  0  0  0  0  0  0
  -29.3780  -20.6830   20.1990 C   0  0  0  0  0  0  0  0  0  0  0  0
  -29.7370  -20.2060   21.4780 C   0  0  0  0  0  0  0  0  0  0  0  0
  -29.4310  -20.9270   22.5860 F   0  0  0  0  0  0  0  0  0  0  0  0
  -31.6400  -16.9560   20.6420 C   0  0  0  0  0  2  0  0  0  0  0  0
  -31.5580  -14.5860   19.8100 C   0  0  0  0  0  0  0  0  0  0  0  0
  -31.1600  -12.2940   18.9690 C   0  0  0  0  0  2  0  0  0  0  0  0
  -30.1780  -12.3200   17.7790 C   0  0  0  0  0  2  0  0  0  0  0  0
  -28.7180  -12.2770   18.2720 C   0  0  0  0  0  2  0  0  0  0  0  0
  -28.4410  -13.3130   19.3950 C   0  0  0  0  0  3  0  0  0  0  0  0
  -29.5260  -13.2440   20.4920 C   0  0  0  0  0  2  0  0  0  0  0  0
  -30.8360  -13.4310   19.8450 N   0  0  0  0  0  0  0  0  0  0  0  0
  -32.6470  -14.6710   19.2350 O   0  0  0  0  0  0  0  0  0  0  0  0
  -30.9890  -15.6600   20.3930 N   0  0  0  0  0  0  0  0  0  0  0  0
  -30.0810  -15.5200   20.8090 H   0  0  0  0  0  0  0  0  0  0  0  0
  -26.1650  -14.1240   20.2790 C   0  0  0  0  0  0  0  0  0  0  0  0
  -25.0500  -13.4440   20.6930 C   0  0  0  0  0  0  0  0  0  0  0  0
  -25.3730  -12.0570   20.5930 C   0  0  0  0  0  0  0  0  0  0  0  0
  -27.1000  -13.1540   19.9520 N   0  0  0  0  0  0  0  0  0  0  0  0
  -26.6310  -11.9030   20.1990 N   0  0  0  0  0  0  0  0  0  0  0  0
  -24.5410  -10.8640   20.7950 C   0  0  0  0  0  0  0  0  0  0  0  0
  -24.8760   -9.8830   21.7550 C   0  0  0  0  0  3  0  0  0  0  0  0
  -24.0490   -8.7550   21.9420 C   0  0  0  0  0  3  0  0  0  0  0  0
  -22.8750   -8.5990   21.1690 C   0  0  0  0  0  0  0  0  0  0  0  0
  -22.5570   -9.5670   20.2010 C   0  0  0  0  0  3  0  0  0  0  0  0
  -23.3840  -10.6870   20.0110 C   0  0  0  0  0  3  0  0  0  0  0  0
  -22.0280   -7.5210   21.2630 O   0  0  0  0  0  0  0  0  0  0  0  0
  -21.8150   -6.8750   22.4550 C   0  0  0  0  0  0  0  0  0  0  0  0
  -21.3120   -7.5480   23.5890 C   0  0  0  0  0  3  0  0  0  0  0  0
  -21.0390   -6.8320   24.7710 C   0  0  0  0  0  3  0  0  0  0  0  0
  -21.2640   -5.4430   24.8210 C   0  0  0  0  0  0  0  0  0  0  0  0
  -21.7620   -4.7700   23.6900 C   0  0  0  0  0  3  0  0  0  0  0  0
  -22.0330   -5.4830   22.5110 C   0  0  0  0  0  0  0  0  0  0  0  0
  -22.4920   -4.8270   21.4180 F   0  0  0  0  0  0  0  0  0  0  0  0
  -20.9970   -4.7530   25.9540 F   0  0  0  0  0  0  0  0  0  0  0  0
  -23.7260  -14.0450   21.0690 C   0  0  0  0  0  0  0  0  0  0  0  0
  -22.9940  -13.3990   21.9690 N   0  0  0  0  0  0  0  0  0  0  0  0
  -23.3540  -15.1200   20.5990 O   0  0  0  0  0  0  0  0  0  0  0  0
  -23.3100  -12.5300   22.3730 H   0  0  0  0  0  0  0  0  0  0  0  0
  -22.1060  -13.7810   22.2620 H   0  0  0  0  0  0  0  0  0  0  0  0
  -26.4520  -15.4770   20.1320 N   0  0  0  0  0  0  0  0  0  0  0  0
  -25.7620  -16.1990   20.3140 H   0  0  0  0  0  0  0  0  0  0  0  0
  -27.3240  -15.8450   19.7710 H   0  0  0  0  0  0  0  0  0  0  0  0
  -28.0820  -24.3030   20.2760 C   0  0  0  0  0  2  0  0  0  0  0  0
  -28.4850  -25.5300   19.4030 C   0  0  0  0  0  2  0  0  0  0  0  0
  -28.3680  -26.8150   20.0500 O   0  0  0  0  0  0  0  0  0  0  0  0
  -24.5540  -31.9140   23.2290 C   0  0  0  0  0  0  0  0  0  0  0  0
  -27.1730  -27.5120   20.0460 C   0  0  0  0  0  0  0  0  0  0  0  0
  -23.3320  -30.5280   21.5840 C   0  0  0  0  0  3  0  0  0  0  0  0
  -24.7700  -29.0160   20.1170 C   0  0  0  0  0  0  0  0  0  0  0  0
  -25.8540  -30.8980   21.3580 C   0  0  0  0  0  2  0  0  0  0  0  0
  -25.9340  -29.5350   20.6960 C   0  0  0  0  0  0  0  0  0  0  0  0
  -27.1340  -28.7890   20.6580 C   0  0  0  0  0  3  0  0  0  0  0  0
  -25.9860  -27.0110   19.4640 C   0  0  0  0  0  3  0  0  0  0  0  0
  -24.7920  -27.7550   19.4990 C   0  0  0  0  0  3  0  0  0  0  0  0
  -23.5240  -29.8680   20.1930 C   0  0  0  0  0  2  0  0  0  0  0  0
  -24.5990  -31.1290   22.1150 N   0  0  0  0  0  0  0  0  0  0  0  0
  -23.4790  -32.1720   23.7870 O   0  0  0  0  0  0  0  0  0  0  0  0
  -22.6990  -29.4900   22.5410 C   0  0  0  0  0  0  0  0  0  0  0  0
  -21.3860  -29.2570   22.3880 N   0  0  0  0  0  0  0  0  0  0  0  0
  -23.3890  -28.8980   23.3750 O   0  0  0  0  0  0  0  0  0  0  0  0
  -20.8900  -29.7900   21.6870 H   0  0  0  0  0  0  0  0  0  0  0  0
  -18.0640  -27.8870   22.7730 C   0  0  0  0  0  0  0  0  0  0  0  0
  -20.5890  -28.2950   23.1480 C   0  0  0  0  0  3  0  0  0  0  0  0
  -20.7950  -26.8570   22.6170 C   0  0  0  0  0  2  0  0  0  0  0  0
  -19.7590  -26.4480   21.5650 C   0  0  0  0  0  2  0  0  0  0  0  0
  -18.3440  -26.5330   22.1450 C   0  0  0  0  0  2  0  0  0  0  0  0
  -19.1190  -28.7210   23.2310 C   0  0  0  0  0  0  0  0  0  0  0  0
  -18.8060  -29.9840   23.7760 C   0  0  0  0  0  3  0  0  0  0  0  0
  -17.4690  -30.4170   23.8700 C   0  0  0  0  0  3  0  0  0  0  0  0
  -16.4280  -29.5810   23.4290 C   0  0  0  0  0  3  0  0  0  0  0  0
  -16.7260  -28.3180   22.8880 C   0  0  0  0  0  3  0  0  0  0  0  0
  -25.8460  -32.5420   23.8390 C   0  0  0  0  0  3  0  0  0  0  0  0
  -26.3740  -31.7690   25.1100 C   0  0  1  0  0  0  0  0  0  0  0  0
  -25.2870  -31.5160   26.1790 C   0  0  0  0  0  1  0  0  0  0  0  0
  -26.9710  -30.3990   24.7080 C   0  0  0  0  0  1  0  0  0  0  0  0
  -27.5170  -32.5720   25.7750 C   0  0  0  0  0  1  0  0  0  0  0  0
  -25.5410  -33.9400   24.1710 N   0  0  0  0  0  0  0  0  0  0  0  0
  -25.8800  -34.9920   23.4150 C   0  0  0  0  0  0  0  0  0  0  0  0
  -26.5540  -34.8890   22.3860 O   0  0  0  0  0  0  0  0  0  0  0  0
  -24.9450  -34.0960   24.9710 H   0  0  0  0  0  0  0  0  0  0  0  0
  -24.1650  -36.7950   23.0490 C   0  0  0  0  0  1  0  0  0  0  0  0
  -25.3950  -36.3820   23.8730 C   0  0  0  0  0  3  0  0  0  0  0  0
  -27.5240  -37.2540   24.7280 C   0  0  0  0  0  1  0  0  0  0  0  0
  -26.4340  -37.4290   23.7740 N   0  0  0  0  0  0  0  0  0  0  0  0
  -26.0300  -38.3510   23.9190 H   0  0  0  0  0  0  0  0  0  0  0  0
  1  3  2  0
  2  9  1  0
  2  1  1  0
  4  2  1  0
  5  8  1  0
  6  5  2  0
  6  9  1  0
  8 12  1  0
  8  7  2  0
  9 10  2  0
 10  7  1  0
 10 11  1  0
 13 19  1  0
 13 21  1  0
 14 19  1  0
 15 16  1  0
 15 14  1  0
 17 16  1  0
 17 26  1  0
 17 18  1  0
 19 18  1  0
 20 13  2  0
 21 12  1  0
 21 22  1  0
 23 24  2  0
 24 43  1  0
 25 24  1  0
 25 28  1  0
 26 27  1  0
 26 23  1  0
 27 25  2  0
 28 29  1  0
 29 30  2  0
 31 34  1  0
 31 30  1  0
 32 31  2  0
 33 32  1  0
 33 28  2  0
 34 35  1  0
 35 40  2  0
 35 36  1  0
 36 37  2  0
 37 38  1  0
 38 42  1  0
 39 38  2  0
 40 39  1  0
 41 40  1  0
 43 44  1  0
 44 47  1  0
 44 46  1  0
 45 43  2  0
 48 23  1  0
 48 49  1  0
 50 48  1  0
 51  1  1  0
 52 53  1  0
 52 51  1  0
 54 65  2  0
 55 53  1  0
 55 60  1  0
 56 64  1  0
 56 66  1  0
 57 63  1  0
 57 59  1  0
 58 64  1  0
 59 58  1  0
 60 59  2  0
 61 62  1  0
 61 55  2  0
 62 57  2  0
 63 56  1  0
 64 54  1  0
 66 68  2  0
 67 66  1  0
 69 67  1  0
 70 79  2  0
 70 75  1  0
 71 67  1  0
 71 75  1  0
 72 71  1  0
 73 74  1  0
 73 72  1  0
 74 70  1  0
 75 76  2  0
 76 77  1  0
 78 77  2  0
 79 78  1  0
 80 54  1  0
 80 85  1  0
 80 81  1  0
 81 84  1  1
 81 82  1  0
 83 81  1  0
 85 88  1  0
 86 90  1  0
 86 85  1  0
 87 86  2  0
 90 89  1  0
 92 90  1  0
 92 93  1  0
 92 91  1  0
M  ISO  4  13 100  21 100  52 101  53 101
M  END
>  <TORSDO>  (6) 
F 20

>  <SCORE>  (6) 
-12.783

>  <name>  (6) 
5

>  <ligand_id>  (6) 
5

>  <original_smiles>  (6) 
[H]c1c([H])c([H])c2c(c1[H])C([H])([H])C([H])([H])C([H])([H])C2([H])N([H])C(=O)C1([H])N(C(=O)C([H])(N([H])C(=O)C([H])(N([H])C([H])([H])[H])C([H])([H])[H])C(C([H])([H])[H])(C([H])([H])[H])C([H])([H])[H])C([H])([H])c2c([H])c(OC([H])([H])C([H])([H])C(=O)N([H])c3c([H])c([H])c(C([H])([H])N([H])C(=O)N4C([H])([H])C([H])([H])C([H])([H])C([H])(n5nc(-c6c([H])c([H])c(Oc7c([H])c([H])c(F)c([H])c7F)c([H])c6[H])c(C(=O)N([H])[H])c5N([H])[H])C4([H])[H])c([H])c3F)c([H])c([H])c2C1([H])[H]

>  <smiles>  (6) 
[H]c1c([H])c([H])c2c(c1[H])C([H])([H])C([H])([H])C([H])([H])C2([H])N([H])C(=O)C1([H])N(C(=O)C([H])(N([H])C(=O)C([H])(N([H])C([H])([H])[H])C([H])([H])[H])C(C([H])([H])[H])(C([H])([H])[H])C([H])([H])[H])C([H])([H])c2c([H])c(OC([H])([H])C([H])([H])C(=O)N([H])c3c([H])c([H])c(C([H])([H])N([H])C(=O)N4C([H])([H])C([H])([H])C([H])([H])C([H])(n5nc(-c6c([H])c([H])c(Oc7c([H])c([H])c(F)c([H])c7F)c([H])c6[H])c(C(=O)N([H])[H])c5N([H])[H])C4([H])[H])c([H])c3F)c([H])c([H])c2C1([H])[H]

$$$$
6:0:0
     RDKit          3D

 96104  0  0  1  0  0  0  0  0999 V2000
  -30.4040  -19.0710   21.3290 C   0  0  0  0  0  3  0  0  0  0  0  0
  -29.7910  -20.2880   21.6860 C   0  0  0  0  0  3  0  0  0  0  0  0
  -29.1950  -19.0930   19.2130 C   0  0  0  0  0  3  0  0  0  0  0  0
  -30.1070  -18.4630   20.0920 C   0  0  0  0  0  0  0  0  0  0  0  0
  -28.8780  -20.9180   20.8090 C   0  0  0  0  0  0  0  0  0  0  0  0
  -28.5750  -20.3120   19.5670 C   0  0  0  0  0  0  0  0  0  0  0  0
  -28.7170  -23.3600   20.9790 C   0  0  0  0  0  0  0  0  0  0  0  0
  -26.9500  -21.9880   21.9140 C   0  0  0  0  0  1  0  0  0  0  0  0
  -28.2320  -22.1180   21.2190 N   0  0  0  0  0  0  0  0  0  0  0  0
  -28.1890  -24.3630   21.4780 O   0  0  0  0  0  0  0  0  0  0  0  0
  -29.9530  -23.5460   20.0770 C   0  0  0  0  0  2  0  0  0  0  0  0
  -30.2640  -25.0190   19.7050 C   0  0  0  0  0  2  0  0  0  0  0  0
  -29.0810  -25.7270   19.0140 C   0  0  0  0  0  2  0  0  0  0  0  0
  -29.0290  -27.1220   19.3230 O   0  0  0  0  0  0  0  0  0  0  0  0
  -24.5870  -31.2630   22.9910 C   0  0  0  0  0  0  0  0  0  0  0  0
  -27.7730  -27.6940   19.3640 C   0  0  0  0  0  0  0  0  0  0  0  0
  -23.5670  -30.0110   21.1140 C   0  0  0  0  0  3  0  0  0  0  0  0
  -25.2120  -28.8830   19.5270 C   0  0  0  0  0  0  0  0  0  0  0  0
  -26.0320  -30.6840   21.0510 C   0  0  0  0  0  2  0  0  0  0  0  0
  -26.2900  -29.4440   20.2210 C   0  0  0  0  0  0  0  0  0  0  0  0
  -27.5700  -28.8560   20.1400 C   0  0  0  0  0  3  0  0  0  0  0  0
  -26.6720  -27.1520   18.6570 C   0  0  0  0  0  3  0  0  0  0  0  0
  -25.3940  -27.7300   18.7450 C   0  0  0  0  0  3  0  0  0  0  0  0
  -23.8740  -29.5740   19.6560 C   0  0  0  0  0  2  0  0  0  0  0  0
  -24.7450  -30.6580   21.7810 N   0  0  0  0  0  0  0  0  0  0  0  0
  -23.4740  -31.3320   23.5320 O   0  0  0  0  0  0  0  0  0  0  0  0
  -23.0190  -28.7920   21.8880 C   0  0  0  0  0  0  0  0  0  0  0  0
  -21.7260  -28.4930   21.6900 N   0  0  0  0  0  0  0  0  0  0  0  0
  -23.7550  -28.1240   22.6190 O   0  0  0  0  0  0  0  0  0  0  0  0
  -21.1880  -29.0910   21.0770 H   0  0  0  0  0  0  0  0  0  0  0  0
  -18.5190  -26.8410   21.8040 C   0  0  0  0  0  0  0  0  0  0  0  0
  -21.0030  -27.3680   22.2810 C   0  0  0  0  0  3  0  0  0  0  0  0
  -21.3230  -26.0540   21.5310 C   0  0  0  0  0  2  0  0  0  0  0  0
  -20.3250  -25.7390   20.4140 C   0  0  0  0  0  2  0  0  0  0  0  0
  -18.9050  -25.6270   20.9780 C   0  0  0  0  0  2  0  0  0  0  0  0
  -19.5050  -27.6680   22.4040 C   0  0  0  0  0  0  0  0  0  0  0  0
  -19.0970  -28.8070   23.1320 C   0  0  0  0  0  3  0  0  0  0  0  0
  -17.7320  -29.1180   23.2730 C   0  0  0  0  0  3  0  0  0  0  0  0
  -16.7570  -28.2860   22.6950 C   0  0  0  0  0  3  0  0  0  0  0  0
  -17.1500  -27.1510   21.9630 C   0  0  0  0  0  3  0  0  0  0  0  0
  -25.7880  -31.9220   23.7400 C   0  0  0  0  0  3  0  0  0  0  0  0
  -25.3630  -33.2610   24.1670 N   0  0  0  0  0  0  0  0  0  0  0  0
  -25.6910  -34.3980   23.5390 C   0  0  0  0  0  0  0  0  0  0  0  0
  -26.4510  -34.4310   22.5680 O   0  0  0  0  0  0  0  0  0  0  0  0
  -24.6880  -33.3040   24.9160 H   0  0  0  0  0  0  0  0  0  0  0  0
  -23.9050  -36.1300   23.1780 C   0  0  0  0  0  1  0  0  0  0  0  0
  -25.0780  -35.7060   24.0750 C   0  0  0  0  0  3  0  0  0  0  0  0
  -27.0570  -36.6050   25.2140 C   0  0  0  0  0  1  0  0  0  0  0  0
  -26.0520  -36.8140   24.1760 N   0  0  0  0  0  0  0  0  0  0  0  0
  -25.5780  -37.6930   24.3660 H   0  0  0  0  0  0  0  0  0  0  0  0
  -26.2900  -31.0740   24.9700 C   0  0  1  0  0  0  0  0  0  0  0  0
  -25.1590  -30.6750   25.9460 C   0  0  0  0  0  1  0  0  0  0  0  0
  -26.9840  -29.7790   24.4880 C   0  0  0  0  0  1  0  0  0  0  0  0
  -27.3490  -31.8740   25.7650 C   0  0  0  0  0  1  0  0  0  0  0  0
  -27.6740  -20.9060   18.6820 N   0  0  0  0  0  0  0  0  0  0  0  0
  -27.2820  -20.3560   17.9250 H   0  0  0  0  0  0  0  0  0  0  0  0
  -27.0310  -21.6090   19.0330 H   0  0  0  0  0  0  0  0  0  0  0  0
  -30.8280  -17.1820   19.6890 C   0  0  0  0  0  2  0  0  0  0  0  0
  -31.2280  -14.8790   20.4660 C   0  0  0  0  0  0  0  0  0  0  0  0
  -30.9660  -12.5870   19.6510 C   0  0  0  0  0  2  0  0  0  0  0  0
  -30.1290  -12.6720   18.3590 C   0  0  0  0  0  2  0  0  0  0  0  0
  -28.6260  -12.6010   18.6930 C   0  0  0  0  0  2  0  0  0  0  0  0
  -28.2060  -13.5990   19.8030 C   0  0  0  0  0  3  0  0  0  0  0  0
  -29.1750  -13.5270   21.0110 C   0  0  0  0  0  2  0  0  0  0  0  0
  -30.5440  -13.7080   20.5050 N   0  0  0  0  0  0  0  0  0  0  0  0
  -32.4200  -14.9510   20.1630 O   0  0  0  0  0  0  0  0  0  0  0  0
  -30.4580  -15.9820   20.4490 N   0  0  0  0  0  0  0  0  0  0  0  0
  -29.4810  -15.8520   20.6620 H   0  0  0  0  0  0  0  0  0  0  0  0
  -25.7970  -14.3320   20.3380 C   0  0  0  0  0  0  0  0  0  0  0  0
  -24.6740  -13.6180   20.6640 C   0  0  0  0  0  0  0  0  0  0  0  0
  -25.0750  -12.2470   20.6980 C   0  0  0  0  0  0  0  0  0  0  0  0
  -26.8150  -13.4000   20.2020 N   0  0  0  0  0  0  0  0  0  0  0  0
  -26.3790  -12.1430   20.4720 N   0  0  0  0  0  0  0  0  0  0  0  0
  -24.2820  -11.0240   20.8740 C   0  0  0  0  0  0  0  0  0  0  0  0
  -24.6540  -10.0310   21.8080 C   0  0  0  0  0  3  0  0  0  0  0  0
  -23.8610   -8.8720   21.9660 C   0  0  0  0  0  3  0  0  0  0  0  0
  -22.6860   -8.7030   21.1960 C   0  0  0  0  0  0  0  0  0  0  0  0
  -22.3370   -9.6860   20.2570 C   0  0  0  0  0  3  0  0  0  0  0  0
  -23.1260  -10.8370   20.0930 C   0  0  0  0  0  3  0  0  0  0  0  0
  -21.8660   -7.6020   21.2730 O   0  0  0  0  0  0  0  0  0  0  0  0
  -21.7990   -6.8310   22.4070 C   0  0  0  0  0  0  0  0  0  0  0  0
  -21.4310   -7.3740   23.6570 C   0  0  0  0  0  3  0  0  0  0  0  0
  -21.3070   -6.5330   24.7800 C   0  0  0  0  0  3  0  0  0  0  0  0
  -21.5400   -5.1500   24.6570 C   0  0  0  0  0  0  0  0  0  0  0  0
  -21.9010   -4.6070   23.4110 C   0  0  0  0  0  3  0  0  0  0  0  0
  -22.0270   -5.4450   22.2900 C   0  0  0  0  0  0  0  0  0  0  0  0
  -22.3570   -4.9120   21.0880 F   0  0  0  0  0  0  0  0  0  0  0  0
  -21.4110   -4.3420   25.7370 F   0  0  0  0  0  0  0  0  0  0  0  0
  -23.2880  -14.1670   20.8370 C   0  0  0  0  0  0  0  0  0  0  0  0
  -22.4880  -13.5590   21.7050 N   0  0  0  0  0  0  0  0  0  0  0  0
  -22.9190  -15.1740   20.2350 O   0  0  0  0  0  0  0  0  0  0  0  0
  -22.7900  -12.7480   22.2240 H   0  0  0  0  0  0  0  0  0  0  0  0
  -21.5620  -13.9270   21.8650 H   0  0  0  0  0  0  0  0  0  0  0  0
  -26.0240  -15.6860   20.1240 N   0  0  0  0  0  0  0  0  0  0  0  0
  -26.8850  -16.0890   19.7770 H   0  0  0  0  0  0  0  0  0  0  0  0
  -25.2480  -16.3400   20.1160 H   0  0  0  0  0  0  0  0  0  0  0  0
  1  2  1  0
  3  6  2  0
  3  4  1  0
  4  1  2  0
  5  9  1  0
  5  2  2  0
  6  5  1  0
  7  9  1  0
  7 10  2  0
  9  8  1  0
 11  7  1  0
 12 11  1  0
 13 14  1  0
 13 12  1  0
 14 16  1  0
 15 26  2  0
 16 21  1  0
 17 25  1  0
 17 27  1  0
 18 24  1  0
 18 20  1  0
 19 25  1  0
 20 19  1  0
 21 20  2  0
 22 23  1  0
 22 16  2  0
 23 18  2  0
 24 17  1  0
 25 15  1  0
 27 29  2  0
 28 27  1  0
 30 28  1  0
 31 40  2  0
 31 36  1  0
 32 28  1  0
 32 36  1  0
 33 32  1  0
 34 35  1  0
 34 33  1  0
 35 31  1  0
 36 37  2  0
 37 38  1  0
 39 38  2  0
 40 39  1  0
 41 15  1  0
 41 42  1  0
 41 51  1  0
 42 45  1  0
 43 47  1  0
 43 42  1  0
 44 43  2  0
 47 46  1  0
 47 49  1  0
 49 50  1  0
 49 48  1  0
 51 54  1  1
 51 52  1  0
 53 51  1  0
 55 57  1  0
 55  6  1  0
 56 55  1  0
 58  4  1  0
 58 67  1  0
 59 65  1  0
 60 65  1  0
 61 62  1  0
 61 60  1  0
 63 62  1  0
 63 72  1  0
 63 64  1  0
 65 64  1  0
 66 59  2  0
 67 59  1  0
 67 68  1  0
 69 70  2  0
 70 71  1  0
 70 89  1  0
 71 74  1  0
 72 69  1  0
 72 73  1  0
 73 71  2  0
 74 75  1  0
 75 76  2  0
 77 80  1  0
 77 76  1  0
 78 77  2  0
 79 78  1  0
 79 74  2  0
 80 81  1  0
 81 82  1  0
 82 83  2  0
 84 83  1  0
 84 88  1  0
 85 84  2  0
 86 81  2  0
 86 85  1  0
 87 86  1  0
 89 90  1  0
 90 93  1  0
 90 92  1  0
 91 89  2  0
 94 69  1  0
 95 94  1  0
 96 94  1  0
M  ISO  4  13 101  14 101  59 100  67 100
M  END
>  <TORSDO>  (7) 
F 22

>  <SCORE>  (7) 
-9.619

>  <name>  (7) 
6

>  <ligand_id>  (7) 
6

>  <original_smiles>  (7) 
[H]c1c([H])c([H])c2c(c1[H])C([H])([H])C([H])([H])C([H])([H])C2([H])N([H])C(=O)C1([H])N(C(=O)C([H])(N([H])C(=O)C([H])(N([H])C([H])([H])[H])C([H])([H])[H])C(C([H])([H])[H])(C([H])([H])[H])C([H])([H])[H])C([H])([H])c2c([H])c(OC([H])([H])C([H])([H])C([H])([H])C(=O)N(c3c([H])c([H])c(C([H])([H])N([H])C(=O)N4C([H])([H])C([H])([H])C([H])([H])C([H])(n5nc(-c6c([H])c([H])c(Oc7c([H])c([H])c(F)c([H])c7F)c([H])c6[H])c(C(=O)N([H])[H])c5N([H])[H])C4([H])[H])c([H])c3N([H])[H])C([H])([H])[H])c([H])c([H])c2C1([H])[H]

>  <smiles>  (7) 
[H]c1c([H])c([H])c2c(c1[H])C([H])([H])C([H])([H])C([H])([H])C2([H])N([H])C(=O)C1([H])N(C(=O)C([H])(N([H])C(=O)C([H])(N([H])C([H])([H])[H])C([H])([H])[H])C(C([H])([H])[H])(C([H])([H])[H])C([H])([H])[H])C([H])([H])c2c([H])c(OC([H])([H])C([H])([H])C([H])([H])C(=O)N(c3c([H])c([H])c(C([H])([H])N([H])C(=O)N4C([H])([H])C([H])([H])C([H])([H])C([H])(n5nc(-c6c([H])c([H])c(Oc7c([H])c([H])c(F)c([H])c7F)c([H])c6[H])c(C(=O)N([H])[H])c5N([H])[H])C4([H])[H])c([H])c3N([H])[H])C([H])([H])[H])c([H])c([H])c2C1([H])[H]

$$$$
7:0:0
     RDKit          3D

 95104  0  0  1  0  0  0  0  0999 V2000
  -28.7100  -21.5780   18.0350 C   0  0  0  0  0  0  0  0  0  0  0  0
  -28.7270  -22.9830   17.4050 C   0  0  0  0  0  2  0  0  0  0  0  0
  -29.1430  -24.1240   18.3440 C   0  0  0  0  0  2  0  0  0  0  0  0
  -28.8970  -22.5610   20.2820 C   0  0  0  0  0  2  0  0  0  0  0  0
  -28.4220  -23.9590   19.6740 C   0  0  0  0  0  3  0  0  0  0  0  0
  -29.0870  -21.3920   19.3330 N   0  0  0  0  0  0  0  0  0  0  0  0
  -28.3140  -20.6600   17.3090 O   0  0  0  0  0  0  0  0  0  0  0  0
  -30.5130  -17.7750   19.2280 C   0  0  0  0  0  3  0  0  0  0  0  0
  -30.1170  -19.0950   18.8550 C   0  0  0  0  0  3  0  0  0  0  0  0
  -29.9450  -18.2890   21.4880 C   0  0  0  0  0  3  0  0  0  0  0  0
  -30.4300  -17.3100   20.5650 C   0  0  0  0  0  0  0  0  0  0  0  0
  -29.5700  -20.0530   19.7730 C   0  0  0  0  0  0  0  0  0  0  0  0
  -29.5290  -19.6020   21.1190 C   0  0  0  0  0  0  0  0  0  0  0  0
  -29.0630  -20.4120   22.1000 F   0  0  0  0  0  0  0  0  0  0  0  0
  -30.8160  -15.8930   21.0540 C   0  0  0  0  0  0  0  0  0  0  0  0
  -30.7540  -15.6420   22.2980 N   0  0  0  0  0  0  0  0  0  0  0  0
  -30.4310  -16.4480   22.8180 H   0  0  0  0  0  0  0  0  0  0  0  0
  -31.3370  -14.7750   20.0700 C   0  0  0  0  0  0  0  0  0  0  0  0
  -30.9410  -12.6300   18.8630 C   0  0  0  0  0  2  0  0  0  0  0  0
  -29.9590  -12.8590   17.6910 C   0  0  0  0  0  2  0  0  0  0  0  0
  -28.5000  -12.7330   18.1690 C   0  0  0  0  0  2  0  0  0  0  0  0
  -28.2320  -13.5520   19.4580 C   0  0  0  0  0  3  0  0  0  0  0  0
  -29.3130  -13.2710   20.5200 C   0  0  0  0  0  2  0  0  0  0  0  0
  -30.6240  -13.6020   19.9330 N   0  0  0  0  0  0  0  0  0  0  0  0
  -32.3980  -14.9460   19.4580 O   0  0  0  0  0  0  0  0  0  0  0  0
  -25.8970  -14.2330   20.2890 C   0  0  0  0  0  0  0  0  0  0  0  0
  -24.8140  -13.4940   20.6830 C   0  0  0  0  0  0  0  0  0  0  0  0
  -25.2150  -12.1250   20.5930 C   0  0  0  0  0  0  0  0  0  0  0  0
  -26.8910  -13.3160   19.9840 N   0  0  0  0  0  0  0  0  0  0  0  0
  -26.4880  -12.0410   20.2250 N   0  0  0  0  0  0  0  0  0  0  0  0
  -24.4450  -10.8900   20.7790 C   0  0  0  0  0  0  0  0  0  0  0  0
  -24.8440   -9.9010   21.7060 C   0  0  0  0  0  3  0  0  0  0  0  0
  -24.0750   -8.7300   21.8780 C   0  0  0  0  0  3  0  0  0  0  0  0
  -22.8940   -8.5390   21.1230 C   0  0  0  0  0  0  0  0  0  0  0  0
  -22.5150   -9.5140   20.1840 C   0  0  0  0  0  3  0  0  0  0  0  0
  -23.2840  -10.6780   20.0100 C   0  0  0  0  0  3  0  0  0  0  0  0
  -22.0980   -7.4210   21.2050 O   0  0  0  0  0  0  0  0  0  0  0  0
  -21.9660   -6.7170   22.3760 C   0  0  0  0  0  0  0  0  0  0  0  0
  -21.5180   -7.3280   23.5670 C   0  0  0  0  0  3  0  0  0  0  0  0
  -21.3310   -6.5520   24.7280 C   0  0  0  0  0  3  0  0  0  0  0  0
  -21.5810   -5.1660   24.6980 C   0  0  0  0  0  0  0  0  0  0  0  0
  -22.0210   -4.5560   23.5100 C   0  0  0  0  0  3  0  0  0  0  0  0
  -22.2100   -5.3290   22.3520 C   0  0  0  0  0  0  0  0  0  0  0  0
  -22.6150   -4.7320   21.2040 F   0  0  0  0  0  0  0  0  0  0  0  0
  -21.3920   -4.4190   25.8100 F   0  0  0  0  0  0  0  0  0  0  0  0
  -23.4530  -14.0210   21.0320 C   0  0  0  0  0  0  0  0  0  0  0  0
  -22.7410  -13.3370   21.9230 N   0  0  0  0  0  0  0  0  0  0  0  0
  -23.0310  -15.0710   20.5500 O   0  0  0  0  0  0  0  0  0  0  0  0
  -23.0950  -12.4850   22.3330 H   0  0  0  0  0  0  0  0  0  0  0  0
  -21.8290  -13.6710   22.1990 H   0  0  0  0  0  0  0  0  0  0  0  0
  -26.1150  -15.5990   20.1450 N   0  0  0  0  0  0  0  0  0  0  0  0
  -25.3860  -16.2850   20.3100 H   0  0  0  0  0  0  0  0  0  0  0  0
  -26.9730  -16.0100   19.7980 H   0  0  0  0  0  0  0  0  0  0  0  0
  -28.5320  -25.2420   20.5990 C   0  0  0  0  0  2  0  0  0  0  0  0
  -28.5820  -26.5780   19.9850 O   0  0  0  0  0  0  0  0  0  0  0  0
  -24.7050  -31.7940   23.0740 C   0  0  0  0  0  0  0  0  0  0  0  0
  -27.4290  -27.3540   19.9930 C   0  0  0  0  0  0  0  0  0  0  0  0
  -23.5390  -30.3910   21.4070 C   0  0  0  0  0  3  0  0  0  0  0  0
  -25.0320  -28.8860   19.9760 C   0  0  0  0  0  0  0  0  0  0  0  0
  -26.0680  -30.7740   21.2410 C   0  0  0  0  0  2  0  0  0  0  0  0
  -26.1810  -29.4040   20.5870 C   0  0  0  0  0  0  0  0  0  0  0  0
  -27.3860  -28.6480   20.5860 C   0  0  0  0  0  3  0  0  0  0  0  0
  -26.2620  -26.8700   19.3670 C   0  0  0  0  0  3  0  0  0  0  0  0
  -25.0720  -27.6250   19.3550 C   0  0  0  0  0  3  0  0  0  0  0  0
  -23.7780  -29.7370   20.0200 C   0  0  0  0  0  2  0  0  0  0  0  0
  -24.7890  -31.0030   21.9650 N   0  0  0  0  0  0  0  0  0  0  0  0
  -23.6140  -32.0400   23.6060 O   0  0  0  0  0  0  0  0  0  0  0  0
  -22.8950  -29.3500   22.3500 C   0  0  0  0  0  0  0  0  0  0  0  0
  -21.5680  -29.1700   22.2330 N   0  0  0  0  0  0  0  0  0  0  0  0
  -23.5840  -28.7080   23.1460 O   0  0  0  0  0  0  0  0  0  0  0  0
  -21.0720  -29.7420   21.5640 H   0  0  0  0  0  0  0  0  0  0  0  0
  -18.1960  -27.9700   22.7510 C   0  0  0  0  0  0  0  0  0  0  0  0
  -20.7590  -28.2140   22.9900 C   0  0  0  0  0  3  0  0  0  0  0  0
  -20.8470  -26.7990   22.3720 C   0  0  0  0  0  2  0  0  0  0  0  0
  -19.7300  -26.5090   21.3650 C   0  0  0  0  0  2  0  0  0  0  0  0
  -18.3580  -26.6400   22.0350 C   0  0  0  0  0  2  0  0  0  0  0  0
  -19.3240  -28.7160   23.1850 C   0  0  0  0  0  0  0  0  0  0  0  0
  -19.1190  -29.9630   23.8160 C   0  0  0  0  0  3  0  0  0  0  0  0
  -17.8180  -30.4630   24.0170 C   0  0  0  0  0  3  0  0  0  0  0  0
  -16.7050  -29.7150   23.5980 C   0  0  0  0  0  3  0  0  0  0  0  0
  -16.8940  -28.4700   22.9710 C   0  0  0  0  0  3  0  0  0  0  0  0
  -25.9730  -32.4420   23.7110 C   0  0  0  0  0  3  0  0  0  0  0  0
  -26.5170  -31.6460   24.9630 C   0  0  1  0  0  0  0  0  0  0  0  0
  -25.4360  -31.3440   26.0270 C   0  0  0  0  0  1  0  0  0  0  0  0
  -27.1360  -30.2980   24.5250 C   0  0  0  0  0  1  0  0  0  0  0  0
  -27.6520  -32.4520   25.6420 C   0  0  0  0  0  1  0  0  0  0  0  0
  -25.6260  -33.8200   24.0820 N   0  0  0  0  0  0  0  0  0  0  0  0
  -25.9340  -34.9040   23.3570 C   0  0  0  0  0  0  0  0  0  0  0  0
  -26.6090  -34.8500   22.3250 O   0  0  0  0  0  0  0  0  0  0  0  0
  -25.0260  -33.9340   24.8860 H   0  0  0  0  0  0  0  0  0  0  0  0
  -24.1630  -36.6660   23.0480 C   0  0  0  0  0  1  0  0  0  0  0  0
  -25.4090  -36.2650   23.8530 C   0  0  0  0  0  3  0  0  0  0  0  0
  -27.5180  -37.1790   24.7230 C   0  0  0  0  0  1  0  0  0  0  0  0
  -26.4160  -37.3480   23.7790 N   0  0  0  0  0  0  0  0  0  0  0  0
  -25.9870  -38.2520   23.9520 H   0  0  0  0  0  0  0  0  0  0  0  0
  1  6  1  0
  2  1  1  0
  2  3  1  0
  3  5  1  0
  5  4  1  0
  5 54  1  0
  6 12  1  0
  6  4  1  0
  7  1  2  0
  8 11  1  0
  9  8  2  0
  9 12  1  0
 11 15  1  0
 11 10  2  0
 12 13  2  0
 13 10  1  0
 13 14  1  0
 15 16  2  0
 16 17  1  0
 18 15  1  0
 19 24  1  0
 20 21  1  0
 20 19  1  0
 22 21  1  0
 22 29  1  0
 22 23  1  0
 24 18  1  0
 24 23  1  0
 25 18  2  0
 26 27  2  0
 27 46  1  0
 28 27  1  0
 28 31  1  0
 29 30  1  0
 29 26  1  0
 30 28  2  0
 31 32  1  0
 32 33  2  0
 34 37  1  0
 34 33  1  0
 35 34  2  0
 36 35  1  0
 36 31  2  0
 37 38  1  0
 38 39  1  0
 39 40  2  0
 41 40  1  0
 41 45  1  0
 42 41  2  0
 43 38  2  0
 43 42  1  0
 44 43  1  0
 46 47  1  0
 47 50  1  0
 47 49  1  0
 48 46  2  0
 51 26  1  0
 51 52  1  0
 53 51  1  0
 55 57  1  0
 55 54  1  0
 56 67  2  0
 57 62  1  0
 58 66  1  0
 58 68  1  0
 59 65  1  0
 59 61  1  0
 60 66  1  0
 61 60  1  0
 62 61  2  0
 63 57  2  0
 64 63  1  0
 64 59  2  0
 65 58  1  0
 66 56  1  0
 68 70  2  0
 69 68  1  0
 71 69  1  0
 72 81  2  0
 72 77  1  0
 73 69  1  0
 73 77  1  0
 74 73  1  0
 75 76  1  0
 75 74  1  0
 76 72  1  0
 77 78  2  0
 78 79  1  0
 80 79  2  0
 81 80  1  0
 82 56  1  0
 82 87  1  0
 82 83  1  0
 83 86  1  1
 83 84  1  0
 85 83  1  0
 87 90  1  0
 88 92  1  0
 88 87  1  0
 89 88  2  0
 92 91  1  0
 94 92  1  0
 94 95  1  0
 94 93  1  0
M  ISO  4  15 100  18 100  54 101  55 101
M  END
>  <TORSDO>  (8) 
F 19

>  <SCORE>  (8) 
-13.042

>  <name>  (8) 
7

>  <ligand_id>  (8) 
7

>  <original_smiles>  (8) 
[H]N=C(C(=O)N1C([H])([H])C([H])([H])C([H])([H])C([H])(n2nc(-c3c([H])c([H])c(Oc4c([H])c([H])c(F)c([H])c4F)c([H])c3[H])c(C(=O)N([H])[H])c2N([H])[H])C1([H])[H])c1c([H])c([H])c(N2C(=O)C([H])([H])C([H])([H])C([H])(C([H])([H])Oc3c([H])c([H])c4c(c3[H])C([H])([H])N(C(=O)C([H])(N([H])C(=O)C([H])(N([H])C([H])([H])[H])C([H])([H])[H])C(C([H])([H])[H])(C([H])([H])[H])C([H])([H])[H])C([H])(C(=O)N([H])C3([H])c5c([H])c([H])c([H])c([H])c5C([H])([H])C([H])([H])C3([H])[H])C4([H])[H])C2([H])[H])c(F)c1[H]

>  <smiles>  (8) 
[H]N=C(C(=O)N1C([H])([H])C([H])([H])C([H])([H])C([H])(n2nc(-c3c([H])c([H])c(Oc4c([H])c([H])c(F)c([H])c4F)c([H])c3[H])c(C(=O)N([H])[H])c2N([H])[H])C1([H])[H])c1c([H])c([H])c(N2C(=O)C([H])([H])C([H])([H])C([H])(C([H])([H])Oc3c([H])c([H])c4c(c3[H])C([H])([H])N(C(=O)C([H])(N([H])C(=O)C([H])(N([H])C([H])([H])[H])C([H])([H])[H])C(C([H])([H])[H])(C([H])([H])[H])C([H])([H])[H])C([H])(C(=O)N([H])C3([H])c5c([H])c([H])c([H])c([H])c5C([H])([H])C([H])([H])C3([H])[H])C4([H])[H])C2([H])[H])c(F)c1[H]

$$$$
8:0:0
     RDKit          3D

 94103  0  0  1  0  0  0  0  0999 V2000
  -30.4650  -22.6430   22.6300 C   0  0  0  0  0  0  0  0  0  0  0  0
  -30.2830  -24.1390   22.9140 C   0  0  0  0  0  2  0  0  0  0  0  0
  -29.2020  -24.8040   22.0640 C   0  0  0  0  0  2  0  0  0  0  0  0
  -29.3650  -22.9170   20.4120 C   0  0  0  0  0  2  0  0  0  0  0  0
  -29.4090  -24.4700   20.5860 C   0  0  0  0  0  3  0  0  0  0  0  0
  -30.1450  -22.1340   21.4050 N   0  0  0  0  0  0  0  0  0  0  0  0
  -30.9290  -21.9570   23.5480 O   0  0  0  0  0  0  0  0  0  0  0  0
  -29.6530  -18.3980   21.0360 C   0  0  0  0  0  3  0  0  0  0  0  0
  -32.0280  -18.8920   21.1470 C   0  0  0  0  0  3  0  0  0  0  0  0
  -29.3670  -19.7880   21.0320 C   0  0  0  0  0  3  0  0  0  0  0  0
  -31.7460  -20.2730   21.1460 C   0  0  0  0  0  3  0  0  0  0  0  0
  -30.9880  -17.9370   21.1470 C   0  0  0  0  0  0  0  0  0  0  0  0
  -30.4110  -20.7400   21.1530 C   0  0  0  0  0  0  0  0  0  0  0  0
  -31.3370  -16.4710   21.4500 C   0  0  0  0  0  2  0  0  0  0  0  0
  -30.9650  -14.4520   20.0430 C   0  0  0  0  0  0  0  0  0  0  0  0
  -30.4930  -12.3110   18.8980 C   0  0  0  0  0  2  0  0  0  0  0  0
  -29.4840  -12.5130   17.7510 C   0  0  0  0  0  2  0  0  0  0  0  0
  -28.0400  -12.4180   18.2760 C   0  0  0  0  0  2  0  0  0  0  0  0
  -27.8040  -13.2930   19.5370 C   0  0  0  0  0  3  0  0  0  0  0  0
  -28.9170  -13.0680   20.5840 C   0  0  0  0  0  2  0  0  0  0  0  0
  -30.2120  -13.3230   19.9300 N   0  0  0  0  0  0  0  0  0  0  0  0
  -32.0180  -14.6090   19.4190 O   0  0  0  0  0  0  0  0  0  0  0  0
  -30.5050  -15.4030   20.8780 N   0  0  0  0  0  0  0  0  0  0  0  0
  -29.6170  -15.2270   21.3200 H   0  0  0  0  0  0  0  0  0  0  0  0
  -25.4930  -13.9890   20.4270 C   0  0  0  0  0  0  0  0  0  0  0  0
  -24.4160  -13.2570   20.8480 C   0  0  0  0  0  0  0  0  0  0  0  0
  -24.8050  -11.8860   20.7460 C   0  0  0  0  0  0  0  0  0  0  0  0
  -26.4750  -13.0660   20.1010 N   0  0  0  0  0  0  0  0  0  0  0  0
  -26.0680  -11.7950   20.3490 N   0  0  0  0  0  0  0  0  0  0  0  0
  -24.0330  -10.6540   20.9500 C   0  0  0  0  0  0  0  0  0  0  0  0
  -24.4540   -9.6590   21.8590 C   0  0  0  0  0  3  0  0  0  0  0  0
  -23.6840   -8.4920   22.0500 C   0  0  0  0  0  3  0  0  0  0  0  0
  -22.4780   -8.3110   21.3310 C   0  0  0  0  0  0  0  0  0  0  0  0
  -22.0760   -9.2940   20.4100 C   0  0  0  0  0  3  0  0  0  0  0  0
  -22.8450  -10.4530   20.2170 C   0  0  0  0  0  3  0  0  0  0  0  0
  -21.6790   -7.1990   21.4340 O   0  0  0  0  0  0  0  0  0  0  0  0
  -21.5980   -6.4740   22.5970 C   0  0  0  0  0  0  0  0  0  0  0  0
  -21.1830   -7.0610   23.8120 C   0  0  0  0  0  3  0  0  0  0  0  0
  -21.0480   -6.2650   24.9680 C   0  0  0  0  0  3  0  0  0  0  0  0
  -21.3160   -4.8850   24.9080 C   0  0  0  0  0  0  0  0  0  0  0  0
  -21.7240   -4.2980   23.6970 C   0  0  0  0  0  3  0  0  0  0  0  0
  -21.8610   -5.0900   22.5440 C   0  0  0  0  0  0  0  0  0  0  0  0
  -22.2340   -4.5170   21.3740 F   0  0  0  0  0  0  0  0  0  0  0  0
  -21.1790   -4.1180   26.0150 F   0  0  0  0  0  0  0  0  0  0  0  0
  -23.0650  -13.7900   21.2310 C   0  0  0  0  0  0  0  0  0  0  0  0
  -22.3700  -13.1080   22.1360 N   0  0  0  0  0  0  0  0  0  0  0  0
  -22.6390  -14.8450   20.7650 O   0  0  0  0  0  0  0  0  0  0  0  0
  -22.7300  -12.2520   22.5330 H   0  0  0  0  0  0  0  0  0  0  0  0
  -21.4680  -13.4460   22.4370 H   0  0  0  0  0  0  0  0  0  0  0  0
  -25.7150  -15.3550   20.2770 N   0  0  0  0  0  0  0  0  0  0  0  0
  -24.9950  -16.0470   20.4560 H   0  0  0  0  0  0  0  0  0  0  0  0
  -26.5670  -15.7570   19.9060 H   0  0  0  0  0  0  0  0  0  0  0  0
  -28.3730  -25.2220   19.7120 C   0  0  0  0  0  2  0  0  0  0  0  0
  -28.4660  -26.6570   19.8550 O   0  0  0  0  0  0  0  0  0  0  0  0
  -24.5190  -31.6630   23.0440 C   0  0  0  0  0  0  0  0  0  0  0  0
  -27.2810  -27.3710   19.8400 C   0  0  0  0  0  0  0  0  0  0  0  0
  -23.3540  -30.2760   21.3640 C   0  0  0  0  0  3  0  0  0  0  0  0
  -24.8480  -28.8240   19.8930 C   0  0  0  0  0  0  0  0  0  0  0  0
  -25.8700  -30.7060   21.1780 C   0  0  0  0  0  2  0  0  0  0  0  0
  -25.9930  -29.3570   20.4970 C   0  0  0  0  0  0  0  0  0  0  0  0
  -27.2120  -28.6390   20.4640 C   0  0  0  0  0  3  0  0  0  0  0  0
  -26.1150  -26.8630   19.2170 C   0  0  0  0  0  3  0  0  0  0  0  0
  -24.9040  -27.5780   19.2500 C   0  0  0  0  0  3  0  0  0  0  0  0
  -23.5810  -29.6460   19.9640 C   0  0  0  0  0  2  0  0  0  0  0  0
  -24.5990  -30.8960   21.9210 N   0  0  0  0  0  0  0  0  0  0  0  0
  -23.4310  -31.8890   23.5910 O   0  0  0  0  0  0  0  0  0  0  0  0
  -22.7330  -29.2080   22.2940 C   0  0  0  0  0  0  0  0  0  0  0  0
  -21.4110  -29.0010   22.1720 N   0  0  0  0  0  0  0  0  0  0  0  0
  -23.4370  -28.5680   23.0800 O   0  0  0  0  0  0  0  0  0  0  0  0
  -20.9040  -29.5720   21.5100 H   0  0  0  0  0  0  0  0  0  0  0  0
  -18.0620  -27.7460   22.6800 C   0  0  0  0  0  0  0  0  0  0  0  0
  -20.6210  -28.0230   22.9160 C   0  0  0  0  0  3  0  0  0  0  0  0
  -20.7290  -26.6180   22.2780 C   0  0  0  0  0  2  0  0  0  0  0  0
  -19.6120  -26.3260   21.2720 C   0  0  0  0  0  2  0  0  0  0  0  0
  -18.2410  -26.4270   21.9470 C   0  0  0  0  0  2  0  0  0  0  0  0
  -19.1800  -28.5030   23.1210 C   0  0  0  0  0  0  0  0  0  0  0  0
  -18.9600  -29.7380   23.7670 C   0  0  0  0  0  3  0  0  0  0  0  0
  -17.6530  -30.2170   23.9770 C   0  0  0  0  0  3  0  0  0  0  0  0
  -16.5480  -29.4570   23.5530 C   0  0  0  0  0  3  0  0  0  0  0  0
  -16.7540  -28.2240   22.9090 C   0  0  0  0  0  3  0  0  0  0  0  0
  -25.7860  -32.3140   23.6800 C   0  0  0  0  0  3  0  0  0  0  0  0
  -26.3320  -31.5180   24.9290 C   0  0  1  0  0  0  0  0  0  0  0  0
  -25.2510  -31.2090   25.9900 C   0  0  0  0  0  1  0  0  0  0  0  0
  -26.9610  -30.1770   24.4860 C   0  0  0  0  0  1  0  0  0  0  0  0
  -27.4560  -32.3290   25.6170 C   0  0  0  0  0  1  0  0  0  0  0  0
  -25.4360  -33.6910   24.0540 N   0  0  0  0  0  0  0  0  0  0  0  0
  -25.7460  -34.7770   23.3330 C   0  0  0  0  0  0  0  0  0  0  0  0
  -26.4270  -34.7260   22.3060 O   0  0  0  0  0  0  0  0  0  0  0  0
  -24.8290  -33.8020   24.8530 H   0  0  0  0  0  0  0  0  0  0  0  0
  -23.9710  -36.5300   23.0190 C   0  0  0  0  0  1  0  0  0  0  0  0
  -25.2150  -36.1340   23.8320 C   0  0  0  0  0  3  0  0  0  0  0  0
  -27.3110  -37.0500   24.7230 C   0  0  0  0  0  1  0  0  0  0  0  0
  -26.2180  -37.2190   23.7680 N   0  0  0  0  0  0  0  0  0  0  0  0
  -25.7840  -38.1220   23.9380 H   0  0  0  0  0  0  0  0  0  0  0  0
  1  2  1  0
  1  7  2  0
  3  2  1  0
  4  5  1  0
  4  6  1  0
  5 53  1  0
  5  3  1  0
  6  1  1  0
  8 12  1  0
 10  8  2  0
 10 13  1  0
 11  9  1  0
 11 13  2  0
 12  9  2  0
 12 14  1  0
 13  6  1  0
 15 23  1  0
 16 21  1  0
 17 18  1  0
 17 16  1  0
 19 18  1  0
 19 28  1  0
 19 20  1  0
 21 15  1  0
 21 20  1  0
 22 15  2  0
 23 24  1  0
 23 14  1  0
 25 26  2  0
 26 45  1  0
 27 26  1  0
 27 30  1  0
 28 29  1  0
 28 25  1  0
 29 27  2  0
 30 31  1  0
 31 32  2  0
 33 36  1  0
 33 32  1  0
 34 33  2  0
 35 34  1  0
 35 30  2  0
 36 37  1  0
 37 38  1  0
 38 39  2  0
 40 39  1  0
 40 44  1  0
 41 40  2  0
 42 37  2  0
 42 41  1  0
 43 42  1  0
 45 46  1  0
 46 49  1  0
 46 48  1  0
 47 45  2  0
 50 25  1  0
 50 51  1  0
 52 50  1  0
 53 54  1  0
 55 66  2  0
 56 54  1  0
 56 61  1  0
 57 65  1  0
 57 67  1  0
 58 64  1  0
 58 60  1  0
 59 65  1  0
 60 59  1  0
 61 60  2  0
 62 63  1  0
 62 56  2  0
 63 58  2  0
 64 57  1  0
 65 55  1  0
 67 69  2  0
 68 67  1  0
 70 68  1  0
 71 80  2  0
 71 76  1  0
 72 68  1  0
 72 76  1  0
 73 72  1  0
 74 75  1  0
 74 73  1  0
 75 71  1  0
 76 77  2  0
 77 78  1  0
 79 78  2  0
 80 79  1  0
 81 55  1  0
 81 86  1  0
 81 82  1  0
 82 85  1  1
 82 83  1  0
 84 82  1  0
 86 89  1  0
 87 91  1  0
 87 86  1  0
 88 87  2  0
 91 90  1  0
 93 91  1  0
 93 94  1  0
 93 92  1  0
M  ISO  4  15 100  23 100  53 101  54 101
M  END
>  <TORSDO>  (9) 
F 19

>  <SCORE>  (9) 
-13.595

>  <name>  (9) 
8

>  <ligand_id>  (9) 
8

>  <original_smiles>  (9) 
[H]c1c([H])c([H])c2c(c1[H])C([H])([H])C([H])([H])C([H])([H])C2([H])N([H])C(=O)C1([H])N(C(=O)C([H])(N([H])C(=O)C([H])(N([H])C([H])([H])[H])C([H])([H])[H])C(C([H])([H])[H])(C([H])([H])[H])C([H])([H])[H])C([H])([H])c2c([H])c(OC([H])([H])C3([H])C([H])([H])N(c4c([H])c([H])c(C([H])([H])N([H])C(=O)N5C([H])([H])C([H])([H])C([H])([H])C([H])(n6nc(-c7c([H])c([H])c(Oc8c([H])c([H])c(F)c([H])c8F)c([H])c7[H])c(C(=O)N([H])[H])c6N([H])[H])C5([H])[H])c([H])c4[H])C(=O)C([H])([H])C3([H])[H])c([H])c([H])c2C1([H])[H]

>  <smiles>  (9) 
[H]c1c([H])c([H])c2c(c1[H])C([H])([H])C([H])([H])C([H])([H])C2([H])N([H])C(=O)C1([H])N(C(=O)C([H])(N([H])C(=O)C([H])(N([H])C([H])([H])[H])C([H])([H])[H])C(C([H])([H])[H])(C([H])([H])[H])C([H])([H])[H])C([H])([H])c2c([H])c(OC([H])([H])C3([H])C([H])([H])N(c4c([H])c([H])c(C([H])([H])N([H])C(=O)N5C([H])([H])C([H])([H])C([H])([H])C([H])(n6nc(-c7c([H])c([H])c(Oc8c([H])c([H])c(F)c([H])c8F)c([H])c7[H])c(C(=O)N([H])[H])c6N([H])[H])C5([H])[H])c([H])c4[H])C(=O)C([H])([H])C3([H])[H])c([H])c([H])c2C1([H])[H]

$$$$
9:0:0
     RDKit          3D

 95104  0  0  1  0  0  0  0  0999 V2000
  -29.7230  -21.6920   18.0880 C   0  0  0  0  0  0  0  0  0  0  0  0
  -29.5900  -23.1330   17.5650 C   0  0  0  0  0  2  0  0  0  0  0  0
  -29.5860  -24.2190   18.6450 C   0  0  0  0  0  2  0  0  0  0  0  0
  -28.9460  -22.4640   20.3240 C   0  0  0  0  0  2  0  0  0  0  0  0
  -28.5450  -23.8840   19.7080 C   0  0  0  0  0  3  0  0  0  0  0  0
  -29.3520  -21.3670   19.3630 N   0  0  0  0  0  0  0  0  0  0  0  0
  -30.1590  -20.8640   17.2800 O   0  0  0  0  0  0  0  0  0  0  0  0
  -29.2340  -17.5110   19.4900 C   0  0  0  0  0  3  0  0  0  0  0  0
  -28.9530  -18.8650   19.1420 C   0  0  0  0  0  3  0  0  0  0  0  0
  -30.4370  -19.6330   20.8670 C   0  0  0  0  0  3  0  0  0  0  0  0
  -30.1260  -17.1670   20.5400 C   0  0  0  0  0  0  0  0  0  0  0  0
  -29.5560  -19.9730   19.8100 C   0  0  0  0  0  0  0  0  0  0  0  0
  -30.7200  -18.2760   21.2140 C   0  0  0  0  0  0  0  0  0  0  0  0
  -31.5810  -18.0530   22.2380 F   0  0  0  0  0  0  0  0  0  0  0  0
  -30.2990  -15.7240   21.0440 C   0  0  0  0  0  0  0  0  0  0  0  0
  -30.0340  -15.4830   22.2620 N   0  0  0  0  0  0  0  0  0  0  0  0
  -29.7190  -16.3170   22.7410 H   0  0  0  0  0  0  0  0  0  0  0  0
  -30.8670  -14.5970   20.1060 C   0  0  0  0  0  0  0  0  0  0  0  0
  -30.5150  -12.4400   18.9040 C   0  0  0  0  0  2  0  0  0  0  0  0
  -29.5100  -12.6570   17.7500 C   0  0  0  0  0  2  0  0  0  0  0  0
  -28.0590  -12.4970   18.2450 C   0  0  0  0  0  2  0  0  0  0  0  0
  -27.7950  -13.2970   19.5480 C   0  0  0  0  0  3  0  0  0  0  0  0
  -28.8980  -13.0220   20.5880 C   0  0  0  0  0  2  0  0  0  0  0  0
  -30.1920  -13.3980   19.9880 N   0  0  0  0  0  0  0  0  0  0  0  0
  -31.9230  -14.7910   19.4930 O   0  0  0  0  0  0  0  0  0  0  0  0
  -25.4500  -13.9220   20.3920 C   0  0  0  0  0  0  0  0  0  0  0  0
  -24.3910  -13.1570   20.8010 C   0  0  0  0  0  0  0  0  0  0  0  0
  -24.8310  -11.8010   20.7250 C   0  0  0  0  0  0  0  0  0  0  0  0
  -26.4670  -13.0290   20.0900 N   0  0  0  0  0  0  0  0  0  0  0  0
  -26.1010  -11.7480   20.3470 N   0  0  0  0  0  0  0  0  0  0  0  0
  -24.0960  -10.5470   20.9320 C   0  0  0  0  0  0  0  0  0  0  0  0
  -24.5280   -9.5840   21.8730 C   0  0  0  0  0  3  0  0  0  0  0  0
  -23.7950   -8.3930   22.0660 C   0  0  0  0  0  3  0  0  0  0  0  0
  -22.6160   -8.1560   21.3190 C   0  0  0  0  0  0  0  0  0  0  0  0
  -22.2030   -9.1070   20.3690 C   0  0  0  0  0  3  0  0  0  0  0  0
  -22.9370  -10.2900   20.1740 C   0  0  0  0  0  3  0  0  0  0  0  0
  -21.8530   -7.0190   21.4210 O   0  0  0  0  0  0  0  0  0  0  0  0
  -21.7520   -6.3230   22.6000 C   0  0  0  0  0  0  0  0  0  0  0  0
  -21.2780   -6.9280   23.7840 C   0  0  0  0  0  3  0  0  0  0  0  0
  -21.1260   -6.1580   24.9550 C   0  0  0  0  0  3  0  0  0  0  0  0
  -21.4380   -4.7850   24.9410 C   0  0  0  0  0  0  0  0  0  0  0  0
  -21.9060   -4.1810   23.7620 C   0  0  0  0  0  3  0  0  0  0  0  0
  -22.0610   -4.9470   22.5940 C   0  0  0  0  0  0  0  0  0  0  0  0
  -22.4910   -4.3550   21.4540 F   0  0  0  0  0  0  0  0  0  0  0  0
  -21.2840   -4.0450   26.0640 F   0  0  0  0  0  0  0  0  0  0  0  0
  -23.0170  -13.6510   21.1570 C   0  0  0  0  0  0  0  0  0  0  0  0
  -22.3300  -12.9530   22.0540 N   0  0  0  0  0  0  0  0  0  0  0  0
  -22.5650  -14.6870   20.6720 O   0  0  0  0  0  0  0  0  0  0  0  0
  -22.7100  -12.1130   22.4650 H   0  0  0  0  0  0  0  0  0  0  0  0
  -21.4100  -13.2610   22.3340 H   0  0  0  0  0  0  0  0  0  0  0  0
  -25.6260  -15.2930   20.2310 N   0  0  0  0  0  0  0  0  0  0  0  0
  -24.8780  -15.9560   20.3980 H   0  0  0  0  0  0  0  0  0  0  0  0
  -26.4740  -15.7300   19.8940 H   0  0  0  0  0  0  0  0  0  0  0  0
  -28.3230  -25.0920   20.7170 C   0  0  0  0  0  2  0  0  0  0  0  0
  -28.4200  -26.4780   20.2270 O   0  0  0  0  0  0  0  0  0  0  0  0
  -24.6360  -31.8340   23.2200 C   0  0  0  0  0  0  0  0  0  0  0  0
  -27.2760  -27.2760   20.2290 C   0  0  0  0  0  0  0  0  0  0  0  0
  -23.4440  -30.4180   21.5860 C   0  0  0  0  0  3  0  0  0  0  0  0
  -24.9050  -28.8510   20.1880 C   0  0  0  0  0  0  0  0  0  0  0  0
  -25.9790  -30.7480   21.4070 C   0  0  0  0  0  2  0  0  0  0  0  0
  -26.0670  -29.3620   20.7830 C   0  0  0  0  0  0  0  0  0  0  0  0
  -27.2590  -28.5860   20.7860 C   0  0  0  0  0  3  0  0  0  0  0  0
  -26.0960  -26.7960   19.6290 C   0  0  0  0  0  3  0  0  0  0  0  0
  -24.9190  -27.5720   19.6060 C   0  0  0  0  0  3  0  0  0  0  0  0
  -23.6670  -29.7250   20.2150 C   0  0  0  0  0  2  0  0  0  0  0  0
  -24.7050  -31.0180   22.1290 N   0  0  0  0  0  0  0  0  0  0  0  0
  -23.5500  -32.1150   23.7450 O   0  0  0  0  0  0  0  0  0  0  0  0
  -22.7760  -29.4110   22.5510 C   0  0  0  0  0  0  0  0  0  0  0  0
  -21.4500  -29.2400   22.4200 N   0  0  0  0  0  0  0  0  0  0  0  0
  -23.4480  -28.7870   23.3770 O   0  0  0  0  0  0  0  0  0  0  0  0
  -20.9680  -29.7910   21.7230 H   0  0  0  0  0  0  0  0  0  0  0  0
  -18.0650  -28.0630   22.9060 C   0  0  0  0  0  0  0  0  0  0  0  0
  -20.6220  -28.3120   23.1910 C   0  0  0  0  0  3  0  0  0  0  0  0
  -20.7230  -26.8760   22.6270 C   0  0  0  0  0  2  0  0  0  0  0  0
  -19.6260  -26.5500   21.6090 C   0  0  0  0  0  2  0  0  0  0  0  0
  -18.2400  -26.7070   22.2430 C   0  0  0  0  0  2  0  0  0  0  0  0
  -19.1840  -28.8240   23.3370 C   0  0  0  0  0  0  0  0  0  0  0  0
  -18.9680  -30.0910   23.9180 C   0  0  0  0  0  3  0  0  0  0  0  0
  -17.6640  -30.6030   24.0690 C   0  0  0  0  0  3  0  0  0  0  0  0
  -16.5600  -29.8390   23.6560 C   0  0  0  0  0  3  0  0  0  0  0  0
  -16.7590  -28.5710   23.0810 C   0  0  0  0  0  3  0  0  0  0  0  0
  -25.9160  -32.4710   23.8470 C   0  0  0  0  0  3  0  0  0  0  0  0
  -26.4410  -31.6910   25.1140 C   0  0  1  0  0  0  0  0  0  0  0  0
  -25.3510  -31.4230   26.1790 C   0  0  0  0  0  1  0  0  0  0  0  0
  -27.0420  -30.3260   24.7040 C   0  0  0  0  0  1  0  0  0  0  0  0
  -27.5850  -32.4890   25.7840 C   0  0  0  0  0  1  0  0  0  0  0  0
  -25.5960  -33.8630   24.1910 N   0  0  0  0  0  0  0  0  0  0  0  0
  -25.9160  -34.9240   23.4390 C   0  0  0  0  0  0  0  0  0  0  0  0
  -26.5840  -34.8340   22.4060 O   0  0  0  0  0  0  0  0  0  0  0  0
  -25.0000  -34.0070   24.9930 H   0  0  0  0  0  0  0  0  0  0  0  0
  -24.1690  -36.7030   23.1120 C   0  0  0  0  0  1  0  0  0  0  0  0
  -25.4190  -36.3050   23.9100 C   0  0  0  0  0  3  0  0  0  0  0  0
  -27.5480  -37.2040   24.7360 C   0  0  0  0  0  1  0  0  0  0  0  0
  -26.4400  -37.3690   23.7990 N   0  0  0  0  0  0  0  0  0  0  0  0
  -26.0260  -38.2850   23.9540 H   0  0  0  0  0  0  0  0  0  0  0  0
  1  6  1  0
  2  1  1  0
  2  3  1  0
  3  5  1  0
  5  4  1  0
  5 54  1  0
  6 12  1  0
  6  4  1  0
  7  1  2  0
  8 11  1  0
  9  8  2  0
  9 12  1  0
 10 13  1  0
 11 15  1  0
 11 13  2  0
 12 10  2  0
 13 14  1  0
 15 16  2  0
 16 17  1  0
 18 15  1  0
 19 24  1  0
 20 21  1  0
 20 19  1  0
 22 21  1  0
 22 29  1  0
 22 23  1  0
 24 18  1  0
 24 23  1  0
 25 18  2  0
 26 27  2  0
 27 46  1  0
 28 27  1  0
 28 31  1  0
 29 30  1  0
 29 26  1  0
 30 28  2  0
 31 32  1  0
 32 33  2  0
 34 37  1  0
 34 33  1  0
 35 34  2  0
 36 35  1  0
 36 31  2  0
 37 38  1  0
 38 39  1  0
 39 40  2  0
 41 40  1  0
 41 45  1  0
 42 41  2  0
 43 38  2  0
 43 42  1  0
 44 43  1  0
 46 47  1  0
 47 50  1  0
 47 49  1  0
 48 46  2  0
 51 26  1  0
 51 52  1  0
 53 51  1  0
 55 57  1  0
 55 54  1  0
 56 67  2  0
 57 62  1  0
 58 66  1  0
 58 68  1  0
 59 65  1  0
 59 61  1  0
 60 66  1  0
 61 62  2  0
 61 60  1  0
 63 57  2  0
 64 63  1  0
 64 59  2  0
 65 58  1  0
 66 56  1  0
 68 70  2  0
 69 68  1  0
 71 69  1  0
 72 81  2  0
 72 77  1  0
 73 69  1  0
 73 77  1  0
 74 73  1  0
 75 76  1  0
 75 74  1  0
 76 72  1  0
 77 78  2  0
 78 79  1  0
 80 79  2  0
 81 80  1  0
 82 56  1  0
 82 87  1  0
 82 83  1  0
 83 86  1  1
 83 84  1  0
 85 83  1  0
 87 90  1  0
 88 92  1  0
 88 87  1  0
 89 88  2  0
 92 91  1  0
 94 92  1  0
 94 95  1  0
 94 93  1  0
M  ISO  4  15 100  18 100  54 101  55 101
M  END
>  <TORSDO>  (10) 
F 19

>  <SCORE>  (10) 
-13.981

>  <name>  (10) 
9

>  <ligand_id>  (10) 
9

>  <original_smiles>  (10) 
[H]N=C(C(=O)N1C([H])([H])C([H])([H])C([H])([H])C([H])(n2nc(-c3c([H])c([H])c(Oc4c([H])c([H])c(F)c([H])c4F)c([H])c3[H])c(C(=O)N([H])[H])c2N([H])[H])C1([H])[H])c1c([H])c([H])c(N2C(=O)C([H])([H])C([H])([H])C([H])(C([H])([H])Oc3c([H])c([H])c4c(c3[H])C([H])([H])N(C(=O)C([H])(N([H])C(=O)C([H])(N([H])C([H])([H])[H])C([H])([H])[H])C(C([H])([H])[H])(C([H])([H])[H])C([H])([H])[H])C([H])(C(=O)N([H])C3([H])c5c([H])c([H])c([H])c([H])c5C([H])([H])C([H])([H])C3([H])[H])C4([H])[H])C2([H])[H])c([H])c1F

>  <smiles>  (10) 
[H]N=C(C(=O)N1C([H])([H])C([H])([H])C([H])([H])C([H])(n2nc(-c3c([H])c([H])c(Oc4c([H])c([H])c(F)c([H])c4F)c([H])c3[H])c(C(=O)N([H])[H])c2N([H])[H])C1([H])[H])c1c([H])c([H])c(N2C(=O)C([H])([H])C([H])([H])C([H])(C([H])([H])Oc3c([H])c([H])c4c(c3[H])C([H])([H])N(C(=O)C([H])(N([H])C(=O)C([H])(N([H])C([H])([H])[H])C([H])([H])[H])C(C([H])([H])[H])(C([H])([H])[H])C([H])([H])[H])C([H])(C(=O)N([H])C3([H])c5c([H])c([H])c([H])c([H])c5C([H])([H])C([H])([H])C3([H])[H])C4([H])[H])C2([H])[H])c([H])c1F

$$$$
10:0:0
     RDKit          3D

 94103  0  0  1  0  0  0  0  0999 V2000
  -31.0010  -22.0060   21.5050 C   0  0  0  0  0  0  0  0  0  0  0  0
  -31.2030  -23.5180   21.6770 C   0  0  0  0  0  2  0  0  0  0  0  0
  -29.9290  -24.3450   21.4930 C   0  0  0  0  0  2  0  0  0  0  0  0
  -29.0210  -22.4630   20.0800 C   0  0  0  0  0  2  0  0  0  0  0  0
  -29.3230  -24.0360   20.1300 C   0  0  0  0  0  3  0  0  0  0  0  0
  -30.0750  -21.5210   20.6220 N   0  0  0  0  0  0  0  0  0  0  0  0
  -31.7290  -21.2770   22.1890 O   0  0  0  0  0  0  0  0  0  0  0  0
  -31.1770  -19.2650   20.2510 C   0  0  0  0  0  3  0  0  0  0  0  0
  -31.1580  -17.8400   20.2410 C   0  0  0  0  0  3  0  0  0  0  0  0
  -28.7870  -19.3300   20.5130 C   0  0  0  0  0  3  0  0  0  0  0  0
  -30.0040  -20.0580   20.4310 C   0  0  0  0  0  0  0  0  0  0  0  0
  -29.9460  -17.1210   20.4000 C   0  0  0  0  0  0  0  0  0  0  0  0
  -28.7650  -17.9030   20.5070 C   0  0  0  0  0  0  0  0  0  0  0  0
  -27.5780  -17.2630   20.6290 F   0  0  0  0  0  0  0  0  0  0  0  0
  -30.5850  -14.6270   20.0440 C   0  0  0  0  0  0  0  0  0  0  0  0
  -30.2870  -12.4260   18.9340 C   0  0  0  0  0  2  0  0  0  0  0  0
  -29.2770  -12.6070   17.7780 C   0  0  0  0  0  2  0  0  0  0  0  0
  -27.8280  -12.4570   18.2830 C   0  0  0  0  0  2  0  0  0  0  0  0
  -27.5520  -13.2870   19.5650 C   0  0  0  0  0  3  0  0  0  0  0  0
  -28.6680  -13.0770   20.6140 C   0  0  0  0  0  2  0  0  0  0  0  0
  -29.9500  -13.4150   19.9750 N   0  0  0  0  0  0  0  0  0  0  0  0
  -31.7240  -14.7810   19.5970 O   0  0  0  0  0  0  0  0  0  0  0  0
  -29.8100  -15.6680   20.4680 N   0  0  0  0  0  0  0  0  0  0  0  0
  -28.9080  -15.3740   20.8120 H   0  0  0  0  0  0  0  0  0  0  0  0
  -25.2050  -13.8990   20.4150 C   0  0  0  0  0  0  0  0  0  0  0  0
  -24.1480  -13.1300   20.8200 C   0  0  0  0  0  0  0  0  0  0  0  0
  -24.5930  -11.7750   20.7400 C   0  0  0  0  0  0  0  0  0  0  0  0
  -26.2270  -13.0120   20.1130 N   0  0  0  0  0  0  0  0  0  0  0  0
  -25.8670  -11.7280   20.3680 N   0  0  0  0  0  0  0  0  0  0  0  0
  -23.8630  -10.5160   20.9440 C   0  0  0  0  0  0  0  0  0  0  0  0
  -24.3090   -9.5450   21.8670 C   0  0  0  0  0  3  0  0  0  0  0  0
  -23.5800   -8.3510   22.0580 C   0  0  0  0  0  3  0  0  0  0  0  0
  -22.3910   -8.1220   21.3250 C   0  0  0  0  0  0  0  0  0  0  0  0
  -21.9650   -9.0820   20.3910 C   0  0  0  0  0  3  0  0  0  0  0  0
  -22.6940  -10.2670   20.1990 C   0  0  0  0  0  3  0  0  0  0  0  0
  -21.6320   -6.9810   21.4260 O   0  0  0  0  0  0  0  0  0  0  0  0
  -21.5640   -6.2630   22.5930 C   0  0  0  0  0  0  0  0  0  0  0  0
  -21.1170   -6.8420   23.8000 C   0  0  0  0  0  3  0  0  0  0  0  0
  -20.9960   -6.0500   24.9590 C   0  0  0  0  0  3  0  0  0  0  0  0
  -21.3110   -4.6790   24.9110 C   0  0  0  0  0  0  0  0  0  0  0  0
  -21.7520   -4.0990   23.7090 C   0  0  0  0  0  3  0  0  0  0  0  0
  -21.8740   -4.8870   22.5520 C   0  0  0  0  0  0  0  0  0  0  0  0
  -22.2790   -4.3190   21.3910 F   0  0  0  0  0  0  0  0  0  0  0  0
  -21.1880   -3.9160   26.0230 F   0  0  0  0  0  0  0  0  0  0  0  0
  -22.7720  -13.6160   21.1740 C   0  0  0  0  0  0  0  0  0  0  0  0
  -22.0830  -12.9110   22.0640 N   0  0  0  0  0  0  0  0  0  0  0  0
  -22.3190  -14.6560   20.6970 O   0  0  0  0  0  0  0  0  0  0  0  0
  -22.4640  -12.0690   22.4700 H   0  0  0  0  0  0  0  0  0  0  0  0
  -21.1620  -13.2170   22.3440 H   0  0  0  0  0  0  0  0  0  0  0  0
  -25.3750  -15.2720   20.2640 N   0  0  0  0  0  0  0  0  0  0  0  0
  -24.6350  -15.9310   20.4740 H   0  0  0  0  0  0  0  0  0  0  0  0
  -26.2450  -15.7290   20.0200 H   0  0  0  0  0  0  0  0  0  0  0  0
  -28.1290  -25.0240   19.7950 C   0  0  0  0  0  2  0  0  0  0  0  0
  -28.3330  -26.4830   19.9350 O   0  0  0  0  0  0  0  0  0  0  0  0
  -24.5180  -31.7160   23.1150 C   0  0  0  0  0  0  0  0  0  0  0  0
  -27.1950  -27.3050   19.9170 C   0  0  0  0  0  0  0  0  0  0  0  0
  -23.3330  -30.3550   21.4310 C   0  0  0  0  0  3  0  0  0  0  0  0
  -24.8030  -28.8720   19.9590 C   0  0  0  0  0  0  0  0  0  0  0  0
  -25.8660  -30.7170   21.2580 C   0  0  0  0  0  2  0  0  0  0  0  0
  -25.9650  -29.3620   20.5680 C   0  0  0  0  0  0  0  0  0  0  0  0
  -27.1650  -28.5910   20.5360 C   0  0  0  0  0  3  0  0  0  0  0  0
  -26.0030  -26.8640   19.2910 C   0  0  0  0  0  3  0  0  0  0  0  0
  -24.8240  -27.6290   19.3130 C   0  0  0  0  0  3  0  0  0  0  0  0
  -23.5550  -29.7270   20.0310 C   0  0  0  0  0  2  0  0  0  0  0  0
  -24.5910  -30.9440   21.9930 N   0  0  0  0  0  0  0  0  0  0  0  0
  -23.4310  -31.9620   23.6590 O   0  0  0  0  0  0  0  0  0  0  0  0
  -22.6840  -29.2990   22.3570 C   0  0  0  0  0  0  0  0  0  0  0  0
  -21.3580  -29.1190   22.2360 N   0  0  0  0  0  0  0  0  0  0  0  0
  -23.3730  -28.6460   23.1460 O   0  0  0  0  0  0  0  0  0  0  0  0
  -20.8620  -29.7000   21.5740 H   0  0  0  0  0  0  0  0  0  0  0  0
  -17.9860  -27.9130   22.7410 C   0  0  0  0  0  0  0  0  0  0  0  0
  -20.5500  -28.1510   22.9770 C   0  0  0  0  0  3  0  0  0  0  0  0
  -20.6350  -26.7460   22.3370 C   0  0  0  0  0  2  0  0  0  0  0  0
  -19.5150  -26.4710   21.3300 C   0  0  0  0  0  2  0  0  0  0  0  0
  -18.1440  -26.5940   22.0050 C   0  0  0  0  0  2  0  0  0  0  0  0
  -19.1150  -28.6520   23.1850 C   0  0  0  0  0  0  0  0  0  0  0  0
  -18.9130  -29.8870   23.8360 C   0  0  0  0  0  3  0  0  0  0  0  0
  -17.6130  -30.3860   24.0460 C   0  0  0  0  0  3  0  0  0  0  0  0
  -16.4990  -29.6440   23.6190 C   0  0  0  0  0  3  0  0  0  0  0  0
  -16.6850  -28.4100   22.9720 C   0  0  0  0  0  3  0  0  0  0  0  0
  -25.7930  -32.3460   23.7570 C   0  0  0  0  0  3  0  0  0  0  0  0
  -25.4690  -33.7320   24.1190 N   0  0  0  0  0  0  0  0  0  0  0  0
  -25.7710  -34.8050   23.3750 C   0  0  0  0  0  0  0  0  0  0  0  0
  -26.4230  -34.7320   22.3300 O   0  0  0  0  0  0  0  0  0  0  0  0
  -24.8890  -33.8640   24.9360 H   0  0  0  0  0  0  0  0  0  0  0  0
  -24.0000  -36.5700   23.0990 C   0  0  0  0  0  1  0  0  0  0  0  0
  -25.2710  -36.1760   23.8690 C   0  0  0  0  0  3  0  0  0  0  0  0
  -27.4100  -37.0910   24.6550 C   0  0  0  0  0  1  0  0  0  0  0  0
  -26.2790  -37.2510   23.7430 N   0  0  0  0  0  0  0  0  0  0  0  0
  -25.8610  -38.1610   23.9170 H   0  0  0  0  0  0  0  0  0  0  0  0
  -26.3110  -31.5480   25.0160 C   0  0  1  0  0  0  0  0  0  0  0  0
  -25.2160  -31.2740   26.0740 C   0  0  0  0  0  1  0  0  0  0  0  0
  -26.9090  -30.1870   24.5930 C   0  0  0  0  0  1  0  0  0  0  0  0
  -27.4530  -32.3360   25.7010 C   0  0  0  0  0  1  0  0  0  0  0  0
  1  2  1  0
  1  7  2  0
  3  2  1  0
  4  5  1  0
  4  6  1  0
  5 53  1  0
  5  3  1  0
  6  1  1  0
  8 11  1  0
  9  8  2  0
  9 12  1  0
 11 10  2  0
 11  6  1  0
 12 23  1  0
 12 13  2  0
 13 10  1  0
 13 14  1  0
 15 23  1  0
 16 21  1  0
 17 18  1  0
 17 16  1  0
 19 18  1  0
 19 28  1  0
 19 20  1  0
 21 15  1  0
 21 20  1  0
 22 15  2  0
 23 24  1  0
 25 26  2  0
 26 45  1  0
 27 26  1  0
 27 30  1  0
 28 29  1  0
 28 25  1  0
 29 27  2  0
 30 31  1  0
 31 32  2  0
 33 36  1  0
 33 32  1  0
 34 33  2  0
 35 34  1  0
 35 30  2  0
 36 37  1  0
 37 38  1  0
 38 39  2  0
 40 39  1  0
 40 44  1  0
 41 40  2  0
 42 37  2  0
 42 41  1  0
 43 42  1  0
 45 46  1  0
 46 49  1  0
 46 48  1  0
 47 45  2  0
 50 25  1  0
 50 51  1  0
 52 50  1  0
 53 54  1  0
 55 66  2  0
 56 54  1  0
 56 61  1  0
 57 65  1  0
 57 67  1  0
 58 64  1  0
 58 60  1  0
 59 65  1  0
 60 59  1  0
 61 60  2  0
 62 63  1  0
 62 56  2  0
 63 58  2  0
 64 57  1  0
 65 55  1  0
 67 69  2  0
 68 67  1  0
 70 68  1  0
 71 80  2  0
 71 76  1  0
 72 68  1  0
 72 76  1  0
 73 72  1  0
 74 75  1  0
 74 73  1  0
 75 71  1  0
 76 77  2  0
 77 78  1  0
 79 78  2  0
 80 79  1  0
 81 55  1  0
 81 82  1  0
 81 91  1  0
 82 85  1  0
 83 87  1  0
 83 82  1  0
 84 83  2  0
 87 86  1  0
 89 87  1  0
 89 90  1  0
 89 88  1  0
 91 94  1  1
 91 92  1  0
 93 91  1  0
M  ISO  4  15 100  23 100  53 101  54 101
M  END
>  <TORSDO>  (11) 
F 18

>  <SCORE>  (11) 
-14.494

>  <name>  (11) 
10

>  <ligand_id>  (11) 
10

>  <original_smiles>  (11) 
[H]c1c([H])c([H])c2c(c1[H])C([H])([H])C([H])([H])C([H])([H])C2([H])N([H])C(=O)C1([H])N(C(=O)C([H])(N([H])C(=O)C([H])(N([H])C([H])([H])[H])C([H])([H])[H])C(C([H])([H])[H])(C([H])([H])[H])C([H])([H])[H])C([H])([H])c2c([H])c(OC([H])([H])C3([H])C([H])([H])N(c4c([H])c([H])c(N([H])C(=O)N5C([H])([H])C([H])([H])C([H])([H])C([H])(n6nc(-c7c([H])c([H])c(Oc8c([H])c([H])c(F)c([H])c8F)c([H])c7[H])c(C(=O)N([H])[H])c6N([H])[H])C5([H])[H])c(F)c4[H])C(=O)C([H])([H])C3([H])[H])c([H])c([H])c2C1([H])[H]

>  <smiles>  (11) 
[H]c1c([H])c([H])c2c(c1[H])C([H])([H])C([H])([H])C([H])([H])C2([H])N([H])C(=O)C1([H])N(C(=O)C([H])(N([H])C(=O)C([H])(N([H])C([H])([H])[H])C([H])([H])[H])C(C([H])([H])[H])(C([H])([H])[H])C([H])([H])[H])C([H])([H])c2c([H])c(OC([H])([H])C3([H])C([H])([H])N(c4c([H])c([H])c(N([H])C(=O)N5C([H])([H])C([H])([H])C([H])([H])C([H])(n6nc(-c7c([H])c([H])c(Oc8c([H])c([H])c(F)c([H])c8F)c([H])c7[H])c(C(=O)N([H])[H])c6N([H])[H])C5([H])[H])c(F)c4[H])C(=O)C([H])([H])C3([H])[H])c([H])c([H])c2C1([H])[H]

$$$$
11:0:0
     RDKit          3D

 94103  0  0  1  0  0  0  0  0999 V2000
  -30.9930  -21.9280   21.3880 C   0  0  0  0  0  0  0  0  0  0  0  0
  -31.0610  -23.4120   21.7820 C   0  0  0  0  0  2  0  0  0  0  0  0
  -29.8100  -24.2280   21.4340 C   0  0  0  0  0  2  0  0  0  0  0  0
  -29.2300  -22.4840   19.7170 C   0  0  0  0  0  2  0  0  0  0  0  0
  -29.4780  -24.0480   19.9570 C   0  0  0  0  0  3  0  0  0  0  0  0
  -30.1850  -21.5100   20.3720 N   0  0  0  0  0  0  0  0  0  0  0  0
  -31.7290  -21.1570   22.0150 O   0  0  0  0  0  0  0  0  0  0  0  0
  -31.1750  -19.3430   19.4970 C   0  0  0  0  0  3  0  0  0  0  0  0
  -31.2710  -17.9150   19.5400 C   0  0  0  0  0  3  0  0  0  0  0  0
  -29.2450  -17.8400   20.8230 C   0  0  0  0  0  3  0  0  0  0  0  0
  -30.1280  -20.0570   20.1480 C   0  0  0  0  0  0  0  0  0  0  0  0
  -30.3370  -17.1150   20.2570 C   0  0  0  0  0  0  0  0  0  0  0  0
  -29.1390  -19.2610   20.7760 C   0  0  0  0  0  0  0  0  0  0  0  0
  -28.1090  -19.8640   21.4180 F   0  0  0  0  0  0  0  0  0  0  0  0
  -30.9240  -14.6740   19.6740 C   0  0  0  0  0  0  0  0  0  0  0  0
  -30.4440  -12.5190   18.4980 C   0  0  0  0  0  2  0  0  0  0  0  0
  -29.3760  -12.7180   17.4000 C   0  0  0  0  0  2  0  0  0  0  0  0
  -27.9570  -12.5860   17.9860 C   0  0  0  0  0  2  0  0  0  0  0  0
  -27.7750  -13.4170   19.2810 C   0  0  0  0  0  3  0  0  0  0  0  0
  -28.9370  -13.1740   20.2610 C   0  0  0  0  0  2  0  0  0  0  0  0
  -30.1960  -13.5070   19.5720 N   0  0  0  0  0  0  0  0  0  0  0  0
  -31.9460  -14.8280   18.9970 O   0  0  0  0  0  0  0  0  0  0  0  0
  -30.5700  -15.3280   21.9640 C   0  0  0  0  0  1  0  0  0  0  0  0
  -30.4830  -15.6660   20.5320 N   0  0  0  0  0  0  0  0  0  0  0  0
  -25.5200  -14.0800   20.3200 C   0  0  0  0  0  0  0  0  0  0  0  0
  -24.4660  -13.3350   20.7760 C   0  0  0  0  0  0  0  0  0  0  0  0
  -24.8500  -11.9690   20.6160 C   0  0  0  0  0  0  0  0  0  0  0  0
  -26.4790  -13.1680   19.9100 N   0  0  0  0  0  0  0  0  0  0  0  0
  -26.0890  -11.8890   20.1470 N   0  0  0  0  0  0  0  0  0  0  0  0
  -24.0860  -10.7310   20.8280 C   0  0  0  0  0  0  0  0  0  0  0  0
  -24.5390   -9.7270   21.7130 C   0  0  0  0  0  3  0  0  0  0  0  0
  -23.7790   -8.5550   21.9130 C   0  0  0  0  0  3  0  0  0  0  0  0
  -22.5520   -8.3780   21.2290 C   0  0  0  0  0  0  0  0  0  0  0  0
  -22.1180   -9.3710   20.3330 C   0  0  0  0  0  3  0  0  0  0  0  0
  -22.8780  -10.5350   20.1300 C   0  0  0  0  0  3  0  0  0  0  0  0
  -21.7600   -7.2620   21.3410 O   0  0  0  0  0  0  0  0  0  0  0  0
  -21.6930   -6.5400   22.5060 C   0  0  0  0  0  0  0  0  0  0  0  0
  -21.3160   -7.1350   23.7290 C   0  0  0  0  0  3  0  0  0  0  0  0
  -21.1920   -6.3420   24.8880 C   0  0  0  0  0  3  0  0  0  0  0  0
  -21.4360   -4.9570   24.8240 C   0  0  0  0  0  0  0  0  0  0  0  0
  -21.8070   -4.3620   23.6060 C   0  0  0  0  0  3  0  0  0  0  0  0
  -21.9330   -5.1520   22.4490 C   0  0  0  0  0  0  0  0  0  0  0  0
  -22.2710   -4.5710   21.2730 F   0  0  0  0  0  0  0  0  0  0  0  0
  -21.3100   -4.1950   25.9360 F   0  0  0  0  0  0  0  0  0  0  0  0
  -23.1380  -13.8590   21.2420 C   0  0  0  0  0  0  0  0  0  0  0  0
  -22.4930  -13.1580   22.1680 N   0  0  0  0  0  0  0  0  0  0  0  0
  -22.6860  -14.9220   20.8180 O   0  0  0  0  0  0  0  0  0  0  0  0
  -22.8740  -12.2980   22.5310 H   0  0  0  0  0  0  0  0  0  0  0  0
  -21.6060  -13.4900   22.5210 H   0  0  0  0  0  0  0  0  0  0  0  0
  -25.7360  -15.4500   20.2030 N   0  0  0  0  0  0  0  0  0  0  0  0
  -25.0320  -16.1330   20.4600 H   0  0  0  0  0  0  0  0  0  0  0  0
  -26.5760  -15.8690   19.8220 H   0  0  0  0  0  0  0  0  0  0  0  0
  -28.3400  -25.0600   19.4970 C   0  0  0  0  0  2  0  0  0  0  0  0
  -28.5000  -26.5150   19.7330 O   0  0  0  0  0  0  0  0  0  0  0  0
  -24.4950  -31.5700   22.9840 C   0  0  0  0  0  0  0  0  0  0  0  0
  -27.3390  -27.3080   19.7190 C   0  0  0  0  0  0  0  0  0  0  0  0
  -23.3680  -30.1990   21.2690 C   0  0  0  0  0  3  0  0  0  0  0  0
  -24.8970  -28.7980   19.7780 C   0  0  0  0  0  0  0  0  0  0  0  0
  -25.8900  -30.6510   21.1190 C   0  0  0  0  0  2  0  0  0  0  0  0
  -26.0390  -29.3140   20.4040 C   0  0  0  0  0  0  0  0  0  0  0  0
  -27.2640  -28.5810   20.3650 C   0  0  0  0  0  3  0  0  0  0  0  0
  -26.1680  -26.8470   19.0730 C   0  0  0  0  0  3  0  0  0  0  0  0
  -24.9630  -27.5710   19.1050 C   0  0  0  0  0  3  0  0  0  0  0  0
  -23.6200  -29.6060   19.8590 C   0  0  0  0  0  2  0  0  0  0  0  0
  -24.6020  -30.8220   21.8480 N   0  0  0  0  0  0  0  0  0  0  0  0
  -23.3970  -31.7690   23.5230 O   0  0  0  0  0  0  0  0  0  0  0  0
  -22.7530  -29.1040   22.1730 C   0  0  0  0  0  0  0  0  0  0  0  0
  -21.4310  -28.8930   22.0530 N   0  0  0  0  0  0  0  0  0  0  0  0
  -23.4630  -28.4490   22.9400 O   0  0  0  0  0  0  0  0  0  0  0  0
  -20.9160  -29.4760   21.4080 H   0  0  0  0  0  0  0  0  0  0  0  0
  -18.0890  -27.6070   22.5690 C   0  0  0  0  0  0  0  0  0  0  0  0
  -20.6520  -27.8870   22.7750 C   0  0  0  0  0  3  0  0  0  0  0  0
  -20.7540  -26.5050   22.0890 C   0  0  0  0  0  2  0  0  0  0  0  0
  -19.6220  -26.2420   21.0900 C   0  0  0  0  0  2  0  0  0  0  0  0
  -18.2610  -26.3160   21.7870 C   0  0  0  0  0  2  0  0  0  0  0  0
  -19.2110  -28.3530   23.0200 C   0  0  0  0  0  0  0  0  0  0  0  0
  -18.9950  -29.5630   23.7130 C   0  0  0  0  0  3  0  0  0  0  0  0
  -17.6900  -30.0300   23.9580 C   0  0  0  0  0  3  0  0  0  0  0  0
  -16.5820  -29.2800   23.5240 C   0  0  0  0  0  3  0  0  0  0  0  0
  -16.7830  -28.0710   22.8350 C   0  0  0  0  0  3  0  0  0  0  0  0
  -25.7440  -32.2330   23.6440 C   0  0  0  0  0  3  0  0  0  0  0  0
  -25.3690  -33.6020   24.0260 N   0  0  0  0  0  0  0  0  0  0  0  0
  -25.6580  -34.6970   23.3120 C   0  0  0  0  0  0  0  0  0  0  0  0
  -26.3380  -34.6650   22.2820 O   0  0  0  0  0  0  0  0  0  0  0  0
  -24.7650  -33.6980   24.8290 H   0  0  0  0  0  0  0  0  0  0  0  0
  -23.8500  -36.4220   23.0200 C   0  0  0  0  0  1  0  0  0  0  0  0
  -25.1060  -36.0440   23.8200 C   0  0  0  0  0  3  0  0  0  0  0  0
  -27.1950  -36.9930   24.6930 C   0  0  0  0  0  1  0  0  0  0  0  0
  -26.0890  -37.1470   23.7520 N   0  0  0  0  0  0  0  0  0  0  0  0
  -25.6400  -38.0410   23.9340 H   0  0  0  0  0  0  0  0  0  0  0  0
  -26.2810  -31.4340   24.8950 C   0  0  1  0  0  0  0  0  0  0  0  0
  -25.1890  -31.1100   25.9410 C   0  0  0  0  0  1  0  0  0  0  0  0
  -26.9240  -30.0970   24.4570 C   0  0  0  0  0  1  0  0  0  0  0  0
  -27.3910  -32.2480   25.5990 C   0  0  0  0  0  1  0  0  0  0  0  0
  1  2  1  0
  1  7  2  0
  3  2  1  0
  4  5  1  0
  4  6  1  0
  5 53  1  0
  5  3  1  0
  6  1  1  0
  8  9  2  0
  8 11  1  0
  9 12  1  0
 11  6  1  0
 11 13  2  0
 12 24  1  0
 12 10  2  0
 13 10  1  0
 13 14  1  0
 15 24  1  0
 16 21  1  0
 17 18  1  0
 17 16  1  0
 19 18  1  0
 19 28  1  0
 19 20  1  0
 21 15  1  0
 21 20  1  0
 22 15  2  0
 24 23  1  0
 25 26  2  0
 26 45  1  0
 27 26  1  0
 27 30  1  0
 28 29  1  0
 28 25  1  0
 29 27  2  0
 30 31  1  0
 31 32  2  0
 33 36  1  0
 33 32  1  0
 34 33  2  0
 35 34  1  0
 35 30  2  0
 36 37  1  0
 37 38  1  0
 38 39  2  0
 40 39  1  0
 40 44  1  0
 41 40  2  0
 42 37  2  0
 42 41  1  0
 43 42  1  0
 45 46  1  0
 46 49  1  0
 46 48  1  0
 47 45  2  0
 50 25  1  0
 50 51  1  0
 52 50  1  0
 53 54  1  0
 55 66  2  0
 56 54  1  0
 56 61  1  0
 57 65  1  0
 57 67  1  0
 58 64  1  0
 58 60  1  0
 59 65  1  0
 60 59  1  0
 61 60  2  0
 62 63  1  0
 62 56  2  0
 63 58  2  0
 64 57  1  0
 65 55  1  0
 67 69  2  0
 68 67  1  0
 70 68  1  0
 71 80  2  0
 71 76  1  0
 72 68  1  0
 72 76  1  0
 73 72  1  0
 74 75  1  0
 74 73  1  0
 75 71  1  0
 76 77  2  0
 77 78  1  0
 79 78  2  0
 80 79  1  0
 81 55  1  0
 81 82  1  0
 81 91  1  0
 82 85  1  0
 83 87  1  0
 83 82  1  0
 84 83  2  0
 87 86  1  0
 89 87  1  0
 89 90  1  0
 89 88  1  0
 91 94  1  1
 91 92  1  0
 93 91  1  0
M  ISO  4  15 100  24 100  53 101  54 101
M  END
>  <TORSDO>  (12) 
F 18

>  <SCORE>  (12) 
-12.574

>  <name>  (12) 
11

>  <ligand_id>  (12) 
11

>  <original_smiles>  (12) 
[H]c1c([H])c([H])c2c(c1[H])C([H])([H])C([H])([H])C([H])([H])C2([H])N([H])C(=O)C1([H])N(C(=O)C([H])(N([H])C(=O)C([H])(N([H])C([H])([H])[H])C([H])([H])[H])C(C([H])([H])[H])(C([H])([H])[H])C([H])([H])[H])C([H])([H])c2c([H])c(OC([H])([H])C3([H])C([H])([H])N(c4c([H])c([H])c(N(C(=O)N5C([H])([H])C([H])([H])C([H])([H])C([H])(n6nc(-c7c([H])c([H])c(Oc8c([H])c([H])c(F)c([H])c8F)c([H])c7[H])c(C(=O)N([H])[H])c6N([H])[H])C5([H])[H])C([H])([H])[H])c([H])c4F)C(=O)C([H])([H])C3([H])[H])c([H])c([H])c2C1([H])[H]

>  <smiles>  (12) 
[H]c1c([H])c([H])c2c(c1[H])C([H])([H])C([H])([H])C([H])([H])C2([H])N([H])C(=O)C1([H])N(C(=O)C([H])(N([H])C(=O)C([H])(N([H])C([H])([H])[H])C([H])([H])[H])C(C([H])([H])[H])(C([H])([H])[H])C([H])([H])[H])C([H])([H])c2c([H])c(OC([H])([H])C3([H])C([H])([H])N(c4c([H])c([H])c(N(C(=O)N5C([H])([H])C([H])([H])C([H])([H])C([H])(n6nc(-c7c([H])c([H])c(Oc8c([H])c([H])c(F)c([H])c8F)c([H])c7[H])c(C(=O)N([H])[H])c6N([H])[H])C5([H])[H])C([H])([H])[H])c([H])c4F)C(=O)C([H])([H])C3([H])[H])c([H])c([H])c2C1([H])[H]

$$$$
12:0:0
     RDKit          3D

 93101  0  0  1  0  0  0  0  0999 V2000
  -30.9890  -19.6090   20.5520 C   0  0  0  0  0  3  0  0  0  0  0  0
  -30.5200  -20.9500   20.4340 C   0  0  0  0  0  3  0  0  0  0  0  0
  -28.7780  -18.7450   20.1860 C   0  0  0  0  0  3  0  0  0  0  0  0
  -30.1450  -18.4620   20.4370 C   0  0  0  0  0  0  0  0  0  0  0  0
  -29.1550  -21.2280   20.1860 C   0  0  0  0  0  0  0  0  0  0  0  0
  -28.3040  -20.0900   20.0570 C   0  0  0  0  0  0  0  0  0  0  0  0
  -26.9890  -20.2960   19.8060 F   0  0  0  0  0  0  0  0  0  0  0  0
  -30.7270  -14.6540   20.1700 C   0  0  0  0  0  0  0  0  0  0  0  0
  -30.3480  -12.4130   19.1550 C   0  0  0  0  0  2  0  0  0  0  0  0
  -29.3930  -12.5060   17.9500 C   0  0  0  0  0  2  0  0  0  0  0  0
  -27.9330  -12.3780   18.4180 C   0  0  0  0  0  2  0  0  0  0  0  0
  -27.6080  -13.2990   19.6270 C   0  0  0  0  0  3  0  0  0  0  0  0
  -28.6910  -13.2240   20.7240 C   0  0  0  0  0  2  0  0  0  0  0  0
  -29.9820  -13.5050   20.0850 N   0  0  0  0  0  0  0  0  0  0  0  0
  -31.9070  -14.6190   19.8130 O   0  0  0  0  0  0  0  0  0  0  0  0
  -30.7460  -17.0540   20.6800 C   0  0  0  0  0  0  0  0  0  0  0  0
  -30.1010  -15.8640   20.4090 N   0  0  0  0  0  0  0  0  0  0  0  0
  -31.9020  -17.0580   21.1250 O   0  0  0  0  0  0  0  0  0  0  0  0
  -29.1020  -15.8930   20.3220 H   0  0  0  0  0  0  0  0  0  0  0  0
  -25.2530  -13.9410   20.4130 C   0  0  0  0  0  0  0  0  0  0  0  0
  -24.1800  -13.1910   20.8080 C   0  0  0  0  0  0  0  0  0  0  0  0
  -24.6130  -11.8300   20.7700 C   0  0  0  0  0  0  0  0  0  0  0  0
  -26.2730  -13.0400   20.1540 N   0  0  0  0  0  0  0  0  0  0  0  0
  -25.8960  -11.7640   20.4320 N   0  0  0  0  0  0  0  0  0  0  0  0
  -23.8640  -10.5840   20.9760 C   0  0  0  0  0  0  0  0  0  0  0  0
  -24.2920   -9.6080   21.9040 C   0  0  0  0  0  3  0  0  0  0  0  0
  -23.5420   -8.4290   22.0990 C   0  0  0  0  0  3  0  0  0  0  0  0
  -22.3500   -8.2150   21.3670 C   0  0  0  0  0  0  0  0  0  0  0  0
  -21.9410   -9.1780   20.4280 C   0  0  0  0  0  3  0  0  0  0  0  0
  -22.6900  -10.3500   20.2310 C   0  0  0  0  0  3  0  0  0  0  0  0
  -21.5710   -7.0870   21.4720 O   0  0  0  0  0  0  0  0  0  0  0  0
  -21.5290   -6.3480   22.6270 C   0  0  0  0  0  0  0  0  0  0  0  0
  -21.1030   -6.9040   23.8530 C   0  0  0  0  0  3  0  0  0  0  0  0
  -21.0080   -6.0910   24.9990 C   0  0  0  0  0  3  0  0  0  0  0  0
  -21.3280   -4.7220   24.9220 C   0  0  0  0  0  0  0  0  0  0  0  0
  -21.7470   -4.1650   23.7010 C   0  0  0  0  0  3  0  0  0  0  0  0
  -21.8440   -4.9760   22.5550 C   0  0  0  0  0  0  0  0  0  0  0  0
  -22.2270   -4.4290   21.3760 F   0  0  0  0  0  0  0  0  0  0  0  0
  -21.2300   -3.9380   26.0210 F   0  0  0  0  0  0  0  0  0  0  0  0
  -22.8000  -13.6990   21.1080 C   0  0  0  0  0  0  0  0  0  0  0  0
  -22.0770  -13.0240   21.9960 N   0  0  0  0  0  0  0  0  0  0  0  0
  -22.3720  -14.7300   20.5910 O   0  0  0  0  0  0  0  0  0  0  0  0
  -22.4370  -12.1890   22.4350 H   0  0  0  0  0  0  0  0  0  0  0  0
  -21.1520  -13.3470   22.2390 H   0  0  0  0  0  0  0  0  0  0  0  0
  -25.4420  -15.3070   20.2260 N   0  0  0  0  0  0  0  0  0  0  0  0
  -24.6870  -15.9740   20.3430 H   0  0  0  0  0  0  0  0  0  0  0  0
  -26.2780  -15.7220   19.8340 H   0  0  0  0  0  0  0  0  0  0  0  0
  -29.0430  -23.8480   20.2010 C   0  0  0  0  0  0  0  0  0  0  0  0
  -28.5820  -22.5660   20.0120 N   0  0  0  0  0  0  0  0  0  0  0  0
  -30.1440  -24.1030   20.6980 O   0  0  0  0  0  0  0  0  0  0  0  0
  -27.6310  -22.5350   19.6730 H   0  0  0  0  0  0  0  0  0  0  0  0
  -28.0850  -25.0160   19.7390 C   0  0  0  0  0  2  0  0  0  0  0  0
  -28.3660  -26.4300   20.1210 O   0  0  0  0  0  0  0  0  0  0  0  0
  -24.5310  -31.7470   23.1900 C   0  0  0  0  0  0  0  0  0  0  0  0
  -27.2640  -27.3100   20.0510 C   0  0  0  0  0  0  0  0  0  0  0  0
  -23.3810  -30.3760   21.4930 C   0  0  0  0  0  3  0  0  0  0  0  0
  -24.8820  -28.9030   20.0460 C   0  0  0  0  0  0  0  0  0  0  0  0
  -25.9210  -30.7380   21.3670 C   0  0  0  0  0  2  0  0  0  0  0  0
  -26.0350  -29.3810   20.6810 C   0  0  0  0  0  0  0  0  0  0  0  0
  -27.2300  -28.5960   20.6780 C   0  0  0  0  0  3  0  0  0  0  0  0
  -26.0860  -26.9070   19.3730 C   0  0  0  0  0  3  0  0  0  0  0  0
  -24.9110  -27.6710   19.3830 C   0  0  0  0  0  3  0  0  0  0  0  0
  -23.6300  -29.7530   20.0970 C   0  0  0  0  0  2  0  0  0  0  0  0
  -24.6290  -30.9690   22.0740 N   0  0  0  0  0  0  0  0  0  0  0  0
  -23.4350  -31.9910   23.7130 O   0  0  0  0  0  0  0  0  0  0  0  0
  -22.7210  -29.3180   22.4090 C   0  0  0  0  0  0  0  0  0  0  0  0
  -21.3970  -29.1340   22.2660 N   0  0  0  0  0  0  0  0  0  0  0  0
  -23.3990  -28.6690   23.2110 O   0  0  0  0  0  0  0  0  0  0  0  0
  -20.9100  -29.7110   21.5950 H   0  0  0  0  0  0  0  0  0  0  0  0
  -18.0180  -27.9350   22.7410 C   0  0  0  0  0  0  0  0  0  0  0  0
  -20.5800  -28.1650   22.9980 C   0  0  0  0  0  3  0  0  0  0  0  0
  -20.6680  -26.7620   22.3540 C   0  0  0  0  0  2  0  0  0  0  0  0
  -19.5540  -26.4950   21.3370 C   0  0  0  0  0  2  0  0  0  0  0  0
  -18.1800  -26.6170   22.0000 C   0  0  0  0  0  2  0  0  0  0  0  0
  -19.1450  -28.6690   23.1960 C   0  0  0  0  0  0  0  0  0  0  0  0
  -18.9390  -29.9030   23.8500 C   0  0  0  0  0  3  0  0  0  0  0  0
  -17.6400  -30.4030   24.0510 C   0  0  0  0  0  3  0  0  0  0  0  0
  -16.5260  -29.6660   23.6120 C   0  0  0  0  0  3  0  0  0  0  0  0
  -16.7160  -28.4320   22.9640 C   0  0  0  0  0  3  0  0  0  0  0  0
  -25.7920  -32.3840   23.8510 C   0  0  0  0  0  3  0  0  0  0  0  0
  -25.4680  -33.7820   24.1670 N   0  0  0  0  0  0  0  0  0  0  0  0
  -25.7960  -34.8320   23.4020 C   0  0  0  0  0  0  0  0  0  0  0  0
  -26.4760  -34.7260   22.3770 O   0  0  0  0  0  0  0  0  0  0  0  0
  -24.8660  -33.9390   24.9630 H   0  0  0  0  0  0  0  0  0  0  0  0
  -24.0470  -36.6010   23.0300 C   0  0  0  0  0  1  0  0  0  0  0  0
  -25.2940  -36.2210   23.8450 C   0  0  0  0  0  3  0  0  0  0  0  0
  -27.4130  -37.1460   24.6710 C   0  0  0  0  0  1  0  0  0  0  0  0
  -26.3140  -37.2840   23.7190 N   0  0  0  0  0  0  0  0  0  0  0  0
  -25.8960  -38.2010   23.8490 H   0  0  0  0  0  0  0  0  0  0  0  0
  -26.2680  -31.6180   25.1460 C   0  0  1  0  0  0  0  0  0  0  0  0
  -25.1380  -31.3770   26.1760 C   0  0  0  0  0  1  0  0  0  0  0  0
  -26.8710  -30.2430   24.7800 C   0  0  0  0  0  1  0  0  0  0  0  0
  -27.3910  -32.4190   25.8450 C   0  0  0  0  0  1  0  0  0  0  0  0
  2  1  2  0
  3  4  2  0
  4  1  1  0
  4 16  1  0
  5  2  1  0
  6  3  1  0
  6  5  2  0
  7  6  1  0
  8 17  1  0
  9 14  1  0
 10 11  1  0
 10  9  1  0
 12 11  1  0
 12 23  1  0
 12 13  1  0
 14  8  1  0
 14 13  1  0
 15  8  2  0
 16 18  2  0
 17 16  1  0
 19 17  1  0
 20 21  2  0
 21 40  1  0
 22 21  1  0
 22 25  1  0
 23 20  1  0
 23 24  1  0
 24 22  2  0
 25 26  1  0
 26 27  2  0
 28 31  1  0
 28 27  1  0
 29 28  2  0
 30 29  1  0
 30 25  2  0
 31 32  1  0
 32 33  1  0
 33 34  2  0
 35 34  1  0
 35 39  1  0
 36 35  2  0
 37 32  2  0
 37 36  1  0
 38 37  1  0
 40 41  1  0
 41 44  1  0
 41 43  1  0
 42 40  2  0
 45 46  1  0
 45 20  1  0
 47 45  1  0
 48 50  2  0
 49  5  1  0
 49 48  1  0
 51 49  1  0
 52 53  1  0
 52 48  1  0
 54 65  2  0
 55 53  1  0
 55 60  1  0
 56 64  1  0
 56 66  1  0
 57 63  1  0
 57 59  1  0
 58 64  1  0
 59 58  1  0
 60 59  2  0
 61 62  1  0
 61 55  2  0
 62 57  2  0
 63 56  1  0
 64 54  1  0
 66 68  2  0
 67 66  1  0
 69 67  1  0
 70 79  2  0
 70 75  1  0
 71 67  1  0
 71 75  1  0
 72 71  1  0
 73 74  1  0
 73 72  1  0
 74 70  1  0
 75 76  2  0
 76 77  1  0
 78 77  2  0
 79 78  1  0
 80 54  1  0
 80 81  1  0
 80 90  1  0
 81 84  1  0
 82 86  1  0
 82 81  1  0
 83 82  2  0
 86 85  1  0
 88 86  1  0
 88 89  1  0
 88 87  1  0
 90 93  1  1
 90 91  1  0
 92 90  1  0
M  ISO  4   8 100  17 100  52 101  53 101
M  END
>  <TORSDO>  (13) 
F 18

>  <SCORE>  (13) 
-14.611

>  <name>  (13) 
12

>  <ligand_id>  (13) 
12

>  <original_smiles>  (13) 
[H]c1c([H])c([H])c2c(c1[H])C([H])([H])C([H])([H])C([H])([H])C2([H])N([H])C(=O)C1([H])N(C(=O)C([H])(N([H])C(=O)C([H])(N([H])C([H])([H])[H])C([H])([H])[H])C(C([H])([H])[H])(C([H])([H])[H])C([H])([H])[H])C([H])([H])c2c([H])c(OC([H])([H])C(=O)N([H])c3c([H])c([H])c(C(=O)N([H])C(=O)N4C([H])([H])C([H])([H])C([H])([H])C([H])(n5nc(-c6c([H])c([H])c(Oc7c([H])c([H])c(F)c([H])c7F)c([H])c6[H])c(C(=O)N([H])[H])c5N([H])[H])C4([H])[H])c([H])c3F)c([H])c([H])c2C1([H])[H]

>  <smiles>  (13) 
[H]c1c([H])c([H])c2c(c1[H])C([H])([H])C([H])([H])C([H])([H])C2([H])N([H])C(=O)C1([H])N(C(=O)C([H])(N([H])C(=O)C([H])(N([H])C([H])([H])[H])C([H])([H])[H])C(C([H])([H])[H])(C([H])([H])[H])C([H])([H])[H])C([H])([H])c2c([H])c(OC([H])([H])C(=O)N([H])c3c([H])c([H])c(C(=O)N([H])C(=O)N4C([H])([H])C([H])([H])C([H])([H])C([H])(n5nc(-c6c([H])c([H])c(Oc7c([H])c([H])c(F)c([H])c7F)c([H])c6[H])c(C(=O)N([H])[H])c5N([H])[H])C4([H])[H])c([H])c3F)c([H])c([H])c2C1([H])[H]

$$$$
13:0:0
     RDKit          3D

 93102  0  0  1  0  0  0  0  0999 V2000
  -28.8730  -22.3020   21.8930 C   0  0  0  0  0  0  0  0  0  0  0  0
  -29.4350  -23.5810   22.4970 C   0  0  0  0  0  2  0  0  0  0  0  0
  -30.2300  -24.1670   21.3360 C   0  0  0  0  0  2  0  0  0  0  0  0
  -29.4560  -23.6650   20.1160 C   0  0  0  0  0  3  0  0  0  0  0  0
  -29.1190  -22.1950   20.5710 N   0  0  0  0  0  0  0  0  0  0  0  0
  -28.2920  -21.4630   22.5900 O   0  0  0  0  0  0  0  0  0  0  0  0
  -30.8280  -20.1930   20.7150 C   0  0  0  0  0  3  0  0  0  0  0  0
  -31.1020  -18.7630   20.7120 C   0  0  0  0  0  3  0  0  0  0  0  0
  -28.8050  -19.8060   19.5740 C   0  0  0  0  0  3  0  0  0  0  0  0
  -29.0850  -18.3800   19.5530 C   0  0  0  0  0  0  0  0  0  0  0  0
  -29.6300  -20.7980   20.1940 C   0  0  0  0  0  0  0  0  0  0  0  0
  -30.2310  -17.7550   20.1680 C   0  0  0  0  0  0  0  0  0  0  0  0
  -28.0200  -17.5210   18.9210 C   0  0  0  0  0  1  0  0  0  0  0  0
  -30.9080  -15.1120   19.9430 C   0  0  0  0  0  0  0  0  0  0  0  0
  -30.6560  -12.7940   18.9150 C   0  0  0  0  0  2  0  0  0  0  0  0
  -29.6250  -12.7970   17.7610 C   0  0  0  0  0  2  0  0  0  0  0  0
  -28.1980  -12.5720   18.2940 C   0  0  0  0  0  2  0  0  0  0  0  0
  -27.8960  -13.4550   19.5290 C   0  0  0  0  0  3  0  0  0  0  0  0
  -29.0390  -13.4090   20.5640 C   0  0  0  0  0  2  0  0  0  0  0  0
  -30.2760  -13.8590   19.8940 N   0  0  0  0  0  0  0  0  0  0  0  0
  -32.0120  -15.1990   19.3880 O   0  0  0  0  0  0  0  0  0  0  0  0
  -30.0570  -16.1080   21.9860 C   0  0  0  0  0  1  0  0  0  0  0  0
  -30.3030  -16.2620   20.5440 N   0  0  0  0  0  0  0  0  0  0  0  0
  -25.6010  -14.0390   20.5090 C   0  0  0  0  0  0  0  0  0  0  0  0
  -24.5540  -13.2700   20.9290 C   0  0  0  0  0  0  0  0  0  0  0  0
  -24.9790  -11.9150   20.7770 C   0  0  0  0  0  0  0  0  0  0  0  0
  -26.5980  -13.1580   20.1240 N   0  0  0  0  0  0  0  0  0  0  0  0
  -26.2350  -11.8680   20.3460 N   0  0  0  0  0  0  0  0  0  0  0  0
  -24.2400  -10.6620   20.9590 C   0  0  0  0  0  0  0  0  0  0  0  0
  -24.6570   -9.6860   21.8900 C   0  0  0  0  0  3  0  0  0  0  0  0
  -23.9160   -8.4960   22.0570 C   0  0  0  0  0  3  0  0  0  0  0  0
  -22.7440   -8.2770   21.2960 C   0  0  0  0  0  0  0  0  0  0  0  0
  -22.3460   -9.2420   20.3540 C   0  0  0  0  0  3  0  0  0  0  0  0
  -23.0880  -10.4230   20.1840 C   0  0  0  0  0  3  0  0  0  0  0  0
  -21.9750   -7.1410   21.3720 O   0  0  0  0  0  0  0  0  0  0  0  0
  -21.8170   -6.4600   22.5520 C   0  0  0  0  0  0  0  0  0  0  0  0
  -21.2700   -7.0760   23.6990 C   0  0  0  0  0  3  0  0  0  0  0  0
  -21.0620   -6.3230   24.8710 C   0  0  0  0  0  3  0  0  0  0  0  0
  -21.3870   -4.9530   24.8950 C   0  0  0  0  0  0  0  0  0  0  0  0
  -21.9280   -4.3370   23.7520 C   0  0  0  0  0  3  0  0  0  0  0  0
  -22.1400   -5.0910   22.5840 C   0  0  0  0  0  0  0  0  0  0  0  0
  -22.6420   -4.4870   21.4810 F   0  0  0  0  0  0  0  0  0  0  0  0
  -21.1790   -4.2270   26.0190 F   0  0  0  0  0  0  0  0  0  0  0  0
  -23.2030  -13.7660   21.3510 C   0  0  0  0  0  0  0  0  0  0  0  0
  -22.5430  -13.0510   22.2540 N   0  0  0  0  0  0  0  0  0  0  0  0
  -22.7430  -14.8220   20.9160 O   0  0  0  0  0  0  0  0  0  0  0  0
  -22.9270  -12.1970   22.6250 H   0  0  0  0  0  0  0  0  0  0  0  0
  -21.6410  -13.3680   22.5800 H   0  0  0  0  0  0  0  0  0  0  0  0
  -25.7720  -15.4110   20.3990 N   0  0  0  0  0  0  0  0  0  0  0  0
  -25.0200  -16.0610   20.6000 H   0  0  0  0  0  0  0  0  0  0  0  0
  -26.5990  -15.8530   20.0250 H   0  0  0  0  0  0  0  0  0  0  0  0
  -28.2580  -24.8250   19.8900 C   0  0  0  0  0  2  0  0  0  0  0  0
  -28.4420  -26.3620   19.9590 O   0  0  0  0  0  0  0  0  0  0  0  0
  -24.5920  -31.7450   23.1650 C   0  0  0  0  0  0  0  0  0  0  0  0
  -27.3260  -27.2680   19.9470 C   0  0  0  0  0  0  0  0  0  0  0  0
  -23.4310  -30.3770   21.4730 C   0  0  0  0  0  3  0  0  0  0  0  0
  -24.9270  -28.9040   19.9910 C   0  0  0  0  0  0  0  0  0  0  0  0
  -25.9720  -30.7390   21.3120 C   0  0  0  0  0  2  0  0  0  0  0  0
  -26.0900  -29.3780   20.6100 C   0  0  0  0  0  0  0  0  0  0  0  0
  -27.2900  -28.5770   20.5690 C   0  0  0  0  0  3  0  0  0  0  0  0
  -26.1280  -26.8820   19.3050 C   0  0  0  0  0  3  0  0  0  0  0  0
  -24.9550  -27.6690   19.3260 C   0  0  0  0  0  3  0  0  0  0  0  0
  -23.6700  -29.7570   20.0700 C   0  0  0  0  0  2  0  0  0  0  0  0
  -24.6840  -30.9730   22.0390 N   0  0  0  0  0  0  0  0  0  0  0  0
  -23.5000  -31.9750   23.7060 O   0  0  0  0  0  0  0  0  0  0  0  0
  -22.7860  -29.3140   22.3970 C   0  0  0  0  0  0  0  0  0  0  0  0
  -21.4670  -29.0930   22.2490 N   0  0  0  0  0  0  0  0  0  0  0  0
  -23.4750  -28.6900   23.2080 O   0  0  0  0  0  0  0  0  0  0  0  0
  -20.9660  -29.6500   21.5720 H   0  0  0  0  0  0  0  0  0  0  0  0
  -18.1340  -27.7450   22.6800 C   0  0  0  0  0  0  0  0  0  0  0  0
  -20.6760  -28.1010   22.9840 C   0  0  0  0  0  3  0  0  0  0  0  0
  -20.8430  -26.6930   22.3680 C   0  0  0  0  0  2  0  0  0  0  0  0
  -19.7650  -26.3570   21.3320 C   0  0  0  0  0  2  0  0  0  0  0  0
  -18.3710  -26.4260   21.9630 C   0  0  0  0  0  2  0  0  0  0  0  0
  -19.2160  -28.5380   23.1440 C   0  0  0  0  0  0  0  0  0  0  0  0
  -18.9390  -29.7700   23.7750 C   0  0  0  0  0  3  0  0  0  0  0  0
  -17.6130  -30.2120   23.9440 C   0  0  0  0  0  3  0  0  0  0  0  0
  -16.5450  -29.4170   23.4950 C   0  0  0  0  0  3  0  0  0  0  0  0
  -16.8060  -28.1850   22.8690 C   0  0  0  0  0  3  0  0  0  0  0  0
  -25.8530  -32.3940   23.8130 C   0  0  0  0  0  3  0  0  0  0  0  0
  -25.5170  -33.7870   24.1520 N   0  0  0  0  0  0  0  0  0  0  0  0
  -25.8360  -34.8520   23.4040 C   0  0  0  0  0  0  0  0  0  0  0  0
  -26.5110  -34.7670   22.3750 O   0  0  0  0  0  0  0  0  0  0  0  0
  -24.9180  -33.9250   24.9520 H   0  0  0  0  0  0  0  0  0  0  0  0
  -24.0770  -36.6190   23.0680 C   0  0  0  0  0  1  0  0  0  0  0  0
  -25.3280  -36.2310   23.8720 C   0  0  0  0  0  3  0  0  0  0  0  0
  -27.4460  -37.1530   24.7050 C   0  0  0  0  0  1  0  0  0  0  0  0
  -26.3410  -37.3030   23.7610 N   0  0  0  0  0  0  0  0  0  0  0  0
  -25.9190  -38.2140   23.9110 H   0  0  0  0  0  0  0  0  0  0  0  0
  -26.3550  -31.6230   25.0960 C   0  0  1  0  0  0  0  0  0  0  0  0
  -25.2420  -31.3480   26.1340 C   0  0  0  0  0  1  0  0  0  0  0  0
  -26.9820  -30.2640   24.7100 C   0  0  0  0  0  1  0  0  0  0  0  0
  -27.4680  -32.4400   25.7950 C   0  0  0  0  0  1  0  0  0  0  0  0
  1  2  1  0
  1  6  2  0
  3  2  1  0
  4 52  1  0
  4  5  1  0
  4  3  1  0
  5  1  1  0
  8  7  1  0
  9 11  1  0
 10  9  2  0
 10 12  1  0
 11  5  1  0
 11  7  2  0
 12 23  1  0
 12  8  2  0
 13 10  1  0
 14 23  1  0
 15 20  1  0
 16 17  1  0
 16 15  1  0
 18 17  1  0
 18 27  1  0
 18 19  1  0
 20 14  1  0
 20 19  1  0
 21 14  2  0
 23 22  1  0
 24 25  2  0
 25 44  1  0
 26 25  1  0
 26 29  1  0
 27 28  1  0
 27 24  1  0
 28 26  2  0
 29 30  1  0
 30 31  2  0
 32 35  1  0
 32 31  1  0
 33 32  2  0
 34 33  1  0
 34 29  2  0
 35 36  1  0
 36 41  2  0
 36 37  1  0
 37 38  2  0
 38 39  1  0
 39 43  1  0
 40 39  2  0
 41 40  1  0
 42 41  1  0
 44 45  1  0
 45 48  1  0
 45 47  1  0
 46 44  2  0
 49 24  1  0
 49 50  1  0
 51 49  1  0
 52 53  1  0
 54 65  2  0
 55 53  1  0
 55 60  1  0
 56 64  1  0
 56 66  1  0
 57 63  1  0
 57 59  1  0
 58 64  1  0
 59 58  1  0
 60 59  2  0
 61 62  1  0
 61 55  2  0
 62 57  2  0
 63 56  1  0
 64 54  1  0
 66 68  2  0
 67 66  1  0
 69 67  1  0
 70 79  2  0
 70 75  1  0
 71 67  1  0
 71 75  1  0
 72 71  1  0
 73 74  1  0
 73 72  1  0
 74 70  1  0
 75 76  2  0
 76 77  1  0
 78 77  2  0
 79 78  1  0
 80 54  1  0
 80 81  1  0
 80 90  1  0
 81 84  1  0
 82 86  1  0
 82 81  1  0
 83 82  2  0
 86 85  1  0
 88 86  1  0
 88 89  1  0
 88 87  1  0
 90 93  1  1
 90 91  1  0
 92 90  1  0
M  ISO  4  14 100  23 100  52 101  53 101
M  END
>  <TORSDO>  (14) 
F 18

>  <SCORE>  (14) 
-13.773

>  <name>  (14) 
13

>  <ligand_id>  (14) 
13

>  <original_smiles>  (14) 
[H]c1c([H])c([H])c2c(c1[H])C([H])([H])C([H])([H])C([H])([H])C2([H])N([H])C(=O)C1([H])N(C(=O)C([H])(N([H])C(=O)C([H])(N([H])C([H])([H])[H])C([H])([H])[H])C(C([H])([H])[H])(C([H])([H])[H])C([H])([H])[H])C([H])([H])c2c([H])c(OC([H])([H])C3([H])N(c4c([H])c([H])c(N(C(=O)N5C([H])([H])C([H])([H])C([H])([H])C([H])(n6nc(-c7c([H])c([H])c(Oc8c([H])c([H])c(F)c([H])c8F)c([H])c7[H])c(C(=O)N([H])[H])c6N([H])[H])C5([H])[H])C([H])([H])[H])c(C([H])([H])[H])c4[H])C(=O)C([H])([H])C3([H])[H])c([H])c([H])c2C1([H])[H]

>  <smiles>  (14) 
[H]c1c([H])c([H])c2c(c1[H])C([H])([H])C([H])([H])C([H])([H])C2([H])N([H])C(=O)C1([H])N(C(=O)C([H])(N([H])C(=O)C([H])(N([H])C([H])([H])[H])C([H])([H])[H])C(C([H])([H])[H])(C([H])([H])[H])C([H])([H])[H])C([H])([H])c2c([H])c(OC([H])([H])C3([H])N(c4c([H])c([H])c(N(C(=O)N5C([H])([H])C([H])([H])C([H])([H])C([H])(n6nc(-c7c([H])c([H])c(Oc8c([H])c([H])c(F)c([H])c8F)c([H])c7[H])c(C(=O)N([H])[H])c6N([H])[H])C5([H])[H])C([H])([H])[H])c(C([H])([H])[H])c4[H])C(=O)C([H])([H])C3([H])[H])c([H])c([H])c2C1([H])[H]

$$$$
14:0:0
     RDKit          3D

 94103  0  0  1  0  0  0  0  0999 V2000
  -28.5430  -24.2460   20.7810 C   0  0  0  0  0  0  0  0  0  0  0  0
  -28.2880  -25.5670   21.0140 C   0  0  0  0  0  3  0  0  0  0  0  0
  -28.1760  -23.2070   21.8350 C   0  0  0  0  0  2  0  0  0  0  0  0
  -29.0340  -23.6200   19.4710 C   0  0  0  0  0  2  0  0  0  0  0  0
  -29.1620  -22.0240   21.9460 C   0  0  0  0  0  2  0  0  0  0  0  0
  -29.9070  -22.3220   19.6280 C   0  0  0  0  0  2  0  0  0  0  0  0
  -29.4060  -21.3870   20.6480 N   0  0  0  0  0  0  0  0  0  0  0  0
  -30.8070  -18.0670   21.8160 C   0  0  0  0  0  3  0  0  0  0  0  0
  -30.5400  -19.4540   21.7220 C   0  0  0  0  0  3  0  0  0  0  0  0
  -29.7150  -17.6980   19.7070 C   0  0  0  0  0  3  0  0  0  0  0  0
  -30.3700  -17.1380   20.8360 C   0  0  0  0  0  0  0  0  0  0  0  0
  -29.8100  -20.0090   20.6400 C   0  0  0  0  0  0  0  0  0  0  0  0
  -29.4410  -19.0960   19.6080 C   0  0  0  0  0  0  0  0  0  0  0  0
  -28.7480  -19.5420   18.5310 F   0  0  0  0  0  0  0  0  0  0  0  0
  -30.4710  -15.6460   21.1310 C   0  0  0  0  0  0  0  0  0  0  0  0
  -30.2650  -15.2670   22.3250 N   0  0  0  0  0  0  0  0  0  0  0  0
  -30.0060  -16.0520   22.9100 H   0  0  0  0  0  0  0  0  0  0  0  0
  -30.9110  -14.6410   20.0250 C   0  0  0  0  0  0  0  0  0  0  0  0
  -30.5200  -12.5270   18.7710 C   0  0  0  0  0  2  0  0  0  0  0  0
  -29.4840  -12.7430   17.6460 C   0  0  0  0  0  2  0  0  0  0  0  0
  -28.0440  -12.5810   18.1740 C   0  0  0  0  0  2  0  0  0  0  0  0
  -27.8070  -13.3690   19.4880 C   0  0  0  0  0  3  0  0  0  0  0  0
  -28.9350  -13.0790   20.4990 C   0  0  0  0  0  2  0  0  0  0  0  0
  -30.2200  -13.4600   19.8790 N   0  0  0  0  0  0  0  0  0  0  0  0
  -31.9020  -14.9010   19.3310 O   0  0  0  0  0  0  0  0  0  0  0  0
  -25.4760  -13.9700   20.3950 C   0  0  0  0  0  0  0  0  0  0  0  0
  -24.4330  -13.1920   20.8230 C   0  0  0  0  0  0  0  0  0  0  0  0
  -24.8780  -11.8390   20.7130 C   0  0  0  0  0  0  0  0  0  0  0  0
  -26.4910  -13.0880   20.0570 N   0  0  0  0  0  0  0  0  0  0  0  0
  -26.1380  -11.8010   20.3030 N   0  0  0  0  0  0  0  0  0  0  0  0
  -24.1550  -10.5780   20.9190 C   0  0  0  0  0  0  0  0  0  0  0  0
  -24.6170   -9.6040   21.8310 C   0  0  0  0  0  3  0  0  0  0  0  0
  -23.8970   -8.4060   22.0240 C   0  0  0  0  0  3  0  0  0  0  0  0
  -22.6990   -8.1740   21.3060 C   0  0  0  0  0  0  0  0  0  0  0  0
  -22.2570   -9.1370   20.3820 C   0  0  0  0  0  3  0  0  0  0  0  0
  -22.9780  -10.3260   20.1870 C   0  0  0  0  0  3  0  0  0  0  0  0
  -21.9460   -7.0290   21.4110 O   0  0  0  0  0  0  0  0  0  0  0  0
  -21.8860   -6.3130   22.5790 C   0  0  0  0  0  0  0  0  0  0  0  0
  -21.4600   -6.9000   23.7910 C   0  0  0  0  0  3  0  0  0  0  0  0
  -21.3440   -6.1100   24.9530 C   0  0  0  0  0  3  0  0  0  0  0  0
  -21.6420   -4.7360   24.9030 C   0  0  0  0  0  0  0  0  0  0  0  0
  -22.0600   -4.1490   23.6960 C   0  0  0  0  0  3  0  0  0  0  0  0
  -22.1780   -4.9350   22.5370 C   0  0  0  0  0  0  0  0  0  0  0  0
  -22.5600   -4.3600   21.3710 F   0  0  0  0  0  0  0  0  0  0  0  0
  -21.5230   -3.9750   26.0160 F   0  0  0  0  0  0  0  0  0  0  0  0
  -23.0650  -13.6710   21.2180 C   0  0  0  0  0  0  0  0  0  0  0  0
  -22.4060  -12.9590   22.1260 N   0  0  0  0  0  0  0  0  0  0  0  0
  -22.5940  -14.7090   20.7570 O   0  0  0  0  0  0  0  0  0  0  0  0
  -22.8020  -12.1150   22.5150 H   0  0  0  0  0  0  0  0  0  0  0  0
  -21.4940  -13.2620   22.4350 H   0  0  0  0  0  0  0  0  0  0  0  0
  -25.6390  -15.3440   20.2480 N   0  0  0  0  0  0  0  0  0  0  0  0
  -24.8920  -16.0030   20.4370 H   0  0  0  0  0  0  0  0  0  0  0  0
  -26.4730  -15.7830   19.8790 H   0  0  0  0  0  0  0  0  0  0  0  0
  -28.3970  -26.6400   20.1450 O   0  0  0  0  0  0  0  0  0  0  0  0
  -24.6860  -31.9180   23.2660 C   0  0  0  0  0  0  0  0  0  0  0  0
  -27.2870  -27.4650   20.1300 C   0  0  0  0  0  0  0  0  0  0  0  0
  -23.4560  -30.5130   21.6430 C   0  0  0  0  0  3  0  0  0  0  0  0
  -24.8920  -28.9850   20.1820 C   0  0  0  0  0  0  0  0  0  0  0  0
  -25.9800  -30.8760   21.4030 C   0  0  0  0  0  2  0  0  0  0  0  0
  -26.0630  -29.5060   20.7520 C   0  0  0  0  0  0  0  0  0  0  0  0
  -27.2670  -28.7540   20.7230 C   0  0  0  0  0  3  0  0  0  0  0  0
  -26.1010  -26.9690   19.5520 C   0  0  0  0  0  3  0  0  0  0  0  0
  -24.9090  -27.7160   19.5750 C   0  0  0  0  0  3  0  0  0  0  0  0
  -23.6450  -29.8390   20.2570 C   0  0  0  0  0  2  0  0  0  0  0  0
  -24.7260  -31.1180   22.1620 N   0  0  0  0  0  0  0  0  0  0  0  0
  -23.6150  -32.1850   23.8280 O   0  0  0  0  0  0  0  0  0  0  0  0
  -22.8260  -29.4880   22.6150 C   0  0  0  0  0  0  0  0  0  0  0  0
  -21.5020  -29.2860   22.4990 N   0  0  0  0  0  0  0  0  0  0  0  0
  -23.5230  -28.8760   23.4280 O   0  0  0  0  0  0  0  0  0  0  0  0
  -20.9990  -29.8340   21.8140 H   0  0  0  0  0  0  0  0  0  0  0  0
  -18.1610  -27.9910   22.9750 C   0  0  0  0  0  0  0  0  0  0  0  0
  -20.7050  -28.3400   23.2800 C   0  0  0  0  0  3  0  0  0  0  0  0
  -20.8630  -26.9000   22.7420 C   0  0  0  0  0  2  0  0  0  0  0  0
  -19.7890  -26.5180   21.7180 C   0  0  0  0  0  2  0  0  0  0  0  0
  -18.3940  -26.6330   22.3360 C   0  0  0  0  0  2  0  0  0  0  0  0
  -19.2460  -28.7990   23.4030 C   0  0  0  0  0  0  0  0  0  0  0  0
  -18.9780  -30.0680   23.9600 C   0  0  0  0  0  3  0  0  0  0  0  0
  -17.6540  -30.5290   24.0930 C   0  0  0  0  0  3  0  0  0  0  0  0
  -16.5830  -29.7170   23.6850 C   0  0  0  0  0  3  0  0  0  0  0  0
  -16.8360  -28.4490   23.1310 C   0  0  0  0  0  3  0  0  0  0  0  0
  -25.9820  -32.5530   23.8620 C   0  0  0  0  0  3  0  0  0  0  0  0
  -25.6780  -33.9530   24.1890 N   0  0  0  0  0  0  0  0  0  0  0  0
  -26.0010  -35.0010   23.4200 C   0  0  0  0  0  0  0  0  0  0  0  0
  -26.6590  -34.8920   22.3820 O   0  0  0  0  0  0  0  0  0  0  0  0
  -25.1040  -34.1120   25.0030 H   0  0  0  0  0  0  0  0  0  0  0  0
  -24.2750  -36.7930   23.0630 C   0  0  0  0  0  1  0  0  0  0  0  0
  -25.5160  -36.3910   23.8760 C   0  0  0  0  0  3  0  0  0  0  0  0
  -27.6610  -37.2680   24.6910 C   0  0  0  0  0  1  0  0  0  0  0  0
  -26.5490  -37.4440   23.7590 N   0  0  0  0  0  0  0  0  0  0  0  0
  -26.1460  -38.3630   23.9200 H   0  0  0  0  0  0  0  0  0  0  0  0
  -26.5190  -31.7900   25.1350 C   0  0  1  0  0  0  0  0  0  0  0  0
  -25.4450  -31.5600   26.2220 C   0  0  0  0  0  1  0  0  0  0  0  0
  -27.0960  -30.4110   24.7400 C   0  0  0  0  0  1  0  0  0  0  0  0
  -27.6820  -32.5890   25.7720 C   0  0  0  0  0  1  0  0  0  0  0  0
  1  2  2  0
  1  3  1  0
  3  5  1  0
  4  6  1  0
  4  1  1  0
  6  7  1  0
  7  5  1  0
  9  8  1  0
 10 11  1  0
 11 15  1  0
 11  8  2  0
 12  7  1  0
 12  9  2  0
 13 10  2  0
 13 12  1  0
 14 13  1  0
 15 16  2  0
 16 17  1  0
 18 15  1  0
 19 24  1  0
 20 21  1  0
 20 19  1  0
 22 21  1  0
 22 29  1  0
 22 23  1  0
 24 18  1  0
 24 23  1  0
 25 18  2  0
 26 27  2  0
 27 46  1  0
 28 27  1  0
 28 31  1  0
 29 30  1  0
 29 26  1  0
 30 28  2  0
 31 32  1  0
 32 33  2  0
 34 37  1  0
 34 33  1  0
 35 34  2  0
 36 35  1  0
 36 31  2  0
 37 38  1  0
 38 39  1  0
 39 40  2  0
 41 40  1  0
 41 45  1  0
 42 41  2  0
 43 38  2  0
 43 42  1  0
 44 43  1  0
 46 47  1  0
 47 50  1  0
 47 49  1  0
 48 46  2  0
 51 26  1  0
 51 52  1  0
 53 51  1  0
 54  2  1  0
 55 66  2  0
 56 54  1  0
 56 61  1  0
 57 65  1  0
 57 67  1  0
 58 64  1  0
 58 60  1  0
 59 65  1  0
 60 59  1  0
 61 60  2  0
 62 63  1  0
 62 56  2  0
 63 58  2  0
 64 57  1  0
 65 55  1  0
 67 69  2  0
 68 67  1  0
 70 68  1  0
 71 80  2  0
 71 76  1  0
 72 68  1  0
 72 76  1  0
 73 72  1  0
 74 75  1  0
 74 73  1  0
 75 71  1  0
 76 77  2  0
 77 78  1  0
 79 78  2  0
 80 79  1  0
 81 55  1  0
 81 82  1  0
 81 91  1  0
 82 85  1  0
 83 87  1  0
 83 82  1  0
 84 83  2  0
 87 86  1  0
 89 87  1  0
 89 90  1  0
 89 88  1  0
 91 94  1  1
 91 92  1  0
 93 91  1  0
M  ISO  4   2 101  15 100  18 100  54 101
M  END
>  <TORSDO>  (15) 
F 18

>  <SCORE>  (15) 
-13.991

>  <name>  (15) 
14

>  <ligand_id>  (15) 
14

>  <original_smiles>  (15) 
[H]N=C(C(=O)N1C([H])([H])C([H])([H])C([H])([H])C([H])(n2nc(-c3c([H])c([H])c(Oc4c([H])c([H])c(F)c([H])c4F)c([H])c3[H])c(C(=O)N([H])[H])c2N([H])[H])C1([H])[H])c1c([H])c([H])c(N2C([H])([H])C([H])([H])C(=C([H])Oc3c([H])c([H])c4c(c3[H])C([H])([H])N(C(=O)C([H])(N([H])C(=O)C([H])(N([H])C([H])([H])[H])C([H])([H])[H])C(C([H])([H])[H])(C([H])([H])[H])C([H])([H])[H])C([H])(C(=O)N([H])C3([H])c5c([H])c([H])c([H])c([H])c5C([H])([H])C([H])([H])C3([H])[H])C4([H])[H])C([H])([H])C2([H])[H])c(F)c1[H]

>  <smiles>  (15) 
[H]N=C(C(=O)N1C([H])([H])C([H])([H])C([H])([H])C([H])(n2nc(-c3c([H])c([H])c(Oc4c([H])c([H])c(F)c([H])c4F)c([H])c3[H])c(C(=O)N([H])[H])c2N([H])[H])C1([H])[H])c1c([H])c([H])c(N2C([H])([H])C([H])([H])C(=C([H])Oc3c([H])c([H])c4c(c3[H])C([H])([H])N(C(=O)C([H])(N([H])C(=O)C([H])(N([H])C([H])([H])[H])C([H])([H])[H])C(C([H])([H])[H])(C([H])([H])[H])C([H])([H])[H])C([H])(C(=O)N([H])C3([H])c5c([H])c([H])c([H])c([H])c5C([H])([H])C([H])([H])C3([H])[H])C4([H])[H])C([H])([H])C2([H])[H])c(F)c1[H]

$$$$
15:0:0
     RDKit          3D

 98108  0  0  1  0  0  0  0  0999 V2000
  -31.0360  -18.1140   18.6150 C   0  0  0  0  0  3  0  0  0  0  0  0
  -31.7020  -18.8560   17.6280 C   0  0  0  0  0  3  0  0  0  0  0  0
  -30.8810  -20.8780   18.6300 C   0  0  0  0  0  3  0  0  0  0  0  0
  -30.2740  -18.6930   19.6590 C   0  0  0  0  0  0  0  0  0  0  0  0
  -31.6650  -20.2630   17.6280 C   0  0  0  0  0  0  0  0  0  0  0  0
  -30.1150  -20.1900   19.6170 C   0  0  0  0  0  0  0  0  0  0  0  0
  -32.3630  -22.3240   16.3390 C   0  0  0  0  0  0  0  0  0  0  0  0
  -33.2790  -22.6940   15.1840 C   0  0  0  0  0  2  0  0  0  0  0  0
  -33.9860  -21.3930   14.8330 C   0  0  0  0  0  3  0  0  0  0  0  0
  -33.3190  -20.3200   15.7030 C   0  0  0  0  0  3  0  0  0  0  0  0
  -32.4120  -21.0020   16.6300 N   0  0  0  0  0  0  0  0  0  0  0  0
  -31.6780  -23.1930   16.8870 O   0  0  0  0  0  0  0  0  0  0  0  0
  -28.7030  -23.6830   20.3030 C   0  0  0  0  0  0  0  0  0  0  0  0
  -28.1490  -24.8970   19.8580 C   0  0  0  0  0  3  0  0  0  0  0  0
  -29.5950  -23.4190   21.4910 C   0  0  0  0  0  2  0  0  0  0  0  0
  -28.5300  -22.2410   19.6940 C   0  0  0  0  0  2  0  0  0  0  0  0
  -30.1010  -21.9300   21.3960 C   0  0  0  0  0  2  0  0  0  0  0  0
  -29.3270  -21.1500   20.4050 N   0  0  0  0  0  0  0  0  0  0  0  0
  -28.2530  -26.2680   20.3140 O   0  0  0  0  0  0  0  0  0  0  0  0
  -24.5830  -31.8810   23.2540 C   0  0  0  0  0  0  0  0  0  0  0  0
  -27.1700  -27.2040   20.2300 C   0  0  0  0  0  0  0  0  0  0  0  0
  -23.3810  -30.4840   21.6120 C   0  0  0  0  0  3  0  0  0  0  0  0
  -24.8320  -28.9180   20.1960 C   0  0  0  0  0  0  0  0  0  0  0  0
  -25.9360  -30.7610   21.4540 C   0  0  0  0  0  2  0  0  0  0  0  0
  -26.0080  -29.3730   20.8040 C   0  0  0  0  0  0  0  0  0  0  0  0
  -27.1750  -28.5280   20.8110 C   0  0  0  0  0  3  0  0  0  0  0  0
  -25.9550  -26.8300   19.6080 C   0  0  0  0  0  3  0  0  0  0  0  0
  -24.8150  -27.6560   19.5860 C   0  0  0  0  0  3  0  0  0  0  0  0
  -23.6030  -29.8070   20.2350 C   0  0  0  0  0  2  0  0  0  0  0  0
  -24.6520  -31.0640   22.1610 N   0  0  0  0  0  0  0  0  0  0  0  0
  -23.4950  -32.1700   23.7760 O   0  0  0  0  0  0  0  0  0  0  0  0
  -22.7040  -29.4750   22.5720 C   0  0  0  0  0  0  0  0  0  0  0  0
  -21.3770  -29.3010   22.4370 N   0  0  0  0  0  0  0  0  0  0  0  0
  -23.3730  -28.8530   23.4000 O   0  0  0  0  0  0  0  0  0  0  0  0
  -20.8960  -29.8570   21.7450 H   0  0  0  0  0  0  0  0  0  0  0  0
  -17.9910  -28.0980   22.8960 C   0  0  0  0  0  0  0  0  0  0  0  0
  -20.5470  -28.3670   23.2020 C   0  0  0  0  0  3  0  0  0  0  0  0
  -20.6590  -26.9300   22.6400 C   0  0  0  0  0  2  0  0  0  0  0  0
  -19.5700  -26.5970   21.6140 C   0  0  0  0  0  2  0  0  0  0  0  0
  -18.1780  -26.7430   22.2360 C   0  0  0  0  0  2  0  0  0  0  0  0
  -19.1010  -28.8680   23.3350 C   0  0  0  0  0  0  0  0  0  0  0  0
  -18.8690  -30.1350   23.9110 C   0  0  0  0  0  3  0  0  0  0  0  0
  -17.5600  -30.6300   24.0590 C   0  0  0  0  0  3  0  0  0  0  0  0
  -16.4640  -29.8570   23.6360 C   0  0  0  0  0  3  0  0  0  0  0  0
  -16.6800  -28.5940   23.0570 C   0  0  0  0  0  3  0  0  0  0  0  0
  -25.8630  -32.5090   23.8880 C   0  0  0  0  0  3  0  0  0  0  0  0
  -26.3590  -31.7410   25.1750 C   0  0  1  0  0  0  0  0  0  0  0  0
  -25.2530  -31.5200   26.2340 C   0  0  0  0  0  1  0  0  0  0  0  0
  -26.9370  -30.3570   24.8020 C   0  0  0  0  0  1  0  0  0  0  0  0
  -27.5120  -32.5320   25.8400 C   0  0  0  0  0  1  0  0  0  0  0  0
  -25.5590  -33.9120   24.2100 N   0  0  0  0  0  0  0  0  0  0  0  0
  -25.8900  -34.9570   23.4420 C   0  0  0  0  0  0  0  0  0  0  0  0
  -26.5510  -34.8450   22.4060 O   0  0  0  0  0  0  0  0  0  0  0  0
  -24.9690  -34.0780   25.0130 H   0  0  0  0  0  0  0  0  0  0  0  0
  -24.1650  -36.7530   23.0930 C   0  0  0  0  0  1  0  0  0  0  0  0
  -25.4120  -36.3500   23.8960 C   0  0  0  0  0  3  0  0  0  0  0  0
  -27.5540  -37.2330   24.7040 C   0  0  0  0  0  1  0  0  0  0  0  0
  -26.4470  -37.3990   23.7660 N   0  0  0  0  0  0  0  0  0  0  0  0
  -26.0430  -38.3210   23.9090 H   0  0  0  0  0  0  0  0  0  0  0  0
  -29.8360  -17.5710   20.7300 C   0  0  0  0  0  2  0  0  0  0  0  0
  -30.5210  -14.8870   20.3500 C   0  0  0  0  0  0  0  0  0  0  0  0
  -30.3630  -12.5750   19.3550 C   0  0  0  0  0  2  0  0  0  0  0  0
  -29.4020  -12.5730   18.1450 C   0  0  0  0  0  2  0  0  0  0  0  0
  -27.9420  -12.3730   18.5980 C   0  0  0  0  0  2  0  0  0  0  0  0
  -27.5620  -13.2870   19.7930 C   0  0  0  0  0  3  0  0  0  0  0  0
  -28.6360  -13.2560   20.9020 C   0  0  0  0  0  2  0  0  0  0  0  0
  -29.9110  -13.6440   20.2810 N   0  0  0  0  0  0  0  0  0  0  0  0
  -31.7280  -14.9700   20.1160 O   0  0  0  0  0  0  0  0  0  0  0  0
  -29.7040  -16.0260   20.4630 N   0  0  0  0  0  0  0  0  0  0  0  0
  -28.7370  -15.7430   20.5150 H   0  0  0  0  0  0  0  0  0  0  0  0
  -25.1920  -13.8800   20.5680 C   0  0  0  0  0  0  0  0  0  0  0  0
  -24.1280  -13.1070   20.9450 C   0  0  0  0  0  0  0  0  0  0  0  0
  -24.5850  -11.7540   20.8920 C   0  0  0  0  0  0  0  0  0  0  0  0
  -26.2290  -12.9980   20.3070 N   0  0  0  0  0  0  0  0  0  0  0  0
  -25.8720  -11.7140   20.5680 N   0  0  0  0  0  0  0  0  0  0  0  0
  -23.8550  -10.4930   21.0720 C   0  0  0  0  0  0  0  0  0  0  0  0
  -24.2850   -9.5150   21.9970 C   0  0  0  0  0  3  0  0  0  0  0  0
  -23.5540   -8.3200   22.1670 C   0  0  0  0  0  3  0  0  0  0  0  0
  -22.3770   -8.0940   21.4130 C   0  0  0  0  0  0  0  0  0  0  0  0
  -21.9670   -9.0600   20.4790 C   0  0  0  0  0  3  0  0  0  0  0  0
  -22.6980  -10.2470   20.3060 C   0  0  0  0  0  3  0  0  0  0  0  0
  -21.6170   -6.9520   21.4930 O   0  0  0  0  0  0  0  0  0  0  0  0
  -21.5610   -6.2050   22.6420 C   0  0  0  0  0  0  0  0  0  0  0  0
  -21.1230   -6.7520   23.8670 C   0  0  0  0  0  3  0  0  0  0  0  0
  -21.0170   -5.9310   25.0070 C   0  0  0  0  0  3  0  0  0  0  0  0
  -21.3360   -4.5620   24.9220 C   0  0  0  0  0  0  0  0  0  0  0  0
  -21.7660   -4.0150   23.7000 C   0  0  0  0  0  3  0  0  0  0  0  0
  -21.8750   -4.8330   22.5630 C   0  0  0  0  0  0  0  0  0  0  0  0
  -22.2680   -4.2960   21.3830 F   0  0  0  0  0  0  0  0  0  0  0  0
  -21.2280   -3.7710   26.0150 F   0  0  0  0  0  0  0  0  0  0  0  0
  -22.7360  -13.5850   21.2350 C   0  0  0  0  0  0  0  0  0  0  0  0
  -22.0090  -12.8760   22.0910 N   0  0  0  0  0  0  0  0  0  0  0  0
  -22.3000  -14.6220   20.7370 O   0  0  0  0  0  0  0  0  0  0  0  0
  -22.3750  -12.0360   22.5170 H   0  0  0  0  0  0  0  0  0  0  0  0
  -21.0730  -13.1750   22.3250 H   0  0  0  0  0  0  0  0  0  0  0  0
  -25.3560  -15.2520   20.4000 N   0  0  0  0  0  0  0  0  0  0  0  0
  -24.5850  -15.9010   20.5140 H   0  0  0  0  0  0  0  0  0  0  0  0
  -26.1850  -15.6930   20.0230 H   0  0  0  0  0  0  0  0  0  0  0  0
  1  4  1  0
  2  5  1  0
  2  1  2  0
  3  6  1  0
  4 60  1  0
  5  3  2  0
  6  4  2  0
  6 18  1  0
  7 11  1  0
  7 12  2  0
  8  7  1  0
  9  8  1  0
  9 10  2  0
 10 11  1  0
 11  5  1  0
 13 15  1  0
 14 13  2  0
 14 19  1  0
 16 13  1  0
 16 18  1  0
 17 15  1  0
 18 17  1  0
 20 31  2  0
 21 19  1  0
 21 26  1  0
 22 30  1  0
 22 32  1  0
 23 29  1  0
 23 25  1  0
 24 30  1  0
 25 26  2  0
 25 24  1  0
 27 21  2  0
 28 27  1  0
 28 23  2  0
 29 22  1  0
 30 20  1  0
 32 34  2  0
 33 32  1  0
 35 33  1  0
 36 45  2  0
 36 41  1  0
 37 33  1  0
 37 41  1  0
 38 37  1  0
 39 40  1  0
 39 38  1  0
 40 36  1  0
 41 42  2  0
 42 43  1  0
 44 43  2  0
 45 44  1  0
 46 20  1  0
 46 51  1  0
 46 47  1  0
 47 50  1  1
 47 48  1  0
 49 47  1  0
 51 54  1  0
 52 56  1  0
 52 51  1  0
 53 52  2  0
 56 55  1  0
 58 56  1  0
 58 59  1  0
 58 57  1  0
 61 69  1  0
 62 67  1  0
 63 64  1  0
 63 62  1  0
 65 64  1  0
 65 74  1  0
 65 66  1  0
 67 61  1  0
 67 66  1  0
 68 61  2  0
 69 70  1  0
 69 60  1  0
 71 72  2  0
 72 91  1  0
 73 72  1  0
 73 76  1  0
 74 75  1  0
 74 71  1  0
 75 73  2  0
 76 77  1  0
 77 78  2  0
 79 82  1  0
 79 78  1  0
 80 79  2  0
 81 80  1  0
 81 76  2  0
 82 83  1  0
 83 84  1  0
 84 85  2  0
 86 85  1  0
 86 90  1  0
 87 86  2  0
 88 83  2  0
 88 87  1  0
 89 88  1  0
 91 92  1  0
 92 95  1  0
 92 94  1  0
 93 91  2  0
 96 97  1  0
 96 71  1  0
 98 96  1  0
M  ISO  4  14 101  19 101  61 100  69 100
M  END
>  <TORSDO>  (16) 
F 19

>  <SCORE>  (16) 
-14.376

>  <name>  (16) 
15

>  <ligand_id>  (16) 
15

>  <original_smiles>  (16) 
[H]C(Oc1c([H])c([H])c2c(c1[H])C([H])([H])N(C(=O)C([H])(N([H])C(=O)C([H])(N([H])C([H])([H])[H])C([H])([H])[H])C(C([H])([H])[H])(C([H])([H])[H])C([H])([H])[H])C([H])(C(=O)N([H])C1([H])c3c([H])c([H])c([H])c([H])c3C([H])([H])C([H])([H])C1([H])[H])C2([H])[H])=C1C([H])([H])N(c2c([H])c(N3C(=O)C([H])([H])C([H])([H])C3([H])[H])c([H])c([H])c2C([H])([H])N([H])C(=O)N2C([H])([H])C([H])([H])C([H])([H])C([H])(n3nc(-c4c([H])c([H])c(Oc5c([H])c([H])c(F)c([H])c5F)c([H])c4[H])c(C(=O)N([H])[H])c3N([H])[H])C2([H])[H])C([H])([H])C1([H])[H]

>  <smiles>  (16) 
[H]C(Oc1c([H])c([H])c2c(c1[H])C([H])([H])N(C(=O)C([H])(N([H])C(=O)C([H])(N([H])C([H])([H])[H])C([H])([H])[H])C(C([H])([H])[H])(C([H])([H])[H])C([H])([H])[H])C([H])(C(=O)N([H])C1([H])c3c([H])c([H])c([H])c([H])c3C([H])([H])C([H])([H])C1([H])[H])C2([H])[H])=C1C([H])([H])N(c2c([H])c(N3C(=O)C([H])([H])C([H])([H])C3([H])[H])c([H])c([H])c2C([H])([H])N([H])C(=O)N2C([H])([H])C([H])([H])C([H])([H])C([H])(n3nc(-c4c([H])c([H])c(Oc5c([H])c([H])c(F)c([H])c5F)c([H])c4[H])c(C(=O)N([H])[H])c3N([H])[H])C2([H])[H])C([H])([H])C1([H])[H]

$$$$
16:0:0
     RDKit          3D

 96105  0  0  1  0  0  0  0  0999 V2000
  -30.2260  -20.9500   19.0570 C   0  0  0  0  0  2  0  0  0  0  0  0
  -31.2260  -23.0890   19.8390 C   0  0  0  0  0  0  0  0  0  0  0  0
  -30.7510  -24.4880   20.2080 C   0  0  0  0  0  2  0  0  0  0  0  0
  -28.9640  -22.8210   20.2430 C   0  0  0  0  0  2  0  0  0  0  0  0
  -29.2710  -24.3070   20.5740 C   0  0  0  0  0  3  0  0  0  0  0  0
  -30.2210  -22.2020   19.8380 N   0  0  0  0  0  0  0  0  0  0  0  0
  -32.3940  -22.8550   19.5130 O   0  0  0  0  0  0  0  0  0  0  0  0
  -28.2720  -25.2630   19.8720 C   0  0  0  0  0  2  0  0  0  0  0  0
  -28.3770  -26.6630   20.2120 O   0  0  0  0  0  0  0  0  0  0  0  0
  -24.5580  -31.8720   23.2390 C   0  0  0  0  0  0  0  0  0  0  0  0
  -27.2140  -27.4210   20.1540 C   0  0  0  0  0  0  0  0  0  0  0  0
  -23.3630  -30.4820   21.5830 C   0  0  0  0  0  3  0  0  0  0  0  0
  -24.8230  -28.9570   20.1540 C   0  0  0  0  0  0  0  0  0  0  0  0
  -25.8950  -30.8300   21.4100 C   0  0  0  0  0  2  0  0  0  0  0  0
  -25.9810  -29.4640   20.7570 C   0  0  0  0  0  0  0  0  0  0  0  0
  -27.1760  -28.7030   20.7560 C   0  0  0  0  0  3  0  0  0  0  0  0
  -26.0360  -26.9520   19.5180 C   0  0  0  0  0  3  0  0  0  0  0  0
  -24.8480  -27.7000   19.5310 C   0  0  0  0  0  3  0  0  0  0  0  0
  -23.5800  -29.8160   20.1990 C   0  0  0  0  0  2  0  0  0  0  0  0
  -24.6230  -31.0780   22.1340 N   0  0  0  0  0  0  0  0  0  0  0  0
  -23.4740  -32.1450   23.7720 O   0  0  0  0  0  0  0  0  0  0  0  0
  -22.7030  -29.4550   22.5320 C   0  0  0  0  0  0  0  0  0  0  0  0
  -21.3800  -29.2710   22.3900 N   0  0  0  0  0  0  0  0  0  0  0  0
  -23.3800  -28.8270   23.3510 O   0  0  0  0  0  0  0  0  0  0  0  0
  -20.8960  -29.8290   21.7010 H   0  0  0  0  0  0  0  0  0  0  0  0
  -17.9980  -28.0890   22.8660 C   0  0  0  0  0  0  0  0  0  0  0  0
  -20.5560  -28.3300   23.1490 C   0  0  0  0  0  3  0  0  0  0  0  0
  -20.6530  -26.9040   22.5600 C   0  0  0  0  0  2  0  0  0  0  0  0
  -19.5520  -26.5970   21.5390 C   0  0  0  0  0  2  0  0  0  0  0  0
  -18.1690  -26.7440   22.1800 C   0  0  0  0  0  2  0  0  0  0  0  0
  -19.1190  -28.8400   23.3070 C   0  0  0  0  0  0  0  0  0  0  0  0
  -18.9060  -30.0990   23.9090 C   0  0  0  0  0  3  0  0  0  0  0  0
  -17.6030  -30.6070   24.0730 C   0  0  0  0  0  3  0  0  0  0  0  0
  -16.4960  -29.8520   23.6490 C   0  0  0  0  0  3  0  0  0  0  0  0
  -16.6940  -28.5950   23.0520 C   0  0  0  0  0  3  0  0  0  0  0  0
  -25.8410  -32.4980   23.8700 C   0  0  0  0  0  3  0  0  0  0  0  0
  -26.3430  -31.7280   25.1530 C   0  0  1  0  0  0  0  0  0  0  0  0
  -25.2390  -31.4950   26.2090 C   0  0  0  0  0  1  0  0  0  0  0  0
  -26.9250  -30.3480   24.7690 C   0  0  0  0  0  1  0  0  0  0  0  0
  -27.4880  -32.5220   25.8240 C   0  0  0  0  0  1  0  0  0  0  0  0
  -25.5360  -33.8990   24.1920 N   0  0  0  0  0  0  0  0  0  0  0  0
  -25.8850  -34.9460   23.4320 C   0  0  0  0  0  0  0  0  0  0  0  0
  -26.5670  -34.8350   22.4100 O   0  0  0  0  0  0  0  0  0  0  0  0
  -24.9310  -34.0600   24.9840 H   0  0  0  0  0  0  0  0  0  0  0  0
  -24.1770  -36.7500   23.0410 C   0  0  0  0  0  1  0  0  0  0  0  0
  -25.3980  -36.3390   23.8780 C   0  0  0  0  0  3  0  0  0  0  0  0
  -27.5190  -37.2100   24.7540 C   0  0  0  0  0  1  0  0  0  0  0  0
  -26.4420  -37.3840   23.7850 N   0  0  0  0  0  0  0  0  0  0  0  0
  -26.0390  -38.3070   23.9190 H   0  0  0  0  0  0  0  0  0  0  0  0
  -28.9670  -18.9560   20.0020 C   0  0  0  0  0  3  0  0  0  0  0  0
  -28.9110  -17.6210   20.4610 C   0  0  0  0  0  3  0  0  0  0  0  0
  -31.3340  -17.5810   20.6140 C   0  0  0  0  0  3  0  0  0  0  0  0
  -30.2040  -19.6080   19.8050 C   0  0  0  0  0  0  0  0  0  0  0  0
  -30.0960  -16.8940   20.7140 C   0  0  0  0  0  0  0  0  0  0  0  0
  -31.3930  -18.9230   20.1630 C   0  0  0  0  0  0  0  0  0  0  0  0
  -30.6790  -14.4870   20.5000 C   0  0  0  0  0  0  0  0  0  0  0  0
  -30.3720  -12.3270   19.3500 C   0  0  0  0  0  2  0  0  0  0  0  0
  -29.4360  -12.5450   18.1420 C   0  0  0  0  0  2  0  0  0  0  0  0
  -27.9620  -12.4040   18.5660 C   0  0  0  0  0  2  0  0  0  0  0  0
  -27.6210  -13.2360   19.8310 C   0  0  0  0  0  3  0  0  0  0  0  0
  -28.6740  -13.0130   20.9420 C   0  0  0  0  0  2  0  0  0  0  0  0
  -30.0030  -13.3100   20.3820 N   0  0  0  0  0  0  0  0  0  0  0  0
  -31.8070  -14.6510   20.0260 O   0  0  0  0  0  0  0  0  0  0  0  0
  -29.9810  -15.5050   21.0510 N   0  0  0  0  0  0  0  0  0  0  0  0
  -29.0870  -15.2180   21.4180 H   0  0  0  0  0  0  0  0  0  0  0  0
  -25.2190  -13.8420   20.5350 C   0  0  0  0  0  0  0  0  0  0  0  0
  -24.1510  -13.0700   20.9040 C   0  0  0  0  0  0  0  0  0  0  0  0
  -24.6120  -11.7180   20.8720 C   0  0  0  0  0  0  0  0  0  0  0  0
  -26.2650  -12.9620   20.3060 N   0  0  0  0  0  0  0  0  0  0  0  0
  -25.9020  -11.6780   20.5650 N   0  0  0  0  0  0  0  0  0  0  0  0
  -23.8850  -10.4550   21.0620 C   0  0  0  0  0  0  0  0  0  0  0  0
  -24.3170   -9.4870   21.9940 C   0  0  0  0  0  3  0  0  0  0  0  0
  -23.5910   -8.2890   22.1710 C   0  0  0  0  0  3  0  0  0  0  0  0
  -22.4190   -8.0520   21.4130 C   0  0  0  0  0  0  0  0  0  0  0  0
  -22.0060   -9.0100   20.4700 C   0  0  0  0  0  3  0  0  0  0  0  0
  -22.7320  -10.1990   20.2920 C   0  0  0  0  0  3  0  0  0  0  0  0
  -21.6650   -6.9060   21.4990 O   0  0  0  0  0  0  0  0  0  0  0  0
  -21.6190   -6.1590   22.6470 C   0  0  0  0  0  0  0  0  0  0  0  0
  -21.1770   -6.7030   23.8740 C   0  0  0  0  0  3  0  0  0  0  0  0
  -21.0800   -5.8810   25.0140 C   0  0  0  0  0  3  0  0  0  0  0  0
  -21.4120   -4.5160   24.9300 C   0  0  0  0  0  0  0  0  0  0  0  0
  -21.8470   -3.9710   23.7080 C   0  0  0  0  0  3  0  0  0  0  0  0
  -21.9470   -4.7900   22.5700 C   0  0  0  0  0  0  0  0  0  0  0  0
  -22.3460   -4.2560   21.3910 F   0  0  0  0  0  0  0  0  0  0  0  0
  -21.3100   -3.7240   26.0230 F   0  0  0  0  0  0  0  0  0  0  0  0
  -22.7520  -13.5470   21.1720 C   0  0  0  0  0  0  0  0  0  0  0  0
  -22.0200  -12.8480   22.0320 N   0  0  0  0  0  0  0  0  0  0  0  0
  -22.3160  -14.5750   20.6550 O   0  0  0  0  0  0  0  0  0  0  0  0
  -22.3840  -12.0190   22.4760 H   0  0  0  0  0  0  0  0  0  0  0  0
  -21.0810  -13.1490   22.2520 H   0  0  0  0  0  0  0  0  0  0  0  0
  -25.3820  -15.2120   20.3560 N   0  0  0  0  0  0  0  0  0  0  0  0
  -24.6070  -15.8600   20.4470 H   0  0  0  0  0  0  0  0  0  0  0  0
  -26.2180  -15.6440   19.9840 H   0  0  0  0  0  0  0  0  0  0  0  0
  -32.6360  -19.5410   20.0290 N   0  0  0  0  0  0  0  0  0  0  0  0
  -33.4310  -19.1670   20.5390 H   0  0  0  0  0  0  0  0  0  0  0  0
  -32.6740  -20.5520   19.9160 H   0  0  0  0  0  0  0  0  0  0  0  0
  1 53  1  0
  1  6  1  0
  2  3  1  0
  3  5  1  0
  4  5  1  0
  5  8  1  0
  6  2  1  0
  6  4  1  0
  7  2  2  0
  8  9  1  0
 10 21  2  0
 11  9  1  0
 11 16  1  0
 12 20  1  0
 12 22  1  0
 13 19  1  0
 13 15  1  0
 14 20  1  0
 15 14  1  0
 16 15  2  0
 17 18  1  0
 17 11  2  0
 18 13  2  0
 19 12  1  0
 20 10  1  0
 22 24  2  0
 23 22  1  0
 25 23  1  0
 26 35  2  0
 26 31  1  0
 27 23  1  0
 27 31  1  0
 28 27  1  0
 29 30  1  0
 29 28  1  0
 30 26  1  0
 31 32  2  0
 32 33  1  0
 34 33  2  0
 35 34  1  0
 36 10  1  0
 36 41  1  0
 36 37  1  0
 37 40  1  1
 37 38  1  0
 39 37  1  0
 41 44  1  0
 42 46  1  0
 42 41  1  0
 43 42  2  0
 46 45  1  0
 48 46  1  0
 48 49  1  0
 48 47  1  0
 50 51  1  0
 51 54  2  0
 52 54  1  0
 53 50  2  0
 53 55  1  0
 54 64  1  0
 55 52  2  0
 56 64  1  0
 57 62  1  0
 58 59  1  0
 58 57  1  0
 60 59  1  0
 60 69  1  0
 60 61  1  0
 62 56  1  0
 62 61  1  0
 63 56  2  0
 64 65  1  0
 66 67  2  0
 67 86  1  0
 68 67  1  0
 68 71  1  0
 69 66  1  0
 69 70  1  0
 70 68  2  0
 71 72  1  0
 72 73  2  0
 74 77  1  0
 74 73  1  0
 75 74  2  0
 76 75  1  0
 76 71  2  0
 77 78  1  0
 78 79  1  0
 79 80  2  0
 81 80  1  0
 81 85  1  0
 82 81  2  0
 83 78  2  0
 83 82  1  0
 84 83  1  0
 86 87  1  0
 87 90  1  0
 87 89  1  0
 88 86  2  0
 91 92  1  0
 91 66  1  0
 93 91  1  0
 94 55  1  0
 94 95  1  0
 96 94  1  0
M  ISO  4   8 101   9 101  56 100  64 100
M  END
>  <TORSDO>  (17) 
F 20

>  <SCORE>  (17) 
-14.349

>  <name>  (17) 
16

>  <ligand_id>  (17) 
16

>  <original_smiles>  (17) 
[H]c1c([H])c([H])c2c(c1[H])C([H])([H])C([H])([H])C([H])([H])C2([H])N([H])C(=O)C1([H])N(C(=O)C([H])(N([H])C(=O)C([H])(N([H])C([H])([H])[H])C([H])([H])[H])C(C([H])([H])[H])(C([H])([H])[H])C([H])([H])[H])C([H])([H])c2c([H])c(OC([H])([H])C3([H])C([H])([H])C(=O)N(C([H])([H])c4c([H])c([H])c(N([H])C(=O)N5C([H])([H])C([H])([H])C([H])([H])C([H])(n6nc(-c7c([H])c([H])c(Oc8c([H])c([H])c(F)c([H])c8F)c([H])c7[H])c(C(=O)N([H])[H])c6N([H])[H])C5([H])[H])c([H])c4N([H])[H])C3([H])[H])c([H])c([H])c2C1([H])[H]

>  <smiles>  (17) 
[H]c1c([H])c([H])c2c(c1[H])C([H])([H])C([H])([H])C([H])([H])C2([H])N([H])C(=O)C1([H])N(C(=O)C([H])(N([H])C(=O)C([H])(N([H])C([H])([H])[H])C([H])([H])[H])C(C([H])([H])[H])(C([H])([H])[H])C([H])([H])[H])C([H])([H])c2c([H])c(OC([H])([H])C3([H])C([H])([H])C(=O)N(C([H])([H])c4c([H])c([H])c(N([H])C(=O)N5C([H])([H])C([H])([H])C([H])([H])C([H])(n6nc(-c7c([H])c([H])c(Oc8c([H])c([H])c(F)c([H])c8F)c([H])c7[H])c(C(=O)N([H])[H])c6N([H])[H])C5([H])[H])c([H])c4N([H])[H])C3([H])[H])c([H])c([H])c2C1([H])[H]

$$$$
17:0:0
     RDKit          3D

 97106  0  0  1  0  0  0  0  0999 V2000
  -31.6940  -22.9790   21.4220 C   0  0  0  0  0  0  0  0  0  0  0  0
  -31.8780  -24.1970   20.5140 C   0  0  0  0  0  2  0  0  0  0  0  0
  -30.5400  -24.7060   19.9660 C   0  0  0  0  0  2  0  0  0  0  0  0
  -29.4390  -23.8430   22.1040 C   0  0  0  0  0  2  0  0  0  0  0  0
  -29.5920  -25.0340   21.1250 C   0  0  0  0  0  3  0  0  0  0  0  0
  -30.5190  -22.8340   22.0810 N   0  0  0  0  0  0  0  0  0  0  0  0
  -32.6200  -22.1680   21.5090 O   0  0  0  0  0  0  0  0  0  0  0  0
  -30.2250  -21.6100   22.8430 C   0  0  0  0  0  2  0  0  0  0  0  0
  -30.9670  -17.9940   21.7980 C   0  0  0  0  0  3  0  0  0  0  0  0
  -30.9300  -19.2060   22.5110 C   0  0  0  0  0  3  0  0  0  0  0  0
  -29.5040  -18.9630   20.1130 C   0  0  0  0  0  3  0  0  0  0  0  0
  -30.2560  -17.8720   20.5900 C   0  0  0  0  0  0  0  0  0  0  0  0
  -30.1970  -20.3120   22.0260 C   0  0  0  0  0  0  0  0  0  0  0  0
  -29.4650  -20.1900   20.8140 C   0  0  0  0  0  0  0  0  0  0  0  0
  -28.0270  -21.1780   19.1400 C   0  0  0  0  0  1  0  0  0  0  0  0
  -28.7520  -21.2780   20.3590 O   0  0  0  0  0  0  0  0  0  0  0  0
  -30.3390  -16.6230   19.7330 C   0  0  0  0  0  2  0  0  0  0  0  0
  -30.9700  -14.2870   20.0790 C   0  0  0  0  0  0  0  0  0  0  0  0
  -30.5580  -12.1510   18.9550 C   0  0  0  0  0  2  0  0  0  0  0  0
  -29.5830  -12.4250   17.7900 C   0  0  0  0  0  2  0  0  0  0  0  0
  -28.1200  -12.3420   18.2720 C   0  0  0  0  0  2  0  0  0  0  0  0
  -27.8620  -13.1620   19.5660 C   0  0  0  0  0  3  0  0  0  0  0  0
  -28.9520  -12.8860   20.6290 C   0  0  0  0  0  2  0  0  0  0  0  0
  -30.2680  -13.1280   20.0130 N   0  0  0  0  0  0  0  0  0  0  0  0
  -32.0950  -14.4290   19.5930 O   0  0  0  0  0  0  0  0  0  0  0  0
  -30.2410  -15.3480   20.4410 N   0  0  0  0  0  0  0  0  0  0  0  0
  -29.3530  -15.1480   20.8720 H   0  0  0  0  0  0  0  0  0  0  0  0
  -25.4970  -13.8220   20.3490 C   0  0  0  0  0  0  0  0  0  0  0  0
  -24.4290  -13.0720   20.7600 C   0  0  0  0  0  0  0  0  0  0  0  0
  -24.8630  -11.7120   20.7250 C   0  0  0  0  0  0  0  0  0  0  0  0
  -26.5190  -12.9200   20.0910 N   0  0  0  0  0  0  0  0  0  0  0  0
  -26.1400  -11.6460   20.3720 N   0  0  0  0  0  0  0  0  0  0  0  0
  -24.1210  -10.4660   20.9510 C   0  0  0  0  0  0  0  0  0  0  0  0
  -24.5030   -9.5510   21.9570 C   0  0  0  0  0  3  0  0  0  0  0  0
  -23.7620   -8.3690   22.1680 C   0  0  0  0  0  3  0  0  0  0  0  0
  -22.6250   -8.0930   21.3720 C   0  0  0  0  0  0  0  0  0  0  0  0
  -22.2630   -8.9960   20.3560 C   0  0  0  0  0  3  0  0  0  0  0  0
  -23.0050  -10.1690   20.1450 C   0  0  0  0  0  3  0  0  0  0  0  0
  -21.8600   -6.9570   21.4870 O   0  0  0  0  0  0  0  0  0  0  0  0
  -21.6790   -6.3310   22.6940 C   0  0  0  0  0  0  0  0  0  0  0  0
  -21.0760   -6.9840   23.7900 C   0  0  0  0  0  3  0  0  0  0  0  0
  -20.8460   -6.2810   24.9900 C   0  0  0  0  0  3  0  0  0  0  0  0
  -21.2110   -4.9250   25.0930 C   0  0  0  0  0  0  0  0  0  0  0  0
  -21.8070   -4.2720   24.0010 C   0  0  0  0  0  3  0  0  0  0  0  0
  -22.0380   -4.9720   22.8030 C   0  0  0  0  0  0  0  0  0  0  0  0
  -22.5950   -4.3310   21.7470 F   0  0  0  0  0  0  0  0  0  0  0  0
  -20.9830   -4.2470   26.2430 F   0  0  0  0  0  0  0  0  0  0  0  0
  -23.0510  -13.5780   21.0790 C   0  0  0  0  0  0  0  0  0  0  0  0
  -22.3370  -12.8970   21.9690 N   0  0  0  0  0  0  0  0  0  0  0  0
  -22.6180  -14.6130   20.5740 O   0  0  0  0  0  0  0  0  0  0  0  0
  -22.7020  -12.0620   22.4020 H   0  0  0  0  0  0  0  0  0  0  0  0
  -21.4130  -13.2180   22.2230 H   0  0  0  0  0  0  0  0  0  0  0  0
  -25.6790  -15.1880   20.1560 N   0  0  0  0  0  0  0  0  0  0  0  0
  -24.9240  -15.8500   20.2970 H   0  0  0  0  0  0  0  0  0  0  0  0
  -26.5220  -15.6180   19.7980 H   0  0  0  0  0  0  0  0  0  0  0  0
  -28.2200  -25.5150   20.6270 C   0  0  0  0  0  2  0  0  0  0  0  0
  -28.3590  -26.7700   19.9710 O   0  0  0  0  0  0  0  0  0  0  0  0
  -24.6780  -31.7930   23.3340 C   0  0  0  0  0  0  0  0  0  0  0  0
  -27.2090  -27.5140   19.9890 C   0  0  0  0  0  0  0  0  0  0  0  0
  -23.4310  -30.5200   21.6140 C   0  0  0  0  0  3  0  0  0  0  0  0
  -24.8450  -29.0370   20.0980 C   0  0  0  0  0  0  0  0  0  0  0  0
  -25.9610  -30.8430   21.4240 C   0  0  0  0  0  2  0  0  0  0  0  0
  -26.0140  -29.5120   20.7060 C   0  0  0  0  0  0  0  0  0  0  0  0
  -27.2030  -28.7590   20.6460 C   0  0  0  0  0  3  0  0  0  0  0  0
  -26.0280  -27.0370   19.3810 C   0  0  0  0  0  3  0  0  0  0  0  0
  -24.8440  -27.7970   19.4320 C   0  0  0  0  0  3  0  0  0  0  0  0
  -23.6190  -29.9140   20.1980 C   0  0  0  0  0  2  0  0  0  0  0  0
  -24.7090  -31.0620   22.1840 N   0  0  0  0  0  0  0  0  0  0  0  0
  -23.6070  -32.0590   23.8940 O   0  0  0  0  0  0  0  0  0  0  0  0
  -22.7590  -29.4620   22.5160 C   0  0  0  0  0  0  0  0  0  0  0  0
  -21.4380  -29.2890   22.3490 N   0  0  0  0  0  0  0  0  0  0  0  0
  -23.4230  -28.8000   23.3190 O   0  0  0  0  0  0  0  0  0  0  0  0
  -20.9660  -29.8760   21.6750 H   0  0  0  0  0  0  0  0  0  0  0  0
  -18.0580  -28.0630   22.6800 C   0  0  0  0  0  0  0  0  0  0  0  0
  -20.6000  -28.3240   23.0580 C   0  0  0  0  0  3  0  0  0  0  0  0
  -20.7340  -26.9120   22.4410 C   0  0  0  0  0  2  0  0  0  0  0  0
  -19.6740  -26.6160   21.3750 C   0  0  0  0  0  2  0  0  0  0  0  0
  -18.2680  -26.7360   21.9710 C   0  0  0  0  0  2  0  0  0  0  0  0
  -19.1540  -28.8150   23.1760 C   0  0  0  0  0  0  0  0  0  0  0  0
  -18.9070  -30.0600   23.7950 C   0  0  0  0  0  3  0  0  0  0  0  0
  -17.5940  -30.5510   23.9250 C   0  0  0  0  0  3  0  0  0  0  0  0
  -16.5100  -29.7940   23.4450 C   0  0  0  0  0  3  0  0  0  0  0  0
  -16.7430  -28.5520   22.8290 C   0  0  0  0  0  3  0  0  0  0  0  0
  -25.9830  -32.3510   23.9840 C   0  0  0  0  0  3  0  0  0  0  0  0
  -25.7130  -33.7330   24.4020 N   0  0  0  0  0  0  0  0  0  0  0  0
  -26.0870  -34.8210   23.7160 C   0  0  0  0  0  0  0  0  0  0  0  0
  -26.7680  -34.7630   22.6880 O   0  0  0  0  0  0  0  0  0  0  0  0
  -25.1130  -33.8540   25.2040 H   0  0  0  0  0  0  0  0  0  0  0  0
  -24.4320  -36.6930   23.4370 C   0  0  0  0  0  1  0  0  0  0  0  0
  -25.6320  -36.1900   24.2540 C   0  0  0  0  0  3  0  0  0  0  0  0
  -27.7620  -36.9430   25.2170 C   0  0  0  0  0  1  0  0  0  0  0  0
  -26.7040  -37.2100   24.2460 N   0  0  0  0  0  0  0  0  0  0  0  0
  -26.3240  -38.1330   24.4380 H   0  0  0  0  0  0  0  0  0  0  0  0
  -26.4900  -31.4870   25.2040 C   0  0  1  0  0  0  0  0  0  0  0  0
  -25.3960  -31.2000   26.2590 C   0  0  0  0  0  1  0  0  0  0  0  0
  -27.0420  -30.1280   24.7150 C   0  0  0  0  0  1  0  0  0  0  0  0
  -27.6580  -32.2120   25.9120 C   0  0  0  0  0  1  0  0  0  0  0  0
  1  7  2  0
  1  6  1  0
  2  1  1  0
  3  2  1  0
  3  5  1  0
  5 56  1  0
  5  4  1  0
  6  4  1  0
  6  8  1  0
  9 10  1  0
 11 12  1  0
 11 14  2  0
 12  9  2  0
 13 10  2  0
 13  8  1  0
 14 13  1  0
 15 16  1  0
 16 14  1  0
 17 26  1  0
 17 12  1  0
 18 26  1  0
 19 24  1  0
 20 21  1  0
 20 19  1  0
 22 21  1  0
 22 31  1  0
 22 23  1  0
 24 18  1  0
 24 23  1  0
 25 18  2  0
 26 27  1  0
 28 29  2  0
 29 48  1  0
 30 29  1  0
 30 33  1  0
 31 28  1  0
 31 32  1  0
 32 30  2  0
 33 34  1  0
 34 35  2  0
 36 39  1  0
 36 35  1  0
 37 36  2  0
 38 37  1  0
 38 33  2  0
 39 40  1  0
 40 45  2  0
 40 41  1  0
 41 42  2  0
 42 43  1  0
 43 47  1  0
 44 43  2  0
 45 44  1  0
 46 45  1  0
 48 49  1  0
 49 52  1  0
 49 51  1  0
 50 48  2  0
 53 54  1  0
 53 28  1  0
 55 53  1  0
 57 59  1  0
 57 56  1  0
 58 69  2  0
 59 64  1  0
 60 68  1  0
 60 70  1  0
 61 67  1  0
 61 63  1  0
 62 68  1  0
 63 62  1  0
 64 63  2  0
 65 66  1  0
 65 59  2  0
 66 61  2  0
 67 60  1  0
 68 58  1  0
 70 72  2  0
 71 70  1  0
 73 71  1  0
 74 83  2  0
 74 79  1  0
 75 71  1  0
 75 79  1  0
 76 75  1  0
 77 78  1  0
 77 76  1  0
 78 74  1  0
 79 80  2  0
 80 81  1  0
 82 81  2  0
 83 82  1  0
 84 58  1  0
 84 85  1  0
 84 94  1  0
 85 88  1  0
 86 90  1  0
 86 85  1  0
 87 86  2  0
 90 89  1  0
 92 90  1  0
 92 93  1  0
 92 91  1  0
 94 97  1  1
 94 95  1  0
 96 94  1  0
M  ISO  4  18 100  26 100  56 101  57 101
M  END
>  <TORSDO>  (18) 
F 21

>  <SCORE>  (18) 
-12.502

>  <name>  (18) 
17

>  <ligand_id>  (18) 
17

>  <original_smiles>  (18) 
[H]c1c([H])c([H])c2c(c1[H])C([H])([H])C([H])([H])C([H])([H])C2([H])N([H])C(=O)C1([H])N(C(=O)C([H])(N([H])C(=O)C([H])(N([H])C([H])([H])[H])C([H])([H])[H])C(C([H])([H])[H])(C([H])([H])[H])C([H])([H])[H])C([H])([H])c2c([H])c(OC([H])([H])C3([H])C([H])([H])N(C([H])([H])c4c([H])c([H])c(C([H])([H])N([H])C(=O)N5C([H])([H])C([H])([H])C([H])([H])C([H])(n6nc(-c7c([H])c([H])c(Oc8c([H])c([H])c(F)c([H])c8F)c([H])c7[H])c(C(=O)N([H])[H])c6N([H])[H])C5([H])[H])c([H])c4OC([H])([H])[H])C(=O)C([H])([H])C3([H])[H])c([H])c([H])c2C1([H])[H]

>  <smiles>  (18) 
[H]c1c([H])c([H])c2c(c1[H])C([H])([H])C([H])([H])C([H])([H])C2([H])N([H])C(=O)C1([H])N(C(=O)C([H])(N([H])C(=O)C([H])(N([H])C([H])([H])[H])C([H])([H])[H])C(C([H])([H])[H])(C([H])([H])[H])C([H])([H])[H])C([H])([H])c2c([H])c(OC([H])([H])C3([H])C([H])([H])N(C([H])([H])c4c([H])c([H])c(C([H])([H])N([H])C(=O)N5C([H])([H])C([H])([H])C([H])([H])C([H])(n6nc(-c7c([H])c([H])c(Oc8c([H])c([H])c(F)c([H])c8F)c([H])c7[H])c(C(=O)N([H])[H])c6N([H])[H])C5([H])[H])c([H])c4OC([H])([H])[H])C(=O)C([H])([H])C3([H])[H])c([H])c([H])c2C1([H])[H]

$$$$
18:0:0
     RDKit          3D

 95103  0  0  1  0  0  0  0  0999 V2000
  -29.2110  -18.1770   20.2390 C   0  0  0  0  0  3  0  0  0  0  0  0
  -28.2780  -19.2230   20.3530 C   0  0  0  0  0  3  0  0  0  0  0  0
  -30.7410  -19.3840   21.7180 C   0  0  0  0  0  3  0  0  0  0  0  0
  -30.4470  -18.2600   20.9150 C   0  0  0  0  0  0  0  0  0  0  0  0
  -29.8080  -20.4290   21.8320 C   0  0  0  0  0  0  0  0  0  0  0  0
  -28.5880  -20.3550   21.1330 C   0  0  0  0  0  0  0  0  0  0  0  0
  -30.0970  -21.5640   22.5870 N   0  0  0  0  0  0  0  0  0  0  0  0
  -31.0630  -21.7940   22.7880 H   0  0  0  0  0  0  0  0  0  0  0  0
  -29.5210  -22.3760   22.3920 H   0  0  0  0  0  0  0  0  0  0  0  0
  -32.3630  -17.6630   19.4860 C   0  0  0  0  0  1  0  0  0  0  0  0
  -31.5040  -17.2000   20.6920 C   0  0  0  0  0  3  0  0  0  0  0  0
  -31.4220  -14.7320   20.1150 C   0  0  0  0  0  0  0  0  0  0  0  0
  -30.9850  -12.4830   19.2290 C   0  0  0  0  0  2  0  0  0  0  0  0
  -30.0630  -12.5700   18.0010 C   0  0  0  0  0  2  0  0  0  0  0  0
  -28.5920  -12.4970   18.4430 C   0  0  0  0  0  2  0  0  0  0  0  0
  -28.2570  -13.4880   19.5900 C   0  0  0  0  0  3  0  0  0  0  0  0
  -29.3170  -13.4390   20.7170 C   0  0  0  0  0  2  0  0  0  0  0  0
  -30.6500  -13.6110   20.1130 N   0  0  0  0  0  0  0  0  0  0  0  0
  -32.5440  -14.7430   19.6130 O   0  0  0  0  0  0  0  0  0  0  0  0
  -30.8800  -15.8640   20.5830 N   0  0  0  0  0  0  0  0  0  0  0  0
  -29.9340  -15.8010   20.9240 H   0  0  0  0  0  0  0  0  0  0  0  0
  -25.9240  -14.1990   20.4140 C   0  0  0  0  0  0  0  0  0  0  0  0
  -24.8190  -13.4790   20.7730 C   0  0  0  0  0  0  0  0  0  0  0  0
  -25.1890  -12.1030   20.6610 C   0  0  0  0  0  0  0  0  0  0  0  0
  -26.9050  -13.2690   20.1030 N   0  0  0  0  0  0  0  0  0  0  0  0
  -26.4670  -11.9990   20.3130 N   0  0  0  0  0  0  0  0  0  0  0  0
  -24.3870  -10.8820   20.8150 C   0  0  0  0  0  0  0  0  0  0  0  0
  -24.7440   -9.8700   21.7340 C   0  0  0  0  0  3  0  0  0  0  0  0
  -23.9460   -8.7140   21.8740 C   0  0  0  0  0  3  0  0  0  0  0  0
  -22.7750   -8.5610   21.0930 C   0  0  0  0  0  0  0  0  0  0  0  0
  -22.4350   -9.5620   20.1650 C   0  0  0  0  0  3  0  0  0  0  0  0
  -23.2330  -10.7080   20.0240 C   0  0  0  0  0  3  0  0  0  0  0  0
  -21.9530   -7.4620   21.1440 O   0  0  0  0  0  0  0  0  0  0  0  0
  -21.8010   -6.7300   22.2940 C   0  0  0  0  0  0  0  0  0  0  0  0
  -21.3460   -7.3160   23.4960 C   0  0  0  0  0  3  0  0  0  0  0  0
  -21.1340   -6.5130   24.6340 C   0  0  0  0  0  3  0  0  0  0  0  0
  -21.3710   -5.1270   24.5740 C   0  0  0  0  0  0  0  0  0  0  0  0
  -21.8180   -4.5400   23.3780 C   0  0  0  0  0  3  0  0  0  0  0  0
  -22.0310   -5.3400   22.2410 C   0  0  0  0  0  0  0  0  0  0  0  0
  -22.4430   -4.7670   21.0840 F   0  0  0  0  0  0  0  0  0  0  0  0
  -21.1610   -4.3540   25.6660 F   0  0  0  0  0  0  0  0  0  0  0  0
  -23.4620  -14.0300   21.1120 C   0  0  0  0  0  0  0  0  0  0  0  0
  -22.7190  -13.3500   21.9770 N   0  0  0  0  0  0  0  0  0  0  0  0
  -23.0730  -15.1010   20.6440 O   0  0  0  0  0  0  0  0  0  0  0  0
  -23.0430  -12.4840   22.3820 H   0  0  0  0  0  0  0  0  0  0  0  0
  -21.8120  -13.7030   22.2440 H   0  0  0  0  0  0  0  0  0  0  0  0
  -26.1740  -15.5640   20.3060 N   0  0  0  0  0  0  0  0  0  0  0  0
  -25.4680  -16.2630   20.5150 H   0  0  0  0  0  0  0  0  0  0  0  0
  -27.0650  -15.9670   20.0460 H   0  0  0  0  0  0  0  0  0  0  0  0
  -27.7440  -21.4280   21.1510 O   0  0  0  0  0  0  0  0  0  0  0  0
  -28.0760  -22.3800   20.1550 C   0  0  0  0  0  2  0  0  0  0  0  0
  -28.3190  -23.7310   20.8240 C   0  0  0  0  0  2  0  0  0  0  0  0
  -28.4490  -24.8150   19.7570 C   0  0  0  0  0  2  0  0  0  0  0  0
  -28.5950  -26.2150   20.3540 C   0  0  0  0  0  2  0  0  0  0  0  0
  -28.3640  -27.1760   19.3330 O   0  0  0  0  0  0  0  0  0  0  0  0
  -24.4680  -31.7820   23.0530 C   0  0  0  0  0  0  0  0  0  0  0  0
  -27.1580  -27.8090   19.4610 C   0  0  0  0  0  0  0  0  0  0  0  0
  -23.2390  -30.4570   21.3620 C   0  0  0  0  0  3  0  0  0  0  0  0
  -24.6860  -29.1240   19.7430 C   0  0  0  0  0  0  0  0  0  0  0  0
  -25.7220  -30.9800   21.0590 C   0  0  0  0  0  2  0  0  0  0  0  0
  -25.8410  -29.6750   20.3100 C   0  0  0  0  0  0  0  0  0  0  0  0
  -27.0820  -29.0200   20.1750 C   0  0  0  0  0  3  0  0  0  0  0  0
  -25.9920  -27.2590   18.8890 C   0  0  0  0  0  3  0  0  0  0  0  0
  -24.7530  -27.9110   19.0350 C   0  0  0  0  0  3  0  0  0  0  0  0
  -23.4030  -29.9000   19.9240 C   0  0  0  0  0  2  0  0  0  0  0  0
  -24.4960  -31.0840   21.8840 N   0  0  0  0  0  0  0  0  0  0  0  0
  -23.4060  -31.9530   23.6680 O   0  0  0  0  0  0  0  0  0  0  0  0
  -22.6940  -29.3260   22.2640 C   0  0  0  0  0  0  0  0  0  0  0  0
  -21.3770  -29.0770   22.1820 N   0  0  0  0  0  0  0  0  0  0  0  0
  -23.4520  -28.6790   22.9930 O   0  0  0  0  0  0  0  0  0  0  0  0
  -20.8220  -29.6620   21.5730 H   0  0  0  0  0  0  0  0  0  0  0  0
  -18.1140  -27.6200   22.6680 C   0  0  0  0  0  0  0  0  0  0  0  0
  -20.6500  -28.0380   22.9060 C   0  0  0  0  0  3  0  0  0  0  0  0
  -20.8400  -26.6560   22.2410 C   0  0  0  0  0  2  0  0  0  0  0  0
  -19.7410  -26.3180   21.2300 C   0  0  0  0  0  2  0  0  0  0  0  0
  -18.3660  -26.3280   21.9070 C   0  0  0  0  0  2  0  0  0  0  0  0
  -19.1850  -28.4310   23.1230 C   0  0  0  0  0  0  0  0  0  0  0  0
  -18.8950  -29.6380   23.7950 C   0  0  0  0  0  3  0  0  0  0  0  0
  -17.5630  -30.0350   24.0180 C   0  0  0  0  0  3  0  0  0  0  0  0
  -16.5050  -29.2190   23.5800 C   0  0  0  0  0  3  0  0  0  0  0  0
  -16.7810  -28.0140   22.9100 C   0  0  0  0  0  3  0  0  0  0  0  0
  -25.7580  -32.4240   23.6560 C   0  0  0  0  0  3  0  0  0  0  0  0
  -25.4190  -33.7950   24.0580 N   0  0  0  0  0  0  0  0  0  0  0  0
  -25.7250  -34.8910   23.3500 C   0  0  0  0  0  0  0  0  0  0  0  0
  -26.3920  -34.8530   22.3110 O   0  0  0  0  0  0  0  0  0  0  0  0
  -24.8280  -33.8960   24.8690 H   0  0  0  0  0  0  0  0  0  0  0  0
  -23.9550  -36.6580   23.0830 C   0  0  0  0  0  1  0  0  0  0  0  0
  -25.2060  -36.2440   23.8750 C   0  0  0  0  0  3  0  0  0  0  0  0
  -27.3210  -37.1330   24.7490 C   0  0  0  0  0  1  0  0  0  0  0  0
  -26.2140  -37.3240   23.8150 N   0  0  0  0  0  0  0  0  0  0  0  0
  -25.7860  -38.2260   24.0100 H   0  0  0  0  0  0  0  0  0  0  0  0
  -26.3450  -31.6110   24.8740 C   0  0  1  0  0  0  0  0  0  0  0  0
  -25.3040  -31.3050   25.9730 C   0  0  0  0  0  1  0  0  0  0  0  0
  -26.9370  -30.2640   24.3940 C   0  0  0  0  0  1  0  0  0  0  0  0
  -27.5050  -32.4040   25.5220 C   0  0  0  0  0  1  0  0  0  0  0  0
  1  2  2  0
  1  4  1  0
  2  6  1  0
  3  5  1  0
  4  3  2  0
  5  7  1  0
  6 50  1  0
  6  5  2  0
  7  8  1  0
  9  7  1  0
 11 10  1  0
 11  4  1  0
 12 20  1  0
 13 18  1  0
 14 15  1  0
 14 13  1  0
 16 15  1  0
 16 25  1  0
 16 17  1  0
 18 12  1  0
 18 17  1  0
 19 12  2  0
 20 11  1  0
 20 21  1  0
 22 23  2  0
 23 42  1  0
 24 23  1  0
 24 27  1  0
 25 26  1  0
 25 22  1  0
 26 24  2  0
 27 28  1  0
 28 29  2  0
 30 33  1  0
 30 29  1  0
 31 30  2  0
 32 31  1  0
 32 27  2  0
 33 34  1  0
 34 35  1  0
 35 36  2  0
 37 36  1  0
 37 41  1  0
 38 37  2  0
 39 34  2  0
 39 38  1  0
 40 39  1  0
 42 43  1  0
 43 46  1  0
 43 45  1  0
 44 42  2  0
 47 22  1  0
 47 48  1  0
 49 47  1  0
 51 52  1  0
 51 50  1  0
 53 54  1  0
 53 52  1  0
 55 57  1  0
 55 54  1  0
 56 67  2  0
 57 62  1  0
 58 66  1  0
 58 68  1  0
 59 65  1  0
 59 61  1  0
 60 66  1  0
 61 60  1  0
 62 61  2  0
 63 64  1  0
 63 57  2  0
 64 59  2  0
 65 58  1  0
 66 56  1  0
 68 70  2  0
 69 68  1  0
 71 69  1  0
 72 81  2  0
 72 77  1  0
 73 69  1  0
 73 77  1  0
 74 73  1  0
 75 76  1  0
 75 74  1  0
 76 72  1  0
 77 78  2  0
 78 79  1  0
 80 79  2  0
 81 80  1  0
 82 56  1  0
 82 83  1  0
 82 92  1  0
 83 86  1  0
 84 88  1  0
 84 83  1  0
 85 84  2  0
 88 87  1  0
 90 88  1  0
 90 91  1  0
 90 89  1  0
 92 95  1  1
 92 93  1  0
 94 92  1  0
M  ISO  4  12 100  20 100  54 101  55 101
M  END
>  <TORSDO>  (19) 
F 23

>  <SCORE>  (19) 
-11.820

>  <name>  (19) 
18

>  <ligand_id>  (19) 
18

>  <original_smiles>  (19) 
[H]c1c([H])c([H])c2c(c1[H])C([H])([H])C([H])([H])C([H])([H])C2([H])N([H])C(=O)C1([H])N(C(=O)C([H])(N([H])C(=O)C([H])(N([H])C([H])([H])[H])C([H])([H])[H])C(C([H])([H])[H])(C([H])([H])[H])C([H])([H])[H])C([H])([H])c2c([H])c(OC([H])([H])C([H])([H])C([H])([H])C([H])([H])Oc3c([H])c([H])c(C([H])(N([H])C(=O)N4C([H])([H])C([H])([H])C([H])([H])C([H])(n5nc(-c6c([H])c([H])c(Oc7c([H])c([H])c(F)c([H])c7F)c([H])c6[H])c(C(=O)N([H])[H])c5N([H])[H])C4([H])[H])C([H])([H])[H])c([H])c3N([H])[H])c([H])c([H])c2C1([H])[H]

>  <smiles>  (19) 
[H]c1c([H])c([H])c2c(c1[H])C([H])([H])C([H])([H])C([H])([H])C2([H])N([H])C(=O)C1([H])N(C(=O)C([H])(N([H])C(=O)C([H])(N([H])C([H])([H])[H])C([H])([H])[H])C(C([H])([H])[H])(C([H])([H])[H])C([H])([H])[H])C([H])([H])c2c([H])c(OC([H])([H])C([H])([H])C([H])([H])C([H])([H])Oc3c([H])c([H])c(C([H])(N([H])C(=O)N4C([H])([H])C([H])([H])C([H])([H])C([H])(n5nc(-c6c([H])c([H])c(Oc7c([H])c([H])c(F)c([H])c7F)c([H])c6[H])c(C(=O)N([H])[H])c5N([H])[H])C4([H])[H])C([H])([H])[H])c([H])c3N([H])[H])c([H])c([H])c2C1([H])[H]

$$$$
19:0:0
     RDKit          3D

 94103  0  0  1  0  0  0  0  0999 V2000
  -28.5710  -24.3300   21.0440 C   0  0  0  0  0  0  0  0  0  0  0  0
  -28.3400  -25.6790   21.0950 C   0  0  0  0  0  3  0  0  0  0  0  0
  -29.2880  -20.8530   19.7770 C   0  0  0  0  0  0  0  0  0  0  0  0
  -28.6120  -23.4820   22.2910 C   0  0  0  0  0  2  0  0  0  0  0  0
  -28.8330  -23.3710   19.8770 C   0  0  0  0  0  2  0  0  0  0  0  0
  -29.3570  -22.1950   21.9070 C   0  0  0  0  0  2  0  0  0  0  0  0
  -29.2260  -22.0490   20.4560 N   0  0  0  0  0  0  0  0  0  0  0  0
  -28.7920  -20.7330   18.6550 O   0  0  0  0  0  0  0  0  0  0  0  0
  -29.5940  -18.2950   20.2200 C   0  0  0  0  0  3  0  0  0  0  0  0
  -31.3260  -19.8590   20.9180 C   0  0  0  0  0  3  0  0  0  0  0  0
  -31.6470  -17.4590   21.2320 C   0  0  0  0  0  3  0  0  0  0  0  0
  -30.0460  -19.6540   20.3580 C   0  0  0  0  0  0  0  0  0  0  0  0
  -30.3940  -17.1780   20.6380 C   0  0  0  0  0  0  0  0  0  0  0  0
  -32.1090  -18.7810   21.3620 C   0  0  0  0  0  0  0  0  0  0  0  0
  -33.3260  -19.0170   21.9050 F   0  0  0  0  0  0  0  0  0  0  0  0
  -30.6970  -14.6990   20.1800 C   0  0  0  0  0  0  0  0  0  0  0  0
  -30.3980  -12.4970   19.0860 C   0  0  0  0  0  2  0  0  0  0  0  0
  -29.4210  -12.6610   17.9030 C   0  0  0  0  0  2  0  0  0  0  0  0
  -27.9640  -12.5030   18.3790 C   0  0  0  0  0  2  0  0  0  0  0  0
  -27.6480  -13.3540   19.6390 C   0  0  0  0  0  3  0  0  0  0  0  0
  -28.7420  -13.1880   20.7190 C   0  0  0  0  0  2  0  0  0  0  0  0
  -30.0320  -13.5090   20.0940 N   0  0  0  0  0  0  0  0  0  0  0  0
  -31.8550  -14.8140   19.7740 O   0  0  0  0  0  0  0  0  0  0  0  0
  -29.9510  -15.7980   20.5040 N   0  0  0  0  0  0  0  0  0  0  0  0
  -28.9650  -15.6280   20.6200 H   0  0  0  0  0  0  0  0  0  0  0  0
  -25.2750  -13.9400   20.4310 C   0  0  0  0  0  0  0  0  0  0  0  0
  -24.2230  -13.1600   20.8250 C   0  0  0  0  0  0  0  0  0  0  0  0
  -24.6890  -11.8100   20.7710 C   0  0  0  0  0  0  0  0  0  0  0  0
  -26.3170  -13.0650   20.1610 N   0  0  0  0  0  0  0  0  0  0  0  0
  -25.9700  -11.7790   20.4270 N   0  0  0  0  0  0  0  0  0  0  0  0
  -23.9730  -10.5430   20.9690 C   0  0  0  0  0  0  0  0  0  0  0  0
  -24.4140   -9.5830   21.9070 C   0  0  0  0  0  3  0  0  0  0  0  0
  -23.6970   -8.3810   22.0920 C   0  0  0  0  0  3  0  0  0  0  0  0
  -22.5240   -8.1320   21.3420 C   0  0  0  0  0  0  0  0  0  0  0  0
  -22.1020   -9.0810   20.3930 C   0  0  0  0  0  3  0  0  0  0  0  0
  -22.8200  -10.2740   20.2050 C   0  0  0  0  0  3  0  0  0  0  0  0
  -21.7770   -6.9820   21.4370 O   0  0  0  0  0  0  0  0  0  0  0  0
  -21.7190   -6.2570   22.6000 C   0  0  0  0  0  0  0  0  0  0  0  0
  -21.2470   -6.8190   23.8060 C   0  0  0  0  0  3  0  0  0  0  0  0
  -21.1380   -6.0180   24.9610 C   0  0  0  0  0  3  0  0  0  0  0  0
  -21.4930   -4.6560   24.9100 C   0  0  0  0  0  0  0  0  0  0  0  0
  -21.9580   -4.0940   23.7090 C   0  0  0  0  0  3  0  0  0  0  0  0
  -22.0690   -4.8930   22.5560 C   0  0  0  0  0  0  0  0  0  0  0  0
  -22.4980   -4.3400   21.3960 F   0  0  0  0  0  0  0  0  0  0  0  0
  -21.3810   -3.8850   26.0160 F   0  0  0  0  0  0  0  0  0  0  0  0
  -22.8330  -13.6300   21.1410 C   0  0  0  0  0  0  0  0  0  0  0  0
  -22.1270  -12.9150   22.0100 N   0  0  0  0  0  0  0  0  0  0  0  0
  -22.3810  -14.6650   20.6530 O   0  0  0  0  0  0  0  0  0  0  0  0
  -22.5040  -12.0760   22.4260 H   0  0  0  0  0  0  0  0  0  0  0  0
  -21.1950  -13.2110   22.2660 H   0  0  0  0  0  0  0  0  0  0  0  0
  -25.4280  -15.3120   20.2550 N   0  0  0  0  0  0  0  0  0  0  0  0
  -24.6560  -15.9580   20.3830 H   0  0  0  0  0  0  0  0  0  0  0  0
  -26.2490  -15.7550   19.8660 H   0  0  0  0  0  0  0  0  0  0  0  0
  -28.2960  -26.6250   20.0790 O   0  0  0  0  0  0  0  0  0  0  0  0
  -24.5850  -31.9230   23.2430 C   0  0  0  0  0  0  0  0  0  0  0  0
  -27.1930  -27.4670   20.0980 C   0  0  0  0  0  0  0  0  0  0  0  0
  -23.3650  -30.5330   21.6030 C   0  0  0  0  0  3  0  0  0  0  0  0
  -24.8100  -29.0100   20.1420 C   0  0  0  0  0  0  0  0  0  0  0  0
  -25.8930  -30.8880   21.3840 C   0  0  0  0  0  2  0  0  0  0  0  0
  -25.9790  -29.5180   20.7270 C   0  0  0  0  0  0  0  0  0  0  0  0
  -27.1770  -28.7540   20.7040 C   0  0  0  0  0  3  0  0  0  0  0  0
  -26.0100  -26.9920   19.5020 C   0  0  0  0  0  3  0  0  0  0  0  0
  -24.8230  -27.7490   19.5230 C   0  0  0  0  0  3  0  0  0  0  0  0
  -23.5640  -29.8690   20.2140 C   0  0  0  0  0  2  0  0  0  0  0  0
  -24.6340  -31.1290   22.1340 N   0  0  0  0  0  0  0  0  0  0  0  0
  -23.5090  -32.1870   23.7990 O   0  0  0  0  0  0  0  0  0  0  0  0
  -22.7260  -29.5020   22.5610 C   0  0  0  0  0  0  0  0  0  0  0  0
  -21.4020  -29.3080   22.4410 N   0  0  0  0  0  0  0  0  0  0  0  0
  -23.4200  -28.8800   23.3710 O   0  0  0  0  0  0  0  0  0  0  0  0
  -20.9030  -29.8620   21.7590 H   0  0  0  0  0  0  0  0  0  0  0  0
  -18.0490  -28.0500   22.9330 C   0  0  0  0  0  0  0  0  0  0  0  0
  -20.6000  -28.3580   23.2130 C   0  0  0  0  0  3  0  0  0  0  0  0
  -20.7320  -26.9270   22.6400 C   0  0  0  0  0  2  0  0  0  0  0  0
  -19.6400  -26.5830   21.6210 C   0  0  0  0  0  2  0  0  0  0  0  0
  -18.2530  -26.7040   22.2600 C   0  0  0  0  0  2  0  0  0  0  0  0
  -19.1520  -28.8350   23.3650 C   0  0  0  0  0  0  0  0  0  0  0  0
  -18.9080  -30.0940   23.9540 C   0  0  0  0  0  3  0  0  0  0  0  0
  -17.5940  -30.5720   24.1150 C   0  0  0  0  0  3  0  0  0  0  0  0
  -16.5050  -29.7860   23.6990 C   0  0  0  0  0  3  0  0  0  0  0  0
  -16.7340  -28.5270   23.1160 C   0  0  0  0  0  3  0  0  0  0  0  0
  -25.8750  -32.5550   23.8530 C   0  0  0  0  0  3  0  0  0  0  0  0
  -25.5660  -33.9500   24.1990 N   0  0  0  0  0  0  0  0  0  0  0  0
  -25.8920  -35.0100   23.4480 C   0  0  0  0  0  0  0  0  0  0  0  0
  -26.5560  -34.9180   22.4120 O   0  0  0  0  0  0  0  0  0  0  0  0
  -24.9750  -34.0950   25.0040 H   0  0  0  0  0  0  0  0  0  0  0  0
  -24.1700  -36.8100   23.1040 C   0  0  0  0  0  1  0  0  0  0  0  0
  -25.4050  -36.3940   23.9190 C   0  0  0  0  0  3  0  0  0  0  0  0
  -27.5320  -37.2650   24.7820 C   0  0  0  0  0  1  0  0  0  0  0  0
  -26.4400  -37.4460   23.8290 N   0  0  0  0  0  0  0  0  0  0  0  0
  -26.0350  -38.3660   23.9810 H   0  0  0  0  0  0  0  0  0  0  0  0
  -26.4100  -31.7760   25.1150 C   0  0  1  0  0  0  0  0  0  0  0  0
  -25.3300  -31.5210   26.1930 C   0  0  0  0  0  1  0  0  0  0  0  0
  -26.9950  -30.4040   24.7040 C   0  0  0  0  0  1  0  0  0  0  0  0
  -27.5640  -32.5690   25.7720 C   0  0  0  0  0  1  0  0  0  0  0  0
  1  2  2  0
  1  4  1  0
  3 12  1  0
  3  7  1  0
  5  7  1  0
  5  1  1  0
  6  4  1  0
  7  6  1  0
  8  3  2  0
  9 12  2  0
  9 13  1  0
 10 14  2  0
 11 14  1  0
 12 10  1  0
 13 11  2  0
 14 15  1  0
 16 24  1  0
 17 22  1  0
 18 19  1  0
 18 17  1  0
 20 19  1  0
 20 29  1  0
 20 21  1  0
 22 16  1  0
 22 21  1  0
 23 16  2  0
 24 25  1  0
 24 13  1  0
 26 27  2  0
 27 46  1  0
 28 27  1  0
 28 31  1  0
 29 30  1  0
 29 26  1  0
 30 28  2  0
 31 32  1  0
 32 33  2  0
 34 37  1  0
 34 33  1  0
 35 34  2  0
 36 35  1  0
 36 31  2  0
 37 38  1  0
 38 39  1  0
 39 40  2  0
 41 40  1  0
 41 45  1  0
 42 41  2  0
 43 38  2  0
 43 42  1  0
 44 43  1  0
 46 47  1  0
 47 50  1  0
 47 49  1  0
 48 46  2  0
 51 52  1  0
 51 26  1  0
 53 51  1  0
 54 56  1  0
 54  2  1  0
 55 66  2  0
 56 61  1  0
 57 65  1  0
 57 67  1  0
 58 64  1  0
 58 60  1  0
 59 65  1  0
 60 59  1  0
 61 60  2  0
 62 63  1  0
 62 56  2  0
 63 58  2  0
 64 57  1  0
 65 55  1  0
 67 69  2  0
 68 67  1  0
 70 68  1  0
 71 80  2  0
 71 76  1  0
 72 68  1  0
 72 76  1  0
 73 72  1  0
 74 75  1  0
 74 73  1  0
 75 71  1  0
 76 77  2  0
 77 78  1  0
 79 78  2  0
 80 79  1  0
 81 55  1  0
 81 82  1  0
 81 91  1  0
 82 85  1  0
 83 87  1  0
 83 82  1  0
 84 83  2  0
 87 86  1  0
 89 87  1  0
 89 90  1  0
 89 88  1  0
 91 94  1  1
 91 92  1  0
 93 91  1  0
M  ISO  4   2 101  16 100  24 100  54 101
M  END
>  <TORSDO>  (20) 
F 17

>  <SCORE>  (20) 
-15.326

>  <name>  (20) 
19

>  <ligand_id>  (20) 
19

>  <original_smiles>  (20) 
[H]C(Oc1c([H])c([H])c2c(c1[H])C([H])([H])N(C(=O)C([H])(N([H])C(=O)C([H])(N([H])C([H])([H])[H])C([H])([H])[H])C(C([H])([H])[H])(C([H])([H])[H])C([H])([H])[H])C([H])(C(=O)N([H])C1([H])c3c([H])c([H])c([H])c([H])c3C([H])([H])C([H])([H])C1([H])[H])C2([H])[H])=C1C([H])([H])N(C(=O)c2c([H])c(F)c([H])c(N([H])C(=O)N3C([H])([H])C([H])([H])C([H])([H])C([H])(n4nc(-c5c([H])c([H])c(Oc6c([H])c([H])c(F)c([H])c6F)c([H])c5[H])c(C(=O)N([H])[H])c4N([H])[H])C3([H])[H])c2[H])C([H])([H])C1([H])[H]

>  <smiles>  (20) 
[H]C(Oc1c([H])c([H])c2c(c1[H])C([H])([H])N(C(=O)C([H])(N([H])C(=O)C([H])(N([H])C([H])([H])[H])C([H])([H])[H])C(C([H])([H])[H])(C([H])([H])[H])C([H])([H])[H])C([H])(C(=O)N([H])C1([H])c3c([H])c([H])c([H])c([H])c3C([H])([H])C([H])([H])C1([H])[H])C2([H])[H])=C1C([H])([H])N(C(=O)c2c([H])c(F)c([H])c(N([H])C(=O)N3C([H])([H])C([H])([H])C([H])([H])C([H])(n4nc(-c5c([H])c([H])c(Oc6c([H])c([H])c(F)c([H])c6F)c([H])c5[H])c(C(=O)N([H])[H])c4N([H])[H])C3([H])[H])c2[H])C([H])([H])C1([H])[H]

$$$$
20:0:0
     RDKit          3D

 94102  0  0  1  0  0  0  0  0999 V2000
  -28.2430  -17.9930   20.0530 C   0  0  0  0  0  3  0  0  0  0  0  0
  -27.5500  -19.2260   20.1350 C   0  0  0  0  0  3  0  0  0  0  0  0
  -30.3340  -19.2170   20.1730 C   0  0  0  0  0  3  0  0  0  0  0  0
  -29.6560  -17.9760   20.0520 C   0  0  0  0  0  0  0  0  0  0  0  0
  -28.2370  -20.4610   20.2100 C   0  0  0  0  0  0  0  0  0  0  0  0
  -29.6510  -20.4540   20.2810 C   0  0  0  0  0  0  0  0  0  0  0  0
  -30.6800  -14.3220   19.9460 C   0  0  0  0  0  0  0  0  0  0  0  0
  -30.2940  -12.0690   19.0500 C   0  0  0  0  0  2  0  0  0  0  0  0
  -29.3180  -12.1820   17.8640 C   0  0  0  0  0  2  0  0  0  0  0  0
  -27.8680  -12.0600   18.3660 C   0  0  0  0  0  2  0  0  0  0  0  0
  -27.5680  -12.9890   19.5750 C   0  0  0  0  0  3  0  0  0  0  0  0
  -28.6780  -12.9270   20.6500 C   0  0  0  0  0  2  0  0  0  0  0  0
  -29.9640  -13.1630   19.9840 N   0  0  0  0  0  0  0  0  0  0  0  0
  -31.8470  -14.3000   19.5500 O   0  0  0  0  0  0  0  0  0  0  0  0
  -30.4840  -16.7260   19.8060 C   0  0  0  0  0  0  0  0  0  0  0  0
  -30.0110  -15.4920   20.1450 N   0  0  0  0  0  0  0  0  0  0  0  0
  -31.5960  -16.9190   19.2940 O   0  0  0  0  0  0  0  0  0  0  0  0
  -29.0760  -15.4360   20.5050 H   0  0  0  0  0  0  0  0  0  0  0  0
  -25.2370  -13.6010   20.4620 C   0  0  0  0  0  0  0  0  0  0  0  0
  -24.1840  -12.8340   20.8800 C   0  0  0  0  0  0  0  0  0  0  0  0
  -24.6190  -11.4780   20.7810 C   0  0  0  0  0  0  0  0  0  0  0  0
  -26.2490  -12.7130   20.1380 N   0  0  0  0  0  0  0  0  0  0  0  0
  -25.8870  -11.4280   20.3900 N   0  0  0  0  0  0  0  0  0  0  0  0
  -23.8830  -10.2210   20.9800 C   0  0  0  0  0  0  0  0  0  0  0  0
  -24.3200   -9.2460   21.9040 C   0  0  0  0  0  3  0  0  0  0  0  0
  -23.5850   -8.0560   22.0900 C   0  0  0  0  0  3  0  0  0  0  0  0
  -22.3980   -7.8310   21.3530 C   0  0  0  0  0  0  0  0  0  0  0  0
  -21.9810   -8.7930   20.4160 C   0  0  0  0  0  3  0  0  0  0  0  0
  -22.7170   -9.9750   20.2280 C   0  0  0  0  0  3  0  0  0  0  0  0
  -21.6330   -6.6930   21.4490 O   0  0  0  0  0  0  0  0  0  0  0  0
  -21.5660   -5.9680   22.6120 C   0  0  0  0  0  0  0  0  0  0  0  0
  -21.0100   -6.5040   23.7930 C   0  0  0  0  0  3  0  0  0  0  0  0
  -20.8960   -5.7010   24.9450 C   0  0  0  0  0  3  0  0  0  0  0  0
  -21.3300   -4.3620   24.9160 C   0  0  0  0  0  0  0  0  0  0  0  0
  -21.8800   -3.8250   23.7390 C   0  0  0  0  0  3  0  0  0  0  0  0
  -21.9950   -4.6250   22.5890 C   0  0  0  0  0  0  0  0  0  0  0  0
  -22.5060   -4.0960   21.4510 F   0  0  0  0  0  0  0  0  0  0  0  0
  -21.2150   -3.5870   26.0200 F   0  0  0  0  0  0  0  0  0  0  0  0
  -22.8150  -13.3250   21.2530 C   0  0  0  0  0  0  0  0  0  0  0  0
  -22.1270  -12.6100   22.1350 N   0  0  0  0  0  0  0  0  0  0  0  0
  -22.3660  -14.3760   20.7950 O   0  0  0  0  0  0  0  0  0  0  0  0
  -22.5050  -11.7590   22.5240 H   0  0  0  0  0  0  0  0  0  0  0  0
  -21.2090  -12.9180   22.4280 H   0  0  0  0  0  0  0  0  0  0  0  0
  -25.4130  -14.9720   20.3030 N   0  0  0  0  0  0  0  0  0  0  0  0
  -24.6470  -15.6230   20.4350 H   0  0  0  0  0  0  0  0  0  0  0  0
  -26.2050  -15.3840   19.8300 H   0  0  0  0  0  0  0  0  0  0  0  0
  -27.5050  -21.6350   20.2600 O   0  0  0  0  0  0  0  0  0  0  0  0
  -27.8850  -22.7010   19.3710 C   0  0  0  0  0  2  0  0  0  0  0  0
  -27.8920  -24.0860   20.0720 C   0  0  0  0  0  2  0  0  0  0  0  0
  -28.4070  -25.2310   19.1570 C   0  0  0  0  0  2  0  0  0  0  0  0
  -28.3610  -26.5440   19.7470 O   0  0  0  0  0  0  0  0  0  0  0  0
  -24.5720  -31.5400   23.1130 C   0  0  0  0  0  0  0  0  0  0  0  0
  -27.1770  -27.2600   19.7660 C   0  0  0  0  0  0  0  0  0  0  0  0
  -23.3560  -30.2500   21.3900 C   0  0  0  0  0  3  0  0  0  0  0  0
  -24.7960  -28.7940   19.8700 C   0  0  0  0  0  0  0  0  0  0  0  0
  -25.8850  -30.6010   21.2120 C   0  0  0  0  0  2  0  0  0  0  0  0
  -25.9590  -29.2710   20.4860 C   0  0  0  0  0  0  0  0  0  0  0  0
  -27.1500  -28.5120   20.4280 C   0  0  0  0  0  3  0  0  0  0  0  0
  -25.9870  -26.7980   19.1550 C   0  0  0  0  0  3  0  0  0  0  0  0
  -24.8060  -27.5590   19.2030 C   0  0  0  0  0  3  0  0  0  0  0  0
  -23.5610  -29.6600   19.9700 C   0  0  0  0  0  2  0  0  0  0  0  0
  -24.6230  -30.8100   21.9640 N   0  0  0  0  0  0  0  0  0  0  0  0
  -23.4930  -31.7830   23.6710 O   0  0  0  0  0  0  0  0  0  0  0  0
  -22.7020  -29.1720   22.2850 C   0  0  0  0  0  0  0  0  0  0  0  0
  -21.3760  -29.0060   22.1510 N   0  0  0  0  0  0  0  0  0  0  0  0
  -23.3840  -28.4940   23.0570 O   0  0  0  0  0  0  0  0  0  0  0  0
  -20.8860  -29.6070   21.5030 H   0  0  0  0  0  0  0  0  0  0  0  0
  -17.9880  -27.8470   22.6360 C   0  0  0  0  0  0  0  0  0  0  0  0
  -20.5570  -28.0280   22.8660 C   0  0  0  0  0  3  0  0  0  0  0  0
  -20.6130  -26.6450   22.1760 C   0  0  0  0  0  2  0  0  0  0  0  0
  -19.4820  -26.4280   21.1660 C   0  0  0  0  0  2  0  0  0  0  0  0
  -18.1180  -26.5500   21.8520 C   0  0  0  0  0  2  0  0  0  0  0  0
  -19.1340  -28.5480   23.0970 C   0  0  0  0  0  0  0  0  0  0  0  0
  -18.9580  -29.7660   23.7890 C   0  0  0  0  0  3  0  0  0  0  0  0
  -17.6680  -30.2800   24.0250 C   0  0  0  0  0  3  0  0  0  0  0  0
  -16.5370  -29.5740   23.5770 C   0  0  0  0  0  3  0  0  0  0  0  0
  -16.6980  -28.3590   22.8890 C   0  0  0  0  0  3  0  0  0  0  0  0
  -25.8630  -32.1270   23.7660 C   0  0  0  0  0  3  0  0  0  0  0  0
  -25.5880  -33.5280   24.1110 N   0  0  0  0  0  0  0  0  0  0  0  0
  -25.9630  -34.5800   23.3690 C   0  0  0  0  0  0  0  0  0  0  0  0
  -26.6470  -34.4710   22.3480 O   0  0  0  0  0  0  0  0  0  0  0  0
  -24.9880  -33.6910   24.9050 H   0  0  0  0  0  0  0  0  0  0  0  0
  -24.3110  -36.4370   22.9790 C   0  0  0  0  0  1  0  0  0  0  0  0
  -25.5030  -35.9760   23.8340 C   0  0  0  0  0  3  0  0  0  0  0  0
  -27.6100  -36.7860   24.7960 C   0  0  0  0  0  1  0  0  0  0  0  0
  -26.5730  -36.9940   23.7870 N   0  0  0  0  0  0  0  0  0  0  0  0
  -26.1890  -37.9270   23.9170 H   0  0  0  0  0  0  0  0  0  0  0  0
  -26.3350  -31.3230   25.0400 C   0  0  1  0  0  0  0  0  0  0  0  0
  -25.2200  -31.1080   26.0890 C   0  0  0  0  0  1  0  0  0  0  0  0
  -26.8760  -29.9310   24.6360 C   0  0  0  0  0  1  0  0  0  0  0  0
  -27.4990  -32.0720   25.7310 C   0  0  0  0  0  1  0  0  0  0  0  0
  -30.2910  -21.6700   20.4160 O   0  0  0  0  0  0  0  0  0  0  0  0
  -31.2390  -22.2760   22.5180 C   0  0  0  0  0  1  0  0  0  0  0  0
  -31.5330  -21.7710   21.1060 C   0  0  0  0  0  2  0  0  0  0  0  0
  1  2  1  0
  2  5  2  0
  3  6  2  0
  4  1  2  0
  4  3  1  0
  5 47  1  0
  5  6  1  0
  6 92  1  0
  7 13  1  0
  7 16  1  0
  8 13  1  0
  9 10  1  0
  9  8  1  0
 11 10  1  0
 11 22  1  0
 11 12  1  0
 13 12  1  0
 14  7  2  0
 15  4  1  0
 15 16  1  0
 16 18  1  0
 17 15  2  0
 19 20  2  0
 20 39  1  0
 21 20  1  0
 21 24  1  0
 22 23  1  0
 22 19  1  0
 23 21  2  0
 24 25  1  0
 25 26  2  0
 27 30  1  0
 27 26  1  0
 28 27  2  0
 29 28  1  0
 29 24  2  0
 30 31  1  0
 31 32  1  0
 32 33  2  0
 34 33  1  0
 34 38  1  0
 35 34  2  0
 36 31  2  0
 36 35  1  0
 37 36  1  0
 39 40  1  0
 40 43  1  0
 40 42  1  0
 41 39  2  0
 44 45  1  0
 44 19  1  0
 46 44  1  0
 48 49  1  0
 48 47  1  0
 50 51  1  0
 50 49  1  0
 51 53  1  0
 52 63  2  0
 53 58  1  0
 54 62  1  0
 54 64  1  0
 55 61  1  0
 55 57  1  0
 56 62  1  0
 57 56  1  0
 58 57  2  0
 59 60  1  0
 59 53  2  0
 60 55  2  0
 61 54  1  0
 62 52  1  0
 64 66  2  0
 65 64  1  0
 67 65  1  0
 68 77  2  0
 68 73  1  0
 69 65  1  0
 69 73  1  0
 70 69  1  0
 71 72  1  0
 71 70  1  0
 72 68  1  0
 73 74  2  0
 74 75  1  0
 76 75  2  0
 77 76  1  0
 78 52  1  0
 78 79  1  0
 78 88  1  0
 79 82  1  0
 80 84  1  0
 80 79  1  0
 81 80  2  0
 84 83  1  0
 86 84  1  0
 86 87  1  0
 86 85  1  0
 88 91  1  1
 88 89  1  0
 90 88  1  0
 92 94  1  0
 94 93  1  0
M  ISO  4   7 100  16 100  50 101  51 101
M  END
>  <TORSDO>  (21) 
F 22

>  <SCORE>  (21) 
-12.377

>  <name>  (21) 
20

>  <ligand_id>  (21) 
20

>  <original_smiles>  (21) 
[H]c1c([H])c([H])c2c(c1[H])C([H])([H])C([H])([H])C([H])([H])C2([H])N([H])C(=O)C1([H])N(C(=O)C([H])(N([H])C(=O)C([H])(N([H])C([H])([H])[H])C([H])([H])[H])C(C([H])([H])[H])(C([H])([H])[H])C([H])([H])[H])C([H])([H])c2c([H])c(OC([H])([H])C([H])([H])C([H])([H])Oc3c([H])c([H])c(C(=O)N([H])C(=O)N4C([H])([H])C([H])([H])C([H])([H])C([H])(n5nc(-c6c([H])c([H])c(Oc7c([H])c([H])c(F)c([H])c7F)c([H])c6[H])c(C(=O)N([H])[H])c5N([H])[H])C4([H])[H])c([H])c3OC([H])([H])C([H])([H])[H])c([H])c([H])c2C1([H])[H]

>  <smiles>  (21) 
[H]c1c([H])c([H])c2c(c1[H])C([H])([H])C([H])([H])C([H])([H])C2([H])N([H])C(=O)C1([H])N(C(=O)C([H])(N([H])C(=O)C([H])(N([H])C([H])([H])[H])C([H])([H])[H])C(C([H])([H])[H])(C([H])([H])[H])C([H])([H])[H])C([H])([H])c2c([H])c(OC([H])([H])C([H])([H])C([H])([H])Oc3c([H])c([H])c(C(=O)N([H])C(=O)N4C([H])([H])C([H])([H])C([H])([H])C([H])(n5nc(-c6c([H])c([H])c(Oc7c([H])c([H])c(F)c([H])c7F)c([H])c6[H])c(C(=O)N([H])[H])c5N([H])[H])C4([H])[H])c([H])c3OC([H])([H])C([H])([H])[H])c([H])c([H])c2C1([H])[H]

$$$$
21:0:0
     RDKit          3D

 97106  0  0  1  0  0  0  0  0999 V2000
  -31.1240  -24.2890   18.9510 C   0  0  0  0  0  0  0  0  0  0  0  0
  -29.8010  -24.5870   18.2740 C   0  0  0  0  0  2  0  0  0  0  0  0
  -31.3830  -22.8110   19.2310 C   0  0  0  0  0  2  0  0  0  0  0  0
  -28.8510  -22.5240   19.4940 C   0  0  0  0  0  2  0  0  0  0  0  0
  -28.6510  -24.0470   19.1410 C   0  0  0  0  0  3  0  0  0  0  0  0
  -30.2370  -22.0770   19.8050 N   0  0  0  0  0  0  0  0  0  0  0  0
  -31.9270  -25.1760   19.2520 O   0  0  0  0  0  0  0  0  0  0  0  0
  -31.9680  -18.7040   20.0730 C   0  0  0  0  0  3  0  0  0  0  0  0
  -31.7330  -20.0740   19.8180 C   0  0  0  0  0  3  0  0  0  0  0  0
  -29.4450  -19.8150   20.5320 C   0  0  0  0  0  3  0  0  0  0  0  0
  -30.9610  -17.8650   20.5920 C   0  0  0  0  0  0  0  0  0  0  0  0
  -30.4640  -20.6790   20.0450 C   0  0  0  0  0  0  0  0  0  0  0  0
  -29.6800  -18.4390   20.8090 C   0  0  0  0  0  0  0  0  0  0  0  0
  -28.6350  -17.6770   21.3360 N   0  0  0  0  0  0  0  0  0  0  0  0
  -27.7780  -18.1270   21.6500 H   0  0  0  0  0  0  0  0  0  0  0  0
  -28.8050  -16.7750   21.7650 H   0  0  0  0  0  0  0  0  0  0  0  0
  -31.3490  -16.4340   21.0370 C   0  0  0  0  0  2  0  0  0  0  0  0
  -31.1660  -14.2520   19.7780 C   0  0  0  0  0  0  0  0  0  0  0  0
  -30.6700  -12.0880   18.6780 C   0  0  0  0  0  2  0  0  0  0  0  0
  -29.6690  -12.2900   17.5220 C   0  0  0  0  0  2  0  0  0  0  0  0
  -28.2190  -12.2380   18.0420 C   0  0  0  0  0  2  0  0  0  0  0  0
  -27.9960  -13.1390   19.2870 C   0  0  0  0  0  3  0  0  0  0  0  0
  -29.1020  -12.9090   20.3400 C   0  0  0  0  0  2  0  0  0  0  0  0
  -30.4030  -13.1280   19.6850 N   0  0  0  0  0  0  0  0  0  0  0  0
  -32.2610  -14.3560   19.2210 O   0  0  0  0  0  0  0  0  0  0  0  0
  -30.6290  -15.2760   20.4720 N   0  0  0  0  0  0  0  0  0  0  0  0
  -29.6870  -15.1320   20.8060 H   0  0  0  0  0  0  0  0  0  0  0  0
  -25.6970  -13.9150   20.1500 C   0  0  0  0  0  0  0  0  0  0  0  0
  -24.6020  -13.2200   20.5920 C   0  0  0  0  0  0  0  0  0  0  0  0
  -24.9640  -11.8380   20.5380 C   0  0  0  0  0  0  0  0  0  0  0  0
  -26.6600  -12.9610   19.8540 N   0  0  0  0  0  0  0  0  0  0  0  0
  -26.2240  -11.7060   20.1400 N   0  0  0  0  0  0  0  0  0  0  0  0
  -24.1630  -10.6320   20.7790 C   0  0  0  0  0  0  0  0  0  0  0  0
  -24.5600   -9.6570   21.7220 C   0  0  0  0  0  3  0  0  0  0  0  0
  -23.7650   -8.5130   21.9470 C   0  0  0  0  0  3  0  0  0  0  0  0
  -22.5560   -8.3360   21.2310 C   0  0  0  0  0  0  0  0  0  0  0  0
  -22.1780   -9.2970   20.2780 C   0  0  0  0  0  3  0  0  0  0  0  0
  -22.9730  -10.4330   20.0500 C   0  0  0  0  0  3  0  0  0  0  0  0
  -21.7320   -7.2460   21.3670 O   0  0  0  0  0  0  0  0  0  0  0  0
  -21.6380   -6.5590   22.5510 C   0  0  0  0  0  0  0  0  0  0  0  0
  -21.2610   -7.1930   23.7550 C   0  0  0  0  0  3  0  0  0  0  0  0
  -21.1110   -6.4340   24.9330 C   0  0  0  0  0  3  0  0  0  0  0  0
  -21.3260   -5.0420   24.9050 C   0  0  0  0  0  0  0  0  0  0  0  0
  -21.6950   -4.4090   23.7060 C   0  0  0  0  0  3  0  0  0  0  0  0
  -21.8470   -5.1660   22.5310 C   0  0  0  0  0  0  0  0  0  0  0  0
  -22.1830   -4.5490   21.3730 F   0  0  0  0  0  0  0  0  0  0  0  0
  -21.1740   -4.3100   26.0330 F   0  0  0  0  0  0  0  0  0  0  0  0
  -23.2630  -13.7970   20.9520 C   0  0  0  0  0  0  0  0  0  0  0  0
  -22.5490  -13.1630   21.8760 N   0  0  0  0  0  0  0  0  0  0  0  0
  -22.8620  -14.8450   20.4480 O   0  0  0  0  0  0  0  0  0  0  0  0
  -22.8880  -12.3170   22.3100 H   0  0  0  0  0  0  0  0  0  0  0  0
  -21.6510  -13.5320   22.1550 H   0  0  0  0  0  0  0  0  0  0  0  0
  -25.9470  -15.2700   19.9560 N   0  0  0  0  0  0  0  0  0  0  0  0
  -25.2400  -15.9780   20.1230 H   0  0  0  0  0  0  0  0  0  0  0  0
  -26.8150  -15.6530   19.6030 H   0  0  0  0  0  0  0  0  0  0  0  0
  -28.3330  -24.9710   20.3580 C   0  0  0  0  0  2  0  0  0  0  0  0
  -28.3900  -26.3850   20.0580 O   0  0  0  0  0  0  0  0  0  0  0  0
  -24.4970  -31.5390   23.0850 C   0  0  0  0  0  0  0  0  0  0  0  0
  -27.2080  -27.1010   20.0460 C   0  0  0  0  0  0  0  0  0  0  0  0
  -23.3240  -30.1430   21.4150 C   0  0  0  0  0  3  0  0  0  0  0  0
  -24.8070  -28.6080   20.0140 C   0  0  0  0  0  0  0  0  0  0  0  0
  -25.8530  -30.5060   21.2630 C   0  0  0  0  0  2  0  0  0  0  0  0
  -25.9550  -29.1350   20.6200 C   0  0  0  0  0  0  0  0  0  0  0  0
  -27.1580  -28.3930   20.6240 C   0  0  0  0  0  3  0  0  0  0  0  0
  -26.0420  -26.5860   19.4380 C   0  0  0  0  0  3  0  0  0  0  0  0
  -24.8480  -27.3340   19.4200 C   0  0  0  0  0  3  0  0  0  0  0  0
  -23.5600  -29.4640   20.0380 C   0  0  0  0  0  2  0  0  0  0  0  0
  -24.5750  -30.7440   21.9810 N   0  0  0  0  0  0  0  0  0  0  0  0
  -23.4050  -31.8070   23.6060 O   0  0  0  0  0  0  0  0  0  0  0  0
  -22.6560  -29.1180   22.3590 C   0  0  0  0  0  0  0  0  0  0  0  0
  -21.3270  -28.9640   22.2330 N   0  0  0  0  0  0  0  0  0  0  0  0
  -23.3290  -28.4670   23.1610 O   0  0  0  0  0  0  0  0  0  0  0  0
  -20.8470  -29.5390   21.5540 H   0  0  0  0  0  0  0  0  0  0  0  0
  -17.9300  -27.8440   22.7350 C   0  0  0  0  0  0  0  0  0  0  0  0
  -20.4950  -28.0270   22.9880 C   0  0  0  0  0  3  0  0  0  0  0  0
  -20.5540  -26.6100   22.3740 C   0  0  0  0  0  2  0  0  0  0  0  0
  -19.4350  -26.3430   21.3620 C   0  0  0  0  0  2  0  0  0  0  0  0
  -18.0640  -26.5090   22.0240 C   0  0  0  0  0  2  0  0  0  0  0  0
  -19.0720  -28.5640   23.1740 C   0  0  0  0  0  0  0  0  0  0  0  0
  -18.8910  -29.8180   23.7990 C   0  0  0  0  0  3  0  0  0  0  0  0
  -17.6020  -30.3490   23.9890 C   0  0  0  0  0  3  0  0  0  0  0  0
  -16.4740  -29.6230   23.5670 C   0  0  0  0  0  3  0  0  0  0  0  0
  -16.6380  -28.3740   22.9450 C   0  0  0  0  0  3  0  0  0  0  0  0
  -25.7710  -32.1670   23.7330 C   0  0  0  0  0  3  0  0  0  0  0  0
  -26.2660  -31.3920   25.0150 C   0  0  1  0  0  0  0  0  0  0  0  0
  -25.1550  -31.1540   26.0640 C   0  0  0  0  0  1  0  0  0  0  0  0
  -26.8510  -30.0150   24.6270 C   0  0  0  0  0  1  0  0  0  0  0  0
  -27.4090  -32.1800   25.6960 C   0  0  0  0  0  1  0  0  0  0  0  0
  -25.4580  -33.5650   24.0600 N   0  0  0  0  0  0  0  0  0  0  0  0
  -25.8000  -34.6180   23.3070 C   0  0  0  0  0  0  0  0  0  0  0  0
  -26.4850  -34.5160   22.2850 O   0  0  0  0  0  0  0  0  0  0  0  0
  -24.8490  -33.7190   24.8510 H   0  0  0  0  0  0  0  0  0  0  0  0
  -24.0730  -36.4050   22.9320 C   0  0  0  0  0  1  0  0  0  0  0  0
  -25.3060  -36.0060   23.7580 C   0  0  0  0  0  3  0  0  0  0  0  0
  -27.4300  -36.8920   24.6110 C   0  0  0  0  0  1  0  0  0  0  0  0
  -26.3390  -37.0600   23.6550 N   0  0  0  0  0  0  0  0  0  0  0  0
  -25.9300  -37.9800   23.7970 H   0  0  0  0  0  0  0  0  0  0  0  0
  1  3  1  0
  1  7  2  0
  2  1  1  0
  2  5  1  0
  3  6  1  0
  4  6  1  0
  5  4  1  0
  5 56  1  0
  6 12  1  0
  8 11  1  0
  9 12  1  0
  9  8  2  0
 10 13  1  0
 11 13  2  0
 11 17  1  0
 12 10  2  0
 13 14  1  0
 14 15  1  0
 14 16  1  0
 18 26  1  0
 19 24  1  0
 20 21  1  0
 20 19  1  0
 22 21  1  0
 22 31  1  0
 22 23  1  0
 24 18  1  0
 24 23  1  0
 25 18  2  0
 26 27  1  0
 26 17  1  0
 28 29  2  0
 29 48  1  0
 30 29  1  0
 30 33  1  0
 31 32  1  0
 31 28  1  0
 32 30  2  0
 33 34  1  0
 34 35  2  0
 36 39  1  0
 36 35  1  0
 37 36  2  0
 38 37  1  0
 38 33  2  0
 39 40  1  0
 40 41  1  0
 41 42  2  0
 43 42  1  0
 43 47  1  0
 44 43  2  0
 45 40  2  0
 45 44  1  0
 46 45  1  0
 48 49  1  0
 49 52  1  0
 49 51  1  0
 50 48  2  0
 53 54  1  0
 53 28  1  0
 55 53  1  0
 57 56  1  0
 58 69  2  0
 59 57  1  0
 59 64  1  0
 60 68  1  0
 60 70  1  0
 61 67  1  0
 61 63  1  0
 62 68  1  0
 63 64  2  0
 63 62  1  0
 65 59  2  0
 66 65  1  0
 66 61  2  0
 67 60  1  0
 68 58  1  0
 70 72  2  0
 71 70  1  0
 73 71  1  0
 74 83  2  0
 74 79  1  0
 75 71  1  0
 75 79  1  0
 76 75  1  0
 77 78  1  0
 77 76  1  0
 78 74  1  0
 79 80  2  0
 80 81  1  0
 82 81  2  0
 83 82  1  0
 84 58  1  0
 84 89  1  0
 84 85  1  0
 85 88  1  1
 85 86  1  0
 87 85  1  0
 89 92  1  0
 90 94  1  0
 90 89  1  0
 91 90  2  0
 94 93  1  0
 96 94  1  0
 96 97  1  0
 96 95  1  0
M  ISO  4  18 100  26 100  56 101  57 101
M  END
>  <TORSDO>  (22) 
F 20

>  <SCORE>  (22) 
-13.056

>  <name>  (22) 
21

>  <ligand_id>  (22) 
21

>  <original_smiles>  (22) 
[H]c1c([H])c([H])c2c(c1[H])C([H])([H])C([H])([H])C([H])([H])C2([H])N([H])C(=O)C1([H])N(C(=O)C([H])(N([H])C(=O)C([H])(N([H])C([H])([H])[H])C([H])([H])[H])C(C([H])([H])[H])(C([H])([H])[H])C([H])([H])[H])C([H])([H])c2c([H])c(OC([H])([H])C3([H])C([H])([H])C(=O)C([H])([H])N(c4c([H])c([H])c(C([H])([H])N([H])C(=O)N5C([H])([H])C([H])([H])C([H])([H])C([H])(n6nc(-c7c([H])c([H])c(Oc8c([H])c([H])c(F)c([H])c8F)c([H])c7[H])c(C(=O)N([H])[H])c6N([H])[H])C5([H])[H])c(N([H])[H])c4[H])C3([H])[H])c([H])c([H])c2C1([H])[H]

>  <smiles>  (22) 
[H]c1c([H])c([H])c2c(c1[H])C([H])([H])C([H])([H])C([H])([H])C2([H])N([H])C(=O)C1([H])N(C(=O)C([H])(N([H])C(=O)C([H])(N([H])C([H])([H])[H])C([H])([H])[H])C(C([H])([H])[H])(C([H])([H])[H])C([H])([H])[H])C([H])([H])c2c([H])c(OC([H])([H])C3([H])C([H])([H])C(=O)C([H])([H])N(c4c([H])c([H])c(C([H])([H])N([H])C(=O)N5C([H])([H])C([H])([H])C([H])([H])C([H])(n6nc(-c7c([H])c([H])c(Oc8c([H])c([H])c(F)c([H])c8F)c([H])c7[H])c(C(=O)N([H])[H])c6N([H])[H])C5([H])[H])c(N([H])[H])c4[H])C3([H])[H])c([H])c([H])c2C1([H])[H]

$$$$
22:0:0
     RDKit          3D

 95103  0  0  1  0  0  0  0  0999 V2000
  -28.9880  -17.9720   20.5440 C   0  0  0  0  0  3  0  0  0  0  0  0
  -31.3800  -18.0220   20.6750 C   0  0  0  0  0  3  0  0  0  0  0  0
  -28.9430  -19.3660   20.2310 C   0  0  0  0  0  0  0  0  0  0  0  0
  -30.1910  -17.2570   20.7720 C   0  0  0  0  0  0  0  0  0  0  0  0
  -31.3490  -19.4210   20.3840 C   0  0  0  0  0  0  0  0  0  0  0  0
  -30.1430  -20.1500   20.1520 C   0  0  0  0  0  0  0  0  0  0  0  0
  -30.9500  -14.7730   20.9840 C   0  0  0  0  0  0  0  0  0  0  0  0
  -30.8670  -12.4020   20.2400 C   0  0  0  0  0  2  0  0  0  0  0  0
  -30.0790  -12.3440   18.9120 C   0  0  0  0  0  2  0  0  0  0  0  0
  -28.5620  -12.2360   19.1720 C   0  0  0  0  0  2  0  0  0  0  0  0
  -28.0610  -13.2670   20.2170 C   0  0  0  0  0  3  0  0  0  0  0  0
  -28.9700  -13.2760   21.4670 C   0  0  0  0  0  2  0  0  0  0  0  0
  -30.3460  -13.5440   21.0170 N   0  0  0  0  0  0  0  0  0  0  0  0
  -32.1470  -14.8990   20.7070 O   0  0  0  0  0  0  0  0  0  0  0  0
  -30.0980  -15.8370   21.1080 N   0  0  0  0  0  0  0  0  0  0  0  0
  -29.1700  -15.5320   21.3570 H   0  0  0  0  0  0  0  0  0  0  0  0
  -25.6440  -13.9820   20.7240 C   0  0  0  0  0  0  0  0  0  0  0  0
  -24.5070  -13.2600   20.9690 C   0  0  0  0  0  0  0  0  0  0  0  0
  -24.8990  -11.8870   20.9370 C   0  0  0  0  0  0  0  0  0  0  0  0
  -26.6580  -13.0510   20.5610 N   0  0  0  0  0  0  0  0  0  0  0  0
  -26.2080  -11.7840   20.7490 N   0  0  0  0  0  0  0  0  0  0  0  0
  -24.0920  -10.6610   21.0190 C   0  0  0  0  0  0  0  0  0  0  0  0
  -24.4350   -9.6080   21.8930 C   0  0  0  0  0  3  0  0  0  0  0  0
  -23.6340   -8.4480   21.9670 C   0  0  0  0  0  3  0  0  0  0  0  0
  -22.4750   -8.3340   21.1630 C   0  0  0  0  0  0  0  0  0  0  0  0
  -22.1500   -9.3760   20.2770 C   0  0  0  0  0  3  0  0  0  0  0  0
  -22.9510  -10.5270   20.2010 C   0  0  0  0  0  3  0  0  0  0  0  0
  -21.6520   -7.2350   21.1490 O   0  0  0  0  0  0  0  0  0  0  0  0
  -21.5790   -6.3750   22.2160 C   0  0  0  0  0  0  0  0  0  0  0  0
  -21.2050   -6.8170   23.5040 C   0  0  0  0  0  3  0  0  0  0  0  0
  -21.0760   -5.8890   24.5560 C   0  0  0  0  0  3  0  0  0  0  0  0
  -21.3110   -4.5200   24.3220 C   0  0  0  0  0  0  0  0  0  0  0  0
  -21.6780   -4.0780   23.0380 C   0  0  0  0  0  3  0  0  0  0  0  0
  -21.8090   -5.0030   21.9880 C   0  0  0  0  0  0  0  0  0  0  0  0
  -22.1430   -4.5700   20.7490 F   0  0  0  0  0  0  0  0  0  0  0  0
  -21.1790   -3.6280   25.3310 F   0  0  0  0  0  0  0  0  0  0  0  0
  -23.1170  -13.8070   21.1230 C   0  0  0  0  0  0  0  0  0  0  0  0
  -22.2800  -13.1380   21.9100 N   0  0  0  0  0  0  0  0  0  0  0  0
  -22.7800  -14.8600   20.5840 O   0  0  0  0  0  0  0  0  0  0  0  0
  -22.5630  -12.2860   22.3690 H   0  0  0  0  0  0  0  0  0  0  0  0
  -21.3430  -13.4860   22.0550 H   0  0  0  0  0  0  0  0  0  0  0  0
  -25.8960  -15.3460   20.6000 N   0  0  0  0  0  0  0  0  0  0  0  0
  -25.1450  -16.0260   20.6220 H   0  0  0  0  0  0  0  0  0  0  0  0
  -26.7710  -15.7290   20.2700 H   0  0  0  0  0  0  0  0  0  0  0  0
  -27.5830  -19.9210   20.0850 C   0  0  0  0  0  0  0  0  0  0  0  0
  -26.8250  -19.5020   18.8340 C   0  0  0  0  0  1  0  0  0  0  0  0
  -27.0510  -20.6610   20.9160 O   0  0  0  0  0  0  0  0  0  0  0  0
  -32.5540  -20.1190   20.3230 N   0  0  0  0  0  0  0  0  0  0  0  0
  -33.3920  -19.6110   20.0590 H   0  0  0  0  0  0  0  0  0  0  0  0
  -32.5050  -21.0440   19.9060 H   0  0  0  0  0  0  0  0  0  0  0  0
  -30.2960  -21.5420   19.9030 O   0  0  0  0  0  0  0  0  0  0  0  0
  -29.2270  -22.4930   19.5880 C   0  0  0  0  0  3  0  0  0  0  0  0
  -29.6310  -24.0350   19.5790 C   0  0  0  0  0  3  0  0  0  0  0  0
  -28.4630  -25.0660   19.2900 C   0  0  0  0  0  2  0  0  0  0  0  0
  -28.6390  -26.5110   19.5500 O   0  0  0  0  0  0  0  0  0  0  0  0
  -24.6550  -31.4620   22.9670 C   0  0  0  0  0  0  0  0  0  0  0  0
  -27.4820  -27.3100   19.5570 C   0  0  0  0  0  0  0  0  0  0  0  0
  -23.5270  -30.1760   21.1880 C   0  0  0  0  0  3  0  0  0  0  0  0
  -25.0540  -28.8190   19.6540 C   0  0  0  0  0  0  0  0  0  0  0  0
  -26.0540  -30.6060   21.0770 C   0  0  0  0  0  2  0  0  0  0  0  0
  -26.1950  -29.2970   20.3100 C   0  0  0  0  0  0  0  0  0  0  0  0
  -27.4130  -28.5560   20.2510 C   0  0  0  0  0  3  0  0  0  0  0  0
  -26.3120  -26.8860   18.8840 C   0  0  0  0  0  3  0  0  0  0  0  0
  -25.1130  -27.6190   18.9340 C   0  0  0  0  0  3  0  0  0  0  0  0
  -23.7840  -29.6380   19.7560 C   0  0  0  0  0  2  0  0  0  0  0  0
  -24.7630  -30.7590   21.8020 N   0  0  0  0  0  0  0  0  0  0  0  0
  -23.5540  -31.6520   23.5050 O   0  0  0  0  0  0  0  0  0  0  0  0
  -22.8890  -29.0520   22.0400 C   0  0  0  0  0  0  0  0  0  0  0  0
  -21.5660  -28.8660   21.9010 N   0  0  0  0  0  0  0  0  0  0  0  0
  -23.5840  -28.3570   22.7850 O   0  0  0  0  0  0  0  0  0  0  0  0
  -21.0640  -29.4830   21.2780 H   0  0  0  0  0  0  0  0  0  0  0  0
  -18.2090  -27.5800   22.3050 C   0  0  0  0  0  0  0  0  0  0  0  0
  -20.7670  -27.8410   22.5750 C   0  0  0  0  0  3  0  0  0  0  0  0
  -20.8780  -26.4800   21.8490 C   0  0  0  0  0  2  0  0  0  0  0  0
  -19.7690  -26.2550   20.8170 C   0  0  0  0  0  2  0  0  0  0  0  0
  -18.3930  -26.3130   21.4870 C   0  0  0  0  0  2  0  0  0  0  0  0
  -19.3240  -28.3060   22.8020 C   0  0  0  0  0  0  0  0  0  0  0  0
  -19.0970  -29.4950   23.5280 C   0  0  0  0  0  3  0  0  0  0  0  0
  -17.7890  -29.9600   23.7590 C   0  0  0  0  0  3  0  0  0  0  0  0
  -16.6880  -29.2300   23.2770 C   0  0  0  0  0  3  0  0  0  0  0  0
  -16.8990  -28.0410   22.5560 C   0  0  0  0  0  3  0  0  0  0  0  0
  -25.9050  -32.0810   23.6650 C   0  0  0  0  0  3  0  0  0  0  0  0
  -25.5480  -33.4420   24.0900 N   0  0  0  0  0  0  0  0  0  0  0  0
  -25.8560  -34.5560   23.4130 C   0  0  0  0  0  0  0  0  0  0  0  0
  -26.5390  -34.5470   22.3860 O   0  0  0  0  0  0  0  0  0  0  0  0
  -24.9400  -33.5190   24.8930 H   0  0  0  0  0  0  0  0  0  0  0  0
  -24.0660  -36.3080   23.1770 C   0  0  0  0  0  1  0  0  0  0  0  0
  -25.3200  -35.8920   23.9620 C   0  0  0  0  0  3  0  0  0  0  0  0
  -27.4210  -36.7950   24.8580 C   0  0  0  0  0  1  0  0  0  0  0  0
  -26.3160  -36.9850   23.9230 N   0  0  0  0  0  0  0  0  0  0  0  0
  -25.8780  -37.8800   24.1280 H   0  0  0  0  0  0  0  0  0  0  0  0
  -26.4140  -31.2300   24.8940 C   0  0  1  0  0  0  0  0  0  0  0  0
  -25.3060  -30.8950   25.9190 C   0  0  0  0  0  1  0  0  0  0  0  0
  -27.0340  -29.8960   24.4160 C   0  0  0  0  0  1  0  0  0  0  0  0
  -27.5340  -31.9980   25.6340 C   0  0  0  0  0  1  0  0  0  0  0  0
  1  4  1  0
  2  4  2  0
  3  1  2  0
  4 15  1  0
  5  2  1  0
  6  3  1  0
  6  5  2  0
  7 13  1  0
  7 15  1  0
  8 13  1  0
  9 10  1  0
  9  8  1  0
 11 10  1  0
 11 20  1  0
 11 12  1  0
 13 12  1  0
 14  7  2  0
 15 16  1  0
 17 18  2  0
 18 37  1  0
 19 18  1  0
 19 22  1  0
 20 17  1  0
 20 21  1  0
 21 19  2  0
 22 23  1  0
 23 24  2  0
 25 24  1  0
 26 25  2  0
 27 26  1  0
 27 22  2  0
 28 25  1  0
 28 29  1  0
 29 30  1  0
 30 31  2  0
 32 31  1  0
 32 36  1  0
 33 32  2  0
 34 29  2  0
 34 33  1  0
 35 34  1  0
 37 38  1  0
 38 41  1  0
 38 40  1  0
 39 37  2  0
 42 43  1  0
 42 17  1  0
 44 42  1  0
 45  3  1  0
 45 47  2  0
 46 45  1  0
 48  5  1  0
 49 48  1  0
 50 48  1  0
 51  6  1  0
 52 51  1  0
 53 52  2  0
 54 55  1  0
 54 53  1  0
 55 57  1  0
 56 67  2  0
 57 62  1  0
 58 66  1  0
 58 68  1  0
 59 65  1  0
 59 61  1  0
 60 66  1  0
 61 60  1  0
 62 61  2  0
 63 64  1  0
 63 57  2  0
 64 59  2  0
 65 58  1  0
 66 56  1  0
 68 70  2  0
 69 68  1  0
 71 69  1  0
 72 81  2  0
 72 77  1  0
 73 69  1  0
 73 77  1  0
 74 73  1  0
 75 76  1  0
 75 74  1  0
 76 72  1  0
 77 78  2  0
 78 79  1  0
 80 79  2  0
 81 80  1  0
 82 56  1  0
 82 83  1  0
 82 92  1  0
 83 86  1  0
 84 88  1  0
 84 83  1  0
 85 84  2  0
 88 87  1  0
 90 88  1  0
 90 91  1  0
 90 89  1  0
 92 95  1  1
 92 93  1  0
 94 92  1  0
M  ISO  4   7 100  15 100  54 101  55 101
M  END
>  <TORSDO>  (23) 
F 22

>  <SCORE>  (23) 
-10.919

>  <name>  (23) 
22

>  <ligand_id>  (23) 
22

>  <original_smiles>  (23) 
[H]c1c([H])c([H])c2c(c1[H])C([H])([H])C([H])([H])C([H])([H])C2([H])N([H])C(=O)C1([H])N(C(=O)C([H])(N([H])C(=O)C([H])(N([H])C([H])([H])[H])C([H])([H])[H])C(C([H])([H])[H])(C([H])([H])[H])C([H])([H])[H])C([H])([H])c2c([H])c(OC([H])([H])C([H])([H])C([H])([H])Oc3c(C(=O)C([H])([H])[H])c([H])c(N([H])C(=O)N4C([H])([H])C([H])([H])C([H])([H])C([H])(n5nc(-c6c([H])c([H])c(Oc7c([H])c([H])c(F)c([H])c7F)c([H])c6[H])c(C(=O)N([H])[H])c5N([H])[H])C4([H])[H])c([H])c3N([H])[H])c([H])c([H])c2C1([H])[H]

>  <smiles>  (23) 
[H]c1c([H])c([H])c2c(c1[H])C([H])([H])C([H])([H])C([H])([H])C2([H])N([H])C(=O)C1([H])N(C(=O)C([H])(N([H])C(=O)C([H])(N([H])C([H])([H])[H])C([H])([H])[H])C(C([H])([H])[H])(C([H])([H])[H])C([H])([H])[H])C([H])([H])c2c([H])c(OC([H])([H])C([H])([H])C([H])([H])Oc3c(C(=O)C([H])([H])[H])c([H])c(N([H])C(=O)N4C([H])([H])C([H])([H])C([H])([H])C([H])(n5nc(-c6c([H])c([H])c(Oc7c([H])c([H])c(F)c([H])c7F)c([H])c6[H])c(C(=O)N([H])[H])c5N([H])[H])C4([H])[H])c([H])c3N([H])[H])c([H])c([H])c2C1([H])[H]

$$$$
23:0:0
     RDKit          3D

 90 98  0  0  1  0  0  0  0  0999 V2000
  -31.0930  -17.9190   20.5650 C   0  0  0  0  0  3  0  0  0  0  0  0
  -31.0950  -19.3450   20.5020 C   0  0  0  0  0  3  0  0  0  0  0  0
  -28.7000  -19.3790   20.3330 C   0  0  0  0  0  3  0  0  0  0  0  0
  -29.8810  -17.1820   20.5250 C   0  0  0  0  0  0  0  0  0  0  0  0
  -29.9090  -20.1220   20.3880 C   0  0  0  0  0  0  0  0  0  0  0  0
  -28.6910  -17.9520   20.4070 C   0  0  0  0  0  0  0  0  0  0  0  0
  -27.5060  -17.2970   20.3610 F   0  0  0  0  0  0  0  0  0  0  0  0
  -30.5680  -14.6790   20.3110 C   0  0  0  0  0  0  0  0  0  0  0  0
  -30.3460  -12.4480   19.2340 C   0  0  0  0  0  2  0  0  0  0  0  0
  -29.3930  -12.5890   18.0260 C   0  0  0  0  0  2  0  0  0  0  0  0
  -27.9220  -12.4340   18.4630 C   0  0  0  0  0  2  0  0  0  0  0  0
  -27.5740  -13.2900   19.7100 C   0  0  0  0  0  3  0  0  0  0  0  0
  -28.6390  -13.1200   20.8180 C   0  0  0  0  0  2  0  0  0  0  0  0
  -29.9480  -13.4590   20.2340 N   0  0  0  0  0  0  0  0  0  0  0  0
  -31.7320  -14.8330   19.9340 O   0  0  0  0  0  0  0  0  0  0  0  0
  -29.7540  -15.7290   20.6430 N   0  0  0  0  0  0  0  0  0  0  0  0
  -28.8180  -15.4350   20.8750 H   0  0  0  0  0  0  0  0  0  0  0  0
  -25.1820  -13.8950   20.4320 C   0  0  0  0  0  0  0  0  0  0  0  0
  -24.1150  -13.1250   20.8040 C   0  0  0  0  0  0  0  0  0  0  0  0
  -24.5760  -11.7720   20.7780 C   0  0  0  0  0  0  0  0  0  0  0  0
  -26.2260  -13.0130   20.2010 N   0  0  0  0  0  0  0  0  0  0  0  0
  -25.8660  -11.7310   20.4680 N   0  0  0  0  0  0  0  0  0  0  0  0
  -23.8480  -10.5130   20.9740 C   0  0  0  0  0  0  0  0  0  0  0  0
  -24.2760   -9.5510   21.9150 C   0  0  0  0  0  3  0  0  0  0  0  0
  -23.5480   -8.3540   22.0980 C   0  0  0  0  0  3  0  0  0  0  0  0
  -22.3770   -8.1130   21.3420 C   0  0  0  0  0  0  0  0  0  0  0  0
  -21.9680   -9.0640   20.3910 C   0  0  0  0  0  3  0  0  0  0  0  0
  -22.6970  -10.2510   20.2050 C   0  0  0  0  0  3  0  0  0  0  0  0
  -21.6220   -6.9700   21.4330 O   0  0  0  0  0  0  0  0  0  0  0  0
  -21.5600   -6.2390   22.5930 C   0  0  0  0  0  0  0  0  0  0  0  0
  -21.1070   -6.8040   23.8060 C   0  0  0  0  0  3  0  0  0  0  0  0
  -20.9940   -6.0000   24.9580 C   0  0  0  0  0  3  0  0  0  0  0  0
  -21.3220   -4.6320   24.8980 C   0  0  0  0  0  0  0  0  0  0  0  0
  -21.7670   -4.0660   23.6900 C   0  0  0  0  0  3  0  0  0  0  0  0
  -21.8820   -4.8680   22.5400 C   0  0  0  0  0  0  0  0  0  0  0  0
  -22.2920   -4.3140   21.3730 F   0  0  0  0  0  0  0  0  0  0  0  0
  -21.2050   -3.8570   26.0010 F   0  0  0  0  0  0  0  0  0  0  0  0
  -22.7190  -13.6050   21.0780 C   0  0  0  0  0  0  0  0  0  0  0  0
  -21.9920  -12.9140   21.9490 N   0  0  0  0  0  0  0  0  0  0  0  0
  -22.2810  -14.6300   20.5560 O   0  0  0  0  0  0  0  0  0  0  0  0
  -22.3580  -12.0850   22.3930 H   0  0  0  0  0  0  0  0  0  0  0  0
  -21.0560  -13.2180   22.1750 H   0  0  0  0  0  0  0  0  0  0  0  0
  -25.3430  -15.2660   20.2560 N   0  0  0  0  0  0  0  0  0  0  0  0
  -24.5770  -15.9130   20.3970 H   0  0  0  0  0  0  0  0  0  0  0  0
  -26.2090  -15.7380   20.0180 H   0  0  0  0  0  0  0  0  0  0  0  0
  -30.0250  -21.5300   20.3580 O   0  0  0  0  0  0  0  0  0  0  0  0
  -28.8960  -22.4420   20.1650 C   0  0  0  0  0  2  0  0  0  0  0  0
  -29.2560  -23.9960   20.2800 C   0  0  0  0  0  3  0  0  0  0  0  0
  -28.1150  -25.0540   19.9510 C   0  0  0  0  0  3  0  0  0  0  0  0
  -28.3390  -26.5060   20.1590 O   0  0  0  0  0  0  0  0  0  0  0  0
  -24.6140  -31.8650   23.2520 C   0  0  0  0  0  0  0  0  0  0  0  0
  -27.2190  -27.3560   20.1210 C   0  0  0  0  0  0  0  0  0  0  0  0
  -23.4060  -30.4950   21.5920 C   0  0  0  0  0  3  0  0  0  0  0  0
  -24.8530  -28.9680   20.1410 C   0  0  0  0  0  0  0  0  0  0  0  0
  -25.9460  -30.8150   21.4110 C   0  0  0  0  0  2  0  0  0  0  0  0
  -26.0230  -29.4470   20.7430 C   0  0  0  0  0  0  0  0  0  0  0  0
  -27.2090  -28.6530   20.7210 C   0  0  0  0  0  3  0  0  0  0  0  0
  -26.0200  -26.9330   19.4980 C   0  0  0  0  0  3  0  0  0  0  0  0
  -24.8540  -27.7170   19.5100 C   0  0  0  0  0  3  0  0  0  0  0  0
  -23.6170  -29.8420   20.2020 C   0  0  0  0  0  2  0  0  0  0  0  0
  -24.6750  -31.0740   22.1420 N   0  0  0  0  0  0  0  0  0  0  0  0
  -23.5310  -32.1370   23.7920 O   0  0  0  0  0  0  0  0  0  0  0  0
  -22.7430  -29.4640   22.5360 C   0  0  0  0  0  0  0  0  0  0  0  0
  -21.4170  -29.2900   22.4050 N   0  0  0  0  0  0  0  0  0  0  0  0
  -23.4200  -28.8240   23.3450 O   0  0  0  0  0  0  0  0  0  0  0  0
  -20.9300  -29.8560   21.7250 H   0  0  0  0  0  0  0  0  0  0  0  0
  -18.0360  -28.0990   22.8910 C   0  0  0  0  0  0  0  0  0  0  0  0
  -20.5950  -28.3430   23.1610 C   0  0  0  0  0  3  0  0  0  0  0  0
  -20.6890  -26.9200   22.5620 C   0  0  0  0  0  2  0  0  0  0  0  0
  -19.5850  -26.6200   21.5440 C   0  0  0  0  0  2  0  0  0  0  0  0
  -18.2040  -26.7600   22.1930 C   0  0  0  0  0  2  0  0  0  0  0  0
  -19.1580  -28.8490   23.3310 C   0  0  0  0  0  0  0  0  0  0  0  0
  -18.9450  -30.1030   23.9450 C   0  0  0  0  0  3  0  0  0  0  0  0
  -17.6430  -30.6080   24.1200 C   0  0  0  0  0  3  0  0  0  0  0  0
  -16.5350  -29.8550   23.6960 C   0  0  0  0  0  3  0  0  0  0  0  0
  -16.7310  -28.6020   23.0870 C   0  0  0  0  0  3  0  0  0  0  0  0
  -25.8970  -32.4860   23.8840 C   0  0  0  0  0  3  0  0  0  0  0  0
  -26.4020  -31.7040   25.1580 C   0  0  1  0  0  0  0  0  0  0  0  0
  -25.3030  -31.4670   26.2190 C   0  0  0  0  0  1  0  0  0  0  0  0
  -26.9780  -30.3240   24.7620 C   0  0  0  0  0  1  0  0  0  0  0  0
  -27.5540  -32.4870   25.8300 C   0  0  0  0  0  1  0  0  0  0  0  0
  -25.5960  -33.8840   24.2200 N   0  0  0  0  0  0  0  0  0  0  0  0
  -25.9130  -34.9370   23.4560 C   0  0  0  0  0  0  0  0  0  0  0  0
  -26.5620  -34.8340   22.4100 O   0  0  0  0  0  0  0  0  0  0  0  0
  -25.0160  -34.0380   25.0330 H   0  0  0  0  0  0  0  0  0  0  0  0
  -24.1680  -36.7240   23.1540 C   0  0  0  0  0  1  0  0  0  0  0  0
  -25.4370  -36.3260   23.9240 C   0  0  0  0  0  3  0  0  0  0  0  0
  -27.5930  -37.2240   24.6820 C   0  0  0  0  0  1  0  0  0  0  0  0
  -26.4620  -37.3820   23.7720 N   0  0  0  0  0  0  0  0  0  0  0  0
  -26.0580  -38.3010   23.9250 H   0  0  0  0  0  0  0  0  0  0  0  0
  2  1  2  0
  3  5  2  0
  3  6  1  0
  4  1  1  0
  4 16  1  0
  5  2  1  0
  6  4  2  0
  7  6  1  0
  8 16  1  0
  9 14  1  0
 10 11  1  0
 10  9  1  0
 12 11  1  0
 12 21  1  0
 12 13  1  0
 14  8  1  0
 14 13  1  0
 15  8  2  0
 16 17  1  0
 18 19  2  0
 19 38  1  0
 20 19  1  0
 20 23  1  0
 21 18  1  0
 21 22  1  0
 22 20  2  0
 23 24  1  0
 24 25  2  0
 26 29  1  0
 26 25  1  0
 27 26  2  0
 28 27  1  0
 28 23  2  0
 29 30  1  0
 30 31  1  0
 31 32  2  0
 33 32  1  0
 33 37  1  0
 34 33  2  0
 35 30  2  0
 35 34  1  0
 36 35  1  0
 38 39  1  0
 39 42  1  0
 39 41  1  0
 40 38  2  0
 43 44  1  0
 43 18  1  0
 45 43  1  0
 46  5  1  0
 47 48  1  0
 47 46  1  0
 49 50  1  0
 49 48  2  0
 51 62  2  0
 52 50  1  0
 52 57  1  0
 53 61  1  0
 53 63  1  0
 54 60  1  0
 54 56  1  0
 55 61  1  0
 56 55  1  0
 57 56  2  0
 58 59  1  0
 58 52  2  0
 59 54  2  0
 60 53  1  0
 61 51  1  0
 63 65  2  0
 64 63  1  0
 66 64  1  0
 67 76  2  0
 67 72  1  0
 68 64  1  0
 68 72  1  0
 69 68  1  0
 70 71  1  0
 70 69  1  0
 71 67  1  0
 72 73  2  0
 73 74  1  0
 75 74  2  0
 76 75  1  0
 77 51  1  0
 77 82  1  0
 77 78  1  0
 78 81  1  1
 78 79  1  0
 80 78  1  0
 82 85  1  0
 83 87  1  0
 83 82  1  0
 84 83  2  0
 87 86  1  0
 89 87  1  0
 89 90  1  0
 89 88  1  0
M  ISO  4   8 100  16 100  49 101  50 101
M  END
>  <TORSDO>  (24) 
F 20

>  <SCORE>  (24) 
-14.070

>  <name>  (24) 
23

>  <ligand_id>  (24) 
23

>  <original_smiles>  (24) 
[H]c1c([H])c([H])c2c(c1[H])C([H])([H])C([H])([H])C([H])([H])C2([H])N([H])C(=O)C1([H])N(C(=O)C([H])(N([H])C(=O)C([H])(N([H])C([H])([H])[H])C([H])([H])[H])C(C([H])([H])[H])(C([H])([H])[H])C([H])([H])[H])C([H])([H])c2c([H])c(OC([H])([H])C([H])([H])C([H])([H])Oc3c([H])c([H])c(N([H])C(=O)N4C([H])([H])C([H])([H])C([H])([H])C([H])(n5nc(-c6c([H])c([H])c(Oc7c([H])c([H])c(F)c([H])c7F)c([H])c6[H])c(C(=O)N([H])[H])c5N([H])[H])C4([H])[H])c(F)c3[H])c([H])c([H])c2C1([H])[H]

>  <smiles>  (24) 
[H]c1c([H])c([H])c2c(c1[H])C([H])([H])C([H])([H])C([H])([H])C2([H])N([H])C(=O)C1([H])N(C(=O)C([H])(N([H])C(=O)C([H])(N([H])C([H])([H])[H])C([H])([H])[H])C(C([H])([H])[H])(C([H])([H])[H])C([H])([H])[H])C([H])([H])c2c([H])c(OC([H])([H])C([H])([H])C([H])([H])Oc3c([H])c([H])c(N([H])C(=O)N4C([H])([H])C([H])([H])C([H])([H])C([H])(n5nc(-c6c([H])c([H])c(Oc7c([H])c([H])c(F)c([H])c7F)c([H])c6[H])c(C(=O)N([H])[H])c5N([H])[H])C4([H])[H])c(F)c3[H])c([H])c([H])c2C1([H])[H]

$$$$
24:0:0
     RDKit          3D

 94102  0  0  1  0  0  0  0  0999 V2000
  -30.9880  -19.2040   19.8530 C   0  0  0  0  0  3  0  0  0  0  0  0
  -28.7660  -18.6540   20.6350 C   0  0  0  0  0  3  0  0  0  0  0  0
  -30.1220  -18.2970   20.5060 C   0  0  0  0  0  0  0  0  0  0  0  0
  -30.5320  -20.4570   19.3650 C   0  0  0  0  0  0  0  0  0  0  0  0
  -28.3010  -19.9050   20.1630 C   0  0  0  0  0  0  0  0  0  0  0  0
  -29.1700  -20.8450   19.5470 C   0  0  0  0  0  0  0  0  0  0  0  0
  -31.5360  -21.3170   18.6180 C   0  0  0  0  0  1  0  0  0  0  0  0
  -26.9550  -20.2320   20.3210 N   0  0  0  0  0  0  0  0  0  0  0  0
  -26.7080  -21.2070   20.1870 H   0  0  0  0  0  0  0  0  0  0  0  0
  -26.4190  -19.7710   21.0490 H   0  0  0  0  0  0  0  0  0  0  0  0
  -30.6830  -17.0200   21.1610 C   0  0  0  0  0  2  0  0  0  0  0  0
  -30.6810  -14.7030   20.1990 C   0  0  0  0  0  0  0  0  0  0  0  0
  -30.3630  -12.4990   19.1220 C   0  0  0  0  0  2  0  0  0  0  0  0
  -29.3750  -12.6280   17.9460 C   0  0  0  0  0  2  0  0  0  0  0  0
  -27.9240  -12.4690   18.4420 C   0  0  0  0  0  2  0  0  0  0  0  0
  -27.6140  -13.3500   19.6810 C   0  0  0  0  0  3  0  0  0  0  0  0
  -28.7160  -13.2130   20.7550 C   0  0  0  0  0  2  0  0  0  0  0  0
  -30.0050  -13.5230   20.1180 N   0  0  0  0  0  0  0  0  0  0  0  0
  -31.7800  -14.8660   19.6620 O   0  0  0  0  0  0  0  0  0  0  0  0
  -30.0550  -15.7270   20.8220 N   0  0  0  0  0  0  0  0  0  0  0  0
  -29.1300  -15.5490   21.1820 H   0  0  0  0  0  0  0  0  0  0  0  0
  -25.2760  -13.9390   20.5770 C   0  0  0  0  0  0  0  0  0  0  0  0
  -24.2180  -13.1580   20.9540 C   0  0  0  0  0  0  0  0  0  0  0  0
  -24.6510  -11.8050   20.8020 C   0  0  0  0  0  0  0  0  0  0  0  0
  -26.2880  -13.0620   20.2220 N   0  0  0  0  0  0  0  0  0  0  0  0
  -25.9200  -11.7690   20.4160 N   0  0  0  0  0  0  0  0  0  0  0  0
  -23.9130  -10.5430   20.9500 C   0  0  0  0  0  0  0  0  0  0  0  0
  -24.3670   -9.5160   21.8070 C   0  0  0  0  0  3  0  0  0  0  0  0
  -23.6300   -8.3200   21.9450 C   0  0  0  0  0  3  0  0  0  0  0  0
  -22.4230   -8.1440   21.2260 C   0  0  0  0  0  0  0  0  0  0  0  0
  -21.9870   -9.1610   20.3570 C   0  0  0  0  0  3  0  0  0  0  0  0
  -22.7250  -10.3470   20.2180 C   0  0  0  0  0  3  0  0  0  0  0  0
  -21.6560   -7.0070   21.2770 O   0  0  0  0  0  0  0  0  0  0  0  0
  -21.6300   -6.2040   22.3900 C   0  0  0  0  0  0  0  0  0  0  0  0
  -21.2390   -6.6970   23.6540 C   0  0  0  0  0  3  0  0  0  0  0  0
  -21.1610   -5.8230   24.7570 C   0  0  0  0  0  3  0  0  0  0  0  0
  -21.4640   -4.4580   24.5960 C   0  0  0  0  0  0  0  0  0  0  0  0
  -21.8490   -3.9650   23.3370 C   0  0  0  0  0  3  0  0  0  0  0  0
  -21.9300   -4.8360   22.2370 C   0  0  0  0  0  0  0  0  0  0  0  0
  -22.2810   -4.3520   21.0210 F   0  0  0  0  0  0  0  0  0  0  0  0
  -21.3810   -3.6150   25.6530 F   0  0  0  0  0  0  0  0  0  0  0  0
  -22.8480  -13.6370   21.3420 C   0  0  0  0  0  0  0  0  0  0  0  0
  -22.1600  -12.8980   22.2040 N   0  0  0  0  0  0  0  0  0  0  0  0
  -22.3990  -14.7010   20.9200 O   0  0  0  0  0  0  0  0  0  0  0  0
  -22.5330  -12.0340   22.5710 H   0  0  0  0  0  0  0  0  0  0  0  0
  -21.2460  -13.2040   22.5080 H   0  0  0  0  0  0  0  0  0  0  0  0
  -25.4560  -15.3170   20.4860 N   0  0  0  0  0  0  0  0  0  0  0  0
  -24.7120  -15.9720   20.6990 H   0  0  0  0  0  0  0  0  0  0  0  0
  -26.2940  -15.7670   20.1420 H   0  0  0  0  0  0  0  0  0  0  0  0
  -28.5910  -22.0400   19.1180 O   0  0  0  0  0  0  0  0  0  0  0  0
  -29.2120  -23.3170   19.3620 C   0  0  0  0  0  2  0  0  0  0  0  0
  -28.1420  -24.3980   19.6850 C   0  0  0  0  0  2  0  0  0  0  0  0
  -28.6650  -25.8300   20.0290 C   0  0  0  0  0  2  0  0  0  0  0  0
  -28.4280  -26.8610   19.0500 O   0  0  0  0  0  0  0  0  0  0  0  0
  -24.4010  -31.3510   22.8920 C   0  0  0  0  0  0  0  0  0  0  0  0
  -27.2420  -27.5500   19.1920 C   0  0  0  0  0  0  0  0  0  0  0  0
  -23.2490  -30.1260   21.0750 C   0  0  0  0  0  3  0  0  0  0  0  0
  -24.7680  -28.9000   19.4280 C   0  0  0  0  0  0  0  0  0  0  0  0
  -25.7440  -30.6660   20.9050 C   0  0  0  0  0  2  0  0  0  0  0  0
  -25.9030  -29.4030   20.0800 C   0  0  0  0  0  0  0  0  0  0  0  0
  -27.1460  -28.7360   19.9610 C   0  0  0  0  0  3  0  0  0  0  0  0
  -26.0970  -27.0710   18.5280 C   0  0  0  0  0  3  0  0  0  0  0  0
  -24.8610  -27.7330   18.6500 C   0  0  0  0  0  3  0  0  0  0  0  0
  -23.4740  -29.6650   19.6100 C   0  0  0  0  0  2  0  0  0  0  0  0
  -24.4830  -30.7210   21.6840 N   0  0  0  0  0  0  0  0  0  0  0  0
  -23.3170  -31.4730   23.4790 O   0  0  0  0  0  0  0  0  0  0  0  0
  -22.6800  -28.9400   21.8870 C   0  0  0  0  0  0  0  0  0  0  0  0
  -21.3630  -28.7030   21.7580 N   0  0  0  0  0  0  0  0  0  0  0  0
  -23.4160  -28.2430   22.5890 O   0  0  0  0  0  0  0  0  0  0  0  0
  -20.8270  -29.3280   21.1740 H   0  0  0  0  0  0  0  0  0  0  0  0
  -18.0720  -27.2560   22.1320 C   0  0  0  0  0  0  0  0  0  0  0  0
  -20.6190  -27.6160   22.3930 C   0  0  0  0  0  3  0  0  0  0  0  0
  -20.7820  -26.2930   21.6090 C   0  0  0  0  0  2  0  0  0  0  0  0
  -19.6740  -26.0620   20.5780 C   0  0  0  0  0  2  0  0  0  0  0  0
  -18.3030  -26.0320   21.2610 C   0  0  0  0  0  2  0  0  0  0  0  0
  -19.1580  -28.0080   22.6500 C   0  0  0  0  0  0  0  0  0  0  0  0
  -18.8880  -29.1570   23.4250 C   0  0  0  0  0  3  0  0  0  0  0  0
  -17.5630  -29.5530   23.6880 C   0  0  0  0  0  3  0  0  0  0  0  0
  -16.4910  -28.7960   23.1840 C   0  0  0  0  0  3  0  0  0  0  0  0
  -16.7460  -27.6490   22.4120 C   0  0  0  0  0  3  0  0  0  0  0  0
  -25.6590  -31.9670   23.5820 C   0  0  0  0  0  3  0  0  0  0  0  0
  -25.3100  -33.3340   23.9910 N   0  0  0  0  0  0  0  0  0  0  0  0
  -25.6560  -34.4410   23.3200 C   0  0  0  0  0  0  0  0  0  0  0  0
  -26.3690  -34.4190   22.3130 O   0  0  0  0  0  0  0  0  0  0  0  0
  -24.6760  -33.4240   24.7730 H   0  0  0  0  0  0  0  0  0  0  0  0
  -23.9050  -36.2250   23.0250 C   0  0  0  0  0  1  0  0  0  0  0  0
  -25.1260  -35.7880   23.8490 C   0  0  0  0  0  3  0  0  0  0  0  0
  -27.2130  -36.6550   24.8090 C   0  0  0  0  0  1  0  0  0  0  0  0
  -26.1420  -36.8640   23.8390 N   0  0  0  0  0  0  0  0  0  0  0  0
  -25.7140  -37.7660   24.0300 H   0  0  0  0  0  0  0  0  0  0  0  0
  -26.1670  -31.1240   24.8150 C   0  0  1  0  0  0  0  0  0  0  0  0
  -25.0620  -30.8030   25.8490 C   0  0  0  0  0  1  0  0  0  0  0  0
  -26.7750  -29.7810   24.3450 C   0  0  0  0  0  1  0  0  0  0  0  0
  -27.2970  -31.8900   25.5430 C   0  0  0  0  0  1  0  0  0  0  0  0
  1  3  1  0
  3  2  2  0
  3 11  1  0
  4  6  1  0
  4  1  2  0
  5  8  1  0
  5  2  1  0
  6  5  2  0
  7  4  1  0
  8 10  1  0
  9  8  1  0
 12 20  1  0
 13 18  1  0
 14 15  1  0
 14 13  1  0
 16 15  1  0
 16 25  1  0
 16 17  1  0
 18 12  1  0
 18 17  1  0
 19 12  2  0
 20 11  1  0
 20 21  1  0
 22 23  2  0
 23 42  1  0
 24 27  1  0
 24 23  1  0
 25 26  1  0
 25 22  1  0
 26 24  2  0
 27 28  1  0
 28 29  2  0
 30 33  1  0
 30 29  1  0
 31 30  2  0
 32 31  1  0
 32 27  2  0
 33 34  1  0
 34 35  1  0
 35 36  2  0
 37 36  1  0
 37 41  1  0
 38 37  2  0
 39 34  2  0
 39 38  1  0
 40 39  1  0
 42 43  1  0
 43 46  1  0
 43 45  1  0
 44 42  2  0
 47 22  1  0
 47 48  1  0
 49 47  1  0
 50 51  1  0
 50  6  1  0
 51 52  1  0
 52 53  1  0
 54 56  1  0
 54 53  1  0
 55 66  2  0
 56 61  1  0
 57 65  1  0
 57 67  1  0
 58 64  1  0
 58 60  1  0
 59 65  1  0
 60 59  1  0
 61 60  2  0
 62 63  1  0
 62 56  2  0
 63 58  2  0
 64 57  1  0
 65 55  1  0
 67 69  2  0
 68 67  1  0
 70 68  1  0
 71 80  2  0
 71 76  1  0
 72 68  1  0
 72 76  1  0
 73 72  1  0
 74 75  1  0
 74 73  1  0
 75 71  1  0
 76 77  2  0
 77 78  1  0
 79 78  2  0
 80 79  1  0
 81 55  1  0
 81 82  1  0
 81 91  1  0
 82 85  1  0
 83 87  1  0
 83 82  1  0
 84 83  2  0
 87 86  1  0
 89 87  1  0
 89 90  1  0
 89 88  1  0
 91 94  1  1
 91 92  1  0
 93 91  1  0
M  ISO  4  12 100  20 100  53 101  54 101
M  END
>  <TORSDO>  (25) 
F 22

>  <SCORE>  (25) 
-11.416

>  <name>  (25) 
24

>  <ligand_id>  (25) 
24

>  <original_smiles>  (25) 
[H]c1c([H])c([H])c2c(c1[H])C([H])([H])C([H])([H])C([H])([H])C2([H])N([H])C(=O)C1([H])N(C(=O)C([H])(N([H])C(=O)C([H])(N([H])C([H])([H])[H])C([H])([H])[H])C(C([H])([H])[H])(C([H])([H])[H])C([H])([H])[H])C([H])([H])c2c([H])c(OC([H])([H])C([H])([H])C([H])([H])Oc3c(N([H])[H])c([H])c(C([H])([H])N([H])C(=O)N4C([H])([H])C([H])([H])C([H])([H])C([H])(n5nc(-c6c([H])c([H])c(Oc7c([H])c([H])c(F)c([H])c7F)c([H])c6[H])c(C(=O)N([H])[H])c5N([H])[H])C4([H])[H])c([H])c3C([H])([H])[H])c([H])c([H])c2C1([H])[H]

>  <smiles>  (25) 
[H]c1c([H])c([H])c2c(c1[H])C([H])([H])C([H])([H])C([H])([H])C2([H])N([H])C(=O)C1([H])N(C(=O)C([H])(N([H])C(=O)C([H])(N([H])C([H])([H])[H])C([H])([H])[H])C(C([H])([H])[H])(C([H])([H])[H])C([H])([H])[H])C([H])([H])c2c([H])c(OC([H])([H])C([H])([H])C([H])([H])Oc3c(N([H])[H])c([H])c(C([H])([H])N([H])C(=O)N4C([H])([H])C([H])([H])C([H])([H])C([H])(n5nc(-c6c([H])c([H])c(Oc7c([H])c([H])c(F)c([H])c7F)c([H])c6[H])c(C(=O)N([H])[H])c5N([H])[H])C4([H])[H])c([H])c3C([H])([H])[H])c([H])c([H])c2C1([H])[H]

$$$$
25:0:0
     RDKit          3D

 93102  0  0  1  0  0  0  0  0999 V2000
  -30.0690  -20.4890   22.6410 C   0  0  0  0  0  3  0  0  0  0  0  0
  -29.7590  -21.7550   22.0850 C   0  0  0  0  0  3  0  0  0  0  0  0
  -30.1600  -20.8820   19.8400 C   0  0  0  0  0  3  0  0  0  0  0  0
  -30.4220  -19.4280   21.7860 C   0  0  0  0  0  0  0  0  0  0  0  0
  -30.4680  -19.6190   20.4110 C   0  0  0  0  0  0  0  0  0  0  0  0
  -29.7930  -21.9780   20.6780 C   0  0  0  0  0  0  0  0  0  0  0  0
  -30.7570  -18.0000   22.1820 C   0  0  0  0  0  2  0  0  0  0  0  0
  -30.8440  -18.3300   19.6950 C   0  0  0  0  0  2  0  0  0  0  0  0
  -31.0490  -17.2610   20.8330 C   0  0  0  0  0  3  0  0  0  0  0  0
  -30.8760  -14.8210   20.1620 C   0  0  0  0  0  0  0  0  0  0  0  0
  -30.5440  -12.6560   18.9830 C   0  0  0  0  0  2  0  0  0  0  0  0
  -29.5340  -12.8050   17.8250 C   0  0  0  0  0  2  0  0  0  0  0  0
  -28.0920  -12.5900   18.3270 C   0  0  0  0  0  2  0  0  0  0  0  0
  -27.7930  -13.4040   19.6080 C   0  0  0  0  0  3  0  0  0  0  0  0
  -28.9200  -13.2200   20.6590 C   0  0  0  0  0  2  0  0  0  0  0  0
  -30.1780  -13.6410   20.0260 N   0  0  0  0  0  0  0  0  0  0  0  0
  -32.0340  -14.8800   19.7370 O   0  0  0  0  0  0  0  0  0  0  0  0
  -28.8440  -16.3000   20.6090 C   0  0  0  0  0  1  0  0  0  0  0  0
  -30.2820  -15.9810   20.6440 N   0  0  0  0  0  0  0  0  0  0  0  0
  -25.4380  -14.0090   20.4470 C   0  0  0  0  0  0  0  0  0  0  0  0
  -24.3890  -13.2280   20.8480 C   0  0  0  0  0  0  0  0  0  0  0  0
  -24.8520  -11.8790   20.7640 C   0  0  0  0  0  0  0  0  0  0  0  0
  -26.4710  -13.1290   20.1510 N   0  0  0  0  0  0  0  0  0  0  0  0
  -26.1260  -11.8450   20.4020 N   0  0  0  0  0  0  0  0  0  0  0  0
  -24.1390  -10.6120   20.9510 C   0  0  0  0  0  0  0  0  0  0  0  0
  -24.5880   -9.6460   21.8770 C   0  0  0  0  0  3  0  0  0  0  0  0
  -23.8770   -8.4400   22.0510 C   0  0  0  0  0  3  0  0  0  0  0  0
  -22.7050   -8.1940   21.2990 C   0  0  0  0  0  0  0  0  0  0  0  0
  -22.2770   -9.1490   20.3600 C   0  0  0  0  0  3  0  0  0  0  0  0
  -22.9890  -10.3460   20.1830 C   0  0  0  0  0  3  0  0  0  0  0  0
  -21.9640   -7.0400   21.3830 O   0  0  0  0  0  0  0  0  0  0  0  0
  -21.8850   -6.3210   22.5480 C   0  0  0  0  0  0  0  0  0  0  0  0
  -21.3590   -6.8780   23.7340 C   0  0  0  0  0  3  0  0  0  0  0  0
  -21.2320   -6.0820   24.8890 C   0  0  0  0  0  3  0  0  0  0  0  0
  -21.6220   -4.7300   24.8600 C   0  0  0  0  0  0  0  0  0  0  0  0
  -22.1430   -4.1730   23.6790 C   0  0  0  0  0  3  0  0  0  0  0  0
  -22.2720   -4.9660   22.5250 C   0  0  0  0  0  0  0  0  0  0  0  0
  -22.7550   -4.4190   21.3840 F   0  0  0  0  0  0  0  0  0  0  0  0
  -21.4930   -3.9620   25.9670 F   0  0  0  0  0  0  0  0  0  0  0  0
  -23.0060  -13.6970   21.1920 C   0  0  0  0  0  0  0  0  0  0  0  0
  -22.3180  -12.9780   22.0730 N   0  0  0  0  0  0  0  0  0  0  0  0
  -22.5430  -14.7320   20.7160 O   0  0  0  0  0  0  0  0  0  0  0  0
  -22.7060  -12.1400   22.4790 H   0  0  0  0  0  0  0  0  0  0  0  0
  -21.3910  -13.2720   22.3470 H   0  0  0  0  0  0  0  0  0  0  0  0
  -25.5850  -15.3840   20.2860 N   0  0  0  0  0  0  0  0  0  0  0  0
  -24.8180  -16.0280   20.4380 H   0  0  0  0  0  0  0  0  0  0  0  0
  -26.4140  -15.8330   19.9220 H   0  0  0  0  0  0  0  0  0  0  0  0
  -28.9670  -24.4010   20.5560 C   0  0  0  0  0  0  0  0  0  0  0  0
  -29.4980  -23.2510   20.0590 N   0  0  0  0  0  0  0  0  0  0  0  0
  -28.5860  -24.5310   21.7240 O   0  0  0  0  0  0  0  0  0  0  0  0
  -29.7200  -23.3040   19.0740 H   0  0  0  0  0  0  0  0  0  0  0  0
  -28.8390  -25.6040   19.5750 C   0  0  0  0  0  2  0  0  0  0  0  0
  -28.6230  -26.8770   20.2450 O   0  0  0  0  0  0  0  0  0  0  0  0
  -24.6570  -31.9600   23.2990 C   0  0  0  0  0  0  0  0  0  0  0  0
  -27.4110  -27.5590   20.2050 C   0  0  0  0  0  0  0  0  0  0  0  0
  -23.4910  -30.5540   21.6330 C   0  0  0  0  0  3  0  0  0  0  0  0
  -24.9840  -29.0490   20.2080 C   0  0  0  0  0  0  0  0  0  0  0  0
  -26.0150  -30.9470   21.4670 C   0  0  0  0  0  2  0  0  0  0  0  0
  -26.1290  -29.5810   20.8130 C   0  0  0  0  0  0  0  0  0  0  0  0
  -27.3380  -28.8430   20.8060 C   0  0  0  0  0  3  0  0  0  0  0  0
  -26.2360  -27.0440   19.6070 C   0  0  0  0  0  3  0  0  0  0  0  0
  -25.0350  -27.7810   19.6050 C   0  0  0  0  0  3  0  0  0  0  0  0
  -23.7260  -29.8880   20.2500 C   0  0  0  0  0  2  0  0  0  0  0  0
  -24.7390  -31.1700   22.1910 N   0  0  0  0  0  0  0  0  0  0  0  0
  -23.5660  -32.2100   23.8300 O   0  0  0  0  0  0  0  0  0  0  0  0
  -22.8450  -29.5150   22.5780 C   0  0  0  0  0  0  0  0  0  0  0  0
  -21.5240  -29.3190   22.4420 N   0  0  0  0  0  0  0  0  0  0  0  0
  -23.5310  -28.8890   23.3910 O   0  0  0  0  0  0  0  0  0  0  0  0
  -21.0310  -29.8780   21.7580 H   0  0  0  0  0  0  0  0  0  0  0  0
  -18.1550  -28.1060   22.9340 C   0  0  0  0  0  0  0  0  0  0  0  0
  -20.7150  -28.3620   23.1950 C   0  0  0  0  0  3  0  0  0  0  0  0
  -20.8150  -26.9450   22.5850 C   0  0  0  0  0  2  0  0  0  0  0  0
  -19.7080  -26.6450   21.5700 C   0  0  0  0  0  2  0  0  0  0  0  0
  -18.3300  -26.7730   22.2260 C   0  0  0  0  0  2  0  0  0  0  0  0
  -19.2750  -28.8590   23.3750 C   0  0  0  0  0  0  0  0  0  0  0  0
  -19.0590  -30.1090   23.9960 C   0  0  0  0  0  3  0  0  0  0  0  0
  -17.7540  -30.6050   24.1810 C   0  0  0  0  0  3  0  0  0  0  0  0
  -16.6480  -29.8470   23.7570 C   0  0  0  0  0  3  0  0  0  0  0  0
  -16.8500  -28.5990   23.1390 C   0  0  0  0  0  3  0  0  0  0  0  0
  -25.9260  -32.6070   23.9380 C   0  0  0  0  0  3  0  0  0  0  0  0
  -25.6030  -34.0070   24.2440 N   0  0  0  0  0  0  0  0  0  0  0  0
  -25.9520  -35.0540   23.4840 C   0  0  0  0  0  0  0  0  0  0  0  0
  -26.6500  -34.9410   22.4720 O   0  0  0  0  0  0  0  0  0  0  0  0
  -24.9870  -34.1680   25.0280 H   0  0  0  0  0  0  0  0  0  0  0  0
  -24.2410  -36.8430   23.0460 C   0  0  0  0  0  1  0  0  0  0  0  0
  -25.4460  -36.4440   23.9120 C   0  0  0  0  0  3  0  0  0  0  0  0
  -27.5380  -37.3380   24.8350 C   0  0  0  0  0  1  0  0  0  0  0  0
  -26.4830  -37.4960   23.8380 N   0  0  0  0  0  0  0  0  0  0  0  0
  -26.0700  -38.4170   23.9550 H   0  0  0  0  0  0  0  0  0  0  0  0
  -26.4230  -31.8550   25.2330 C   0  0  1  0  0  0  0  0  0  0  0  0
  -25.3080  -31.6080   26.2750 C   0  0  0  0  0  1  0  0  0  0  0  0
  -27.0370  -30.4850   24.8660 C   0  0  0  0  0  1  0  0  0  0  0  0
  -27.5440  -32.6730   25.9170 C   0  0  0  0  0  1  0  0  0  0  0  0
  2  1  1  0
  3  5  2  0
  3  6  1  0
  4  7  1  0
  4  1  2  0
  5  4  1  0
  6  2  2  0
  8  5  1  0
  8  9  1  0
  9 19  1  0
  9  7  1  0
 10 19  1  0
 11 16  1  0
 12 13  1  0
 12 11  1  0
 14 13  1  0
 14 23  1  0
 14 15  1  0
 16 10  1  0
 16 15  1  0
 17 10  2  0
 18 19  1  0
 20 21  2  0
 21 40  1  0
 22 21  1  0
 22 25  1  0
 23 24  1  0
 23 20  1  0
 24 22  2  0
 25 26  1  0
 26 27  2  0
 28 31  1  0
 28 27  1  0
 29 28  2  0
 30 29  1  0
 30 25  2  0
 31 32  1  0
 32 33  1  0
 33 34  2  0
 35 34  1  0
 35 39  1  0
 36 35  2  0
 37 32  2  0
 37 36  1  0
 38 37  1  0
 40 41  1  0
 41 44  1  0
 41 43  1  0
 42 40  2  0
 45 46  1  0
 45 20  1  0
 47 45  1  0
 48 50  2  0
 49 48  1  0
 49  6  1  0
 51 49  1  0
 52 53  1  0
 52 48  1  0
 54 65  2  0
 55 53  1  0
 55 60  1  0
 56 64  1  0
 56 66  1  0
 57 63  1  0
 57 59  1  0
 58 64  1  0
 59 58  1  0
 60 59  2  0
 61 55  2  0
 62 61  1  0
 62 57  2  0
 63 56  1  0
 64 54  1  0
 66 68  2  0
 67 66  1  0
 69 67  1  0
 70 79  2  0
 70 75  1  0
 71 67  1  0
 71 75  1  0
 72 71  1  0
 73 74  1  0
 73 72  1  0
 74 70  1  0
 75 76  2  0
 76 77  1  0
 78 77  2  0
 79 78  1  0
 80 54  1  0
 80 81  1  0
 80 90  1  0
 81 84  1  0
 82 86  1  0
 82 81  1  0
 83 82  2  0
 86 85  1  0
 88 86  1  0
 88 89  1  0
 88 87  1  0
 90 93  1  1
 90 91  1  0
 92 90  1  0
M  ISO  4  10 100  19 100  52 101  53 101
M  END
>  <TORSDO>  (26) 
F 18

>  <SCORE>  (26) 
-14.159

>  <name>  (26) 
25

>  <ligand_id>  (26) 
25

>  <original_smiles>  (26) 
[H]c1c([H])c([H])c2c(c1[H])C([H])([H])C([H])([H])C([H])([H])C2([H])N([H])C(=O)C1([H])N(C(=O)C([H])(N([H])C(=O)C([H])(N([H])C([H])([H])[H])C([H])([H])[H])C(C([H])([H])[H])(C([H])([H])[H])C([H])([H])[H])C([H])([H])c2c([H])c(OC([H])([H])C(=O)N([H])c3c([H])c([H])c4c(c3[H])C([H])([H])C([H])(N(C(=O)N3C([H])([H])C([H])([H])C([H])([H])C([H])(n5nc(-c6c([H])c([H])c(Oc7c([H])c([H])c(F)c([H])c7F)c([H])c6[H])c(C(=O)N([H])[H])c5N([H])[H])C3([H])[H])C([H])([H])[H])C4([H])[H])c([H])c([H])c2C1([H])[H]

>  <smiles>  (26) 
[H]c1c([H])c([H])c2c(c1[H])C([H])([H])C([H])([H])C([H])([H])C2([H])N([H])C(=O)C1([H])N(C(=O)C([H])(N([H])C(=O)C([H])(N([H])C([H])([H])[H])C([H])([H])[H])C(C([H])([H])[H])(C([H])([H])[H])C([H])([H])[H])C([H])([H])c2c([H])c(OC([H])([H])C(=O)N([H])c3c([H])c([H])c4c(c3[H])C([H])([H])C([H])(N(C(=O)N3C([H])([H])C([H])([H])C([H])([H])C([H])(n5nc(-c6c([H])c([H])c(Oc7c([H])c([H])c(F)c([H])c7F)c([H])c6[H])c(C(=O)N([H])[H])c5N([H])[H])C3([H])[H])C([H])([H])[H])C4([H])[H])c([H])c([H])c2C1([H])[H]

$$$$
26:0:0
     RDKit          3D

 95104  0  0  1  0  0  0  0  0999 V2000
  -29.2590  -22.6810   20.1520 C   0  0  0  0  0  3  0  0  0  0  0  0
  -29.3350  -24.0450   19.9480 C   0  0  0  0  0  0  0  0  0  0  0  0
  -30.6380  -24.5810   19.5030 C   0  0  0  0  0  0  0  0  0  0  0  0
  -31.6120  -23.5730   18.8990 C   0  0  0  0  0  2  0  0  0  0  0  0
  -31.6490  -22.2530   19.6890 C   0  0  0  0  0  2  0  0  0  0  0  0
  -30.3200  -21.7280   20.0420 N   0  0  0  0  0  0  0  0  0  0  0  0
  -30.9680  -25.7690   19.5580 O   0  0  0  0  0  0  0  0  0  0  0  0
  -29.0100  -18.1290   20.1810 C   0  0  0  0  0  3  0  0  0  0  0  0
  -29.0720  -19.5480   20.0340 C   0  0  0  0  0  3  0  0  0  0  0  0
  -31.3530  -18.0460   20.6370 C   0  0  0  0  0  3  0  0  0  0  0  0
  -30.1450  -17.3270   20.4960 C   0  0  0  0  0  0  0  0  0  0  0  0
  -30.2770  -20.2810   20.1990 C   0  0  0  0  0  0  0  0  0  0  0  0
  -31.4230  -19.4640   20.5080 C   0  0  0  0  0  0  0  0  0  0  0  0
  -32.6330  -20.0240   20.7500 F   0  0  0  0  0  0  0  0  0  0  0  0
  -29.9760  -15.8530   20.8930 C   0  0  0  0  0  0  0  0  0  0  0  0
  -29.2380  -15.6660   21.9060 N   0  0  0  0  0  0  0  0  0  0  0  0
  -28.8940  -16.5470   22.2650 H   0  0  0  0  0  0  0  0  0  0  0  0
  -30.6800  -14.6680   20.1040 C   0  0  0  0  0  0  0  0  0  0  0  0
  -30.3930  -12.5040   18.8980 C   0  0  0  0  0  2  0  0  0  0  0  0
  -29.3660  -12.6990   17.7570 C   0  0  0  0  0  2  0  0  0  0  0  0
  -27.9170  -12.5240   18.2600 C   0  0  0  0  0  2  0  0  0  0  0  0
  -27.6530  -13.2970   19.5790 C   0  0  0  0  0  3  0  0  0  0  0  0
  -28.7750  -12.9950   20.5920 C   0  0  0  0  0  2  0  0  0  0  0  0
  -30.0490  -13.4420   19.9930 N   0  0  0  0  0  0  0  0  0  0  0  0
  -31.7620  -14.8670   19.5370 O   0  0  0  0  0  0  0  0  0  0  0  0
  -25.3060  -13.8840   20.4500 C   0  0  0  0  0  0  0  0  0  0  0  0
  -24.2580  -13.1030   20.8590 C   0  0  0  0  0  0  0  0  0  0  0  0
  -24.7110  -11.7520   20.7550 C   0  0  0  0  0  0  0  0  0  0  0  0
  -26.3310  -13.0070   20.1270 N   0  0  0  0  0  0  0  0  0  0  0  0
  -25.9780  -11.7180   20.3650 N   0  0  0  0  0  0  0  0  0  0  0  0
  -23.9910  -10.4870   20.9500 C   0  0  0  0  0  0  0  0  0  0  0  0
  -24.4420   -9.5160   21.8710 C   0  0  0  0  0  3  0  0  0  0  0  0
  -23.7230   -8.3140   22.0520 C   0  0  0  0  0  3  0  0  0  0  0  0
  -22.5410   -8.0760   21.3120 C   0  0  0  0  0  0  0  0  0  0  0  0
  -22.1090   -9.0370   20.3800 C   0  0  0  0  0  3  0  0  0  0  0  0
  -22.8280  -10.2300   20.1980 C   0  0  0  0  0  3  0  0  0  0  0  0
  -21.7940   -6.9270   21.4030 O   0  0  0  0  0  0  0  0  0  0  0  0
  -21.7140   -6.2100   22.5700 C   0  0  0  0  0  0  0  0  0  0  0  0
  -21.2500   -6.7910   23.7710 C   0  0  0  0  0  3  0  0  0  0  0  0
  -21.1180   -6.0000   24.9290 C   0  0  0  0  0  3  0  0  0  0  0  0
  -21.4400   -4.6300   24.8880 C   0  0  0  0  0  0  0  0  0  0  0  0
  -21.8980   -4.0490   23.6920 C   0  0  0  0  0  3  0  0  0  0  0  0
  -22.0310   -4.8380   22.5360 C   0  0  0  0  0  0  0  0  0  0  0  0
  -22.4520   -4.2690   21.3810 F   0  0  0  0  0  0  0  0  0  0  0  0
  -21.3070   -3.8690   26.0000 F   0  0  0  0  0  0  0  0  0  0  0  0
  -22.8830  -13.5760   21.2350 C   0  0  0  0  0  0  0  0  0  0  0  0
  -22.2090  -12.8560   22.1260 N   0  0  0  0  0  0  0  0  0  0  0  0
  -22.4170  -14.6170   20.7740 O   0  0  0  0  0  0  0  0  0  0  0  0
  -22.6020  -12.0150   22.5200 H   0  0  0  0  0  0  0  0  0  0  0  0
  -21.2900  -13.1540   22.4170 H   0  0  0  0  0  0  0  0  0  0  0  0
  -25.4670  -15.2590   20.3090 N   0  0  0  0  0  0  0  0  0  0  0  0
  -24.7220  -15.9190   20.5060 H   0  0  0  0  0  0  0  0  0  0  0  0
  -26.3220  -15.7020   19.9990 H   0  0  0  0  0  0  0  0  0  0  0  0
  -28.1230  -25.0420   19.9750 C   0  0  0  0  0  2  0  0  0  0  0  0
  -28.3270  -26.4940   20.2030 O   0  0  0  0  0  0  0  0  0  0  0  0
  -24.5860  -31.8820   23.2380 C   0  0  0  0  0  0  0  0  0  0  0  0
  -27.1940  -27.3270   20.1730 C   0  0  0  0  0  0  0  0  0  0  0  0
  -23.3760  -30.4760   21.6090 C   0  0  0  0  0  3  0  0  0  0  0  0
  -24.8210  -28.9290   20.1820 C   0  0  0  0  0  0  0  0  0  0  0  0
  -25.9150  -30.8020   21.4120 C   0  0  0  0  0  2  0  0  0  0  0  0
  -25.9940  -29.4220   20.7680 C   0  0  0  0  0  0  0  0  0  0  0  0
  -27.1830  -28.6340   20.7530 C   0  0  0  0  0  3  0  0  0  0  0  0
  -25.9890  -26.8860   19.5740 C   0  0  0  0  0  3  0  0  0  0  0  0
  -24.8210  -27.6660   19.5790 C   0  0  0  0  0  3  0  0  0  0  0  0
  -23.5840  -29.8010   20.2310 C   0  0  0  0  0  2  0  0  0  0  0  0
  -24.6440  -31.0700   22.1430 N   0  0  0  0  0  0  0  0  0  0  0  0
  -23.5040  -32.1600   23.7760 O   0  0  0  0  0  0  0  0  0  0  0  0
  -22.7210  -29.4600   22.5750 C   0  0  0  0  0  0  0  0  0  0  0  0
  -21.3950  -29.2780   22.4510 N   0  0  0  0  0  0  0  0  0  0  0  0
  -23.4030  -28.8390   23.3940 O   0  0  0  0  0  0  0  0  0  0  0  0
  -20.9040  -29.8290   21.7610 H   0  0  0  0  0  0  0  0  0  0  0  0
  -18.0210  -28.0800   22.9640 C   0  0  0  0  0  0  0  0  0  0  0  0
  -20.5800  -28.3420   23.2270 C   0  0  0  0  0  3  0  0  0  0  0  0
  -20.6820  -26.9080   22.6570 C   0  0  0  0  0  2  0  0  0  0  0  0
  -19.5770  -26.5800   21.6470 C   0  0  0  0  0  2  0  0  0  0  0  0
  -18.1970  -26.7270   22.2950 C   0  0  0  0  0  2  0  0  0  0  0  0
  -19.1400  -28.8440   23.3870 C   0  0  0  0  0  0  0  0  0  0  0  0
  -18.9210  -30.1100   23.9740 C   0  0  0  0  0  3  0  0  0  0  0  0
  -17.6160  -30.6110   24.1410 C   0  0  0  0  0  3  0  0  0  0  0  0
  -16.5110  -29.8420   23.7340 C   0  0  0  0  0  3  0  0  0  0  0  0
  -16.7140  -28.5790   23.1510 C   0  0  0  0  0  3  0  0  0  0  0  0
  -25.8710  -32.5190   23.8520 C   0  0  0  0  0  3  0  0  0  0  0  0
  -26.4010  -31.7430   25.1210 C   0  0  1  0  0  0  0  0  0  0  0  0
  -25.3160  -31.4910   26.1940 C   0  0  0  0  0  1  0  0  0  0  0  0
  -26.9900  -30.3710   24.7170 C   0  0  0  0  0  1  0  0  0  0  0  0
  -27.5510  -32.5410   25.7790 C   0  0  0  0  0  1  0  0  0  0  0  0
  -25.5550  -33.9130   24.1920 N   0  0  0  0  0  0  0  0  0  0  0  0
  -25.8660  -34.9710   23.4310 C   0  0  0  0  0  0  0  0  0  0  0  0
  -26.5190  -34.8750   22.3880 O   0  0  0  0  0  0  0  0  0  0  0  0
  -24.9720  -34.0600   25.0030 H   0  0  0  0  0  0  0  0  0  0  0  0
  -24.1170  -36.7500   23.1150 C   0  0  0  0  0  1  0  0  0  0  0  0
  -25.3760  -36.3540   23.9010 C   0  0  0  0  0  3  0  0  0  0  0  0
  -27.5190  -37.2550   24.6940 C   0  0  0  0  0  1  0  0  0  0  0  0
  -26.3980  -37.4160   23.7710 N   0  0  0  0  0  0  0  0  0  0  0  0
  -25.9880  -38.3330   23.9250 H   0  0  0  0  0  0  0  0  0  0  0  0
  2 54  1  0
  2  1  2  0
  3  7  2  0
  3  2  1  0
  4  3  1  0
  4  5  1  0
  5  6  1  0
  6  1  1  0
  6 12  1  0
  8 11  1  0
  9  8  2  0
  9 12  1  0
 11 10  2  0
 11 15  1  0
 12 13  2  0
 13 10  1  0
 13 14  1  0
 15 16  2  0
 16 17  1  0
 18 15  1  0
 19 24  1  0
 20 21  1  0
 20 19  1  0
 22 21  1  0
 22 29  1  0
 22 23  1  0
 24 18  1  0
 24 23  1  0
 25 18  2  0
 26 27  2  0
 27 46  1  0
 28 27  1  0
 28 31  1  0
 29 30  1  0
 29 26  1  0
 30 28  2  0
 31 32  1  0
 32 33  2  0
 34 37  1  0
 34 33  1  0
 35 34  2  0
 36 35  1  0
 36 31  2  0
 37 38  1  0
 38 39  1  0
 39 40  2  0
 41 40  1  0
 41 45  1  0
 42 41  2  0
 43 38  2  0
 43 42  1  0
 44 43  1  0
 46 47  1  0
 47 50  1  0
 47 49  1  0
 48 46  2  0
 51 26  1  0
 51 52  1  0
 53 51  1  0
 54 55  1  0
 56 67  2  0
 57 55  1  0
 57 62  1  0
 58 66  1  0
 58 68  1  0
 59 65  1  0
 59 61  1  0
 60 66  1  0
 61 60  1  0
 62 61  2  0
 63 64  1  0
 63 57  2  0
 64 59  2  0
 65 58  1  0
 66 56  1  0
 68 70  2  0
 69 68  1  0
 71 69  1  0
 72 81  2  0
 72 77  1  0
 73 69  1  0
 73 77  1  0
 74 73  1  0
 75 76  1  0
 75 74  1  0
 76 72  1  0
 77 78  2  0
 78 79  1  0
 80 79  2  0
 81 80  1  0
 82 56  1  0
 82 87  1  0
 82 83  1  0
 83 86  1  1
 83 84  1  0
 85 83  1  0
 87 90  1  0
 88 92  1  0
 88 87  1  0
 89 88  2  0
 92 91  1  0
 94 92  1  0
 94 95  1  0
 94 93  1  0
M  ISO  4  15 100  18 100  54 101  55 101
M  END
>  <TORSDO>  (27) 
F 19

>  <SCORE>  (27) 
-14.042

>  <name>  (27) 
26

>  <ligand_id>  (27) 
26

>  <original_smiles>  (27) 
[H]N=C(C(=O)N1C([H])([H])C([H])([H])C([H])([H])C([H])(n2nc(-c3c([H])c([H])c(Oc4c([H])c([H])c(F)c([H])c4F)c([H])c3[H])c(C(=O)N([H])[H])c2N([H])[H])C1([H])[H])c1c([H])c([H])c(N2C([H])=C(C([H])([H])Oc3c([H])c([H])c4c(c3[H])C([H])([H])N(C(=O)C([H])(N([H])C(=O)C([H])(N([H])C([H])([H])[H])C([H])([H])[H])C(C([H])([H])[H])(C([H])([H])[H])C([H])([H])[H])C([H])(C(=O)N([H])C3([H])c5c([H])c([H])c([H])c([H])c5C([H])([H])C([H])([H])C3([H])[H])C4([H])[H])C(=O)C([H])([H])C2([H])[H])c(F)c1[H]

>  <smiles>  (27) 
[H]N=C(C(=O)N1C([H])([H])C([H])([H])C([H])([H])C([H])(n2nc(-c3c([H])c([H])c(Oc4c([H])c([H])c(F)c([H])c4F)c([H])c3[H])c(C(=O)N([H])[H])c2N([H])[H])C1([H])[H])c1c([H])c([H])c(N2C([H])=C(C([H])([H])Oc3c([H])c([H])c4c(c3[H])C([H])([H])N(C(=O)C([H])(N([H])C(=O)C([H])(N([H])C([H])([H])[H])C([H])([H])[H])C(C([H])([H])[H])(C([H])([H])[H])C([H])([H])[H])C([H])(C(=O)N([H])C3([H])c5c([H])c([H])c([H])c([H])c5C([H])([H])C([H])([H])C3([H])[H])C4([H])[H])C(=O)C([H])([H])C2([H])[H])c(F)c1[H]

$$$$
27:0:0
     RDKit          3D

 95 97  0  0  1  0  0  0  0  0999 V2000
  -31.6110  -26.8900    9.7940 C   0  0  0  0  0  3  0  0  0  0  0  0
  -30.7100  -27.6810   10.6210 C   0  0  0  0  0  3  0  0  0  0  0  0
  -33.1490  -28.4310   10.7650 C   0  0  0  0  0  3  0  0  0  0  0  0
  -33.0230  -27.0270    9.6690 C   0  0  0  0  0  3  0  0  0  0  0  0
  -32.1650  -29.5100   11.7880 C   0  0  0  0  0  3  0  0  0  0  0  0
  -30.9250  -28.8110   11.5280 C   0  0  0  0  0  0  0  0  0  0  0  0
  -29.3320  -28.5550   13.3780 C   0  0  0  0  0  0  0  0  0  0  0  0
  -28.0530  -29.1800   13.9080 C   0  0  0  0  0  2  0  0  0  0  0  0
  -27.6700  -30.1930   12.8260 C   0  0  0  0  0  3  0  0  0  0  0  0
  -28.7720  -30.1100   11.7590 C   0  0  0  0  0  3  0  0  0  0  0  0
  -29.7760  -29.1930   12.2810 N   0  0  0  0  0  0  0  0  0  0  0  0
  -29.8700  -27.5960   13.9410 O   0  0  0  0  0  0  0  0  0  0  0  0
  -32.0280  -31.0580   13.3120 C   0  0  0  0  0 15  0  0  0  0  0  0
  -31.8720  -31.9360   15.5520 C   0  0  0  0  0 15  0  0  0  0  0  0
  -34.0830  -33.2570   16.4600 C   0  0  0  0  0 15  0  0  0  0  0  0
  -35.3030  -31.8280   17.6590 O   0  0  0  0  0  1  0  0  0  0  0  0
  -35.9900  -36.7430   17.4290 C   0  0  0  0  0  0  0  0  0  0  0  0
  -36.3660  -31.7120   18.8830 C   0  0  0  0  0  3  0  0  0  0  0  0
  -35.4330  -34.3660   17.6240 C   0  0  0  0  0  3  0  0  0  0  0  0
  -37.4890  -32.8190   17.0340 C   0  0  0  0  0  3  0  0  0  0  0  0
  -37.6620  -35.0310   18.1890 C   0  0  0  0  0  2  0  0  0  0  0  0
  -37.7460  -33.5080   18.2210 C   0  0  0  0  0  3  0  0  0  0  0  0
  -37.2620  -32.7910   19.3260 C   0  0  0  0  0  2  0  0  0  0  0  0
  -37.2370  -30.7730   18.4210 C   0  0  0  0  0  2  0  0  0  0  0  0
  -37.5200  -31.3610   17.1600 C   0  0  0  0  0  2  0  0  0  0  0  0
  -36.3040  -33.5860   16.3820 C   0  0  0  0  0  2  0  0  0  0  0  0
  -36.3050  -35.4770   17.8270 N   0  0  0  0  0  0  0  0  0  0  0  0
  -35.0270  -37.0600   16.6990 O   0  0  0  0  0  0  0  0  0  0  0  0
  -34.4890  -33.5510   18.9870 C   0  0  0  0  0  0  0  0  0  0  0  0
  -34.2390  -31.7960   19.1900 N   0  0  0  0  0  2  0  0  0  0  0  0
  -33.7630  -34.3810   19.4390 O   0  0  0  0  0  0  0  0  0  0  0  0
  -33.9820  -31.5580   20.1360 H   0  0  0  0  0  0  0  0  0  0  0  0
  -32.8960  -28.3880   15.9060 C   0  0  0  0  0  0  0  0  0  0  0  0
  -33.3010  -30.5290   17.8520 C   0  0  0  0  0  2  0  0  0  0  0  0
  -32.3950  -29.7770   18.6440 C   0  0  0  0  0  2  0  0  0  0  0  0
  -32.0290  -28.4100   18.1420 C   0  0  0  0  0  2  0  0  0  0  0  0
  -31.6400  -28.3360   16.6770 C   0  0  0  0  0  2  0  0  0  0  0  0
  -33.8420  -29.3830   16.4000 C   0  0  0  0  0  0  0  0  0  0  0  0
  -35.0410  -29.1330   15.5320 C   0  0  0  0  0  3  0  0  0  0  0  0
  -35.1980  -28.1350   14.4600 C   0  0  0  0  0  3  0  0  0  0  0  0
  -34.1680  -27.2460   14.1010 C   0  0  0  0  0  3  0  0  0  0  0  0
  -33.0050  -27.3980   14.8580 C   0  0  0  0  0  3  0  0  0  0  0  0
  -36.7820  -37.8450   18.1190 C   0  0  0  0  0  3  0  0  0  0  0  0
  -37.4320  -38.6510   17.0880 N   0  0  0  0  0  0  0  0  0  0  0  0
  -38.7240  -38.5410   16.7690 C   0  0  0  0  0  0  0  0  0  0  0  0
  -39.4930  -37.7720   17.3520 O   0  0  0  0  0  0  0  0  0  0  0  0
  -36.8480  -39.2720   16.5460 H   0  0  0  0  0  0  0  0  0  0  0  0
  -39.4740  -38.6120   14.3700 C   0  0  0  0  0  1  0  0  0  0  0  0
  -39.2490  -39.4450   15.6410 C   0  0  0  0  0  3  0  0  0  0  0  0
  -40.3010  -41.1560   17.0530 C   0  0  0  0  0  1  0  0  0  0  0  0
  -40.4910  -40.1610   16.0010 N   0  0  0  0  0  0  0  0  0  0  0  0
  -40.8840  -40.6280   15.1890 H   0  0  0  0  0  0  0  0  0  0  0  0
  -35.8260  -38.7080   19.0230 C   0  0  1  0  0  0  0  0  0  0  0  0
  -35.1090  -39.8590   18.2710 C   0  0  0  0  0  1  0  0  0  0  0  0
  -34.7370  -37.8520   19.7160 C   0  0  0  0  0  1  0  0  0  0  0  0
  -36.6550  -39.3060   20.1720 C   0  0  0  0  0  1  0  0  0  0  0  0
  -34.0030  -25.5910    8.3750 C   0  0  0  0  0 15  0  0  0  0  0  0
  -37.0440  -23.5010    7.7730 C   0  0  0  0  0  0  0  0  0  0  0  0
  -39.1120  -21.7580    6.7310 C   0  0  0  0  0  2  0  0  0  0  0  0
  -39.2100  -21.2160    5.2370 C   0  0  0  0  0  2  0  0  0  0  0  0
  -38.1450  -20.1540    4.9470 C   0  0  0  0  0  2  0  0  0  0  0  0
  -36.8830  -20.5650    5.7180 C   0  0  0  0  0  3  0  0  0  0  0  0
  -37.0750  -20.8500    7.2170 C   0  0  0  0  0  2  0  0  0  0  0  0
  -37.6590  -22.1840    7.2690 N   0  0  0  0  0  0  0  0  0  0  0  0
  -38.1720  -24.0760    7.9730 O   0  0  0  0  0  0  0  0  0  0  0  0
  -35.4210  -24.1520    7.9540 N   0  0  0  0  0  2  0  0  0  0  0  0
  -34.8610  -23.3550    7.6770 H   0  0  0  0  0  0  0  0  0  0  0  0
  -34.5380  -20.0690    5.0720 C   0  0  0  0  0  0  0  0  0  0  0  0
  -33.7890  -18.9360    5.1180 C   0  0  0  0  0  0  0  0  0  0  0  0
  -34.6260  -17.9230    5.6830 C   0  0  0  0  0  0  0  0  0  0  0  0
  -35.7640  -19.6990    5.5700 N   0  0  0  0  0  0  0  0  0  0  0  0
  -35.8080  -18.4240    6.0140 N   0  0  0  0  0  0  0  0  0  0  0  0
  -34.3940  -16.4910    5.8570 C   0  0  0  0  0  0  0  0  0  0  0  0
  -34.1020  -15.9370    7.1220 C   0  0  0  0  0  3  0  0  0  0  0  0
  -33.8600  -14.5540    7.2510 C   0  0  0  0  0  3  0  0  0  0  0  0
  -33.9080  -13.7160    6.1110 C   0  0  0  0  0  0  0  0  0  0  0  0
  -34.2260  -14.2720    4.8600 C   0  0  0  0  0  3  0  0  0  0  0  0
  -34.4710  -15.6480    4.7330 C   0  0  0  0  0  3  0  0  0  0  0  0
  -33.7080  -12.3590    6.1430 O   0  0  0  0  0  0  0  0  0  0  0  0
  -32.5660  -11.8130    6.6690 C   0  0  0  0  0  0  0  0  0  0  0  0
  -31.2910  -12.0900    6.1300 C   0  0  0  0  0  3  0  0  0  0  0  0
  -30.1510  -11.4530    6.6580 C   0  0  0  0  0  3  0  0  0  0  0  0
  -30.2850  -10.5330    7.7160 C   0  0  0  0  0  0  0  0  0  0  0  0
  -31.5540  -10.2540    8.2510 C   0  0  0  0  0  3  0  0  0  0  0  0
  -32.6920  -10.8910    7.7260 C   0  0  0  0  0  0  0  0  0  0  0  0
  -33.9170  -10.6020    8.2300 F   0  0  0  0  0  0  0  0  0  0  0  0
  -29.1910   -9.9140    8.2190 F   0  0  0  0  0  0  0  0  0  0  0  0
  -32.4070  -18.7880    4.5660 C   0  0  0  0  0  0  0  0  0  0  0  0
  -31.4290  -18.5510    5.4300 N   0  0  0  0  0  0  0  0  0  0  0  0
  -32.1860  -18.9320    3.3640 O   0  0  0  0  0  0  0  0  0  0  0  0
  -31.6180  -18.4550    6.4170 H   0  0  0  0  0  0  0  0  0  0  0  0
  -30.4780  -18.4660    5.1030 H   0  0  0  0  0  0  0  0  0  0  0  0
  -34.2960  -21.3720    4.6350 N   0  0  0  0  0  0  0  0  0  0  0  0
  -33.4350  -21.5970    4.1470 H   0  0  0  0  0  0  0  0  0  0  0  0
  -35.0370  -22.0350    4.4500 H   0  0  0  0  0  0  0  0  0  0  0  0
  1  2  1  0
  2  6  2  0
  3  5  2  0
  4  1  2  0
  4  3  1  0
  6  5  1  0
  6 11  1  0
  7  8  1  0
  7 12  2  0
  9  8  1  0
 10 11  1  0
 10  9  2  0
 11  7  1  0
 17 27  1  0
 18 16  1  0
 18 23  1  0
 19 27  1  0
 19 29  1  0
 20 26  1  0
 20 25  1  0
 20 22  1  0
 22 21  1  0
 22 23  1  0
 24 18  1  0
 25 24  1  0
 26 19  1  0
 27 21  1  0
 28 17  2  0
 29 30  1  0
 29 31  2  0
 30 32  1  0
 33 38  1  0
 33 37  1  0
 34 35  1  0
 36 35  1  0
 37 36  1  0
 38 34  1  0
 39 38  2  0
 40 39  1  0
 41 40  2  0
 41 42  1  0
 42 33  2  0
 43 17  1  0
 43 53  1  0
 44 43  1  0
 45 44  1  0
 45 46  2  0
 47 44  1  0
 49 48  1  0
 49 51  1  0
 49 45  1  0
 51 50  1  0
 52 51  1  0
 53 55  1  1
 53 56  1  0
 54 53  1  0
 58 66  1  0
 58 65  2  0
 59 64  1  0
 60 59  1  0
 61 60  1  0
 62 61  1  0
 62 63  1  0
 63 64  1  0
 64 58  1  0
 67 66  1  0
 68 69  2  0
 68 71  1  0
 69 70  1  0
 70 73  1  0
 70 72  2  0
 71 62  1  0
 71 72  1  0
 73 74  1  0
 74 75  2  0
 76 79  1  0
 76 75  1  0
 77 76  2  0
 78 77  1  0
 78 73  2  0
 79 80  1  0
 80 85  1  0
 81 82  1  0
 81 80  2  0
 82 83  2  0
 83 87  1  0
 83 84  1  0
 85 86  1  0
 85 84  2  0
 88 69  1  0
 88 89  1  0
 89 91  1  0
 90 88  2  0
 92 89  1  0
 93 68  1  0
 94 93  1  0
 95 93  1  0
M  ISO  4  15 101  16 101  58 100  66 100
M  END
>  <TORSDO>  (28) 
F 21

>  <SCORE>  (28) 
-3.668

>  <name>  (28) 
27

>  <ligand_id>  (28) 
27

>  <original_smiles>  (28) 
[H]c1c([H])c([H])c2c(c1[H])C([H])([H])C([H])([H])C([H])([H])C2([H])N([H])C(=O)C1([H])N(C(=O)C([H])(N([H])C(=O)C([H])(N([H])C([H])([H])[H])C([H])([H])[H])C(C([H])([H])[H])(C([H])([H])[H])C([H])([H])[H])C([H])([H])c2c([H])c(OC([H])([H])C([H])([H])C([H])([H])c3c([H])c(C([H])([H])N([H])C(=O)N4C([H])([H])C([H])([H])C([H])([H])C([H])(n5nc(-c6c([H])c([H])c(Oc7c([H])c([H])c(F)c([H])c7F)c([H])c6[H])c(C(=O)N([H])[H])c5N([H])[H])C4([H])[H])c([H])c([H])c3N3C(=O)C([H])([H])C([H])([H])C3([H])[H])c([H])c([H])c2C1([H])[H]

>  <smiles>  (28) 
[H]c1c([H])c([H])c2c(c1[H])C([H])([H])C([H])([H])C([H])([H])C2([H])N([H])C(=O)C1([H])N(C(=O)C([H])(N([H])C(=O)C([H])(N([H])C([H])([H])[H])C([H])([H])[H])C(C([H])([H])[H])(C([H])([H])[H])C([H])([H])[H])C([H])([H])c2c([H])c(OC([H])([H])C([H])([H])C([H])([H])c3c([H])c(C([H])([H])N([H])C(=O)N4C([H])([H])C([H])([H])C([H])([H])C([H])(n5nc(-c6c([H])c([H])c(Oc7c([H])c([H])c(F)c([H])c7F)c([H])c6[H])c(C(=O)N([H])[H])c5N([H])[H])C4([H])[H])c([H])c([H])c3N3C(=O)C([H])([H])C([H])([H])C3([H])[H])c([H])c([H])c2C1([H])[H]

$$$$
28:0:0
     RDKit          3D

 99108  0  0  1  0  0  0  0  0999 V2000
  -28.1270  -21.8890   19.4010 C   0  0  0  0  0  2  0  0  0  0  0  0
  -29.8470  -22.5820   17.7200 C   0  0  0  0  0  0  0  0  0  0  0  0
  -30.7300  -23.6980   17.1420 C   0  0  0  0  0  2  0  0  0  0  0  0
  -30.0910  -25.0880   17.2290 C   0  0  0  0  0  2  0  0  0  0  0  0
  -28.5800  -24.2560   19.0450 C   0  0  0  0  0  2  0  0  0  0  0  0
  -29.5880  -25.3480   18.6510 C   0  0  0  0  0  3  0  0  0  0  0  0
  -28.9930  -22.8800   18.7370 N   0  0  0  0  0  0  0  0  0  0  0  0
  -29.9790  -21.4470   17.2590 O   0  0  0  0  0  0  0  0  0  0  0  0
  -28.9540  -26.7370   18.7890 C   0  0  0  0  0  2  0  0  0  0  0  0
  -28.3760  -26.8370   20.0860 O   0  0  0  0  0  0  0  0  0  0  0  0
  -24.5170  -31.8690   23.2370 C   0  0  0  0  0  0  0  0  0  0  0  0
  -27.1820  -27.5020   20.1230 C   0  0  0  0  0  0  0  0  0  0  0  0
  -23.3090  -30.4750   21.5850 C   0  0  0  0  0  3  0  0  0  0  0  0
  -24.7660  -28.9460   20.1580 C   0  0  0  0  0  0  0  0  0  0  0  0
  -25.8260  -30.8520   21.3850 C   0  0  0  0  0  2  0  0  0  0  0  0
  -25.9160  -29.4830   20.7520 C   0  0  0  0  0  0  0  0  0  0  0  0
  -27.1240  -28.7590   20.7490 C   0  0  0  0  0  3  0  0  0  0  0  0
  -26.0180  -26.9560   19.5410 C   0  0  0  0  0  3  0  0  0  0  0  0
  -24.8070  -27.6750   19.5580 C   0  0  0  0  0  3  0  0  0  0  0  0
  -23.5180  -29.7980   20.2020 C   0  0  0  0  0  2  0  0  0  0  0  0
  -24.5680  -31.0790   22.1290 N   0  0  0  0  0  0  0  0  0  0  0  0
  -23.4360  -32.1360   23.7810 O   0  0  0  0  0  0  0  0  0  0  0  0
  -22.6610  -29.4480   22.5390 C   0  0  0  0  0  0  0  0  0  0  0  0
  -21.3360  -29.2720   22.4130 N   0  0  0  0  0  0  0  0  0  0  0  0
  -23.3460  -28.8120   23.3450 O   0  0  0  0  0  0  0  0  0  0  0  0
  -20.8460  -29.8360   21.7330 H   0  0  0  0  0  0  0  0  0  0  0  0
  -17.9570  -28.1030   22.9130 C   0  0  0  0  0  0  0  0  0  0  0  0
  -20.5180  -28.3320   23.1760 C   0  0  0  0  0  3  0  0  0  0  0  0
  -20.6060  -26.9080   22.5810 C   0  0  0  0  0  2  0  0  0  0  0  0
  -19.4960  -26.6080   21.5690 C   0  0  0  0  0  2  0  0  0  0  0  0
  -18.1180  -26.7600   22.2210 C   0  0  0  0  0  2  0  0  0  0  0  0
  -19.0850  -28.8490   23.3470 C   0  0  0  0  0  0  0  0  0  0  0  0
  -18.8830  -30.1080   23.9500 C   0  0  0  0  0  3  0  0  0  0  0  0
  -17.5840  -30.6220   24.1270 C   0  0  0  0  0  3  0  0  0  0  0  0
  -16.4700  -29.8730   23.7110 C   0  0  0  0  0  3  0  0  0  0  0  0
  -16.6580  -28.6150   23.1080 C   0  0  0  0  0  3  0  0  0  0  0  0
  -25.8060  -32.4930   23.8600 C   0  0  0  0  0  3  0  0  0  0  0  0
  -26.3200  -31.7160   25.1320 C   0  0  1  0  0  0  0  0  0  0  0  0
  -25.2290  -31.4750   26.1990 C   0  0  0  0  0  1  0  0  0  0  0  0
  -26.9010  -30.3400   24.7300 C   0  0  0  0  0  1  0  0  0  0  0  0
  -27.4730  -32.5050   25.8000 C   0  0  0  0  0  1  0  0  0  0  0  0
  -25.5030  -33.8920   24.1890 N   0  0  0  0  0  0  0  0  0  0  0  0
  -25.8410  -34.9420   23.4280 C   0  0  0  0  0  0  0  0  0  0  0  0
  -26.5120  -34.8330   22.3980 O   0  0  0  0  0  0  0  0  0  0  0  0
  -24.9080  -34.0500   24.9890 H   0  0  0  0  0  0  0  0  0  0  0  0
  -24.1190  -36.7360   23.0660 C   0  0  0  0  0  1  0  0  0  0  0  0
  -25.3560  -36.3310   23.8820 C   0  0  0  0  0  3  0  0  0  0  0  0
  -27.4900  -37.2090   24.7190 C   0  0  0  0  0  1  0  0  0  0  0  0
  -26.3920  -37.3800   23.7720 N   0  0  0  0  0  0  0  0  0  0  0  0
  -25.9880  -38.3020   23.9170 H   0  0  0  0  0  0  0  0  0  0  0  0
  -29.9620  -20.4990   20.5030 C   0  0  0  0  0  3  0  0  0  0  0  0
  -30.5820  -19.2580   20.7610 C   0  0  0  0  0  3  0  0  0  0  0  0
  -28.7860  -18.1260   19.5410 C   0  0  0  0  0  3  0  0  0  0  0  0
  -28.7700  -20.5540   19.7460 C   0  0  0  0  0  0  0  0  0  0  0  0
  -29.9920  -18.0750   20.2700 C   0  0  0  0  0  0  0  0  0  0  0  0
  -28.1750  -19.3610   19.2800 C   0  0  0  0  0  0  0  0  0  0  0  0
  -27.0280  -19.3960   18.5620 F   0  0  0  0  0  0  0  0  0  0  0  0
  -29.9990  -15.6670   20.7060 C   0  0  0  0  0  0  0  0  0  0  0  0
  -28.8070  -15.6970   21.3660 N   0  0  0  0  0  4  0  0  0  0  0  0
  -30.6540  -16.8080   20.4060 N   0  0  0  0  0  0  0  0  0  0  0  0
  -28.4680  -16.5500   21.7920 H   0  0  0  0  0  0  0  0  0  0  0  0
  -28.3760  -14.8240   21.6340 H   0  0  0  0  0  0  0  0  0  0  0  0
  -31.6500  -16.7020   20.2780 H   0  0  0  0  0  0  0  0  0  0  0  0
  -30.7160  -14.3930   20.1970 C   0  0  0  0  0  0  0  0  0  0  0  0
  -30.3620  -12.2870   18.9900 C   0  0  0  0  0  2  0  0  0  0  0  0
  -29.3730  -12.5580   17.8350 C   0  0  0  0  0  2  0  0  0  0  0  0
  -27.9060  -12.4420   18.3090 C   0  0  0  0  0  2  0  0  0  0  0  0
  -27.6380  -13.2130   19.6310 C   0  0  0  0  0  3  0  0  0  0  0  0
  -28.7340  -12.8700   20.6680 C   0  0  0  0  0  2  0  0  0  0  0  0
  -30.0320  -13.2190   20.0810 N   0  0  0  0  0  0  0  0  0  0  0  0
  -31.8350  -14.5730   19.7030 O   0  0  0  0  0  0  0  0  0  0  0  0
  -25.2680  -13.8370   20.4210 C   0  0  0  0  0  0  0  0  0  0  0  0
  -24.2050  -13.0700   20.8130 C   0  0  0  0  0  0  0  0  0  0  0  0
  -24.6560  -11.7150   20.7590 C   0  0  0  0  0  0  0  0  0  0  0  0
  -26.2980  -12.9490   20.1500 N   0  0  0  0  0  0  0  0  0  0  0  0
  -25.9350  -11.6680   20.4080 N   0  0  0  0  0  0  0  0  0  0  0  0
  -23.9330  -10.4560   20.9690 C   0  0  0  0  0  0  0  0  0  0  0  0
  -24.3890   -9.4900   21.8930 C   0  0  0  0  0  3  0  0  0  0  0  0
  -23.6690   -8.2920   22.0890 C   0  0  0  0  0  3  0  0  0  0  0  0
  -22.4790   -8.0520   21.3610 C   0  0  0  0  0  0  0  0  0  0  0  0
  -22.0430   -9.0060   20.4260 C   0  0  0  0  0  3  0  0  0  0  0  0
  -22.7630  -10.1960   20.2280 C   0  0  0  0  0  3  0  0  0  0  0  0
  -21.7290   -6.9050   21.4670 O   0  0  0  0  0  0  0  0  0  0  0  0
  -21.6970   -6.1720   22.6260 C   0  0  0  0  0  0  0  0  0  0  0  0
  -21.2760   -6.7320   23.8510 C   0  0  0  0  0  3  0  0  0  0  0  0
  -21.1900   -5.9240   25.0020 C   0  0  0  0  0  3  0  0  0  0  0  0
  -21.5130   -4.5550   24.9290 C   0  0  0  0  0  0  0  0  0  0  0  0
  -21.9270   -3.9950   23.7080 C   0  0  0  0  0  3  0  0  0  0  0  0
  -22.0140   -4.8000   22.5580 C   0  0  0  0  0  0  0  0  0  0  0  0
  -22.3920   -4.2500   21.3800 F   0  0  0  0  0  0  0  0  0  0  0  0
  -21.4220   -3.7770   26.0320 F   0  0  0  0  0  0  0  0  0  0  0  0
  -22.8210  -13.5510   21.1380 C   0  0  0  0  0  0  0  0  0  0  0  0
  -22.1200  -12.8520   22.0270 N   0  0  0  0  0  0  0  0  0  0  0  0
  -22.3670  -14.5800   20.6420 O   0  0  0  0  0  0  0  0  0  0  0  0
  -22.5000  -12.0200   22.4530 H   0  0  0  0  0  0  0  0  0  0  0  0
  -21.1940  -13.1600   22.2850 H   0  0  0  0  0  0  0  0  0  0  0  0
  -25.4520  -15.2080   20.2660 N   0  0  0  0  0  0  0  0  0  0  0  0
  -24.7300  -15.8830   20.4910 H   0  0  0  0  0  0  0  0  0  0  0  0
  -26.3680  -15.6250   20.1480 H   0  0  0  0  0  0  0  0  0  0  0  0
  1 54  1  0
  2  7  1  0
  3  4  1  0
  3  2  1  0
  4  6  1  0
  6  9  1  0
  6  5  1  0
  7  5  1  0
  7  1  1  0
  8  2  2  0
  9 10  1  0
 10 12  1  0
 11 22  2  0
 12 17  1  0
 13 21  1  0
 13 23  1  0
 14 20  1  0
 14 16  1  0
 15 21  1  0
 16 15  1  0
 17 16  2  0
 18 19  1  0
 18 12  2  0
 19 14  2  0
 20 13  1  0
 21 11  1  0
 23 25  2  0
 24 23  1  0
 26 24  1  0
 27 36  2  0
 27 32  1  0
 28 24  1  0
 28 32  1  0
 29 28  1  0
 30 31  1  0
 30 29  1  0
 31 27  1  0
 32 33  2  0
 33 34  1  0
 35 34  2  0
 36 35  1  0
 37 11  1  0
 37 42  1  0
 37 38  1  0
 38 41  1  1
 38 39  1  0
 40 38  1  0
 42 45  1  0
 43 47  1  0
 43 42  1  0
 44 43  2  0
 47 46  1  0
 49 47  1  0
 49 50  1  0
 49 48  1  0
 51 52  1  0
 53 55  1  0
 54 51  2  0
 55 60  1  0
 55 52  2  0
 56 53  2  0
 56 54  1  0
 57 56  1  0
 58 59  2  0
 59 62  1  0
 59 61  1  0
 60 58  1  0
 63 60  1  0
 64 58  1  0
 65 70  1  0
 66 67  1  0
 66 65  1  0
 68 67  1  0
 68 75  1  0
 68 69  1  0
 70 64  1  0
 70 69  1  0
 71 64  2  0
 72 73  2  0
 73 92  1  0
 74 73  1  0
 74 77  1  0
 75 76  1  0
 75 72  1  0
 76 74  2  0
 77 78  1  0
 78 79  2  0
 80 83  1  0
 80 79  1  0
 81 80  2  0
 82 81  1  0
 82 77  2  0
 83 84  1  0
 84 85  1  0
 85 86  2  0
 87 86  1  0
 87 91  1  0
 88 87  2  0
 89 84  2  0
 89 88  1  0
 90 89  1  0
 92 93  1  0
 93 96  1  0
 93 95  1  0
 94 92  2  0
 97 72  1  0
 97 98  1  0
 99 97  1  0
M  ISO  4   9 101  10 101  58 100  64 100
M  END
>  <TORSDO>  (29) 
F 20

>  <SCORE>  (29) 
-13.920

>  <name>  (29) 
28

>  <ligand_id>  (29) 
28

>  <original_smiles>  (29) 
[H]c1c([H])c([H])c2c(c1[H])C([H])([H])C([H])([H])C([H])([H])C2([H])N([H])C(=O)C1([H])N(C(=O)C([H])(N([H])C(=O)C([H])(N([H])C([H])([H])[H])C([H])([H])[H])C(C([H])([H])[H])(C([H])([H])[H])C([H])([H])[H])C([H])([H])c2c([H])c(OC([H])([H])C3([H])C([H])([H])N(C([H])([H])c4c([H])c([H])c([N+]([H])=C(C(=O)N5C([H])([H])C([H])([H])C([H])([H])C([H])(n6nc(-c7c([H])c([H])c(Oc8c([H])c([H])c(F)c([H])c8F)c([H])c7[H])c(C(=O)N([H])[H])c6N([H])[H])C5([H])[H])N([H])[H])c([H])c4F)C(=O)C([H])([H])C3([H])[H])c([H])c([H])c2C1([H])[H]

>  <smiles>  (29) 
[H]c1c([H])c([H])c2c(c1[H])C([H])([H])C([H])([H])C([H])([H])C2([H])N([H])C(=O)C1([H])N(C(=O)C([H])(N([H])C(=O)C([H])(N([H])C([H])([H])[H])C([H])([H])[H])C(C([H])([H])[H])(C([H])([H])[H])C([H])([H])[H])C([H])([H])c2c([H])c(OC([H])([H])C3([H])C([H])([H])N(C([H])([H])c4c([H])c([H])c([N+]([H])=C(C(=O)N5C([H])([H])C([H])([H])C([H])([H])C([H])(n6nc(-c7c([H])c([H])c(Oc8c([H])c([H])c(F)c([H])c8F)c([H])c7[H])c(C(=O)N([H])[H])c6N([H])[H])C5([H])[H])N([H])[H])c([H])c4F)C(=O)C([H])([H])C3([H])[H])c([H])c([H])c2C1([H])[H]

$$$$
29:0:0
     RDKit          3D

 96105  0  0  1  0  0  0  0  0999 V2000
  -28.8700  -20.7050   19.1860 C   0  0  0  0  0  3  0  0  0  0  0  0
  -28.2640  -18.4720   20.2830 C   0  0  0  0  0  3  0  0  0  0  0  0
  -28.5960  -17.1640   20.6970 C   0  0  0  0  0  3  0  0  0  0  0  0
  -30.6120  -18.9440   19.9100 C   0  0  0  0  0  3  0  0  0  0  0  0
  -29.2650  -19.3650   19.8340 C   0  0  0  0  0  0  0  0  0  0  0  0
  -29.9330  -16.7110   20.6810 C   0  0  0  0  0  0  0  0  0  0  0  0
  -30.9520  -17.6450   20.3490 C   0  0  0  0  0  0  0  0  0  0  0  0
  -32.2630  -17.3250   20.4430 F   0  0  0  0  0  0  0  0  0  0  0  0
  -30.7600  -14.4220   20.2090 C   0  0  0  0  0  0  0  0  0  0  0  0
  -30.3770  -12.3340   18.9560 C   0  0  0  0  0  2  0  0  0  0  0  0
  -29.3690  -12.6170   17.8230 C   0  0  0  0  0  2  0  0  0  0  0  0
  -27.9180  -12.4810   18.3270 C   0  0  0  0  0  2  0  0  0  0  0  0
  -27.6690  -13.2490   19.6530 C   0  0  0  0  0  3  0  0  0  0  0  0
  -28.7770  -12.9360   20.6830 C   0  0  0  0  0  2  0  0  0  0  0  0
  -30.0790  -13.2530   20.0670 N   0  0  0  0  0  0  0  0  0  0  0  0
  -31.8220  -14.6370   19.6190 O   0  0  0  0  0  0  0  0  0  0  0  0
  -30.1580  -15.3330   20.9950 N   0  0  0  0  0  0  0  0  0  0  0  0
  -29.4150  -14.9150   21.5300 H   0  0  0  0  0  0  0  0  0  0  0  0
  -25.3160  -13.8480   20.5100 C   0  0  0  0  0  0  0  0  0  0  0  0
  -24.2640  -13.0710   20.9130 C   0  0  0  0  0  0  0  0  0  0  0  0
  -24.7070  -11.7160   20.7990 C   0  0  0  0  0  0  0  0  0  0  0  0
  -26.3380  -12.9680   20.1890 N   0  0  0  0  0  0  0  0  0  0  0  0
  -25.9770  -11.6800   20.4160 N   0  0  0  0  0  0  0  0  0  0  0  0
  -23.9790  -10.4550   20.9780 C   0  0  0  0  0  0  0  0  0  0  0  0
  -24.4000   -9.4830   21.9140 C   0  0  0  0  0  3  0  0  0  0  0  0
  -23.6700   -8.2860   22.0790 C   0  0  0  0  0  3  0  0  0  0  0  0
  -22.5060   -8.0510   21.3080 C   0  0  0  0  0  0  0  0  0  0  0  0
  -22.1070   -9.0090   20.3600 C   0  0  0  0  0  3  0  0  0  0  0  0
  -22.8370  -10.1980   20.1940 C   0  0  0  0  0  3  0  0  0  0  0  0
  -21.7500   -6.9060   21.3830 O   0  0  0  0  0  0  0  0  0  0  0  0
  -21.6280   -6.2000   22.5530 C   0  0  0  0  0  0  0  0  0  0  0  0
  -21.0480   -6.7660   23.7100 C   0  0  0  0  0  3  0  0  0  0  0  0
  -20.8800   -5.9830   24.8680 C   0  0  0  0  0  3  0  0  0  0  0  0
  -21.2810   -4.6340   24.8710 C   0  0  0  0  0  0  0  0  0  0  0  0
  -21.8540   -4.0680   23.7190 C   0  0  0  0  0  3  0  0  0  0  0  0
  -22.0260   -4.8480   22.5620 C   0  0  0  0  0  0  0  0  0  0  0  0
  -22.5590   -4.2910   21.4470 F   0  0  0  0  0  0  0  0  0  0  0  0
  -21.1160   -3.8780   25.9800 F   0  0  0  0  0  0  0  0  0  0  0  0
  -22.8910  -13.5480   21.2900 C   0  0  0  0  0  0  0  0  0  0  0  0
  -22.2060  -12.8190   22.1650 N   0  0  0  0  0  0  0  0  0  0  0  0
  -22.4330  -14.5990   20.8430 O   0  0  0  0  0  0  0  0  0  0  0  0
  -22.5910  -11.9670   22.5470 H   0  0  0  0  0  0  0  0  0  0  0  0
  -21.2860  -13.1160   22.4560 H   0  0  0  0  0  0  0  0  0  0  0  0
  -25.4800  -15.2220   20.3630 N   0  0  0  0  0  0  0  0  0  0  0  0
  -24.6980  -15.8590   20.4650 H   0  0  0  0  0  0  0  0  0  0  0  0
  -26.2750  -15.6490   19.9060 H   0  0  0  0  0  0  0  0  0  0  0  0
  -30.5990  -23.8930   20.3340 C   0  0  0  0  0  2  0  0  0  0  0  0
  -30.6310  -22.4090   19.9260 C   0  0  0  0  0  2  0  0  0  0  0  0
  -28.3440  -23.0750   19.8800 C   0  0  0  0  0  2  0  0  0  0  0  0
  -29.1170  -24.3220   20.3640 C   0  0  0  0  0  3  0  0  0  0  0  0
  -29.2420  -21.9010   20.0160 N   0  0  1  0  0  4  0  0  0  0  0  0
  -29.1230  -21.6010   20.9720 H   0  0  0  0  0  0  0  0  0  0  0  0
  -28.8120  -25.6200   19.5550 C   0  0  0  0  0  2  0  0  0  0  0  0
  -28.5200  -26.7390   20.4060 O   0  0  0  0  0  0  0  0  0  0  0  0
  -24.5570  -31.9230   23.2210 C   0  0  0  0  0  0  0  0  0  0  0  0
  -27.3020  -27.3960   20.3440 C   0  0  0  0  0  0  0  0  0  0  0  0
  -23.3890  -30.4450   21.6190 C   0  0  0  0  0  3  0  0  0  0  0  0
  -24.8770  -28.8690   20.2780 C   0  0  0  0  0  0  0  0  0  0  0  0
  -25.9130  -30.8240   21.4400 C   0  0  0  0  0  2  0  0  0  0  0  0
  -26.0200  -29.4300   20.8580 C   0  0  0  0  0  0  0  0  0  0  0  0
  -27.2300  -28.6990   20.8930 C   0  0  0  0  0  3  0  0  0  0  0  0
  -26.1270  -26.8380   19.7870 C   0  0  0  0  0  3  0  0  0  0  0  0
  -24.9250  -27.5700   19.7450 C   0  0  0  0  0  3  0  0  0  0  0  0
  -23.6210  -29.7120   20.2720 C   0  0  0  0  0  2  0  0  0  0  0  0
  -24.6370  -31.0830   22.1500 N   0  0  0  0  0  0  0  0  0  0  0  0
  -23.4660  -32.2030   23.7360 O   0  0  0  0  0  0  0  0  0  0  0  0
  -22.7370  -29.4540   22.6100 C   0  0  0  0  0  0  0  0  0  0  0  0
  -21.4180  -29.2470   22.4690 N   0  0  0  0  0  0  0  0  0  0  0  0
  -23.4170  -28.8700   23.4590 O   0  0  0  0  0  0  0  0  0  0  0  0
  -20.9330  -29.7670   21.7510 H   0  0  0  0  0  0  0  0  0  0  0  0
  -18.0490  -28.0500   22.9790 C   0  0  0  0  0  0  0  0  0  0  0  0
  -20.6020  -28.3300   23.2630 C   0  0  0  0  0  3  0  0  0  0  0  0
  -20.7180  -26.8830   22.7310 C   0  0  0  0  0  2  0  0  0  0  0  0
  -19.6260  -26.5220   21.7190 C   0  0  0  0  0  2  0  0  0  0  0  0
  -18.2380  -26.6810   22.3480 C   0  0  0  0  0  2  0  0  0  0  0  0
  -19.1600  -28.8310   23.3940 C   0  0  0  0  0  0  0  0  0  0  0  0
  -18.9300  -30.1120   23.9390 C   0  0  0  0  0  3  0  0  0  0  0  0
  -17.6220  -30.6120   24.0770 C   0  0  0  0  0  3  0  0  0  0  0  0
  -16.5250  -29.8280   23.6800 C   0  0  0  0  0  3  0  0  0  0  0  0
  -16.7390  -28.5500   23.1350 C   0  0  0  0  0  3  0  0  0  0  0  0
  -25.8280  -32.5920   23.8310 C   0  0  0  0  0  3  0  0  0  0  0  0
  -26.3760  -31.8380   25.1040 C   0  0  1  0  0  0  0  0  0  0  0  0
  -25.2940  -31.5520   26.1710 C   0  0  0  0  0  1  0  0  0  0  0  0
  -27.0150  -30.4870   24.7030 C   0  0  0  0  0  1  0  0  0  0  0  0
  -27.4960  -32.6740   25.7660 C   0  0  0  0  0  1  0  0  0  0  0  0
  -25.4790  -33.9810   24.1620 N   0  0  0  0  0  0  0  0  0  0  0  0
  -25.7820  -35.0420   23.4020 C   0  0  0  0  0  0  0  0  0  0  0  0
  -26.4540  -34.9570   22.3710 O   0  0  0  0  0  0  0  0  0  0  0  0
  -24.8780  -34.1180   24.9590 H   0  0  0  0  0  0  0  0  0  0  0  0
  -24.0170  -36.7940   23.0280 C   0  0  0  0  0  1  0  0  0  0  0  0
  -25.2530  -36.4150   23.8580 C   0  0  0  0  0  3  0  0  0  0  0  0
  -27.3430  -37.3520   24.7430 C   0  0  0  0  0  1  0  0  0  0  0  0
  -26.2630  -37.4930   23.7700 N   0  0  0  0  0  0  0  0  0  0  0  0
  -25.8320  -38.4030   23.9040 H   0  0  0  0  0  0  0  0  0  0  0  0
  -28.7880  -21.8890   16.8280 C   0  0  0  0  0  1  0  0  0  0  0  0
  -29.3150  -20.7280   17.6920 C   0  0  0  0  0  2  0  0  0  0  0  0
  1 96  1  0
  1  5  1  0
  1 51  1  0
  2  3  1  0
  4  7  2  0
  5  4  1  0
  5  2  2  0
  6  3  2  0
  6 17  1  0
  7  8  1  0
  7  6  1  0
  9 17  1  0
 10 15  1  0
 11 12  1  0
 11 10  1  0
 13 12  1  0
 13 22  1  0
 13 14  1  0
 15  9  1  0
 15 14  1  0
 16  9  2  0
 17 18  1  0
 19 20  2  0
 20 39  1  0
 21 20  1  0
 21 24  1  0
 22 23  1  0
 22 19  1  0
 23 21  2  0
 24 25  1  0
 25 26  2  0
 27 30  1  0
 27 26  1  0
 28 27  2  0
 29 28  1  0
 29 24  2  0
 30 31  1  0
 31 36  2  0
 31 32  1  0
 32 33  2  0
 33 34  1  0
 34 38  1  0
 35 34  2  0
 36 35  1  0
 37 36  1  0
 39 40  1  0
 40 43  1  0
 40 42  1  0
 41 39  2  0
 44 45  1  0
 44 19  1  0
 46 44  1  0
 47 50  1  0
 48 51  1  0
 48 47  1  0
 49 51  1  0
 49 50  1  0
 50 53  1  0
 51 52  1  1
 53 54  1  0
 55 66  2  0
 56 54  1  0
 56 61  1  0
 57 65  1  0
 57 67  1  0
 58 60  1  0
 59 65  1  0
 60 61  2  0
 60 59  1  0
 62 56  2  0
 63 62  1  0
 63 58  2  0
 64 58  1  0
 64 57  1  0
 65 55  1  0
 67 69  2  0
 68 67  1  0
 70 68  1  0
 71 80  2  0
 71 76  1  0
 72 68  1  0
 72 76  1  0
 73 72  1  0
 74 75  1  0
 74 73  1  0
 75 71  1  0
 76 77  2  0
 77 78  1  0
 79 78  2  0
 80 79  1  0
 81 55  1  0
 81 86  1  0
 81 82  1  0
 82 85  1  1
 82 83  1  0
 84 82  1  0
 86 89  1  0
 87 91  1  0
 87 86  1  0
 88 87  2  0
 91 90  1  0
 93 91  1  0
 93 94  1  0
 93 92  1  0
 95 96  1  0
M  ISO  4   9 100  17 100  53 101  54 101
M  END
>  <TORSDO>  (30) 
F 20

>  <SCORE>  (30) 
-13.876

>  <name>  (30) 
29

>  <ligand_id>  (30) 
29

>  <original_smiles>  (30) 
[H]c1c([H])c([H])c2c(c1[H])C([H])([H])C([H])([H])C([H])([H])C2([H])N([H])C(=O)C1([H])N(C(=O)C([H])(N([H])C(=O)C([H])(N([H])C([H])([H])[H])C([H])([H])[H])C(C([H])([H])[H])(C([H])([H])[H])C([H])([H])[H])C([H])([H])c2c([H])c(OC([H])([H])C3([H])C([H])([H])C([H])([H])[N+]([H])(C([H])(c4c([H])c([H])c(N([H])C(=O)N5C([H])([H])C([H])([H])C([H])([H])C([H])(n6nc(-c7c([H])c([H])c(Oc8c([H])c([H])c(F)c([H])c8F)c([H])c7[H])c(C(=O)N([H])[H])c6N([H])[H])C5([H])[H])c(F)c4[H])C([H])([H])C([H])([H])[H])C3([H])[H])c([H])c([H])c2C1([H])[H]

>  <smiles>  (30) 
[H]c1c([H])c([H])c2c(c1[H])C([H])([H])C([H])([H])C([H])([H])C2([H])N([H])C(=O)C1([H])N(C(=O)C([H])(N([H])C(=O)C([H])(N([H])C([H])([H])[H])C([H])([H])[H])C(C([H])([H])[H])(C([H])([H])[H])C([H])([H])[H])C([H])([H])c2c([H])c(OC([H])([H])C3([H])C([H])([H])C([H])([H])[N+]([H])(C([H])(c4c([H])c([H])c(N([H])C(=O)N5C([H])([H])C([H])([H])C([H])([H])C([H])(n6nc(-c7c([H])c([H])c(Oc8c([H])c([H])c(F)c([H])c8F)c([H])c7[H])c(C(=O)N([H])[H])c6N([H])[H])C5([H])[H])c(F)c4[H])C([H])([H])C([H])([H])[H])C3([H])[H])c([H])c([H])c2C1([H])[H]

$$$$
30:0:0
     RDKit          3D

 94103  0  0  1  0  0  0  0  0999 V2000
  -28.8830  -21.7530   17.5110 C   0  0  0  0  0  0  0  0  0  0  0  0
  -28.1080  -22.8970   16.8820 C   0  0  0  0  0  2  0  0  0  0  0  0
  -28.5890  -24.2220   17.4420 C   0  0  0  0  0  2  0  0  0  0  0  0
  -29.0490  -22.9810   19.6330 C   0  0  0  0  0  2  0  0  0  0  0  0
  -28.4120  -24.2910   18.9680 C   0  0  0  0  0  3  0  0  0  0  0  0
  -28.9140  -21.6820   18.8690 N   0  0  0  0  0  0  0  0  0  0  0  0
  -29.4340  -20.9400   16.7590 O   0  0  0  0  0  0  0  0  0  0  0  0
  -28.4080  -17.9410   19.4210 C   0  0  0  0  0  3  0  0  0  0  0  0
  -29.9560  -18.7220   21.0980 C   0  0  0  0  0  3  0  0  0  0  0  0
  -28.2880  -19.2590   18.9320 C   0  0  0  0  0  3  0  0  0  0  0  0
  -29.8490  -20.0520   20.5920 C   0  0  0  0  0  3  0  0  0  0  0  0
  -29.2430  -17.6380   20.5130 C   0  0  0  0  0  0  0  0  0  0  0  0
  -29.0240  -20.3520   19.4770 C   0  0  0  0  0  0  0  0  0  0  0  0
  -29.2090  -16.1970   21.0960 C   0  0  0  0  0  2  0  0  0  0  0  0
  -30.7270  -14.4090   20.0880 C   0  0  0  0  0  0  0  0  0  0  0  0
  -30.2700  -12.2750   18.9060 C   0  0  0  0  0  2  0  0  0  0  0  0
  -29.2660  -12.4860   17.7540 C   0  0  0  0  0  2  0  0  0  0  0  0
  -27.8190  -12.3510   18.2640 C   0  0  0  0  0  2  0  0  0  0  0  0
  -27.5680  -13.1760   19.5530 C   0  0  0  0  0  3  0  0  0  0  0  0
  -28.6890  -12.9540   20.6000 C   0  0  0  0  0  2  0  0  0  0  0  0
  -29.9760  -13.2680   19.9630 N   0  0  0  0  0  0  0  0  0  0  0  0
  -31.7780  -14.5350   19.4500 O   0  0  0  0  0  0  0  0  0  0  0  0
  -31.5400  -15.9250   21.7980 C   0  0  0  0  0  1  0  0  0  0  0  0
  -30.4240  -15.3400   21.0450 N   0  0  0  0  0  0  0  0  0  0  0  0
  -25.2310  -13.8110   20.4200 C   0  0  0  0  0  0  0  0  0  0  0  0
  -24.1730  -13.0500   20.8350 C   0  0  0  0  0  0  0  0  0  0  0  0
  -24.6030  -11.6910   20.7490 C   0  0  0  0  0  0  0  0  0  0  0  0
  -26.2420  -12.9150   20.1080 N   0  0  0  0  0  0  0  0  0  0  0  0
  -25.8730  -11.6340   20.3640 N   0  0  0  0  0  0  0  0  0  0  0  0
  -23.8640  -10.4390   20.9570 C   0  0  0  0  0  0  0  0  0  0  0  0
  -24.2970   -9.4700   21.8880 C   0  0  0  0  0  3  0  0  0  0  0  0
  -23.5590   -8.2830   22.0830 C   0  0  0  0  0  3  0  0  0  0  0  0
  -22.3720   -8.0570   21.3450 C   0  0  0  0  0  0  0  0  0  0  0  0
  -21.9570   -9.0140   20.4030 C   0  0  0  0  0  3  0  0  0  0  0  0
  -22.6960  -10.1930   20.2080 C   0  0  0  0  0  3  0  0  0  0  0  0
  -21.6040   -6.9220   21.4500 O   0  0  0  0  0  0  0  0  0  0  0  0
  -21.5460   -6.1960   22.6120 C   0  0  0  0  0  0  0  0  0  0  0  0
  -21.0820   -6.7600   23.8200 C   0  0  0  0  0  3  0  0  0  0  0  0
  -20.9760   -5.9600   24.9750 C   0  0  0  0  0  3  0  0  0  0  0  0
  -21.3220   -4.5970   24.9220 C   0  0  0  0  0  0  0  0  0  0  0  0
  -21.7800   -4.0320   23.7180 C   0  0  0  0  0  3  0  0  0  0  0  0
  -21.8890   -4.8300   22.5660 C   0  0  0  0  0  0  0  0  0  0  0  0
  -22.3110   -4.2770   21.4030 F   0  0  0  0  0  0  0  0  0  0  0  0
  -21.2120   -3.8250   26.0290 F   0  0  0  0  0  0  0  0  0  0  0  0
  -22.8030  -13.5490   21.2000 C   0  0  0  0  0  0  0  0  0  0  0  0
  -22.1130  -12.8470   22.0920 N   0  0  0  0  0  0  0  0  0  0  0  0
  -22.3570  -14.5950   20.7290 O   0  0  0  0  0  0  0  0  0  0  0  0
  -22.4890  -12.0040   22.4970 H   0  0  0  0  0  0  0  0  0  0  0  0
  -21.1940  -13.1600   22.3730 H   0  0  0  0  0  0  0  0  0  0  0  0
  -25.4060  -15.1810   20.2600 N   0  0  0  0  0  0  0  0  0  0  0  0
  -24.6550  -15.8360   20.4450 H   0  0  0  0  0  0  0  0  0  0  0  0
  -26.2280  -15.6220   19.8730 H   0  0  0  0  0  0  0  0  0  0  0  0
  -28.9560  -25.7310   19.3520 C   0  0  0  0  0  2  0  0  0  0  0  0
  -28.4360  -26.5610   20.4110 O   0  0  0  0  0  0  0  0  0  0  0  0
  -24.6140  -31.8740   23.2250 C   0  0  0  0  0  0  0  0  0  0  0  0
  -27.3020  -27.3480   20.2510 C   0  0  0  0  0  0  0  0  0  0  0  0
  -23.4330  -30.4490   21.5840 C   0  0  0  0  0  3  0  0  0  0  0  0
  -24.9110  -28.8910   20.1940 C   0  0  0  0  0  0  0  0  0  0  0  0
  -25.9650  -30.7920   21.4270 C   0  0  0  0  0  2  0  0  0  0  0  0
  -26.0580  -29.4090   20.8060 C   0  0  0  0  0  0  0  0  0  0  0  0
  -27.2490  -28.6390   20.8420 C   0  0  0  0  0  3  0  0  0  0  0  0
  -26.1420  -26.8670   19.6060 C   0  0  0  0  0  3  0  0  0  0  0  0
  -24.9510  -27.6220   19.5890 C   0  0  0  0  0  3  0  0  0  0  0  0
  -23.6660  -29.7530   20.2140 C   0  0  0  0  0  2  0  0  0  0  0  0
  -24.6870  -31.0560   22.1370 N   0  0  0  0  0  0  0  0  0  0  0  0
  -23.5240  -32.1540   23.7460 O   0  0  0  0  0  0  0  0  0  0  0  0
  -22.7650  -29.4430   22.5500 C   0  0  0  0  0  0  0  0  0  0  0  0
  -21.4420  -29.2660   22.4160 N   0  0  0  0  0  0  0  0  0  0  0  0
  -23.4380  -28.8230   23.3800 O   0  0  0  0  0  0  0  0  0  0  0  0
  -20.9580  -29.8180   21.7210 H   0  0  0  0  0  0  0  0  0  0  0  0
  -18.0540  -28.1160   22.9350 C   0  0  0  0  0  0  0  0  0  0  0  0
  -20.6170  -28.3370   23.1890 C   0  0  0  0  0  3  0  0  0  0  0  0
  -20.6960  -26.9070   22.6070 C   0  0  0  0  0  2  0  0  0  0  0  0
  -19.5830  -26.6020   21.5990 C   0  0  0  0  0  2  0  0  0  0  0  0
  -18.2080  -26.7660   22.2510 C   0  0  0  0  0  2  0  0  0  0  0  0
  -19.1870  -28.8600   23.3590 C   0  0  0  0  0  0  0  0  0  0  0  0
  -18.9920  -30.1260   23.9560 C   0  0  0  0  0  3  0  0  0  0  0  0
  -17.6970  -30.6480   24.1310 C   0  0  0  0  0  3  0  0  0  0  0  0
  -16.5780  -29.9010   23.7210 C   0  0  0  0  0  3  0  0  0  0  0  0
  -16.7560  -28.6380   23.1290 C   0  0  0  0  0  3  0  0  0  0  0  0
  -25.8890  -32.5160   23.8560 C   0  0  0  0  0  3  0  0  0  0  0  0
  -26.4030  -31.7540   25.1380 C   0  0  1  0  0  0  0  0  0  0  0  0
  -25.3020  -31.5010   26.1960 C   0  0  0  0  0  1  0  0  0  0  0  0
  -27.0110  -30.3850   24.7500 C   0  0  0  0  0  1  0  0  0  0  0  0
  -27.5380  -32.5640   25.8090 C   0  0  0  0  0  1  0  0  0  0  0  0
  -25.5680  -33.9130   24.1810 N   0  0  0  0  0  0  0  0  0  0  0  0
  -25.8980  -34.9670   23.4220 C   0  0  0  0  0  0  0  0  0  0  0  0
  -26.5760  -34.8670   22.3950 O   0  0  0  0  0  0  0  0  0  0  0  0
  -24.9720  -34.0670   24.9810 H   0  0  0  0  0  0  0  0  0  0  0  0
  -24.1640  -36.7510   23.0460 C   0  0  0  0  0  1  0  0  0  0  0  0
  -25.3950  -36.3510   23.8750 C   0  0  0  0  0  3  0  0  0  0  0  0
  -27.5060  -37.2530   24.7490 C   0  0  0  0  0  1  0  0  0  0  0  0
  -26.4240  -37.4110   23.7810 N   0  0  0  0  0  0  0  0  0  0  0  0
  -26.0080  -38.3280   23.9180 H   0  0  0  0  0  0  0  0  0  0  0  0
  1  6  1  0
  2  3  1  0
  2  1  1  0
  3  5  1  0
  5 53  1  0
  5  4  1  0
  6 13  1  0
  6  4  1  0
  7  1  2  0
  8 12  1  0
 10  8  2  0
 10 13  1  0
 11  9  1  0
 12 14  1  0
 12  9  2  0
 13 11  2  0
 15 24  1  0
 16 21  1  0
 17 18  1  0
 17 16  1  0
 19 18  1  0
 19 28  1  0
 19 20  1  0
 21 15  1  0
 21 20  1  0
 22 15  2  0
 24 14  1  0
 24 23  1  0
 25 26  2  0
 26 45  1  0
 27 26  1  0
 27 30  1  0
 28 29  1  0
 28 25  1  0
 29 27  2  0
 30 31  1  0
 31 32  2  0
 33 36  1  0
 33 32  1  0
 34 33  2  0
 35 34  1  0
 35 30  2  0
 36 37  1  0
 37 38  1  0
 38 39  2  0
 40 39  1  0
 40 44  1  0
 41 40  2  0
 42 37  2  0
 42 41  1  0
 43 42  1  0
 45 46  1  0
 46 49  1  0
 46 48  1  0
 47 45  2  0
 50 25  1  0
 50 51  1  0
 52 50  1  0
 53 54  1  0
 55 66  2  0
 56 54  1  0
 56 61  1  0
 57 65  1  0
 57 67  1  0
 58 64  1  0
 58 60  1  0
 59 65  1  0
 60 61  2  0
 60 59  1  0
 62 56  2  0
 63 62  1  0
 63 58  2  0
 64 57  1  0
 65 55  1  0
 67 69  2  0
 68 67  1  0
 70 68  1  0
 71 80  2  0
 71 76  1  0
 72 68  1  0
 72 76  1  0
 73 72  1  0
 74 75  1  0
 74 73  1  0
 75 71  1  0
 76 77  2  0
 77 78  1  0
 79 78  2  0
 80 79  1  0
 81 55  1  0
 81 86  1  0
 81 82  1  0
 82 85  1  1
 82 83  1  0
 84 82  1  0
 86 89  1  0
 87 91  1  0
 87 86  1  0
 88 87  2  0
 91 90  1  0
 93 91  1  0
 93 94  1  0
 93 92  1  0
M  ISO  4  15 100  24 100  53 101  54 101
M  END
>  <TORSDO>  (31) 
F 19

>  <SCORE>  (31) 
-13.619

>  <name>  (31) 
30

>  <ligand_id>  (31) 
30

>  <original_smiles>  (31) 
[H]c1c([H])c([H])c2c(c1[H])C([H])([H])C([H])([H])C([H])([H])C2([H])N([H])C(=O)C1([H])N(C(=O)C([H])(N([H])C(=O)C([H])(N([H])C([H])([H])[H])C([H])([H])[H])C(C([H])([H])[H])(C([H])([H])[H])C([H])([H])[H])C([H])([H])c2c([H])c(OC([H])([H])C3([H])C([H])([H])N(c4c([H])c([H])c(C([H])([H])N(C(=O)N5C([H])([H])C([H])([H])C([H])([H])C([H])(n6nc(-c7c([H])c([H])c(Oc8c([H])c([H])c(F)c([H])c8F)c([H])c7[H])c(C(=O)N([H])[H])c6N([H])[H])C5([H])[H])C([H])([H])[H])c([H])c4[H])C(=O)C([H])([H])C3([H])[H])c([H])c([H])c2C1([H])[H]

>  <smiles>  (31) 
[H]c1c([H])c([H])c2c(c1[H])C([H])([H])C([H])([H])C([H])([H])C2([H])N([H])C(=O)C1([H])N(C(=O)C([H])(N([H])C(=O)C([H])(N([H])C([H])([H])[H])C([H])([H])[H])C(C([H])([H])[H])(C([H])([H])[H])C([H])([H])[H])C([H])([H])c2c([H])c(OC([H])([H])C3([H])C([H])([H])N(c4c([H])c([H])c(C([H])([H])N(C(=O)N5C([H])([H])C([H])([H])C([H])([H])C([H])(n6nc(-c7c([H])c([H])c(Oc8c([H])c([H])c(F)c([H])c8F)c([H])c7[H])c(C(=O)N([H])[H])c6N([H])[H])C5([H])[H])C([H])([H])[H])c([H])c4[H])C(=O)C([H])([H])C3([H])[H])c([H])c([H])c2C1([H])[H]

$$$$
31:0:0
     RDKit          3D

 92100  0  0  1  0  0  0  0  0999 V2000
  -29.1160  -19.6610   21.1860 C   0  0  0  0  0  3  0  0  0  0  0  0
  -28.7570  -21.0650   21.3180 C   0  0  0  0  0  3  0  0  0  0  0  0
  -29.7850  -20.1100   18.9710 C   0  0  0  0  0  3  0  0  0  0  0  0
  -29.6800  -19.1000   20.0000 C   0  0  0  0  0  0  0  0  0  0  0  0
  -28.8930  -22.0860   20.3040 C   0  0  0  0  0  0  0  0  0  0  0  0
  -29.4110  -21.5230   19.0880 C   0  0  0  0  0  0  0  0  0  0  0  0
  -30.6860  -15.1330   20.0260 C   0  0  0  0  0  0  0  0  0  0  0  0
  -30.4780  -12.7880   19.1150 C   0  0  0  0  0  2  0  0  0  0  0  0
  -29.5060  -12.7440   17.9150 C   0  0  0  0  0  2  0  0  0  0  0  0
  -28.0670  -12.5260   18.4140 C   0  0  0  0  0  2  0  0  0  0  0  0
  -27.6990  -13.4680   19.5890 C   0  0  0  0  0  3  0  0  0  0  0  0
  -28.7930  -13.5080   20.6770 C   0  0  0  0  0  2  0  0  0  0  0  0
  -30.0440  -13.8960   20.0160 N   0  0  0  0  0  0  0  0  0  0  0  0
  -31.8830  -15.1050   19.7160 O   0  0  0  0  0  0  0  0  0  0  0  0
  -30.4190  -17.6810   19.8570 C   0  0  0  0  0  0  0  0  0  0  0  0
  -29.9780  -16.3660   20.1760 N   0  0  0  0  0  0  0  0  0  0  0  0
  -31.5320  -17.8150   19.3400 O   0  0  0  0  0  0  0  0  0  0  0  0
  -29.0280  -16.2970   20.4980 H   0  0  0  0  0  0  0  0  0  0  0  0
  -25.3550  -14.0350   20.4430 C   0  0  0  0  0  0  0  0  0  0  0  0
  -24.3060  -13.2530   20.8420 C   0  0  0  0  0  0  0  0  0  0  0  0
  -24.7680  -11.9030   20.7700 C   0  0  0  0  0  0  0  0  0  0  0  0
  -26.3850  -13.1610   20.1410 N   0  0  0  0  0  0  0  0  0  0  0  0
  -26.0450  -11.8730   20.4060 N   0  0  0  0  0  0  0  0  0  0  0  0
  -24.0510  -10.6370   20.9670 C   0  0  0  0  0  0  0  0  0  0  0  0
  -24.4930   -9.6740   21.9010 C   0  0  0  0  0  3  0  0  0  0  0  0
  -23.7730   -8.4740   22.0870 C   0  0  0  0  0  3  0  0  0  0  0  0
  -22.5980   -8.2270   21.3400 C   0  0  0  0  0  0  0  0  0  0  0  0
  -22.1750   -9.1790   20.3960 C   0  0  0  0  0  3  0  0  0  0  0  0
  -22.8940  -10.3700   20.2080 C   0  0  0  0  0  3  0  0  0  0  0  0
  -21.8490   -7.0800   21.4370 O   0  0  0  0  0  0  0  0  0  0  0  0
  -21.7830   -6.3590   22.6020 C   0  0  0  0  0  0  0  0  0  0  0  0
  -21.2720   -6.9170   23.7940 C   0  0  0  0  0  3  0  0  0  0  0  0
  -21.1560   -6.1190   24.9510 C   0  0  0  0  0  3  0  0  0  0  0  0
  -21.5420   -4.7650   24.9150 C   0  0  0  0  0  0  0  0  0  0  0  0
  -22.0470   -4.2080   23.7280 C   0  0  0  0  0  3  0  0  0  0  0  0
  -22.1650   -5.0040   22.5740 C   0  0  0  0  0  0  0  0  0  0  0  0
  -22.6310   -4.4560   21.4250 F   0  0  0  0  0  0  0  0  0  0  0  0
  -21.4250   -3.9970   26.0240 F   0  0  0  0  0  0  0  0  0  0  0  0
  -22.9220  -13.7250   21.1750 C   0  0  0  0  0  0  0  0  0  0  0  0
  -22.2260  -13.0130   22.0540 N   0  0  0  0  0  0  0  0  0  0  0  0
  -22.4680  -14.7610   20.6920 O   0  0  0  0  0  0  0  0  0  0  0  0
  -22.6080  -12.1770   22.4690 H   0  0  0  0  0  0  0  0  0  0  0  0
  -21.2990  -13.3140   22.3200 H   0  0  0  0  0  0  0  0  0  0  0  0
  -25.5130  -15.4090   20.2790 N   0  0  0  0  0  0  0  0  0  0  0  0
  -24.7470  -16.0580   20.4260 H   0  0  0  0  0  0  0  0  0  0  0  0
  -26.3340  -15.8490   19.8880 H   0  0  0  0  0  0  0  0  0  0  0  0
  -28.5890  -23.6480   20.6510 C   0  0  0  0  0  0  0  0  0  0  0  0
  -28.4910  -23.9430   21.8470 O   0  0  0  0  0  0  0  0  0  0  0  0
  -28.3430  -24.9230   19.6440 C   0  0  0  0  0  2  0  0  0  0  0  0
  -28.3340  -26.3890   20.1810 O   0  0  0  0  0  0  0  0  0  0  0  0
  -24.5880  -31.9350   23.2190 C   0  0  0  0  0  0  0  0  0  0  0  0
  -27.2480  -27.3300   20.0960 C   0  0  0  0  0  0  0  0  0  0  0  0
  -23.4190  -30.5550   21.5430 C   0  0  0  0  0  3  0  0  0  0  0  0
  -24.8950  -29.0350   20.0910 C   0  0  0  0  0  0  0  0  0  0  0  0
  -25.9680  -30.8640   21.3970 C   0  0  0  0  0  2  0  0  0  0  0  0
  -26.0620  -29.4870   20.7180 C   0  0  0  0  0  0  0  0  0  0  0  0
  -27.2360  -28.6460   20.7080 C   0  0  0  0  0  3  0  0  0  0  0  0
  -26.0530  -26.9780   19.4290 C   0  0  0  0  0  3  0  0  0  0  0  0
  -24.9020  -27.7950   19.4340 C   0  0  0  0  0  3  0  0  0  0  0  0
  -23.6560  -29.9130   20.1510 C   0  0  0  0  0  2  0  0  0  0  0  0
  -24.6780  -31.1390   22.1090 N   0  0  0  0  0  0  0  0  0  0  0  0
  -23.4940  -32.1920   23.7460 O   0  0  0  0  0  0  0  0  0  0  0  0
  -22.7530  -29.5160   22.4800 C   0  0  0  0  0  0  0  0  0  0  0  0
  -21.4290  -29.3250   22.3390 N   0  0  0  0  0  0  0  0  0  0  0  0
  -23.4290  -28.8870   23.2980 O   0  0  0  0  0  0  0  0  0  0  0  0
  -20.9390  -29.8850   21.6560 H   0  0  0  0  0  0  0  0  0  0  0  0
  -18.0630  -28.0670   22.8000 C   0  0  0  0  0  0  0  0  0  0  0  0
  -20.6170  -28.3590   23.0850 C   0  0  0  0  0  3  0  0  0  0  0  0
  -20.7430  -26.9430   22.4770 C   0  0  0  0  0  2  0  0  0  0  0  0
  -19.6470  -26.6250   21.4530 C   0  0  0  0  0  2  0  0  0  0  0  0
  -18.2630  -26.7340   22.0980 C   0  0  0  0  0  2  0  0  0  0  0  0
  -19.1690  -28.8360   23.2500 C   0  0  0  0  0  0  0  0  0  0  0  0
  -18.9280  -30.0810   23.8710 C   0  0  0  0  0  3  0  0  0  0  0  0
  -17.6140  -30.5580   24.0430 C   0  0  0  0  0  3  0  0  0  0  0  0
  -16.5230  -29.7870   23.6070 C   0  0  0  0  0  3  0  0  0  0  0  0
  -16.7480  -28.5420   22.9910 C   0  0  0  0  0  3  0  0  0  0  0  0
  -25.8530  -32.5770   23.8660 C   0  0  0  0  0  3  0  0  0  0  0  0
  -26.3350  -31.8210   25.1660 C   0  0  1  0  0  0  0  0  0  0  0  0
  -25.2180  -31.6010   26.2140 C   0  0  0  0  0  1  0  0  0  0  0  0
  -26.9250  -30.4370   24.8100 C   0  0  0  0  0  1  0  0  0  0  0  0
  -27.4710  -32.6220   25.8460 C   0  0  0  0  0  1  0  0  0  0  0  0
  -25.5330  -33.9790   24.1770 N   0  0  0  0  0  0  0  0  0  0  0  0
  -25.8830  -35.0280   23.4210 C   0  0  0  0  0  0  0  0  0  0  0  0
  -26.5770  -34.9160   22.4060 O   0  0  0  0  0  0  0  0  0  0  0  0
  -24.9160  -34.1370   24.9600 H   0  0  0  0  0  0  0  0  0  0  0  0
  -24.1800  -36.8360   23.0060 C   0  0  0  0  0  1  0  0  0  0  0  0
  -25.3890  -36.4210   23.8590 C   0  0  0  0  0  3  0  0  0  0  0  0
  -27.4920  -37.3030   24.7700 C   0  0  0  0  0  1  0  0  0  0  0  0
  -26.4310  -37.4680   23.7810 N   0  0  0  0  0  0  0  0  0  0  0  0
  -26.0230  -38.3900   23.9050 H   0  0  0  0  0  0  0  0  0  0  0  0
  -29.9930  -21.9260   16.7810 C   0  0  0  0  0  1  0  0  0  0  0  0
  -29.5700  -22.4150   18.0480 O   0  0  0  0  0  0  0  0  0  0  0  0
  1  2  1  0
  3  6  2  0
  3  4  1  0
  4  1  2  0
  5 47  1  0
  5  2  2  0
  6  5  1  0
  7 16  1  0
  8 13  1  0
  9 10  1  0
  9  8  1  0
 11 10  1  0
 11 22  1  0
 11 12  1  0
 13  7  1  0
 13 12  1  0
 14  7  2  0
 15  4  1  0
 15 16  1  0
 16 18  1  0
 17 15  2  0
 19 20  2  0
 20 39  1  0
 21 20  1  0
 21 24  1  0
 22 23  1  0
 22 19  1  0
 23 21  2  0
 24 25  1  0
 25 26  2  0
 27 30  1  0
 27 26  1  0
 28 27  2  0
 29 28  1  0
 29 24  2  0
 30 31  1  0
 31 32  1  0
 32 33  2  0
 34 33  1  0
 34 38  1  0
 35 34  2  0
 36 31  2  0
 36 35  1  0
 37 36  1  0
 39 40  1  0
 40 43  1  0
 40 42  1  0
 41 39  2  0
 44 45  1  0
 44 19  1  0
 46 44  1  0
 47 48  2  0
 49 50  1  0
 49 47  1  0
 51 62  2  0
 52 50  1  0
 52 57  1  0
 53 61  1  0
 53 63  1  0
 54 60  1  0
 54 56  1  0
 55 61  1  0
 56 55  1  0
 57 56  2  0
 58 59  1  0
 58 52  2  0
 59 54  2  0
 60 53  1  0
 61 51  1  0
 63 65  2  0
 64 63  1  0
 66 64  1  0
 67 76  2  0
 67 72  1  0
 68 64  1  0
 68 72  1  0
 69 68  1  0
 70 71  1  0
 70 69  1  0
 71 67  1  0
 72 73  2  0
 73 74  1  0
 75 74  2  0
 76 75  1  0
 77 51  1  0
 77 82  1  0
 77 78  1  0
 78 81  1  1
 78 79  1  0
 80 78  1  0
 82 85  1  0
 83 87  1  0
 83 82  1  0
 84 83  2  0
 87 86  1  0
 89 87  1  0
 89 90  1  0
 89 88  1  0
 91 92  1  0
 92  6  1  0
M  ISO  4   7 100  16 100  49 101  50 101
M  END
>  <TORSDO>  (32) 
F 19

>  <SCORE>  (32) 
-14.022

>  <name>  (32) 
31

>  <ligand_id>  (32) 
31

>  <original_smiles>  (32) 
[H]c1c([H])c([H])c2c(c1[H])C([H])([H])C([H])([H])C([H])([H])C2([H])N([H])C(=O)C1([H])N(C(=O)C([H])(N([H])C(=O)C([H])(N([H])C([H])([H])[H])C([H])([H])[H])C(C([H])([H])[H])(C([H])([H])[H])C([H])([H])[H])C([H])([H])c2c([H])c(OC([H])([H])C(=O)c3c([H])c([H])c(C(=O)N([H])C(=O)N4C([H])([H])C([H])([H])C([H])([H])C([H])(n5nc(-c6c([H])c([H])c(Oc7c([H])c([H])c(F)c([H])c7F)c([H])c6[H])c(C(=O)N([H])[H])c5N([H])[H])C4([H])[H])c([H])c3OC([H])([H])[H])c([H])c([H])c2C1([H])[H]

>  <smiles>  (32) 
[H]c1c([H])c([H])c2c(c1[H])C([H])([H])C([H])([H])C([H])([H])C2([H])N([H])C(=O)C1([H])N(C(=O)C([H])(N([H])C(=O)C([H])(N([H])C([H])([H])[H])C([H])([H])[H])C(C([H])([H])[H])(C([H])([H])[H])C([H])([H])[H])C([H])([H])c2c([H])c(OC([H])([H])C(=O)c3c([H])c([H])c(C(=O)N([H])C(=O)N4C([H])([H])C([H])([H])C([H])([H])C([H])(n5nc(-c6c([H])c([H])c(Oc7c([H])c([H])c(F)c([H])c7F)c([H])c6[H])c(C(=O)N([H])[H])c5N([H])[H])C4([H])[H])c([H])c3OC([H])([H])[H])c([H])c([H])c2C1([H])[H]

$$$$
32:0:0
     RDKit          3D

 98107  0  0  1  0  0  0  0  0999 V2000
  -27.1720  -23.4880   20.1350 C   0  0  0  0  0  3  0  0  0  0  0  0
  -28.3820  -24.0380   20.6490 C   0  0  0  0  0  0  0  0  0  0  0  0
  -27.2940  -22.1250   20.0360 C   0  0  0  0  0  0  0  0  0  0  0  0
  -29.2050  -22.9080   20.7880 C   0  0  0  0  0  0  0  0  0  0  0  0
  -28.5660  -21.6870   20.4200 N   0  0  0  0  0  0  0  0  0  0  0  0
  -28.5400  -19.3950   19.3940 C   0  0  0  0  0  3  0  0  0  0  0  0
  -28.8940  -18.0210   19.3270 C   0  0  0  0  0  3  0  0  0  0  0  0
  -29.9130  -19.6450   21.3310 C   0  0  0  0  0  3  0  0  0  0  0  0
  -29.0270  -20.2730   20.3940 C   0  0  0  0  0  0  0  0  0  0  0  0
  -29.8150  -17.3900   20.2130 C   0  0  0  0  0  0  0  0  0  0  0  0
  -30.3080  -18.2540   21.2450 C   0  0  0  0  0  0  0  0  0  0  0  0
  -30.8780  -14.9990   20.6050 C   0  0  0  0  0  0  0  0  0  0  0  0
  -30.7520  -12.6610   19.7430 C   0  0  0  0  0  2  0  0  0  0  0  0
  -29.8670  -12.5810   18.4760 C   0  0  0  0  0  2  0  0  0  0  0  0
  -28.3720  -12.4840   18.8390 C   0  0  0  0  0  2  0  0  0  0  0  0
  -27.9340  -13.4480   19.9760 C   0  0  0  0  0  3  0  0  0  0  0  0
  -28.9390  -13.4560   21.1440 C   0  0  0  0  0  2  0  0  0  0  0  0
  -30.2510  -13.7750   20.5730 N   0  0  0  0  0  0  0  0  0  0  0  0
  -32.1120  -15.0460   20.6440 O   0  0  0  0  0  0  0  0  0  0  0  0
  -30.5540  -15.8920   18.4310 C   0  0  0  0  0  1  0  0  0  0  0  0
  -30.2460  -16.0020   19.8740 N   0  0  0  0  0  0  0  0  0  0  0  0
  -25.5200  -14.0430   20.6120 C   0  0  0  0  0  0  0  0  0  0  0  0
  -24.4360  -13.2690   20.9270 C   0  0  0  0  0  0  0  0  0  0  0  0
  -24.9000  -11.9180   20.9180 C   0  0  0  0  0  0  0  0  0  0  0  0
  -26.5730  -13.1650   20.4210 N   0  0  0  0  0  0  0  0  0  0  0  0
  -26.2050  -11.8810   20.6760 N   0  0  0  0  0  0  0  0  0  0  0  0
  -24.1660  -10.6550   21.0680 C   0  0  0  0  0  0  0  0  0  0  0  0
  -24.5460   -9.6880   22.0240 C   0  0  0  0  0  3  0  0  0  0  0  0
  -23.8120   -8.4900   22.1630 C   0  0  0  0  0  3  0  0  0  0  0  0
  -22.6850   -8.2490   21.3410 C   0  0  0  0  0  0  0  0  0  0  0  0
  -22.3250   -9.2040   20.3740 C   0  0  0  0  0  3  0  0  0  0  0  0
  -23.0600  -10.3930   20.2350 C   0  0  0  0  0  3  0  0  0  0  0  0
  -21.9270   -7.1040   21.3880 O   0  0  0  0  0  0  0  0  0  0  0  0
  -21.7850   -6.3820   22.5460 C   0  0  0  0  0  0  0  0  0  0  0  0
  -21.1940   -6.9350   23.7020 C   0  0  0  0  0  3  0  0  0  0  0  0
  -21.0050   -6.1360   24.8470 C   0  0  0  0  0  3  0  0  0  0  0  0
  -21.3970   -4.7840   24.8360 C   0  0  0  0  0  0  0  0  0  0  0  0
  -21.9810   -4.2300   23.6830 C   0  0  0  0  0  3  0  0  0  0  0  0
  -22.1720   -5.0250   22.5410 C   0  0  0  0  0  0  0  0  0  0  0  0
  -22.7160   -4.4810   21.4260 F   0  0  0  0  0  0  0  0  0  0  0  0
  -21.2080   -4.0140   25.9330 F   0  0  0  0  0  0  0  0  0  0  0  0
  -23.0270  -13.7450   21.1280 C   0  0  0  0  0  0  0  0  0  0  0  0
  -22.2650  -13.0610   21.9730 N   0  0  0  0  0  0  0  0  0  0  0  0
  -22.6100  -14.7590   20.5710 O   0  0  0  0  0  0  0  0  0  0  0  0
  -22.6150  -12.2410   22.4470 H   0  0  0  0  0  0  0  0  0  0  0  0
  -21.3160  -13.3630   22.1520 H   0  0  0  0  0  0  0  0  0  0  0  0
  -25.6950  -15.4140   20.4460 N   0  0  0  0  0  0  0  0  0  0  0  0
  -24.9290  -16.0740   20.5310 H   0  0  0  0  0  0  0  0  0  0  0  0
  -26.5700  -15.8540   20.1890 H   0  0  0  0  0  0  0  0  0  0  0  0
  -31.2340  -17.7660   22.1660 N   0  0  0  0  0  0  0  0  0  0  0  0
  -31.7370  -18.4490   22.7240 H   0  0  0  0  0  0  0  0  0  0  0  0
  -31.8520  -17.0260   21.8440 H   0  0  0  0  0  0  0  0  0  0  0  0
  -26.3260  -21.2450   19.6540 O   0  0  0  0  0  0  0  0  0  0  0  0
  -25.5370  -21.7430   19.4680 H   0  0  0  0  0  0  0  0  0  0  0  0
  -30.4860  -22.8800   21.2480 O   0  0  0  0  0  0  0  0  0  0  0  0
  -30.8310  -22.0050   21.1040 H   0  0  0  0  0  0  0  0  0  0  0  0
  -28.5790  -25.5430   21.1040 C   0  0  0  0  0  2  0  0  0  0  0  0
  -28.4240  -26.6960   20.1860 O   0  0  0  0  0  0  0  0  0  0  0  0
  -24.5610  -32.0010   23.3000 C   0  0  0  0  0  0  0  0  0  0  0  0
  -27.2840  -27.5080   20.2510 C   0  0  0  0  0  0  0  0  0  0  0  0
  -23.3980  -30.5920   21.6370 C   0  0  0  0  0  3  0  0  0  0  0  0
  -24.8910  -29.0710   20.2210 C   0  0  0  0  0  0  0  0  0  0  0  0
  -25.9310  -30.9600   21.4780 C   0  0  0  0  0  2  0  0  0  0  0  0
  -26.0440  -29.5820   20.8330 C   0  0  0  0  0  0  0  0  0  0  0  0
  -27.2470  -28.8120   20.8370 C   0  0  0  0  0  3  0  0  0  0  0  0
  -26.1130  -27.0470   19.6180 C   0  0  0  0  0  3  0  0  0  0  0  0
  -24.9270  -27.8090   19.6060 C   0  0  0  0  0  3  0  0  0  0  0  0
  -23.6380  -29.9260   20.2560 C   0  0  0  0  0  2  0  0  0  0  0  0
  -24.6480  -31.2030   22.1960 N   0  0  0  0  0  0  0  0  0  0  0  0
  -23.4680  -32.2540   23.8270 O   0  0  0  0  0  0  0  0  0  0  0  0
  -22.7460  -29.5580   22.5860 C   0  0  0  0  0  0  0  0  0  0  0  0
  -21.4280  -29.3420   22.4310 N   0  0  0  0  0  0  0  0  0  0  0  0
  -23.4250  -28.9510   23.4180 O   0  0  0  0  0  0  0  0  0  0  0  0
  -20.9390  -29.8830   21.7330 H   0  0  0  0  0  0  0  0  0  0  0  0
  -18.0760  -28.0560   22.8710 C   0  0  0  0  0  0  0  0  0  0  0  0
  -20.6220  -28.3800   23.1840 C   0  0  0  0  0  3  0  0  0  0  0  0
  -20.7710  -26.9540   22.6050 C   0  0  0  0  0  2  0  0  0  0  0  0
  -19.6940  -26.6080   21.5710 C   0  0  0  0  0  2  0  0  0  0  0  0
  -18.2980  -26.7140   22.1920 C   0  0  0  0  0  2  0  0  0  0  0  0
  -19.1670  -28.8450   23.3220 C   0  0  0  0  0  0  0  0  0  0  0  0
  -18.9050  -30.0990   23.9150 C   0  0  0  0  0  3  0  0  0  0  0  0
  -17.5850  -30.5660   24.0610 C   0  0  0  0  0  3  0  0  0  0  0  0
  -16.5080  -29.7740   23.6260 C   0  0  0  0  0  3  0  0  0  0  0  0
  -16.7540  -28.5210   23.0360 C   0  0  0  0  0  3  0  0  0  0  0  0
  -25.8260  -32.6520   23.9390 C   0  0  0  0  0  3  0  0  0  0  0  0
  -25.5070  -34.0590   24.2220 N   0  0  0  0  0  0  0  0  0  0  0  0
  -25.8700  -35.0930   23.4500 C   0  0  0  0  0  0  0  0  0  0  0  0
  -26.5760  -34.9620   22.4470 O   0  0  0  0  0  0  0  0  0  0  0  0
  -24.8840  -34.2340   24.9970 H   0  0  0  0  0  0  0  0  0  0  0  0
  -24.1790  -36.8920   22.9710 C   0  0  0  0  0  1  0  0  0  0  0  0
  -25.3700  -36.4930   23.8560 C   0  0  0  0  0  3  0  0  0  0  0  0
  -27.4570  -37.3840   24.7950 C   0  0  0  0  0  1  0  0  0  0  0  0
  -26.4160  -37.5350   23.7810 N   0  0  0  0  0  0  0  0  0  0  0  0
  -26.0100  -38.4620   23.8790 H   0  0  0  0  0  0  0  0  0  0  0  0
  -26.3070  -31.9170   25.2500 C   0  0  1  0  0  0  0  0  0  0  0  0
  -25.1830  -31.6940   26.2870 C   0  0  0  0  0  1  0  0  0  0  0  0
  -26.9170  -30.5360   24.9120 C   0  0  0  0  0  1  0  0  0  0  0  0
  -27.4280  -32.7390   25.9300 C   0  0  0  0  0  1  0  0  0  0  0  0
  1  2  1  0
  2  4  2  0
  2 57  1  0
  3  1  2  0
  3  5  1  0
  4 55  1  0
  5  4  1  0
  6  9  1  0
  7  6  2  0
  7 10  1  0
  9  5  1  0
  9  8  2  0
 10 11  2  0
 11  8  1  0
 11 50  1  0
 12 19  2  0
 13 18  1  0
 14 15  1  0
 14 13  1  0
 16 15  1  0
 16 25  1  0
 16 17  1  0
 18 12  1  0
 18 17  1  0
 20 21  1  0
 21 10  1  0
 21 12  1  0
 22 23  2  0
 23 42  1  0
 24 23  1  0
 24 27  1  0
 25 22  1  0
 25 26  1  0
 26 24  2  0
 27 28  1  0
 28 29  2  0
 30 33  1  0
 30 29  1  0
 31 30  2  0
 32 31  1  0
 32 27  2  0
 33 34  1  0
 34 35  1  0
 35 36  2  0
 37 36  1  0
 37 41  1  0
 38 37  2  0
 39 34  2  0
 39 38  1  0
 40 39  1  0
 42 43  1  0
 43 46  1  0
 43 45  1  0
 44 42  2  0
 47 48  1  0
 47 22  1  0
 49 47  1  0
 50 51  1  0
 52 50  1  0
 53  3  1  0
 54 53  1  0
 56 55  1  0
 58 60  1  0
 58 57  1  0
 59 70  2  0
 60 65  1  0
 61 69  1  0
 61 71  1  0
 62 68  1  0
 62 64  1  0
 63 69  1  0
 64 65  2  0
 64 63  1  0
 66 60  2  0
 67 66  1  0
 67 62  2  0
 68 61  1  0
 69 59  1  0
 71 73  2  0
 72 71  1  0
 74 72  1  0
 75 84  2  0
 75 80  1  0
 76 72  1  0
 76 80  1  0
 77 76  1  0
 78 79  1  0
 78 77  1  0
 79 75  1  0
 80 81  2  0
 81 82  1  0
 83 82  2  0
 84 83  1  0
 85 59  1  0
 85 86  1  0
 85 95  1  0
 86 89  1  0
 87 91  1  0
 87 86  1  0
 88 87  2  0
 91 90  1  0
 93 91  1  0
 93 94  1  0
 93 92  1  0
 95 98  1  1
 95 96  1  0
 97 95  1  0
M  ISO  4  12 100  21 100  57 101  58 101
M  END
>  <TORSDO>  (33) 
F 21

>  <SCORE>  (33) 
-13.553

>  <name>  (33) 
32

>  <ligand_id>  (33) 
32

>  <original_smiles>  (33) 
[H]Oc1c([H])c(C([H])([H])Oc2c([H])c([H])c3c(c2[H])C([H])([H])N(C(=O)C([H])(N([H])C(=O)C([H])(N([H])C([H])([H])[H])C([H])([H])[H])C(C([H])([H])[H])(C([H])([H])[H])C([H])([H])[H])C([H])(C(=O)N([H])C2([H])c4c([H])c([H])c([H])c([H])c4C([H])([H])C([H])([H])C2([H])[H])C3([H])[H])c(O[H])n1-c1c([H])c([H])c(N(C(=O)N2C([H])([H])C([H])([H])C([H])([H])C([H])(n3nc(-c4c([H])c([H])c(Oc5c([H])c([H])c(F)c([H])c5F)c([H])c4[H])c(C(=O)N([H])[H])c3N([H])[H])C2([H])[H])C([H])([H])[H])c(N([H])[H])c1[H]

>  <smiles>  (33) 
[H]Oc1c([H])c(C([H])([H])Oc2c([H])c([H])c3c(c2[H])C([H])([H])N(C(=O)C([H])(N([H])C(=O)C([H])(N([H])C([H])([H])[H])C([H])([H])[H])C(C([H])([H])[H])(C([H])([H])[H])C([H])([H])[H])C([H])(C(=O)N([H])C2([H])c4c([H])c([H])c([H])c([H])c4C([H])([H])C([H])([H])C2([H])[H])C3([H])[H])c(O[H])n1-c1c([H])c([H])c(N(C(=O)N2C([H])([H])C([H])([H])C([H])([H])C([H])(n3nc(-c4c([H])c([H])c(Oc5c([H])c([H])c(F)c([H])c5F)c([H])c4[H])c(C(=O)N([H])[H])c3N([H])[H])C2([H])[H])C([H])([H])[H])c(N([H])[H])c1[H]

$$$$
33:0:0
     RDKit          3D

 98107  0  0  1  0  0  0  0  0999 V2000
  -30.5280  -20.2140   19.3730 C   0  0  0  0  0  3  0  0  0  0  0  0
  -28.5530  -20.5320   20.7490 C   0  0  0  0  0  3  0  0  0  0  0  0
  -30.0700  -21.1960   18.4820 C   0  0  0  0  0  3  0  0  0  0  0  0
  -28.1000  -21.5380   19.8690 C   0  0  0  0  0  3  0  0  0  0  0  0
  -29.7380  -19.8140   20.4690 C   0  0  0  0  0  0  0  0  0  0  0  0
  -28.8300  -21.8200   18.6890 C   0  0  0  0  0  0  0  0  0  0  0  0
  -31.3800  -18.0530   21.2270 C   0  0  0  0  0  3  0  0  0  0  0  0
  -31.6290  -16.6780   21.3880 C   0  0  0  0  0  3  0  0  0  0  0  0
  -28.9820  -17.6500   21.3720 C   0  0  0  0  0  3  0  0  0  0  0  0
  -30.0520  -18.5280   21.1080 C   0  0  0  0  0  0  0  0  0  0  0  0
  -30.5320  -15.7940   21.4080 C   0  0  0  0  0  0  0  0  0  0  0  0
  -29.2180  -16.2800   21.5200 C   0  0  0  0  0  0  0  0  0  0  0  0
  -28.1740  -15.4260   21.6150 F   0  0  0  0  0  0  0  0  0  0  0  0
  -30.6570  -14.0720   19.8220 C   0  0  0  0  0  0  0  0  0  0  0  0
  -30.0080  -12.1990   18.3630 C   0  0  0  0  0  2  0  0  0  0  0  0
  -28.8910  -12.5570   17.3690 C   0  0  0  0  0  2  0  0  0  0  0  0
  -27.5030  -12.3790   18.0100 C   0  0  0  0  0  2  0  0  0  0  0  0
  -27.3930  -13.1070   19.3730 C   0  0  0  0  0  3  0  0  0  0  0  0
  -28.5890  -12.7170   20.2740 C   0  0  0  0  0  2  0  0  0  0  0  0
  -29.8540  -13.0120   19.5740 N   0  0  0  0  0  0  0  0  0  0  0  0
  -31.4370  -14.5550   18.9900 O   0  0  0  0  0  0  0  0  0  0  0  0
  -30.6930  -14.4340   21.1090 N   0  0  0  0  0  0  0  0  0  0  0  0
  -30.1560  -13.8080   21.6900 H   0  0  0  0  0  0  0  0  0  0  0  0
  -25.1110  -13.6830   20.4330 C   0  0  0  0  0  0  0  0  0  0  0  0
  -24.0990  -12.8900   20.9030 C   0  0  0  0  0  0  0  0  0  0  0  0
  -24.5410  -11.5410   20.7370 C   0  0  0  0  0  0  0  0  0  0  0  0
  -26.1130  -12.8170   20.0210 N   0  0  0  0  0  0  0  0  0  0  0  0
  -25.7780  -11.5200   20.2540 N   0  0  0  0  0  0  0  0  0  0  0  0
  -23.8410  -10.2700   20.9570 C   0  0  0  0  0  0  0  0  0  0  0  0
  -24.3530   -9.2840   21.8270 C   0  0  0  0  0  3  0  0  0  0  0  0
  -23.6510   -8.0750   22.0310 C   0  0  0  0  0  3  0  0  0  0  0  0
  -22.4250   -7.8450   21.3640 C   0  0  0  0  0  0  0  0  0  0  0  0
  -21.9310   -8.8200   20.4790 C   0  0  0  0  0  3  0  0  0  0  0  0
  -22.6330  -10.0200   20.2730 C   0  0  0  0  0  3  0  0  0  0  0  0
  -21.6870   -6.6930   21.4860 O   0  0  0  0  0  0  0  0  0  0  0  0
  -21.6850   -5.9570   22.6420 C   0  0  0  0  0  0  0  0  0  0  0  0
  -21.2980   -6.5160   23.8800 C   0  0  0  0  0  3  0  0  0  0  0  0
  -21.2390   -5.7060   25.0300 C   0  0  0  0  0  3  0  0  0  0  0  0
  -21.5660   -4.3380   24.9470 C   0  0  0  0  0  0  0  0  0  0  0  0
  -21.9520   -3.7790   23.7150 C   0  0  0  0  0  3  0  0  0  0  0  0
  -22.0070   -4.5860   22.5660 C   0  0  0  0  0  0  0  0  0  0  0  0
  -22.3600   -4.0400   21.3770 F   0  0  0  0  0  0  0  0  0  0  0  0
  -21.5040   -3.5560   26.0500 F   0  0  0  0  0  0  0  0  0  0  0  0
  -22.7590  -13.3460   21.4050 C   0  0  0  0  0  0  0  0  0  0  0  0
  -22.1660  -12.6050   22.3340 N   0  0  0  0  0  0  0  0  0  0  0  0
  -22.2510  -14.3920   21.0030 O   0  0  0  0  0  0  0  0  0  0  0  0
  -22.5870  -11.7520   22.6720 H   0  0  0  0  0  0  0  0  0  0  0  0
  -21.2720  -12.8920   22.7080 H   0  0  0  0  0  0  0  0  0  0  0  0
  -25.2640  -15.0590   20.3100 N   0  0  0  0  0  0  0  0  0  0  0  0
  -24.5420  -15.7230   20.5700 H   0  0  0  0  0  0  0  0  0  0  0  0
  -26.1100  -15.4970   19.9720 H   0  0  0  0  0  0  0  0  0  0  0  0
  -28.3430  -22.6290   17.6580 N   0  0  0  0  0  0  0  0  0  0  0  0
  -28.9380  -22.7090   16.8380 H   0  0  0  0  0  0  0  0  0  0  0  0
  -27.6020  -23.8450   17.9610 C   0  0  0  0  0  2  0  0  0  0  0  0
  -28.5300  -25.0450   18.1620 C   0  0  0  0  0  0  0  0  0  0  0  0
  -29.0270  -25.6300   17.1950 O   0  0  0  0  0  0  0  0  0  0  0  0
  -28.8290  -25.4510   19.6120 C   0  0  0  0  0  2  0  0  0  0  0  0
  -28.7750  -26.8660   19.8310 O   0  0  0  0  0  0  0  0  0  0  0  0
  -24.7940  -31.7360   23.1840 C   0  0  0  0  0  0  0  0  0  0  0  0
  -27.5440  -27.4850   19.9250 C   0  0  0  0  0  0  0  0  0  0  0  0
  -23.6170  -30.3420   21.5220 C   0  0  0  0  0  3  0  0  0  0  0  0
  -25.0960  -28.8980   20.0490 C   0  0  0  0  0  0  0  0  0  0  0  0
  -26.1320  -30.7920   21.3030 C   0  0  0  0  0  2  0  0  0  0  0  0
  -26.2510  -29.4510   20.6090 C   0  0  0  0  0  0  0  0  0  0  0  0
  -27.4800  -28.7590   20.5330 C   0  0  0  0  0  3  0  0  0  0  0  0
  -26.3480  -26.9250   19.4150 C   0  0  0  0  0  3  0  0  0  0  0  0
  -25.1350  -27.6310   19.4550 C   0  0  0  0  0  3  0  0  0  0  0  0
  -23.8280  -29.7140   20.1230 C   0  0  0  0  0  2  0  0  0  0  0  0
  -24.8670  -30.9700   22.0600 N   0  0  0  0  0  0  0  0  0  0  0  0
  -23.7080  -31.9550   23.7400 O   0  0  0  0  0  0  0  0  0  0  0  0
  -23.0160  -29.2660   22.4540 C   0  0  0  0  0  0  0  0  0  0  0  0
  -21.7110  -28.9980   22.2910 N   0  0  0  0  0  0  0  0  0  0  0  0
  -23.7200  -28.6750   23.2770 O   0  0  0  0  0  0  0  0  0  0  0  0
  -21.2030  -29.5240   21.5940 H   0  0  0  0  0  0  0  0  0  0  0  0
  -18.4160  -27.5640   22.6720 C   0  0  0  0  0  0  0  0  0  0  0  0
  -20.9370  -28.0040   23.0350 C   0  0  0  0  0  3  0  0  0  0  0  0
  -21.1660  -26.5850   22.4660 C   0  0  0  0  0  2  0  0  0  0  0  0
  -20.1260  -26.1830   21.4160 C   0  0  0  0  0  2  0  0  0  0  0  0
  -18.7150  -26.2290   22.0090 C   0  0  0  0  0  2  0  0  0  0  0  0
  -19.4610  -28.4050   23.1390 C   0  0  0  0  0  0  0  0  0  0  0  0
  -19.1300  -29.6510   23.7160 C   0  0  0  0  0  3  0  0  0  0  0  0
  -17.7870  -30.0560   23.8330 C   0  0  0  0  0  3  0  0  0  0  0  0
  -16.7580  -29.2110   23.3830 C   0  0  0  0  0  3  0  0  0  0  0  0
  -17.0720  -27.9680   22.8080 C   0  0  0  0  0  3  0  0  0  0  0  0
  -26.0620  -32.3930   23.8080 C   0  0  0  0  0  3  0  0  0  0  0  0
  -25.7060  -33.7660   24.1890 N   0  0  0  0  0  0  0  0  0  0  0  0
  -25.9820  -34.8520   23.4540 C   0  0  0  0  0  0  0  0  0  0  0  0
  -26.6350  -34.8060   22.4080 O   0  0  0  0  0  0  0  0  0  0  0  0
  -25.1240  -33.8740   25.0070 H   0  0  0  0  0  0  0  0  0  0  0  0
  -24.1740  -36.5770   23.1840 C   0  0  0  0  0  1  0  0  0  0  0  0
  -25.4460  -36.2040   23.9620 C   0  0  0  0  0  3  0  0  0  0  0  0
  -27.5610  -37.1450   24.7780 C   0  0  0  0  0  1  0  0  0  0  0  0
  -26.4320  -37.3020   23.8650 N   0  0  0  0  0  0  0  0  0  0  0  0
  -25.9930  -38.1970   24.0580 H   0  0  0  0  0  0  0  0  0  0  0  0
  -26.6290  -31.5990   25.0490 C   0  0  1  0  0  0  0  0  0  0  0  0
  -25.5570  -31.2520   26.1090 C   0  0  0  0  0  1  0  0  0  0  0  0
  -27.2830  -30.2740   24.5950 C   0  0  0  0  0  1  0  0  0  0  0  0
  -27.7410  -32.4270   25.7380 C   0  0  0  0  0  1  0  0  0  0  0  0
  1  5  1  0
  3  6  1  0
  3  1  2  0
  4  2  1  0
  5  2  2  0
  5 10  1  0
  6  4  2  0
  7  8  1  0
  8 11  2  0
  9 12  2  0
 10  7  2  0
 10  9  1  0
 11 12  1  0
 12 13  1  0
 14 22  1  0
 15 20  1  0
 16 17  1  0
 16 15  1  0
 18 17  1  0
 18 27  1  0
 18 19  1  0
 20 14  1  0
 20 19  1  0
 21 14  2  0
 22 11  1  0
 22 23  1  0
 24 25  2  0
 25 44  1  0
 26 25  1  0
 26 29  1  0
 27 28  1  0
 27 24  1  0
 28 26  2  0
 29 30  1  0
 30 31  2  0
 32 35  1  0
 32 31  1  0
 33 32  2  0
 34 33  1  0
 34 29  2  0
 35 36  1  0
 36 37  1  0
 37 38  2  0
 39 38  1  0
 39 43  1  0
 40 39  2  0
 41 36  2  0
 41 40  1  0
 42 41  1  0
 44 45  1  0
 45 47  1  0
 45 48  1  0
 46 44  2  0
 49 24  1  0
 49 50  1  0
 51 49  1  0
 52 54  1  0
 52  6  1  0
 53 52  1  0
 54 55  1  0
 55 57  1  0
 56 55  2  0
 57 58  1  0
 58 60  1  0
 59 70  2  0
 60 65  1  0
 61 69  1  0
 61 71  1  0
 62 68  1  0
 62 64  1  0
 63 69  1  0
 64 63  1  0
 65 64  2  0
 66 67  1  0
 66 60  2  0
 67 62  2  0
 68 61  1  0
 69 59  1  0
 71 73  2  0
 72 71  1  0
 74 72  1  0
 75 84  2  0
 75 80  1  0
 76 72  1  0
 76 80  1  0
 77 76  1  0
 78 79  1  0
 78 77  1  0
 79 75  1  0
 80 81  2  0
 81 82  1  0
 83 82  2  0
 84 83  1  0
 85 59  1  0
 85 86  1  0
 85 95  1  0
 86 89  1  0
 87 91  1  0
 87 86  1  0
 88 87  2  0
 91 90  1  0
 93 91  1  0
 93 94  1  0
 93 92  1  0
 95 98  1  1
 95 96  1  0
 97 95  1  0
M  ISO  4  14 100  22 100  57 101  58 101
M  END
>  <TORSDO>  (34) 
F 21

>  <SCORE>  (34) 
-11.330

>  <name>  (34) 
33

>  <ligand_id>  (34) 
33

>  <original_smiles>  (34) 
[H]c1c([H])c([H])c2c(c1[H])C([H])([H])C([H])([H])C([H])([H])C2([H])N([H])C(=O)C1([H])N(C(=O)C([H])(N([H])C(=O)C([H])(N([H])C([H])([H])[H])C([H])([H])[H])C(C([H])([H])[H])(C([H])([H])[H])C([H])([H])[H])C([H])([H])c2c([H])c(OC([H])([H])C(=O)C([H])([H])N([H])c3c([H])c([H])c(-c4c([H])c([H])c(N([H])C(=O)N5C([H])([H])C([H])([H])C([H])([H])C([H])(n6nc(-c7c([H])c([H])c(Oc8c([H])c([H])c(F)c([H])c8F)c([H])c7[H])c(C(=O)N([H])[H])c6N([H])[H])C5([H])[H])c(F)c4[H])c([H])c3[H])c([H])c([H])c2C1([H])[H]

>  <smiles>  (34) 
[H]c1c([H])c([H])c2c(c1[H])C([H])([H])C([H])([H])C([H])([H])C2([H])N([H])C(=O)C1([H])N(C(=O)C([H])(N([H])C(=O)C([H])(N([H])C([H])([H])[H])C([H])([H])[H])C(C([H])([H])[H])(C([H])([H])[H])C([H])([H])[H])C([H])([H])c2c([H])c(OC([H])([H])C(=O)C([H])([H])N([H])c3c([H])c([H])c(-c4c([H])c([H])c(N([H])C(=O)N5C([H])([H])C([H])([H])C([H])([H])C([H])(n6nc(-c7c([H])c([H])c(Oc8c([H])c([H])c(F)c([H])c8F)c([H])c7[H])c(C(=O)N([H])[H])c6N([H])[H])C5([H])[H])c(F)c4[H])c([H])c3[H])c([H])c([H])c2C1([H])[H]

$$$$
34:0:0
     RDKit          3D

 93102  0  0  1  0  0  0  0  0999 V2000
  -28.4350  -22.1530   21.8720 C   0  0  0  0  0  0  0  0  0  0  0  0
  -27.3650  -23.1780   22.2140 C   0  0  0  0  0  2  0  0  0  0  0  0
  -26.7640  -23.4890   20.8510 C   0  0  0  0  0  2  0  0  0  0  0  0
  -27.9690  -23.3190   19.9080 C   0  0  0  0  0  3  0  0  0  0  0  0
  -28.7860  -22.1290   20.5600 N   0  0  0  0  0  0  0  0  0  0  0  0
  -28.8830  -21.4160   22.7530 O   0  0  0  0  0  0  0  0  0  0  0  0
  -28.2530  -19.6190   19.9480 C   0  0  0  0  0  3  0  0  0  0  0  0
  -28.6100  -18.2100   19.9530 C   0  0  0  0  0  3  0  0  0  0  0  0
  -30.8950  -18.7770   20.1490 C   0  0  0  0  0  3  0  0  0  0  0  0
  -29.1880  -20.7040   20.1130 C   0  0  0  0  0  0  0  0  0  0  0  0
  -29.9420  -17.6920   20.0970 C   0  0  0  0  0  0  0  0  0  0  0  0
  -30.5410  -20.1940   20.1720 C   0  0  0  0  0  0  0  0  0  0  0  0
  -31.5510  -21.0820   20.3470 F   0  0  0  0  0  0  0  0  0  0  0  0
  -30.8440  -15.1100   19.9290 C   0  0  0  0  0  0  0  0  0  0  0  0
  -30.6440  -12.7730   18.9680 C   0  0  0  0  0  2  0  0  0  0  0  0
  -29.6730  -12.7460   17.7710 C   0  0  0  0  0  2  0  0  0  0  0  0
  -28.2260  -12.5410   18.2600 C   0  0  0  0  0  2  0  0  0  0  0  0
  -27.8640  -13.4720   19.4520 C   0  0  0  0  0  3  0  0  0  0  0  0
  -28.9590  -13.4630   20.5430 C   0  0  0  0  0  2  0  0  0  0  0  0
  -30.2210  -13.8590   19.8970 N   0  0  0  0  0  0  0  0  0  0  0  0
  -31.9780  -15.1950   19.4500 O   0  0  0  0  0  0  0  0  0  0  0  0
  -30.4020  -16.1990   21.9760 C   0  0  0  0  0  1  0  0  0  0  0  0
  -30.2110  -16.2420   20.5260 N   0  0  0  0  0  0  0  0  0  0  0  0
  -25.5320  -14.0690   20.3250 C   0  0  0  0  0  0  0  0  0  0  0  0
  -24.4750  -13.3040   20.7330 C   0  0  0  0  0  0  0  0  0  0  0  0
  -24.9180  -11.9470   20.6590 C   0  0  0  0  0  0  0  0  0  0  0  0
  -26.5450  -13.1820   20.0090 N   0  0  0  0  0  0  0  0  0  0  0  0
  -26.1920  -11.8990   20.2790 N   0  0  0  0  0  0  0  0  0  0  0  0
  -24.1880  -10.6900   20.8650 C   0  0  0  0  0  0  0  0  0  0  0  0
  -24.6000   -9.7450   21.8300 C   0  0  0  0  0  3  0  0  0  0  0  0
  -23.8720   -8.5490   22.0130 C   0  0  0  0  0  3  0  0  0  0  0  0
  -22.7160   -8.2940   21.2390 C   0  0  0  0  0  0  0  0  0  0  0  0
  -22.3290   -9.2290   20.2650 C   0  0  0  0  0  3  0  0  0  0  0  0
  -23.0560  -10.4150   20.0760 C   0  0  0  0  0  3  0  0  0  0  0  0
  -21.9580   -7.1540   21.3380 O   0  0  0  0  0  0  0  0  0  0  0  0
  -21.8030   -6.4930   22.5330 C   0  0  0  0  0  0  0  0  0  0  0  0
  -21.2580   -7.1250   23.6680 C   0  0  0  0  0  3  0  0  0  0  0  0
  -21.0490   -6.3890   24.8530 C   0  0  0  0  0  3  0  0  0  0  0  0
  -21.3770   -5.0190   24.9020 C   0  0  0  0  0  0  0  0  0  0  0  0
  -21.9190   -4.3880   23.7660 C   0  0  0  0  0  3  0  0  0  0  0  0
  -22.1260   -5.1230   22.5860 C   0  0  0  0  0  0  0  0  0  0  0  0
  -22.6230   -4.5000   21.4890 F   0  0  0  0  0  0  0  0  0  0  0  0
  -21.1760   -4.3120   26.0360 F   0  0  0  0  0  0  0  0  0  0  0  0
  -23.0990  -13.7920   21.0810 C   0  0  0  0  0  0  0  0  0  0  0  0
  -22.4060  -13.0950   21.9750 N   0  0  0  0  0  0  0  0  0  0  0  0
  -22.6440  -14.8250   20.5900 O   0  0  0  0  0  0  0  0  0  0  0  0
  -22.7800  -12.2580   22.3990 H   0  0  0  0  0  0  0  0  0  0  0  0
  -21.4820  -13.4110   22.2440 H   0  0  0  0  0  0  0  0  0  0  0  0
  -25.7130  -15.4400   20.1700 N   0  0  0  0  0  0  0  0  0  0  0  0
  -24.9980  -16.1310   20.3550 H   0  0  0  0  0  0  0  0  0  0  0  0
  -26.5840  -15.8410   19.8520 H   0  0  0  0  0  0  0  0  0  0  0  0
  -28.5370  -24.8780   19.5480 C   0  0  0  0  0  2  0  0  0  0  0  0
  -28.3590  -26.3130   20.1430 O   0  0  0  0  0  0  0  0  0  0  0  0
  -24.6200  -31.8470   23.1530 C   0  0  0  0  0  0  0  0  0  0  0  0
  -27.2820  -27.2610   20.0000 C   0  0  0  0  0  0  0  0  0  0  0  0
  -23.4470  -30.4580   21.4850 C   0  0  0  0  0  3  0  0  0  0  0  0
  -24.9210  -28.9560   20.0000 C   0  0  0  0  0  0  0  0  0  0  0  0
  -25.9910  -30.7950   21.3100 C   0  0  0  0  0  2  0  0  0  0  0  0
  -26.0900  -29.4260   20.6110 C   0  0  0  0  0  0  0  0  0  0  0  0
  -27.2680  -28.5890   20.5970 C   0  0  0  0  0  3  0  0  0  0  0  0
  -26.0950  -26.8930   19.3390 C   0  0  0  0  0  3  0  0  0  0  0  0
  -24.9390  -27.7070   19.3500 C   0  0  0  0  0  3  0  0  0  0  0  0
  -23.6690  -29.8200   20.0840 C   0  0  0  0  0  2  0  0  0  0  0  0
  -24.7030  -31.0580   22.0330 N   0  0  0  0  0  0  0  0  0  0  0  0
  -23.5300  -32.0860   23.6950 O   0  0  0  0  0  0  0  0  0  0  0  0
  -22.8080  -29.4050   22.4230 C   0  0  0  0  0  0  0  0  0  0  0  0
  -21.4910  -29.1770   22.2770 N   0  0  0  0  0  0  0  0  0  0  0  0
  -23.5000  -28.7960   23.2430 O   0  0  0  0  0  0  0  0  0  0  0  0
  -20.9890  -29.7380   21.6040 H   0  0  0  0  0  0  0  0  0  0  0  0
  -18.1640  -27.8060   22.7170 C   0  0  0  0  0  0  0  0  0  0  0  0
  -20.7040  -28.1910   23.0250 C   0  0  0  0  0  3  0  0  0  0  0  0
  -20.8750  -26.7730   22.4330 C   0  0  0  0  0  2  0  0  0  0  0  0
  -19.8060  -26.4020   21.4030 C   0  0  0  0  0  2  0  0  0  0  0  0
  -18.4130  -26.4710   22.0340 C   0  0  0  0  0  2  0  0  0  0  0  0
  -19.2400  -28.6210   23.1650 C   0  0  0  0  0  0  0  0  0  0  0  0
  -18.9530  -29.8600   23.7690 C   0  0  0  0  0  3  0  0  0  0  0  0
  -17.6240  -30.3000   23.9190 C   0  0  0  0  0  3  0  0  0  0  0  0
  -16.5620  -29.4860   23.4860 C   0  0  0  0  0  3  0  0  0  0  0  0
  -16.8350  -28.2360   22.9010 C   0  0  0  0  0  3  0  0  0  0  0  0
  -25.8800  -32.5090   23.7910 C   0  0  0  0  0  3  0  0  0  0  0  0
  -25.5420  -33.9030   24.1380 N   0  0  0  0  0  0  0  0  0  0  0  0
  -25.8560  -34.9710   23.3930 C   0  0  0  0  0  0  0  0  0  0  0  0
  -26.5360  -34.8910   22.3680 O   0  0  0  0  0  0  0  0  0  0  0  0
  -24.9660  -34.0450   24.9560 H   0  0  0  0  0  0  0  0  0  0  0  0
  -24.1070  -36.7320   23.0380 C   0  0  0  0  0  1  0  0  0  0  0  0
  -25.3470  -36.3510   23.8650 C   0  0  0  0  0  3  0  0  0  0  0  0
  -27.4600  -37.2490   24.7270 C   0  0  0  0  0  1  0  0  0  0  0  0
  -26.3650  -37.4230   23.7740 N   0  0  0  0  0  0  0  0  0  0  0  0
  -25.9470  -38.3360   23.9350 H   0  0  0  0  0  0  0  0  0  0  0  0
  -26.4020  -31.7450   25.0700 C   0  0  1  0  0  0  0  0  0  0  0  0
  -25.3060  -31.4690   26.1300 C   0  0  0  0  0  1  0  0  0  0  0  0
  -27.0240  -30.3890   24.6780 C   0  0  0  0  0  1  0  0  0  0  0  0
  -27.5340  -32.5660   25.7340 C   0  0  0  0  0  1  0  0  0  0  0  0
  1  2  1  0
  1  6  2  0
  3  2  1  0
  4 52  1  0
  4  5  1  0
  4  3  1  0
  5  1  1  0
  7  8  2  0
  7 10  1  0
  8 11  1  0
  9 12  1  0
 10 12  2  0
 10  5  1  0
 11  9  2  0
 11 23  1  0
 12 13  1  0
 14 23  1  0
 15 20  1  0
 16 17  1  0
 16 15  1  0
 18 17  1  0
 18 27  1  0
 18 19  1  0
 20 14  1  0
 20 19  1  0
 21 14  2  0
 23 22  1  0
 24 25  2  0
 25 44  1  0
 26 25  1  0
 26 29  1  0
 27 28  1  0
 27 24  1  0
 28 26  2  0
 29 30  1  0
 30 31  2  0
 32 35  1  0
 32 31  1  0
 33 32  2  0
 34 33  1  0
 34 29  2  0
 35 36  1  0
 36 41  2  0
 36 37  1  0
 37 38  2  0
 38 39  1  0
 39 43  1  0
 40 39  2  0
 41 40  1  0
 42 41  1  0
 44 45  1  0
 45 48  1  0
 45 47  1  0
 46 44  2  0
 49 24  1  0
 49 50  1  0
 51 49  1  0
 52 53  1  0
 54 65  2  0
 55 53  1  0
 55 60  1  0
 56 64  1  0
 56 66  1  0
 57 63  1  0
 57 59  1  0
 58 64  1  0
 59 58  1  0
 60 59  2  0
 61 62  1  0
 61 55  2  0
 62 57  2  0
 63 56  1  0
 64 54  1  0
 66 68  2  0
 67 66  1  0
 69 67  1  0
 70 79  2  0
 70 75  1  0
 71 67  1  0
 71 75  1  0
 72 71  1  0
 73 74  1  0
 73 72  1  0
 74 70  1  0
 75 76  2  0
 76 77  1  0
 78 77  2  0
 79 78  1  0
 80 54  1  0
 80 81  1  0
 80 90  1  0
 81 84  1  0
 82 86  1  0
 82 81  1  0
 83 82  2  0
 86 85  1  0
 88 86  1  0
 88 89  1  0
 88 87  1  0
 90 93  1  1
 90 91  1  0
 92 90  1  0
M  ISO  4  14 100  23 100  52 101  53 101
M  END
>  <TORSDO>  (35) 
F 18

>  <SCORE>  (35) 
-14.769

>  <name>  (35) 
34

>  <ligand_id>  (35) 
34

>  <original_smiles>  (35) 
[H]c1c([H])c([H])c2c(c1[H])C([H])([H])C([H])([H])C([H])([H])C2([H])N([H])C(=O)C1([H])N(C(=O)C([H])(N([H])C(=O)C([H])(N([H])C([H])([H])[H])C([H])([H])[H])C(C([H])([H])[H])(C([H])([H])[H])C([H])([H])[H])C([H])([H])c2c([H])c(OC([H])([H])C3([H])N(c4c([H])c([H])c(N(C(=O)N5C([H])([H])C([H])([H])C([H])([H])C([H])(n6nc(-c7c([H])c([H])c(Oc8c([H])c([H])c(F)c([H])c8F)c([H])c7[H])c(C(=O)N([H])[H])c6N([H])[H])C5([H])[H])C([H])([H])[H])c([H])c4F)C(=O)C([H])([H])C3([H])[H])c([H])c([H])c2C1([H])[H]

>  <smiles>  (35) 
[H]c1c([H])c([H])c2c(c1[H])C([H])([H])C([H])([H])C([H])([H])C2([H])N([H])C(=O)C1([H])N(C(=O)C([H])(N([H])C(=O)C([H])(N([H])C([H])([H])[H])C([H])([H])[H])C(C([H])([H])[H])(C([H])([H])[H])C([H])([H])[H])C([H])([H])c2c([H])c(OC([H])([H])C3([H])N(c4c([H])c([H])c(N(C(=O)N5C([H])([H])C([H])([H])C([H])([H])C([H])(n6nc(-c7c([H])c([H])c(Oc8c([H])c([H])c(F)c([H])c8F)c([H])c7[H])c(C(=O)N([H])[H])c6N([H])[H])C5([H])[H])C([H])([H])[H])c([H])c4F)C(=O)C([H])([H])C3([H])[H])c([H])c([H])c2C1([H])[H]

$$$$
35:0:0
     RDKit          3D

 93102  0  0  1  0  0  0  0  0999 V2000
  -30.5030  -21.7840   18.3900 C   0  0  0  0  0  0  0  0  0  0  0  0
  -30.5020  -23.2540   17.9420 C   0  0  0  0  0  2  0  0  0  0  0  0
  -30.1530  -24.2450   19.0540 C   0  0  0  0  0  2  0  0  0  0  0  0
  -28.8960  -22.3810   20.1880 C   0  0  0  0  0  2  0  0  0  0  0  0
  -28.7860  -23.8850   19.6260 C   0  0  0  0  0  3  0  0  0  0  0  0
  -29.6390  -21.3420   19.3600 N   0  0  0  0  0  0  0  0  0  0  0  0
  -31.3120  -21.0490   17.8140 O   0  0  0  0  0  0  0  0  0  0  0  0
  -29.5880  -18.8470   18.7530 C   0  0  0  0  0  3  0  0  0  0  0  0
  -29.8240  -19.4490   21.0580 C   0  0  0  0  0  3  0  0  0  0  0  0
  -29.7750  -17.4650   19.0700 C   0  0  0  0  0  3  0  0  0  0  0  0
  -29.9990  -18.0640   21.3750 C   0  0  0  0  0  3  0  0  0  0  0  0
  -29.6580  -19.9000   19.7240 C   0  0  0  0  0  0  0  0  0  0  0  0
  -30.0300  -17.0200   20.3940 C   0  0  0  0  0  0  0  0  0  0  0  0
  -30.7830  -14.6140   19.9270 C   0  0  0  0  0  0  0  0  0  0  0  0
  -30.4070  -12.4480   18.7420 C   0  0  0  0  0  2  0  0  0  0  0  0
  -29.3710  -12.6490   17.6160 C   0  0  0  0  0  2  0  0  0  0  0  0
  -27.9400  -12.4720   18.1540 C   0  0  0  0  0  2  0  0  0  0  0  0
  -27.6980  -13.2730   19.4590 C   0  0  0  0  0  3  0  0  0  0  0  0
  -28.8390  -13.0510   20.4710 C   0  0  0  0  0  2  0  0  0  0  0  0
  -30.1030  -13.4200   19.8130 N   0  0  0  0  0  0  0  0  0  0  0  0
  -31.8240  -14.8020   19.2920 O   0  0  0  0  0  0  0  0  0  0  0  0
  -30.5000  -15.3200   22.1890 C   0  0  0  0  0  1  0  0  0  0  0  0
  -30.2820  -15.6000   20.7590 N   0  0  0  0  0  0  0  0  0  0  0  0
  -25.3780  -13.8430   20.4040 C   0  0  0  0  0  0  0  0  0  0  0  0
  -24.3440  -13.0560   20.8350 C   0  0  0  0  0  0  0  0  0  0  0  0
  -24.7990  -11.7060   20.7140 C   0  0  0  0  0  0  0  0  0  0  0  0
  -26.3940  -12.9720   20.0440 N   0  0  0  0  0  0  0  0  0  0  0  0
  -26.0570  -11.6810   20.2910 N   0  0  0  0  0  0  0  0  0  0  0  0
  -24.0860  -10.4380   20.9210 C   0  0  0  0  0  0  0  0  0  0  0  0
  -24.5260   -9.4850   21.8670 C   0  0  0  0  0  3  0  0  0  0  0  0
  -23.8100   -8.2840   22.0600 C   0  0  0  0  0  3  0  0  0  0  0  0
  -22.6390   -8.0270   21.3070 C   0  0  0  0  0  0  0  0  0  0  0  0
  -22.2190   -8.9680   20.3500 C   0  0  0  0  0  3  0  0  0  0  0  0
  -22.9350  -10.1600   20.1570 C   0  0  0  0  0  3  0  0  0  0  0  0
  -21.8930   -6.8780   21.4090 O   0  0  0  0  0  0  0  0  0  0  0  0
  -21.7660   -6.2060   22.5980 C   0  0  0  0  0  0  0  0  0  0  0  0
  -21.2300   -6.8250   23.7490 C   0  0  0  0  0  3  0  0  0  0  0  0
  -21.0540   -6.0770   24.9310 C   0  0  0  0  0  3  0  0  0  0  0  0
  -21.4040   -4.7130   24.9610 C   0  0  0  0  0  0  0  0  0  0  0  0
  -21.9350   -4.0960   23.8140 C   0  0  0  0  0  3  0  0  0  0  0  0
  -22.1120   -4.8400   22.6350 C   0  0  0  0  0  0  0  0  0  0  0  0
  -22.6040   -4.2370   21.5260 F   0  0  0  0  0  0  0  0  0  0  0  0
  -21.2240   -3.9920   26.0940 F   0  0  0  0  0  0  0  0  0  0  0  0
  -22.9770  -13.5230   21.2450 C   0  0  0  0  0  0  0  0  0  0  0  0
  -22.3310  -12.8030   22.1560 N   0  0  0  0  0  0  0  0  0  0  0  0
  -22.4940  -14.5590   20.7900 O   0  0  0  0  0  0  0  0  0  0  0  0
  -22.7380  -11.9640   22.5390 H   0  0  0  0  0  0  0  0  0  0  0  0
  -21.4160  -13.0930   22.4710 H   0  0  0  0  0  0  0  0  0  0  0  0
  -25.5320  -15.2200   20.2690 N   0  0  0  0  0  0  0  0  0  0  0  0
  -24.7830  -15.8680   20.4840 H   0  0  0  0  0  0  0  0  0  0  0  0
  -26.3590  -15.6760   19.9020 H   0  0  0  0  0  0  0  0  0  0  0  0
  -28.2420  -25.0320   20.5960 C   0  0  0  0  0  2  0  0  0  0  0  0
  -28.4100  -26.4560   20.2180 O   0  0  0  0  0  0  0  0  0  0  0  0
  -24.6300  -31.8600   23.1760 C   0  0  0  0  0  0  0  0  0  0  0  0
  -27.2810  -27.2830   20.1980 C   0  0  0  0  0  0  0  0  0  0  0  0
  -23.4430  -30.4350   21.5460 C   0  0  0  0  0  3  0  0  0  0  0  0
  -24.9090  -28.8700   20.1540 C   0  0  0  0  0  0  0  0  0  0  0  0
  -25.9810  -30.7680   21.3720 C   0  0  0  0  0  2  0  0  0  0  0  0
  -26.0720  -29.3800   20.7460 C   0  0  0  0  0  0  0  0  0  0  0  0
  -27.2660  -28.5990   20.7540 C   0  0  0  0  0  3  0  0  0  0  0  0
  -26.0980  -26.8170   19.5890 C   0  0  0  0  0  3  0  0  0  0  0  0
  -24.9230  -27.5920   19.5690 C   0  0  0  0  0  3  0  0  0  0  0  0
  -23.6670  -29.7390   20.1780 C   0  0  0  0  0  2  0  0  0  0  0  0
  -24.7020  -31.0390   22.0880 N   0  0  0  0  0  0  0  0  0  0  0  0
  -23.5430  -32.1430   23.7000 O   0  0  0  0  0  0  0  0  0  0  0  0
  -22.7780  -29.4300   22.5160 C   0  0  0  0  0  0  0  0  0  0  0  0
  -21.4520  -29.2610   22.3950 N   0  0  0  0  0  0  0  0  0  0  0  0
  -23.4580  -28.8020   23.3330 O   0  0  0  0  0  0  0  0  0  0  0  0
  -20.9650  -29.8130   21.7020 H   0  0  0  0  0  0  0  0  0  0  0  0
  -18.0650  -28.1110   22.9340 C   0  0  0  0  0  0  0  0  0  0  0  0
  -20.6280  -28.3380   23.1770 C   0  0  0  0  0  3  0  0  0  0  0  0
  -20.7060  -26.9040   22.6020 C   0  0  0  0  0  2  0  0  0  0  0  0
  -19.5910  -26.5940   21.6000 C   0  0  0  0  0  2  0  0  0  0  0  0
  -18.2170  -26.7590   22.2570 C   0  0  0  0  0  2  0  0  0  0  0  0
  -19.1970  -28.8590   23.3510 C   0  0  0  0  0  0  0  0  0  0  0  0
  -19.0020  -30.1240   23.9450 C   0  0  0  0  0  3  0  0  0  0  0  0
  -17.7070  -30.6440   24.1240 C   0  0  0  0  0  3  0  0  0  0  0  0
  -16.5880  -29.8920   23.7220 C   0  0  0  0  0  3  0  0  0  0  0  0
  -16.7680  -28.6280   23.1330 C   0  0  0  0  0  3  0  0  0  0  0  0
  -25.9050  -32.5080   23.7980 C   0  0  0  0  0  3  0  0  0  0  0  0
  -25.5740  -33.8970   24.1500 N   0  0  0  0  0  0  0  0  0  0  0  0
  -25.8730  -34.9650   23.3980 C   0  0  0  0  0  0  0  0  0  0  0  0
  -26.5290  -34.8850   22.3560 O   0  0  0  0  0  0  0  0  0  0  0  0
  -24.9910  -34.0300   24.9630 H   0  0  0  0  0  0  0  0  0  0  0  0
  -24.1060  -36.7270   23.0920 C   0  0  0  0  0  1  0  0  0  0  0  0
  -25.3660  -36.3380   23.8800 C   0  0  0  0  0  3  0  0  0  0  0  0
  -27.4930  -37.2540   24.6920 C   0  0  0  0  0  1  0  0  0  0  0  0
  -26.3750  -37.4130   23.7660 N   0  0  0  0  0  0  0  0  0  0  0  0
  -25.9530  -38.3220   23.9340 H   0  0  0  0  0  0  0  0  0  0  0  0
  -26.4430  -31.7280   25.0610 C   0  0  1  0  0  0  0  0  0  0  0  0
  -25.3620  -31.4510   26.1320 C   0  0  0  0  0  1  0  0  0  0  0  0
  -27.0530  -30.3690   24.6470 C   0  0  0  0  0  1  0  0  0  0  0  0
  -27.5840  -32.5360   25.7270 C   0  0  0  0  0  1  0  0  0  0  0  0
  1  6  1  0
  2  1  1  0
  2  3  1  0
  3  5  1  0
  5  4  1  0
  5 52  1  0
  6 12  1  0
  6  4  1  0
  7  1  2  0
  8 10  2  0
  8 12  1  0
  9 11  1  0
 10 13  1  0
 12  9  2  0
 13 23  1  0
 13 11  2  0
 14 23  1  0
 15 20  1  0
 16 17  1  0
 16 15  1  0
 18 17  1  0
 18 27  1  0
 18 19  1  0
 20 14  1  0
 20 19  1  0
 21 14  2  0
 23 22  1  0
 24 25  2  0
 25 44  1  0
 26 25  1  0
 26 29  1  0
 27 28  1  0
 27 24  1  0
 28 26  2  0
 29 30  1  0
 30 31  2  0
 32 35  1  0
 32 31  1  0
 33 32  2  0
 34 33  1  0
 34 29  2  0
 35 36  1  0
 36 41  2  0
 36 37  1  0
 37 38  2  0
 38 39  1  0
 39 43  1  0
 40 39  2  0
 41 40  1  0
 42 41  1  0
 44 45  1  0
 45 48  1  0
 45 47  1  0
 46 44  2  0
 49 24  1  0
 49 50  1  0
 51 49  1  0
 53 52  1  0
 54 65  2  0
 55 53  1  0
 55 60  1  0
 56 64  1  0
 56 66  1  0
 57 63  1  0
 57 59  1  0
 58 64  1  0
 59 60  2  0
 59 58  1  0
 61 55  2  0
 62 61  1  0
 62 57  2  0
 63 56  1  0
 64 54  1  0
 66 68  2  0
 67 66  1  0
 69 67  1  0
 70 79  2  0
 70 75  1  0
 71 67  1  0
 71 75  1  0
 72 71  1  0
 73 74  1  0
 73 72  1  0
 74 70  1  0
 75 76  2  0
 76 77  1  0
 78 77  2  0
 79 78  1  0
 80 54  1  0
 80 81  1  0
 80 90  1  0
 81 84  1  0
 82 86  1  0
 82 81  1  0
 83 82  2  0
 86 85  1  0
 88 86  1  0
 88 89  1  0
 88 87  1  0
 90 93  1  1
 90 91  1  0
 92 90  1  0
M  ISO  4  14 100  23 100  52 101  53 101
M  END
>  <TORSDO>  (36) 
F 18

>  <SCORE>  (36) 
-13.647

>  <name>  (36) 
35

>  <ligand_id>  (36) 
35

>  <original_smiles>  (36) 
[H]c1c([H])c([H])c2c(c1[H])C([H])([H])C([H])([H])C([H])([H])C2([H])N([H])C(=O)C1([H])N(C(=O)C([H])(N([H])C(=O)C([H])(N([H])C([H])([H])[H])C([H])([H])[H])C(C([H])([H])[H])(C([H])([H])[H])C([H])([H])[H])C([H])([H])c2c([H])c(OC([H])([H])C3([H])C([H])([H])N(c4c([H])c([H])c(N(C(=O)N5C([H])([H])C([H])([H])C([H])([H])C([H])(n6nc(-c7c([H])c([H])c(Oc8c([H])c([H])c(F)c([H])c8F)c([H])c7[H])c(C(=O)N([H])[H])c6N([H])[H])C5([H])[H])C([H])([H])[H])c([H])c4[H])C(=O)C([H])([H])C3([H])[H])c([H])c([H])c2C1([H])[H]

>  <smiles>  (36) 
[H]c1c([H])c([H])c2c(c1[H])C([H])([H])C([H])([H])C([H])([H])C2([H])N([H])C(=O)C1([H])N(C(=O)C([H])(N([H])C(=O)C([H])(N([H])C([H])([H])[H])C([H])([H])[H])C(C([H])([H])[H])(C([H])([H])[H])C([H])([H])[H])C([H])([H])c2c([H])c(OC([H])([H])C3([H])C([H])([H])N(c4c([H])c([H])c(N(C(=O)N5C([H])([H])C([H])([H])C([H])([H])C([H])(n6nc(-c7c([H])c([H])c(Oc8c([H])c([H])c(F)c([H])c8F)c([H])c7[H])c(C(=O)N([H])[H])c6N([H])[H])C5([H])[H])C([H])([H])[H])c([H])c4[H])C(=O)C([H])([H])C3([H])[H])c([H])c([H])c2C1([H])[H]

$$$$
36:0:0
     RDKit          3D

 97106  0  0  1  0  0  0  0  0999 V2000
  -29.4670  -22.4700   16.9960 C   0  0  0  0  0  0  0  0  0  0  0  0
  -29.3550  -23.7450   16.1530 C   0  0  0  0  0  2  0  0  0  0  0  0
  -29.6400  -25.0400   16.9140 C   0  0  0  0  0  2  0  0  0  0  0  0
  -29.4670  -23.8260   19.0880 C   0  0  0  0  0  2  0  0  0  0  0  0
  -28.9450  -25.0470   18.2800 C   0  0  0  0  0  3  0  0  0  0  0  0
  -29.3990  -22.5350   18.3580 N   0  0  0  0  0  0  0  0  0  0  0  0
  -29.5950  -21.4070   16.3770 O   0  0  0  0  0  0  0  0  0  0  0  0
  -28.3340  -19.1700   19.6560 C   0  0  0  0  0  3  0  0  0  0  0  0
  -30.5470  -19.6580   20.5290 C   0  0  0  0  0  3  0  0  0  0  0  0
  -28.3040  -20.4260   19.0210 C   0  0  0  0  0  3  0  0  0  0  0  0
  -30.5170  -20.9250   19.8970 C   0  0  0  0  0  3  0  0  0  0  0  0
  -29.4630  -18.7560   20.3980 C   0  0  0  0  0  0  0  0  0  0  0  0
  -29.4050  -21.3100   19.1100 C   0  0  0  0  0  0  0  0  0  0  0  0
  -29.8010  -17.3510   22.5460 C   0  0  0  0  0  1  0  0  0  0  0  0
  -29.4630  -17.3540   21.0420 C   0  0  0  0  0  3  0  0  0  0  0  0
  -31.3210  -14.2680   19.7630 C   0  0  0  0  0  0  0  0  0  0  0  0
  -30.6010  -12.3050   18.4490 C   0  0  0  0  0  2  0  0  0  0  0  0
  -29.5570  -12.7110   17.3930 C   0  0  0  0  0  2  0  0  0  0  0  0
  -28.1370  -12.6370   17.9880 C   0  0  0  0  0  2  0  0  0  0  0  0
  -28.0240  -13.3640   19.3530 C   0  0  0  0  0  3  0  0  0  0  0  0
  -29.1890  -12.9900   20.3020 C   0  0  0  0  0  2  0  0  0  0  0  0
  -30.4540  -13.2270   19.5860 N   0  0  0  0  0  0  0  0  0  0  0  0
  -32.4010  -14.3210   19.1650 O   0  0  0  0  0  0  0  0  0  0  0  0
  -30.0700  -16.2510   20.1180 C   0  0  0  0  0  0  0  0  0  0  0  0
  -31.9500  -15.6550   21.5980 C   0  0  0  0  0  1  0  0  0  0  0  0
  -30.9570  -15.3050   20.5630 N   0  0  0  0  0  0  0  0  0  0  0  0
  -29.6640  -16.2660   18.9490 O   0  0  0  0  0  0  0  0  0  0  0  0
  -25.7850  -14.0920   20.3780 C   0  0  0  0  0  0  0  0  0  0  0  0
  -24.7070  -13.3750   20.8200 C   0  0  0  0  0  0  0  0  0  0  0  0
  -25.0530  -11.9990   20.6480 C   0  0  0  0  0  0  0  0  0  0  0  0
  -26.7220  -13.1550   19.9730 N   0  0  0  0  0  0  0  0  0  0  0  0
  -26.2930  -11.8870   20.1930 N   0  0  0  0  0  0  0  0  0  0  0  0
  -24.2540  -10.7820   20.8330 C   0  0  0  0  0  0  0  0  0  0  0  0
  -24.6770   -9.7440   21.6930 C   0  0  0  0  0  3  0  0  0  0  0  0
  -23.8820   -8.5920   21.8670 C   0  0  0  0  0  3  0  0  0  0  0  0
  -22.6500   -8.4690   21.1820 C   0  0  0  0  0  0  0  0  0  0  0  0
  -22.2460   -9.4940   20.3090 C   0  0  0  0  0  3  0  0  0  0  0  0
  -23.0400  -10.6380   20.1320 C   0  0  0  0  0  3  0  0  0  0  0  0
  -21.8240   -7.3750   21.2730 O   0  0  0  0  0  0  0  0  0  0  0  0
  -21.7580   -6.6140   22.4130 C   0  0  0  0  0  0  0  0  0  0  0  0
  -21.4160   -7.1730   23.6630 C   0  0  0  0  0  3  0  0  0  0  0  0
  -21.2960   -6.3440   24.7960 C   0  0  0  0  0  3  0  0  0  0  0  0
  -21.5060   -4.9560   24.6790 C   0  0  0  0  0  0  0  0  0  0  0  0
  -21.8420   -4.3970   23.4330 C   0  0  0  0  0  3  0  0  0  0  0  0
  -21.9660   -5.2240   22.3030 C   0  0  0  0  0  0  0  0  0  0  0  0
  -22.2700   -4.6780   21.1010 F   0  0  0  0  0  0  0  0  0  0  0  0
  -21.3820   -4.1570   25.7640 F   0  0  0  0  0  0  0  0  0  0  0  0
  -23.3890  -13.9290   21.2780 C   0  0  0  0  0  0  0  0  0  0  0  0
  -22.7180  -13.2370   22.1920 N   0  0  0  0  0  0  0  0  0  0  0  0
  -22.9710  -15.0080   20.8610 O   0  0  0  0  0  0  0  0  0  0  0  0
  -23.0720  -12.3630   22.5490 H   0  0  0  0  0  0  0  0  0  0  0  0
  -21.8370  -13.5880   22.5410 H   0  0  0  0  0  0  0  0  0  0  0  0
  -26.0370  -15.4560   20.2600 N   0  0  0  0  0  0  0  0  0  0  0  0
  -25.3120  -16.1400   20.4470 H   0  0  0  0  0  0  0  0  0  0  0  0
  -26.8060  -15.8280   19.7190 H   0  0  0  0  0  0  0  0  0  0  0  0
  -29.1500  -26.4330   18.9430 C   0  0  0  0  0  2  0  0  0  0  0  0
  -28.4360  -26.6360   20.1580 O   0  0  0  0  0  0  0  0  0  0  0  0
  -24.6790  -31.8380   23.2060 C   0  0  0  0  0  0  0  0  0  0  0  0
  -27.2910  -27.3950   20.1010 C   0  0  0  0  0  0  0  0  0  0  0  0
  -23.4590  -30.4520   21.5580 C   0  0  0  0  0  3  0  0  0  0  0  0
  -24.9020  -28.9050   20.1240 C   0  0  0  0  0  0  0  0  0  0  0  0
  -25.9870  -30.7900   21.3620 C   0  0  0  0  0  2  0  0  0  0  0  0
  -26.0620  -29.4210   20.7180 C   0  0  0  0  0  0  0  0  0  0  0  0
  -27.2550  -28.6670   20.7150 C   0  0  0  0  0  3  0  0  0  0  0  0
  -26.1170  -26.8870   19.5070 C   0  0  0  0  0  3  0  0  0  0  0  0
  -24.9240  -27.6360   19.5180 C   0  0  0  0  0  3  0  0  0  0  0  0
  -23.6630  -29.7730   20.1760 C   0  0  0  0  0  2  0  0  0  0  0  0
  -24.7270  -31.0400   22.1000 N   0  0  0  0  0  0  0  0  0  0  0  0
  -23.6010  -32.1200   23.7460 O   0  0  0  0  0  0  0  0  0  0  0  0
  -22.7970  -29.4370   22.5160 C   0  0  0  0  0  0  0  0  0  0  0  0
  -21.4690  -29.2750   22.3910 N   0  0  0  0  0  0  0  0  0  0  0  0
  -23.4740  -28.7970   23.3250 O   0  0  0  0  0  0  0  0  0  0  0  0
  -20.9850  -29.8400   21.7080 H   0  0  0  0  0  0  0  0  0  0  0  0
  -18.0810  -28.1240   22.8890 C   0  0  0  0  0  0  0  0  0  0  0  0
  -20.6420  -28.3470   23.1620 C   0  0  0  0  0  3  0  0  0  0  0  0
  -20.7260  -26.9170   22.5800 C   0  0  0  0  0  2  0  0  0  0  0  0
  -19.6190  -26.6130   21.5640 C   0  0  0  0  0  2  0  0  0  0  0  0
  -18.2390  -26.7760   22.2090 C   0  0  0  0  0  2  0  0  0  0  0  0
  -19.2100  -28.8690   23.3220 C   0  0  0  0  0  0  0  0  0  0  0  0
  -19.0090  -30.1350   23.9160 C   0  0  0  0  0  3  0  0  0  0  0  0
  -17.7110  -30.6550   24.0800 C   0  0  0  0  0  3  0  0  0  0  0  0
  -16.5960  -29.9070   23.6630 C   0  0  0  0  0  3  0  0  0  0  0  0
  -16.7820  -28.6430   23.0750 C   0  0  0  0  0  3  0  0  0  0  0  0
  -25.9730  -32.4530   23.8270 C   0  0  0  0  0  3  0  0  0  0  0  0
  -26.5210  -31.6340   25.0600 C   0  0  1  0  0  0  0  0  0  0  0  0
  -25.4510  -31.3430   26.1370 C   0  0  0  0  0  1  0  0  0  0  0  0
  -27.1050  -30.2790   24.5980 C   0  0  0  0  0  1  0  0  0  0  0  0
  -27.6800  -32.4090   25.7310 C   0  0  0  0  0  1  0  0  0  0  0  0
  -25.6610  -33.8340   24.2170 N   0  0  0  0  0  0  0  0  0  0  0  0
  -25.9710  -34.9170   23.4920 C   0  0  0  0  0  0  0  0  0  0  0  0
  -26.6210  -34.8590   22.4430 O   0  0  0  0  0  0  0  0  0  0  0  0
  -25.0790  -33.9550   25.0330 H   0  0  0  0  0  0  0  0  0  0  0  0
  -24.2200  -36.7050   23.2440 C   0  0  0  0  0  1  0  0  0  0  0  0
  -25.4820  -36.2830   24.0120 C   0  0  0  0  0  3  0  0  0  0  0  0
  -27.6290  -37.1530   24.8260 C   0  0  0  0  0  1  0  0  0  0  0  0
  -26.5040  -37.3490   23.9170 N   0  0  0  0  0  0  0  0  0  0  0  0
  -26.0940  -38.2580   24.1120 H   0  0  0  0  0  0  0  0  0  0  0  0
  1  6  1  0
  2  3  1  0
  2  1  1  0
  3  5  1  0
  5 56  1  0
  5  4  1  0
  6  4  1  0
  6 13  1  0
  7  1  2  0
  8 12  1  0
 10 13  1  0
 10  8  2  0
 11  9  1  0
 12  9  2  0
 12 15  1  0
 13 11  2  0
 15 14  1  0
 16 26  1  0
 17 22  1  0
 18 19  1  0
 18 17  1  0
 20 19  1  0
 20 31  1  0
 20 21  1  0
 22 16  1  0
 22 21  1  0
 23 16  2  0
 24 26  1  0
 24 15  1  0
 26 25  1  0
 27 24  2  0
 28 29  2  0
 29 48  1  0
 30 29  1  0
 30 33  1  0
 31 32  1  0
 31 28  1  0
 32 30  2  0
 33 34  1  0
 34 35  2  0
 36 39  1  0
 36 35  1  0
 37 36  2  0
 38 37  1  0
 38 33  2  0
 39 40  1  0
 40 41  1  0
 41 42  2  0
 43 42  1  0
 43 47  1  0
 44 43  2  0
 45 40  2  0
 45 44  1  0
 46 45  1  0
 48 49  1  0
 49 52  1  0
 49 51  1  0
 50 48  2  0
 53 28  1  0
 53 54  1  0
 55 53  1  0
 56 57  1  0
 58 69  2  0
 59 57  1  0
 59 64  1  0
 60 68  1  0
 60 70  1  0
 61 67  1  0
 61 63  1  0
 62 68  1  0
 63 62  1  0
 64 63  2  0
 65 66  1  0
 65 59  2  0
 66 61  2  0
 67 60  1  0
 68 58  1  0
 70 72  2  0
 71 70  1  0
 73 71  1  0
 74 83  2  0
 74 79  1  0
 75 71  1  0
 75 79  1  0
 76 75  1  0
 77 78  1  0
 77 76  1  0
 78 74  1  0
 79 80  2  0
 80 81  1  0
 82 81  2  0
 83 82  1  0
 84 58  1  0
 84 89  1  0
 84 85  1  0
 85 88  1  1
 85 86  1  0
 87 85  1  0
 89 92  1  0
 90 94  1  0
 90 89  1  0
 91 90  2  0
 94 93  1  0
 96 94  1  0
 96 97  1  0
 96 95  1  0
M  ISO  4  16 100  26 100  56 101  57 101
M  END
>  <TORSDO>  (37) 
F 19

>  <SCORE>  (37) 
-12.041

>  <name>  (37) 
36

>  <ligand_id>  (37) 
36

>  <original_smiles>  (37) 
[H]c1c([H])c([H])c2c(c1[H])C([H])([H])C([H])([H])C([H])([H])C2([H])N([H])C(=O)C1([H])N(C(=O)C([H])(N([H])C(=O)C([H])(N([H])C([H])([H])[H])C([H])([H])[H])C(C([H])([H])[H])(C([H])([H])[H])C([H])([H])[H])C([H])([H])c2c([H])c(OC([H])([H])C3([H])C([H])([H])N(c4c([H])c([H])c(C([H])(C(=O)N(C(=O)N5C([H])([H])C([H])([H])C([H])([H])C([H])(n6nc(-c7c([H])c([H])c(Oc8c([H])c([H])c(F)c([H])c8F)c([H])c7[H])c(C(=O)N([H])[H])c6N([H])[H])C5([H])[H])C([H])([H])[H])C([H])([H])[H])c([H])c4[H])C(=O)C([H])([H])C3([H])[H])c([H])c([H])c2C1([H])[H]

>  <smiles>  (37) 
[H]c1c([H])c([H])c2c(c1[H])C([H])([H])C([H])([H])C([H])([H])C2([H])N([H])C(=O)C1([H])N(C(=O)C([H])(N([H])C(=O)C([H])(N([H])C([H])([H])[H])C([H])([H])[H])C(C([H])([H])[H])(C([H])([H])[H])C([H])([H])[H])C([H])([H])c2c([H])c(OC([H])([H])C3([H])C([H])([H])N(c4c([H])c([H])c(C([H])(C(=O)N(C(=O)N5C([H])([H])C([H])([H])C([H])([H])C([H])(n6nc(-c7c([H])c([H])c(Oc8c([H])c([H])c(F)c([H])c8F)c([H])c7[H])c(C(=O)N([H])[H])c6N([H])[H])C5([H])[H])C([H])([H])[H])C([H])([H])[H])c([H])c4[H])C(=O)C([H])([H])C3([H])[H])c([H])c([H])c2C1([H])[H]

$$$$
37:0:0
     RDKit          3D

 96105  0  0  1  0  0  0  0  0999 V2000
  -31.7670  -23.4520   20.1260 C   0  0  0  0  0  0  0  0  0  0  0  0
  -30.6580  -24.4930   20.2770 C   0  0  0  0  0  2  0  0  0  0  0  0
  -31.4170  -22.1060   19.4730 C   0  0  0  0  0  2  0  0  0  0  0  0
  -28.9980  -22.5350   20.0840 C   0  0  0  0  0  2  0  0  0  0  0  0
  -29.3180  -24.0430   19.6620 C   0  0  0  0  0  3  0  0  0  0  0  0
  -30.1140  -21.5500   19.8790 N   0  0  0  0  0  0  0  0  0  0  0  0
  -32.9110  -23.6910   20.5220 O   0  0  0  0  0  0  0  0  0  0  0  0
  -30.9110  -19.2660   19.2270 C   0  0  0  0  0  3  0  0  0  0  0  0
  -30.9710  -17.8480   19.3720 C   0  0  0  0  0  3  0  0  0  0  0  0
  -29.2970  -17.9850   21.0870 C   0  0  0  0  0  3  0  0  0  0  0  0
  -30.0620  -20.1060   20.0120 C   0  0  0  0  0  0  0  0  0  0  0  0
  -30.1660  -17.1660   20.3170 C   0  0  0  0  0  0  0  0  0  0  0  0
  -29.2480  -19.4060   20.9550 C   0  0  0  0  0  0  0  0  0  0  0  0
  -30.8720  -14.6960   19.9820 C   0  0  0  0  0  0  0  0  0  0  0  0
  -30.6150  -12.4660   18.9190 C   0  0  0  0  0  2  0  0  0  0  0  0
  -29.5990  -12.6000   17.7610 C   0  0  0  0  0  2  0  0  0  0  0  0
  -28.1570  -12.4240   18.2790 C   0  0  0  0  0  2  0  0  0  0  0  0
  -27.8660  -13.2780   19.5410 C   0  0  0  0  0  3  0  0  0  0  0  0
  -28.9890  -13.1160   20.5920 C   0  0  0  0  0  2  0  0  0  0  0  0
  -30.2640  -13.4680   19.9440 N   0  0  0  0  0  0  0  0  0  0  0  0
  -31.9860  -14.8800   19.4840 O   0  0  0  0  0  0  0  0  0  0  0  0
  -30.1170  -15.7160   20.4910 N   0  0  0  0  0  0  0  0  0  0  0  0
  -29.3090  -15.3840   20.9940 H   0  0  0  0  0  0  0  0  0  0  0  0
  -25.5250  -13.8600   20.4290 C   0  0  0  0  0  0  0  0  0  0  0  0
  -24.4790  -13.0770   20.8390 C   0  0  0  0  0  0  0  0  0  0  0  0
  -24.9320  -11.7270   20.7300 C   0  0  0  0  0  0  0  0  0  0  0  0
  -26.5480  -12.9860   20.0990 N   0  0  0  0  0  0  0  0  0  0  0  0
  -26.2000  -11.6950   20.3390 N   0  0  0  0  0  0  0  0  0  0  0  0
  -24.2140  -10.4590   20.9230 C   0  0  0  0  0  0  0  0  0  0  0  0
  -24.6320   -9.5110   21.8810 C   0  0  0  0  0  3  0  0  0  0  0  0
  -23.9140   -8.3080   22.0600 C   0  0  0  0  0  3  0  0  0  0  0  0
  -22.7640   -8.0470   21.2790 C   0  0  0  0  0  0  0  0  0  0  0  0
  -22.3650   -8.9840   20.3090 C   0  0  0  0  0  3  0  0  0  0  0  0
  -23.0850  -10.1770   20.1290 C   0  0  0  0  0  3  0  0  0  0  0  0
  -22.0210   -6.8930   21.3630 O   0  0  0  0  0  0  0  0  0  0  0  0
  -21.8650   -6.2240   22.5500 C   0  0  0  0  0  0  0  0  0  0  0  0
  -21.2840   -6.8390   23.6810 C   0  0  0  0  0  3  0  0  0  0  0  0
  -21.0790   -6.0930   24.8580 C   0  0  0  0  0  3  0  0  0  0  0  0
  -21.4430   -4.7340   24.9050 C   0  0  0  0  0  0  0  0  0  0  0  0
  -22.0160   -4.1200   23.7790 C   0  0  0  0  0  3  0  0  0  0  0  0
  -22.2240   -4.8620   22.6030 C   0  0  0  0  0  0  0  0  0  0  0  0
  -22.7570   -4.2600   21.5130 F   0  0  0  0  0  0  0  0  0  0  0  0
  -21.2390   -4.0160   26.0350 F   0  0  0  0  0  0  0  0  0  0  0  0
  -23.1050  -13.5470   21.2180 C   0  0  0  0  0  0  0  0  0  0  0  0
  -22.4340  -12.8280   22.1110 N   0  0  0  0  0  0  0  0  0  0  0  0
  -22.6360  -14.5880   20.7580 O   0  0  0  0  0  0  0  0  0  0  0  0
  -22.8280  -11.9870   22.5070 H   0  0  0  0  0  0  0  0  0  0  0  0
  -21.5160  -13.1260   22.4070 H   0  0  0  0  0  0  0  0  0  0  0  0
  -25.6840  -15.2350   20.2910 N   0  0  0  0  0  0  0  0  0  0  0  0
  -24.9250  -15.8850   20.4680 H   0  0  0  0  0  0  0  0  0  0  0  0
  -26.5060  -15.6840   19.9060 H   0  0  0  0  0  0  0  0  0  0  0  0
  -28.4150  -20.1080   21.8240 N   0  0  0  0  0  0  0  0  0  0  0  0
  -28.2500  -19.6830   22.7290 H   0  0  0  0  0  0  0  0  0  0  0  0
  -28.6520  -21.0890   21.9070 H   0  0  0  0  0  0  0  0  0  0  0  0
  -28.2010  -25.1110   20.0200 C   0  0  0  0  0  2  0  0  0  0  0  0
  -28.4020  -26.5230   19.6270 O   0  0  0  0  0  0  0  0  0  0  0  0
  -24.7110  -31.6800   23.0700 C   0  0  0  0  0  0  0  0  0  0  0  0
  -27.2830  -27.3650   19.6740 C   0  0  0  0  0  0  0  0  0  0  0  0
  -23.4910  -30.4160   21.3350 C   0  0  0  0  0  3  0  0  0  0  0  0
  -24.9270  -28.9710   19.7930 C   0  0  0  0  0  0  0  0  0  0  0  0
  -26.0310  -30.7340   21.1680 C   0  0  0  0  0  2  0  0  0  0  0  0
  -26.1000  -29.4100   20.4210 C   0  0  0  0  0  0  0  0  0  0  0  0
  -27.2830  -28.6190   20.3520 C   0  0  0  0  0  3  0  0  0  0  0  0
  -26.0940  -26.9810   19.0160 C   0  0  0  0  0  3  0  0  0  0  0  0
  -24.9250  -27.7610   19.0810 C   0  0  0  0  0  3  0  0  0  0  0  0
  -23.6950  -29.8450   19.9080 C   0  0  0  0  0  2  0  0  0  0  0  0
  -24.7640  -30.9570   21.9150 N   0  0  0  0  0  0  0  0  0  0  0  0
  -23.6320  -31.9250   23.6280 O   0  0  0  0  0  0  0  0  0  0  0  0
  -22.8260  -29.3340   22.2180 C   0  0  0  0  0  0  0  0  0  0  0  0
  -21.4940  -29.2020   22.1110 N   0  0  0  0  0  0  0  0  0  0  0  0
  -23.5070  -28.6210   22.9610 O   0  0  0  0  0  0  0  0  0  0  0  0
  -21.0050  -29.8300   21.4880 H   0  0  0  0  0  0  0  0  0  0  0  0
  -18.0880  -28.1150   22.6610 C   0  0  0  0  0  0  0  0  0  0  0  0
  -20.6660  -28.2230   22.8170 C   0  0  0  0  0  3  0  0  0  0  0  0
  -20.6650  -26.8610   22.0840 C   0  0  0  0  0  2  0  0  0  0  0  0
  -19.4980  -26.7080   21.1020 C   0  0  0  0  0  2  0  0  0  0  0  0
  -18.1590  -26.8420   21.8330 C   0  0  0  0  0  2  0  0  0  0  0  0
  -19.2650  -28.7700   23.1100 C   0  0  0  0  0  0  0  0  0  0  0  0
  -19.1420  -29.9690   23.8480 C   0  0  0  0  0  3  0  0  0  0  0  0
  -17.8740  -30.5080   24.1390 C   0  0  0  0  0  3  0  0  0  0  0  0
  -16.7130  -29.8460   23.7050 C   0  0  0  0  0  3  0  0  0  0  0  0
  -16.8200  -28.6510   22.9730 C   0  0  0  0  0  3  0  0  0  0  0  0
  -26.0010  -32.2560   23.7320 C   0  0  0  0  0  3  0  0  0  0  0  0
  -26.5070  -31.3980   24.9560 C   0  0  1  0  0  0  0  0  0  0  0  0
  -25.4110  -31.1090   26.0090 C   0  0  0  0  0  1  0  0  0  0  0  0
  -27.0700  -30.0400   24.4790 C   0  0  0  0  0  1  0  0  0  0  0  0
  -27.6680  -32.1330   25.6660 C   0  0  0  0  0  1  0  0  0  0  0  0
  -25.7070  -33.6330   24.1530 N   0  0  0  0  0  0  0  0  0  0  0  0
  -26.0530  -34.7290   23.4640 C   0  0  0  0  0  0  0  0  0  0  0  0
  -26.7230  -34.6860   22.4300 O   0  0  0  0  0  0  0  0  0  0  0  0
  -25.1130  -33.7410   24.9610 H   0  0  0  0  0  0  0  0  0  0  0  0
  -24.3570  -36.5710   23.2170 C   0  0  0  0  0  1  0  0  0  0  0  0
  -25.5820  -36.0910   24.0110 C   0  0  0  0  0  3  0  0  0  0  0  0
  -27.7140  -36.8880   24.9350 C   0  0  0  0  0  1  0  0  0  0  0  0
  -26.6320  -37.1320   23.9830 N   0  0  0  0  0  0  0  0  0  0  0  0
  -26.2380  -38.0480   24.1790 H   0  0  0  0  0  0  0  0  0  0  0  0
  1  2  1  0
  1  7  2  0
  3  6  1  0
  3  1  1  0
  5 55  1  0
  5  4  1  0
  5  2  1  0
  6 11  1  0
  6  4  1  0
  8  9  2  0
  8 11  1  0
  9 12  1  0
 11 13  2  0
 12 22  1  0
 12 10  2  0
 13 10  1  0
 13 52  1  0
 14 22  1  0
 15 20  1  0
 16 17  1  0
 16 15  1  0
 18 17  1  0
 18 27  1  0
 18 19  1  0
 20 14  1  0
 20 19  1  0
 21 14  2  0
 22 23  1  0
 24 25  2  0
 25 44  1  0
 26 25  1  0
 26 29  1  0
 27 28  1  0
 27 24  1  0
 28 26  2  0
 29 30  1  0
 30 31  2  0
 32 35  1  0
 32 31  1  0
 33 32  2  0
 34 33  1  0
 34 29  2  0
 35 36  1  0
 36 41  2  0
 36 37  1  0
 37 38  2  0
 38 39  1  0
 39 43  1  0
 40 39  2  0
 41 40  1  0
 42 41  1  0
 44 45  1  0
 45 48  1  0
 45 47  1  0
 46 44  2  0
 49 24  1  0
 49 50  1  0
 51 49  1  0
 52 54  1  0
 52 53  1  0
 56 58  1  0
 56 55  1  0
 57 68  2  0
 58 63  1  0
 59 67  1  0
 59 69  1  0
 60 66  1  0
 60 62  1  0
 61 67  1  0
 62 61  1  0
 63 62  2  0
 64 65  1  0
 64 58  2  0
 65 60  2  0
 66 59  1  0
 67 57  1  0
 69 71  2  0
 70 69  1  0
 72 70  1  0
 73 82  2  0
 73 78  1  0
 74 70  1  0
 74 78  1  0
 75 74  1  0
 76 77  1  0
 76 75  1  0
 77 73  1  0
 78 79  2  0
 79 80  1  0
 81 80  2  0
 82 81  1  0
 83 57  1  0
 83 88  1  0
 83 84  1  0
 84 87  1  1
 84 85  1  0
 86 84  1  0
 88 91  1  0
 89 93  1  0
 89 88  1  0
 90 89  2  0
 93 92  1  0
 95 93  1  0
 95 96  1  0
 95 94  1  0
M  ISO  4  14 100  22 100  55 101  56 101
M  END
>  <TORSDO>  (38) 
F 19

>  <SCORE>  (38) 
-12.381

>  <name>  (38) 
37

>  <ligand_id>  (38) 
37

>  <original_smiles>  (38) 
[H]c1c([H])c([H])c2c(c1[H])C([H])([H])C([H])([H])C([H])([H])C2([H])N([H])C(=O)C1([H])N(C(=O)C([H])(N([H])C(=O)C([H])(N([H])C([H])([H])[H])C([H])([H])[H])C(C([H])([H])[H])(C([H])([H])[H])C([H])([H])[H])C([H])([H])c2c([H])c(OC([H])([H])C3([H])C([H])([H])C(=O)C([H])([H])N(c4c([H])c([H])c(N([H])C(=O)N5C([H])([H])C([H])([H])C([H])([H])C([H])(n6nc(-c7c([H])c([H])c(Oc8c([H])c([H])c(F)c([H])c8F)c([H])c7[H])c(C(=O)N([H])[H])c6N([H])[H])C5([H])[H])c([H])c4N([H])[H])C3([H])[H])c([H])c([H])c2C1([H])[H]

>  <smiles>  (38) 
[H]c1c([H])c([H])c2c(c1[H])C([H])([H])C([H])([H])C([H])([H])C2([H])N([H])C(=O)C1([H])N(C(=O)C([H])(N([H])C(=O)C([H])(N([H])C([H])([H])[H])C([H])([H])[H])C(C([H])([H])[H])(C([H])([H])[H])C([H])([H])[H])C([H])([H])c2c([H])c(OC([H])([H])C3([H])C([H])([H])C(=O)C([H])([H])N(c4c([H])c([H])c(N([H])C(=O)N5C([H])([H])C([H])([H])C([H])([H])C([H])(n6nc(-c7c([H])c([H])c(Oc8c([H])c([H])c(F)c([H])c8F)c([H])c7[H])c(C(=O)N([H])[H])c6N([H])[H])C5([H])[H])c([H])c4N([H])[H])C3([H])[H])c([H])c([H])c2C1([H])[H]

$$$$
38:0:0
     RDKit          3D

 94103  0  0  1  0  0  0  0  0999 V2000
  -29.8870  -21.1270   19.7540 C   0  0  0  0  0  0  0  0  0  0  0  0
  -28.0730  -23.3750   22.0880 C   0  0  0  0  0  2  0  0  0  0  0  0
  -28.3230  -21.9410   21.5810 C   0  0  0  0  0  2  0  0  0  0  0  0
  -29.2000  -23.5070   19.9870 C   0  0  0  0  0  2  0  0  0  0  0  0
  -28.1900  -24.2810   20.8560 C   0  0  0  0  0  3  0  0  0  0  0  0
  -29.1440  -22.0830   20.3780 N   0  0  0  0  0  0  0  0  0  0  0  0
  -30.6250  -21.4150   18.8070 O   0  0  0  0  0  0  0  0  0  0  0  0
  -28.7010  -18.8980   20.2720 C   0  0  0  0  0  3  0  0  0  0  0  0
  -28.7700  -17.5080   20.5410 C   0  0  0  0  0  3  0  0  0  0  0  0
  -31.1140  -19.0380   20.4780 C   0  0  0  0  0  3  0  0  0  0  0  0
  -29.8810  -19.6810   20.2170 C   0  0  0  0  0  0  0  0  0  0  0  0
  -30.0130  -16.8610   20.7520 C   0  0  0  0  0  0  0  0  0  0  0  0
  -31.1840  -17.6580   20.7720 C   0  0  0  0  0  0  0  0  0  0  0  0
  -32.3850  -17.1220   21.0870 F   0  0  0  0  0  0  0  0  0  0  0  0
  -30.6900  -14.5170   20.2320 C   0  0  0  0  0  0  0  0  0  0  0  0
  -30.3750  -12.3930   19.0100 C   0  0  0  0  0  2  0  0  0  0  0  0
  -29.3800  -12.6150   17.8510 C   0  0  0  0  0  2  0  0  0  0  0  0
  -27.9210  -12.4770   18.3320 C   0  0  0  0  0  2  0  0  0  0  0  0
  -27.6380  -13.2740   19.6340 C   0  0  0  0  0  3  0  0  0  0  0  0
  -28.7310  -12.9940   20.6880 C   0  0  0  0  0  2  0  0  0  0  0  0
  -30.0370  -13.3300   20.0930 N   0  0  0  0  0  0  0  0  0  0  0  0
  -31.7630  -14.7430   19.6660 O   0  0  0  0  0  0  0  0  0  0  0  0
  -30.0260  -15.4430   20.9610 N   0  0  0  0  0  0  0  0  0  0  0  0
  -29.2040  -15.0650   21.4040 H   0  0  0  0  0  0  0  0  0  0  0  0
  -25.2630  -13.8720   20.4380 C   0  0  0  0  0  0  0  0  0  0  0  0
  -24.2100  -13.0940   20.8370 C   0  0  0  0  0  0  0  0  0  0  0  0
  -24.6700  -11.7440   20.7680 C   0  0  0  0  0  0  0  0  0  0  0  0
  -26.2990  -12.9950   20.1550 N   0  0  0  0  0  0  0  0  0  0  0  0
  -25.9470  -11.7090   20.4090 N   0  0  0  0  0  0  0  0  0  0  0  0
  -23.9530  -10.4790   20.9630 C   0  0  0  0  0  0  0  0  0  0  0  0
  -24.3890   -9.5180   21.9000 C   0  0  0  0  0  3  0  0  0  0  0  0
  -23.6730   -8.3160   22.0810 C   0  0  0  0  0  3  0  0  0  0  0  0
  -22.5040   -8.0660   21.3250 C   0  0  0  0  0  0  0  0  0  0  0  0
  -22.0870   -9.0150   20.3740 C   0  0  0  0  0  3  0  0  0  0  0  0
  -22.8050  -10.2080   20.1910 C   0  0  0  0  0  3  0  0  0  0  0  0
  -21.7550   -6.9190   21.4190 O   0  0  0  0  0  0  0  0  0  0  0  0
  -21.6740   -6.2030   22.5850 C   0  0  0  0  0  0  0  0  0  0  0  0
  -21.1620   -6.7710   23.7730 C   0  0  0  0  0  3  0  0  0  0  0  0
  -21.0320   -5.9800   24.9320 C   0  0  0  0  0  3  0  0  0  0  0  0
  -21.4030   -4.6220   24.9050 C   0  0  0  0  0  0  0  0  0  0  0  0
  -21.9100   -4.0550   23.7230 C   0  0  0  0  0  3  0  0  0  0  0  0
  -22.0420   -4.8420   22.5660 C   0  0  0  0  0  0  0  0  0  0  0  0
  -22.5090   -4.2840   21.4240 F   0  0  0  0  0  0  0  0  0  0  0  0
  -21.2710   -3.8610   26.0160 F   0  0  0  0  0  0  0  0  0  0  0  0
  -22.8250  -13.5670   21.1690 C   0  0  0  0  0  0  0  0  0  0  0  0
  -22.1240  -12.8500   22.0400 N   0  0  0  0  0  0  0  0  0  0  0  0
  -22.3730  -14.6080   20.6920 O   0  0  0  0  0  0  0  0  0  0  0  0
  -22.5020  -12.0090   22.4500 H   0  0  0  0  0  0  0  0  0  0  0  0
  -21.1940  -13.1460   22.3020 H   0  0  0  0  0  0  0  0  0  0  0  0
  -25.4190  -15.2450   20.2750 N   0  0  0  0  0  0  0  0  0  0  0  0
  -24.6470  -15.8870   20.4150 H   0  0  0  0  0  0  0  0  0  0  0  0
  -26.2300  -15.6830   19.8590 H   0  0  0  0  0  0  0  0  0  0  0  0
  -28.5580  -25.7610   21.1900 C   0  0  0  0  0  2  0  0  0  0  0  0
  -28.4310  -26.6990   20.1050 O   0  0  0  0  0  0  0  0  0  0  0  0
  -24.6010  -31.8920   23.1700 C   0  0  0  0  0  0  0  0  0  0  0  0
  -27.2790  -27.4540   20.1150 C   0  0  0  0  0  0  0  0  0  0  0  0
  -23.4100  -30.4870   21.5150 C   0  0  0  0  0  3  0  0  0  0  0  0
  -24.8810  -28.9530   20.1000 C   0  0  0  0  0  0  0  0  0  0  0  0
  -25.9350  -30.8550   21.3350 C   0  0  0  0  0  2  0  0  0  0  0  0
  -26.0320  -29.4820   20.7000 C   0  0  0  0  0  0  0  0  0  0  0  0
  -27.2360  -28.7390   20.7070 C   0  0  0  0  0  3  0  0  0  0  0  0
  -26.1180  -26.9420   19.5040 C   0  0  0  0  0  3  0  0  0  0  0  0
  -24.9190  -27.6820   19.4990 C   0  0  0  0  0  3  0  0  0  0  0  0
  -23.6330  -29.8070   20.1370 C   0  0  0  0  0  2  0  0  0  0  0  0
  -24.6650  -31.0940   22.0640 N   0  0  0  0  0  0  0  0  0  0  0  0
  -23.5150  -32.1570   23.7050 O   0  0  0  0  0  0  0  0  0  0  0  0
  -22.7580  -29.4630   22.4740 C   0  0  0  0  0  0  0  0  0  0  0  0
  -21.4320  -29.2880   22.3560 N   0  0  0  0  0  0  0  0  0  0  0  0
  -23.4440  -28.8260   23.2790 O   0  0  0  0  0  0  0  0  0  0  0  0
  -20.9400  -29.8540   21.6790 H   0  0  0  0  0  0  0  0  0  0  0  0
  -18.0510  -28.1380   22.8980 C   0  0  0  0  0  0  0  0  0  0  0  0
  -20.6170  -28.3470   23.1230 C   0  0  0  0  0  3  0  0  0  0  0  0
  -20.6830  -26.9280   22.5130 C   0  0  0  0  0  2  0  0  0  0  0  0
  -19.5550  -26.6470   21.5140 C   0  0  0  0  0  2  0  0  0  0  0  0
  -18.1900  -26.8010   22.1900 C   0  0  0  0  0  2  0  0  0  0  0  0
  -19.1910  -28.8710   23.3220 C   0  0  0  0  0  0  0  0  0  0  0  0
  -19.0070  -30.1250   23.9460 C   0  0  0  0  0  3  0  0  0  0  0  0
  -17.7160  -30.6450   24.1490 C   0  0  0  0  0  3  0  0  0  0  0  0
  -16.5900  -29.9090   23.7420 C   0  0  0  0  0  3  0  0  0  0  0  0
  -16.7580  -28.6570   23.1220 C   0  0  0  0  0  3  0  0  0  0  0  0
  -25.8800  -32.5300   23.7960 C   0  0  0  0  0  3  0  0  0  0  0  0
  -25.5590  -33.9210   24.1390 N   0  0  0  0  0  0  0  0  0  0  0  0
  -25.8900  -34.9830   23.3900 C   0  0  0  0  0  0  0  0  0  0  0  0
  -26.5680  -34.8950   22.3630 O   0  0  0  0  0  0  0  0  0  0  0  0
  -24.9620  -34.0650   24.9390 H   0  0  0  0  0  0  0  0  0  0  0  0
  -24.1630  -36.7730   23.0270 C   0  0  0  0  0  1  0  0  0  0  0  0
  -25.3890  -36.3630   23.8580 C   0  0  0  0  0  3  0  0  0  0  0  0
  -27.4980  -37.2480   24.7500 C   0  0  0  0  0  1  0  0  0  0  0  0
  -26.4190  -37.4210   23.7800 N   0  0  0  0  0  0  0  0  0  0  0  0
  -26.0050  -38.3380   23.9240 H   0  0  0  0  0  0  0  0  0  0  0  0
  -26.4050  -31.7510   25.0650 C   0  0  1  0  0  0  0  0  0  0  0  0
  -25.3170  -31.4880   26.1300 C   0  0  0  0  0  1  0  0  0  0  0  0
  -27.0070  -30.3860   24.6560 C   0  0  0  0  0  1  0  0  0  0  0  0
  -27.5440  -32.5530   25.7400 C   0  0  0  0  0  1  0  0  0  0  0  0
  1 11  1  0
  1  6  1  0
  3  2  1  0
  4  6  1  0
  4  5  1  0
  5 53  1  0
  5  2  1  0
  6  3  1  0
  7  1  2  0
  8  9  1  0
  9 12  2  0
 10 13  2  0
 11  8  2  0
 11 10  1  0
 12 13  1  0
 12 23  1  0
 13 14  1  0
 15 23  1  0
 16 21  1  0
 17 18  1  0
 17 16  1  0
 19 18  1  0
 19 28  1  0
 19 20  1  0
 21 15  1  0
 21 20  1  0
 22 15  2  0
 23 24  1  0
 25 26  2  0
 26 45  1  0
 27 26  1  0
 27 30  1  0
 28 29  1  0
 28 25  1  0
 29 27  2  0
 30 31  1  0
 31 32  2  0
 33 36  1  0
 33 32  1  0
 34 33  2  0
 35 34  1  0
 35 30  2  0
 36 37  1  0
 37 38  1  0
 38 39  2  0
 40 39  1  0
 40 44  1  0
 41 40  2  0
 42 37  2  0
 42 41  1  0
 43 42  1  0
 45 46  1  0
 46 49  1  0
 46 48  1  0
 47 45  2  0
 50 51  1  0
 50 25  1  0
 52 50  1  0
 54 56  1  0
 54 53  1  0
 55 66  2  0
 56 61  1  0
 57 65  1  0
 57 67  1  0
 58 64  1  0
 58 60  1  0
 59 65  1  0
 60 61  2  0
 60 59  1  0
 62 56  2  0
 63 62  1  0
 63 58  2  0
 64 57  1  0
 65 55  1  0
 67 69  2  0
 68 67  1  0
 70 68  1  0
 71 80  2  0
 71 76  1  0
 72 68  1  0
 72 76  1  0
 73 72  1  0
 74 75  1  0
 74 73  1  0
 75 71  1  0
 76 77  2  0
 77 78  1  0
 79 78  2  0
 80 79  1  0
 81 55  1  0
 81 82  1  0
 81 91  1  0
 82 85  1  0
 83 87  1  0
 83 82  1  0
 84 83  2  0
 87 86  1  0
 89 87  1  0
 89 90  1  0
 89 88  1  0
 91 94  1  1
 91 92  1  0
 93 91  1  0
M  ISO  4  15 100  23 100  53 101  54 101
M  END
>  <TORSDO>  (39) 
F 18

>  <SCORE>  (39) 
-14.940

>  <name>  (39) 
38

>  <ligand_id>  (39) 
38

>  <original_smiles>  (39) 
[H]c1c([H])c([H])c2c(c1[H])C([H])([H])C([H])([H])C([H])([H])C2([H])N([H])C(=O)C1([H])N(C(=O)C([H])(N([H])C(=O)C([H])(N([H])C([H])([H])[H])C([H])([H])[H])C(C([H])([H])[H])(C([H])([H])[H])C([H])([H])[H])C([H])([H])c2c([H])c(OC([H])([H])C3([H])C([H])([H])N(C(=O)c4c([H])c([H])c(N([H])C(=O)N5C([H])([H])C([H])([H])C([H])([H])C([H])(n6nc(-c7c([H])c([H])c(Oc8c([H])c([H])c(F)c([H])c8F)c([H])c7[H])c(C(=O)N([H])[H])c6N([H])[H])C5([H])[H])c(F)c4[H])C([H])([H])C3([H])[H])c([H])c([H])c2C1([H])[H]

>  <smiles>  (39) 
[H]c1c([H])c([H])c2c(c1[H])C([H])([H])C([H])([H])C([H])([H])C2([H])N([H])C(=O)C1([H])N(C(=O)C([H])(N([H])C(=O)C([H])(N([H])C([H])([H])[H])C([H])([H])[H])C(C([H])([H])[H])(C([H])([H])[H])C([H])([H])[H])C([H])([H])c2c([H])c(OC([H])([H])C3([H])C([H])([H])N(C(=O)c4c([H])c([H])c(N([H])C(=O)N5C([H])([H])C([H])([H])C([H])([H])C([H])(n6nc(-c7c([H])c([H])c(Oc8c([H])c([H])c(F)c([H])c8F)c([H])c7[H])c(C(=O)N([H])[H])c6N([H])[H])C5([H])[H])c(F)c4[H])C([H])([H])C3([H])[H])c([H])c([H])c2C1([H])[H]

$$$$
39:0:0
     RDKit          3D

 96105  0  0  1  0  0  0  0  0999 V2000
  -28.4670  -21.0980   18.6620 C   0  0  0  0  0  0  0  0  0  0  0  0
  -27.8340  -22.3720   18.0620 C   0  0  0  0  0  2  0  0  0  0  0  0
  -28.3670  -23.7040   18.6270 C   0  0  0  0  0  2  0  0  0  0  0  0
  -28.9480  -22.4240   20.7030 C   0  0  0  0  0  2  0  0  0  0  0  0
  -28.1540  -23.7120   20.1320 C   0  0  0  0  0  3  0  0  0  0  0  0
  -28.9170  -21.0810   19.9530 N   0  0  0  0  0  0  0  0  0  0  0  0
  -28.5210  -20.1150   17.9160 O   0  0  0  0  0  0  0  0  0  0  0  0
  -30.7820  -20.0670   21.2660 C   0  0  0  0  0  3  0  0  0  0  0  0
  -29.3010  -18.4570   20.2130 C   0  0  0  0  0  3  0  0  0  0  0  0
  -31.2420  -17.6580   21.4400 C   0  0  0  0  0  3  0  0  0  0  0  0
  -29.6280  -19.8610   20.4740 C   0  0  0  0  0  0  0  0  0  0  0  0
  -31.5800  -18.9970   21.7230 C   0  0  0  0  0  0  0  0  0  0  0  0
  -30.1000  -17.3290   20.6780 C   0  0  0  0  0  0  0  0  0  0  0  0
  -30.5760  -14.7680   20.3760 C   0  0  0  0  0  0  0  0  0  0  0  0
  -30.3940  -12.4890   19.3640 C   0  0  0  0  0  2  0  0  0  0  0  0
  -29.4550  -12.5560   18.1400 C   0  0  0  0  0  2  0  0  0  0  0  0
  -27.9840  -12.3840   18.5670 C   0  0  0  0  0  2  0  0  0  0  0  0
  -27.6070  -13.2750   19.7800 C   0  0  0  0  0  3  0  0  0  0  0  0
  -28.6630  -13.1930   20.9020 C   0  0  0  0  0  2  0  0  0  0  0  0
  -29.9560  -13.5450   20.3040 N   0  0  0  0  0  0  0  0  0  0  0  0
  -31.7780  -14.8620   20.1060 O   0  0  0  0  0  0  0  0  0  0  0  0
  -29.7670  -15.8940   20.4800 N   0  0  0  0  0  0  0  0  0  0  0  0
  -28.7810  -15.6870   20.4590 H   0  0  0  0  0  0  0  0  0  0  0  0
  -25.2170  -13.8700   20.4930 C   0  0  0  0  0  0  0  0  0  0  0  0
  -24.1520  -13.0960   20.8610 C   0  0  0  0  0  0  0  0  0  0  0  0
  -24.6170  -11.7460   20.8410 C   0  0  0  0  0  0  0  0  0  0  0  0
  -26.2630  -12.9910   20.2680 N   0  0  0  0  0  0  0  0  0  0  0  0
  -25.9100  -11.7080   20.5410 N   0  0  0  0  0  0  0  0  0  0  0  0
  -23.8920  -10.4840   21.0330 C   0  0  0  0  0  0  0  0  0  0  0  0
  -24.3240   -9.5180   21.9690 C   0  0  0  0  0  3  0  0  0  0  0  0
  -23.6000   -8.3210   22.1480 C   0  0  0  0  0  3  0  0  0  0  0  0
  -22.4280   -8.0790   21.3920 C   0  0  0  0  0  0  0  0  0  0  0  0
  -22.0170   -9.0320   20.4440 C   0  0  0  0  0  3  0  0  0  0  0  0
  -22.7400  -10.2220   20.2630 C   0  0  0  0  0  3  0  0  0  0  0  0
  -21.6750   -6.9350   21.4820 O   0  0  0  0  0  0  0  0  0  0  0  0
  -21.6240   -6.1940   22.6350 C   0  0  0  0  0  0  0  0  0  0  0  0
  -21.1970   -6.7510   23.8600 C   0  0  0  0  0  3  0  0  0  0  0  0
  -21.0950   -5.9360   25.0050 C   0  0  0  0  0  3  0  0  0  0  0  0
  -21.4100   -4.5660   24.9280 C   0  0  0  0  0  0  0  0  0  0  0  0
  -21.8300   -4.0100   23.7070 C   0  0  0  0  0  3  0  0  0  0  0  0
  -21.9340   -4.8220   22.5630 C   0  0  0  0  0  0  0  0  0  0  0  0
  -22.3190   -4.2760   21.3840 F   0  0  0  0  0  0  0  0  0  0  0  0
  -21.3050   -3.7810   26.0240 F   0  0  0  0  0  0  0  0  0  0  0  0
  -22.7510  -13.5710   21.1210 C   0  0  0  0  0  0  0  0  0  0  0  0
  -22.0190  -12.8760   21.9840 N   0  0  0  0  0  0  0  0  0  0  0  0
  -22.3150  -14.5950   20.5930 O   0  0  0  0  0  0  0  0  0  0  0  0
  -22.3870  -12.0450   22.4260 H   0  0  0  0  0  0  0  0  0  0  0  0
  -21.0800  -13.1740   22.2040 H   0  0  0  0  0  0  0  0  0  0  0  0
  -25.3800  -15.2390   20.3060 N   0  0  0  0  0  0  0  0  0  0  0  0
  -24.6080  -15.8900   20.4020 H   0  0  0  0  0  0  0  0  0  0  0  0
  -26.2140  -15.6730   19.9350 H   0  0  0  0  0  0  0  0  0  0  0  0
  -32.7340  -19.2720   22.4580 N   0  0  0  0  0  0  0  0  0  0  0  0
  -33.1490  -20.1930   22.3570 H   0  0  0  0  0  0  0  0  0  0  0  0
  -33.4430  -18.5470   22.5070 H   0  0  0  0  0  0  0  0  0  0  0  0
  -28.3850  -25.1570   20.8290 C   0  0  0  0  0  2  0  0  0  0  0  0
  -28.3320  -26.4800   20.1390 O   0  0  0  0  0  0  0  0  0  0  0  0
  -24.5940  -31.8890   23.2400 C   0  0  0  0  0  0  0  0  0  0  0  0
  -27.1980  -27.3050   20.2040 C   0  0  0  0  0  0  0  0  0  0  0  0
  -23.3880  -30.4870   21.6050 C   0  0  0  0  0  3  0  0  0  0  0  0
  -24.8360  -28.9210   20.1880 C   0  0  0  0  0  0  0  0  0  0  0  0
  -25.9260  -30.8040   21.4130 C   0  0  0  0  0  2  0  0  0  0  0  0
  -26.0070  -29.4170   20.7760 C   0  0  0  0  0  0  0  0  0  0  0  0
  -27.1940  -28.6230   20.7650 C   0  0  0  0  0  3  0  0  0  0  0  0
  -26.0050  -26.8550   19.6080 C   0  0  0  0  0  3  0  0  0  0  0  0
  -24.8380  -27.6470   19.5950 C   0  0  0  0  0  3  0  0  0  0  0  0
  -23.6020  -29.8000   20.2290 C   0  0  0  0  0  2  0  0  0  0  0  0
  -24.6550  -31.0790   22.1430 N   0  0  0  0  0  0  0  0  0  0  0  0
  -23.5120  -32.1660   23.7770 O   0  0  0  0  0  0  0  0  0  0  0  0
  -22.7250  -29.4760   22.5700 C   0  0  0  0  0  0  0  0  0  0  0  0
  -21.4000  -29.2920   22.4410 N   0  0  0  0  0  0  0  0  0  0  0  0
  -23.4050  -28.8550   23.3920 O   0  0  0  0  0  0  0  0  0  0  0  0
  -20.9110  -29.8450   21.7500 H   0  0  0  0  0  0  0  0  0  0  0  0
  -18.0290  -28.0720   22.9200 C   0  0  0  0  0  0  0  0  0  0  0  0
  -20.5830  -28.3550   23.2100 C   0  0  0  0  0  3  0  0  0  0  0  0
  -20.7020  -26.9190   22.6480 C   0  0  0  0  0  2  0  0  0  0  0  0
  -19.6120  -26.5810   21.6250 C   0  0  0  0  0  2  0  0  0  0  0  0
  -18.2240  -26.7200   22.2560 C   0  0  0  0  0  2  0  0  0  0  0  0
  -19.1370  -28.8480   23.3530 C   0  0  0  0  0  0  0  0  0  0  0  0
  -18.9030  -30.1130   23.9330 C   0  0  0  0  0  3  0  0  0  0  0  0
  -17.5930  -30.6050   24.0840 C   0  0  0  0  0  3  0  0  0  0  0  0
  -16.4990  -29.8270   23.6680 C   0  0  0  0  0  3  0  0  0  0  0  0
  -16.7180  -28.5620   23.0930 C   0  0  0  0  0  3  0  0  0  0  0  0
  -25.8770  -32.5260   23.8600 C   0  0  0  0  0  3  0  0  0  0  0  0
  -26.3910  -31.7630   25.1430 C   0  0  1  0  0  0  0  0  0  0  0  0
  -25.2970  -31.5330   26.2130 C   0  0  0  0  0  1  0  0  0  0  0  0
  -26.9710  -30.3830   24.7620 C   0  0  0  0  0  1  0  0  0  0  0  0
  -27.5430  -32.5600   25.8010 C   0  0  0  0  0  1  0  0  0  0  0  0
  -25.5660  -33.9260   24.1830 N   0  0  0  0  0  0  0  0  0  0  0  0
  -25.9060  -34.9780   23.4240 C   0  0  0  0  0  0  0  0  0  0  0  0
  -26.5800  -34.8700   22.3970 O   0  0  0  0  0  0  0  0  0  0  0  0
  -24.9660  -34.0840   24.9800 H   0  0  0  0  0  0  0  0  0  0  0  0
  -24.1860  -36.7780   23.0600 C   0  0  0  0  0  1  0  0  0  0  0  0
  -25.4210  -36.3680   23.8770 C   0  0  0  0  0  3  0  0  0  0  0  0
  -27.5550  -37.2490   24.7170 C   0  0  0  0  0  1  0  0  0  0  0  0
  -26.4570  -37.4200   23.7680 N   0  0  0  0  0  0  0  0  0  0  0  0
  -26.0510  -38.3390   23.9180 H   0  0  0  0  0  0  0  0  0  0  0  0
  1  6  1  0
  2  3  1  0
  2  1  1  0
  3  5  1  0
  5  4  1  0
  5 55  1  0
  6 11  1  0
  6  4  1  0
  7  1  2  0
  8 12  1  0
  9 11  1  0
  9 13  2  0
 10 12  2  0
 11  8  2  0
 12 52  1  0
 13 10  1  0
 14 22  1  0
 15 20  1  0
 16 17  1  0
 16 15  1  0
 18 17  1  0
 18 27  1  0
 18 19  1  0
 20 14  1  0
 20 19  1  0
 21 14  2  0
 22 13  1  0
 23 22  1  0
 24 25  2  0
 25 44  1  0
 26 25  1  0
 26 29  1  0
 27 24  1  0
 27 28  1  0
 28 26  2  0
 29 30  1  0
 30 31  2  0
 32 35  1  0
 32 31  1  0
 33 32  2  0
 34 33  1  0
 34 29  2  0
 35 36  1  0
 36 37  1  0
 37 38  2  0
 39 38  1  0
 39 43  1  0
 40 39  2  0
 41 36  2  0
 41 40  1  0
 42 41  1  0
 44 45  1  0
 45 48  1  0
 45 47  1  0
 46 44  2  0
 49 50  1  0
 49 24  1  0
 51 49  1  0
 52 54  1  0
 53 52  1  0
 56 58  1  0
 56 55  1  0
 57 68  2  0
 58 63  1  0
 59 67  1  0
 59 69  1  0
 60 66  1  0
 60 62  1  0
 61 67  1  0
 62 61  1  0
 63 62  2  0
 64 58  2  0
 65 64  1  0
 65 60  2  0
 66 59  1  0
 67 57  1  0
 69 71  2  0
 70 69  1  0
 72 70  1  0
 73 82  2  0
 73 78  1  0
 74 70  1  0
 74 78  1  0
 75 74  1  0
 76 77  1  0
 76 75  1  0
 77 73  1  0
 78 79  2  0
 79 80  1  0
 81 80  2  0
 82 81  1  0
 83 57  1  0
 83 88  1  0
 83 84  1  0
 84 87  1  1
 84 85  1  0
 86 84  1  0
 88 91  1  0
 89 93  1  0
 89 88  1  0
 90 89  2  0
 93 92  1  0
 95 93  1  0
 95 96  1  0
 95 94  1  0
M  ISO  4  14 100  22 100  55 101  56 101
M  END
>  <TORSDO>  (40) 
F 19

>  <SCORE>  (40) 
-14.678

>  <name>  (40) 
39

>  <ligand_id>  (40) 
39

>  <original_smiles>  (40) 
[H]c1c([H])c([H])c2c(c1[H])C([H])([H])C([H])([H])C([H])([H])C2([H])N([H])C(=O)C1([H])N(C(=O)C([H])(N([H])C(=O)C([H])(N([H])C([H])([H])[H])C([H])([H])[H])C(C([H])([H])[H])(C([H])([H])[H])C([H])([H])[H])C([H])([H])c2c([H])c(OC([H])([H])C3([H])C([H])([H])N(c4c([H])c(N([H])[H])c([H])c(N([H])C(=O)N5C([H])([H])C([H])([H])C([H])([H])C([H])(n6nc(-c7c([H])c([H])c(Oc8c([H])c([H])c(F)c([H])c8F)c([H])c7[H])c(C(=O)N([H])[H])c6N([H])[H])C5([H])[H])c4[H])C(=O)C([H])([H])C3([H])[H])c([H])c([H])c2C1([H])[H]

>  <smiles>  (40) 
[H]c1c([H])c([H])c2c(c1[H])C([H])([H])C([H])([H])C([H])([H])C2([H])N([H])C(=O)C1([H])N(C(=O)C([H])(N([H])C(=O)C([H])(N([H])C([H])([H])[H])C([H])([H])[H])C(C([H])([H])[H])(C([H])([H])[H])C([H])([H])[H])C([H])([H])c2c([H])c(OC([H])([H])C3([H])C([H])([H])N(c4c([H])c(N([H])[H])c([H])c(N([H])C(=O)N5C([H])([H])C([H])([H])C([H])([H])C([H])(n6nc(-c7c([H])c([H])c(Oc8c([H])c([H])c(F)c([H])c8F)c([H])c7[H])c(C(=O)N([H])[H])c6N([H])[H])C5([H])[H])c4[H])C(=O)C([H])([H])C3([H])[H])c([H])c([H])c2C1([H])[H]

$$$$
40:0:0
     RDKit          3D

 93102  0  0  1  0  0  0  0  0999 V2000
  -27.2470  -21.1860   18.3180 C   0  0  0  0  0  0  0  0  0  0  0  0
  -26.2790  -22.3520   18.3800 C   0  0  0  0  0  2  0  0  0  0  0  0
  -27.1120  -23.6120   18.2590 C   0  0  0  0  0  2  0  0  0  0  0  0
  -28.6970  -22.4200   19.8640 C   0  0  0  0  0  2  0  0  0  0  0  0
  -27.8690  -23.8100   19.5820 C   0  0  0  0  0  3  0  0  0  0  0  0
  -28.1790  -21.0810   19.3080 N   0  0  0  0  0  0  0  0  0  0  0  0
  -27.1770  -20.4530   17.3270 O   0  0  0  0  0  0  0  0  0  0  0  0
  -28.0380  -18.5230   19.2510 C   0  0  0  0  0  3  0  0  0  0  0  0
  -28.4720  -17.2150   19.5740 C   0  0  0  0  0  3  0  0  0  0  0  0
  -29.8590  -19.4680   20.4720 C   0  0  0  0  0  3  0  0  0  0  0  0
  -28.7050  -19.7210   19.6680 C   0  0  0  0  0  0  0  0  0  0  0  0
  -29.5830  -16.9690   20.4080 C   0  0  0  0  0  0  0  0  0  0  0  0
  -30.2720  -18.1380   20.8490 C   0  0  0  0  0  0  0  0  0  0  0  0
  -31.3230  -17.9990   21.6930 F   0  0  0  0  0  0  0  0  0  0  0  0
  -29.7500  -15.6670   20.9320 O   0  0  0  0  0  0  0  0  0  0  0  0
  -30.6110  -14.6650   20.4390 C   0  0  0  0  0  0  0  0  0  0  0  0
  -30.3890  -12.4000   19.3750 C   0  0  0  0  0  2  0  0  0  0  0  0
  -29.4660  -12.5780   18.1460 C   0  0  0  0  0  2  0  0  0  0  0  0
  -27.9840  -12.4260   18.5480 C   0  0  0  0  0  2  0  0  0  0  0  0
  -27.6150  -13.2730   19.7960 C   0  0  0  0  0  3  0  0  0  0  0  0
  -28.6530  -13.0970   20.9290 C   0  0  0  0  0  2  0  0  0  0  0  0
  -29.9790  -13.3970   20.3810 N   0  0  0  0  0  0  0  0  0  0  0  0
  -31.7340  -14.8850   19.9860 O   0  0  0  0  0  0  0  0  0  0  0  0
  -25.2130  -13.8930   20.4630 C   0  0  0  0  0  0  0  0  0  0  0  0
  -24.1360  -13.1290   20.8190 C   0  0  0  0  0  0  0  0  0  0  0  0
  -24.5940  -11.7750   20.8150 C   0  0  0  0  0  0  0  0  0  0  0  0
  -26.2570  -13.0040   20.2570 N   0  0  0  0  0  0  0  0  0  0  0  0
  -25.8880  -11.7260   20.5270 N   0  0  0  0  0  0  0  0  0  0  0  0
  -23.8600  -10.5200   21.0100 C   0  0  0  0  0  0  0  0  0  0  0  0
  -24.2800   -9.5600   21.9570 C   0  0  0  0  0  3  0  0  0  0  0  0
  -23.5460   -8.3660   22.1370 C   0  0  0  0  0  3  0  0  0  0  0  0
  -22.3810   -8.1270   21.3720 C   0  0  0  0  0  0  0  0  0  0  0  0
  -21.9820   -9.0780   20.4150 C   0  0  0  0  0  3  0  0  0  0  0  0
  -22.7150  -10.2610   20.2330 C   0  0  0  0  0  3  0  0  0  0  0  0
  -21.6190   -6.9870   21.4630 O   0  0  0  0  0  0  0  0  0  0  0  0
  -21.5630   -6.2490   22.6200 C   0  0  0  0  0  0  0  0  0  0  0  0
  -21.1450   -6.8160   23.8430 C   0  0  0  0  0  3  0  0  0  0  0  0
  -21.0310   -6.0070   24.9920 C   0  0  0  0  0  3  0  0  0  0  0  0
  -21.3270   -4.6330   24.9190 C   0  0  0  0  0  0  0  0  0  0  0  0
  -21.7410   -4.0650   23.7000 C   0  0  0  0  0  3  0  0  0  0  0  0
  -21.8560   -4.8710   22.5540 C   0  0  0  0  0  0  0  0  0  0  0  0
  -22.2330   -4.3160   21.3770 F   0  0  0  0  0  0  0  0  0  0  0  0
  -21.2120   -3.8540   26.0190 F   0  0  0  0  0  0  0  0  0  0  0  0
  -22.7360  -13.6120   21.0590 C   0  0  0  0  0  0  0  0  0  0  0  0
  -21.9910  -12.9270   21.9190 N   0  0  0  0  0  0  0  0  0  0  0  0
  -22.3100  -14.6350   20.5210 O   0  0  0  0  0  0  0  0  0  0  0  0
  -22.3510  -12.1010   22.3720 H   0  0  0  0  0  0  0  0  0  0  0  0
  -21.0490  -13.2330   22.1250 H   0  0  0  0  0  0  0  0  0  0  0  0
  -25.3900  -15.2610   20.2790 N   0  0  0  0  0  0  0  0  0  0  0  0
  -24.6360  -15.9310   20.3850 H   0  0  0  0  0  0  0  0  0  0  0  0
  -26.2710  -15.6940   20.0410 H   0  0  0  0  0  0  0  0  0  0  0  0
  -28.6250  -25.2340   19.5060 C   0  0  0  0  0  2  0  0  0  0  0  0
  -28.3220  -26.4830   20.2580 O   0  0  0  0  0  0  0  0  0  0  0  0
  -24.5920  -31.8790   23.2280 C   0  0  0  0  0  0  0  0  0  0  0  0
  -27.1850  -27.3060   20.1530 C   0  0  0  0  0  0  0  0  0  0  0  0
  -23.3750  -30.4810   21.5940 C   0  0  0  0  0  3  0  0  0  0  0  0
  -24.8170  -28.9230   20.1600 C   0  0  0  0  0  0  0  0  0  0  0  0
  -25.9130  -30.7970   21.3940 C   0  0  0  0  0  2  0  0  0  0  0  0
  -25.9880  -29.4180   20.7430 C   0  0  0  0  0  0  0  0  0  0  0  0
  -27.1720  -28.6190   20.7270 C   0  0  0  0  0  3  0  0  0  0  0  0
  -25.9800  -26.8580   19.5810 C   0  0  0  0  0  3  0  0  0  0  0  0
  -24.8160  -27.6490   19.5700 C   0  0  0  0  0  3  0  0  0  0  0  0
  -23.5770  -29.7940   20.2160 C   0  0  0  0  0  2  0  0  0  0  0  0
  -24.6460  -31.0700   22.1280 N   0  0  0  0  0  0  0  0  0  0  0  0
  -23.5100  -32.1600   23.7680 O   0  0  0  0  0  0  0  0  0  0  0  0
  -22.7160  -29.4680   22.5600 C   0  0  0  0  0  0  0  0  0  0  0  0
  -21.3880  -29.2960   22.4410 N   0  0  0  0  0  0  0  0  0  0  0  0
  -23.3970  -28.8400   23.3740 O   0  0  0  0  0  0  0  0  0  0  0  0
  -20.8980  -29.8550   21.7560 H   0  0  0  0  0  0  0  0  0  0  0  0
  -18.0100  -28.1130   22.9620 C   0  0  0  0  0  0  0  0  0  0  0  0
  -20.5700  -28.3630   23.2160 C   0  0  0  0  0  3  0  0  0  0  0  0
  -20.6620  -26.9310   22.6400 C   0  0  0  0  0  2  0  0  0  0  0  0
  -19.5550  -26.6110   21.6320 C   0  0  0  0  0  2  0  0  0  0  0  0
  -18.1760  -26.7640   22.2840 C   0  0  0  0  0  2  0  0  0  0  0  0
  -19.1340  -28.8720   23.3850 C   0  0  0  0  0  0  0  0  0  0  0  0
  -18.9230  -30.1340   23.9790 C   0  0  0  0  0  3  0  0  0  0  0  0
  -17.6220  -30.6430   24.1480 C   0  0  0  0  0  3  0  0  0  0  0  0
  -16.5120  -29.8830   23.7380 C   0  0  0  0  0  3  0  0  0  0  0  0
  -16.7080  -28.6180   23.1550 C   0  0  0  0  0  3  0  0  0  0  0  0
  -25.8770  -32.5060   23.8470 C   0  0  0  0  0  3  0  0  0  0  0  0
  -26.3970  -31.7340   25.1230 C   0  0  1  0  0  0  0  0  0  0  0  0
  -25.3050  -31.4950   26.1920 C   0  0  0  0  0  1  0  0  0  0  0  0
  -26.9750  -30.3560   24.7290 C   0  0  0  0  0  1  0  0  0  0  0  0
  -27.5540  -32.5250   25.7790 C   0  0  0  0  0  1  0  0  0  0  0  0
  -25.5710  -33.9060   24.1770 N   0  0  0  0  0  0  0  0  0  0  0  0
  -25.9080  -34.9600   23.4210 C   0  0  0  0  0  0  0  0  0  0  0  0
  -26.5780  -34.8560   22.3900 O   0  0  0  0  0  0  0  0  0  0  0  0
  -24.9650  -34.0590   24.9690 H   0  0  0  0  0  0  0  0  0  0  0  0
  -24.1840  -36.7580   23.0730 C   0  0  0  0  0  1  0  0  0  0  0  0
  -25.4240  -36.3470   23.8820 C   0  0  0  0  0  3  0  0  0  0  0  0
  -27.5650  -37.2180   24.7090 C   0  0  0  0  0  1  0  0  0  0  0  0
  -26.4580  -37.3980   23.7730 N   0  0  0  0  0  0  0  0  0  0  0  0
  -26.0550  -38.3160   23.9350 H   0  0  0  0  0  0  0  0  0  0  0  0
  1  2  1  0
  1  6  1  0
  3  2  1  0
  3  5  1  0
  5 52  1  0
  5  4  1  0
  6 11  1  0
  6  4  1  0
  7  1  2  0
  8  9  2  0
  8 11  1  0
  9 12  1  0
 10 13  1  0
 11 10  2  0
 12 13  2  0
 12 15  1  0
 13 14  1  0
 16 15  1  0
 17 22  1  0
 18 19  1  0
 18 17  1  0
 20 19  1  0
 20 27  1  0
 20 21  1  0
 22 16  1  0
 22 21  1  0
 23 16  2  0
 24 25  2  0
 25 44  1  0
 26 25  1  0
 26 29  1  0
 27 24  1  0
 27 28  1  0
 28 26  2  0
 29 30  1  0
 30 31  2  0
 32 35  1  0
 32 31  1  0
 33 32  2  0
 34 33  1  0
 34 29  2  0
 35 36  1  0
 36 37  1  0
 37 38  2  0
 39 38  1  0
 39 43  1  0
 40 39  2  0
 41 36  2  0
 41 40  1  0
 42 41  1  0
 44 45  1  0
 45 48  1  0
 45 47  1  0
 46 44  2  0
 49 50  1  0
 49 24  1  0
 51 49  1  0
 52 53  1  0
 54 65  2  0
 55 53  1  0
 55 60  1  0
 56 64  1  0
 56 66  1  0
 57 63  1  0
 57 59  1  0
 58 64  1  0
 59 58  1  0
 60 59  2  0
 61 55  2  0
 62 61  1  0
 62 57  2  0
 63 56  1  0
 64 54  1  0
 66 68  2  0
 67 66  1  0
 69 67  1  0
 70 79  2  0
 70 75  1  0
 71 67  1  0
 71 75  1  0
 72 71  1  0
 73 74  1  0
 73 72  1  0
 74 70  1  0
 75 76  2  0
 76 77  1  0
 78 77  2  0
 79 78  1  0
 80 54  1  0
 80 85  1  0
 80 81  1  0
 81 84  1  1
 81 82  1  0
 83 81  1  0
 85 88  1  0
 86 90  1  0
 86 85  1  0
 87 86  2  0
 90 89  1  0
 92 90  1  0
 92 93  1  0
 92 91  1  0
M  ISO  4  15 100  16 100  52 101  53 101
M  END
>  <TORSDO>  (41) 
F 19

>  <SCORE>  (41) 
-14.910

>  <name>  (41) 
40

>  <ligand_id>  (41) 
40

>  <original_smiles>  (41) 
[H]c1c([H])c([H])c2c(c1[H])C([H])([H])C([H])([H])C([H])([H])C2([H])N([H])C(=O)C1([H])N(C(=O)C([H])(N([H])C(=O)C([H])(N([H])C([H])([H])[H])C([H])([H])[H])C(C([H])([H])[H])(C([H])([H])[H])C([H])([H])[H])C([H])([H])c2c([H])c(OC([H])([H])C3([H])C([H])([H])N(c4c([H])c([H])c(OC(=O)N5C([H])([H])C([H])([H])C([H])([H])C([H])(n6nc(-c7c([H])c([H])c(Oc8c([H])c([H])c(F)c([H])c8F)c([H])c7[H])c(C(=O)N([H])[H])c6N([H])[H])C5([H])[H])c(F)c4[H])C(=O)C([H])([H])C3([H])[H])c([H])c([H])c2C1([H])[H]

>  <smiles>  (41) 
[H]c1c([H])c([H])c2c(c1[H])C([H])([H])C([H])([H])C([H])([H])C2([H])N([H])C(=O)C1([H])N(C(=O)C([H])(N([H])C(=O)C([H])(N([H])C([H])([H])[H])C([H])([H])[H])C(C([H])([H])[H])(C([H])([H])[H])C([H])([H])[H])C([H])([H])c2c([H])c(OC([H])([H])C3([H])C([H])([H])N(c4c([H])c([H])c(OC(=O)N5C([H])([H])C([H])([H])C([H])([H])C([H])(n6nc(-c7c([H])c([H])c(Oc8c([H])c([H])c(F)c([H])c8F)c([H])c7[H])c(C(=O)N([H])[H])c6N([H])[H])C5([H])[H])c(F)c4[H])C(=O)C([H])([H])C3([H])[H])c([H])c([H])c2C1([H])[H]

$$$$
41:0:0
     RDKit          3D

 93102  0  0  1  0  0  0  0  0999 V2000
  -28.7440  -24.0410   19.0450 C   0  0  0  0  0  0  0  0  0  0  0  0
  -28.4070  -25.3930   19.1370 C   0  0  0  0  0  3  0  0  0  0  0  0
  -28.8340  -23.4340   17.6640 C   0  0  0  0  0  2  0  0  0  0  0  0
  -29.0660  -22.8250   19.9980 C   0  0  0  0  0  2  0  0  0  0  0  0
  -28.7120  -21.9130   17.8110 C   0  0  0  0  0  2  0  0  0  0  0  0
  -29.1100  -21.5560   19.1690 N   0  0  0  0  0  0  0  0  0  0  0  0
  -30.3220  -19.7520   20.5080 C   0  0  0  0  0  3  0  0  0  0  0  0
  -30.6670  -18.3770   20.7570 C   0  0  0  0  0  3  0  0  0  0  0  0
  -29.3200  -17.6720   18.9290 C   0  0  0  0  0  3  0  0  0  0  0  0
  -29.4540  -20.1580   19.4560 C   0  0  0  0  0  0  0  0  0  0  0  0
  -30.1660  -17.2710   19.9950 C   0  0  0  0  0  0  0  0  0  0  0  0
  -28.9720  -19.0420   18.6750 C   0  0  0  0  0  0  0  0  0  0  0  0
  -28.1120  -19.2510   17.6490 F   0  0  0  0  0  0  0  0  0  0  0  0
  -30.8660  -14.7990   19.5690 C   0  0  0  0  0  0  0  0  0  0  0  0
  -30.4480  -12.5960   18.4370 C   0  0  0  0  0  2  0  0  0  0  0  0
  -29.3320  -12.7320   17.3770 C   0  0  0  0  0  2  0  0  0  0  0  0
  -27.9430  -12.5430   18.0150 C   0  0  0  0  0  2  0  0  0  0  0  0
  -27.7770  -13.3670   19.3170 C   0  0  0  0  0  3  0  0  0  0  0  0
  -28.9860  -13.1850   20.2540 C   0  0  0  0  0  2  0  0  0  0  0  0
  -30.1940  -13.5880   19.5110 N   0  0  0  0  0  0  0  0  0  0  0  0
  -31.8800  -14.9600   18.8810 O   0  0  0  0  0  0  0  0  0  0  0  0
  -30.3960  -15.8370   20.3800 N   0  0  0  0  0  0  0  0  0  0  0  0
  -25.5580  -13.9510   20.4670 C   0  0  0  0  0  0  0  0  0  0  0  0
  -24.5370  -13.1740   20.9410 C   0  0  0  0  0  0  0  0  0  0  0  0
  -24.9380  -11.8200   20.7250 C   0  0  0  0  0  0  0  0  0  0  0  0
  -26.5170  -13.0710   19.9910 N   0  0  0  0  0  0  0  0  0  0  0  0
  -26.1590  -11.7780   20.2060 N   0  0  0  0  0  0  0  0  0  0  0  0
  -24.2060  -10.5630   20.9290 C   0  0  0  0  0  0  0  0  0  0  0  0
  -24.6800   -9.5640   21.8080 C   0  0  0  0  0  3  0  0  0  0  0  0
  -23.9480   -8.3740   22.0020 C   0  0  0  0  0  3  0  0  0  0  0  0
  -22.7280   -8.1710   21.3140 C   0  0  0  0  0  0  0  0  0  0  0  0
  -22.2720   -9.1570   20.4220 C   0  0  0  0  0  3  0  0  0  0  0  0
  -23.0030  -10.3400   20.2270 C   0  0  0  0  0  3  0  0  0  0  0  0
  -21.9620   -7.0350   21.4200 O   0  0  0  0  0  0  0  0  0  0  0  0
  -21.8740   -6.3340   22.5950 C   0  0  0  0  0  0  0  0  0  0  0  0
  -21.4250   -6.9360   23.7900 C   0  0  0  0  0  3  0  0  0  0  0  0
  -21.2820   -6.1620   24.9590 C   0  0  0  0  0  3  0  0  0  0  0  0
  -21.5780   -4.7860   24.9330 C   0  0  0  0  0  0  0  0  0  0  0  0
  -22.0190   -4.1830   23.7420 C   0  0  0  0  0  3  0  0  0  0  0  0
  -22.1640   -4.9550   22.5760 C   0  0  0  0  0  0  0  0  0  0  0  0
  -22.5690   -4.3640   21.4260 F   0  0  0  0  0  0  0  0  0  0  0  0
  -21.4330   -4.0400   26.0540 F   0  0  0  0  0  0  0  0  0  0  0  0
  -23.2200  -13.6590   21.4760 C   0  0  0  0  0  0  0  0  0  0  0  0
  -22.6370  -12.9280   22.4190 N   0  0  0  0  0  0  0  0  0  0  0  0
  -22.7250  -14.7170   21.0930 O   0  0  0  0  0  0  0  0  0  0  0  0
  -23.0550  -12.0700   22.7480 H   0  0  0  0  0  0  0  0  0  0  0  0
  -21.7590  -13.2310   22.8180 H   0  0  0  0  0  0  0  0  0  0  0  0
  -25.7430  -15.3280   20.3800 N   0  0  0  0  0  0  0  0  0  0  0  0
  -25.0350  -15.9910   20.6790 H   0  0  0  0  0  0  0  0  0  0  0  0
  -26.5690  -15.7740   20.0000 H   0  0  0  0  0  0  0  0  0  0  0  0
  -29.9560  -16.3310   22.7500 C   0  0  0  0  0  2  0  0  0  0  0  0
  -30.4680  -15.5680   21.7640 C   0  0  0  0  0  3  0  0  0  0  0  0
  -28.2230  -26.3510   20.1630 O   0  0  0  0  0  0  0  0  0  0  0  0
  -24.4960  -31.8070   23.2010 C   0  0  0  0  0  0  0  0  0  0  0  0
  -27.1350  -27.2570   20.0940 C   0  0  0  0  0  0  0  0  0  0  0  0
  -23.2980  -30.4000   21.5660 C   0  0  0  0  0  3  0  0  0  0  0  0
  -24.7550  -28.8730   20.1170 C   0  0  0  0  0  0  0  0  0  0  0  0
  -25.8360  -30.7390   21.3670 C   0  0  0  0  0  2  0  0  0  0  0  0
  -25.9270  -29.3620   20.7080 C   0  0  0  0  0  0  0  0  0  0  0  0
  -27.1190  -28.5640   20.6900 C   0  0  0  0  0  3  0  0  0  0  0  0
  -25.9280  -26.8290   19.4940 C   0  0  0  0  0  3  0  0  0  0  0  0
  -24.7600  -27.6140   19.5000 C   0  0  0  0  0  3  0  0  0  0  0  0
  -23.5100  -29.7350   20.1820 C   0  0  0  0  0  2  0  0  0  0  0  0
  -24.5620  -31.0000   22.1000 N   0  0  0  0  0  0  0  0  0  0  0  0
  -23.4120  -32.0690   23.7430 O   0  0  0  0  0  0  0  0  0  0  0  0
  -22.6510  -29.3730   22.5280 C   0  0  0  0  0  0  0  0  0  0  0  0
  -21.3330  -29.1530   22.3880 N   0  0  0  0  0  0  0  0  0  0  0  0
  -23.3380  -28.7770   23.3620 O   0  0  0  0  0  0  0  0  0  0  0  0
  -20.8350  -29.6880   21.6880 H   0  0  0  0  0  0  0  0  0  0  0  0
  -18.0020  -27.8060   22.8180 C   0  0  0  0  0  0  0  0  0  0  0  0
  -20.5350  -28.1970   23.1580 C   0  0  0  0  0  3  0  0  0  0  0  0
  -20.7240  -26.7570   22.6250 C   0  0  0  0  0  2  0  0  0  0  0  0
  -19.6710  -26.3540   21.5870 C   0  0  0  0  0  2  0  0  0  0  0  0
  -18.2640  -26.4500   22.1850 C   0  0  0  0  0  2  0  0  0  0  0  0
  -19.0700  -28.6320   23.2610 C   0  0  0  0  0  0  0  0  0  0  0  0
  -18.7710  -29.8970   23.8120 C   0  0  0  0  0  3  0  0  0  0  0  0
  -17.4400  -30.3380   23.9250 C   0  0  0  0  0  3  0  0  0  0  0  0
  -16.3860  -29.5110   23.4990 C   0  0  0  0  0  3  0  0  0  0  0  0
  -16.6690  -28.2470   22.9510 C   0  0  0  0  0  3  0  0  0  0  0  0
  -25.7730  -32.4560   23.8150 C   0  0  0  0  0  3  0  0  0  0  0  0
  -25.4460  -33.8490   24.1500 N   0  0  0  0  0  0  0  0  0  0  0  0
  -25.7490  -34.9090   23.3890 C   0  0  0  0  0  0  0  0  0  0  0  0
  -26.4010  -34.8170   22.3450 O   0  0  0  0  0  0  0  0  0  0  0  0
  -24.8640  -33.9940   24.9620 H   0  0  0  0  0  0  0  0  0  0  0  0
  -23.9930  -36.6800   23.0660 C   0  0  0  0  0  1  0  0  0  0  0  0
  -25.2500  -36.2900   23.8570 C   0  0  0  0  0  3  0  0  0  0  0  0
  -27.3860  -37.2020   24.6580 C   0  0  0  0  0  1  0  0  0  0  0  0
  -26.2680  -37.3570   23.7310 N   0  0  0  0  0  0  0  0  0  0  0  0
  -25.8520  -38.2710   23.8860 H   0  0  0  0  0  0  0  0  0  0  0  0
  -26.3060  -31.6900   25.0870 C   0  0  1  0  0  0  0  0  0  0  0  0
  -25.2220  -31.4340   26.1610 C   0  0  0  0  0  1  0  0  0  0  0  0
  -26.9070  -30.3200   24.6920 C   0  0  0  0  0  1  0  0  0  0  0  0
  -27.4490  -32.5010   25.7450 C   0  0  0  0  0  1  0  0  0  0  0  0
  1  2  2  0
  1  4  1  0
  2 53  1  0
  3  5  1  0
  3  1  1  0
  5  6  1  0
  6 10  1  0
  6  4  1  0
  7  8  1  0
  9 11  1  0
 10  7  2  0
 11 22  1  0
 11  8  2  0
 12  9  2  0
 12 10  1  0
 13 12  1  0
 14 22  1  0
 15 20  1  0
 16 17  1  0
 16 15  1  0
 18 17  1  0
 18 26  1  0
 18 19  1  0
 20 14  1  0
 20 19  1  0
 21 14  2  0
 22 52  1  0
 23 24  2  0
 24 43  1  0
 25 28  1  0
 25 24  1  0
 26 27  1  0
 26 23  1  0
 27 25  2  0
 28 29  1  0
 29 30  2  0
 31 34  1  0
 31 30  1  0
 32 31  2  0
 33 32  1  0
 33 28  2  0
 34 35  1  0
 35 36  1  0
 36 37  2  0
 38 37  1  0
 38 42  1  0
 39 38  2  0
 40 35  2  0
 40 39  1  0
 41 40  1  0
 43 44  1  0
 44 46  1  0
 44 47  1  0
 45 43  2  0
 48 23  1  0
 48 49  1  0
 50 48  1  0
 52 51  2  0
 54 65  2  0
 55 53  1  0
 55 60  1  0
 56 64  1  0
 56 66  1  0
 57 63  1  0
 57 59  1  0
 58 64  1  0
 59 58  1  0
 60 59  2  0
 61 62  1  0
 61 55  2  0
 62 57  2  0
 63 56  1  0
 64 54  1  0
 66 68  2  0
 67 66  1  0
 69 67  1  0
 70 79  2  0
 70 75  1  0
 71 67  1  0
 71 75  1  0
 72 71  1  0
 73 74  1  0
 73 72  1  0
 74 70  1  0
 75 76  2  0
 76 77  1  0
 78 77  2  0
 79 78  1  0
 80 54  1  0
 80 81  1  0
 80 90  1  0
 81 84  1  0
 82 86  1  0
 82 81  1  0
 83 82  2  0
 86 85  1  0
 88 86  1  0
 88 89  1  0
 88 87  1  0
 90 93  1  1
 90 91  1  0
 92 90  1  0
M  ISO  4   2 101  14 100  22 100  53 101
M  END
>  <TORSDO>  (42) 
F 18

>  <SCORE>  (42) 
-12.384

>  <name>  (42) 
41

>  <ligand_id>  (42) 
41

>  <original_smiles>  (42) 
[H]C([H])=C([H])N(C(=O)N1C([H])([H])C([H])([H])C([H])([H])C([H])(n2nc(-c3c([H])c([H])c(Oc4c([H])c([H])c(F)c([H])c4F)c([H])c3[H])c(C(=O)N([H])[H])c2N([H])[H])C1([H])[H])c1c([H])c([H])c(N2C([H])([H])C(=C([H])Oc3c([H])c([H])c4c(c3[H])C([H])([H])N(C(=O)C([H])(N([H])C(=O)C([H])(N([H])C([H])([H])[H])C([H])([H])[H])C(C([H])([H])[H])(C([H])([H])[H])C([H])([H])[H])C([H])(C(=O)N([H])C3([H])c5c([H])c([H])c([H])c([H])c5C([H])([H])C([H])([H])C3([H])[H])C4([H])[H])C([H])([H])C2([H])[H])c(F)c1[H]

>  <smiles>  (42) 
[H]C([H])=C([H])N(C(=O)N1C([H])([H])C([H])([H])C([H])([H])C([H])(n2nc(-c3c([H])c([H])c(Oc4c([H])c([H])c(F)c([H])c4F)c([H])c3[H])c(C(=O)N([H])[H])c2N([H])[H])C1([H])[H])c1c([H])c([H])c(N2C([H])([H])C(=C([H])Oc3c([H])c([H])c4c(c3[H])C([H])([H])N(C(=O)C([H])(N([H])C(=O)C([H])(N([H])C([H])([H])[H])C([H])([H])[H])C(C([H])([H])[H])(C([H])([H])[H])C([H])([H])[H])C([H])(C(=O)N([H])C3([H])c5c([H])c([H])c([H])c([H])c5C([H])([H])C([H])([H])C3([H])[H])C4([H])[H])C([H])([H])C2([H])[H])c(F)c1[H]

$$$$
42:0:0
     RDKit          3D

 96 99  0  0  1  0  0  0  0  0999 V2000
  -26.5340  -28.5780   19.0950 C   0  0  0  0  0  2  0  0  0  0  0  0
  -25.9100  -28.3050   17.2770 C   0  0  0  0  0  1  0  0  0  0  0  0
  -25.4360  -26.4450   16.6370 C   0  0  0  0  0 15  0  0  0  0  0  0
  -25.5160  -24.7540   19.4140 C   0  0  0  0  0  2  0  0  0  0  0  0
  -25.7990  -24.7510   17.6370 C   0  0  0  0  0  2  0  0  0  0  0  0
  -26.3010  -26.0300   20.4310 N   0  0  0  0  0  1  0  0  0  0  0  0
  -27.2060  -29.6190   19.2500 O   0  0  0  0  0  1  0  0  0  0  0  0
  -26.7310  -22.6440   21.2320 C   0  0  0  0  0  3  0  0  0  0  0  0
  -28.4410  -23.1620   20.3980 C   0  0  0  0  0  3  0  0  0  0  0  0
  -27.2040  -21.0480   21.2260 C   0  0  0  0  0  0  0  0  0  0  0  0
  -27.1740  -24.1250   20.7660 C   0  0  0  0  0  3  0  0  0  0  0  0
  -28.4110  -20.1210   20.7090 C   0  0  0  0  0  3  0  0  0  0  0  0
  -28.9420  -21.5780   20.3210 C   0  0  0  0  0  0  0  0  0  0  0  0
  -26.1680  -20.1930   21.9420 C   0  0  0  0  0  1  0  0  0  0  0  0
  -30.1770  -21.5000   19.7660 F   0  0  0  0  0  0  0  0  0  0  0  0
  -29.7510  -16.5800   20.4460 C   0  0  0  0  0  0  0  0  0  0  0  0
  -30.2730  -13.8230   19.6440 C   0  0  0  0  0  2  0  0  0  0  0  0
  -29.5700  -12.9920   18.4850 C   0  0  0  0  0  2  0  0  0  0  0  0
  -28.2300  -12.4000   18.9230 C   0  0  0  0  0  2  0  0  0  0  0  0
  -27.5530  -13.4190   19.8530 C   0  0  0  0  0  3  0  0  0  0  0  0
  -28.4480  -14.0650   20.9610 C   0  0  0  0  0  2  0  0  0  0  0  0
  -29.4360  -15.0230   20.3260 N   0  0  0  0  0  0  0  0  0  0  0  0
  -30.9940  -16.4320   20.2130 O   0  0  0  0  0  0  0  0  0  0  0  0
  -28.9300  -18.1420   20.8180 N   0  0  0  0  0  2  0  0  0  0  0  0
  -25.2000  -13.8460   20.5940 C   0  0  0  0  0  0  0  0  0  0  0  0
  -24.1520  -13.0450   20.9340 C   0  0  0  0  0  0  0  0  0  0  0  0
  -24.6400  -11.7000   20.8750 C   0  0  0  0  0  0  0  0  0  0  0  0
  -26.2550  -12.9990   20.3450 N   0  0  0  0  0  0  0  0  0  0  0  0
  -25.9390  -11.6930   20.5700 N   0  0  0  0  0  0  0  0  0  0  0  0
  -23.9160  -10.4300   21.0350 C   0  0  0  0  0  0  0  0  0  0  0  0
  -24.3690   -9.4220   21.9150 C   0  0  0  0  0  3  0  0  0  0  0  0
  -23.6340   -8.2260   22.0740 C   0  0  0  0  0  3  0  0  0  0  0  0
  -22.4310   -8.0290   21.3540 C   0  0  0  0  0  0  0  0  0  0  0  0
  -21.9970   -9.0260   20.4630 C   0  0  0  0  0  3  0  0  0  0  0  0
  -22.7320  -10.2130   20.3020 C   0  0  0  0  0  3  0  0  0  0  0  0
  -21.6660   -6.8890   21.4240 O   0  0  0  0  0  0  0  0  0  0  0  0
  -21.6870   -6.0740   22.5280 C   0  0  0  0  0  0  0  0  0  0  0  0
  -21.4040   -6.5640   23.8210 C   0  0  0  0  0  3  0  0  0  0  0  0
  -21.3670   -5.6790   24.9170 C   0  0  0  0  0  3  0  0  0  0  0  0
  -21.6050   -4.3060   24.7220 C   0  0  0  0  0  0  0  0  0  0  0  0
  -21.8820   -3.8150   23.4340 C   0  0  0  0  0  3  0  0  0  0  0  0
  -21.9200   -4.6970   22.3400 C   0  0  0  0  0  0  0  0  0  0  0  0
  -22.1660   -4.2150   21.0980 F   0  0  0  0  0  0  0  0  0  0  0  0
  -21.5620   -3.4540   25.7730 F   0  0  0  0  0  0  0  0  0  0  0  0
  -22.7520  -13.5090   21.1980 C   0  0  0  0  0  0  0  0  0  0  0  0
  -22.0260  -12.8020   22.0540 N   0  0  0  0  0  0  0  0  0  0  0  0
  -22.3170  -14.5400   20.6850 O   0  0  0  0  0  0  0  0  0  0  0  0
  -22.3990  -11.9720   22.4890 H   0  0  0  0  0  0  0  0  0  0  0  0
  -21.0870  -13.0940   22.2820 H   0  0  0  0  0  0  0  0  0  0  0  0
  -25.3440  -15.2230   20.4420 N   0  0  0  0  0  0  0  0  0  0  0  0
  -24.5650  -15.8620   20.5490 H   0  0  0  0  0  0  0  0  0  0  0  0
  -26.1880  -15.6730   20.1180 H   0  0  0  0  0  0  0  0  0  0  0  0
  -30.0210  -18.7850   22.9320 C   0  0  0  0  0  1  0  0  0  0  0  0
  -28.8710  -17.9910   22.2780 C   0  0  0  0  0  2  0  0  0  0  0  0
  -27.5680  -24.4320   17.9560 C   0  0  0  0  0  2  0  0  0  0  0  0
  -28.4470  -25.5010   19.0670 O   0  0  0  0  0  0  0  0  0  0  0  0
  -24.6710  -31.6950   23.1590 C   0  0  0  0  0  0  0  0  0  0  0  0
  -28.1960  -26.8810   19.5090 C   0  0  0  0  0  3  0  0  0  0  0  0
  -23.5090  -30.1730   21.5700 C   0  0  0  0  0  3  0  0  0  0  0  0
  -24.7240  -27.9330   20.5100 C   0  0  0  0  0  3  0  0  0  0  0  0
  -26.0210  -29.9890   21.7880 C   0  0  0  0  0  2  0  0  0  0  0  0
  -26.0990  -28.3600   21.4350 C   0  0  0  0  0  3  0  0  0  0  0  0
  -27.7260  -27.7670   21.0420 C   0  0  0  0  0  2  0  0  0  0  0  0
  -26.9980  -26.5310   18.4350 C   0  0  0  0  0  1  0  0  0  0  0  0
  -24.8880  -27.0030   19.0260 C   0  0  0  0  0  1  0  0  0  0  0  0
  -23.7300  -29.1740   20.3640 C   0  0  0  0  0  2  0  0  0  0  0  0
  -24.7600  -30.6810   22.2110 N   0  0  0  0  0  0  0  0  0  0  0  0
  -23.5730  -32.0980   23.5720 O   0  0  0  0  0  0  0  0  0  0  0  0
  -22.7260  -29.3560   22.5810 C   0  0  0  0  0  0  0  0  0  0  0  0
  -21.4020  -29.2720   22.4110 N   0  0  0  0  0  0  0  0  0  0  0  0
  -23.3350  -28.7390   23.4570 O   0  0  0  0  0  0  0  0  0  0  0  0
  -20.9650  -29.8100   21.6740 H   0  0  0  0  0  0  0  0  0  0  0  0
  -18.0100  -28.1380   22.8460 C   0  0  0  0  0  0  0  0  0  0  0  0
  -20.5560  -28.3490   23.1540 C   0  0  0  0  0  3  0  0  0  0  0  0
  -20.6510  -26.9250   22.5590 C   0  0  0  0  0  2  0  0  0  0  0  0
  -19.5610  -26.6350   21.5250 C   0  0  0  0  0  2  0  0  0  0  0  0
  -18.1750  -26.7940   22.1570 C   0  0  0  0  0  2  0  0  0  0  0  0
  -19.1320  -28.8810   23.2940 C   0  0  0  0  0  0  0  0  0  0  0  0
  -18.9320  -30.1420   23.8940 C   0  0  0  0  0  3  0  0  0  0  0  0
  -17.6350  -30.6600   24.0560 C   0  0  0  0  0  3  0  0  0  0  0  0
  -16.5230  -29.9140   23.6290 C   0  0  0  0  0  3  0  0  0  0  0  0
  -16.7110  -28.6550   23.0290 C   0  0  0  0  0  3  0  0  0  0  0  0
  -25.9290  -32.3830   23.7920 C   0  0  0  0  0  3  0  0  0  0  0  0
  -26.4540  -31.6430   25.0920 C   0  0  1  0  0  0  0  0  0  0  0  0
  -25.3460  -31.4100   26.1480 C   0  0  0  0  0  1  0  0  0  0  0  0
  -27.0710  -30.2590   24.7980 C   0  0  0  0  0  1  0  0  0  0  0  0
  -27.5910  -32.4620   25.7470 C   0  0  0  0  0  1  0  0  0  0  0  0
  -25.5790  -33.7840   24.1560 N   0  0  0  0  0  0  0  0  0  0  0  0
  -25.9160  -34.8960   23.4820 C   0  0  0  0  0  0  0  0  0  0  0  0
  -26.5990  -34.8630   22.4570 O   0  0  0  0  0  0  0  0  0  0  0  0
  -24.9560  -33.8890   24.9430 H   0  0  0  0  0  0  0  0  0  0  0  0
  -24.1500  -36.6950   23.2660 C   0  0  0  0  0  1  0  0  0  0  0  0
  -25.4170  -36.2590   24.0210 C   0  0  0  0  0  3  0  0  0  0  0  0
  -27.5550  -37.1580   24.8440 C   0  0  0  0  0  1  0  0  0  0  0  0
  -26.4240  -37.3440   23.9400 N   0  0  0  0  0  0  0  0  0  0  0  0
  -26.0010  -38.2460   24.1440 H   0  0  0  0  0  0  0  0  0  0  0  0
  1  7  1  0
  2  1  1  0
  4  6  1  0
  5 55  1  0
  5  4  1  0
  9 11  1  0
 10  8  1  0
 10 14  1  0
 11  8  2  0
 12 10  2  0
 13  9  2  0
 13 12  1  0
 15 13  1  0
 16 24  1  0
 17 22  1  0
 18 19  1  0
 18 17  1  0
 20 19  1  0
 20 28  1  0
 20 21  1  0
 22 16  1  0
 22 21  1  0
 23 16  2  0
 24 54  1  0
 25 26  2  0
 26 45  1  0
 27 26  1  0
 27 30  1  0
 28 29  1  0
 28 25  1  0
 29 27  2  0
 30 31  1  0
 31 32  2  0
 33 36  1  0
 33 32  1  0
 34 33  2  0
 35 34  1  0
 35 30  2  0
 36 37  1  0
 37 38  1  0
 38 39  2  0
 40 39  1  0
 40 44  1  0
 41 40  2  0
 42 37  2  0
 42 41  1  0
 43 42  1  0
 45 46  1  0
 46 49  1  0
 46 48  1  0
 47 45  2  0
 50 51  1  0
 50 25  1  0
 52 50  1  0
 54 53  1  0
 55 56  1  0
 56 58  1  0
 57 68  2  0
 58 64  1  0
 58 63  1  0
 59 67  1  0
 59 69  1  0
 60 65  1  0
 60 62  1  0
 61 67  1  0
 62 63  1  0
 62 61  1  0
 66 60  1  0
 66 59  1  0
 67 57  1  0
 69 71  2  0
 70 69  1  0
 72 70  1  0
 73 82  2  0
 73 78  1  0
 74 70  1  0
 74 78  1  0
 75 74  1  0
 76 77  1  0
 76 75  1  0
 77 73  1  0
 78 79  2  0
 79 80  1  0
 81 80  2  0
 82 81  1  0
 83 57  1  0
 83 88  1  0
 83 84  1  0
 84 87  1  1
 84 85  1  0
 86 84  1  0
 88 91  1  0
 89 93  1  0
 89 88  1  0
 90 89  2  0
 93 92  1  0
 95 93  1  0
 95 96  1  0
 95 94  1  0
M  ISO  4  16 100  24 100  55 101  56 101
M  END
>  <TORSDO>  (43) 
F 19

>  <SCORE>  (43) 
0.434

>  <name>  (43) 
42

>  <ligand_id>  (43) 
42

>  <original_smiles>  (43) 
[H]c1c([H])c([H])c2c(c1[H])C([H])([H])C([H])([H])C([H])([H])C2([H])N([H])C(=O)C1([H])N(C(=O)C([H])(N([H])C(=O)C([H])(N([H])C([H])([H])[H])C([H])([H])[H])C(C([H])([H])[H])(C([H])([H])[H])C([H])([H])[H])C([H])([H])c2c([H])c(OC([H])([H])C3([H])C([H])([H])N(c4c([H])c(F)c(N(C(=O)N5C([H])([H])C([H])([H])C([H])([H])C([H])(n6nc(-c7c([H])c([H])c(Oc8c([H])c([H])c(F)c([H])c8F)c([H])c7[H])c(C(=O)N([H])[H])c6N([H])[H])C5([H])[H])C([H])([H])C([H])([H])[H])c(C([H])([H])[H])c4[H])C(=O)C([H])([H])C3([H])[H])c([H])c([H])c2C1([H])[H]

>  <smiles>  (43) 
[H]c1c([H])c([H])c2c(c1[H])C([H])([H])C([H])([H])C([H])([H])C2([H])N([H])C(=O)C1([H])N(C(=O)C([H])(N([H])C(=O)C([H])(N([H])C([H])([H])[H])C([H])([H])[H])C(C([H])([H])[H])(C([H])([H])[H])C([H])([H])[H])C([H])([H])c2c([H])c(OC([H])([H])C3([H])C([H])([H])N(c4c([H])c(F)c(N(C(=O)N5C([H])([H])C([H])([H])C([H])([H])C([H])(n6nc(-c7c([H])c([H])c(Oc8c([H])c([H])c(F)c([H])c8F)c([H])c7[H])c(C(=O)N([H])[H])c6N([H])[H])C5([H])[H])C([H])([H])C([H])([H])[H])c(C([H])([H])[H])c4[H])C(=O)C([H])([H])C3([H])[H])c([H])c([H])c2C1([H])[H]

$$$$
43:0:0
     RDKit          3D

 95104  0  0  1  0  0  0  0  0999 V2000
  -26.8240  -22.7810   20.8260 C   0  0  0  0  0  0  0  0  0  0  0  0
  -26.7130  -23.9730   21.7630 C   0  0  0  0  0  2  0  0  0  0  0  0
  -28.1600  -24.4430   21.8470 C   0  0  0  0  0  2  0  0  0  0  0  0
  -28.7460  -24.0130   20.4950 C   0  0  0  0  0  3  0  0  0  0  0  0
  -28.0650  -22.6660   20.3030 N   0  0  0  0  0  0  0  0  0  0  0  0
  -25.8630  -22.0410   20.5950 O   0  0  0  0  0  0  0  0  0  0  0  0
  -30.4460  -19.8030   19.2460 C   0  0  0  0  0  3  0  0  0  0  0  0
  -29.8760  -21.1090   19.3840 C   0  0  0  0  0  3  0  0  0  0  0  0
  -28.1150  -20.1320   20.6830 C   0  0  0  0  0  3  0  0  0  0  0  0
  -29.8850  -18.6210   19.8260 C   0  0  0  0  0  0  0  0  0  0  0  0
  -28.6850  -21.3260   20.1210 C   0  0  0  0  0  0  0  0  0  0  0  0
  -28.6840  -18.8260   20.5470 C   0  0  0  0  0  0  0  0  0  0  0  0
  -28.0810  -17.7820   21.1660 F   0  0  0  0  0  0  0  0  0  0  0  0
  -30.8090  -14.8290   19.6570 C   0  0  0  0  0  0  0  0  0  0  0  0
  -30.4060  -12.5670   18.7080 C   0  0  0  0  0  2  0  0  0  0  0  0
  -29.3840  -12.6790   17.5610 C   0  0  0  0  0  2  0  0  0  0  0  0
  -27.9540  -12.5430   18.1180 C   0  0  0  0  0  2  0  0  0  0  0  0
  -27.7050  -13.4430   19.3610 C   0  0  0  0  0  3  0  0  0  0  0  0
  -28.8570  -13.3580   20.3870 C   0  0  0  0  0  2  0  0  0  0  0  0
  -30.1000  -13.6520   19.6680 N   0  0  0  0  0  0  0  0  0  0  0  0
  -31.9650  -14.8040   19.2280 O   0  0  0  0  0  0  0  0  0  0  0  0
  -30.6960  -17.2980   19.8120 C   0  0  0  0  0  0  0  0  0  0  0  0
  -30.1490  -16.0260   19.8990 N   0  0  0  0  0  0  0  0  0  0  0  0
  -31.9140  -17.4670   19.6810 O   0  0  0  0  0  0  0  0  0  0  0  0
  -29.1670  -15.9680   20.1080 H   0  0  0  0  0  0  0  0  0  0  0  0
  -25.4450  -14.0700   20.3950 C   0  0  0  0  0  0  0  0  0  0  0  0
  -24.3840  -13.3130   20.8140 C   0  0  0  0  0  0  0  0  0  0  0  0
  -24.7680  -11.9510   20.6170 C   0  0  0  0  0  0  0  0  0  0  0  0
  -26.4070  -13.1700   19.9700 N   0  0  0  0  0  0  0  0  0  0  0  0
  -26.0150  -11.8850   20.1650 N   0  0  0  0  0  0  0  0  0  0  0  0
  -24.0000  -10.7090   20.7810 C   0  0  0  0  0  0  0  0  0  0  0  0
  -24.4130   -9.6970   21.6750 C   0  0  0  0  0  3  0  0  0  0  0  0
  -23.6450   -8.5210   21.8290 C   0  0  0  0  0  3  0  0  0  0  0  0
  -22.4510   -8.3510   21.0890 C   0  0  0  0  0  0  0  0  0  0  0  0
  -22.0560   -9.3530   20.1840 C   0  0  0  0  0  3  0  0  0  0  0  0
  -22.8240  -10.5200   20.0280 C   0  0  0  0  0  3  0  0  0  0  0  0
  -21.6570   -7.2310   21.1530 O   0  0  0  0  0  0  0  0  0  0  0  0
  -21.5170   -6.5140   22.3140 C   0  0  0  0  0  0  0  0  0  0  0  0
  -21.0330   -7.1050   23.5000 C   0  0  0  0  0  3  0  0  0  0  0  0
  -20.8380   -6.3160   24.6520 C   0  0  0  0  0  3  0  0  0  0  0  0
  -21.1190   -4.9360   24.6170 C   0  0  0  0  0  0  0  0  0  0  0  0
  -21.5960   -4.3450   23.4330 C   0  0  0  0  0  3  0  0  0  0  0  0
  -21.7910   -5.1310   22.2840 C   0  0  0  0  0  0  0  0  0  0  0  0
  -22.2310   -4.5530   21.1410 F   0  0  0  0  0  0  0  0  0  0  0  0
  -20.9260   -4.1760   25.7190 F   0  0  0  0  0  0  0  0  0  0  0  0
  -23.0520  -13.8260   21.2760 C   0  0  0  0  0  0  0  0  0  0  0  0
  -22.3930  -13.0940   22.1670 N   0  0  0  0  0  0  0  0  0  0  0  0
  -22.6100  -14.9050   20.8850 O   0  0  0  0  0  0  0  0  0  0  0  0
  -22.7680  -12.2200   22.5040 H   0  0  0  0  0  0  0  0  0  0  0  0
  -21.5030  -13.4150   22.5220 H   0  0  0  0  0  0  0  0  0  0  0  0
  -25.6620  -15.4420   20.3170 N   0  0  0  0  0  0  0  0  0  0  0  0
  -24.9590  -16.1160   20.5990 H   0  0  0  0  0  0  0  0  0  0  0  0
  -26.4800  -15.8760   19.9100 H   0  0  0  0  0  0  0  0  0  0  0  0
  -28.3960  -25.1780   19.4410 C   0  0  0  0  0  2  0  0  0  0  0  0
  -28.3860  -26.6140   19.8770 O   0  0  0  0  0  0  0  0  0  0  0  0
  -24.5310  -31.7930   23.1600 C   0  0  0  0  0  0  0  0  0  0  0  0
  -27.2190  -27.4080   19.8870 C   0  0  0  0  0  0  0  0  0  0  0  0
  -23.3360  -30.3950   21.5190 C   0  0  0  0  0  3  0  0  0  0  0  0
  -24.7980  -28.9460   20.0070 C   0  0  0  0  0  0  0  0  0  0  0  0
  -25.8610  -30.8120   21.2760 C   0  0  0  0  0  2  0  0  0  0  0  0
  -25.9680  -29.4560   20.5810 C   0  0  0  0  0  0  0  0  0  0  0  0
  -27.1780  -28.6990   20.5100 C   0  0  0  0  0  3  0  0  0  0  0  0
  -26.0140  -26.9620   19.2950 C   0  0  0  0  0  3  0  0  0  0  0  0
  -24.8230  -27.7060   19.3580 C   0  0  0  0  0  3  0  0  0  0  0  0
  -23.5300  -29.7700   20.1150 C   0  0  0  0  0  2  0  0  0  0  0  0
  -24.5960  -31.0190   22.0380 N   0  0  0  0  0  0  0  0  0  0  0  0
  -23.4540  -32.0100   23.7340 O   0  0  0  0  0  0  0  0  0  0  0  0
  -22.7460  -29.3230   22.4660 C   0  0  0  0  0  0  0  0  0  0  0  0
  -21.4330  -29.0660   22.3470 N   0  0  0  0  0  0  0  0  0  0  0  0
  -23.4690  -28.7250   23.2670 O   0  0  0  0  0  0  0  0  0  0  0  0
  -20.9060  -29.5970   21.6680 H   0  0  0  0  0  0  0  0  0  0  0  0
  -18.1470  -27.6420   22.8380 C   0  0  0  0  0  0  0  0  0  0  0  0
  -20.6820  -28.0700   23.1120 C   0  0  0  0  0  3  0  0  0  0  0  0
  -20.8810  -26.6530   22.5260 C   0  0  0  0  0  2  0  0  0  0  0  0
  -19.8040  -26.2670   21.5080 C   0  0  0  0  0  2  0  0  0  0  0  0
  -18.4160  -26.3130   22.1540 C   0  0  0  0  0  2  0  0  0  0  0  0
  -19.2120  -28.4750   23.2750 C   0  0  0  0  0  0  0  0  0  0  0  0
  -18.9070  -29.7160   23.8750 C   0  0  0  0  0  3  0  0  0  0  0  0
  -17.5700  -30.1250   24.0450 C   0  0  0  0  0  3  0  0  0  0  0  0
  -16.5200  -29.2900   23.6250 C   0  0  0  0  0  3  0  0  0  0  0  0
  -16.8110  -28.0520   23.0250 C   0  0  0  0  0  3  0  0  0  0  0  0
  -25.8050  -32.4630   23.7600 C   0  0  0  0  0  3  0  0  0  0  0  0
  -25.4510  -33.8460   24.1150 N   0  0  0  0  0  0  0  0  0  0  0  0
  -25.7280  -34.9200   23.3660 C   0  0  0  0  0  0  0  0  0  0  0  0
  -26.3780  -34.8570   22.3200 O   0  0  0  0  0  0  0  0  0  0  0  0
  -24.8640  -33.9650   24.9270 H   0  0  0  0  0  0  0  0  0  0  0  0
  -23.9330  -36.6610   23.0700 C   0  0  0  0  0  1  0  0  0  0  0  0
  -25.2000  -36.2840   23.8550 C   0  0  0  0  0  3  0  0  0  0  0  0
  -27.3120  -37.2300   24.6750 C   0  0  0  0  0  1  0  0  0  0  0  0
  -26.1940  -37.3740   23.7460 N   0  0  0  0  0  0  0  0  0  0  0  0
  -25.7580  -38.2770   23.9100 H   0  0  0  0  0  0  0  0  0  0  0  0
  -26.3740  -31.6980   25.0170 C   0  0  1  0  0  0  0  0  0  0  0  0
  -25.3140  -31.4050   26.1040 C   0  0  0  0  0  1  0  0  0  0  0  0
  -27.0020  -30.3480   24.6010 C   0  0  0  0  0  1  0  0  0  0  0  0
  -27.5050  -32.5280   25.6670 C   0  0  0  0  0  1  0  0  0  0  0  0
  1  2  1  0
  2  3  1  0
  4 54  1  0
  4  3  1  0
  5  4  1  0
  5  1  1  0
  6  1  2  0
  7  8  2  0
  7 10  1  0
  8 11  1  0
 10 12  2  0
 11  5  1  0
 11  9  2  0
 12  9  1  0
 12 13  1  0
 14 20  1  0
 14 23  1  0
 15 20  1  0
 16 17  1  0
 16 15  1  0
 18 17  1  0
 18 29  1  0
 18 19  1  0
 20 19  1  0
 21 14  2  0
 22 10  1  0
 22 23  1  0
 23 25  1  0
 24 22  2  0
 26 27  2  0
 27 46  1  0
 28 31  1  0
 28 27  1  0
 29 30  1  0
 29 26  1  0
 30 28  2  0
 31 32  1  0
 32 33  2  0
 34 37  1  0
 34 33  1  0
 35 34  2  0
 36 35  1  0
 36 31  2  0
 37 38  1  0
 38 39  1  0
 39 40  2  0
 41 40  1  0
 41 45  1  0
 42 41  2  0
 43 38  2  0
 43 42  1  0
 44 43  1  0
 46 47  1  0
 47 49  1  0
 47 50  1  0
 48 46  2  0
 51 26  1  0
 51 52  1  0
 53 51  1  0
 54 55  1  0
 55 57  1  0
 56 67  2  0
 57 62  1  0
 58 66  1  0
 58 68  1  0
 59 65  1  0
 59 61  1  0
 60 66  1  0
 61 60  1  0
 62 61  2  0
 63 64  1  0
 63 57  2  0
 64 59  2  0
 65 58  1  0
 66 56  1  0
 68 70  2  0
 69 68  1  0
 71 69  1  0
 72 81  2  0
 72 77  1  0
 73 69  1  0
 73 77  1  0
 74 73  1  0
 75 76  1  0
 75 74  1  0
 76 72  1  0
 77 78  2  0
 78 79  1  0
 80 79  2  0
 81 80  1  0
 82 56  1  0
 82 83  1  0
 82 92  1  0
 83 86  1  0
 84 88  1  0
 84 83  1  0
 85 84  2  0
 88 87  1  0
 90 88  1  0
 90 91  1  0
 90 89  1  0
 92 95  1  1
 92 93  1  0
 94 92  1  0
M  ISO  4  14 100  23 100  54 101  55 101
M  END
>  <TORSDO>  (44) 
F 18

>  <SCORE>  (44) 
-12.730

>  <name>  (44) 
43

>  <ligand_id>  (44) 
43

>  <original_smiles>  (44) 
[H]c1c([H])c([H])c2c(c1[H])C([H])([H])C([H])([H])C([H])([H])C2([H])N([H])C(=O)C1([H])N(C(=O)C([H])(N([H])C(=O)C([H])(N([H])C([H])([H])[H])C([H])([H])[H])C(C([H])([H])[H])(C([H])([H])[H])C([H])([H])[H])C([H])([H])c2c([H])c(OC([H])([H])C3([H])N(c4c([H])c([H])c(C(=O)N([H])C(=O)N5C([H])([H])C([H])([H])C([H])([H])C([H])(n6nc(-c7c([H])c([H])c(Oc8c([H])c([H])c(F)c([H])c8F)c([H])c7[H])c(C(=O)N([H])[H])c6N([H])[H])C5([H])[H])c(F)c4[H])C(=O)C([H])([H])C3([H])[H])c([H])c([H])c2C1([H])[H]

>  <smiles>  (44) 
[H]c1c([H])c([H])c2c(c1[H])C([H])([H])C([H])([H])C([H])([H])C2([H])N([H])C(=O)C1([H])N(C(=O)C([H])(N([H])C(=O)C([H])(N([H])C([H])([H])[H])C([H])([H])[H])C(C([H])([H])[H])(C([H])([H])[H])C([H])([H])[H])C([H])([H])c2c([H])c(OC([H])([H])C3([H])N(c4c([H])c([H])c(C(=O)N([H])C(=O)N5C([H])([H])C([H])([H])C([H])([H])C([H])(n6nc(-c7c([H])c([H])c(Oc8c([H])c([H])c(F)c([H])c8F)c([H])c7[H])c(C(=O)N([H])[H])c6N([H])[H])C5([H])[H])c(F)c4[H])C(=O)C([H])([H])C3([H])[H])c([H])c([H])c2C1([H])[H]

$$$$
44:0:0
     RDKit          3D

 94103  0  0  1  0  0  0  0  0999 V2000
  -30.9930  -21.9280   21.3880 C   0  0  0  0  0  0  0  0  0  0  0  0
  -31.0610  -23.4120   21.7820 C   0  0  0  0  0  2  0  0  0  0  0  0
  -29.8100  -24.2280   21.4340 C   0  0  0  0  0  2  0  0  0  0  0  0
  -29.2300  -22.4840   19.7170 C   0  0  0  0  0  2  0  0  0  0  0  0
  -29.4780  -24.0480   19.9570 C   0  0  0  0  0  3  0  0  0  0  0  0
  -30.1850  -21.5100   20.3720 N   0  0  0  0  0  0  0  0  0  0  0  0
  -31.7290  -21.1570   22.0150 O   0  0  0  0  0  0  0  0  0  0  0  0
  -31.1750  -19.3430   19.4970 C   0  0  0  0  0  3  0  0  0  0  0  0
  -31.2710  -17.9150   19.5400 C   0  0  0  0  0  3  0  0  0  0  0  0
  -29.2450  -17.8400   20.8230 C   0  0  0  0  0  3  0  0  0  0  0  0
  -30.1280  -20.0570   20.1480 C   0  0  0  0  0  0  0  0  0  0  0  0
  -30.3370  -17.1150   20.2570 C   0  0  0  0  0  0  0  0  0  0  0  0
  -29.1390  -19.2610   20.7760 C   0  0  0  0  0  0  0  0  0  0  0  0
  -28.1090  -19.8640   21.4180 F   0  0  0  0  0  0  0  0  0  0  0  0
  -30.9240  -14.6740   19.6740 C   0  0  0  0  0  0  0  0  0  0  0  0
  -30.4440  -12.5190   18.4980 C   0  0  0  0  0  2  0  0  0  0  0  0
  -29.3760  -12.7180   17.4000 C   0  0  0  0  0  2  0  0  0  0  0  0
  -27.9570  -12.5860   17.9860 C   0  0  0  0  0  2  0  0  0  0  0  0
  -27.7750  -13.4170   19.2810 C   0  0  0  0  0  3  0  0  0  0  0  0
  -28.9370  -13.1740   20.2610 C   0  0  0  0  0  2  0  0  0  0  0  0
  -30.1960  -13.5070   19.5720 N   0  0  0  0  0  0  0  0  0  0  0  0
  -31.9460  -14.8280   18.9970 O   0  0  0  0  0  0  0  0  0  0  0  0
  -30.5700  -15.3280   21.9640 C   0  0  0  0  0  1  0  0  0  0  0  0
  -30.4830  -15.6660   20.5320 N   0  0  0  0  0  0  0  0  0  0  0  0
  -25.5200  -14.0800   20.3200 C   0  0  0  0  0  0  0  0  0  0  0  0
  -24.4660  -13.3350   20.7760 C   0  0  0  0  0  0  0  0  0  0  0  0
  -24.8500  -11.9690   20.6160 C   0  0  0  0  0  0  0  0  0  0  0  0
  -26.4790  -13.1680   19.9100 N   0  0  0  0  0  0  0  0  0  0  0  0
  -26.0890  -11.8890   20.1470 N   0  0  0  0  0  0  0  0  0  0  0  0
  -24.0860  -10.7310   20.8280 C   0  0  0  0  0  0  0  0  0  0  0  0
  -24.5390   -9.7270   21.7130 C   0  0  0  0  0  3  0  0  0  0  0  0
  -23.7790   -8.5550   21.9130 C   0  0  0  0  0  3  0  0  0  0  0  0
  -22.5520   -8.3780   21.2290 C   0  0  0  0  0  0  0  0  0  0  0  0
  -22.1180   -9.3710   20.3330 C   0  0  0  0  0  3  0  0  0  0  0  0
  -22.8780  -10.5350   20.1300 C   0  0  0  0  0  3  0  0  0  0  0  0
  -21.7600   -7.2620   21.3410 O   0  0  0  0  0  0  0  0  0  0  0  0
  -21.6930   -6.5400   22.5060 C   0  0  0  0  0  0  0  0  0  0  0  0
  -21.3160   -7.1350   23.7290 C   0  0  0  0  0  3  0  0  0  0  0  0
  -21.1920   -6.3420   24.8880 C   0  0  0  0  0  3  0  0  0  0  0  0
  -21.4360   -4.9570   24.8240 C   0  0  0  0  0  0  0  0  0  0  0  0
  -21.8070   -4.3620   23.6060 C   0  0  0  0  0  3  0  0  0  0  0  0
  -21.9330   -5.1520   22.4490 C   0  0  0  0  0  0  0  0  0  0  0  0
  -22.2710   -4.5710   21.2730 F   0  0  0  0  0  0  0  0  0  0  0  0
  -21.3100   -4.1950   25.9360 F   0  0  0  0  0  0  0  0  0  0  0  0
  -23.1380  -13.8590   21.2420 C   0  0  0  0  0  0  0  0  0  0  0  0
  -22.4930  -13.1580   22.1680 N   0  0  0  0  0  0  0  0  0  0  0  0
  -22.6860  -14.9220   20.8180 O   0  0  0  0  0  0  0  0  0  0  0  0
  -22.8740  -12.2980   22.5310 H   0  0  0  0  0  0  0  0  0  0  0  0
  -21.6060  -13.4900   22.5210 H   0  0  0  0  0  0  0  0  0  0  0  0
  -25.7360  -15.4500   20.2030 N   0  0  0  0  0  0  0  0  0  0  0  0
  -25.0320  -16.1330   20.4600 H   0  0  0  0  0  0  0  0  0  0  0  0
  -26.5760  -15.8690   19.8220 H   0  0  0  0  0  0  0  0  0  0  0  0
  -28.3400  -25.0600   19.4970 C   0  0  0  0  0  2  0  0  0  0  0  0
  -28.5000  -26.5150   19.7330 O   0  0  0  0  0  0  0  0  0  0  0  0
  -24.4950  -31.5700   22.9840 C   0  0  0  0  0  0  0  0  0  0  0  0
  -27.3390  -27.3080   19.7190 C   0  0  0  0  0  0  0  0  0  0  0  0
  -23.3680  -30.1990   21.2690 C   0  0  0  0  0  3  0  0  0  0  0  0
  -24.8970  -28.7980   19.7780 C   0  0  0  0  0  0  0  0  0  0  0  0
  -25.8900  -30.6510   21.1190 C   0  0  0  0  0  2  0  0  0  0  0  0
  -26.0390  -29.3140   20.4040 C   0  0  0  0  0  0  0  0  0  0  0  0
  -27.2640  -28.5810   20.3650 C   0  0  0  0  0  3  0  0  0  0  0  0
  -26.1680  -26.8470   19.0730 C   0  0  0  0  0  3  0  0  0  0  0  0
  -24.9630  -27.5710   19.1050 C   0  0  0  0  0  3  0  0  0  0  0  0
  -23.6200  -29.6060   19.8590 C   0  0  0  0  0  2  0  0  0  0  0  0
  -24.6020  -30.8220   21.8480 N   0  0  0  0  0  0  0  0  0  0  0  0
  -23.3970  -31.7690   23.5230 O   0  0  0  0  0  0  0  0  0  0  0  0
  -22.7530  -29.1040   22.1730 C   0  0  0  0  0  0  0  0  0  0  0  0
  -21.4310  -28.8930   22.0530 N   0  0  0  0  0  0  0  0  0  0  0  0
  -23.4630  -28.4490   22.9400 O   0  0  0  0  0  0  0  0  0  0  0  0
  -20.9160  -29.4760   21.4080 H   0  0  0  0  0  0  0  0  0  0  0  0
  -18.0890  -27.6070   22.5690 C   0  0  0  0  0  0  0  0  0  0  0  0
  -20.6520  -27.8870   22.7750 C   0  0  0  0  0  3  0  0  0  0  0  0
  -20.7540  -26.5050   22.0890 C   0  0  0  0  0  2  0  0  0  0  0  0
  -19.6220  -26.2420   21.0900 C   0  0  0  0  0  2  0  0  0  0  0  0
  -18.2610  -26.3160   21.7870 C   0  0  0  0  0  2  0  0  0  0  0  0
  -19.2110  -28.3530   23.0200 C   0  0  0  0  0  0  0  0  0  0  0  0
  -18.9950  -29.5630   23.7130 C   0  0  0  0  0  3  0  0  0  0  0  0
  -17.6900  -30.0300   23.9580 C   0  0  0  0  0  3  0  0  0  0  0  0
  -16.5820  -29.2800   23.5240 C   0  0  0  0  0  3  0  0  0  0  0  0
  -16.7830  -28.0710   22.8350 C   0  0  0  0  0  3  0  0  0  0  0  0
  -25.7440  -32.2330   23.6440 C   0  0  0  0  0  3  0  0  0  0  0  0
  -25.3690  -33.6020   24.0260 N   0  0  0  0  0  0  0  0  0  0  0  0
  -25.6580  -34.6970   23.3120 C   0  0  0  0  0  0  0  0  0  0  0  0
  -26.3380  -34.6650   22.2820 O   0  0  0  0  0  0  0  0  0  0  0  0
  -24.7650  -33.6980   24.8290 H   0  0  0  0  0  0  0  0  0  0  0  0
  -23.8500  -36.4220   23.0200 C   0  0  0  0  0  1  0  0  0  0  0  0
  -25.1060  -36.0440   23.8200 C   0  0  0  0  0  3  0  0  0  0  0  0
  -27.1950  -36.9930   24.6930 C   0  0  0  0  0  1  0  0  0  0  0  0
  -26.0890  -37.1470   23.7520 N   0  0  0  0  0  0  0  0  0  0  0  0
  -25.6400  -38.0410   23.9340 H   0  0  0  0  0  0  0  0  0  0  0  0
  -26.2810  -31.4340   24.8950 C   0  0  1  0  0  0  0  0  0  0  0  0
  -25.1890  -31.1100   25.9410 C   0  0  0  0  0  1  0  0  0  0  0  0
  -26.9240  -30.0970   24.4570 C   0  0  0  0  0  1  0  0  0  0  0  0
  -27.3910  -32.2480   25.5990 C   0  0  0  0  0  1  0  0  0  0  0  0
  1  2  1  0
  1  7  2  0
  3  2  1  0
  4  5  1  0
  4  6  1  0
  5 53  1  0
  5  3  1  0
  6  1  1  0
  8  9  2  0
  8 11  1  0
  9 12  1  0
 11  6  1  0
 11 13  2  0
 12 24  1  0
 12 10  2  0
 13 10  1  0
 13 14  1  0
 15 24  1  0
 16 21  1  0
 17 18  1  0
 17 16  1  0
 19 18  1  0
 19 28  1  0
 19 20  1  0
 21 15  1  0
 21 20  1  0
 22 15  2  0
 24 23  1  0
 25 26  2  0
 26 45  1  0
 27 26  1  0
 27 30  1  0
 28 29  1  0
 28 25  1  0
 29 27  2  0
 30 31  1  0
 31 32  2  0
 33 36  1  0
 33 32  1  0
 34 33  2  0
 35 34  1  0
 35 30  2  0
 36 37  1  0
 37 38  1  0
 38 39  2  0
 40 39  1  0
 40 44  1  0
 41 40  2  0
 42 37  2  0
 42 41  1  0
 43 42  1  0
 45 46  1  0
 46 49  1  0
 46 48  1  0
 47 45  2  0
 50 25  1  0
 50 51  1  0
 52 50  1  0
 53 54  1  0
 55 66  2  0
 56 54  1  0
 56 61  1  0
 57 65  1  0
 57 67  1  0
 58 64  1  0
 58 60  1  0
 59 65  1  0
 60 59  1  0
 61 60  2  0
 62 63  1  0
 62 56  2  0
 63 58  2  0
 64 57  1  0
 65 55  1  0
 67 69  2  0
 68 67  1  0
 70 68  1  0
 71 80  2  0
 71 76  1  0
 72 68  1  0
 72 76  1  0
 73 72  1  0
 74 75  1  0
 74 73  1  0
 75 71  1  0
 76 77  2  0
 77 78  1  0
 79 78  2  0
 80 79  1  0
 81 55  1  0
 81 82  1  0
 81 91  1  0
 82 85  1  0
 83 87  1  0
 83 82  1  0
 84 83  2  0
 87 86  1  0
 89 87  1  0
 89 90  1  0
 89 88  1  0
 91 94  1  1
 91 92  1  0
 93 91  1  0
M  ISO  4  15 100  24 100  53 101  54 101
M  END
>  <TORSDO>  (45) 
F 18

>  <SCORE>  (45) 
-12.574

>  <name>  (45) 
44

>  <ligand_id>  (45) 
44

>  <original_smiles>  (45) 
[H]c1c([H])c([H])c2c(c1[H])C([H])([H])C([H])([H])C([H])([H])C2([H])N([H])C(=O)C1([H])N(C(=O)C([H])(N([H])C(=O)C([H])(N([H])C([H])([H])[H])C([H])([H])[H])C(C([H])([H])[H])(C([H])([H])[H])C([H])([H])[H])C([H])([H])c2c([H])c(OC([H])([H])C3([H])C([H])([H])N(c4c([H])c([H])c(N(C(=O)N5C([H])([H])C([H])([H])C([H])([H])C([H])(n6nc(-c7c([H])c([H])c(Oc8c([H])c([H])c(F)c([H])c8F)c([H])c7[H])c(C(=O)N([H])[H])c6N([H])[H])C5([H])[H])C([H])([H])[H])c([H])c4F)C(=O)C([H])([H])C3([H])[H])c([H])c([H])c2C1([H])[H]

>  <smiles>  (45) 
[H]c1c([H])c([H])c2c(c1[H])C([H])([H])C([H])([H])C([H])([H])C2([H])N([H])C(=O)C1([H])N(C(=O)C([H])(N([H])C(=O)C([H])(N([H])C([H])([H])[H])C([H])([H])[H])C(C([H])([H])[H])(C([H])([H])[H])C([H])([H])[H])C([H])([H])c2c([H])c(OC([H])([H])C3([H])C([H])([H])N(c4c([H])c([H])c(N(C(=O)N5C([H])([H])C([H])([H])C([H])([H])C([H])(n6nc(-c7c([H])c([H])c(Oc8c([H])c([H])c(F)c([H])c8F)c([H])c7[H])c(C(=O)N([H])[H])c6N([H])[H])C5([H])[H])C([H])([H])[H])c([H])c4F)C(=O)C([H])([H])C3([H])[H])c([H])c([H])c2C1([H])[H]

$$$$
45:0:0
     RDKit          3D

 97106  0  0  1  0  0  0  0  0999 V2000
  -30.4060  -22.6480   22.4360 C   0  0  0  0  0  0  0  0  0  0  0  0
  -29.7710  -23.9340   22.9700 C   0  0  0  0  0  2  0  0  0  0  0  0
  -29.6140  -25.0200   21.8990 C   0  0  0  0  0  2  0  0  0  0  0  0
  -29.6120  -23.2350   20.1250 C   0  0  0  0  0  2  0  0  0  0  0  0
  -28.8700  -24.4940   20.6670 C   0  0  0  0  0  3  0  0  0  0  0  0
  -30.2710  -22.3450   21.1230 N   0  0  0  0  0  0  0  0  0  0  0  0
  -31.0470  -21.9490   23.2270 O   0  0  0  0  0  0  0  0  0  0  0  0
  -31.1110  -21.2710   20.5470 C   0  0  0  0  0  2  0  0  0  0  0  0
  -31.5510  -18.8530   21.1630 C   0  0  0  0  0  3  0  0  0  0  0  0
  -29.1400  -17.9880   20.0810 C   0  0  0  0  0  3  0  0  0  0  0  0
  -31.3230  -17.4640   21.0170 C   0  0  0  0  0  0  0  0  0  0  0  0
  -30.6420  -19.8120   20.6760 C   0  0  0  0  0  0  0  0  0  0  0  0
  -30.1310  -17.0140   20.3590 C   0  0  0  0  0  0  0  0  0  0  0  0
  -29.3970  -19.3790   20.1730 C   0  0  0  0  0  0  0  0  0  0  0  0
  -32.4570  -16.5770   21.5130 C   0  0  0  0  0  1  0  0  0  0  0  0
  -30.5580  -14.5660   19.9590 C   0  0  0  0  0  0  0  0  0  0  0  0
  -30.0920  -12.4120   18.8850 C   0  0  0  0  0  2  0  0  0  0  0  0
  -29.0540  -12.5730   17.7560 C   0  0  0  0  0  2  0  0  0  0  0  0
  -27.6280  -12.4500   18.3150 C   0  0  0  0  0  2  0  0  0  0  0  0
  -27.3780  -13.2940   19.5940 C   0  0  0  0  0  3  0  0  0  0  0  0
  -28.5380  -13.1560   20.6100 C   0  0  0  0  0  2  0  0  0  0  0  0
  -29.7980  -13.4330   19.9050 N   0  0  0  0  0  0  0  0  0  0  0  0
  -31.7450  -14.5410   19.6450 O   0  0  0  0  0  0  0  0  0  0  0  0
  -29.5700  -15.9080   18.2690 C   0  0  0  0  0  1  0  0  0  0  0  0
  -29.9030  -15.7320   19.7090 N   0  0  0  0  0  0  0  0  0  0  0  0
  -25.0230  -13.8340   20.4690 C   0  0  0  0  0  0  0  0  0  0  0  0
  -23.9950  -13.0310   20.8860 C   0  0  0  0  0  0  0  0  0  0  0  0
  -24.4840  -11.6930   20.8110 C   0  0  0  0  0  0  0  0  0  0  0  0
  -26.0750  -12.9800   20.1750 N   0  0  0  0  0  0  0  0  0  0  0  0
  -25.7580  -11.6870   20.4430 N   0  0  0  0  0  0  0  0  0  0  0  0
  -23.7960  -10.4120   21.0130 C   0  0  0  0  0  0  0  0  0  0  0  0
  -24.2650   -9.4650   21.9480 C   0  0  0  0  0  3  0  0  0  0  0  0
  -23.5790   -8.2470   22.1430 C   0  0  0  0  0  3  0  0  0  0  0  0
  -22.4060   -7.9690   21.4010 C   0  0  0  0  0  0  0  0  0  0  0  0
  -21.9560   -8.9040   20.4520 C   0  0  0  0  0  3  0  0  0  0  0  0
  -22.6440  -10.1130   20.2570 C   0  0  0  0  0  3  0  0  0  0  0  0
  -21.6860   -6.8040   21.5060 O   0  0  0  0  0  0  0  0  0  0  0  0
  -21.6390   -6.0890   22.6750 C   0  0  0  0  0  0  0  0  0  0  0  0
  -21.1660   -6.6580   23.8770 C   0  0  0  0  0  3  0  0  0  0  0  0
  -21.0710   -5.8680   25.0400 C   0  0  0  0  0  3  0  0  0  0  0  0
  -21.4320   -4.5080   25.0000 C   0  0  0  0  0  0  0  0  0  0  0  0
  -21.8960   -3.9370   23.8010 C   0  0  0  0  0  3  0  0  0  0  0  0
  -21.9950   -4.7260   22.6420 C   0  0  0  0  0  0  0  0  0  0  0  0
  -22.4200   -4.1640   21.4850 F   0  0  0  0  0  0  0  0  0  0  0  0
  -21.3330   -3.7470   26.1150 F   0  0  0  0  0  0  0  0  0  0  0  0
  -22.6040  -13.4730   21.2400 C   0  0  0  0  0  0  0  0  0  0  0  0
  -21.9420  -12.7490   22.1350 N   0  0  0  0  0  0  0  0  0  0  0  0
  -22.1180  -14.4960   20.7620 O   0  0  0  0  0  0  0  0  0  0  0  0
  -22.3530  -11.9220   22.5430 H   0  0  0  0  0  0  0  0  0  0  0  0
  -21.0120  -13.0280   22.4150 H   0  0  0  0  0  0  0  0  0  0  0  0
  -25.1470  -15.2090   20.2910 N   0  0  0  0  0  0  0  0  0  0  0  0
  -24.3760  -15.8520   20.4280 H   0  0  0  0  0  0  0  0  0  0  0  0
  -25.9760  -15.6590   19.9270 H   0  0  0  0  0  0  0  0  0  0  0  0
  -27.3540  -19.9220   19.0180 C   0  0  0  0  0  1  0  0  0  0  0  0
  -28.5260  -20.3360   19.7060 O   0  0  0  0  0  0  0  0  0  0  0  0
  -28.7320  -25.6120   19.5870 C   0  0  0  0  0  2  0  0  0  0  0  0
  -28.4390  -26.8990   20.1470 O   0  0  0  0  0  0  0  0  0  0  0  0
  -24.5210  -31.9590   23.2160 C   0  0  0  0  0  0  0  0  0  0  0  0
  -27.1970  -27.5080   20.1370 C   0  0  0  0  0  0  0  0  0  0  0  0
  -23.3170  -30.5450   21.5780 C   0  0  0  0  0  3  0  0  0  0  0  0
  -24.7760  -28.9920   20.1600 C   0  0  0  0  0  0  0  0  0  0  0  0
  -25.8440  -30.8910   21.3940 C   0  0  0  0  0  2  0  0  0  0  0  0
  -25.9260  -29.5190   20.7560 C   0  0  0  0  0  0  0  0  0  0  0  0
  -27.1280  -28.7790   20.7490 C   0  0  0  0  0  3  0  0  0  0  0  0
  -26.0280  -26.9790   19.5430 C   0  0  0  0  0  3  0  0  0  0  0  0
  -24.8220  -27.7220   19.5510 C   0  0  0  0  0  3  0  0  0  0  0  0
  -23.5300  -29.8550   20.2010 C   0  0  0  0  0  2  0  0  0  0  0  0
  -24.5780  -31.1510   22.1190 N   0  0  0  0  0  0  0  0  0  0  0  0
  -23.4390  -32.2330   23.7580 O   0  0  0  0  0  0  0  0  0  0  0  0
  -22.6670  -29.5310   22.5470 C   0  0  0  0  0  0  0  0  0  0  0  0
  -21.3490  -29.3210   22.4040 N   0  0  0  0  0  0  0  0  0  0  0  0
  -23.3480  -28.9320   23.3850 O   0  0  0  0  0  0  0  0  0  0  0  0
  -20.8610  -29.8570   21.7010 H   0  0  0  0  0  0  0  0  0  0  0  0
  -17.9970  -28.0410   22.8430 C   0  0  0  0  0  0  0  0  0  0  0  0
  -20.5390  -28.3790   23.1780 C   0  0  0  0  0  3  0  0  0  0  0  0
  -20.6980  -26.9380   22.6410 C   0  0  0  0  0  2  0  0  0  0  0  0
  -19.6330  -26.5620   21.6040 C   0  0  0  0  0  2  0  0  0  0  0  0
  -18.2310  -26.6830   22.2060 C   0  0  0  0  0  2  0  0  0  0  0  0
  -19.0810  -28.8460   23.2840 C   0  0  0  0  0  0  0  0  0  0  0  0
  -18.8120  -30.1180   23.8340 C   0  0  0  0  0  3  0  0  0  0  0  0
  -17.4900  -30.5850   23.9500 C   0  0  0  0  0  3  0  0  0  0  0  0
  -16.4190  -29.7780   23.5270 C   0  0  0  0  0  3  0  0  0  0  0  0
  -16.6730  -28.5100   22.9780 C   0  0  0  0  0  3  0  0  0  0  0  0
  -25.8060  -32.5980   23.8280 C   0  0  0  0  0  3  0  0  0  0  0  0
  -26.3360  -31.8340   25.1040 C   0  0  1  0  0  0  0  0  0  0  0  0
  -25.2500  -31.5850   26.1760 C   0  0  0  0  0  1  0  0  0  0  0  0
  -26.9340  -30.4620   24.7130 C   0  0  0  0  0  1  0  0  0  0  0  0
  -27.4780  -32.6440   25.7630 C   0  0  0  0  0  1  0  0  0  0  0  0
  -25.4950  -33.9950   24.1550 N   0  0  0  0  0  0  0  0  0  0  0  0
  -25.8270  -35.0480   23.3960 C   0  0  0  0  0  0  0  0  0  0  0  0
  -26.4950  -34.9460   22.3630 O   0  0  0  0  0  0  0  0  0  0  0  0
  -24.9050  -34.1480   24.9590 H   0  0  0  0  0  0  0  0  0  0  0  0
  -24.0920  -36.8350   23.0340 C   0  0  0  0  0  1  0  0  0  0  0  0
  -25.3340  -36.4360   23.8490 C   0  0  0  0  0  3  0  0  0  0  0  0
  -27.4640  -37.3270   24.6870 C   0  0  0  0  0  1  0  0  0  0  0  0
  -26.3640  -37.4920   23.7390 N   0  0  0  0  0  0  0  0  0  0  0  0
  -25.9550  -38.4110   23.8840 H   0  0  0  0  0  0  0  0  0  0  0  0
  1  2  1  0
  1  7  2  0
  3  2  1  0
  4  5  1  0
  4  6  1  0
  5 56  1  0
  5  3  1  0
  6  1  1  0
  8 12  1  0
  8  6  1  0
 10 14  2  0
 10 13  1  0
 11  9  1  0
 11 15  1  0
 12  9  2  0
 13 11  2  0
 14 12  1  0
 17 22  1  0
 18 19  1  0
 18 17  1  0
 20 19  1  0
 20 29  1  0
 20 21  1  0
 22 16  1  0
 22 21  1  0
 23 16  2  0
 24 25  1  0
 25 16  1  0
 25 13  1  0
 26 27  2  0
 27 46  1  0
 28 27  1  0
 28 31  1  0
 29 30  1  0
 29 26  1  0
 30 28  2  0
 31 32  1  0
 32 33  2  0
 34 37  1  0
 34 33  1  0
 35 34  2  0
 36 35  1  0
 36 31  2  0
 37 38  1  0
 38 39  1  0
 39 40  2  0
 41 40  1  0
 41 45  1  0
 42 41  2  0
 43 38  2  0
 43 42  1  0
 44 43  1  0
 46 47  1  0
 47 50  1  0
 47 49  1  0
 48 46  2  0
 51 52  1  0
 51 26  1  0
 53 51  1  0
 54 55  1  0
 55 14  1  0
 56 57  1  0
 58 69  2  0
 59 57  1  0
 59 64  1  0
 60 68  1  0
 60 70  1  0
 61 67  1  0
 61 63  1  0
 62 68  1  0
 63 62  1  0
 64 63  2  0
 65 66  1  0
 65 59  2  0
 66 61  2  0
 67 60  1  0
 68 58  1  0
 70 72  2  0
 71 70  1  0
 73 71  1  0
 74 83  2  0
 74 79  1  0
 75 71  1  0
 75 79  1  0
 76 75  1  0
 77 78  1  0
 77 76  1  0
 78 74  1  0
 79 80  2  0
 80 81  1  0
 82 81  2  0
 83 82  1  0
 84 58  1  0
 84 89  1  0
 84 85  1  0
 85 88  1  1
 85 86  1  0
 87 85  1  0
 89 92  1  0
 90 94  1  0
 90 89  1  0
 91 90  2  0
 94 93  1  0
 96 94  1  0
 96 97  1  0
 96 95  1  0
M  ISO  4  16 100  25 100  56 101  57 101
M  END
>  <TORSDO>  (46) 
F 20

>  <SCORE>  (46) 
-12.242

>  <name>  (46) 
45

>  <ligand_id>  (46) 
45

>  <original_smiles>  (46) 
[H]c1c([H])c([H])c2c(c1[H])C([H])([H])C([H])([H])C([H])([H])C2([H])N([H])C(=O)C1([H])N(C(=O)C([H])(N([H])C(=O)C([H])(N([H])C([H])([H])[H])C([H])([H])[H])C(C([H])([H])[H])(C([H])([H])[H])C([H])([H])[H])C([H])([H])c2c([H])c(OC([H])([H])C3([H])C([H])([H])N(C([H])([H])c4c([H])c(C([H])([H])[H])c(N(C(=O)N5C([H])([H])C([H])([H])C([H])([H])C([H])(n6nc(-c7c([H])c([H])c(Oc8c([H])c([H])c(F)c([H])c8F)c([H])c7[H])c(C(=O)N([H])[H])c6N([H])[H])C5([H])[H])C([H])([H])[H])c([H])c4OC([H])([H])[H])C(=O)C([H])([H])C3([H])[H])c([H])c([H])c2C1([H])[H]

>  <smiles>  (46) 
[H]c1c([H])c([H])c2c(c1[H])C([H])([H])C([H])([H])C([H])([H])C2([H])N([H])C(=O)C1([H])N(C(=O)C([H])(N([H])C(=O)C([H])(N([H])C([H])([H])[H])C([H])([H])[H])C(C([H])([H])[H])(C([H])([H])[H])C([H])([H])[H])C([H])([H])c2c([H])c(OC([H])([H])C3([H])C([H])([H])N(C([H])([H])c4c([H])c(C([H])([H])[H])c(N(C(=O)N5C([H])([H])C([H])([H])C([H])([H])C([H])(n6nc(-c7c([H])c([H])c(Oc8c([H])c([H])c(F)c([H])c8F)c([H])c7[H])c(C(=O)N([H])[H])c6N([H])[H])C5([H])[H])C([H])([H])[H])c([H])c4OC([H])([H])[H])C(=O)C([H])([H])C3([H])[H])c([H])c([H])c2C1([H])[H]

$$$$
46:0:0
     RDKit          3D

 93102  0  0  1  0  0  0  0  0999 V2000
  -26.7840  -23.4450   18.8950 C   0  0  0  0  0  0  0  0  0  0  0  0
  -26.2200  -22.2630   19.6660 C   0  0  0  0  0  2  0  0  0  0  0  0
  -27.0680  -21.0050   19.4110 C   0  0  0  0  0  2  0  0  0  0  0  0
  -28.9810  -22.5930   19.9770 C   0  0  0  0  0  2  0  0  0  0  0  0
  -28.2510  -23.7910   19.1680 C   0  0  0  0  0  3  0  0  0  0  0  0
  -28.5170  -21.1990   19.5910 N   0  0  0  0  0  0  0  0  0  0  0  0
  -26.1260  -23.9900   18.0030 O   0  0  0  0  0  0  0  0  0  0  0  0
  -28.8970  -18.8260   18.8980 C   0  0  0  0  0  3  0  0  0  0  0  0
  -29.9740  -19.5800   20.8950 C   0  0  0  0  0  3  0  0  0  0  0  0
  -29.3290  -17.4830   19.1390 C   0  0  0  0  0  3  0  0  0  0  0  0
  -30.3930  -18.2330   21.1480 C   0  0  0  0  0  3  0  0  0  0  0  0
  -29.1660  -19.9170   19.7800 C   0  0  0  0  0  0  0  0  0  0  0  0
  -30.0610  -17.1260   20.3000 C   0  0  0  0  0  0  0  0  0  0  0  0
  -30.8210  -14.7260   19.8260 C   0  0  0  0  0  0  0  0  0  0  0  0
  -30.4280  -12.5310   18.6990 C   0  0  0  0  0  2  0  0  0  0  0  0
  -29.3830  -12.6820   17.5730 C   0  0  0  0  0  2  0  0  0  0  0  0
  -27.9620  -12.4990   18.1320 C   0  0  0  0  0  2  0  0  0  0  0  0
  -27.7160  -13.3470   19.4070 C   0  0  0  0  0  3  0  0  0  0  0  0
  -28.8680  -13.1970   20.4230 C   0  0  0  0  0  2  0  0  0  0  0  0
  -30.1280  -13.5390   19.7420 N   0  0  0  0  0  0  0  0  0  0  0  0
  -31.8560  -14.8930   19.1750 O   0  0  0  0  0  0  0  0  0  0  0  0
  -30.7180  -15.4770   22.0760 C   0  0  0  0  0  1  0  0  0  0  0  0
  -30.3680  -15.7210   20.6700 N   0  0  0  0  0  0  0  0  0  0  0  0
  -25.4100  -13.9290   20.3770 C   0  0  0  0  0  0  0  0  0  0  0  0
  -24.3760  -13.1500   20.8170 C   0  0  0  0  0  0  0  0  0  0  0  0
  -24.8180  -11.7970   20.6910 C   0  0  0  0  0  0  0  0  0  0  0  0
  -26.4180  -13.0520   20.0090 N   0  0  0  0  0  0  0  0  0  0  0  0
  -26.0720  -11.7620   20.2570 N   0  0  0  0  0  0  0  0  0  0  0  0
  -24.0990  -10.5340   20.9010 C   0  0  0  0  0  0  0  0  0  0  0  0
  -24.5510   -9.5730   21.8330 C   0  0  0  0  0  3  0  0  0  0  0  0
  -23.8320   -8.3750   22.0330 C   0  0  0  0  0  3  0  0  0  0  0  0
  -22.6460   -8.1280   21.2990 C   0  0  0  0  0  0  0  0  0  0  0  0
  -22.2130   -9.0770   20.3570 C   0  0  0  0  0  3  0  0  0  0  0  0
  -22.9320  -10.2670   20.1570 C   0  0  0  0  0  3  0  0  0  0  0  0
  -21.8960   -6.9820   21.4080 O   0  0  0  0  0  0  0  0  0  0  0  0
  -21.7880   -6.3020   22.5950 C   0  0  0  0  0  0  0  0  0  0  0  0
  -21.2790   -6.9140   23.7610 C   0  0  0  0  0  3  0  0  0  0  0  0
  -21.1210   -6.1580   24.9400 C   0  0  0  0  0  3  0  0  0  0  0  0
  -21.4600   -4.7920   24.9530 C   0  0  0  0  0  0  0  0  0  0  0  0
  -21.9610   -4.1790   23.7910 C   0  0  0  0  0  3  0  0  0  0  0  0
  -22.1210   -4.9320   22.6140 C   0  0  0  0  0  0  0  0  0  0  0  0
  -22.5850   -4.3320   21.4910 F   0  0  0  0  0  0  0  0  0  0  0  0
  -21.3010   -4.0640   26.0830 F   0  0  0  0  0  0  0  0  0  0  0  0
  -23.0160  -13.6260   21.2400 C   0  0  0  0  0  0  0  0  0  0  0  0
  -22.3830  -12.9220   22.1710 N   0  0  0  0  0  0  0  0  0  0  0  0
  -22.5290  -14.6570   20.7790 O   0  0  0  0  0  0  0  0  0  0  0  0
  -22.7920  -12.0860   22.5630 H   0  0  0  0  0  0  0  0  0  0  0  0
  -21.4750  -13.2210   22.4970 H   0  0  0  0  0  0  0  0  0  0  0  0
  -25.5760  -15.3040   20.2390 N   0  0  0  0  0  0  0  0  0  0  0  0
  -24.8400  -15.9660   20.4560 H   0  0  0  0  0  0  0  0  0  0  0  0
  -26.4150  -15.7450   19.8830 H   0  0  0  0  0  0  0  0  0  0  0  0
  -28.6170  -25.3860   19.1500 C   0  0  0  0  0  2  0  0  0  0  0  0
  -28.3300  -26.5100   20.0910 O   0  0  0  0  0  0  0  0  0  0  0  0
  -24.5200  -31.8450   23.1390 C   0  0  0  0  0  0  0  0  0  0  0  0
  -27.2170  -27.3680   19.9980 C   0  0  0  0  0  0  0  0  0  0  0  0
  -23.3500  -30.4600   21.4640 C   0  0  0  0  0  3  0  0  0  0  0  0
  -24.8330  -28.9640   20.0100 C   0  0  0  0  0  0  0  0  0  0  0  0
  -25.8880  -30.8110   21.3120 C   0  0  0  0  0  2  0  0  0  0  0  0
  -25.9890  -29.4460   20.6360 C   0  0  0  0  0  0  0  0  0  0  0  0
  -27.1780  -28.6530   20.6340 C   0  0  0  0  0  3  0  0  0  0  0  0
  -26.0400  -26.9570   19.3450 C   0  0  0  0  0  3  0  0  0  0  0  0
  -24.8610  -27.7240   19.3570 C   0  0  0  0  0  3  0  0  0  0  0  0
  -23.5830  -29.8190   20.0700 C   0  0  0  0  0  2  0  0  0  0  0  0
  -24.6030  -31.0570   22.0270 N   0  0  0  0  0  0  0  0  0  0  0  0
  -23.4280  -32.0950   23.6710 O   0  0  0  0  0  0  0  0  0  0  0  0
  -22.6980  -29.4140   22.3990 C   0  0  0  0  0  0  0  0  0  0  0  0
  -21.3740  -29.2220   22.2650 N   0  0  0  0  0  0  0  0  0  0  0  0
  -23.3820  -28.7790   23.2060 O   0  0  0  0  0  0  0  0  0  0  0  0
  -20.8810  -29.7900   21.5890 H   0  0  0  0  0  0  0  0  0  0  0  0
  -18.0090  -27.9810   22.7360 C   0  0  0  0  0  0  0  0  0  0  0  0
  -20.5640  -28.2600   23.0140 C   0  0  0  0  0  3  0  0  0  0  0  0
  -20.6800  -26.8430   22.4040 C   0  0  0  0  0  2  0  0  0  0  0  0
  -19.5820  -26.5330   21.3830 C   0  0  0  0  0  2  0  0  0  0  0  0
  -18.1990  -26.6490   22.0300 C   0  0  0  0  0  2  0  0  0  0  0  0
  -19.1190  -28.7440   23.1840 C   0  0  0  0  0  0  0  0  0  0  0  0
  -18.8860  -29.9920   23.8040 C   0  0  0  0  0  3  0  0  0  0  0  0
  -17.5760  -30.4740   23.9820 C   0  0  0  0  0  3  0  0  0  0  0  0
  -16.4800  -29.7070   23.5510 C   0  0  0  0  0  3  0  0  0  0  0  0
  -16.6970  -28.4640   22.9330 C   0  0  0  0  0  3  0  0  0  0  0  0
  -25.7890  -32.4860   23.7820 C   0  0  0  0  0  3  0  0  0  0  0  0
  -25.4590  -33.8770   24.1230 N   0  0  0  0  0  0  0  0  0  0  0  0
  -25.7850  -34.9440   23.3800 C   0  0  0  0  0  0  0  0  0  0  0  0
  -26.4650  -34.8600   22.3550 O   0  0  0  0  0  0  0  0  0  0  0  0
  -24.8590  -34.0160   24.9230 H   0  0  0  0  0  0  0  0  0  0  0  0
  -24.0430  -36.7230   23.0240 C   0  0  0  0  0  1  0  0  0  0  0  0
  -25.2750  -36.3200   23.8480 C   0  0  0  0  0  3  0  0  0  0  0  0
  -27.3890  -37.2160   24.7200 C   0  0  0  0  0  1  0  0  0  0  0  0
  -26.2970  -37.3880   23.7670 N   0  0  0  0  0  0  0  0  0  0  0  0
  -25.8760  -38.3000   23.9270 H   0  0  0  0  0  0  0  0  0  0  0  0
  -26.2980  -31.7090   25.0580 C   0  0  1  0  0  0  0  0  0  0  0  0
  -25.1950  -31.4520   26.1130 C   0  0  0  0  0  1  0  0  0  0  0  0
  -26.8970  -30.3390   24.6620 C   0  0  0  0  0  1  0  0  0  0  0  0
  -27.4350  -32.5080   25.7380 C   0  0  0  0  0  1  0  0  0  0  0  0
  1  5  1  0
  1  2  1  0
  3  6  1  0
  3  2  1  0
  5 52  1  0
  5  4  1  0
  6 12  1  0
  6  4  1  0
  7  1  2  0
  8 10  2  0
  8 12  1  0
  9 11  1  0
 10 13  1  0
 12  9  2  0
 13 23  1  0
 13 11  2  0
 14 23  1  0
 15 20  1  0
 16 17  1  0
 16 15  1  0
 18 17  1  0
 18 27  1  0
 18 19  1  0
 20 14  1  0
 20 19  1  0
 21 14  2  0
 23 22  1  0
 24 25  2  0
 25 44  1  0
 26 25  1  0
 26 29  1  0
 27 28  1  0
 27 24  1  0
 28 26  2  0
 29 30  1  0
 30 31  2  0
 32 35  1  0
 32 31  1  0
 33 32  2  0
 34 33  1  0
 34 29  2  0
 35 36  1  0
 36 41  2  0
 36 37  1  0
 37 38  2  0
 38 39  1  0
 39 43  1  0
 40 39  2  0
 41 40  1  0
 42 41  1  0
 44 45  1  0
 45 48  1  0
 45 47  1  0
 46 44  2  0
 49 24  1  0
 49 50  1  0
 51 49  1  0
 52 53  1  0
 54 65  2  0
 55 53  1  0
 55 60  1  0
 56 64  1  0
 56 66  1  0
 57 63  1  0
 57 59  1  0
 58 64  1  0
 59 58  1  0
 60 59  2  0
 61 62  1  0
 61 55  2  0
 62 57  2  0
 63 56  1  0
 64 54  1  0
 66 68  2  0
 67 66  1  0
 69 67  1  0
 70 79  2  0
 70 75  1  0
 71 67  1  0
 71 75  1  0
 72 71  1  0
 73 74  1  0
 73 72  1  0
 74 70  1  0
 75 76  2  0
 76 77  1  0
 78 77  2  0
 79 78  1  0
 80 54  1  0
 80 81  1  0
 80 90  1  0
 81 84  1  0
 82 86  1  0
 82 81  1  0
 83 82  2  0
 86 85  1  0
 88 86  1  0
 88 89  1  0
 88 87  1  0
 90 93  1  1
 90 91  1  0
 92 90  1  0
M  ISO  4  14 100  23 100  52 101  53 101
M  END
>  <TORSDO>  (47) 
F 18

>  <SCORE>  (47) 
-13.786

>  <name>  (47) 
46

>  <ligand_id>  (47) 
46

>  <original_smiles>  (47) 
[H]c1c([H])c([H])c2c(c1[H])C([H])([H])C([H])([H])C([H])([H])C2([H])N([H])C(=O)C1([H])N(C(=O)C([H])(N([H])C(=O)C([H])(N([H])C([H])([H])[H])C([H])([H])[H])C(C([H])([H])[H])(C([H])([H])[H])C([H])([H])[H])C([H])([H])c2c([H])c(OC([H])([H])C3([H])C(=O)C([H])([H])C([H])([H])N(c4c([H])c([H])c(N(C(=O)N5C([H])([H])C([H])([H])C([H])([H])C([H])(n6nc(-c7c([H])c([H])c(Oc8c([H])c([H])c(F)c([H])c8F)c([H])c7[H])c(C(=O)N([H])[H])c6N([H])[H])C5([H])[H])C([H])([H])[H])c([H])c4[H])C3([H])[H])c([H])c([H])c2C1([H])[H]

>  <smiles>  (47) 
[H]c1c([H])c([H])c2c(c1[H])C([H])([H])C([H])([H])C([H])([H])C2([H])N([H])C(=O)C1([H])N(C(=O)C([H])(N([H])C(=O)C([H])(N([H])C([H])([H])[H])C([H])([H])[H])C(C([H])([H])[H])(C([H])([H])[H])C([H])([H])[H])C([H])([H])c2c([H])c(OC([H])([H])C3([H])C(=O)C([H])([H])C([H])([H])N(c4c([H])c([H])c(N(C(=O)N5C([H])([H])C([H])([H])C([H])([H])C([H])(n6nc(-c7c([H])c([H])c(Oc8c([H])c([H])c(F)c([H])c8F)c([H])c7[H])c(C(=O)N([H])[H])c6N([H])[H])C5([H])[H])C([H])([H])[H])c([H])c4[H])C3([H])[H])c([H])c([H])c2C1([H])[H]

$$$$
47:0:0
     RDKit          3D

 95104  0  0  1  0  0  0  0  0999 V2000
  -29.2060  -23.0220   20.0810 C   0  0  0  0  0  3  0  0  0  0  0  0
  -28.7390  -24.2150   19.6280 C   0  0  0  0  0  0  0  0  0  0  0  0
  -28.6210  -24.3980   18.1570 C   0  0  0  0  0  0  0  0  0  0  0  0
  -28.7520  -23.1430   17.2910 C   0  0  0  0  0  2  0  0  0  0  0  0
  -29.7850  -22.1480   17.8480 C   0  0  0  0  0  2  0  0  0  0  0  0
  -29.6420  -21.9430   19.2940 N   0  0  0  0  0  0  0  0  0  0  0  0
  -28.4050  -25.4730   17.5950 O   0  0  0  0  0  0  0  0  0  0  0  0
  -31.3210  -18.5660   19.5360 C   0  0  0  0  0  3  0  0  0  0  0  0
  -30.9420  -19.8450   19.0720 C   0  0  0  0  0  3  0  0  0  0  0  0
  -29.8000  -18.8080   21.4060 C   0  0  0  0  0  3  0  0  0  0  0  0
  -30.7700  -18.0410   20.7220 C   0  0  0  0  0  0  0  0  0  0  0  0
  -29.9960  -20.6450   19.7680 C   0  0  0  0  0  0  0  0  0  0  0  0
  -29.4170  -20.0870   20.9410 C   0  0  0  0  0  0  0  0  0  0  0  0
  -28.4740  -20.7670   21.6390 F   0  0  0  0  0  0  0  0  0  0  0  0
  -31.2860  -16.7240   21.3100 C   0  0  0  0  0  2  0  0  0  0  0  0
  -31.1650  -14.5310   20.0970 C   0  0  0  0  0  0  0  0  0  0  0  0
  -30.7420  -12.3830   18.9480 C   0  0  0  0  0  2  0  0  0  0  0  0
  -29.7450  -12.5860   17.7890 C   0  0  0  0  0  2  0  0  0  0  0  0
  -28.2920  -12.4830   18.2940 C   0  0  0  0  0  2  0  0  0  0  0  0
  -28.0350  -13.3490   19.5560 C   0  0  0  0  0  3  0  0  0  0  0  0
  -29.1360  -13.1190   20.6150 C   0  0  0  0  0  2  0  0  0  0  0  0
  -30.4380  -13.3870   19.9800 N   0  0  0  0  0  0  0  0  0  0  0  0
  -32.2390  -14.7040   19.5130 O   0  0  0  0  0  0  0  0  0  0  0  0
  -30.6190  -15.4980   20.8540 N   0  0  0  0  0  0  0  0  0  0  0  0
  -29.7180  -15.2960   21.2590 H   0  0  0  0  0  0  0  0  0  0  0  0
  -25.7070  -14.0280   20.4170 C   0  0  0  0  0  0  0  0  0  0  0  0
  -24.6300  -13.2890   20.8240 C   0  0  0  0  0  0  0  0  0  0  0  0
  -25.0310  -11.9220   20.7280 C   0  0  0  0  0  0  0  0  0  0  0  0
  -26.7000  -13.1140   20.1020 N   0  0  0  0  0  0  0  0  0  0  0  0
  -26.3000  -11.8390   20.3470 N   0  0  0  0  0  0  0  0  0  0  0  0
  -24.2660  -10.6840   20.9230 C   0  0  0  0  0  0  0  0  0  0  0  0
  -24.6570   -9.7140   21.8720 C   0  0  0  0  0  3  0  0  0  0  0  0
  -23.8920   -8.5400   22.0530 C   0  0  0  0  0  3  0  0  0  0  0  0
  -22.7220   -8.3300   21.2850 C   0  0  0  0  0  0  0  0  0  0  0  0
  -22.3500   -9.2880   20.3270 C   0  0  0  0  0  3  0  0  0  0  0  0
  -23.1150  -10.4520   20.1430 C   0  0  0  0  0  3  0  0  0  0  0  0
  -21.9330   -7.2090   21.3750 O   0  0  0  0  0  0  0  0  0  0  0  0
  -21.7820   -6.5280   22.5560 C   0  0  0  0  0  0  0  0  0  0  0  0
  -21.2420   -7.1410   23.7070 C   0  0  0  0  0  3  0  0  0  0  0  0
  -21.0410   -6.3840   24.8790 C   0  0  0  0  0  3  0  0  0  0  0  0
  -21.3690   -5.0160   24.8990 C   0  0  0  0  0  0  0  0  0  0  0  0
  -21.9020   -4.4020   23.7520 C   0  0  0  0  0  3  0  0  0  0  0  0
  -22.1050   -5.1560   22.5830 C   0  0  0  0  0  0  0  0  0  0  0  0
  -22.5990   -4.5540   21.4740 F   0  0  0  0  0  0  0  0  0  0  0  0
  -21.1680   -4.2860   26.0220 F   0  0  0  0  0  0  0  0  0  0  0  0
  -23.2710  -13.8130   21.1900 C   0  0  0  0  0  0  0  0  0  0  0  0
  -22.5670  -13.1230   22.0800 N   0  0  0  0  0  0  0  0  0  0  0  0
  -22.8450  -14.8690   20.7220 O   0  0  0  0  0  0  0  0  0  0  0  0
  -22.9240  -12.2690   22.4810 H   0  0  0  0  0  0  0  0  0  0  0  0
  -21.6570  -13.4550   22.3680 H   0  0  0  0  0  0  0  0  0  0  0  0
  -25.9200  -15.3960   20.2710 N   0  0  0  0  0  0  0  0  0  0  0  0
  -25.1890  -16.0790   20.4440 H   0  0  0  0  0  0  0  0  0  0  0  0
  -26.7730  -15.8120   19.9190 H   0  0  0  0  0  0  0  0  0  0  0  0
  -28.2770  -25.3300   20.5870 C   0  0  0  0  0  2  0  0  0  0  0  0
  -28.4130  -26.6970   20.1420 O   0  0  0  0  0  0  0  0  0  0  0  0
  -24.5600  -31.8740   23.1840 C   0  0  0  0  0  0  0  0  0  0  0  0
  -27.2480  -27.4370   20.1320 C   0  0  0  0  0  0  0  0  0  0  0  0
  -23.3730  -30.4650   21.5340 C   0  0  0  0  0  3  0  0  0  0  0  0
  -24.8440  -28.9330   20.1220 C   0  0  0  0  0  0  0  0  0  0  0  0
  -25.8980  -30.8360   21.3530 C   0  0  0  0  0  2  0  0  0  0  0  0
  -25.9970  -29.4660   20.7130 C   0  0  0  0  0  0  0  0  0  0  0  0
  -27.2050  -28.7290   20.7080 C   0  0  0  0  0  3  0  0  0  0  0  0
  -26.0760  -26.9200   19.5370 C   0  0  0  0  0  3  0  0  0  0  0  0
  -24.8790  -27.6590   19.5290 C   0  0  0  0  0  3  0  0  0  0  0  0
  -23.5950  -29.7840   20.1570 C   0  0  0  0  0  2  0  0  0  0  0  0
  -24.6290  -31.0740   22.0820 N   0  0  0  0  0  0  0  0  0  0  0  0
  -23.4730  -32.1410   23.7160 O   0  0  0  0  0  0  0  0  0  0  0  0
  -22.7190  -29.4420   22.4910 C   0  0  0  0  0  0  0  0  0  0  0  0
  -21.3930  -29.2680   22.3660 N   0  0  0  0  0  0  0  0  0  0  0  0
  -23.4010  -28.8080   23.2990 O   0  0  0  0  0  0  0  0  0  0  0  0
  -20.9040  -29.8320   21.6850 H   0  0  0  0  0  0  0  0  0  0  0  0
  -18.0110  -28.1030   22.8800 C   0  0  0  0  0  0  0  0  0  0  0  0
  -20.5730  -28.3290   23.1320 C   0  0  0  0  0  3  0  0  0  0  0  0
  -20.6550  -26.9040   22.5370 C   0  0  0  0  0  2  0  0  0  0  0  0
  -19.5410  -26.6060   21.5300 C   0  0  0  0  0  2  0  0  0  0  0  0
  -18.1660  -26.7590   22.1870 C   0  0  0  0  0  2  0  0  0  0  0  0
  -19.1420  -28.8470   23.3090 C   0  0  0  0  0  0  0  0  0  0  0  0
  -18.9430  -30.1060   23.9160 C   0  0  0  0  0  3  0  0  0  0  0  0
  -17.6450  -30.6210   24.0980 C   0  0  0  0  0  3  0  0  0  0  0  0
  -16.5300  -29.8740   23.6860 C   0  0  0  0  0  3  0  0  0  0  0  0
  -16.7120  -28.6160   23.0820 C   0  0  0  0  0  3  0  0  0  0  0  0
  -25.8380  -32.5120   23.8130 C   0  0  0  0  0  3  0  0  0  0  0  0
  -26.3670  -31.7280   25.0760 C   0  0  1  0  0  0  0  0  0  0  0  0
  -25.2780  -31.4560   26.1400 C   0  0  0  0  0  1  0  0  0  0  0  0
  -26.9710  -30.3660   24.6600 C   0  0  0  0  0  1  0  0  0  0  0  0
  -27.5040  -32.5290   25.7520 C   0  0  0  0  0  1  0  0  0  0  0  0
  -25.5140  -33.9010   24.1620 N   0  0  0  0  0  0  0  0  0  0  0  0
  -25.8240  -34.9650   23.4100 C   0  0  0  0  0  0  0  0  0  0  0  0
  -26.4870  -34.8830   22.3720 O   0  0  0  0  0  0  0  0  0  0  0  0
  -24.9280  -34.0400   24.9720 H   0  0  0  0  0  0  0  0  0  0  0  0
  -24.0670  -36.7350   23.0880 C   0  0  0  0  0  1  0  0  0  0  0  0
  -25.3210  -36.3420   23.8860 C   0  0  0  0  0  3  0  0  0  0  0  0
  -27.4430  -37.2530   24.7170 C   0  0  0  0  0  1  0  0  0  0  0  0
  -26.3370  -37.4110   23.7770 N   0  0  0  0  0  0  0  0  0  0  0  0
  -25.9170  -38.3230   23.9320 H   0  0  0  0  0  0  0  0  0  0  0  0
  2  1  2  0
  2 54  1  0
  3  2  1  0
  4  5  1  0
  4  3  1  0
  5  6  1  0
  6 12  1  0
  6  1  1  0
  7  3  2  0
  8 11  1  0
  9  8  2  0
  9 12  1  0
 11 15  1  0
 11 10  2  0
 12 13  2  0
 13 10  1  0
 13 14  1  0
 16 24  1  0
 17 22  1  0
 18 19  1  0
 18 17  1  0
 20 19  1  0
 20 29  1  0
 20 21  1  0
 22 16  1  0
 22 21  1  0
 23 16  2  0
 24 25  1  0
 24 15  1  0
 26 27  2  0
 27 46  1  0
 28 27  1  0
 28 31  1  0
 29 30  1  0
 29 26  1  0
 30 28  2  0
 31 32  1  0
 32 33  2  0
 34 37  1  0
 34 33  1  0
 35 34  2  0
 36 35  1  0
 36 31  2  0
 37 38  1  0
 38 43  2  0
 38 39  1  0
 39 40  2  0
 40 41  1  0
 41 45  1  0
 42 41  2  0
 43 42  1  0
 44 43  1  0
 46 47  1  0
 47 50  1  0
 47 49  1  0
 48 46  2  0
 51 26  1  0
 51 52  1  0
 53 51  1  0
 55 54  1  0
 56 67  2  0
 57 55  1  0
 57 62  1  0
 58 66  1  0
 58 68  1  0
 59 65  1  0
 59 61  1  0
 60 66  1  0
 61 60  1  0
 62 61  2  0
 63 57  2  0
 64 63  1  0
 64 59  2  0
 65 58  1  0
 66 56  1  0
 68 70  2  0
 69 68  1  0
 71 69  1  0
 72 81  2  0
 72 77  1  0
 73 69  1  0
 73 77  1  0
 74 73  1  0
 75 76  1  0
 75 74  1  0
 76 72  1  0
 77 78  2  0
 78 79  1  0
 80 79  2  0
 81 80  1  0
 82 56  1  0
 82 87  1  0
 82 83  1  0
 83 86  1  1
 83 84  1  0
 85 83  1  0
 87 90  1  0
 88 92  1  0
 88 87  1  0
 89 88  2  0
 92 91  1  0
 94 92  1  0
 94 95  1  0
 94 93  1  0
M  ISO  4  16 100  24 100  54 101  55 101
M  END
>  <TORSDO>  (48) 
F 19

>  <SCORE>  (48) 
-13.842

>  <name>  (48) 
47

>  <ligand_id>  (48) 
47

>  <original_smiles>  (48) 
[H]C1=C(C([H])([H])Oc2c([H])c([H])c3c(c2[H])C([H])([H])N(C(=O)C([H])(N([H])C(=O)C([H])(N([H])C([H])([H])[H])C([H])([H])[H])C(C([H])([H])[H])(C([H])([H])[H])C([H])([H])[H])C([H])(C(=O)N([H])C2([H])c4c([H])c([H])c([H])c([H])c4C([H])([H])C([H])([H])C2([H])[H])C3([H])[H])C(=O)C([H])([H])C([H])([H])N1c1c([H])c([H])c(C([H])([H])N([H])C(=O)N2C([H])([H])C([H])([H])C([H])([H])C([H])(n3nc(-c4c([H])c([H])c(Oc5c([H])c([H])c(F)c([H])c5F)c([H])c4[H])c(C(=O)N([H])[H])c3N([H])[H])C2([H])[H])c([H])c1F

>  <smiles>  (48) 
[H]C1=C(C([H])([H])Oc2c([H])c([H])c3c(c2[H])C([H])([H])N(C(=O)C([H])(N([H])C(=O)C([H])(N([H])C([H])([H])[H])C([H])([H])[H])C(C([H])([H])[H])(C([H])([H])[H])C([H])([H])[H])C([H])(C(=O)N([H])C2([H])c4c([H])c([H])c([H])c([H])c4C([H])([H])C([H])([H])C2([H])[H])C3([H])[H])C(=O)C([H])([H])C([H])([H])N1c1c([H])c([H])c(C([H])([H])N([H])C(=O)N2C([H])([H])C([H])([H])C([H])([H])C([H])(n3nc(-c4c([H])c([H])c(Oc5c([H])c([H])c(F)c([H])c5F)c([H])c4[H])c(C(=O)N([H])[H])c3N([H])[H])C2([H])[H])c([H])c1F

$$$$
48:0:0
     RDKit          3D

 96105  0  0  1  0  0  0  0  0999 V2000
  -30.3320  -19.8280   18.5210 C   0  0  0  0  0  3  0  0  0  0  0  0
  -30.6510  -17.3960   18.5350 C   0  0  0  0  0  3  0  0  0  0  0  0
  -30.3830  -18.6090   20.6420 C   0  0  0  0  0  0  0  0  0  0  0  0
  -30.2360  -19.8960   19.9280 C   0  0  0  0  0  0  0  0  0  0  0  0
  -30.5310  -18.6120   17.8370 C   0  0  0  0  0  0  0  0  0  0  0  0
  -30.5900  -17.3180   19.9470 C   0  0  0  0  0  0  0  0  0  0  0  0
  -29.2820  -23.6720   20.3270 C   0  0  0  0  0  0  0  0  0  0  0  0
  -28.4620  -24.7970   20.4650 C   0  0  0  0  0  3  0  0  0  0  0  0
  -30.7580  -23.6140   20.0170 C   0  0  0  0  0  2  0  0  0  0  0  0
  -31.2420  -22.1570   20.3250 C   0  0  0  0  0  2  0  0  0  0  0  0
  -28.8840  -22.1510   20.4850 C   0  0  0  0  0  3  0  0  0  0  0  0
  -27.8350  -21.7460   19.4390 C   0  0  0  0  0  1  0  0  0  0  0  0
  -30.0950  -21.2470   20.4980 N   0  0  0  0  0  0  0  0  0  0  0  0
  -28.6810  -26.2190   20.2940 O   0  0  0  0  0  0  0  0  0  0  0  0
  -24.6400  -31.6260   23.1030 C   0  0  0  0  0  0  0  0  0  0  0  0
  -27.5670  -27.1060   20.1840 C   0  0  0  0  0  0  0  0  0  0  0  0
  -23.5590  -30.1360   21.4630 C   0  0  0  0  0  3  0  0  0  0  0  0
  -25.1290  -28.6530   20.0830 C   0  0  0  0  0  0  0  0  0  0  0  0
  -26.0870  -30.5770   21.3380 C   0  0  0  0  0  2  0  0  0  0  0  0
  -26.2600  -29.1890   20.7150 C   0  0  0  0  0  0  0  0  0  0  0  0
  -27.4760  -28.4250   20.7630 C   0  0  0  0  0  3  0  0  0  0  0  0
  -26.4210  -26.6770   19.4760 C   0  0  0  0  0  3  0  0  0  0  0  0
  -25.2170  -27.4060   19.4520 C   0  0  0  0  0  3  0  0  0  0  0  0
  -23.8440  -29.4620   20.0960 C   0  0  0  0  0  2  0  0  0  0  0  0
  -24.7790  -30.8020   22.0230 N   0  0  0  0  0  0  0  0  0  0  0  0
  -23.5300  -31.8440   23.6110 O   0  0  0  0  0  0  0  0  0  0  0  0
  -22.9360  -29.0940   22.4260 C   0  0  0  0  0  0  0  0  0  0  0  0
  -21.6320  -28.8100   22.2550 N   0  0  0  0  0  0  0  0  0  0  0  0
  -23.6260  -28.5450   23.2870 O   0  0  0  0  0  0  0  0  0  0  0  0
  -21.1290  -29.3090   21.5360 H   0  0  0  0  0  0  0  0  0  0  0  0
  -18.3520  -27.3250   22.6390 C   0  0  0  0  0  0  0  0  0  0  0  0
  -20.8600  -27.8310   23.0230 C   0  0  0  0  0  3  0  0  0  0  0  0
  -21.1190  -26.3930   22.5150 C   0  0  0  0  0  2  0  0  0  0  0  0
  -20.1070  -25.9330   21.4610 C   0  0  0  0  0  2  0  0  0  0  0  0
  -18.6850  -25.9750   22.0290 C   0  0  0  0  0  2  0  0  0  0  0  0
  -19.3730  -28.2030   23.0910 C   0  0  0  0  0  0  0  0  0  0  0  0
  -19.0100  -29.4590   23.6210 C   0  0  0  0  0  3  0  0  0  0  0  0
  -17.6580  -29.8440   23.7010 C   0  0  0  0  0  3  0  0  0  0  0  0
  -16.6510  -28.9660   23.2630 C   0  0  0  0  0  3  0  0  0  0  0  0
  -16.9980  -27.7070   22.7400 C   0  0  0  0  0  3  0  0  0  0  0  0
  -25.8670  -32.3480   23.7400 C   0  0  0  0  0  3  0  0  0  0  0  0
  -26.4240  -31.6110   25.0210 C   0  0  1  0  0  0  0  0  0  0  0  0
  -25.3400  -31.2930   26.0760 C   0  0  0  0  0  1  0  0  0  0  0  0
  -27.1080  -30.2790   24.6340 C   0  0  0  0  0  1  0  0  0  0  0  0
  -27.5060  -32.4840   25.6970 C   0  0  0  0  0  1  0  0  0  0  0  0
  -25.4520  -33.7180   24.0740 N   0  0  0  0  0  0  0  0  0  0  0  0
  -25.6880  -34.7940   23.3120 C   0  0  0  0  0  0  0  0  0  0  0  0
  -26.3450  -34.7420   22.2690 O   0  0  0  0  0  0  0  0  0  0  0  0
  -24.8620  -33.8270   24.8860 H   0  0  0  0  0  0  0  0  0  0  0  0
  -23.8080  -36.4370   23.0060 C   0  0  0  0  0  1  0  0  0  0  0  0
  -25.1030  -36.1410   23.7790 C   0  0  0  0  0  3  0  0  0  0  0  0
  -27.1820  -37.2050   24.5420 C   0  0  0  0  0  1  0  0  0  0  0  0
  -26.0420  -37.2750   23.6300 N   0  0  0  0  0  0  0  0  0  0  0  0
  -25.5660  -38.1600   23.7840 H   0  0  0  0  0  0  0  0  0  0  0  0
  -30.6120  -18.6110   16.4440 N   0  0  0  0  0  0  0  0  0  0  0  0
  -30.2570  -19.4120   15.9290 H   0  0  0  0  0  0  0  0  0  0  0  0
  -30.4990  -17.7370   15.9400 H   0  0  0  0  0  0  0  0  0  0  0  0
  -30.1810  -17.6510   22.9890 C   0  0  0  0  0  2  0  0  0  0  0  0
  -30.2810  -18.6710   22.1170 C   0  0  0  0  0  3  0  0  0  0  0  0
  -30.6720  -15.9990   20.5340 O   0  0  0  0  0  0  0  0  0  0  0  0
  -31.4030  -14.8340   19.9840 C   0  0  0  0  0  0  0  0  0  0  0  0
  -30.9220  -12.6830   18.7510 C   0  0  0  0  0  2  0  0  0  0  0  0
  -29.9070  -12.9890   17.6250 C   0  0  0  0  0  2  0  0  0  0  0  0
  -28.4640  -12.8670   18.1490 C   0  0  0  0  0  2  0  0  0  0  0  0
  -28.2510  -13.6180   19.4930 C   0  0  0  0  0  3  0  0  0  0  0  0
  -29.3750  -13.3310   20.5090 C   0  0  0  0  0  2  0  0  0  0  0  0
  -30.6550  -13.6250   19.8620 N   0  0  0  0  0  0  0  0  0  0  0  0
  -32.5360  -14.9290   19.5080 O   0  0  0  0  0  0  0  0  0  0  0  0
  -25.9580  -14.2590   20.4400 C   0  0  0  0  0  0  0  0  0  0  0  0
  -24.8810  -13.5100   20.8300 C   0  0  0  0  0  0  0  0  0  0  0  0
  -25.2680  -12.1450   20.6680 C   0  0  0  0  0  0  0  0  0  0  0  0
  -26.9320  -13.3520   20.0600 N   0  0  0  0  0  0  0  0  0  0  0  0
  -26.5300  -12.0700   20.2600 N   0  0  0  0  0  0  0  0  0  0  0  0
  -24.4890  -10.9080   20.8210 C   0  0  0  0  0  0  0  0  0  0  0  0
  -24.8720   -9.9010   21.7340 C   0  0  0  0  0  3  0  0  0  0  0  0
  -24.0940   -8.7310   21.8770 C   0  0  0  0  0  3  0  0  0  0  0  0
  -22.9200   -8.5600   21.1050 C   0  0  0  0  0  0  0  0  0  0  0  0
  -22.5570   -9.5550   20.1820 C   0  0  0  0  0  3  0  0  0  0  0  0
  -23.3340  -10.7160   20.0370 C   0  0  0  0  0  3  0  0  0  0  0  0
  -22.1170   -7.4460   21.1580 O   0  0  0  0  0  0  0  0  0  0  0  0
  -21.9200   -6.7550   22.3270 C   0  0  0  0  0  0  0  0  0  0  0  0
  -21.3930   -7.3780   23.4800 C   0  0  0  0  0  3  0  0  0  0  0  0
  -21.1390   -6.6160   24.6390 C   0  0  0  0  0  3  0  0  0  0  0  0
  -21.4030   -5.2340   24.6430 C   0  0  0  0  0  0  0  0  0  0  0  0
  -21.9230   -4.6110   23.4950 C   0  0  0  0  0  3  0  0  0  0  0  0
  -22.1770   -5.3700   22.3390 C   0  0  0  0  0  0  0  0  0  0  0  0
  -22.6580   -4.7600   21.2290 F   0  0  0  0  0  0  0  0  0  0  0  0
  -21.1540   -4.4990   25.7530 F   0  0  0  0  0  0  0  0  0  0  0  0
  -23.5350  -14.0310   21.2410 C   0  0  0  0  0  0  0  0  0  0  0  0
  -22.8450  -13.3210   22.1260 N   0  0  0  0  0  0  0  0  0  0  0  0
  -23.1080  -15.1040   20.8130 O   0  0  0  0  0  0  0  0  0  0  0  0
  -23.2040  -12.4520   22.4930 H   0  0  0  0  0  0  0  0  0  0  0  0
  -21.9440  -13.6510   22.4400 H   0  0  0  0  0  0  0  0  0  0  0  0
  -26.1840  -15.6290   20.3540 N   0  0  0  0  0  0  0  0  0  0  0  0
  -25.4700  -16.3140   20.5790 H   0  0  0  0  0  0  0  0  0  0  0  0
  -27.0440  -16.0490   20.0250 H   0  0  0  0  0  0  0  0  0  0  0  0
  1  4  1  0
  2  6  2  0
  3 59  1  0
  4 13  1  0
  4  3  2  0
  5  1  2  0
  5  2  1  0
  6 60  1  0
  6  3  1  0
  7  8  2  0
  7 11  1  0
  9 10  1  0
  9  7  1  0
 10 13  1  0
 11 12  1  0
 11 13  1  0
 14  8  1  0
 15 26  2  0
 16 14  1  0
 16 21  1  0
 17 25  1  0
 17 27  1  0
 18 24  1  0
 18 20  1  0
 19 25  1  0
 20 21  2  0
 20 19  1  0
 22 16  2  0
 23 22  1  0
 23 18  2  0
 24 17  1  0
 25 15  1  0
 27 29  2  0
 28 27  1  0
 30 28  1  0
 31 40  2  0
 31 36  1  0
 32 28  1  0
 32 36  1  0
 33 32  1  0
 34 35  1  0
 34 33  1  0
 35 31  1  0
 36 37  2  0
 37 38  1  0
 39 38  2  0
 40 39  1  0
 41 15  1  0
 41 46  1  0
 41 42  1  0
 42 45  1  1
 42 43  1  0
 44 42  1  0
 46 49  1  0
 47 51  1  0
 47 46  1  0
 48 47  2  0
 51 50  1  0
 53 51  1  0
 53 54  1  0
 53 52  1  0
 55  5  1  0
 56 55  1  0
 57 55  1  0
 59 58  2  0
 61 60  1  0
 62 67  1  0
 63 64  1  0
 63 62  1  0
 65 64  1  0
 65 72  1  0
 65 66  1  0
 67 61  1  0
 67 66  1  0
 68 61  2  0
 69 70  2  0
 70 89  1  0
 71 74  1  0
 71 70  1  0
 72 73  1  0
 72 69  1  0
 73 71  2  0
 74 75  1  0
 75 76  2  0
 77 80  1  0
 77 76  1  0
 78 77  2  0
 79 78  1  0
 79 74  2  0
 80 81  1  0
 81 86  2  0
 81 82  1  0
 82 83  2  0
 83 84  1  0
 84 88  1  0
 85 84  2  0
 86 85  1  0
 87 86  1  0
 89 90  1  0
 90 93  1  0
 90 92  1  0
 91 89  2  0
 94 69  1  0
 94 95  1  0
 96 94  1  0
M  ISO  4   8 101  14 101  60 100  61 100
M  END
>  <TORSDO>  (49) 
F 20

>  <SCORE>  (49) 
-11.749

>  <name>  (49) 
48

>  <ligand_id>  (49) 
48

>  <original_smiles>  (49) 
[H]C([H])=C([H])c1c(OC(=O)N2C([H])([H])C([H])([H])C([H])([H])C([H])(n3nc(-c4c([H])c([H])c(Oc5c([H])c([H])c(F)c([H])c5F)c([H])c4[H])c(C(=O)N([H])[H])c3N([H])[H])C2([H])[H])c([H])c(N([H])[H])c([H])c1N1C([H])([H])C([H])([H])C(=C([H])Oc2c([H])c([H])c3c(c2[H])C([H])([H])N(C(=O)C([H])(N([H])C(=O)C([H])(N([H])C([H])([H])[H])C([H])([H])[H])C(C([H])([H])[H])(C([H])([H])[H])C([H])([H])[H])C([H])(C(=O)N([H])C2([H])c4c([H])c([H])c([H])c([H])c4C([H])([H])C([H])([H])C2([H])[H])C3([H])[H])C1([H])C([H])([H])[H]

>  <smiles>  (49) 
[H]C([H])=C([H])c1c(OC(=O)N2C([H])([H])C([H])([H])C([H])([H])C([H])(n3nc(-c4c([H])c([H])c(Oc5c([H])c([H])c(F)c([H])c5F)c([H])c4[H])c(C(=O)N([H])[H])c3N([H])[H])C2([H])[H])c([H])c(N([H])[H])c([H])c1N1C([H])([H])C([H])([H])C(=C([H])Oc2c([H])c([H])c3c(c2[H])C([H])([H])N(C(=O)C([H])(N([H])C(=O)C([H])(N([H])C([H])([H])[H])C([H])([H])[H])C(C([H])([H])[H])(C([H])([H])[H])C([H])([H])[H])C([H])(C(=O)N([H])C2([H])c4c([H])c([H])c([H])c([H])c4C([H])([H])C([H])([H])C2([H])[H])C3([H])[H])C1([H])C([H])([H])[H]

$$$$
49:0:0
     RDKit          3D

102112  0  0  1  0  0  0  0  0999 V2000
  -29.8070  -19.5870   19.6750 C   0  0  0  0  0  3  0  0  0  0  0  0
  -31.7060  -18.2300   20.2840 C   0  0  0  0  0  3  0  0  0  0  0  0
  -30.3610  -18.2750   19.8540 C   0  0  0  0  0  0  0  0  0  0  0  0
  -30.5350  -20.8020   19.8620 C   0  0  0  0  0  0  0  0  0  0  0  0
  -31.8980  -20.6830   20.2530 C   0  0  0  0  0  0  0  0  0  0  0  0
  -32.4450  -19.4080   20.5120 C   0  0  0  0  0  0  0  0  0  0  0  0
  -33.7150  -19.3200   20.9810 F   0  0  0  0  0  0  0  0  0  0  0  0
  -27.1950  -17.6930   20.0260 C   0  0  0  0  0  2  0  0  0  0  0  0
  -27.3790  -17.6850   18.5080 C   0  0  0  0  0  2  0  0  0  0  0  0
  -28.3640  -16.8980   20.6240 C   0  0  0  0  0  2  0  0  0  0  0  0
  -28.7560  -17.0350   18.2700 C   0  0  0  0  0  2  0  0  0  0  0  0
  -29.5320  -16.9460   19.6170 C   0  0  1  0  0  0  0  0  0  0  0  0
  -30.8370  -14.9030   20.6490 C   0  0  0  0  0  0  0  0  0  0  0  0
  -30.8600  -12.4610   20.3480 C   0  0  0  0  0  2  0  0  0  0  0  0
  -30.1000  -12.1300   19.0510 C   0  0  0  0  0  2  0  0  0  0  0  0
  -28.5810  -11.9900   19.2820 C   0  0  0  0  0  2  0  0  0  0  0  0
  -27.9920  -13.1010   20.2020 C   0  0  0  0  0  3  0  0  0  0  0  0
  -28.9000  -13.4030   21.4210 C   0  0  0  0  0  2  0  0  0  0  0  0
  -30.2440  -13.6890   20.8840 N   0  0  0  0  0  0  0  0  0  0  0  0
  -32.0560  -15.0210   20.7960 O   0  0  0  0  0  0  0  0  0  0  0  0
  -30.9580  -15.4330   18.2920 C   0  0  0  0  0  1  0  0  0  0  0  0
  -30.2950  -15.6300   19.6040 N   0  0  0  0  0  0  0  0  0  0  0  0
  -25.5370  -13.6940   20.6580 C   0  0  0  0  0  0  0  0  0  0  0  0
  -24.4400  -12.9470   20.9290 C   0  0  0  0  0  0  0  0  0  0  0  0
  -24.9090  -11.6020   20.9930 C   0  0  0  0  0  0  0  0  0  0  0  0
  -26.6100  -12.8230   20.5660 N   0  0  0  0  0  0  0  0  0  0  0  0
  -26.2240  -11.5510   20.8250 N   0  0  0  0  0  0  0  0  0  0  0  0
  -24.1640  -10.3620   21.1540 C   0  0  0  0  0  0  0  0  0  0  0  0
  -24.5270   -9.4240   22.1420 C   0  0  0  0  0  3  0  0  0  0  0  0
  -23.7790   -8.2420   22.3030 C   0  0  0  0  0  3  0  0  0  0  0  0
  -22.6610   -7.9970   21.4690 C   0  0  0  0  0  0  0  0  0  0  0  0
  -22.3090   -8.9330   20.4820 C   0  0  0  0  0  3  0  0  0  0  0  0
  -23.0590  -10.1050   20.3180 C   0  0  0  0  0  3  0  0  0  0  0  0
  -21.8890   -6.8690   21.5280 O   0  0  0  0  0  0  0  0  0  0  0  0
  -21.7640   -6.1530   22.6890 C   0  0  0  0  0  0  0  0  0  0  0  0
  -21.2210   -6.7280   23.8570 C   0  0  0  0  0  3  0  0  0  0  0  0
  -21.0310   -5.9340   25.0030 C   0  0  0  0  0  3  0  0  0  0  0  0
  -21.3920   -4.5740   24.9850 C   0  0  0  0  0  0  0  0  0  0  0  0
  -21.9440   -4.0060   23.8220 C   0  0  0  0  0  3  0  0  0  0  0  0
  -22.1220   -4.7930   22.6750 C   0  0  0  0  0  0  0  0  0  0  0  0
  -22.6310   -4.2410   21.5470 F   0  0  0  0  0  0  0  0  0  0  0  0
  -21.2080   -3.8080   26.0860 F   0  0  0  0  0  0  0  0  0  0  0  0
  -23.0180  -13.4360   21.0230 C   0  0  0  0  0  0  0  0  0  0  0  0
  -22.2060  -12.8200   21.8730 N   0  0  0  0  0  0  0  0  0  0  0  0
  -22.6390  -14.4090   20.3700 O   0  0  0  0  0  0  0  0  0  0  0  0
  -22.5020  -12.0300   22.4290 H   0  0  0  0  0  0  0  0  0  0  0  0
  -21.2530  -13.1440   21.9680 H   0  0  0  0  0  0  0  0  0  0  0  0
  -25.6940  -15.0450   20.4390 N   0  0  0  0  0  0  0  0  0  0  0  0
  -24.8510  -15.5810   20.2650 H   0  0  0  0  0  0  0  0  0  0  0  0
  -26.5130  -15.4000   19.9710 H   0  0  0  0  0  0  0  0  0  0  0  0
  -32.7550  -21.7840   20.3820 N   0  0  0  0  0  0  0  0  0  0  0  0
  -32.3670  -22.7040   20.5430 H   0  0  0  0  0  0  0  0  0  0  0  0
  -33.6170  -21.6200   20.8960 H   0  0  0  0  0  0  0  0  0  0  0  0
  -29.8440  -22.1780   19.5490 C   0  0  0  0  0  2  0  0  0  0  0  0
  -29.8130  -23.0860   21.9140 C   0  0  0  0  0  0  0  0  0  0  0  0
  -29.9090  -24.4050   22.6490 C   0  0  0  0  0  2  0  0  0  0  0  0
  -30.1740  -25.4110   21.5320 C   0  0  0  0  0  2  0  0  0  0  0  0
  -29.7280  -24.7120   20.2240 C   0  0  0  0  0  3  0  0  0  0  0  0
  -29.7620  -23.2590   20.5790 N   0  0  0  0  0  0  0  0  0  0  0  0
  -29.8290  -22.0190   22.5280 O   0  0  0  0  0  0  0  0  0  0  0  0
  -28.3180  -25.2670   19.7860 C   0  0  0  0  0  2  0  0  0  0  0  0
  -28.2880  -26.7160   19.6790 O   0  0  0  0  0  0  0  0  0  0  0  0
  -24.5940  -31.7150   23.2350 C   0  0  0  0  0  0  0  0  0  0  0  0
  -27.0910  -27.4180   19.8000 C   0  0  0  0  0  0  0  0  0  0  0  0
  -23.3200  -30.4920   21.4960 C   0  0  0  0  0  3  0  0  0  0  0  0
  -24.7140  -28.9880   19.9630 C   0  0  0  0  0  0  0  0  0  0  0  0
  -25.8550  -30.7710   21.3010 C   0  0  0  0  0  2  0  0  0  0  0  0
  -25.8940  -29.4420   20.5650 C   0  0  0  0  0  0  0  0  0  0  0  0
  -27.0760  -28.6670   20.4730 C   0  0  0  0  0  3  0  0  0  0  0  0
  -25.8890  -26.9820   19.1990 C   0  0  0  0  0  3  0  0  0  0  0  0
  -24.7050  -27.7520   19.2850 C   0  0  0  0  0  3  0  0  0  0  0  0
  -23.5000  -29.8900   20.0730 C   0  0  0  0  0  2  0  0  0  0  0  0
  -24.6080  -31.0020   22.0710 N   0  0  0  0  0  0  0  0  0  0  0  0
  -23.5270  -31.9820   23.8090 O   0  0  0  0  0  0  0  0  0  0  0  0
  -22.6330  -29.4310   22.3880 C   0  0  0  0  0  0  0  0  0  0  0  0
  -21.3010  -29.3170   22.2700 N   0  0  0  0  0  0  0  0  0  0  0  0
  -23.2980  -28.7160   23.1400 O   0  0  0  0  0  0  0  0  0  0  0  0
  -20.8220  -29.9530   21.6480 H   0  0  0  0  0  0  0  0  0  0  0  0
  -17.8870  -28.2270   22.7320 C   0  0  0  0  0  0  0  0  0  0  0  0
  -20.4580  -28.3510   22.9750 C   0  0  0  0  0  3  0  0  0  0  0  0
  -20.4840  -26.9690   22.2810 C   0  0  0  0  0  2  0  0  0  0  0  0
  -19.3540  -26.7850   21.2620 C   0  0  0  0  0  2  0  0  0  0  0  0
  -17.9910  -26.9320   21.9440 C   0  0  0  0  0  2  0  0  0  0  0  0
  -19.0460  -28.8990   23.2030 C   0  0  0  0  0  0  0  0  0  0  0  0
  -18.8950  -30.1180   23.9010 C   0  0  0  0  0  3  0  0  0  0  0  0
  -17.6180  -30.6640   24.1260 C   0  0  0  0  0  3  0  0  0  0  0  0
  -16.4730  -29.9880   23.6680 C   0  0  0  0  0  3  0  0  0  0  0  0
  -16.6080  -28.7690   22.9800 C   0  0  0  0  0  3  0  0  0  0  0  0
  -25.9090  -32.2460   23.8870 C   0  0  0  0  0  3  0  0  0  0  0  0
  -25.6670  -33.6390   24.2890 N   0  0  0  0  0  0  0  0  0  0  0  0
  -26.0860  -34.7120   23.6070 C   0  0  0  0  0  0  0  0  0  0  0  0
  -26.7790  -34.6310   22.5900 O   0  0  0  0  0  0  0  0  0  0  0  0
  -25.0460  -33.7800   25.0700 H   0  0  0  0  0  0  0  0  0  0  0  0
  -24.4730  -36.6240   23.3140 C   0  0  0  0  0  1  0  0  0  0  0  0
  -25.6610  -36.0950   24.1330 C   0  0  0  0  0  3  0  0  0  0  0  0
  -27.8130  -36.8090   25.0820 C   0  0  0  0  0  1  0  0  0  0  0  0
  -26.7550  -37.0930   24.1170 N   0  0  0  0  0  0  0  0  0  0  0  0
  -26.3910  -38.0250   24.3090 H   0  0  0  0  0  0  0  0  0  0  0  0
  -26.3870  -31.3820   25.1190 C   0  0  1  0  0  0  0  0  0  0  0  0
  -25.2920  -31.1560   26.1860 C   0  0  0  0  0  1  0  0  0  0  0  0
  -26.8880  -29.9930   24.6540 C   0  0  0  0  0  1  0  0  0  0  0  0
  -27.5750  -32.0770   25.8200 C   0  0  0  0  0  1  0  0  0  0  0  0
  1  3  2  0
  1  4  1  0
  2  6  2  0
  3  2  1  0
  4  5  2  0
  5 51  1  0
  5  6  1  0
  6  7  1  0
  8 10  1  0
  9  8  1  0
 11  9  1  0
 11 12  1  0
 12  3  1  0
 12 10  1  0
 13 20  2  0
 13 19  1  0
 14 19  1  0
 15 16  1  0
 15 14  1  0
 17 16  1  0
 17 26  1  0
 17 18  1  0
 19 18  1  0
 21 22  1  0
 12 22  1  6
 22 13  1  0
 23 24  2  0
 24 25  1  0
 24 43  1  0
 25 28  1  0
 26 23  1  0
 26 27  1  0
 27 25  2  0
 28 29  1  0
 29 30  2  0
 31 34  1  0
 31 30  1  0
 32 31  2  0
 33 32  1  0
 33 28  2  0
 34 35  1  0
 35 36  1  0
 36 37  2  0
 38 37  1  0
 38 42  1  0
 39 38  2  0
 40 35  2  0
 40 39  1  0
 41 40  1  0
 43 44  1  0
 44 47  1  0
 44 46  1  0
 45 43  2  0
 48 23  1  0
 49 48  1  0
 50 48  1  0
 51 52  1  0
 51 53  1  0
 54  4  1  0
 54 59  1  0
 55 60  2  0
 55 56  1  0
 57 56  1  0
 58 61  1  0
 58 59  1  0
 58 57  1  0
 59 55  1  0
 62 61  1  0
 62 64  1  0
 63 74  2  0
 64 69  1  0
 65 73  1  0
 65 75  1  0
 66 72  1  0
 66 68  1  0
 67 73  1  0
 68 67  1  0
 69 68  2  0
 70 71  1  0
 70 64  2  0
 71 66  2  0
 72 65  1  0
 73 63  1  0
 75 77  2  0
 76 75  1  0
 78 76  1  0
 79 88  2  0
 79 84  1  0
 80 76  1  0
 80 84  1  0
 81 80  1  0
 82 83  1  0
 82 81  1  0
 83 79  1  0
 84 85  2  0
 85 86  1  0
 87 86  2  0
 88 87  1  0
 89 63  1  0
 89 90  1  0
 89 99  1  0
 90 93  1  0
 91 95  1  0
 91 90  1  0
 92 91  2  0
 95 94  1  0
 97 95  1  0
 97 98  1  0
 97 96  1  0
 99102  1  1
 99100  1  0
101 99  1  0
M  ISO  4  13 100  22 100  61 101  62 101
M  END
>  <TORSDO>  (50) 
F 21

>  <SCORE>  (50) 
-13.146

>  <name>  (50) 
49

>  <ligand_id>  (50) 
49

>  <original_smiles>  (50) 
[H]c1c([H])c([H])c2c(c1[H])C([H])([H])C([H])([H])C([H])([H])C2([H])N([H])C(=O)C1([H])N(C(=O)C([H])(N([H])C(=O)C([H])(N([H])C([H])([H])[H])C([H])([H])[H])C(C([H])([H])[H])(C([H])([H])[H])C([H])([H])[H])C([H])([H])c2c([H])c(OC([H])([H])C3([H])N(C([H])([H])c4c([H])c(C5(N(C(=O)N6C([H])([H])C([H])([H])C([H])([H])C([H])(n7nc(-c8c([H])c([H])c(Oc9c([H])c([H])c(F)c([H])c9F)c([H])c8[H])c(C(=O)N([H])[H])c7N([H])[H])C6([H])[H])C([H])([H])[H])C([H])([H])C([H])([H])C([H])([H])C5([H])[H])c([H])c(F)c4N([H])[H])C(=O)C([H])([H])C3([H])[H])c([H])c([H])c2C1([H])[H]

>  <smiles>  (50) 
[H]c1c([H])c([H])c2c(c1[H])C([H])([H])C([H])([H])C([H])([H])C2([H])N([H])C(=O)C1([H])N(C(=O)C([H])(N([H])C(=O)C([H])(N([H])C([H])([H])[H])C([H])([H])[H])C(C([H])([H])[H])(C([H])([H])[H])C([H])([H])[H])C([H])([H])c2c([H])c(OC([H])([H])C3([H])N(C([H])([H])c4c([H])c(C5(N(C(=O)N6C([H])([H])C([H])([H])C([H])([H])C([H])(n7nc(-c8c([H])c([H])c(Oc9c([H])c([H])c(F)c([H])c9F)c([H])c8[H])c(C(=O)N([H])[H])c7N([H])[H])C6([H])[H])C([H])([H])[H])C([H])([H])C([H])([H])C([H])([H])C5([H])[H])c([H])c(F)c4N([H])[H])C(=O)C([H])([H])C3([H])[H])c([H])c([H])c2C1([H])[H]

$$$$
50:0:0
     RDKit          3D

 96105  0  0  1  0  0  0  0  0999 V2000
  -31.4990  -22.2110   21.0900 C   0  0  0  0  0  0  0  0  0  0  0  0
  -29.2060  -22.5510   20.5300 C   0  0  0  0  0  0  0  0  0  0  0  0
  -31.7620  -23.7290   21.1080 C   0  0  0  0  0  2  0  0  0  0  0  0
  -30.4970  -24.5780   21.2670 C   0  0  0  0  0  2  0  0  0  0  0  0
  -29.4470  -24.0960   20.2710 C   0  0  0  0  0  3  0  0  0  0  0  0
  -30.2500  -21.6910   20.8570 N   0  0  0  0  0  0  0  0  0  0  0  0
  -32.5020  -21.5060   21.2710 O   0  0  0  0  0  0  0  0  0  0  0  0
  -28.0410  -22.1450   20.4390 O   0  0  0  0  0  0  0  0  0  0  0  0
  -30.6560  -19.3340   21.8470 C   0  0  0  0  0  3  0  0  0  0  0  0
  -29.4500  -19.5510   19.7960 C   0  0  0  0  0  3  0  0  0  0  0  0
  -30.6710  -17.9070   21.7150 C   0  0  0  0  0  3  0  0  0  0  0  0
  -29.4270  -18.1420   19.6910 C   0  0  0  0  0  3  0  0  0  0  0  0
  -30.0990  -20.2130   20.8610 C   0  0  0  0  0  0  0  0  0  0  0  0
  -30.0970  -17.2510   20.5920 C   0  0  0  0  0  0  0  0  0  0  0  0
  -30.8580  -14.7780   20.9850 C   0  0  0  0  0  0  0  0  0  0  0  0
  -30.8210  -12.3600   20.3540 C   0  0  0  0  0  2  0  0  0  0  0  0
  -30.0480  -12.0730   19.0440 C   0  0  0  0  0  2  0  0  0  0  0  0
  -28.5100  -12.1420   19.2220 C   0  0  0  0  0  2  0  0  0  0  0  0
  -27.9810  -13.1730   20.2660 C   0  0  0  0  0  3  0  0  0  0  0  0
  -28.8890  -13.2650   21.5060 C   0  0  0  0  0  2  0  0  0  0  0  0
  -30.2450  -13.5460   21.0200 N   0  0  0  0  0  0  0  0  0  0  0  0
  -32.0860  -14.8550   21.0930 O   0  0  0  0  0  0  0  0  0  0  0  0
  -30.1880  -15.7930   20.2910 N   0  0  0  0  0  0  0  0  0  0  0  0
  -25.5330  -13.8170   20.7090 C   0  0  0  0  0  0  0  0  0  0  0  0
  -24.4200  -13.0630   20.9730 C   0  0  0  0  0  0  0  0  0  0  0  0
  -24.8710  -11.7090   21.0440 C   0  0  0  0  0  0  0  0  0  0  0  0
  -26.5870  -12.9220   20.6250 N   0  0  0  0  0  0  0  0  0  0  0  0
  -26.1880  -11.6530   20.8980 N   0  0  0  0  0  0  0  0  0  0  0  0
  -24.1160  -10.4560   21.1810 C   0  0  0  0  0  0  0  0  0  0  0  0
  -24.4880   -9.4700   22.1200 C   0  0  0  0  0  3  0  0  0  0  0  0
  -23.7360   -8.2820   22.2450 C   0  0  0  0  0  3  0  0  0  0  0  0
  -22.5960   -8.0720   21.4310 C   0  0  0  0  0  0  0  0  0  0  0  0
  -22.2460   -9.0450   20.4810 C   0  0  0  0  0  3  0  0  0  0  0  0
  -23.0000  -10.2260   20.3540 C   0  0  0  0  0  3  0  0  0  0  0  0
  -21.8240   -6.9350   21.4670 O   0  0  0  0  0  0  0  0  0  0  0  0
  -21.7680   -6.1370   22.5800 C   0  0  0  0  0  0  0  0  0  0  0  0
  -21.3620   -6.6370   23.8360 C   0  0  0  0  0  3  0  0  0  0  0  0
  -21.2530   -5.7670   24.9390 C   0  0  0  0  0  3  0  0  0  0  0  0
  -21.5400   -4.3970   24.7850 C   0  0  0  0  0  0  0  0  0  0  0  0
  -21.9410   -3.8960   23.5340 C   0  0  0  0  0  3  0  0  0  0  0  0
  -22.0520   -4.7640   22.4340 C   0  0  0  0  0  0  0  0  0  0  0  0
  -22.4210   -4.2750   21.2250 F   0  0  0  0  0  0  0  0  0  0  0  0
  -21.4270   -3.5590   25.8400 F   0  0  0  0  0  0  0  0  0  0  0  0
  -23.0060  -13.5540   21.0530 C   0  0  0  0  0  0  0  0  0  0  0  0
  -22.1760  -12.9040   21.8620 N   0  0  0  0  0  0  0  0  0  0  0  0
  -22.6370  -14.5510   20.4330 O   0  0  0  0  0  0  0  0  0  0  0  0
  -22.4800  -12.0970   22.3890 H   0  0  0  0  0  0  0  0  0  0  0  0
  -21.2210  -13.2180   21.9560 H   0  0  0  0  0  0  0  0  0  0  0  0
  -25.7300  -15.1790   20.5090 N   0  0  0  0  0  0  0  0  0  0  0  0
  -24.9670  -15.8470   20.5270 H   0  0  0  0  0  0  0  0  0  0  0  0
  -26.6260  -15.6040   20.3010 H   0  0  0  0  0  0  0  0  0  0  0  0
  -30.0400  -15.5220   18.8380 C   0  0  0  0  0  2  0  0  0  0  0  0
  -31.3110  -16.7210   16.9950 C   0  0  0  0  0  2  0  0  0  0  0  0
  -31.2840  -15.8710   18.0320 C   0  0  0  0  0  3  0  0  0  0  0  0
  -28.1650  -25.0280   20.2340 C   0  0  0  0  0  2  0  0  0  0  0  0
  -28.3480  -26.4720   19.9900 O   0  0  0  0  0  0  0  0  0  0  0  0
  -24.5260  -31.7380   23.0570 C   0  0  0  0  0  0  0  0  0  0  0  0
  -27.1970  -27.2680   19.9610 C   0  0  0  0  0  0  0  0  0  0  0  0
  -23.3290  -30.3240   21.4240 C   0  0  0  0  0  3  0  0  0  0  0  0
  -24.7920  -28.8100   19.9780 C   0  0  0  0  0  0  0  0  0  0  0  0
  -25.8570  -30.7000   21.2100 C   0  0  0  0  0  2  0  0  0  0  0  0
  -25.9560  -29.3270   20.5640 C   0  0  0  0  0  0  0  0  0  0  0  0
  -27.1590  -28.5660   20.5480 C   0  0  0  0  0  3  0  0  0  0  0  0
  -26.0120  -26.8030   19.3430 C   0  0  0  0  0  3  0  0  0  0  0  0
  -24.8220  -27.5520   19.3600 C   0  0  0  0  0  3  0  0  0  0  0  0
  -23.5380  -29.6570   20.0380 C   0  0  0  0  0  2  0  0  0  0  0  0
  -24.5900  -30.9380   21.9540 N   0  0  0  0  0  0  0  0  0  0  0  0
  -23.4460  -31.9940   23.6060 O   0  0  0  0  0  0  0  0  0  0  0  0
  -22.6960  -29.2920   22.3870 C   0  0  0  0  0  0  0  0  0  0  0  0
  -21.3740  -29.0870   22.2700 N   0  0  0  0  0  0  0  0  0  0  0  0
  -23.3970  -28.6760   23.1950 O   0  0  0  0  0  0  0  0  0  0  0  0
  -20.8670  -29.6370   21.5890 H   0  0  0  0  0  0  0  0  0  0  0  0
  -18.0310  -27.8080   22.7710 C   0  0  0  0  0  0  0  0  0  0  0  0
  -20.5810  -28.1350   23.0460 C   0  0  0  0  0  3  0  0  0  0  0  0
  -20.7230  -26.7020   22.4800 C   0  0  0  0  0  2  0  0  0  0  0  0
  -19.6320  -26.3450   21.4650 C   0  0  0  0  0  2  0  0  0  0  0  0
  -18.2450  -26.4580   22.1060 C   0  0  0  0  0  2  0  0  0  0  0  0
  -19.1280  -28.6010   23.1990 C   0  0  0  0  0  0  0  0  0  0  0  0
  -18.8770  -29.8620   23.7820 C   0  0  0  0  0  3  0  0  0  0  0  0
  -17.5600  -30.3310   23.9410 C   0  0  0  0  0  3  0  0  0  0  0  0
  -16.4760  -29.5350   23.5310 C   0  0  0  0  0  3  0  0  0  0  0  0
  -16.7120  -28.2750   22.9520 C   0  0  0  0  0  3  0  0  0  0  0  0
  -25.8070  -32.3890   23.6660 C   0  0  0  0  0  3  0  0  0  0  0  0
  -26.3710  -31.6030   24.9120 C   0  0  1  0  0  0  0  0  0  0  0  0
  -25.3110  -31.3240   26.0030 C   0  0  0  0  0  1  0  0  0  0  0  0
  -26.9660  -30.2440   24.4780 C   0  0  0  0  0  1  0  0  0  0  0  0
  -27.5230  -32.4050   25.5610 C   0  0  0  0  0  1  0  0  0  0  0  0
  -25.4680  -33.7710   24.0350 N   0  0  0  0  0  0  0  0  0  0  0  0
  -25.7940  -34.8520   23.3130 C   0  0  0  0  0  0  0  0  0  0  0  0
  -26.4810  -34.7940   22.2900 O   0  0  0  0  0  0  0  0  0  0  0  0
  -24.8550  -33.8910   24.8280 H   0  0  0  0  0  0  0  0  0  0  0  0
  -24.0490  -36.6330   22.9800 C   0  0  0  0  0  1  0  0  0  0  0  0
  -25.2750  -36.2160   23.8070 C   0  0  0  0  0  3  0  0  0  0  0  0
  -27.3730  -37.1020   24.7240 C   0  0  0  0  0  1  0  0  0  0  0  0
  -26.2940  -37.2870   23.7580 N   0  0  0  0  0  0  0  0  0  0  0  0
  -25.8690  -38.1940   23.9290 H   0  0  0  0  0  0  0  0  0  0  0  0
  1  3  1  0
  1  7  2  0
  2  6  1  0
  3  4  1  0
  5 55  1  0
  5  2  1  0
  5  4  1  0
  6 13  1  0
  6  1  1  0
  8  2  2  0
 10 13  1  0
 11  9  1  0
 12 10  2  0
 12 14  1  0
 13  9  2  0
 14 11  2  0
 15 21  1  0
 15 22  2  0
 16 21  1  0
 17 18  1  0
 17 16  1  0
 19 18  1  0
 19 27  1  0
 19 20  1  0
 21 20  1  0
 23 14  1  0
 23 15  1  0
 24 25  2  0
 25 26  1  0
 25 44  1  0
 26 29  1  0
 27 24  1  0
 27 28  1  0
 28 26  2  0
 29 30  1  0
 30 31  2  0
 32 35  1  0
 32 31  1  0
 33 32  2  0
 34 33  1  0
 34 29  2  0
 35 36  1  0
 36 37  1  0
 37 38  2  0
 39 38  1  0
 39 43  1  0
 40 39  2  0
 41 36  2  0
 41 40  1  0
 42 41  1  0
 44 45  1  0
 45 48  1  0
 45 47  1  0
 46 44  2  0
 49 50  1  0
 49 24  1  0
 51 49  1  0
 52 23  1  0
 53 54  2  0
 54 52  1  0
 56 55  1  0
 57 68  2  0
 58 56  1  0
 58 63  1  0
 59 67  1  0
 59 69  1  0
 60 66  1  0
 60 62  1  0
 61 67  1  0
 62 61  1  0
 63 62  2  0
 64 65  1  0
 64 58  2  0
 65 60  2  0
 66 59  1  0
 67 57  1  0
 69 71  2  0
 70 69  1  0
 72 70  1  0
 73 82  2  0
 73 78  1  0
 74 70  1  0
 74 78  1  0
 75 74  1  0
 76 77  1  0
 76 75  1  0
 77 73  1  0
 78 79  2  0
 79 80  1  0
 81 80  2  0
 82 81  1  0
 83 57  1  0
 83 88  1  0
 83 84  1  0
 84 87  1  1
 84 85  1  0
 86 84  1  0
 88 91  1  0
 89 93  1  0
 89 88  1  0
 90 89  2  0
 93 92  1  0
 95 93  1  0
 95 96  1  0
 95 94  1  0
M  ISO  4  15 100  23 100  55 101  56 101
M  END
>  <TORSDO>  (51) 
F 20

>  <SCORE>  (51) 
-12.591

>  <name>  (51) 
50

>  <ligand_id>  (51) 
50

>  <original_smiles>  (51) 
[H]C([H])=C([H])C([H])([H])N(C(=O)N1C([H])([H])C([H])([H])C([H])([H])C([H])(n2nc(-c3c([H])c([H])c(Oc4c([H])c([H])c(F)c([H])c4F)c([H])c3[H])c(C(=O)N([H])[H])c2N([H])[H])C1([H])[H])c1c([H])c([H])c(N2C(=O)C([H])([H])C([H])([H])C([H])(C([H])([H])Oc3c([H])c([H])c4c(c3[H])C([H])([H])N(C(=O)C([H])(N([H])C(=O)C([H])(N([H])C([H])([H])[H])C([H])([H])[H])C(C([H])([H])[H])(C([H])([H])[H])C([H])([H])[H])C([H])(C(=O)N([H])C3([H])c5c([H])c([H])c([H])c([H])c5C([H])([H])C([H])([H])C3([H])[H])C4([H])[H])C2=O)c([H])c1[H]

>  <smiles>  (51) 
[H]C([H])=C([H])C([H])([H])N(C(=O)N1C([H])([H])C([H])([H])C([H])([H])C([H])(n2nc(-c3c([H])c([H])c(Oc4c([H])c([H])c(F)c([H])c4F)c([H])c3[H])c(C(=O)N([H])[H])c2N([H])[H])C1([H])[H])c1c([H])c([H])c(N2C(=O)C([H])([H])C([H])([H])C([H])(C([H])([H])Oc3c([H])c([H])c4c(c3[H])C([H])([H])N(C(=O)C([H])(N([H])C(=O)C([H])(N([H])C([H])([H])[H])C([H])([H])[H])C(C([H])([H])[H])(C([H])([H])[H])C([H])([H])[H])C([H])(C(=O)N([H])C3([H])c5c([H])c([H])c([H])c([H])c5C([H])([H])C([H])([H])C3([H])[H])C4([H])[H])C2=O)c([H])c1[H]

$$$$
51:0:0
     RDKit          3D

 94102  0  0  1  0  0  0  0  0999 V2000
  -28.9370  -17.5730   19.6330 C   0  0  0  0  0  3  0  0  0  0  0  0
  -28.6390  -18.8650   20.1020 C   0  0  0  0  0  3  0  0  0  0  0  0
  -30.7670  -17.4040   21.2220 C   0  0  0  0  0  3  0  0  0  0  0  0
  -30.0530  -16.8550   20.1270 C   0  0  0  0  0  0  0  0  0  0  0  0
  -30.4550  -18.6980   21.7060 C   0  0  0  0  0  0  0  0  0  0  0  0
  -29.4240  -19.4640   21.1060 C   0  0  0  0  0  0  0  0  0  0  0  0
  -31.1250  -14.6290   19.9640 C   0  0  0  0  0  0  0  0  0  0  0  0
  -30.7000  -12.4360   18.9650 C   0  0  0  0  0  2  0  0  0  0  0  0
  -29.7180  -12.5840   17.7790 C   0  0  0  0  0  2  0  0  0  0  0  0
  -28.2600  -12.5610   18.2640 C   0  0  0  0  0  2  0  0  0  0  0  0
  -27.9870  -13.4590   19.5020 C   0  0  0  0  0  3  0  0  0  0  0  0
  -29.0810  -13.2920   20.5800 C   0  0  0  0  0  2  0  0  0  0  0  0
  -30.3850  -13.4900   19.9360 N   0  0  0  0  0  0  0  0  0  0  0  0
  -32.3520  -14.6250   19.8720 O   0  0  0  0  0  0  0  0  0  0  0  0
  -30.4820  -15.6880   19.4030 N   0  0  0  0  0  0  0  0  0  0  0  0
  -25.6230  -14.1250   20.2670 C   0  0  0  0  0  0  0  0  0  0  0  0
  -24.5420  -13.3790   20.6560 C   0  0  0  0  0  0  0  0  0  0  0  0
  -24.9740  -12.0180   20.6360 C   0  0  0  0  0  0  0  0  0  0  0  0
  -26.6450  -13.2210   20.0290 N   0  0  0  0  0  0  0  0  0  0  0  0
  -26.2610  -11.9490   20.3170 N   0  0  0  0  0  0  0  0  0  0  0  0
  -24.2230  -10.7710   20.8440 C   0  0  0  0  0  0  0  0  0  0  0  0
  -24.6330   -9.8120   21.7960 C   0  0  0  0  0  3  0  0  0  0  0  0
  -23.8850   -8.6330   21.9930 C   0  0  0  0  0  3  0  0  0  0  0  0
  -22.7120   -8.4010   21.2350 C   0  0  0  0  0  0  0  0  0  0  0  0
  -22.3200   -9.3480   20.2730 C   0  0  0  0  0  3  0  0  0  0  0  0
  -23.0690  -10.5190   20.0740 C   0  0  0  0  0  3  0  0  0  0  0  0
  -21.9360   -7.2730   21.3420 O   0  0  0  0  0  0  0  0  0  0  0  0
  -21.8500   -6.5660   22.5150 C   0  0  0  0  0  0  0  0  0  0  0  0
  -21.4030   -7.1610   23.7140 C   0  0  0  0  0  3  0  0  0  0  0  0
  -21.2650   -6.3800   24.8780 C   0  0  0  0  0  3  0  0  0  0  0  0
  -21.5620   -5.0050   24.8440 C   0  0  0  0  0  0  0  0  0  0  0  0
  -22.0010   -4.4080   23.6490 C   0  0  0  0  0  3  0  0  0  0  0  0
  -22.1410   -5.1860   22.4870 C   0  0  0  0  0  0  0  0  0  0  0  0
  -22.5460   -4.6010   21.3330 F   0  0  0  0  0  0  0  0  0  0  0  0
  -21.4210   -4.2540   25.9620 F   0  0  0  0  0  0  0  0  0  0  0  0
  -23.1580  -13.8890   20.9410 C   0  0  0  0  0  0  0  0  0  0  0  0
  -22.4270  -13.2200   21.8270 N   0  0  0  0  0  0  0  0  0  0  0  0
  -22.7330  -14.9140   20.4120 O   0  0  0  0  0  0  0  0  0  0  0  0
  -22.7840  -12.3900   22.2780 H   0  0  0  0  0  0  0  0  0  0  0  0
  -21.5000  -13.5440   22.0570 H   0  0  0  0  0  0  0  0  0  0  0  0
  -25.8150  -15.4890   20.0740 N   0  0  0  0  0  0  0  0  0  0  0  0
  -25.0710  -16.1670   20.1910 H   0  0  0  0  0  0  0  0  0  0  0  0
  -26.6860  -15.9100   19.7750 H   0  0  0  0  0  0  0  0  0  0  0  0
  -31.7270  -17.0730   17.6480 C   0  0  0  0  0  1  0  0  0  0  0  0
  -30.7740  -15.8980   17.9580 C   0  0  0  0  0  2  0  0  0  0  0  0
  -31.2010  -19.2500   22.7470 N   0  0  0  0  0  0  0  0  0  0  0  0
  -32.1040  -18.8510   22.9900 H   0  0  0  0  0  0  0  0  0  0  0  0
  -31.1400  -20.2530   22.8950 H   0  0  0  0  0  0  0  0  0  0  0  0
  -29.1920  -20.7590   21.5290 O   0  0  0  0  0  0  0  0  0  0  0  0
  -29.2240  -21.7760   20.5160 C   0  0  0  0  0  2  0  0  0  0  0  0
  -28.6290  -23.0980   21.0410 C   0  0  0  0  0  2  0  0  0  0  0  0
  -28.9120  -24.3310   20.1410 C   0  0  0  0  0  2  0  0  0  0  0  0
  -28.2510  -25.6260   20.6650 C   0  0  0  0  0  2  0  0  0  0  0  0
  -28.3790  -26.7580   19.7860 O   0  0  0  0  0  0  0  0  0  0  0  0
  -24.6370  -31.8260   23.1000 C   0  0  0  0  0  0  0  0  0  0  0  0
  -27.2470  -27.5420   19.7860 C   0  0  0  0  0  0  0  0  0  0  0  0
  -23.4050  -30.4710   21.4390 C   0  0  0  0  0  3  0  0  0  0  0  0
  -24.8420  -29.0130   19.9090 C   0  0  0  0  0  0  0  0  0  0  0  0
  -25.9210  -30.8720   21.1870 C   0  0  0  0  0  2  0  0  0  0  0  0
  -26.0070  -29.5290   20.4910 C   0  0  0  0  0  0  0  0  0  0  0  0
  -27.2170  -28.8000   20.4270 C   0  0  0  0  0  3  0  0  0  0  0  0
  -26.0740  -27.0500   19.1820 C   0  0  0  0  0  3  0  0  0  0  0  0
  -24.8700  -27.7730   19.2480 C   0  0  0  0  0  3  0  0  0  0  0  0
  -23.5860  -29.8470   20.0270 C   0  0  0  0  0  2  0  0  0  0  0  0
  -24.6750  -31.0670   21.9680 N   0  0  0  0  0  0  0  0  0  0  0  0
  -23.5660  -32.0630   23.6750 O   0  0  0  0  0  0  0  0  0  0  0  0
  -22.7900  -29.4060   22.3740 C   0  0  0  0  0  0  0  0  0  0  0  0
  -21.4630  -29.2240   22.2830 N   0  0  0  0  0  0  0  0  0  0  0  0
  -23.5020  -28.7490   23.1400 O   0  0  0  0  0  0  0  0  0  0  0  0
  -20.9480  -29.8080   21.6390 H   0  0  0  0  0  0  0  0  0  0  0  0
  -18.1100  -27.9900   22.8250 C   0  0  0  0  0  0  0  0  0  0  0  0
  -20.6740  -28.2490   23.0350 C   0  0  0  0  0  3  0  0  0  0  0  0
  -20.7650  -26.8450   22.3950 C   0  0  0  0  0  2  0  0  0  0  0  0
  -19.6340  -26.5580   21.4010 C   0  0  0  0  0  2  0  0  0  0  0  0
  -18.2710  -26.6710   22.0910 C   0  0  0  0  0  2  0  0  0  0  0  0
  -19.2370  -28.7390   23.2550 C   0  0  0  0  0  0  0  0  0  0  0  0
  -19.0300  -29.9780   23.9010 C   0  0  0  0  0  3  0  0  0  0  0  0
  -17.7290  -30.4650   24.1230 C   0  0  0  0  0  3  0  0  0  0  0  0
  -16.6160  -29.7110   23.7120 C   0  0  0  0  0  3  0  0  0  0  0  0
  -16.8080  -28.4750   23.0680 C   0  0  0  0  0  3  0  0  0  0  0  0
  -25.9300  -32.4470   23.7140 C   0  0  0  0  0  3  0  0  0  0  0  0
  -25.6190  -33.8300   24.0940 N   0  0  0  0  0  0  0  0  0  0  0  0
  -25.9340  -34.9090   23.3650 C   0  0  0  0  0  0  0  0  0  0  0  0
  -26.5860  -34.8420   22.3200 O   0  0  0  0  0  0  0  0  0  0  0  0
  -25.0390  -33.9540   24.9110 H   0  0  0  0  0  0  0  0  0  0  0  0
  -24.1900  -36.6990   23.0940 C   0  0  0  0  0  1  0  0  0  0  0  0
  -25.4440  -36.2760   23.8750 C   0  0  0  0  0  3  0  0  0  0  0  0
  -27.5840  -37.1460   24.7040 C   0  0  0  0  0  1  0  0  0  0  0  0
  -26.4690  -37.3380   23.7820 N   0  0  0  0  0  0  0  0  0  0  0  0
  -26.0600  -38.2510   23.9640 H   0  0  0  0  0  0  0  0  0  0  0  0
  -26.4840  -31.6340   24.9490 C   0  0  1  0  0  0  0  0  0  0  0  0
  -25.4200  -31.3540   26.0350 C   0  0  0  0  0  1  0  0  0  0  0  0
  -27.0600  -30.2750   24.4920 C   0  0  0  0  0  1  0  0  0  0  0  0
  -27.6500  -32.4100   25.6060 C   0  0  0  0  0  1  0  0  0  0  0  0
  1  2  2  0
  1  4  1  0
  2  6  1  0
  3  5  1  0
  4  3  2  0
  5 46  1  0
  6 49  1  0
  6  5  2  0
  8 13  1  0
  9 10  1  0
  9  8  1  0
 11 10  1  0
 11 19  1  0
 11 12  1  0
 13  7  1  0
 13 12  1  0
 14  7  2  0
 15  7  1  0
 15  4  1  0
 16 17  2  0
 17 36  1  0
 18 17  1  0
 18 21  1  0
 19 16  1  0
 19 20  1  0
 20 18  2  0
 21 22  1  0
 22 23  2  0
 24 27  1  0
 24 23  1  0
 25 24  2  0
 26 25  1  0
 26 21  2  0
 27 28  1  0
 28 29  1  0
 29 30  2  0
 31 30  1  0
 31 35  1  0
 32 31  2  0
 33 28  2  0
 33 32  1  0
 34 33  1  0
 36 37  1  0
 37 40  1  0
 37 39  1  0
 38 36  2  0
 41 42  1  0
 41 16  1  0
 43 41  1  0
 44 45  1  0
 45 15  1  0
 46 48  1  0
 46 47  1  0
 50 51  1  0
 50 49  1  0
 52 53  1  0
 52 51  1  0
 54 56  1  0
 54 53  1  0
 55 66  2  0
 56 61  1  0
 57 65  1  0
 57 67  1  0
 58 64  1  0
 58 60  1  0
 59 65  1  0
 60 59  1  0
 61 60  2  0
 62 63  1  0
 62 56  2  0
 63 58  2  0
 64 57  1  0
 65 55  1  0
 67 69  2  0
 68 67  1  0
 70 68  1  0
 71 80  2  0
 71 76  1  0
 72 68  1  0
 72 76  1  0
 73 72  1  0
 74 75  1  0
 74 73  1  0
 75 71  1  0
 76 77  2  0
 77 78  1  0
 79 78  2  0
 80 79  1  0
 81 55  1  0
 81 82  1  0
 81 91  1  0
 82 85  1  0
 83 87  1  0
 83 82  1  0
 84 83  2  0
 87 86  1  0
 89 87  1  0
 89 90  1  0
 89 88  1  0
 91 94  1  1
 91 92  1  0
 93 91  1  0
M  ISO  4   7 100  15 100  53 101  54 101
M  END
>  <TORSDO>  (52) 
F 23

>  <SCORE>  (52) 
-12.211

>  <name>  (52) 
51

>  <ligand_id>  (52) 
51

>  <original_smiles>  (52) 
[H]c1c([H])c([H])c2c(c1[H])C([H])([H])C([H])([H])C([H])([H])C2([H])N([H])C(=O)C1([H])N(C(=O)C([H])(N([H])C(=O)C([H])(N([H])C([H])([H])[H])C([H])([H])[H])C(C([H])([H])[H])(C([H])([H])[H])C([H])([H])[H])C([H])([H])c2c([H])c(OC([H])([H])C([H])([H])C([H])([H])C([H])([H])Oc3c([H])c([H])c(N(C(=O)N4C([H])([H])C([H])([H])C([H])([H])C([H])(n5nc(-c6c([H])c([H])c(Oc7c([H])c([H])c(F)c([H])c7F)c([H])c6[H])c(C(=O)N([H])[H])c5N([H])[H])C4([H])[H])C([H])([H])C([H])([H])[H])c([H])c3N([H])[H])c([H])c([H])c2C1([H])[H]

>  <smiles>  (52) 
[H]c1c([H])c([H])c2c(c1[H])C([H])([H])C([H])([H])C([H])([H])C2([H])N([H])C(=O)C1([H])N(C(=O)C([H])(N([H])C(=O)C([H])(N([H])C([H])([H])[H])C([H])([H])[H])C(C([H])([H])[H])(C([H])([H])[H])C([H])([H])[H])C([H])([H])c2c([H])c(OC([H])([H])C([H])([H])C([H])([H])C([H])([H])Oc3c([H])c([H])c(N(C(=O)N4C([H])([H])C([H])([H])C([H])([H])C([H])(n5nc(-c6c([H])c([H])c(Oc7c([H])c([H])c(F)c([H])c7F)c([H])c6[H])c(C(=O)N([H])[H])c5N([H])[H])C4([H])[H])C([H])([H])C([H])([H])[H])c([H])c3N([H])[H])c([H])c([H])c2C1([H])[H]

$$$$
52:0:0
     RDKit          3D

 93101  0  0  1  0  0  0  0  0999 V2000
  -28.8040  -18.7070   20.2470 C   0  0  0  0  0  3  0  0  0  0  0  0
  -28.3730  -19.9820   20.6810 C   0  0  0  0  0  3  0  0  0  0  0  0
  -30.9170  -19.0300   21.4100 C   0  0  0  0  0  3  0  0  0  0  0  0
  -30.0980  -18.2400   20.5720 C   0  0  0  0  0  0  0  0  0  0  0  0
  -29.2260  -20.7990   21.4580 C   0  0  0  0  0  0  0  0  0  0  0  0
  -30.4840  -20.2950   21.8480 C   0  0  0  0  0  0  0  0  0  0  0  0
  -31.3020  -21.0510   22.6240 F   0  0  0  0  0  0  0  0  0  0  0  0
  -30.5980  -17.0920   18.3800 C   0  0  0  0  0  1  0  0  0  0  0  0
  -30.6880  -16.9920   19.9210 C   0  0  0  0  0  3  0  0  0  0  0  0
  -30.8540  -14.5630   20.2330 C   0  0  0  0  0  0  0  0  0  0  0  0
  -30.4740  -12.3980   19.1620 C   0  0  0  0  0  2  0  0  0  0  0  0
  -29.5280  -12.6140   17.9640 C   0  0  0  0  0  2  0  0  0  0  0  0
  -28.0590  -12.5040   18.4150 C   0  0  0  0  0  2  0  0  0  0  0  0
  -27.7450  -13.3530   19.6780 C   0  0  0  0  0  3  0  0  0  0  0  0
  -28.8200  -13.1660   20.7750 C   0  0  0  0  0  2  0  0  0  0  0  0
  -30.1330  -13.4160   20.1680 N   0  0  0  0  0  0  0  0  0  0  0  0
  -32.0300  -14.6220   19.8720 O   0  0  0  0  0  0  0  0  0  0  0  0
  -30.1580  -15.7030   20.4010 N   0  0  0  0  0  0  0  0  0  0  0  0
  -29.1890  -15.6480   20.6720 H   0  0  0  0  0  0  0  0  0  0  0  0
  -25.3590  -13.9600   20.4220 C   0  0  0  0  0  0  0  0  0  0  0  0
  -24.2970  -13.1890   20.8090 C   0  0  0  0  0  0  0  0  0  0  0  0
  -24.7570  -11.8380   20.7780 C   0  0  0  0  0  0  0  0  0  0  0  0
  -26.4020  -13.0790   20.1820 N   0  0  0  0  0  0  0  0  0  0  0  0
  -26.0430  -11.7980   20.4540 N   0  0  0  0  0  0  0  0  0  0  0  0
  -24.0320  -10.5760   20.9820 C   0  0  0  0  0  0  0  0  0  0  0  0
  -24.4710   -9.6160   21.9210 C   0  0  0  0  0  3  0  0  0  0  0  0
  -23.7470   -8.4200   22.1120 C   0  0  0  0  0  3  0  0  0  0  0  0
  -22.5700   -8.1750   21.3660 C   0  0  0  0  0  0  0  0  0  0  0  0
  -22.1500   -9.1240   20.4170 C   0  0  0  0  0  3  0  0  0  0  0  0
  -22.8750  -10.3120   20.2230 C   0  0  0  0  0  3  0  0  0  0  0  0
  -21.8160   -7.0310   21.4670 O   0  0  0  0  0  0  0  0  0  0  0  0
  -21.7680   -6.3000   22.6280 C   0  0  0  0  0  0  0  0  0  0  0  0
  -21.3290   -6.8640   23.8460 C   0  0  0  0  0  3  0  0  0  0  0  0
  -21.2290   -6.0590   24.9980 C   0  0  0  0  0  3  0  0  0  0  0  0
  -21.5600   -4.6930   24.9340 C   0  0  0  0  0  0  0  0  0  0  0  0
  -21.9930   -4.1300   23.7210 C   0  0  0  0  0  3  0  0  0  0  0  0
  -22.0950   -4.9300   22.5710 C   0  0  0  0  0  0  0  0  0  0  0  0
  -22.4920   -4.3770   21.3990 F   0  0  0  0  0  0  0  0  0  0  0  0
  -21.4580   -3.9180   26.0390 F   0  0  0  0  0  0  0  0  0  0  0  0
  -22.9030  -13.6690   21.0960 C   0  0  0  0  0  0  0  0  0  0  0  0
  -22.1860  -12.9750   21.9740 N   0  0  0  0  0  0  0  0  0  0  0  0
  -22.4590  -14.6920   20.5780 O   0  0  0  0  0  0  0  0  0  0  0  0
  -22.5580  -12.1480   22.4160 H   0  0  0  0  0  0  0  0  0  0  0  0
  -21.2500  -13.2750   22.2060 H   0  0  0  0  0  0  0  0  0  0  0  0
  -25.5220  -15.3290   20.2330 N   0  0  0  0  0  0  0  0  0  0  0  0
  -24.7600  -15.9860   20.3550 H   0  0  0  0  0  0  0  0  0  0  0  0
  -26.3620  -15.7620   19.8710 H   0  0  0  0  0  0  0  0  0  0  0  0
  -28.8850  -22.0920   21.8900 N   0  0  0  0  0  0  0  0  0  0  0  0
  -29.5950  -22.4940   22.4970 H   0  0  0  0  0  0  0  0  0  0  0  0
  -28.1970  -23.0370   21.0090 C   0  0  0  0  0  2  0  0  0  0  0  0
  -29.1170  -24.1990   20.5460 C   0  0  0  0  0  2  0  0  0  0  0  0
  -28.3350  -25.3890   19.9080 C   0  0  0  0  0  2  0  0  0  0  0  0
  -28.4470  -26.8070   20.1450 O   0  0  0  0  0  0  0  0  0  0  0  0
  -24.6180  -31.9390   23.2460 C   0  0  0  0  0  0  0  0  0  0  0  0
  -27.2780  -27.5500   20.0970 C   0  0  0  0  0  0  0  0  0  0  0  0
  -23.4170  -30.5390   21.5990 C   0  0  0  0  0  3  0  0  0  0  0  0
  -24.8720  -29.0370   20.1440 C   0  0  0  0  0  0  0  0  0  0  0  0
  -25.9390  -30.9240   21.3920 C   0  0  0  0  0  2  0  0  0  0  0  0
  -26.0310  -29.5650   20.7270 C   0  0  0  0  0  0  0  0  0  0  0  0
  -27.2380  -28.8280   20.7010 C   0  0  0  0  0  3  0  0  0  0  0  0
  -26.0990  -27.0420   19.5040 C   0  0  0  0  0  3  0  0  0  0  0  0
  -24.9020  -27.7770   19.5280 C   0  0  0  0  0  3  0  0  0  0  0  0
  -23.6210  -29.8810   20.2090 C   0  0  0  0  0  2  0  0  0  0  0  0
  -24.6760  -31.1490   22.1360 N   0  0  0  0  0  0  0  0  0  0  0  0
  -23.5360  -32.1960   23.7930 O   0  0  0  0  0  0  0  0  0  0  0  0
  -22.7840  -29.4990   22.5530 C   0  0  0  0  0  0  0  0  0  0  0  0
  -21.4590  -29.3060   22.4340 N   0  0  0  0  0  0  0  0  0  0  0  0
  -23.4780  -28.8720   23.3570 O   0  0  0  0  0  0  0  0  0  0  0  0
  -20.9600  -29.8650   21.7560 H   0  0  0  0  0  0  0  0  0  0  0  0
  -18.0980  -28.0740   22.9350 C   0  0  0  0  0  0  0  0  0  0  0  0
  -20.6550  -28.3530   23.1980 C   0  0  0  0  0  3  0  0  0  0  0  0
  -20.7680  -26.9300   22.6090 C   0  0  0  0  0  2  0  0  0  0  0  0
  -19.6650  -26.6050   21.5970 C   0  0  0  0  0  2  0  0  0  0  0  0
  -18.2840  -26.7310   22.2490 C   0  0  0  0  0  2  0  0  0  0  0  0
  -19.2120  -28.8430   23.3660 C   0  0  0  0  0  0  0  0  0  0  0  0
  -18.9840  -30.1000   23.9670 C   0  0  0  0  0  3  0  0  0  0  0  0
  -17.6770  -30.5890   24.1420 C   0  0  0  0  0  3  0  0  0  0  0  0
  -16.5770  -29.8150   23.7310 C   0  0  0  0  0  3  0  0  0  0  0  0
  -16.7890  -28.5610   23.1330 C   0  0  0  0  0  3  0  0  0  0  0  0
  -25.9010  -32.5780   23.8630 C   0  0  0  0  0  3  0  0  0  0  0  0
  -25.5860  -33.9760   24.1860 N   0  0  0  0  0  0  0  0  0  0  0  0
  -25.9160  -35.0260   23.4220 C   0  0  0  0  0  0  0  0  0  0  0  0
  -26.5890  -34.9210   22.3930 O   0  0  0  0  0  0  0  0  0  0  0  0
  -24.9880  -34.1300   24.9840 H   0  0  0  0  0  0  0  0  0  0  0  0
  -24.1880  -36.8120   23.0470 C   0  0  0  0  0  1  0  0  0  0  0  0
  -25.4220  -36.4130   23.8720 C   0  0  0  0  0  3  0  0  0  0  0  0
  -27.5450  -37.3040   24.7250 C   0  0  0  0  0  1  0  0  0  0  0  0
  -26.4540  -37.4680   23.7680 N   0  0  0  0  0  0  0  0  0  0  0  0
  -26.0440  -38.3870   23.9100 H   0  0  0  0  0  0  0  0  0  0  0  0
  -26.4240  -31.8140   25.1400 C   0  0  1  0  0  0  0  0  0  0  0  0
  -25.3350  -31.5730   26.2120 C   0  0  0  0  0  1  0  0  0  0  0  0
  -27.0140  -30.4380   24.7480 C   0  0  0  0  0  1  0  0  0  0  0  0
  -27.5720  -32.6180   25.7970 C   0  0  0  0  0  1  0  0  0  0  0  0
  1  4  2  0
  1  2  1  0
  2  5  2  0
  3  6  2  0
  4  3  1  0
  5  6  1  0
  5 48  1  0
  6  7  1  0
  9  8  1  0
  9 18  1  0
  9  4  1  0
 10 18  1  0
 11 16  1  0
 12 13  1  0
 12 11  1  0
 14 13  1  0
 14 23  1  0
 14 15  1  0
 16 10  1  0
 16 15  1  0
 17 10  2  0
 18 19  1  0
 20 21  2  0
 21 40  1  0
 22 21  1  0
 22 25  1  0
 23 20  1  0
 23 24  1  0
 24 22  2  0
 25 26  1  0
 26 27  2  0
 28 31  1  0
 28 27  1  0
 29 28  2  0
 30 29  1  0
 30 25  2  0
 31 32  1  0
 32 33  1  0
 33 34  2  0
 35 34  1  0
 35 39  1  0
 36 35  2  0
 37 32  2  0
 37 36  1  0
 38 37  1  0
 40 41  1  0
 41 44  1  0
 41 43  1  0
 42 40  2  0
 45 46  1  0
 45 20  1  0
 47 45  1  0
 48 49  1  0
 50 48  1  0
 51 50  1  0
 52 53  1  0
 52 51  1  0
 54 65  2  0
 55 53  1  0
 55 60  1  0
 56 64  1  0
 56 66  1  0
 57 63  1  0
 57 59  1  0
 58 64  1  0
 59 58  1  0
 60 59  2  0
 61 62  1  0
 61 55  2  0
 62 57  2  0
 63 56  1  0
 64 54  1  0
 66 68  2  0
 67 66  1  0
 69 67  1  0
 70 79  2  0
 70 75  1  0
 71 67  1  0
 71 75  1  0
 72 71  1  0
 73 74  1  0
 73 72  1  0
 74 70  1  0
 75 76  2  0
 76 77  1  0
 78 77  2  0
 79 78  1  0
 80 54  1  0
 80 81  1  0
 80 90  1  0
 81 84  1  0
 82 86  1  0
 82 81  1  0
 83 82  2  0
 86 85  1  0
 88 86  1  0
 88 89  1  0
 88 87  1  0
 90 93  1  1
 90 91  1  0
 92 90  1  0
M  ISO  4  10 100  18 100  52 101  53 101
M  END
>  <TORSDO>  (53) 
F 21

>  <SCORE>  (53) 
-13.605

>  <name>  (53) 
52

>  <ligand_id>  (53) 
52

>  <original_smiles>  (53) 
[H]c1c([H])c([H])c2c(c1[H])C([H])([H])C([H])([H])C([H])([H])C2([H])N([H])C(=O)C1([H])N(C(=O)C([H])(N([H])C(=O)C([H])(N([H])C([H])([H])[H])C([H])([H])[H])C(C([H])([H])[H])(C([H])([H])[H])C([H])([H])[H])C([H])([H])c2c([H])c(OC([H])([H])C([H])([H])C([H])([H])N([H])c3c([H])c([H])c(C([H])(N([H])C(=O)N4C([H])([H])C([H])([H])C([H])([H])C([H])(n5nc(-c6c([H])c([H])c(Oc7c([H])c([H])c(F)c([H])c7F)c([H])c6[H])c(C(=O)N([H])[H])c5N([H])[H])C4([H])[H])C([H])([H])[H])c([H])c3F)c([H])c([H])c2C1([H])[H]

>  <smiles>  (53) 
[H]c1c([H])c([H])c2c(c1[H])C([H])([H])C([H])([H])C([H])([H])C2([H])N([H])C(=O)C1([H])N(C(=O)C([H])(N([H])C(=O)C([H])(N([H])C([H])([H])[H])C([H])([H])[H])C(C([H])([H])[H])(C([H])([H])[H])C([H])([H])[H])C([H])([H])c2c([H])c(OC([H])([H])C([H])([H])C([H])([H])N([H])c3c([H])c([H])c(C([H])(N([H])C(=O)N4C([H])([H])C([H])([H])C([H])([H])C([H])(n5nc(-c6c([H])c([H])c(Oc7c([H])c([H])c(F)c([H])c7F)c([H])c6[H])c(C(=O)N([H])[H])c5N([H])[H])C4([H])[H])C([H])([H])[H])c([H])c3F)c([H])c([H])c2C1([H])[H]

$$$$
53:0:0
     RDKit          3D

 93102  0  0  1  0  0  0  0  0999 V2000
  -27.4550  -22.2840   21.3200 C   0  0  0  0  0  0  0  0  0  0  0  0
  -26.9240  -23.4650   22.1270 C   0  0  0  0  0  2  0  0  0  0  0  0
  -28.0970  -24.3550   22.5820 C   0  0  0  0  0  2  0  0  0  0  0  0
  -29.2840  -23.7290   20.4540 C   0  0  0  0  0  2  0  0  0  0  0  0
  -28.8150  -24.9240   21.3400 C   0  0  0  0  0  3  0  0  0  0  0  0
  -28.7000  -22.4040   20.7960 N   0  0  0  0  0  0  0  0  0  0  0  0
  -26.7570  -21.2690   21.2080 O   0  0  0  0  0  0  0  0  0  0  0  0
  -30.4630  -19.1600   21.3860 C   0  0  0  0  0  3  0  0  0  0  0  0
  -29.9300  -19.3830   19.0240 C   0  0  0  0  0  3  0  0  0  0  0  0
  -30.0020  -20.4750   21.6020 C   0  0  0  0  0  3  0  0  0  0  0  0
  -29.4400  -20.6820   19.2370 C   0  0  0  0  0  3  0  0  0  0  0  0
  -30.4160  -18.6000   20.0940 C   0  0  0  0  0  0  0  0  0  0  0  0
  -29.4260  -21.2130   20.5370 C   0  0  0  0  0  0  0  0  0  0  0  0
  -30.8170  -17.2150   19.8020 C   0  0  0  0  0  3  0  0  0  0  0  0
  -30.7500  -16.1030   20.5770 C   0  0  0  0  0  3  0  0  0  0  0  0
  -31.3500  -14.9000   20.0130 C   0  0  0  0  0  0  0  0  0  0  0  0
  -30.9160  -12.7170   18.9740 C   0  0  0  0  0  2  0  0  0  0  0  0
  -29.9480  -12.8680   17.7850 C   0  0  0  0  0  2  0  0  0  0  0  0
  -28.4930  -12.7550   18.2700 C   0  0  0  0  0  2  0  0  0  0  0  0
  -28.1920  -13.6800   19.4790 C   0  0  0  0  0  3  0  0  0  0  0  0
  -29.2780  -13.5380   20.5720 C   0  0  0  0  0  2  0  0  0  0  0  0
  -30.5970  -13.7630   19.9610 N   0  0  0  0  0  0  0  0  0  0  0  0
  -32.4610  -14.9580   19.4800 O   0  0  0  0  0  0  0  0  0  0  0  0
  -25.8450  -14.3400   20.3140 C   0  0  0  0  0  0  0  0  0  0  0  0
  -24.7690  -13.5940   20.6980 C   0  0  0  0  0  0  0  0  0  0  0  0
  -25.1830  -12.2260   20.6110 C   0  0  0  0  0  0  0  0  0  0  0  0
  -26.8490  -13.4350   20.0050 N   0  0  0  0  0  0  0  0  0  0  0  0
  -26.4590  -12.1560   20.2540 N   0  0  0  0  0  0  0  0  0  0  0  0
  -24.4250  -10.9810   20.7910 C   0  0  0  0  0  0  0  0  0  0  0  0
  -24.8340   -9.9960   21.7200 C   0  0  0  0  0  3  0  0  0  0  0  0
  -24.0810   -8.8170   21.8930 C   0  0  0  0  0  3  0  0  0  0  0  0
  -22.9040   -8.6110   21.1350 C   0  0  0  0  0  0  0  0  0  0  0  0
  -22.5130   -9.5800   20.1940 C   0  0  0  0  0  3  0  0  0  0  0  0
  -23.2680  -10.7520   20.0190 C   0  0  0  0  0  3  0  0  0  0  0  0
  -22.1290   -7.4790   21.2100 O   0  0  0  0  0  0  0  0  0  0  0  0
  -22.0020   -6.7690   22.3770 C   0  0  0  0  0  0  0  0  0  0  0  0
  -21.5210   -7.3650   23.5620 C   0  0  0  0  0  3  0  0  0  0  0  0
  -21.3410   -6.5830   24.7210 C   0  0  0  0  0  3  0  0  0  0  0  0
  -21.6370   -5.2080   24.6970 C   0  0  0  0  0  0  0  0  0  0  0  0
  -22.1130   -4.6110   23.5160 C   0  0  0  0  0  3  0  0  0  0  0  0
  -22.2920   -5.3900   22.3590 C   0  0  0  0  0  0  0  0  0  0  0  0
  -22.7310   -4.8070   21.2160 F   0  0  0  0  0  0  0  0  0  0  0  0
  -21.4580   -4.4540   25.8060 F   0  0  0  0  0  0  0  0  0  0  0  0
  -23.3970  -14.1020   21.0410 C   0  0  0  0  0  0  0  0  0  0  0  0
  -22.6890  -13.4150   21.9270 N   0  0  0  0  0  0  0  0  0  0  0  0
  -22.9630  -15.1480   20.5530 O   0  0  0  0  0  0  0  0  0  0  0  0
  -23.0440  -12.5690   22.3460 H   0  0  0  0  0  0  0  0  0  0  0  0
  -21.7740  -13.7470   22.2000 H   0  0  0  0  0  0  0  0  0  0  0  0
  -26.0540  -15.7130   20.1780 N   0  0  0  0  0  0  0  0  0  0  0  0
  -25.3390  -16.4030   20.3820 H   0  0  0  0  0  0  0  0  0  0  0  0
  -26.9330  -16.1240   19.8910 H   0  0  0  0  0  0  0  0  0  0  0  0
  -27.8640  -25.9170   20.6200 C   0  0  0  0  0  2  0  0  0  0  0  0
  -28.3340  -26.9360   19.6890 O   0  0  0  0  0  0  0  0  0  0  0  0
  -24.7220  -31.8840   23.1240 C   0  0  0  0  0  0  0  0  0  0  0  0
  -27.2820  -27.8120   19.5430 C   0  0  0  0  0  0  0  0  0  0  0  0
  -23.4670  -30.5850   21.4350 C   0  0  0  0  0  3  0  0  0  0  0  0
  -24.8760  -29.2620   19.7660 C   0  0  0  0  0  0  0  0  0  0  0  0
  -25.9650  -31.0530   21.1270 C   0  0  0  0  0  2  0  0  0  0  0  0
  -26.0460  -29.7550   20.3590 C   0  0  0  0  0  0  0  0  0  0  0  0
  -27.2540  -29.0310   20.2520 C   0  0  0  0  0  3  0  0  0  0  0  0
  -26.1100  -27.3730   18.8840 C   0  0  0  0  0  3  0  0  0  0  0  0
  -24.9030  -28.0750   19.0160 C   0  0  0  0  0  3  0  0  0  0  0  0
  -23.6110  -30.0500   19.9830 C   0  0  0  0  0  2  0  0  0  0  0  0
  -24.7410  -31.1800   21.9550 N   0  0  0  0  0  0  0  0  0  0  0  0
  -23.6630  -32.0630   23.7470 O   0  0  0  0  0  0  0  0  0  0  0  0
  -22.9140  -29.4530   22.3340 C   0  0  0  0  0  0  0  0  0  0  0  0
  -21.6040  -29.1830   22.2230 N   0  0  0  0  0  0  0  0  0  0  0  0
  -23.6560  -28.8240   23.0880 O   0  0  0  0  0  0  0  0  0  0  0  0
  -21.0740  -29.7430   21.5750 H   0  0  0  0  0  0  0  0  0  0  0  0
  -18.3400  -27.6900   22.6160 C   0  0  0  0  0  0  0  0  0  0  0  0
  -20.8620  -28.1470   22.9380 C   0  0  0  0  0  3  0  0  0  0  0  0
  -21.0850  -26.7610   22.3040 C   0  0  0  0  0  2  0  0  0  0  0  0
  -20.0410  -26.4180   21.2390 C   0  0  0  0  0  2  0  0  0  0  0  0
  -18.6330  -26.4230   21.8330 C   0  0  0  0  0  2  0  0  0  0  0  0
  -19.3820  -28.5150   23.1140 C   0  0  0  0  0  0  0  0  0  0  0  0
  -19.0530  -29.7140   23.7860 C   0  0  0  0  0  3  0  0  0  0  0  0
  -17.7050  -30.0910   23.9540 C   0  0  0  0  0  3  0  0  0  0  0  0
  -16.6740  -29.2590   23.4790 C   0  0  0  0  0  3  0  0  0  0  0  0
  -16.9940  -28.0630   22.8140 C   0  0  0  0  0  3  0  0  0  0  0  0
  -26.0220  -32.5070   23.7230 C   0  0  0  0  0  3  0  0  0  0  0  0
  -26.6220  -31.6630   24.9120 C   0  0  1  0  0  0  0  0  0  0  0  0
  -25.6000  -31.3420   26.0250 C   0  0  0  0  0  1  0  0  0  0  0  0
  -27.1990  -30.3250   24.4000 C   0  0  0  0  0  1  0  0  0  0  0  0
  -27.7980  -32.4380   25.5540 C   0  0  0  0  0  1  0  0  0  0  0  0
  -25.6970  -33.8670   24.1640 N   0  0  0  0  0  0  0  0  0  0  0  0
  -25.9740  -34.9790   23.4700 C   0  0  0  0  0  0  0  0  0  0  0  0
  -26.6080  -34.9660   22.4100 O   0  0  0  0  0  0  0  0  0  0  0  0
  -25.1340  -33.9470   24.9980 H   0  0  0  0  0  0  0  0  0  0  0  0
  -24.1950  -36.7440   23.2990 C   0  0  0  0  0  1  0  0  0  0  0  0
  -25.4730  -36.3190   24.0390 C   0  0  0  0  0  3  0  0  0  0  0  0
  -27.6170  -37.1980   24.8550 C   0  0  0  0  0  1  0  0  0  0  0  0
  -26.4790  -37.4040   23.9620 N   0  0  0  0  0  0  0  0  0  0  0  0
  -26.0560  -38.3000   24.1900 H   0  0  0  0  0  0  0  0  0  0  0  0
  1  2  1  0
  2  3  1  0
  4  6  1  0
  4  5  1  0
  5 52  1  0
  5  3  1  0
  6  1  1  0
  7  1  2  0
  8 10  1  0
  9 11  2  0
  9 12  1  0
 11 13  1  0
 12  8  2  0
 13  6  1  0
 13 10  2  0
 14 12  1  0
 14 15  2  0
 16 15  1  0
 17 22  1  0
 18 19  1  0
 18 17  1  0
 20 19  1  0
 20 27  1  0
 20 21  1  0
 22 16  1  0
 22 21  1  0
 23 16  2  0
 24 25  2  0
 25 44  1  0
 26 25  1  0
 26 29  1  0
 27 28  1  0
 27 24  1  0
 28 26  2  0
 29 30  1  0
 30 31  2  0
 32 35  1  0
 32 31  1  0
 33 32  2  0
 34 33  1  0
 34 29  2  0
 35 36  1  0
 36 37  1  0
 37 38  2  0
 39 38  1  0
 39 43  1  0
 40 39  2  0
 41 36  2  0
 41 40  1  0
 42 41  1  0
 44 45  1  0
 45 48  1  0
 45 47  1  0
 46 44  2  0
 49 24  1  0
 49 50  1  0
 51 49  1  0
 53 52  1  0
 54 65  2  0
 55 53  1  0
 55 60  1  0
 56 64  1  0
 56 66  1  0
 57 63  1  0
 57 59  1  0
 58 64  1  0
 59 58  1  0
 60 59  2  0
 61 62  1  0
 61 55  2  0
 62 57  2  0
 63 56  1  0
 64 54  1  0
 66 68  2  0
 67 66  1  0
 69 67  1  0
 70 79  2  0
 70 75  1  0
 71 67  1  0
 71 75  1  0
 72 71  1  0
 73 74  1  0
 73 72  1  0
 74 70  1  0
 75 76  2  0
 76 77  1  0
 78 77  2  0
 79 78  1  0
 80 54  1  0
 80 85  1  0
 80 81  1  0
 81 84  1  1
 81 82  1  0
 83 81  1  0
 85 88  1  0
 86 90  1  0
 86 85  1  0
 87 86  2  0
 90 89  1  0
 92 90  1  0
 92 93  1  0
 92 91  1  0
M  ISO  4  15 100  16 100  52 101  53 101
M  END
>  <TORSDO>  (54) 
F 19

>  <SCORE>  (54) 
-11.201

>  <name>  (54) 
53

>  <ligand_id>  (54) 
53

>  <original_smiles>  (54) 
[H]C(C(=O)N1C([H])([H])C([H])([H])C([H])([H])C([H])(n2nc(-c3c([H])c([H])c(Oc4c([H])c([H])c(F)c([H])c4F)c([H])c3[H])c(C(=O)N([H])[H])c2N([H])[H])C1([H])[H])=C([H])c1c([H])c([H])c(N2C(=O)C([H])([H])C([H])([H])C([H])(C([H])([H])Oc3c([H])c([H])c4c(c3[H])C([H])([H])N(C(=O)C([H])(N([H])C(=O)C([H])(N([H])C([H])([H])[H])C([H])([H])[H])C(C([H])([H])[H])(C([H])([H])[H])C([H])([H])[H])C([H])(C(=O)N([H])C3([H])c5c([H])c([H])c([H])c([H])c5C([H])([H])C([H])([H])C3([H])[H])C4([H])[H])C2([H])[H])c([H])c1[H]

>  <smiles>  (54) 
[H]C(C(=O)N1C([H])([H])C([H])([H])C([H])([H])C([H])(n2nc(-c3c([H])c([H])c(Oc4c([H])c([H])c(F)c([H])c4F)c([H])c3[H])c(C(=O)N([H])[H])c2N([H])[H])C1([H])[H])=C([H])c1c([H])c([H])c(N2C(=O)C([H])([H])C([H])([H])C([H])(C([H])([H])Oc3c([H])c([H])c4c(c3[H])C([H])([H])N(C(=O)C([H])(N([H])C(=O)C([H])(N([H])C([H])([H])[H])C([H])([H])[H])C(C([H])([H])[H])(C([H])([H])[H])C([H])([H])[H])C([H])(C(=O)N([H])C3([H])c5c([H])c([H])c([H])c([H])c5C([H])([H])C([H])([H])C3([H])[H])C4([H])[H])C2([H])[H])c([H])c1[H]

$$$$
54:0:0
     RDKit          3D

 95104  0  0  1  0  0  0  0  0999 V2000
  -27.3300  -22.0730   21.2930 C   0  0  0  0  0  0  0  0  0  0  0  0
  -26.4250  -23.2850   21.4440 C   0  0  0  0  0  2  0  0  0  0  0  0
  -26.9740  -24.6420   20.9820 C   0  0  0  0  0  2  0  0  0  0  0  0
  -29.0480  -23.3430   20.1260 C   0  0  0  0  0  2  0  0  0  0  0  0
  -28.1740  -24.6410   20.0030 C   0  0  0  0  0  3  0  0  0  0  0  0
  -28.2860  -22.0920   20.3380 N   0  0  0  0  0  0  0  0  0  0  0  0
  -27.0170  -21.0700   21.9250 O   0  0  0  0  0  0  0  0  0  0  0  0
  -28.3760  -20.9860   19.3410 C   0  0  0  0  0  2  0  0  0  0  0  0
  -29.3060  -19.2160   20.9860 C   0  0  0  0  0  3  0  0  0  0  0  0
  -29.8700  -17.9510   21.2400 C   0  0  0  0  0  3  0  0  0  0  0  0
  -29.6660  -18.8900   18.6150 C   0  0  0  0  0  3  0  0  0  0  0  0
  -29.1650  -19.6990   19.6650 C   0  0  0  0  0  0  0  0  0  0  0  0
  -30.3170  -17.1260   20.1960 C   0  0  0  0  0  0  0  0  0  0  0  0
  -30.2400  -17.6170   18.8660 C   0  0  0  0  0  0  0  0  0  0  0  0
  -30.6430  -16.8680   17.8090 F   0  0  0  0  0  0  0  0  0  0  0  0
  -31.3400  -14.8940   19.8330 C   0  0  0  0  0  0  0  0  0  0  0  0
  -31.1090  -12.7320   18.6730 C   0  0  0  0  0  2  0  0  0  0  0  0
  -30.1700  -12.9140   17.4640 C   0  0  0  0  0  2  0  0  0  0  0  0
  -28.6970  -12.7330   17.8870 C   0  0  0  0  0  2  0  0  0  0  0  0
  -28.3360  -13.5850   19.1340 C   0  0  0  0  0  3  0  0  0  0  0  0
  -29.3760  -13.3730   20.2580 C   0  0  0  0  0  2  0  0  0  0  0  0
  -30.7090  -13.6970   19.7070 N   0  0  0  0  0  0  0  0  0  0  0  0
  -32.4350  -15.1420   19.3200 O   0  0  0  0  0  0  0  0  0  0  0  0
  -30.6770  -15.7970   20.5640 N   0  0  0  0  0  0  0  0  0  0  0  0
  -30.0310  -15.3710   21.2100 H   0  0  0  0  0  0  0  0  0  0  0  0
  -25.9530  -14.1630   19.9190 C   0  0  0  0  0  0  0  0  0  0  0  0
  -24.8800  -13.3800   20.2220 C   0  0  0  0  0  0  0  0  0  0  0  0
  -25.3240  -12.0270   20.0750 C   0  0  0  0  0  0  0  0  0  0  0  0
  -26.9860  -13.2910   19.6040 N   0  0  0  0  0  0  0  0  0  0  0  0
  -26.6120  -11.9970   19.7570 N   0  0  0  0  0  0  0  0  0  0  0  0
  -24.5900  -10.7600   20.1660 C   0  0  0  0  0  0  0  0  0  0  0  0
  -24.9590   -9.7600   21.0920 C   0  0  0  0  0  3  0  0  0  0  0  0
  -24.2320   -8.5510   21.1690 C   0  0  0  0  0  3  0  0  0  0  0  0
  -23.1200   -8.3380   20.3210 C   0  0  0  0  0  0  0  0  0  0  0  0
  -22.7700   -9.3250   19.3860 C   0  0  0  0  0  3  0  0  0  0  0  0
  -23.4960  -10.5260   19.3070 C   0  0  0  0  0  3  0  0  0  0  0  0
  -22.3700   -7.1870   20.3110 O   0  0  0  0  0  0  0  0  0  0  0  0
  -22.1340   -6.4690   21.4530 C   0  0  0  0  0  0  0  0  0  0  0  0
  -21.5010   -7.0420   22.5800 C   0  0  0  0  0  3  0  0  0  0  0  0
  -21.2190   -6.2470   23.7070 C   0  0  0  0  0  3  0  0  0  0  0  0
  -21.5570   -4.8820   23.7110 C   0  0  0  0  0  0  0  0  0  0  0  0
  -22.1820   -4.3090   22.5900 C   0  0  0  0  0  3  0  0  0  0  0  0
  -22.4670   -5.0990   21.4640 C   0  0  0  0  0  0  0  0  0  0  0  0
  -23.0510   -4.5380   20.3770 F   0  0  0  0  0  0  0  0  0  0  0  0
  -21.2780   -4.1170   24.7920 F   0  0  0  0  0  0  0  0  0  0  0  0
  -23.4870  -13.8450   20.5490 C   0  0  0  0  0  0  0  0  0  0  0  0
  -22.7660  -13.0870   21.3660 N   0  0  0  0  0  0  0  0  0  0  0  0
  -23.0430  -14.9010   20.1060 O   0  0  0  0  0  0  0  0  0  0  0  0
  -23.1300  -12.2240   21.7470 H   0  0  0  0  0  0  0  0  0  0  0  0
  -21.8300  -13.3710   21.6260 H   0  0  0  0  0  0  0  0  0  0  0  0
  -26.1500  -15.5380   19.8490 N   0  0  0  0  0  0  0  0  0  0  0  0
  -25.4300  -16.2250   20.0450 H   0  0  0  0  0  0  0  0  0  0  0  0
  -27.0330  -15.9600   19.5930 H   0  0  0  0  0  0  0  0  0  0  0  0
  -29.0300  -25.9440   20.2080 C   0  0  0  0  0  2  0  0  0  0  0  0
  -28.6750  -27.1670   19.5420 O   0  0  0  0  0  0  0  0  0  0  0  0
  -24.7740  -31.9620   23.2020 C   0  0  0  0  0  0  0  0  0  0  0  0
  -27.4640  -27.7920   19.7700 C   0  0  0  0  0  0  0  0  0  0  0  0
  -23.5680  -30.5950   21.5300 C   0  0  0  0  0  3  0  0  0  0  0  0
  -25.0190  -29.1930   19.9810 C   0  0  0  0  0  0  0  0  0  0  0  0
  -26.0710  -31.0680   21.2620 C   0  0  0  0  0  2  0  0  0  0  0  0
  -26.1800  -29.7340   20.5470 C   0  0  0  0  0  0  0  0  0  0  0  0
  -27.4110  -29.0380   20.4370 C   0  0  0  0  0  3  0  0  0  0  0  0
  -26.2870  -27.2790   19.1830 C   0  0  0  0  0  3  0  0  0  0  0  0
  -25.0600  -27.9570   19.3140 C   0  0  0  0  0  3  0  0  0  0  0  0
  -23.7520  -29.9990   20.1130 C   0  0  0  0  0  2  0  0  0  0  0  0
  -24.8240  -31.2250   22.0530 N   0  0  0  0  0  0  0  0  0  0  0  0
  -23.7000  -32.1540   23.7940 O   0  0  0  0  0  0  0  0  0  0  0  0
  -22.9900  -29.5000   22.4590 C   0  0  0  0  0  0  0  0  0  0  0  0
  -21.6760  -29.2420   22.3490 N   0  0  0  0  0  0  0  0  0  0  0  0
  -23.7300  -28.8770   23.2300 O   0  0  0  0  0  0  0  0  0  0  0  0
  -21.1480  -29.7660   21.6740 H   0  0  0  0  0  0  0  0  0  0  0  0
  -18.3680  -27.8750   22.8480 C   0  0  0  0  0  0  0  0  0  0  0  0
  -20.9150  -28.2430   23.0950 C   0  0  0  0  0  3  0  0  0  0  0  0
  -21.0680  -26.8410   22.4660 C   0  0  0  0  0  2  0  0  0  0  0  0
  -19.9780  -26.5250   21.4380 C   0  0  0  0  0  2  0  0  0  0  0  0
  -18.5760  -26.5870   22.0690 C   0  0  0  0  0  2  0  0  0  0  0  0
  -19.4590  -28.6660   23.3040 C   0  0  0  0  0  0  0  0  0  0  0  0
  -19.1940  -29.8800   23.9790 C   0  0  0  0  0  3  0  0  0  0  0  0
  -17.8680  -30.2980   24.2110 C   0  0  0  0  0  3  0  0  0  0  0  0
  -16.8020  -29.4970   23.7770 C   0  0  0  0  0  3  0  0  0  0  0  0
  -17.0510  -28.2990   23.0910 C   0  0  0  0  0  3  0  0  0  0  0  0
  -26.0520  -32.6160   23.8080 C   0  0  0  0  0  3  0  0  0  0  0  0
  -26.5910  -31.8640   25.0870 C   0  0  1  0  0  0  0  0  0  0  0  0
  -25.5100  -31.6120   26.1630 C   0  0  0  0  0  1  0  0  0  0  0  0
  -27.1990  -30.4980   24.6990 C   0  0  0  0  0  1  0  0  0  0  0  0
  -27.7340  -32.6820   25.7340 C   0  0  0  0  0  1  0  0  0  0  0  0
  -25.7360  -34.0160   24.1220 N   0  0  0  0  0  0  0  0  0  0  0  0
  -26.0530  -35.0630   23.3470 C   0  0  0  0  0  0  0  0  0  0  0  0
  -26.7350  -34.9530   22.3240 O   0  0  0  0  0  0  0  0  0  0  0  0
  -25.1450  -34.1720   24.9240 H   0  0  0  0  0  0  0  0  0  0  0  0
  -24.3180  -36.8350   22.9800 C   0  0  0  0  0  1  0  0  0  0  0  0
  -25.5650  -36.4520   23.7930 C   0  0  0  0  0  3  0  0  0  0  0  0
  -27.6950  -37.3670   24.6080 C   0  0  0  0  0  1  0  0  0  0  0  0
  -26.5880  -37.5150   23.6620 N   0  0  0  0  0  0  0  0  0  0  0  0
  -26.1750  -38.4330   23.8090 H   0  0  0  0  0  0  0  0  0  0  0  0
  1  2  1  0
  1  7  2  0
  3  2  1  0
  4  6  1  0
  5  4  1  0
  5 54  1  0
  5  3  1  0
  6  1  1  0
  8 12  1  0
  8  6  1  0
  9 10  1  0
 11 14  2  0
 11 12  1  0
 12  9  2  0
 13 24  1  0
 13 10  2  0
 14 13  1  0
 15 14  1  0
 16 24  1  0
 17 22  1  0
 18 19  1  0
 18 17  1  0
 20 19  1  0
 20 29  1  0
 20 21  1  0
 22 16  1  0
 22 21  1  0
 23 16  2  0
 24 25  1  0
 26 27  2  0
 27 46  1  0
 28 31  1  0
 28 27  1  0
 29 30  1  0
 29 26  1  0
 30 28  2  0
 31 32  1  0
 32 33  2  0
 34 33  1  0
 35 34  2  0
 36 35  1  0
 36 31  2  0
 37 34  1  0
 37 38  1  0
 38 43  2  0
 38 39  1  0
 39 40  2  0
 40 41  1  0
 41 45  1  0
 42 41  2  0
 43 42  1  0
 44 43  1  0
 46 47  1  0
 47 50  1  0
 47 49  1  0
 48 46  2  0
 51 26  1  0
 51 52  1  0
 53 51  1  0
 55 57  1  0
 55 54  1  0
 56 67  2  0
 57 62  1  0
 58 66  1  0
 58 68  1  0
 59 65  1  0
 59 61  1  0
 60 66  1  0
 61 60  1  0
 62 61  2  0
 63 64  1  0
 63 57  2  0
 64 59  2  0
 65 58  1  0
 66 56  1  0
 68 70  2  0
 69 68  1  0
 71 69  1  0
 72 81  2  0
 72 77  1  0
 73 69  1  0
 73 77  1  0
 74 73  1  0
 75 76  1  0
 75 74  1  0
 76 72  1  0
 77 78  2  0
 78 79  1  0
 80 79  2  0
 81 80  1  0
 82 56  1  0
 82 87  1  0
 82 83  1  0
 83 86  1  1
 83 84  1  0
 85 83  1  0
 87 90  1  0
 88 92  1  0
 88 87  1  0
 89 88  2  0
 92 91  1  0
 94 92  1  0
 94 95  1  0
 94 93  1  0
M  ISO  4  16 100  24 100  54 101  55 101
M  END
>  <TORSDO>  (55) 
F 19

>  <SCORE>  (55) 
-6.727

>  <name>  (55) 
54

>  <ligand_id>  (55) 
54

>  <original_smiles>  (55) 
[H]c1c([H])c([H])c2c(c1[H])C([H])([H])C([H])([H])C([H])([H])C2([H])N([H])C(=O)C1([H])N(C(=O)C([H])(N([H])C(=O)C([H])(N([H])C([H])([H])[H])C([H])([H])[H])C(C([H])([H])[H])(C([H])([H])[H])C([H])([H])[H])C([H])([H])c2c([H])c(OC([H])([H])C3([H])C([H])([H])N(C([H])([H])c4c([H])c([H])c(N([H])C(=O)N5C([H])([H])C([H])([H])C([H])([H])C([H])(n6nc(-c7c([H])c([H])c(Oc8c([H])c([H])c(F)c([H])c8F)c([H])c7[H])c(C(=O)N([H])[H])c6N([H])[H])C5([H])[H])c(F)c4[H])C(=O)C([H])([H])C3([H])[H])c([H])c([H])c2C1([H])[H]

>  <smiles>  (55) 
[H]c1c([H])c([H])c2c(c1[H])C([H])([H])C([H])([H])C([H])([H])C2([H])N([H])C(=O)C1([H])N(C(=O)C([H])(N([H])C(=O)C([H])(N([H])C([H])([H])[H])C([H])([H])[H])C(C([H])([H])[H])(C([H])([H])[H])C([H])([H])[H])C([H])([H])c2c([H])c(OC([H])([H])C3([H])C([H])([H])N(C([H])([H])c4c([H])c([H])c(N([H])C(=O)N5C([H])([H])C([H])([H])C([H])([H])C([H])(n6nc(-c7c([H])c([H])c(Oc8c([H])c([H])c(F)c([H])c8F)c([H])c7[H])c(C(=O)N([H])[H])c6N([H])[H])C5([H])[H])c(F)c4[H])C(=O)C([H])([H])C3([H])[H])c([H])c([H])c2C1([H])[H]

$$$$
55:0:0
     RDKit          3D

 93102  0  0  1  0  0  0  0  0999 V2000
  -29.7040  -23.3160   22.4140 C   0  0  0  0  0  0  0  0  0  0  0  0
  -30.3810  -24.6700   22.5550 C   0  0  0  0  0  2  0  0  0  0  0  0
  -30.6780  -25.0280   21.1040 C   0  0  0  0  0  2  0  0  0  0  0  0
  -29.5680  -24.3000   20.3370 C   0  0  0  0  0  3  0  0  0  0  0  0
  -29.4100  -23.0210   21.1260 N   0  0  0  0  0  0  0  0  0  0  0  0
  -29.4840  -22.6080   23.4030 O   0  0  0  0  0  0  0  0  0  0  0  0
  -29.3400  -19.1800   21.0740 C   0  0  0  0  0  3  0  0  0  0  0  0
  -31.1300  -19.9270   19.6490 C   0  0  0  0  0  3  0  0  0  0  0  0
  -28.9380  -20.5370   21.2530 C   0  0  0  0  0  3  0  0  0  0  0  0
  -30.7250  -21.2860   19.8250 C   0  0  0  0  0  3  0  0  0  0  0  0
  -30.4830  -18.8420   20.3080 C   0  0  0  0  0  0  0  0  0  0  0  0
  -29.6530  -21.6360   20.6870 C   0  0  0  0  0  0  0  0  0  0  0  0
  -31.1180  -17.3960   20.3160 C   0  0  0  0  0  2  0  0  0  0  0  0
  -31.0120  -14.9120   19.8710 C   0  0  0  0  0  0  0  0  0  0  0  0
  -30.6790  -12.6100   18.9950 C   0  0  0  0  0  2  0  0  0  0  0  0
  -29.6860  -12.6040   17.8150 C   0  0  0  0  0  2  0  0  0  0  0  0
  -28.2450  -12.4300   18.3320 C   0  0  0  0  0  2  0  0  0  0  0  0
  -27.9080  -13.4010   19.4920 C   0  0  0  0  0  3  0  0  0  0  0  0
  -29.0270  -13.4540   20.5590 C   0  0  0  0  0  2  0  0  0  0  0  0
  -30.2980  -13.7340   19.8770 N   0  0  0  0  0  0  0  0  0  0  0  0
  -32.2180  -14.8890   19.6200 O   0  0  0  0  0  0  0  0  0  0  0  0
  -29.2590  -16.4250   19.0230 C   0  0  0  0  0  1  0  0  0  0  0  0
  -30.3610  -16.1400   19.9500 N   0  0  0  0  0  0  0  0  0  0  0  0
  -25.6050  -14.0630   20.4010 C   0  0  0  0  0  0  0  0  0  0  0  0
  -24.5340  -13.3160   20.8070 C   0  0  0  0  0  0  0  0  0  0  0  0
  -24.9460  -11.9530   20.7040 C   0  0  0  0  0  0  0  0  0  0  0  0
  -26.5970  -13.1520   20.0710 N   0  0  0  0  0  0  0  0  0  0  0  0
  -26.2130  -11.8770   20.3190 N   0  0  0  0  0  0  0  0  0  0  0  0
  -24.1930  -10.7100   20.8920 C   0  0  0  0  0  0  0  0  0  0  0  0
  -24.6020   -9.7350   21.8280 C   0  0  0  0  0  3  0  0  0  0  0  0
  -23.8490   -8.5550   22.0050 C   0  0  0  0  0  3  0  0  0  0  0  0
  -22.6740   -8.3420   21.2460 C   0  0  0  0  0  0  0  0  0  0  0  0
  -22.2850   -9.3060   20.2990 C   0  0  0  0  0  3  0  0  0  0  0  0
  -23.0380  -10.4780   20.1200 C   0  0  0  0  0  3  0  0  0  0  0  0
  -21.8970   -7.2130   21.3300 O   0  0  0  0  0  0  0  0  0  0  0  0
  -21.7570   -6.5240   22.5080 C   0  0  0  0  0  0  0  0  0  0  0  0
  -21.2350   -7.1310   23.6700 C   0  0  0  0  0  3  0  0  0  0  0  0
  -21.0450   -6.3680   24.8390 C   0  0  0  0  0  3  0  0  0  0  0  0
  -21.3650   -4.9980   24.8450 C   0  0  0  0  0  0  0  0  0  0  0  0
  -21.8790   -4.3890   23.6870 C   0  0  0  0  0  3  0  0  0  0  0  0
  -22.0710   -5.1500   22.5210 C   0  0  0  0  0  0  0  0  0  0  0  0
  -22.5480   -4.5540   21.4010 F   0  0  0  0  0  0  0  0  0  0  0  0
  -21.1740   -4.2620   25.9650 F   0  0  0  0  0  0  0  0  0  0  0  0
  -23.1730  -13.8330   21.1700 C   0  0  0  0  0  0  0  0  0  0  0  0
  -22.4770  -13.1420   22.0650 N   0  0  0  0  0  0  0  0  0  0  0  0
  -22.7350  -14.8800   20.6950 O   0  0  0  0  0  0  0  0  0  0  0  0
  -22.8440  -12.2970   22.4740 H   0  0  0  0  0  0  0  0  0  0  0  0
  -21.5650  -13.4680   22.3500 H   0  0  0  0  0  0  0  0  0  0  0  0
  -25.8030  -15.4330   20.2590 N   0  0  0  0  0  0  0  0  0  0  0  0
  -25.0730  -16.1120   20.4440 H   0  0  0  0  0  0  0  0  0  0  0  0
  -26.6490  -15.8510   19.8960 H   0  0  0  0  0  0  0  0  0  0  0  0
  -28.2740  -25.2390   20.3160 C   0  0  0  0  0  2  0  0  0  0  0  0
  -28.4490  -26.6920   20.0750 O   0  0  0  0  0  0  0  0  0  0  0  0
  -24.5480  -31.8920   23.2000 C   0  0  0  0  0  0  0  0  0  0  0  0
  -27.2990  -27.4920   20.0570 C   0  0  0  0  0  0  0  0  0  0  0  0
  -23.3920  -30.5070   21.5150 C   0  0  0  0  0  3  0  0  0  0  0  0
  -24.8920  -29.0310   20.0650 C   0  0  0  0  0  0  0  0  0  0  0  0
  -25.9220  -30.8980   21.3590 C   0  0  0  0  0  2  0  0  0  0  0  0
  -26.0430  -29.5400   20.6790 C   0  0  0  0  0  0  0  0  0  0  0  0
  -27.2520  -28.7830   20.6620 C   0  0  0  0  0  3  0  0  0  0  0  0
  -26.1250  -27.0320   19.4200 C   0  0  0  0  0  3  0  0  0  0  0  0
  -24.9340  -27.7820   19.4250 C   0  0  0  0  0  3  0  0  0  0  0  0
  -23.6330  -29.8720   20.1200 C   0  0  0  0  0  2  0  0  0  0  0  0
  -24.6390  -31.1140   22.0820 N   0  0  0  0  0  0  0  0  0  0  0  0
  -23.4550  -32.1290   23.7320 O   0  0  0  0  0  0  0  0  0  0  0  0
  -22.7490  -29.4490   22.4440 C   0  0  0  0  0  0  0  0  0  0  0  0
  -21.4310  -29.2300   22.2870 N   0  0  0  0  0  0  0  0  0  0  0  0
  -23.4320  -28.8310   23.2630 O   0  0  0  0  0  0  0  0  0  0  0  0
  -20.9390  -29.7800   21.5980 H   0  0  0  0  0  0  0  0  0  0  0  0
  -18.0880  -27.9130   22.6950 C   0  0  0  0  0  0  0  0  0  0  0  0
  -20.6300  -28.2530   23.0250 C   0  0  0  0  0  3  0  0  0  0  0  0
  -20.7920  -26.8360   22.4280 C   0  0  0  0  0  2  0  0  0  0  0  0
  -19.7220  -26.4940   21.3860 C   0  0  0  0  0  2  0  0  0  0  0  0
  -18.3230  -26.5830   22.0020 C   0  0  0  0  0  2  0  0  0  0  0  0
  -19.1710  -28.7050   23.1610 C   0  0  0  0  0  0  0  0  0  0  0  0
  -18.8970  -29.9500   23.7690 C   0  0  0  0  0  3  0  0  0  0  0  0
  -17.5720  -30.4030   23.9160 C   0  0  0  0  0  3  0  0  0  0  0  0
  -16.5040  -29.6090   23.4670 C   0  0  0  0  0  3  0  0  0  0  0  0
  -16.7610  -28.3660   22.8610 C   0  0  0  0  0  3  0  0  0  0  0  0
  -25.8120  -32.5380   23.8480 C   0  0  0  0  0  3  0  0  0  0  0  0
  -26.3070  -31.7750   25.1390 C   0  0  1  0  0  0  0  0  0  0  0  0
  -25.1880  -31.5140   26.1740 C   0  0  0  0  0  1  0  0  0  0  0  0
  -26.9280  -30.4110   24.7620 C   0  0  0  0  0  1  0  0  0  0  0  0
  -27.4230  -32.5920   25.8330 C   0  0  0  0  0  1  0  0  0  0  0  0
  -25.4810  -33.9330   24.1690 N   0  0  0  0  0  0  0  0  0  0  0  0
  -25.8180  -34.9890   23.4170 C   0  0  0  0  0  0  0  0  0  0  0  0
  -26.5110  -34.8900   22.4000 O   0  0  0  0  0  0  0  0  0  0  0  0
  -24.8670  -34.0820   24.9570 H   0  0  0  0  0  0  0  0  0  0  0  0
  -24.0810  -36.7640   23.0200 C   0  0  0  0  0  1  0  0  0  0  0  0
  -25.3070  -36.3730   23.8610 C   0  0  0  0  0  3  0  0  0  0  0  0
  -27.4090  -37.2820   24.7470 C   0  0  0  0  0  1  0  0  0  0  0  0
  -26.3320  -37.4350   23.7720 N   0  0  0  0  0  0  0  0  0  0  0  0
  -25.9140  -38.3520   23.9040 H   0  0  0  0  0  0  0  0  0  0  0  0
  1  2  1  0
  1  6  2  0
  3  2  1  0
  4 52  1  0
  4  3  1  0
  4  5  1  0
  5  1  1  0
  7  9  1  0
  8 10  2  0
  8 11  1  0
 10 12  1  0
 11 13  1  0
 11  7  2  0
 12  5  1  0
 12  9  2  0
 14 20  1  0
 14 23  1  0
 15 20  1  0
 16 17  1  0
 16 15  1  0
 18 17  1  0
 18 27  1  0
 18 19  1  0
 20 19  1  0
 21 14  2  0
 22 23  1  0
 23 13  1  0
 24 25  2  0
 25 44  1  0
 26 25  1  0
 26 29  1  0
 27 28  1  0
 27 24  1  0
 28 26  2  0
 29 30  1  0
 30 31  2  0
 32 35  1  0
 32 31  1  0
 33 32  2  0
 34 33  1  0
 34 29  2  0
 35 36  1  0
 36 41  2  0
 36 37  1  0
 37 38  2  0
 38 39  1  0
 39 43  1  0
 40 39  2  0
 41 40  1  0
 42 41  1  0
 44 45  1  0
 45 48  1  0
 45 47  1  0
 46 44  2  0
 49 24  1  0
 49 50  1  0
 51 49  1  0
 53 52  1  0
 54 65  2  0
 55 53  1  0
 55 60  1  0
 56 64  1  0
 56 66  1  0
 57 63  1  0
 57 59  1  0
 58 64  1  0
 59 58  1  0
 60 59  2  0
 61 62  1  0
 61 55  2  0
 62 57  2  0
 63 56  1  0
 64 54  1  0
 66 68  2  0
 67 66  1  0
 69 67  1  0
 70 79  2  0
 70 75  1  0
 71 67  1  0
 71 75  1  0
 72 71  1  0
 73 74  1  0
 73 72  1  0
 74 70  1  0
 75 76  2  0
 76 77  1  0
 78 77  2  0
 79 78  1  0
 80 54  1  0
 80 85  1  0
 80 81  1  0
 81 84  1  1
 81 82  1  0
 83 81  1  0
 85 88  1  0
 86 90  1  0
 86 85  1  0
 87 86  2  0
 90 89  1  0
 92 90  1  0
 92 93  1  0
 92 91  1  0
M  ISO  4  14 100  23 100  52 101  53 101
M  END
>  <TORSDO>  (56) 
F 19

>  <SCORE>  (56) 
-13.453

>  <name>  (56) 
55

>  <ligand_id>  (56) 
55

>  <original_smiles>  (56) 
[H]c1c([H])c([H])c2c(c1[H])C([H])([H])C([H])([H])C([H])([H])C2([H])N([H])C(=O)C1([H])N(C(=O)C([H])(N([H])C(=O)C([H])(N([H])C([H])([H])[H])C([H])([H])[H])C(C([H])([H])[H])(C([H])([H])[H])C([H])([H])[H])C([H])([H])c2c([H])c(OC([H])([H])C3([H])N(c4c([H])c([H])c(C([H])([H])N(C(=O)N5C([H])([H])C([H])([H])C([H])([H])C([H])(n6nc(-c7c([H])c([H])c(Oc8c([H])c([H])c(F)c([H])c8F)c([H])c7[H])c(C(=O)N([H])[H])c6N([H])[H])C5([H])[H])C([H])([H])[H])c([H])c4[H])C(=O)C([H])([H])C3([H])[H])c([H])c([H])c2C1([H])[H]

>  <smiles>  (56) 
[H]c1c([H])c([H])c2c(c1[H])C([H])([H])C([H])([H])C([H])([H])C2([H])N([H])C(=O)C1([H])N(C(=O)C([H])(N([H])C(=O)C([H])(N([H])C([H])([H])[H])C([H])([H])[H])C(C([H])([H])[H])(C([H])([H])[H])C([H])([H])[H])C([H])([H])c2c([H])c(OC([H])([H])C3([H])N(c4c([H])c([H])c(C([H])([H])N(C(=O)N5C([H])([H])C([H])([H])C([H])([H])C([H])(n6nc(-c7c([H])c([H])c(Oc8c([H])c([H])c(F)c([H])c8F)c([H])c7[H])c(C(=O)N([H])[H])c6N([H])[H])C5([H])[H])C([H])([H])[H])c([H])c4[H])C(=O)C([H])([H])C3([H])[H])c([H])c([H])c2C1([H])[H]

$$$$
56:0:0
     RDKit          3D

 94103  0  0  1  0  0  0  0  0999 V2000
  -28.2620  -23.8580   18.2210 C   0  0  0  0  0  0  0  0  0  0  0  0
  -28.0090  -22.5010   17.5730 C   0  0  0  0  0  2  0  0  0  0  0  0
  -29.1650  -21.5280   17.8360 C   0  0  0  0  0  2  0  0  0  0  0  0
  -28.9800  -22.3760   20.2070 C   0  0  0  0  0  2  0  0  0  0  0  0
  -28.9310  -23.8710   19.6050 C   0  0  0  0  0  3  0  0  0  0  0  0
  -29.3850  -21.2710   19.2660 N   0  0  0  0  0  0  0  0  0  0  0  0
  -27.9500  -24.8950   17.6280 O   0  0  0  0  0  0  0  0  0  0  0  0
  -29.2180  -19.3100   20.8420 C   0  0  0  0  0  3  0  0  0  0  0  0
  -29.4140  -17.9290   21.1480 C   0  0  0  0  0  3  0  0  0  0  0  0
  -30.4950  -17.5880   19.0440 C   0  0  0  0  0  3  0  0  0  0  0  0
  -29.6450  -19.8870   19.6180 C   0  0  0  0  0  0  0  0  0  0  0  0
  -30.0520  -17.0060   20.2620 C   0  0  0  0  0  0  0  0  0  0  0  0
  -30.3210  -18.9720   18.7420 C   0  0  0  0  0  0  0  0  0  0  0  0
  -30.8460  -19.4150   17.5720 F   0  0  0  0  0  0  0  0  0  0  0  0
  -30.7330  -14.5670   19.8260 C   0  0  0  0  0  0  0  0  0  0  0  0
  -30.2960  -12.4160   18.6360 C   0  0  0  0  0  2  0  0  0  0  0  0
  -29.2310  -12.6090   17.5360 C   0  0  0  0  0  2  0  0  0  0  0  0
  -27.8110  -12.4460   18.1100 C   0  0  0  0  0  2  0  0  0  0  0  0
  -27.6060  -13.2580   19.4150 C   0  0  0  0  0  3  0  0  0  0  0  0
  -28.7690  -13.0280   20.3980 C   0  0  0  0  0  2  0  0  0  0  0  0
  -30.0240  -13.3910   19.7150 N   0  0  0  0  0  0  0  0  0  0  0  0
  -31.7720  -14.7290   19.1760 O   0  0  0  0  0  0  0  0  0  0  0  0
  -30.3080  -15.3040   22.0800 C   0  0  0  0  0  1  0  0  0  0  0  0
  -30.2470  -15.5810   20.6350 N   0  0  0  0  0  0  0  0  0  0  0  0
  -25.3260  -13.8650   20.4320 C   0  0  0  0  0  0  0  0  0  0  0  0
  -24.2860  -13.0930   20.8760 C   0  0  0  0  0  0  0  0  0  0  0  0
  -24.7060  -11.7360   20.7180 C   0  0  0  0  0  0  0  0  0  0  0  0
  -26.3130  -12.9760   20.0320 N   0  0  0  0  0  0  0  0  0  0  0  0
  -25.9510  -11.6880   20.2620 N   0  0  0  0  0  0  0  0  0  0  0  0
  -23.9710  -10.4810   20.9190 C   0  0  0  0  0  0  0  0  0  0  0  0
  -24.4540   -9.4710   21.7820 C   0  0  0  0  0  3  0  0  0  0  0  0
  -23.7190   -8.2810   21.9740 C   0  0  0  0  0  3  0  0  0  0  0  0
  -22.4870   -8.0930   21.3040 C   0  0  0  0  0  0  0  0  0  0  0  0
  -22.0220   -9.0910   20.4300 C   0  0  0  0  0  3  0  0  0  0  0  0
  -22.7580  -10.2730   20.2360 C   0  0  0  0  0  3  0  0  0  0  0  0
  -21.7170   -6.9600   21.4100 O   0  0  0  0  0  0  0  0  0  0  0  0
  -21.7060   -6.2010   22.5520 C   0  0  0  0  0  0  0  0  0  0  0  0
  -21.3570   -6.7470   23.8070 C   0  0  0  0  0  3  0  0  0  0  0  0
  -21.2920   -5.9160   24.9430 C   0  0  0  0  0  3  0  0  0  0  0  0
  -21.5640   -4.5410   24.8280 C   0  0  0  0  0  0  0  0  0  0  0  0
  -21.9050   -3.9930   23.5770 C   0  0  0  0  0  3  0  0  0  0  0  0
  -21.9720   -4.8210   22.4440 C   0  0  0  0  0  0  0  0  0  0  0  0
  -22.2810   -4.2850   21.2370 F   0  0  0  0  0  0  0  0  0  0  0  0
  -21.4930   -3.7400   25.9160 F   0  0  0  0  0  0  0  0  0  0  0  0
  -22.9430  -13.5830   21.3330 C   0  0  0  0  0  0  0  0  0  0  0  0
  -22.3110  -12.8650   22.2550 N   0  0  0  0  0  0  0  0  0  0  0  0
  -22.4670  -14.6350   20.9090 O   0  0  0  0  0  0  0  0  0  0  0  0
  -22.7130  -12.0130   22.6190 H   0  0  0  0  0  0  0  0  0  0  0  0
  -21.4140  -13.1690   22.6040 H   0  0  0  0  0  0  0  0  0  0  0  0
  -25.5060  -15.2400   20.3150 N   0  0  0  0  0  0  0  0  0  0  0  0
  -24.7760  -15.9020   20.5520 H   0  0  0  0  0  0  0  0  0  0  0  0
  -26.3340  -15.6810   19.9320 H   0  0  0  0  0  0  0  0  0  0  0  0
  -28.3010  -25.0210   20.5240 C   0  0  0  0  0  2  0  0  0  0  0  0
  -28.4570  -26.4560   20.1780 O   0  0  0  0  0  0  0  0  0  0  0  0
  -24.5370  -31.7400   23.1500 C   0  0  0  0  0  0  0  0  0  0  0  0
  -27.3110  -27.2600   20.1460 C   0  0  0  0  0  0  0  0  0  0  0  0
  -23.3950  -30.3170   21.4850 C   0  0  0  0  0  3  0  0  0  0  0  0
  -24.9060  -28.8010   20.0900 C   0  0  0  0  0  0  0  0  0  0  0  0
  -25.9280  -30.7000   21.3470 C   0  0  0  0  0  2  0  0  0  0  0  0
  -26.0520  -29.3250   20.7040 C   0  0  0  0  0  0  0  0  0  0  0  0
  -27.2600  -28.5680   20.7150 C   0  0  0  0  0  3  0  0  0  0  0  0
  -26.1440  -26.7840   19.5110 C   0  0  0  0  0  3  0  0  0  0  0  0
  -24.9550  -27.5370   19.4810 C   0  0  0  0  0  3  0  0  0  0  0  0
  -23.6490  -29.6460   20.1100 C   0  0  0  0  0  2  0  0  0  0  0  0
  -24.6370  -30.9360   22.0520 N   0  0  0  0  0  0  0  0  0  0  0  0
  -23.4370  -31.9930   23.6650 O   0  0  0  0  0  0  0  0  0  0  0  0
  -22.7350  -29.2870   22.4320 C   0  0  0  0  0  0  0  0  0  0  0  0
  -21.4140  -29.0930   22.2870 N   0  0  0  0  0  0  0  0  0  0  0  0
  -23.4130  -28.6640   23.2540 O   0  0  0  0  0  0  0  0  0  0  0  0
  -20.9290  -29.6480   21.5960 H   0  0  0  0  0  0  0  0  0  0  0  0
  -18.0450  -27.8530   22.7390 C   0  0  0  0  0  0  0  0  0  0  0  0
  -20.5970  -28.1420   23.0420 C   0  0  0  0  0  3  0  0  0  0  0  0
  -20.7230  -26.7150   22.4610 C   0  0  0  0  0  2  0  0  0  0  0  0
  -19.6370  -26.3840   21.4320 C   0  0  0  0  0  2  0  0  0  0  0  0
  -18.2460  -26.5090   22.0580 C   0  0  0  0  0  2  0  0  0  0  0  0
  -19.1490  -28.6270   23.1870 C   0  0  0  0  0  0  0  0  0  0  0  0
  -18.9080  -29.8840   23.7820 C   0  0  0  0  0  3  0  0  0  0  0  0
  -17.5940  -30.3680   23.9360 C   0  0  0  0  0  3  0  0  0  0  0  0
  -16.5050  -29.5910   23.5040 C   0  0  0  0  0  3  0  0  0  0  0  0
  -16.7310  -28.3350   22.9130 C   0  0  0  0  0  3  0  0  0  0  0  0
  -25.7930  -32.3990   23.8000 C   0  0  0  0  0  3  0  0  0  0  0  0
  -25.4440  -33.7880   24.1320 N   0  0  0  0  0  0  0  0  0  0  0  0
  -25.7530  -34.8530   23.3810 C   0  0  0  0  0  0  0  0  0  0  0  0
  -26.4340  -34.7720   22.3540 O   0  0  0  0  0  0  0  0  0  0  0  0
  -24.8440  -33.9230   24.9330 H   0  0  0  0  0  0  0  0  0  0  0  0
  -23.9780  -36.5990   23.0240 C   0  0  0  0  0  1  0  0  0  0  0  0
  -25.2270  -36.2270   23.8400 C   0  0  0  0  0  3  0  0  0  0  0  0
  -27.3330  -37.1650   24.6840 C   0  0  0  0  0  1  0  0  0  0  0  0
  -26.2300  -37.3080   23.7360 N   0  0  0  0  0  0  0  0  0  0  0  0
  -25.7980  -38.2150   23.8870 H   0  0  0  0  0  0  0  0  0  0  0  0
  -26.3050  -31.6340   25.0810 C   0  0  1  0  0  0  0  0  0  0  0  0
  -25.2010  -31.3630   26.1300 C   0  0  0  0  0  1  0  0  0  0  0  0
  -26.9280  -30.2730   24.6920 C   0  0  0  0  0  1  0  0  0  0  0  0
  -27.4280  -32.4500   25.7640 C   0  0  0  0  0  1  0  0  0  0  0  0
  1  5  1  0
  2  3  1  0
  2  1  1  0
  3  6  1  0
  5  4  1  0
  5 53  1  0
  6 11  1  0
  6  4  1  0
  7  1  2  0
  8  9  1  0
 10 12  1  0
 11  8  2  0
 12 24  1  0
 12  9  2  0
 13 10  2  0
 13 11  1  0
 14 13  1  0
 15 24  1  0
 16 21  1  0
 17 18  1  0
 17 16  1  0
 19 18  1  0
 19 28  1  0
 19 20  1  0
 21 15  1  0
 21 20  1  0
 22 15  2  0
 24 23  1  0
 25 26  2  0
 26 45  1  0
 27 26  1  0
 27 30  1  0
 28 29  1  0
 28 25  1  0
 29 27  2  0
 30 31  1  0
 31 32  2  0
 33 36  1  0
 33 32  1  0
 34 33  2  0
 35 34  1  0
 35 30  2  0
 36 37  1  0
 37 38  1  0
 38 39  2  0
 40 39  1  0
 40 44  1  0
 41 40  2  0
 42 37  2  0
 42 41  1  0
 43 42  1  0
 45 46  1  0
 46 49  1  0
 46 48  1  0
 47 45  2  0
 50 25  1  0
 50 51  1  0
 52 50  1  0
 54 53  1  0
 55 66  2  0
 56 54  1  0
 56 61  1  0
 57 65  1  0
 57 67  1  0
 58 64  1  0
 58 60  1  0
 59 65  1  0
 60 61  2  0
 60 59  1  0
 62 56  2  0
 63 62  1  0
 63 58  2  0
 64 57  1  0
 65 55  1  0
 67 69  2  0
 68 67  1  0
 70 68  1  0
 71 80  2  0
 71 76  1  0
 72 68  1  0
 72 76  1  0
 73 72  1  0
 74 75  1  0
 74 73  1  0
 75 71  1  0
 76 77  2  0
 77 78  1  0
 79 78  2  0
 80 79  1  0
 81 55  1  0
 81 82  1  0
 81 91  1  0
 82 85  1  0
 83 87  1  0
 83 82  1  0
 84 83  2  0
 87 86  1  0
 89 87  1  0
 89 90  1  0
 89 88  1  0
 91 94  1  1
 91 92  1  0
 93 91  1  0
M  ISO  4  15 100  24 100  53 101  54 101
M  END
>  <TORSDO>  (57) 
F 18

>  <SCORE>  (57) 
-13.330

>  <name>  (57) 
56

>  <ligand_id>  (57) 
56

>  <original_smiles>  (57) 
[H]c1c([H])c([H])c2c(c1[H])C([H])([H])C([H])([H])C([H])([H])C2([H])N([H])C(=O)C1([H])N(C(=O)C([H])(N([H])C(=O)C([H])(N([H])C([H])([H])[H])C([H])([H])[H])C(C([H])([H])[H])(C([H])([H])[H])C([H])([H])[H])C([H])([H])c2c([H])c(OC([H])([H])C3([H])C(=O)C([H])([H])C([H])([H])N(c4c([H])c([H])c(N(C(=O)N5C([H])([H])C([H])([H])C([H])([H])C([H])(n6nc(-c7c([H])c([H])c(Oc8c([H])c([H])c(F)c([H])c8F)c([H])c7[H])c(C(=O)N([H])[H])c6N([H])[H])C5([H])[H])C([H])([H])[H])c([H])c4F)C3([H])[H])c([H])c([H])c2C1([H])[H]

>  <smiles>  (57) 
[H]c1c([H])c([H])c2c(c1[H])C([H])([H])C([H])([H])C([H])([H])C2([H])N([H])C(=O)C1([H])N(C(=O)C([H])(N([H])C(=O)C([H])(N([H])C([H])([H])[H])C([H])([H])[H])C(C([H])([H])[H])(C([H])([H])[H])C([H])([H])[H])C([H])([H])c2c([H])c(OC([H])([H])C3([H])C(=O)C([H])([H])C([H])([H])N(c4c([H])c([H])c(N(C(=O)N5C([H])([H])C([H])([H])C([H])([H])C([H])(n6nc(-c7c([H])c([H])c(Oc8c([H])c([H])c(F)c([H])c8F)c([H])c7[H])c(C(=O)N([H])[H])c6N([H])[H])C5([H])[H])C([H])([H])[H])c([H])c4F)C3([H])[H])c([H])c([H])c2C1([H])[H]

$$$$
57:0:0
     RDKit          3D

 94103  0  0  1  0  0  0  0  0999 V2000
  -29.3480  -23.7400   19.0730 C   0  0  0  0  0  2  0  0  0  0  0  0
  -29.8940  -22.3040   19.2760 C   0  0  0  0  0  2  0  0  0  0  0  0
  -28.8930  -23.0470   21.3020 C   0  0  0  0  0  2  0  0  0  0  0  0
  -29.1660  -24.3280   20.4800 C   0  0  0  0  0  3  0  0  0  0  0  0
  -29.7020  -21.9530   20.7050 N   0  0  1  0  0  4  0  0  0  0  0  0
  -30.6070  -22.0230   21.1420 H   0  0  0  0  0  0  0  0  0  0  0  0
  -29.1970  -20.5700   20.9930 C   0  0  0  0  0  2  0  0  0  0  0  0
  -29.7630  -18.0690   20.7080 C   0  0  0  0  0  3  0  0  0  0  0  0
  -31.6000  -19.6610   20.9180 C   0  0  0  0  0  3  0  0  0  0  0  0
  -32.0630  -17.2680   20.7520 C   0  0  0  0  0  3  0  0  0  0  0  0
  -30.2090  -19.4160   20.8370 C   0  0  0  0  0  0  0  0  0  0  0  0
  -30.6790  -16.9800   20.6550 C   0  0  0  0  0  0  0  0  0  0  0  0
  -32.5160  -18.5940   20.8730 C   0  0  0  0  0  0  0  0  0  0  0  0
  -33.8440  -18.8480   20.9670 F   0  0  0  0  0  0  0  0  0  0  0  0
  -30.8250  -14.5650   19.9980 C   0  0  0  0  0  0  0  0  0  0  0  0
  -30.4500  -12.3500   18.9690 C   0  0  0  0  0  2  0  0  0  0  0  0
  -29.4500  -12.4870   17.8040 C   0  0  0  0  0  2  0  0  0  0  0  0
  -28.0030  -12.3590   18.3170 C   0  0  0  0  0  2  0  0  0  0  0  0
  -27.7230  -13.2590   19.5510 C   0  0  0  0  0  3  0  0  0  0  0  0
  -28.8400  -13.1180   20.6130 C   0  0  0  0  0  2  0  0  0  0  0  0
  -30.1290  -13.3930   19.9580 N   0  0  0  0  0  0  0  0  0  0  0  0
  -31.9120  -14.6950   19.4300 O   0  0  0  0  0  0  0  0  0  0  0  0
  -30.1990  -15.6240   20.5640 N   0  0  0  0  0  0  0  0  0  0  0  0
  -29.2570  -15.4490   20.8820 H   0  0  0  0  0  0  0  0  0  0  0  0
  -25.3910  -13.8940   20.4320 C   0  0  0  0  0  0  0  0  0  0  0  0
  -24.3340  -13.1330   20.8560 C   0  0  0  0  0  0  0  0  0  0  0  0
  -24.7640  -11.7740   20.7670 C   0  0  0  0  0  0  0  0  0  0  0  0
  -26.4000  -12.9980   20.1150 N   0  0  0  0  0  0  0  0  0  0  0  0
  -26.0310  -11.7170   20.3730 N   0  0  0  0  0  0  0  0  0  0  0  0
  -24.0260  -10.5220   20.9790 C   0  0  0  0  0  0  0  0  0  0  0  0
  -24.4420   -9.5740   21.9400 C   0  0  0  0  0  3  0  0  0  0  0  0
  -23.7040   -8.3870   22.1390 C   0  0  0  0  0  3  0  0  0  0  0  0
  -22.5380   -8.1390   21.3770 C   0  0  0  0  0  0  0  0  0  0  0  0
  -22.1420   -9.0750   20.4050 C   0  0  0  0  0  3  0  0  0  0  0  0
  -22.8800  -10.2540   20.2040 C   0  0  0  0  0  3  0  0  0  0  0  0
  -21.7740   -7.0020   21.4830 O   0  0  0  0  0  0  0  0  0  0  0  0
  -21.6530   -6.3250   22.6700 C   0  0  0  0  0  0  0  0  0  0  0  0
  -21.1170   -6.9350   23.8250 C   0  0  0  0  0  3  0  0  0  0  0  0
  -20.9470   -6.1820   25.0040 C   0  0  0  0  0  3  0  0  0  0  0  0
  -21.3010   -4.8210   25.0290 C   0  0  0  0  0  0  0  0  0  0  0  0
  -21.8280   -4.2100   23.8780 C   0  0  0  0  0  3  0  0  0  0  0  0
  -22.0000   -4.9590   22.7020 C   0  0  0  0  0  0  0  0  0  0  0  0
  -22.4900   -4.3610   21.5880 F   0  0  0  0  0  0  0  0  0  0  0  0
  -21.1290   -4.0940   26.1570 F   0  0  0  0  0  0  0  0  0  0  0  0
  -22.9680  -13.6320   21.2290 C   0  0  0  0  0  0  0  0  0  0  0  0
  -22.2790  -12.9230   22.1180 N   0  0  0  0  0  0  0  0  0  0  0  0
  -22.5230  -14.6830   20.7710 O   0  0  0  0  0  0  0  0  0  0  0  0
  -22.6520  -12.0710   22.5120 H   0  0  0  0  0  0  0  0  0  0  0  0
  -21.3650  -13.2380   22.4080 H   0  0  0  0  0  0  0  0  0  0  0  0
  -25.5710  -15.2650   20.2680 N   0  0  0  0  0  0  0  0  0  0  0  0
  -24.8260  -15.9310   20.4380 H   0  0  0  0  0  0  0  0  0  0  0  0
  -26.3990  -15.6910   19.8710 H   0  0  0  0  0  0  0  0  0  0  0  0
  -28.0410  -25.3940   20.6320 C   0  0  0  0  0  2  0  0  0  0  0  0
  -28.2930  -26.7270   20.1150 O   0  0  0  0  0  0  0  0  0  0  0  0
  -24.5050  -31.9280   23.2260 C   0  0  0  0  0  0  0  0  0  0  0  0
  -27.1580  -27.5190   20.0870 C   0  0  0  0  0  0  0  0  0  0  0  0
  -23.2950  -30.5140   21.6010 C   0  0  0  0  0  3  0  0  0  0  0  0
  -24.7500  -29.0150   20.1360 C   0  0  0  0  0  0  0  0  0  0  0  0
  -25.8150  -30.9080   21.3670 C   0  0  0  0  0  2  0  0  0  0  0  0
  -25.9130  -29.5440   20.7110 C   0  0  0  0  0  0  0  0  0  0  0  0
  -27.1230  -28.8050   20.6820 C   0  0  0  0  0  3  0  0  0  0  0  0
  -25.9820  -27.0270   19.4770 C   0  0  0  0  0  3  0  0  0  0  0  0
  -24.7810  -27.7580   19.5110 C   0  0  0  0  0  3  0  0  0  0  0  0
  -23.4920  -29.8500   20.2130 C   0  0  0  0  0  2  0  0  0  0  0  0
  -24.5580  -31.1320   22.1220 N   0  0  0  0  0  0  0  0  0  0  0  0
  -23.4290  -32.1800   23.7860 O   0  0  0  0  0  0  0  0  0  0  0  0
  -22.6780  -29.4760   22.5670 C   0  0  0  0  0  0  0  0  0  0  0  0
  -21.3580  -29.2570   22.4490 N   0  0  0  0  0  0  0  0  0  0  0  0
  -23.3830  -28.8710   23.3780 O   0  0  0  0  0  0  0  0  0  0  0  0
  -20.8490  -29.7960   21.7630 H   0  0  0  0  0  0  0  0  0  0  0  0
  -18.0310  -27.9290   22.9300 C   0  0  0  0  0  0  0  0  0  0  0  0
  -20.5710  -28.3000   23.2280 C   0  0  0  0  0  3  0  0  0  0  0  0
  -20.7420  -26.8650   22.6790 C   0  0  0  0  0  2  0  0  0  0  0  0
  -19.6680  -26.4770   21.6590 C   0  0  0  0  0  2  0  0  0  0  0  0
  -18.2720  -26.5760   22.2830 C   0  0  0  0  0  2  0  0  0  0  0  0
  -19.1110  -28.7450   23.3600 C   0  0  0  0  0  0  0  0  0  0  0  0
  -18.8300  -30.0090   23.9220 C   0  0  0  0  0  3  0  0  0  0  0  0
  -17.5040  -30.4590   24.0610 C   0  0  0  0  0  3  0  0  0  0  0  0
  -16.4380  -29.6380   23.6490 C   0  0  0  0  0  3  0  0  0  0  0  0
  -16.7020  -28.3750   23.0900 C   0  0  0  0  0  3  0  0  0  0  0  0
  -25.7900  -32.5800   23.8250 C   0  0  0  0  0  3  0  0  0  0  0  0
  -26.3350  -31.8230   25.0990 C   0  0  1  0  0  0  0  0  0  0  0  0
  -25.2580  -31.5720   26.1800 C   0  0  0  0  0  1  0  0  0  0  0  0
  -26.9370  -30.4540   24.7070 C   0  0  0  0  0  1  0  0  0  0  0  0
  -27.4800  -32.6390   25.7440 C   0  0  0  0  0  1  0  0  0  0  0  0
  -25.4690  -33.9760   24.1490 N   0  0  0  0  0  0  0  0  0  0  0  0
  -25.8020  -35.0290   23.3890 C   0  0  0  0  0  0  0  0  0  0  0  0
  -26.4840  -34.9270   22.3660 O   0  0  0  0  0  0  0  0  0  0  0  0
  -24.8660  -34.1290   24.9430 H   0  0  0  0  0  0  0  0  0  0  0  0
  -24.0820  -36.8200   22.9900 C   0  0  0  0  0  1  0  0  0  0  0  0
  -25.2990  -36.4150   23.8370 C   0  0  0  0  0  3  0  0  0  0  0  0
  -27.4060  -37.3010   24.7350 C   0  0  0  0  0  1  0  0  0  0  0  0
  -26.3350  -37.4690   23.7570 N   0  0  0  0  0  0  0  0  0  0  0  0
  -25.9230  -38.3890   23.8900 H   0  0  0  0  0  0  0  0  0  0  0  0
  1  2  1  0
  1  4  1  0
  2  5  1  0
  4 53  1  0
  4  3  1  0
  5  7  1  0
  5  6  1  1
  5  3  1  0
  8 11  1  0
 10 13  2  0
 11  9  2  0
 11  7  1  0
 12  8  2  0
 12 10  1  0
 13  9  1  0
 13 14  1  0
 15 23  1  0
 16 21  1  0
 17 18  1  0
 17 16  1  0
 19 18  1  0
 19 28  1  0
 19 20  1  0
 21 15  1  0
 21 20  1  0
 22 15  2  0
 23 12  1  0
 23 24  1  0
 25 26  2  0
 26 45  1  0
 27 26  1  0
 27 30  1  0
 28 29  1  0
 28 25  1  0
 29 27  2  0
 30 31  1  0
 31 32  2  0
 33 36  1  0
 33 32  1  0
 34 33  2  0
 35 34  1  0
 35 30  2  0
 36 37  1  0
 37 42  2  0
 37 38  1  0
 38 39  2  0
 39 40  1  0
 40 44  1  0
 41 40  2  0
 42 41  1  0
 43 42  1  0
 45 46  1  0
 46 49  1  0
 46 48  1  0
 47 45  2  0
 50 25  1  0
 50 51  1  0
 52 50  1  0
 54 53  1  0
 55 66  2  0
 56 54  1  0
 56 61  1  0
 57 65  1  0
 57 67  1  0
 58 64  1  0
 58 60  1  0
 59 65  1  0
 60 59  1  0
 61 60  2  0
 62 63  1  0
 62 56  2  0
 63 58  2  0
 64 57  1  0
 65 55  1  0
 67 69  2  0
 68 67  1  0
 70 68  1  0
 71 80  2  0
 71 76  1  0
 72 68  1  0
 72 76  1  0
 73 72  1  0
 74 75  1  0
 74 73  1  0
 75 71  1  0
 76 77  2  0
 77 78  1  0
 79 78  2  0
 80 79  1  0
 81 55  1  0
 81 86  1  0
 81 82  1  0
 82 85  1  1
 82 83  1  0
 84 82  1  0
 86 89  1  0
 87 91  1  0
 87 86  1  0
 88 87  2  0
 91 90  1  0
 93 91  1  0
 93 94  1  0
 93 92  1  0
M  ISO  4  15 100  23 100  53 101  54 101
M  END
>  <TORSDO>  (58) 
F 19

>  <SCORE>  (58) 
-14.248

>  <name>  (58) 
57

>  <ligand_id>  (58) 
57

>  <original_smiles>  (58) 
[H]c1c([H])c([H])c2c(c1[H])C([H])([H])C([H])([H])C([H])([H])C2([H])N([H])C(=O)C1([H])N(C(=O)C([H])(N([H])C(=O)C([H])(N([H])C([H])([H])[H])C([H])([H])[H])C(C([H])([H])[H])(C([H])([H])[H])C([H])([H])[H])C([H])([H])c2c([H])c(OC([H])([H])C3([H])C([H])([H])C([H])([H])[N+]([H])(C([H])([H])c4c([H])c(F)c([H])c(N([H])C(=O)N5C([H])([H])C([H])([H])C([H])([H])C([H])(n6nc(-c7c([H])c([H])c(Oc8c([H])c([H])c(F)c([H])c8F)c([H])c7[H])c(C(=O)N([H])[H])c6N([H])[H])C5([H])[H])c4[H])C3([H])[H])c([H])c([H])c2C1([H])[H]

>  <smiles>  (58) 
[H]c1c([H])c([H])c2c(c1[H])C([H])([H])C([H])([H])C([H])([H])C2([H])N([H])C(=O)C1([H])N(C(=O)C([H])(N([H])C(=O)C([H])(N([H])C([H])([H])[H])C([H])([H])[H])C(C([H])([H])[H])(C([H])([H])[H])C([H])([H])[H])C([H])([H])c2c([H])c(OC([H])([H])C3([H])C([H])([H])C([H])([H])[N+]([H])(C([H])([H])c4c([H])c(F)c([H])c(N([H])C(=O)N5C([H])([H])C([H])([H])C([H])([H])C([H])(n6nc(-c7c([H])c([H])c(Oc8c([H])c([H])c(F)c([H])c8F)c([H])c7[H])c(C(=O)N([H])[H])c6N([H])[H])C5([H])[H])c4[H])C3([H])[H])c([H])c([H])c2C1([H])[H]

$$$$
58:0:0
     RDKit          3D

 94102  0  0  1  0  0  0  0  0999 V2000
  -29.7920  -22.3450   18.0460 C   0  0  0  0  0  0  0  0  0  0  0  0
  -30.4550  -21.1780   18.1430 N   0  0  0  0  0  0  0  0  0  0  0  0
  -29.8380  -22.9600   16.9780 O   0  0  0  0  0  0  0  0  0  0  0  0
  -31.0880  -21.0150   17.3730 H   0  0  0  0  0  0  0  0  0  0  0  0
  -31.7490  -18.4330   20.2940 C   0  0  0  0  0  3  0  0  0  0  0  0
  -31.6830  -19.5820   19.4810 C   0  0  0  0  0  3  0  0  0  0  0  0
  -29.2540  -19.5290   19.5870 C   0  0  0  0  0  3  0  0  0  0  0  0
  -30.5700  -17.8010   20.7450 C   0  0  0  0  0  0  0  0  0  0  0  0
  -30.4410  -20.1410   19.1170 C   0  0  0  0  0  0  0  0  0  0  0  0
  -29.3200  -18.3620   20.3860 C   0  0  0  0  0  0  0  0  0  0  0  0
  -28.1700  -17.7740   20.7960 F   0  0  0  0  0  0  0  0  0  0  0  0
  -30.6810  -16.5760   21.6600 C   0  0  0  0  0  2  0  0  0  0  0  0
  -30.7110  -14.4090   20.3810 C   0  0  0  0  0  0  0  0  0  0  0  0
  -30.3570  -12.3150   19.1180 C   0  0  0  0  0  2  0  0  0  0  0  0
  -29.3900  -12.5650   17.9440 C   0  0  0  0  0  2  0  0  0  0  0  0
  -27.9260  -12.4250   18.4020 C   0  0  0  0  0  2  0  0  0  0  0  0
  -27.6230  -13.2310   19.6930 C   0  0  0  0  0  3  0  0  0  0  0  0
  -28.6920  -12.9470   20.7710 C   0  0  0  0  0  2  0  0  0  0  0  0
  -30.0110  -13.2590   20.1910 N   0  0  0  0  0  0  0  0  0  0  0  0
  -31.7980  -14.6340   19.8400 O   0  0  0  0  0  0  0  0  0  0  0  0
  -30.1100  -15.3190   21.1610 N   0  0  0  0  0  0  0  0  0  0  0  0
  -29.2100  -15.0550   21.5320 H   0  0  0  0  0  0  0  0  0  0  0  0
  -25.2330  -13.8480   20.4220 C   0  0  0  0  0  0  0  0  0  0  0  0
  -24.1660  -13.0780   20.8030 C   0  0  0  0  0  0  0  0  0  0  0  0
  -24.6230  -11.7260   20.7690 C   0  0  0  0  0  0  0  0  0  0  0  0
  -26.2740  -12.9620   20.1840 N   0  0  0  0  0  0  0  0  0  0  0  0
  -25.9090  -11.6820   20.4480 N   0  0  0  0  0  0  0  0  0  0  0  0
  -23.8950  -10.4660   20.9700 C   0  0  0  0  0  0  0  0  0  0  0  0
  -24.3260   -9.5070   21.9140 C   0  0  0  0  0  3  0  0  0  0  0  0
  -23.5990   -8.3120   22.1010 C   0  0  0  0  0  3  0  0  0  0  0  0
  -22.4280   -8.0680   21.3440 C   0  0  0  0  0  0  0  0  0  0  0  0
  -22.0180   -9.0150   20.3890 C   0  0  0  0  0  3  0  0  0  0  0  0
  -22.7460  -10.2010   20.2010 C   0  0  0  0  0  3  0  0  0  0  0  0
  -21.6730   -6.9230   21.4400 O   0  0  0  0  0  0  0  0  0  0  0  0
  -21.6130   -6.1960   22.6020 C   0  0  0  0  0  0  0  0  0  0  0  0
  -21.1500   -6.7600   23.8110 C   0  0  0  0  0  3  0  0  0  0  0  0
  -21.0370   -5.9590   24.9640 C   0  0  0  0  0  3  0  0  0  0  0  0
  -21.3780   -4.5940   24.9100 C   0  0  0  0  0  0  0  0  0  0  0  0
  -21.8350   -4.0300   23.7060 C   0  0  0  0  0  3  0  0  0  0  0  0
  -21.9480   -4.8280   22.5550 C   0  0  0  0  0  0  0  0  0  0  0  0
  -22.3690   -4.2730   21.3920 F   0  0  0  0  0  0  0  0  0  0  0  0
  -21.2630   -3.8220   26.0160 F   0  0  0  0  0  0  0  0  0  0  0  0
  -22.7730  -13.5600   21.0900 C   0  0  0  0  0  0  0  0  0  0  0  0
  -22.0540  -12.8640   21.9640 N   0  0  0  0  0  0  0  0  0  0  0  0
  -22.3330  -14.5870   20.5770 O   0  0  0  0  0  0  0  0  0  0  0  0
  -22.4230  -12.0320   22.3990 H   0  0  0  0  0  0  0  0  0  0  0  0
  -21.1210  -13.1700   22.2030 H   0  0  0  0  0  0  0  0  0  0  0  0
  -25.4010  -15.2170   20.2420 N   0  0  0  0  0  0  0  0  0  0  0  0
  -24.6450  -15.8780   20.3800 H   0  0  0  0  0  0  0  0  0  0  0  0
  -26.2610  -15.6600   19.9410 H   0  0  0  0  0  0  0  0  0  0  0  0
  -29.0060  -22.9530   19.2230 C   0  0  0  0  0  2  0  0  0  0  0  0
  -28.9190  -24.5070   19.1200 C   0  0  0  0  0  2  0  0  0  0  0  0
  -28.3300  -25.2300   20.3490 C   0  0  0  0  0  2  0  0  0  0  0  0
  -28.4010  -26.6630   20.2000 O   0  0  0  0  0  0  0  0  0  0  0  0
  -24.5730  -31.8530   23.2360 C   0  0  0  0  0  0  0  0  0  0  0  0
  -27.2230  -27.3850   20.1860 C   0  0  0  0  0  0  0  0  0  0  0  0
  -23.3740  -30.4540   21.5840 C   0  0  0  0  0  3  0  0  0  0  0  0
  -24.8340  -28.9060   20.1780 C   0  0  0  0  0  0  0  0  0  0  0  0
  -25.9040  -30.8040   21.4050 C   0  0  0  0  0  2  0  0  0  0  0  0
  -25.9910  -29.4300   20.7680 C   0  0  0  0  0  0  0  0  0  0  0  0
  -27.1890  -28.6780   20.7630 C   0  0  0  0  0  3  0  0  0  0  0  0
  -26.0470  -26.8790   19.5880 C   0  0  0  0  0  3  0  0  0  0  0  0
  -24.8560  -27.6310   19.5880 C   0  0  0  0  0  3  0  0  0  0  0  0
  -23.5940  -29.7700   20.2100 C   0  0  0  0  0  2  0  0  0  0  0  0
  -24.6350  -31.0520   22.1340 N   0  0  0  0  0  0  0  0  0  0  0  0
  -23.4890  -32.1260   23.7690 O   0  0  0  0  0  0  0  0  0  0  0  0
  -22.7090  -29.4380   22.5430 C   0  0  0  0  0  0  0  0  0  0  0  0
  -21.3810  -29.2760   22.4170 N   0  0  0  0  0  0  0  0  0  0  0  0
  -23.3860  -28.7960   23.3510 O   0  0  0  0  0  0  0  0  0  0  0  0
  -20.8960  -29.8480   21.7390 H   0  0  0  0  0  0  0  0  0  0  0  0
  -17.9860  -28.1530   22.9330 C   0  0  0  0  0  0  0  0  0  0  0  0
  -20.5510  -28.3460   23.1830 C   0  0  0  0  0  3  0  0  0  0  0  0
  -20.6140  -26.9200   22.5840 C   0  0  0  0  0  2  0  0  0  0  0  0
  -19.4960  -26.6400   21.5760 C   0  0  0  0  0  2  0  0  0  0  0  0
  -18.1250  -26.8080   22.2380 C   0  0  0  0  0  2  0  0  0  0  0  0
  -19.1270  -28.8810   23.3630 C   0  0  0  0  0  0  0  0  0  0  0  0
  -18.9440  -30.1410   23.9730 C   0  0  0  0  0  3  0  0  0  0  0  0
  -17.6530  -30.6710   24.1580 C   0  0  0  0  0  3  0  0  0  0  0  0
  -16.5270  -29.9370   23.7460 C   0  0  0  0  0  3  0  0  0  0  0  0
  -16.6940  -28.6800   23.1370 C   0  0  0  0  0  3  0  0  0  0  0  0
  -25.8550  -32.4800   23.8650 C   0  0  0  0  0  3  0  0  0  0  0  0
  -25.5490  -33.8780   24.1910 N   0  0  0  0  0  0  0  0  0  0  0  0
  -25.8920  -34.9280   23.4330 C   0  0  0  0  0  0  0  0  0  0  0  0
  -26.5700  -34.8200   22.4070 O   0  0  0  0  0  0  0  0  0  0  0  0
  -24.9480  -34.0320   24.9870 H   0  0  0  0  0  0  0  0  0  0  0  0
  -24.1800  -36.7290   23.0520 C   0  0  0  0  0  1  0  0  0  0  0  0
  -25.4070  -36.3200   23.8830 C   0  0  0  0  0  3  0  0  0  0  0  0
  -27.5320  -37.1950   24.7490 C   0  0  0  0  0  1  0  0  0  0  0  0
  -26.4480  -37.3670   23.7850 N   0  0  0  0  0  0  0  0  0  0  0  0
  -26.0450  -38.2900   23.9260 H   0  0  0  0  0  0  0  0  0  0  0  0
  -26.3590  -31.7070   25.1450 C   0  0  1  0  0  0  0  0  0  0  0  0
  -25.2560  -31.4690   26.2040 C   0  0  0  0  0  1  0  0  0  0  0  0
  -26.9380  -30.3280   24.7540 C   0  0  0  0  0  1  0  0  0  0  0  0
  -27.5070  -32.4950   25.8170 C   0  0  0  0  0  1  0  0  0  0  0  0
  1  2  1  0
  1 51  1  0
  2  9  1  0
  3  1  2  0
  4  2  1  0
  5  8  1  0
  6  5  2  0
  7 10  1  0
  8 12  1  0
  9  6  1  0
  9  7  2  0
 10  8  2  0
 10 11  1  0
 13 21  1  0
 14 19  1  0
 15 16  1  0
 15 14  1  0
 17 16  1  0
 17 26  1  0
 17 18  1  0
 19 13  1  0
 19 18  1  0
 20 13  2  0
 21 22  1  0
 21 12  1  0
 23 24  2  0
 24 43  1  0
 25 24  1  0
 25 28  1  0
 26 23  1  0
 26 27  1  0
 27 25  2  0
 28 29  1  0
 29 30  2  0
 31 34  1  0
 31 30  1  0
 32 31  2  0
 33 32  1  0
 33 28  2  0
 34 35  1  0
 35 36  1  0
 36 37  2  0
 38 37  1  0
 38 42  1  0
 39 38  2  0
 40 35  2  0
 40 39  1  0
 41 40  1  0
 43 44  1  0
 44 47  1  0
 44 46  1  0
 45 43  2  0
 48 49  1  0
 48 23  1  0
 50 48  1  0
 52 51  1  0
 52 53  1  0
 54 53  1  0
 55 66  2  0
 56 54  1  0
 56 61  1  0
 57 65  1  0
 57 67  1  0
 58 64  1  0
 58 60  1  0
 59 65  1  0
 60 59  1  0
 61 60  2  0
 62 63  1  0
 62 56  2  0
 63 58  2  0
 64 57  1  0
 65 55  1  0
 67 69  2  0
 68 67  1  0
 70 68  1  0
 71 80  2  0
 71 76  1  0
 72 68  1  0
 72 76  1  0
 73 72  1  0
 74 75  1  0
 74 73  1  0
 75 71  1  0
 76 77  2  0
 77 78  1  0
 79 78  2  0
 80 79  1  0
 81 55  1  0
 81 82  1  0
 81 91  1  0
 82 85  1  0
 83 87  1  0
 83 82  1  0
 84 83  2  0
 87 86  1  0
 89 87  1  0
 89 90  1  0
 89 88  1  0
 91 94  1  1
 91 92  1  0
 93 91  1  0
M  ISO  4  13 100  21 100  53 101  54 101
M  END
>  <TORSDO>  (59) 
F 21

>  <SCORE>  (59) 
-13.779

>  <name>  (59) 
58

>  <ligand_id>  (59) 
58

>  <original_smiles>  (59) 
[H]c1c([H])c([H])c2c(c1[H])C([H])([H])C([H])([H])C([H])([H])C2([H])N([H])C(=O)C1([H])N(C(=O)C([H])(N([H])C(=O)C([H])(N([H])C([H])([H])[H])C([H])([H])[H])C(C([H])([H])[H])(C([H])([H])[H])C([H])([H])[H])C([H])([H])c2c([H])c(OC([H])([H])C([H])([H])C([H])([H])C(=O)N([H])c3c([H])c([H])c(C([H])([H])N([H])C(=O)N4C([H])([H])C([H])([H])C([H])([H])C([H])(n5nc(-c6c([H])c([H])c(Oc7c([H])c([H])c(F)c([H])c7F)c([H])c6[H])c(C(=O)N([H])[H])c5N([H])[H])C4([H])[H])c(F)c3[H])c([H])c([H])c2C1([H])[H]

>  <smiles>  (59) 
[H]c1c([H])c([H])c2c(c1[H])C([H])([H])C([H])([H])C([H])([H])C2([H])N([H])C(=O)C1([H])N(C(=O)C([H])(N([H])C(=O)C([H])(N([H])C([H])([H])[H])C([H])([H])[H])C(C([H])([H])[H])(C([H])([H])[H])C([H])([H])[H])C([H])([H])c2c([H])c(OC([H])([H])C([H])([H])C([H])([H])C(=O)N([H])c3c([H])c([H])c(C([H])([H])N([H])C(=O)N4C([H])([H])C([H])([H])C([H])([H])C([H])(n5nc(-c6c([H])c([H])c(Oc7c([H])c([H])c(F)c([H])c7F)c([H])c6[H])c(C(=O)N([H])[H])c5N([H])[H])C4([H])[H])c(F)c3[H])c([H])c([H])c2C1([H])[H]

$$$$
59:0:0
     RDKit          3D

 92100  0  0  1  0  0  0  0  0999 V2000
  -29.1830  -21.7000   19.7830 C   0  0  0  0  0  2  0  0  0  0  0  0
  -28.6170  -22.8680   20.6420 C   0  0  0  0  0  2  0  0  0  0  0  0
  -28.7780  -24.2900   20.0460 C   0  0  0  0  0  0  0  0  0  0  0  0
  -29.3770  -24.4810   18.9820 O   0  0  0  0  0  0  0  0  0  0  0  0
  -28.1570  -25.4630   20.8420 C   0  0  0  0  0  2  0  0  0  0  0  0
  -28.3150  -26.7500   20.1960 O   0  0  0  0  0  0  0  0  0  0  0  0
  -24.5090  -31.9710   23.2370 C   0  0  0  0  0  0  0  0  0  0  0  0
  -27.1660  -27.5160   20.1800 C   0  0  0  0  0  0  0  0  0  0  0  0
  -23.3090  -30.5600   21.5980 C   0  0  0  0  0  3  0  0  0  0  0  0
  -24.7700  -29.0230   20.1770 C   0  0  0  0  0  0  0  0  0  0  0  0
  -25.8350  -30.9260   21.3990 C   0  0  0  0  0  2  0  0  0  0  0  0
  -25.9280  -29.5530   20.7620 C   0  0  0  0  0  0  0  0  0  0  0  0
  -27.1330  -28.8090   20.7550 C   0  0  0  0  0  3  0  0  0  0  0  0
  -25.9940  -27.0060   19.5830 C   0  0  0  0  0  3  0  0  0  0  0  0
  -24.7990  -27.7500   19.5820 C   0  0  0  0  0  3  0  0  0  0  0  0
  -23.5220  -29.8760   20.2210 C   0  0  0  0  0  2  0  0  0  0  0  0
  -24.5700  -31.1680   22.1370 N   0  0  0  0  0  0  0  0  0  0  0  0
  -23.4260  -32.2400   23.7750 O   0  0  0  0  0  0  0  0  0  0  0  0
  -22.6610  -29.5400   22.5620 C   0  0  0  0  0  0  0  0  0  0  0  0
  -21.3370  -29.3510   22.4330 N   0  0  0  0  0  0  0  0  0  0  0  0
  -23.3450  -28.9210   23.3810 O   0  0  0  0  0  0  0  0  0  0  0  0
  -20.8450  -29.9030   21.7430 H   0  0  0  0  0  0  0  0  0  0  0  0
  -17.9650  -28.1540   22.9400 C   0  0  0  0  0  0  0  0  0  0  0  0
  -20.5230  -28.4110   23.2050 C   0  0  0  0  0  3  0  0  0  0  0  0
  -20.6240  -26.9820   22.6260 C   0  0  0  0  0  2  0  0  0  0  0  0
  -19.5190  -26.6600   21.6150 C   0  0  0  0  0  2  0  0  0  0  0  0
  -18.1400  -26.8050   22.2630 C   0  0  0  0  0  2  0  0  0  0  0  0
  -19.0850  -28.9150   23.3690 C   0  0  0  0  0  0  0  0  0  0  0  0
  -18.8690  -30.1780   23.9610 C   0  0  0  0  0  3  0  0  0  0  0  0
  -17.5640  -30.6800   24.1310 C   0  0  0  0  0  3  0  0  0  0  0  0
  -16.4590  -29.9150   23.7190 C   0  0  0  0  0  3  0  0  0  0  0  0
  -16.6600  -28.6550   23.1300 C   0  0  0  0  0  3  0  0  0  0  0  0
  -25.7920  -32.6080   23.8550 C   0  0  0  0  0  3  0  0  0  0  0  0
  -25.4800  -34.0070   24.1780 N   0  0  0  0  0  0  0  0  0  0  0  0
  -25.8190  -35.0570   23.4180 C   0  0  0  0  0  0  0  0  0  0  0  0
  -26.4990  -34.9500   22.3930 O   0  0  0  0  0  0  0  0  0  0  0  0
  -24.8780  -34.1650   24.9720 H   0  0  0  0  0  0  0  0  0  0  0  0
  -24.1020  -36.8530   23.0270 C   0  0  0  0  0  1  0  0  0  0  0  0
  -25.3260  -36.4470   23.8640 C   0  0  0  0  0  3  0  0  0  0  0  0
  -27.4430  -37.3290   24.7400 C   0  0  0  0  0  1  0  0  0  0  0  0
  -26.3630  -37.4970   23.7720 N   0  0  0  0  0  0  0  0  0  0  0  0
  -25.9550  -38.4180   23.9070 H   0  0  0  0  0  0  0  0  0  0  0  0
  -26.3140  -31.8440   25.1340 C   0  0  1  0  0  0  0  0  0  0  0  0
  -25.2190  -31.5970   26.1990 C   0  0  0  0  0  1  0  0  0  0  0  0
  -26.9100  -30.4720   24.7430 C   0  0  0  0  0  1  0  0  0  0  0  0
  -27.4550  -32.6500   25.7970 C   0  0  0  0  0  1  0  0  0  0  0  0
  -28.8410  -20.3980   20.3130 O   0  0  0  0  0  0  0  0  0  0  0  0
  -31.7600  -17.4170   21.0290 C   0  0  0  0  0  3  0  0  0  0  0  0
  -31.1560  -19.7840   20.8880 C   0  0  0  0  0  3  0  0  0  0  0  0
  -29.4790  -18.0680   20.4840 C   0  0  0  0  0  3  0  0  0  0  0  0
  -32.1160  -18.7780   21.1280 C   0  0  0  0  0  0  0  0  0  0  0  0
  -30.4390  -17.0390   20.6970 C   0  0  0  0  0  0  0  0  0  0  0  0
  -29.8260  -19.4460   20.5460 C   0  0  0  0  0  0  0  0  0  0  0  0
  -33.5310  -19.1610   21.5120 C   0  0  0  0  0  1  0  0  0  0  0  0
  -30.7830  -14.6110   20.1660 C   0  0  0  0  0  0  0  0  0  0  0  0
  -30.4670  -12.4270   19.0570 C   0  0  0  0  0  2  0  0  0  0  0  0
  -29.4780  -12.6030   17.8860 C   0  0  0  0  0  2  0  0  0  0  0  0
  -28.0230  -12.4540   18.3740 C   0  0  0  0  0  2  0  0  0  0  0  0
  -27.7230  -13.3040   19.6380 C   0  0  0  0  0  3  0  0  0  0  0  0
  -28.8230  -13.1150   20.7090 C   0  0  0  0  0  2  0  0  0  0  0  0
  -30.1180  -13.4250   20.0820 N   0  0  0  0  0  0  0  0  0  0  0  0
  -31.9090  -14.7670   19.6870 O   0  0  0  0  0  0  0  0  0  0  0  0
  -30.0560  -15.6560   20.6320 N   0  0  0  0  0  0  0  0  0  0  0  0
  -29.0960  -15.4420   20.8510 H   0  0  0  0  0  0  0  0  0  0  0  0
  -25.3610  -13.9020   20.4630 C   0  0  0  0  0  0  0  0  0  0  0  0
  -24.3080  -13.1250   20.8630 C   0  0  0  0  0  0  0  0  0  0  0  0
  -24.7630  -11.7730   20.7840 C   0  0  0  0  0  0  0  0  0  0  0  0
  -26.3920  -13.0230   20.1700 N   0  0  0  0  0  0  0  0  0  0  0  0
  -26.0380  -11.7360   20.4210 N   0  0  0  0  0  0  0  0  0  0  0  0
  -24.0410  -10.5090   20.9790 C   0  0  0  0  0  0  0  0  0  0  0  0
  -24.4820   -9.5420   21.9080 C   0  0  0  0  0  3  0  0  0  0  0  0
  -23.7610   -8.3420   22.0890 C   0  0  0  0  0  3  0  0  0  0  0  0
  -22.5830   -8.1020   21.3420 C   0  0  0  0  0  0  0  0  0  0  0  0
  -22.1620   -9.0580   20.4020 C   0  0  0  0  0  3  0  0  0  0  0  0
  -22.8830  -10.2480   20.2180 C   0  0  0  0  0  3  0  0  0  0  0  0
  -21.8330   -6.9550   21.4340 O   0  0  0  0  0  0  0  0  0  0  0  0
  -21.7640   -6.2300   22.5970 C   0  0  0  0  0  0  0  0  0  0  0  0
  -21.2790   -6.7930   23.7970 C   0  0  0  0  0  3  0  0  0  0  0  0
  -21.1610   -5.9930   24.9520 C   0  0  0  0  0  3  0  0  0  0  0  0
  -21.5160   -4.6320   24.9050 C   0  0  0  0  0  0  0  0  0  0  0  0
  -21.9940   -4.0690   23.7090 C   0  0  0  0  0  3  0  0  0  0  0  0
  -22.1150   -4.8650   22.5570 C   0  0  0  0  0  0  0  0  0  0  0  0
  -22.5560   -4.3130   21.4020 F   0  0  0  0  0  0  0  0  0  0  0  0
  -21.3960   -3.8610   26.0120 F   0  0  0  0  0  0  0  0  0  0  0  0
  -22.9250  -13.6000   21.2040 C   0  0  0  0  0  0  0  0  0  0  0  0
  -22.2300  -12.8840   22.0820 N   0  0  0  0  0  0  0  0  0  0  0  0
  -22.4700  -14.6390   20.7270 O   0  0  0  0  0  0  0  0  0  0  0  0
  -22.6120  -12.0430   22.4880 H   0  0  0  0  0  0  0  0  0  0  0  0
  -21.3040  -13.1840   22.3530 H   0  0  0  0  0  0  0  0  0  0  0  0
  -25.5220  -15.2750   20.3040 N   0  0  0  0  0  0  0  0  0  0  0  0
  -24.7590  -15.9260   20.4510 H   0  0  0  0  0  0  0  0  0  0  0  0
  -26.3480  -15.7160   19.9190 H   0  0  0  0  0  0  0  0  0  0  0  0
  1 47  1  0
  1  2  1  0
  3  2  1  0
  3  5  1  0
  4  3  2  0
  6  5  1  0
  7 18  2  0
  8  6  1  0
  8 13  1  0
  9 17  1  0
  9 19  1  0
 10 16  1  0
 10 12  1  0
 11 17  1  0
 12 11  1  0
 13 12  2  0
 14  8  2  0
 15 14  1  0
 15 10  2  0
 16  9  1  0
 17  7  1  0
 19 21  2  0
 20 19  1  0
 22 20  1  0
 23 32  2  0
 23 28  1  0
 24 20  1  0
 24 28  1  0
 25 24  1  0
 26 27  1  0
 26 25  1  0
 27 23  1  0
 28 29  2  0
 29 30  1  0
 31 30  2  0
 32 31  1  0
 33  7  1  0
 33 34  1  0
 33 43  1  0
 34 37  1  0
 35 39  1  0
 35 34  1  0
 36 35  2  0
 39 38  1  0
 41 39  1  0
 41 42  1  0
 41 40  1  0
 43 46  1  1
 43 44  1  0
 45 43  1  0
 47 53  1  0
 48 51  1  0
 49 51  2  0
 50 53  2  0
 50 52  1  0
 51 54  1  0
 52 48  2  0
 53 49  1  0
 55 63  1  0
 56 61  1  0
 57 58  1  0
 57 56  1  0
 59 58  1  0
 59 68  1  0
 59 60  1  0
 61 55  1  0
 61 60  1  0
 62 55  2  0
 63 52  1  0
 63 64  1  0
 65 66  2  0
 66 85  1  0
 67 66  1  0
 67 70  1  0
 68 69  1  0
 68 65  1  0
 69 67  2  0
 70 71  1  0
 71 72  2  0
 73 76  1  0
 73 72  1  0
 74 73  2  0
 75 74  1  0
 75 70  2  0
 76 77  1  0
 77 78  1  0
 78 79  2  0
 80 79  1  0
 80 84  1  0
 81 80  2  0
 82 77  2  0
 82 81  1  0
 83 82  1  0
 85 86  1  0
 86 89  1  0
 86 88  1  0
 87 85  2  0
 90 91  1  0
 90 65  1  0
 92 90  1  0
M  ISO  4   5 101   6 101  55 100  63 100
M  END
>  <TORSDO>  (60) 
F 21

>  <SCORE>  (60) 
-13.559

>  <name>  (60) 
59

>  <ligand_id>  (60) 
59

>  <original_smiles>  (60) 
[H]c1c([H])c([H])c2c(c1[H])C([H])([H])C([H])([H])C([H])([H])C2([H])N([H])C(=O)C1([H])N(C(=O)C([H])(N([H])C(=O)C([H])(N([H])C([H])([H])[H])C([H])([H])[H])C(C([H])([H])[H])(C([H])([H])[H])C([H])([H])[H])C([H])([H])c2c([H])c(OC([H])([H])C(=O)C([H])([H])C([H])([H])Oc3c([H])c(N([H])C(=O)N4C([H])([H])C([H])([H])C([H])([H])C([H])(n5nc(-c6c([H])c([H])c(Oc7c([H])c([H])c(F)c([H])c7F)c([H])c6[H])c(C(=O)N([H])[H])c5N([H])[H])C4([H])[H])c([H])c(C([H])([H])[H])c3[H])c([H])c([H])c2C1([H])[H]

>  <smiles>  (60) 
[H]c1c([H])c([H])c2c(c1[H])C([H])([H])C([H])([H])C([H])([H])C2([H])N([H])C(=O)C1([H])N(C(=O)C([H])(N([H])C(=O)C([H])(N([H])C([H])([H])[H])C([H])([H])[H])C(C([H])([H])[H])(C([H])([H])[H])C([H])([H])[H])C([H])([H])c2c([H])c(OC([H])([H])C(=O)C([H])([H])C([H])([H])Oc3c([H])c(N([H])C(=O)N4C([H])([H])C([H])([H])C([H])([H])C([H])(n5nc(-c6c([H])c([H])c(Oc7c([H])c([H])c(F)c([H])c7F)c([H])c6[H])c(C(=O)N([H])[H])c5N([H])[H])C4([H])[H])c([H])c(C([H])([H])[H])c3[H])c([H])c([H])c2C1([H])[H]

$$$$
60:0:0
     RDKit          3D

 91100  0  0  1  0  0  0  0  0999 V2000
  -28.6450  -21.9420   20.7160 N   0  0  0  0  0  0  0  0  0  0  0  0
  -28.2320  -22.0530   21.6470 H   0  0  0  0  0  0  0  0  0  0  0  0
  -30.6220  -15.0710   20.0940 C   0  0  0  0  0  0  0  0  0  0  0  0
  -30.4660  -12.7440   19.1030 C   0  0  0  0  0  2  0  0  0  0  0  0
  -29.4780  -12.7200   17.9140 C   0  0  0  0  0  2  0  0  0  0  0  0
  -28.0370  -12.4870   18.4070 C   0  0  0  0  0  2  0  0  0  0  0  0
  -27.6850  -13.3940   19.6170 C   0  0  0  0  0  3  0  0  0  0  0  0
  -28.7900  -13.3870   20.6930 C   0  0  0  0  0  2  0  0  0  0  0  0
  -30.0280  -13.8130   20.0380 N   0  0  0  0  0  0  0  0  0  0  0  0
  -31.7910  -15.1520   19.7050 O   0  0  0  0  0  0  0  0  0  0  0  0
  -29.7010  -19.7080   21.3980 C   0  0  0  0  0  3  0  0  0  0  0  0
  -28.5940  -19.7490   19.2450 C   0  0  0  0  0  3  0  0  0  0  0  0
  -29.9200  -18.3010   21.1710 C   0  0  0  0  0  0  0  0  0  0  0  0
  -28.7870  -18.3020   19.0490 C   0  0  0  0  0  0  0  0  0  0  0  0
  -29.4980  -17.5450   20.0320 C   0  0  0  0  0  0  0  0  0  0  0  0
  -29.0110  -20.5240   20.4140 C   0  0  0  0  0  0  0  0  0  0  0  0
  -30.4400  -16.9980   21.7890 C   0  0  0  0  0  2  0  0  0  0  0  0
  -28.1580  -17.6040   17.8630 C   0  0  0  0  0  1  0  0  0  0  0  0
  -29.9250  -16.2070   20.5860 N   0  0  0  0  0  0  0  0  0  0  0  0
  -25.3440  -13.9360   20.4940 C   0  0  0  0  0  0  0  0  0  0  0  0
  -24.3070  -13.1460   20.8880 C   0  0  0  0  0  0  0  0  0  0  0  0
  -24.7700  -11.7980   20.7900 C   0  0  0  0  0  0  0  0  0  0  0  0
  -26.3770  -13.0730   20.1750 N   0  0  0  0  0  0  0  0  0  0  0  0
  -26.0450  -11.7790   20.4260 N   0  0  0  0  0  0  0  0  0  0  0  0
  -24.0560  -10.5280   20.9760 C   0  0  0  0  0  0  0  0  0  0  0  0
  -24.5040   -9.5580   21.8990 C   0  0  0  0  0  3  0  0  0  0  0  0
  -23.7870   -8.3540   22.0740 C   0  0  0  0  0  3  0  0  0  0  0  0
  -22.6090   -8.1110   21.3260 C   0  0  0  0  0  0  0  0  0  0  0  0
  -22.1830   -9.0740   20.3970 C   0  0  0  0  0  3  0  0  0  0  0  0
  -22.8980  -10.2680   20.2180 C   0  0  0  0  0  3  0  0  0  0  0  0
  -21.8630   -6.9600   21.4110 O   0  0  0  0  0  0  0  0  0  0  0  0
  -21.7910   -6.2340   22.5730 C   0  0  0  0  0  0  0  0  0  0  0  0
  -21.2980   -6.7940   23.7710 C   0  0  0  0  0  3  0  0  0  0  0  0
  -21.1770   -5.9950   24.9230 C   0  0  0  0  0  3  0  0  0  0  0  0
  -21.5310   -4.6320   24.8790 C   0  0  0  0  0  0  0  0  0  0  0  0
  -22.0170   -4.0720   23.6840 C   0  0  0  0  0  3  0  0  0  0  0  0
  -22.1400   -4.8690   22.5330 C   0  0  0  0  0  0  0  0  0  0  0  0
  -22.5870   -4.3170   21.3770 F   0  0  0  0  0  0  0  0  0  0  0  0
  -21.4070   -3.8600   25.9820 F   0  0  0  0  0  0  0  0  0  0  0  0
  -22.9220  -13.6080   21.2420 C   0  0  0  0  0  0  0  0  0  0  0  0
  -22.2400  -12.8840   22.1190 N   0  0  0  0  0  0  0  0  0  0  0  0
  -22.4590  -14.6480   20.7750 O   0  0  0  0  0  0  0  0  0  0  0  0
  -22.6250  -12.0400   22.5150 H   0  0  0  0  0  0  0  0  0  0  0  0
  -21.3160  -13.1830   22.3960 H   0  0  0  0  0  0  0  0  0  0  0  0
  -25.4980  -15.3120   20.3550 N   0  0  0  0  0  0  0  0  0  0  0  0
  -24.7490  -15.9700   20.5430 H   0  0  0  0  0  0  0  0  0  0  0  0
  -26.3560  -15.7570   20.0630 H   0  0  0  0  0  0  0  0  0  0  0  0
  -28.6340  -23.2980   19.9340 C   0  0  0  0  0  2  0  0  0  0  0  0
  -26.5320  -24.3720   20.9660 C   0  0  0  0  0  1  0  0  0  0  0  0
  -28.0210  -24.6980   20.6720 C   0  0  0  0  0  3  0  0  0  0  0  0
  -28.2650  -26.2050   20.2720 O   0  0  0  0  0  0  0  0  0  0  0  0
  -24.6450  -31.9460   23.2550 C   0  0  0  0  0  0  0  0  0  0  0  0
  -27.2450  -27.2270   20.2310 C   0  0  0  0  0  0  0  0  0  0  0  0
  -23.4740  -30.5370   21.6100 C   0  0  0  0  0  3  0  0  0  0  0  0
  -24.9410  -28.9900   20.1810 C   0  0  0  0  0  0  0  0  0  0  0  0
  -26.0310  -30.8110   21.4760 C   0  0  0  0  0  2  0  0  0  0  0  0
  -26.1100  -29.4220   20.8140 C   0  0  0  0  0  0  0  0  0  0  0  0
  -27.2670  -28.5560   20.8310 C   0  0  0  0  0  3  0  0  0  0  0  0
  -26.0720  -26.9390   19.5050 C   0  0  0  0  0  3  0  0  0  0  0  0
  -24.9300  -27.7590   19.5110 C   0  0  0  0  0  3  0  0  0  0  0  0
  -23.7110  -29.8790   20.2270 C   0  0  0  0  0  2  0  0  0  0  0  0
  -24.7370  -31.1190   22.1680 N   0  0  0  0  0  0  0  0  0  0  0  0
  -23.5510  -32.2250   23.7670 O   0  0  0  0  0  0  0  0  0  0  0  0
  -22.7950  -29.5180   22.5600 C   0  0  0  0  0  0  0  0  0  0  0  0
  -21.4680  -29.3390   22.4320 N   0  0  0  0  0  0  0  0  0  0  0  0
  -23.4690  -28.8920   23.3810 O   0  0  0  0  0  0  0  0  0  0  0  0
  -20.9840  -29.8950   21.7390 H   0  0  0  0  0  0  0  0  0  0  0  0
  -18.0920  -28.1350   22.9320 C   0  0  0  0  0  0  0  0  0  0  0  0
  -20.6540  -28.3930   23.1930 C   0  0  0  0  0  3  0  0  0  0  0  0
  -20.7600  -26.9670   22.6060 C   0  0  0  0  0  2  0  0  0  0  0  0
  -19.6490  -26.6500   21.5950 C   0  0  0  0  0  2  0  0  0  0  0  0
  -18.2680  -26.7850   22.2490 C   0  0  0  0  0  2  0  0  0  0  0  0
  -19.2110  -28.8950   23.3630 C   0  0  0  0  0  0  0  0  0  0  0  0
  -18.9930  -30.1510   23.9700 C   0  0  0  0  0  3  0  0  0  0  0  0
  -17.6840  -30.6480   24.1440 C   0  0  0  0  0  3  0  0  0  0  0  0
  -16.5820  -29.8850   23.7280 C   0  0  0  0  0  3  0  0  0  0  0  0
  -16.7840  -28.6320   23.1250 C   0  0  0  0  0  3  0  0  0  0  0  0
  -25.9120  -32.5940   23.8900 C   0  0  0  0  0  3  0  0  0  0  0  0
  -25.5850  -33.9940   24.2100 N   0  0  0  0  0  0  0  0  0  0  0  0
  -25.9140  -35.0430   23.4470 C   0  0  0  0  0  0  0  0  0  0  0  0
  -26.5880  -34.9400   22.4200 O   0  0  0  0  0  0  0  0  0  0  0  0
  -24.9830  -34.1490   25.0030 H   0  0  0  0  0  0  0  0  0  0  0  0
  -24.1780  -36.8270   23.0760 C   0  0  0  0  0  1  0  0  0  0  0  0
  -25.4170  -36.4310   23.8970 C   0  0  0  0  0  3  0  0  0  0  0  0
  -27.5390  -37.3380   24.7390 C   0  0  0  0  0  1  0  0  0  0  0  0
  -26.4430  -37.4920   23.7850 N   0  0  0  0  0  0  0  0  0  0  0  0
  -26.0280  -38.4110   23.9230 H   0  0  0  0  0  0  0  0  0  0  0  0
  -26.4100  -31.8390   25.1840 C   0  0  1  0  0  0  0  0  0  0  0  0
  -25.2980  -31.5960   26.2310 C   0  0  0  0  0  1  0  0  0  0  0  0
  -27.0190  -30.4650   24.8240 C   0  0  0  0  0  1  0  0  0  0  0  0
  -27.5350  -32.6550   25.8650 C   0  0  0  0  0  1  0  0  0  0  0  0
  1  2  1  0
  3 19  1  0
  4  9  1  0
  5  6  1  0
  5  4  1  0
  7  6  1  0
  7 23  1  0
  7  8  1  0
  9  3  1  0
  9  8  1  0
 10  3  2  0
 12 16  1  0
 13 11  1  0
 13 17  1  0
 14 12  2  0
 14 15  1  0
 15 19  1  0
 15 13  2  0
 16  1  1  0
 16 11  2  0
 18 14  1  0
 19 17  1  0
 20 21  2  0
 21 40  1  0
 22 21  1  0
 22 25  1  0
 23 24  1  0
 23 20  1  0
 24 22  2  0
 25 26  1  0
 26 27  2  0
 28 31  1  0
 28 27  1  0
 29 28  2  0
 30 29  1  0
 30 25  2  0
 31 32  1  0
 32 33  1  0
 33 34  2  0
 35 34  1  0
 35 39  1  0
 36 35  2  0
 37 32  2  0
 37 36  1  0
 38 37  1  0
 40 41  1  0
 41 44  1  0
 41 43  1  0
 42 40  2  0
 45 20  1  0
 45 46  1  0
 47 45  1  0
 48 50  1  0
 48  1  1  0
 50 49  1  0
 51 50  1  0
 52 63  2  0
 53 51  1  0
 53 58  1  0
 54 62  1  0
 54 64  1  0
 55 61  1  0
 55 57  1  0
 56 62  1  0
 57 58  2  0
 57 56  1  0
 59 60  1  0
 59 53  2  0
 60 55  2  0
 61 54  1  0
 62 52  1  0
 64 66  2  0
 65 64  1  0
 67 65  1  0
 68 77  2  0
 68 73  1  0
 69 65  1  0
 69 73  1  0
 70 69  1  0
 71 72  1  0
 71 70  1  0
 72 68  1  0
 73 74  2  0
 74 75  1  0
 76 75  2  0
 77 76  1  0
 78 52  1  0
 78 79  1  0
 78 88  1  0
 79 82  1  0
 80 84  1  0
 80 79  1  0
 81 80  2  0
 84 83  1  0
 86 84  1  0
 86 87  1  0
 86 85  1  0
 88 91  1  1
 88 89  1  0
 90 88  1  0
M  ISO  4   3 100  19 100  50 101  51 101
M  END
>  <TORSDO>  (61) 
F 18

>  <SCORE>  (61) 
-15.129

>  <name>  (61) 
60

>  <ligand_id>  (61) 
60

>  <original_smiles>  (61) 
[H]c1c([H])c([H])c2c(c1[H])C([H])([H])C([H])([H])C([H])([H])C2([H])N([H])C(=O)C1([H])N(C(=O)C([H])(N([H])C(=O)C([H])(N([H])C([H])([H])[H])C([H])([H])[H])C(C([H])([H])[H])(C([H])([H])[H])C([H])([H])[H])C([H])([H])c2c([H])c(OC([H])(C([H])([H])[H])C([H])([H])N([H])c3c([H])c(C([H])([H])[H])c4c(c3[H])C([H])([H])N4C(=O)N3C([H])([H])C([H])([H])C([H])([H])C([H])(n4nc(-c5c([H])c([H])c(Oc6c([H])c([H])c(F)c([H])c6F)c([H])c5[H])c(C(=O)N([H])[H])c4N([H])[H])C3([H])[H])c([H])c([H])c2C1([H])[H]

>  <smiles>  (61) 
[H]c1c([H])c([H])c2c(c1[H])C([H])([H])C([H])([H])C([H])([H])C2([H])N([H])C(=O)C1([H])N(C(=O)C([H])(N([H])C(=O)C([H])(N([H])C([H])([H])[H])C([H])([H])[H])C(C([H])([H])[H])(C([H])([H])[H])C([H])([H])[H])C([H])([H])c2c([H])c(OC([H])(C([H])([H])[H])C([H])([H])N([H])c3c([H])c(C([H])([H])[H])c4c(c3[H])C([H])([H])N4C(=O)N3C([H])([H])C([H])([H])C([H])([H])C([H])(n4nc(-c5c([H])c([H])c(Oc6c([H])c([H])c(F)c([H])c6F)c([H])c5[H])c(C(=O)N([H])[H])c4N([H])[H])C3([H])[H])c([H])c([H])c2C1([H])[H]

$$$$
61:0:0
     RDKit          3D

 95 99  0  0  1  0  0  0  0  0999 V2000
  -26.8140  -13.0120   20.1210 C   0  0  2  0  0  0  0  0  0  0  0  0
  -26.2080  -14.3690   18.1900 C   0  0  0  0  0  1  0  0  0  0  0  0
  -26.2190  -16.5710   18.5390 C   0  0  0  0  0 15  0  0  0  0  0  0
  -26.9010  -16.4410   21.2170 C   0  0  0  0  0 15  0  0  0  0  0  0
  -26.6570  -18.1710   19.8890 C   0  0  0  0  0 15  0  0  0  0  0  0
  -27.0290  -14.3490   21.4680 N   0  0  0  0  0  2  0  0  0  0  0  0
  -26.8920  -11.7640   20.1450 O   0  0  0  0  0  1  0  0  0  0  0  0
  -27.7090  -14.3800   22.7320 C   0  0  0  0  0  2  0  0  0  0  0  0
  -29.2030  -12.1100   20.4090 C   0  0  0  0  0  0  0  0  0  0  0  0
  -28.8550  -12.6070   21.8370 C   0  0  0  0  0  3  0  0  0  0  0  0
  -30.0500  -13.2520   19.0840 C   0  0  0  0  0  0  0  0  0  0  0  0
  -29.5980  -15.1690   20.9010 C   0  0  0  0  0  3  0  0  0  0  0  0
  -28.8850  -14.1420   21.9220 C   0  0  0  0  0  0  0  0  0  0  0  0
  -30.2700  -14.7540   19.5220 C   0  0  0  0  0  0  0  0  0  0  0  0
  -31.6930  -15.2090   19.1430 C   0  0  0  0  0  2  0  0  0  0  0  0
  -32.5710  -12.8850   19.2010 C   0  0  0  0  0  0  0  0  0  0  0  0
  -31.1180  -10.8400   18.5470 C   0  0  0  0  0  2  0  0  0  0  0  0
  -29.7270  -11.0680   17.3930 C   0  0  0  0  0  2  0  0  0  0  0  0
  -28.3040  -12.1420   17.5610 C   0  0  0  0  0  1  0  0  0  0  0  0
  -28.0050  -13.7500   19.0990 C   0  0  0  0  0  1  0  0  0  0  0  0
  -30.9050  -12.8610   20.7170 C   0  0  0  0  0  3  0  0  0  0  0  0
  -31.7470  -11.9120   19.7310 N   0  0  0  0  0  0  0  0  0  0  0  0
  -32.8290  -12.8090   18.0340 O   0  0  0  0  0  0  0  0  0  0  0  0
  -32.6710  -14.1800   19.6590 N   0  0  0  0  0  0  0  0  0  0  0  0
  -32.7150  -14.2280   20.6650 H   0  0  0  0  0  0  0  0  0  0  0  0
  -24.4840  -13.8740   20.6990 C   0  0  0  0  0  3  0  0  0  0  0  0
  -23.9110  -12.7130   21.2440 C   0  0  1  0  0  0  0  0  0  0  0  0
  -24.1630  -11.5340   20.5560 C   0  0  0  0  0  3  0  0  0  0  0  0
  -25.2540  -13.8470   19.6470 N   0  0  2  0  0  4  0  0  0  0  0  0
  -24.3150  -12.4590   19.4590 N   0  0  0  0  0  0  0  0  0  0  0  0
  -23.6890  -10.0020   20.8140 C   0  0  0  0  0  0  0  0  0  0  0  0
  -24.2480   -9.0090   21.7300 C   0  0  0  0  0  3  0  0  0  0  0  0
  -23.5970   -7.7650   22.1010 C   0  0  0  0  0  3  0  0  0  0  0  0
  -22.3080   -7.4450   21.5970 C   0  0  0  0  0  0  0  0  0  0  0  0
  -21.7780   -8.3660   20.6740 C   0  0  0  0  0  3  0  0  0  0  0  0
  -22.4380   -9.5720   20.3020 C   0  0  0  0  0  3  0  0  0  0  0  0
  -21.5430   -6.3030   21.8570 O   0  0  0  0  0  0  0  0  0  0  0  0
  -21.5840   -5.5320   23.0060 C   0  0  0  0  0  0  0  0  0  0  0  0
  -21.4310   -6.0820   24.2980 C   0  0  0  0  0  3  0  0  0  0  0  0
  -21.4250   -5.2440   25.4370 C   0  0  0  0  0  3  0  0  0  0  0  0
  -21.5480   -3.8490   25.2960 C   0  0  0  0  0  0  0  0  0  0  0  0
  -21.6680   -3.2900   24.0120 C   0  0  0  0  0  3  0  0  0  0  0  0
  -21.6740   -4.1220   22.8760 C   0  0  0  0  0  0  0  0  0  0  0  0
  -21.7560   -3.5540   21.6490 F   0  0  0  0  0  0  0  0  0  0  0  0
  -21.5600   -3.0470   26.3890 F   0  0  0  0  0  0  0  0  0  0  0  0
  -22.5320  -12.8630   21.6200 C   0  0  0  0  0  0  0  0  0  0  0  0
  -22.0850  -12.0350   22.5390 N   0  0  0  0  0  0  0  0  0  0  0  0
  -21.8740  -13.7130   21.0250 O   0  0  0  0  0  0  0  0  0  0  0  0
  -22.7050  -11.3560   22.9600 H   0  0  0  0  0  0  0  0  0  0  0  0
  -21.1290  -12.0890   22.8620 H   0  0  0  0  0  0  0  0  0  0  0  0
  -24.2250  -15.1690   20.6130 N   0  0  0  0  0  0  0  0  0  0  0  0
  -23.2050  -15.2310   20.5630 H   0  0  0  0  0  0  0  0  0  0  0  0
  -24.6900  -15.5400   19.7820 H   0  0  0  0  0  0  0  0  0  0  0  0
  -26.6910  -20.9220   19.8890 C   0  0  0  0  0 15  0  0  0  0  0  0
  -27.2230  -23.2870   19.9640 O   0  0  0  0  0 15  0  0  0  0  0  0
  -25.0570  -31.4210   22.8930 C   0  0  0  0  0  0  0  0  0  0  0  0
  -26.8020  -25.1480   19.9780 C   0  0  0  0  0  3  0  0  0  0  0  0
  -23.8480  -30.0350   21.2960 C   0  0  0  0  0  3  0  0  0  0  0  0
  -25.1300  -28.1210   19.8930 C   0  0  0  0  0  0  0  0  0  0  0  0
  -26.4160  -29.6740   21.2950 C   0  0  0  0  0  2  0  0  0  0  0  0
  -26.3110  -28.1180   20.6250 C   0  0  0  0  0  0  0  0  0  0  0  0
  -27.1080  -26.6980   20.6120 C   0  0  0  0  0  3  0  0  0  0  0  0
  -25.7500  -25.7080   19.1380 C   0  0  0  0  0  3  0  0  0  0  0  0
  -24.9750  -26.9570   19.1110 C   0  0  0  0  0  3  0  0  0  0  0  0
  -24.0830  -29.2930   19.9320 C   0  0  0  0  0  2  0  0  0  0  0  0
  -25.1620  -30.4480   21.8770 N   0  0  0  0  0  0  0  0  0  0  0  0
  -23.9540  -31.7940   23.3490 O   0  0  0  0  0  0  0  0  0  0  0  0
  -23.0510  -29.1470   22.2940 C   0  0  0  0  0  0  0  0  0  0  0  0
  -21.7080  -29.0690   22.1930 N   0  0  0  0  0  0  0  0  0  0  0  0
  -23.6700  -28.5180   23.1550 O   0  0  0  0  0  0  0  0  0  0  0  0
  -21.2450  -29.6290   21.4920 H   0  0  0  0  0  0  0  0  0  0  0  0
  -18.2930  -27.9330   22.7890 C   0  0  0  0  0  0  0  0  0  0  0  0
  -20.8650  -28.1570   22.9830 C   0  0  0  0  0  3  0  0  0  0  0  0
  -20.9210  -26.7230   22.4060 C   0  0  0  0  0  2  0  0  0  0  0  0
  -19.7940  -26.4320   21.4100 C   0  0  0  0  0  2  0  0  0  0  0  0
  -18.4300  -26.5920   22.0880 C   0  0  0  0  0  2  0  0  0  0  0  0
  -19.4350  -28.6760   23.1940 C   0  0  0  0  0  0  0  0  0  0  0  0
  -19.2480  -29.9260   23.8230 C   0  0  0  0  0  3  0  0  0  0  0  0
  -17.9550  -30.4360   24.0440 C   0  0  0  0  0  3  0  0  0  0  0  0
  -16.8290  -29.6930   23.6490 C   0  0  0  0  0  3  0  0  0  0  0  0
  -16.9990  -28.4430   23.0280 C   0  0  0  0  0  3  0  0  0  0  0  0
  -26.2800  -32.1380   23.5620 C   0  0  0  0  0  3  0  0  0  0  0  0
  -26.8170  -31.3700   24.8350 C   0  0  1  0  0  0  0  0  0  0  0  0
  -25.7380  -31.0940   25.9120 C   0  0  0  0  0  1  0  0  0  0  0  0
  -27.4310  -30.0140   24.4420 C   0  0  0  0  0  1  0  0  0  0  0  0
  -27.9530  -32.1800   25.5060 C   0  0  0  0  0  1  0  0  0  0  0  0
  -25.8980  -33.5160   23.9860 N   0  0  0  0  0  0  0  0  0  0  0  0
  -26.1830  -34.6610   23.3430 C   0  0  0  0  0  0  0  0  0  0  0  0
  -26.8250  -34.6760   22.2920 O   0  0  0  0  0  0  0  0  0  0  0  0
  -25.3220  -33.5760   24.8120 H   0  0  0  0  0  0  0  0  0  0  0  0
  -24.3910  -36.4460   23.2560 C   0  0  0  0  0  1  0  0  0  0  0  0
  -25.6900  -36.0010   23.9500 C   0  0  0  0  0  3  0  0  0  0  0  0
  -27.8420  -36.9070   24.7300 C   0  0  0  0  0  1  0  0  0  0  0  0
  -26.6800  -37.1000   23.8670 N   0  0  0  0  0  0  0  0  0  0  0  0
  -26.2520  -37.9900   24.1090 H   0  0  0  0  0  0  0  0  0  0  0  0
  1 20  1  6
  1  7  1  0
  1  6  1  0
 29  2  1  6
  6  8  1  0
  9 21  1  0
  9 10  1  0
 10 13  2  0
 11 14  1  0
 11  9  2  3
 12 13  1  0
 13  8  1  0
 14 12  2  0
 15 14  1  0
 15 24  1  0
 16 24  1  0
 16 22  1  0
 17 22  1  0
 18 19  1  0
 18 17  1  0
 21 11  1  0
 22 21  1  0
 23 16  2  0
 24 25  1  0
 26 51  1  0
 26 27  1  0
 27 46  1  1
 28 31  1  0
 28 27  1  0
 29  1  1  0
 29 26  1  0
 30 29  1  0
 30 28  1  0
 30 27  1  0
 31 32  1  0
 32 33  2  0
 34 37  1  0
 34 33  1  0
 35 34  2  0
 36 35  1  0
 36 31  2  0
 37 38  1  0
 38 39  1  0
 39 40  2  0
 41 40  1  0
 41 45  1  0
 42 41  2  0
 43 38  2  0
 43 42  1  0
 44 43  1  0
 46 47  1  0
 47 50  1  0
 47 49  1  0
 48 46  2  0
 52 51  1  0
 53 51  1  0
 56 67  2  0
 57 62  1  0
 58 66  1  0
 58 68  1  0
 59 65  1  0
 59 61  1  0
 60 66  1  0
 61 60  1  0
 62 61  2  0
 63 57  2  0
 64 63  1  0
 64 59  2  0
 65 58  1  0
 66 56  1  0
 68 70  2  0
 69 68  1  0
 71 69  1  0
 72 81  2  0
 72 77  1  0
 73 69  1  0
 73 77  1  0
 74 73  1  0
 75 76  1  0
 75 74  1  0
 76 72  1  0
 77 78  2  0
 78 79  1  0
 80 79  2  0
 81 80  1  0
 82 56  1  0
 82 87  1  0
 82 83  1  0
 83 86  1  1
 83 84  1  0
 85 83  1  0
 87 90  1  0
 88 92  1  0
 88 87  1  0
 89 88  2  0
 92 91  1  0
 94 92  1  0
 94 95  1  0
 94 93  1  0
M  ISO  4  16 100  24 100  54 101  55 101
M  END
>  <TORSDO>  (62) 
F 20

>  <SCORE>  (62) 
0.363

>  <name>  (62) 
61

>  <ligand_id>  (62) 
61

>  <original_smiles>  (62) 
[H]c1c([H])c(C([H])([H])N([H])C(=O)N2C([H])([H])C([H])([H])C([H])([H])C([H])(n3nc(-c4c([H])c([H])c(Oc5c([H])c([H])c(F)c([H])c5F)c([H])c4[H])c(C(=O)N([H])[H])c3N([H])[H])C2([H])[H])c([H])c(C([H])([H])N2C(=O)C([H])([H])C([H])([H])C([H])(C([H])([H])Oc3c([H])c([H])c4c(c3[H])C([H])([H])N(C(=O)C([H])(N([H])C(=O)C([H])(N([H])C([H])([H])[H])C([H])([H])[H])C(C([H])([H])[H])(C([H])([H])[H])C([H])([H])[H])C([H])(C(=O)N([H])C3([H])c5c([H])c([H])c([H])c([H])c5C([H])([H])C([H])([H])C3([H])[H])C4([H])[H])C2([H])[H])c1[H]

>  <smiles>  (62) 
[H]c1c([H])c(C([H])([H])N([H])C(=O)N2C([H])([H])C([H])([H])C([H])([H])C([H])(n3nc(-c4c([H])c([H])c(Oc5c([H])c([H])c(F)c([H])c5F)c([H])c4[H])c(C(=O)N([H])[H])c3N([H])[H])C2([H])[H])c([H])c(C([H])([H])N2C(=O)C([H])([H])C([H])([H])C([H])(C([H])([H])Oc3c([H])c([H])c4c(c3[H])C([H])([H])N(C(=O)C([H])(N([H])C(=O)C([H])(N([H])C([H])([H])[H])C([H])([H])[H])C(C([H])([H])[H])(C([H])([H])[H])C([H])([H])[H])C([H])(C(=O)N([H])C3([H])c5c([H])c([H])c([H])c([H])c5C([H])([H])C([H])([H])C3([H])[H])C4([H])[H])C2([H])[H])c1[H]

$$$$
62:0:0
     RDKit          3D

 92100  0  0  1  0  0  0  0  0999 V2000
  -30.4220  -20.4200   19.9750 C   0  0  0  0  0  3  0  0  0  0  0  0
  -30.5120  -21.8480   19.9660 C   0  0  0  0  0  3  0  0  0  0  0  0
  -28.0550  -20.6180   19.7080 C   0  0  0  0  0  3  0  0  0  0  0  0
  -29.1750  -19.7480   19.8810 C   0  0  0  0  0  0  0  0  0  0  0  0
  -29.3760  -22.7020   19.8490 C   0  0  0  0  0  0  0  0  0  0  0  0
  -28.1280  -22.0470   19.6870 C   0  0  0  0  0  0  0  0  0  0  0  0
  -28.9280  -18.2220   19.9800 C   0  0  0  0  0  0  0  0  0  0  0  0
  -27.7430  -17.8080   20.1810 N   0  0  0  0  0  0  0  0  0  0  0  0
  -27.0890  -18.5750   20.2590 H   0  0  0  0  0  0  0  0  0  0  0  0
  -30.0180  -17.1200   19.8640 C   0  0  0  0  0  3  0  0  0  0  0  0
  -29.8060  -15.8940   20.2710 N   0  0  0  0  0  0  0  0  0  0  0  0
  -30.7210  -14.8390   20.0660 C   0  0  0  0  0  0  0  0  0  0  0  0
  -30.6760  -12.4170   19.4830 C   0  0  0  0  0  2  0  0  0  0  0  0
  -29.7650  -12.2420   18.2470 C   0  0  0  0  0  2  0  0  0  0  0  0
  -28.2880  -12.0870   18.6650 C   0  0  0  0  0  2  0  0  0  0  0  0
  -27.8440  -13.1650   19.6900 C   0  0  0  0  0  3  0  0  0  0  0  0
  -28.8710  -13.2930   20.8350 C   0  0  0  0  0  2  0  0  0  0  0  0
  -30.1850  -13.5870   20.2360 N   0  0  0  0  0  0  0  0  0  0  0  0
  -31.8660  -14.9680   19.6280 O   0  0  0  0  0  0  0  0  0  0  0  0
  -25.4740  -13.8210   20.4440 C   0  0  0  0  0  0  0  0  0  0  0  0
  -24.3930  -13.0720   20.8240 C   0  0  0  0  0  0  0  0  0  0  0  0
  -24.8210  -11.7100   20.7810 C   0  0  0  0  0  0  0  0  0  0  0  0
  -26.4940  -12.9170   20.1910 N   0  0  0  0  0  0  0  0  0  0  0  0
  -26.1060  -11.6410   20.4510 N   0  0  0  0  0  0  0  0  0  0  0  0
  -24.0670  -10.4650   20.9760 C   0  0  0  0  0  0  0  0  0  0  0  0
  -24.4740   -9.4960   21.9200 C   0  0  0  0  0  3  0  0  0  0  0  0
  -23.7220   -8.3150   22.1020 C   0  0  0  0  0  3  0  0  0  0  0  0
  -22.5500   -8.0950   21.3400 C   0  0  0  0  0  0  0  0  0  0  0  0
  -22.1620   -9.0520   20.3850 C   0  0  0  0  0  3  0  0  0  0  0  0
  -22.9150  -10.2250   20.2020 C   0  0  0  0  0  3  0  0  0  0  0  0
  -21.7710   -6.9680   21.4310 O   0  0  0  0  0  0  0  0  0  0  0  0
  -21.6800   -6.2480   22.5960 C   0  0  0  0  0  0  0  0  0  0  0  0
  -21.2070   -6.8270   23.7940 C   0  0  0  0  0  3  0  0  0  0  0  0
  -21.0630   -6.0330   24.9500 C   0  0  0  0  0  3  0  0  0  0  0  0
  -21.3810   -4.6620   24.9080 C   0  0  0  0  0  0  0  0  0  0  0  0
  -21.8450   -4.0840   23.7140 C   0  0  0  0  0  3  0  0  0  0  0  0
  -21.9920   -4.8750   22.5610 C   0  0  0  0  0  0  0  0  0  0  0  0
  -22.4210   -4.3070   21.4070 F   0  0  0  0  0  0  0  0  0  0  0  0
  -21.2350   -3.8980   26.0150 F   0  0  0  0  0  0  0  0  0  0  0  0
  -23.0120  -13.5810   21.1230 C   0  0  0  0  0  0  0  0  0  0  0  0
  -22.2840  -12.9010   22.0020 N   0  0  0  0  0  0  0  0  0  0  0  0
  -22.5870  -14.6170   20.6110 O   0  0  0  0  0  0  0  0  0  0  0  0
  -22.6420  -12.0620   22.4370 H   0  0  0  0  0  0  0  0  0  0  0  0
  -21.3570  -13.2200   22.2430 H   0  0  0  0  0  0  0  0  0  0  0  0
  -25.6710  -15.1870   20.2780 N   0  0  0  0  0  0  0  0  0  0  0  0
  -24.9440  -15.8670   20.4670 H   0  0  0  0  0  0  0  0  0  0  0  0
  -26.5770  -15.6120   20.1140 H   0  0  0  0  0  0  0  0  0  0  0  0
  -25.8850  -22.3060   18.8430 C   0  0  0  0  0  1  0  0  0  0  0  0
  -27.0050  -22.8330   19.5450 O   0  0  0  0  0  0  0  0  0  0  0  0
  -29.5440  -24.2690   20.0040 C   0  0  0  0  0  3  0  0  0  0  0  0
  -28.4690  -25.2990   19.4520 C   0  0  0  0  0  3  0  0  0  0  0  0
  -28.6150  -26.7300   19.7970 O   0  0  0  0  0  0  0  0  0  0  0  0
  -24.6160  -31.7150   23.1450 C   0  0  0  0  0  0  0  0  0  0  0  0
  -27.4550  -27.5200   19.7960 C   0  0  0  0  0  0  0  0  0  0  0  0
  -23.4920  -30.4000   21.3810 C   0  0  0  0  0  3  0  0  0  0  0  0
  -25.0230  -29.0220   19.8710 C   0  0  0  0  0  0  0  0  0  0  0  0
  -26.0180  -30.8340   21.2680 C   0  0  0  0  0  2  0  0  0  0  0  0
  -26.1630  -29.5140   20.5200 C   0  0  0  0  0  0  0  0  0  0  0  0
  -27.3830  -28.7750   20.4720 C   0  0  0  0  0  3  0  0  0  0  0  0
  -26.2870  -27.0770   19.1320 C   0  0  0  0  0  3  0  0  0  0  0  0
  -25.0860  -27.8090   19.1710 C   0  0  0  0  0  3  0  0  0  0  0  0
  -23.7530  -29.8410   19.9590 C   0  0  0  0  0  2  0  0  0  0  0  0
  -24.7270  -30.9960   21.9900 N   0  0  0  0  0  0  0  0  0  0  0  0
  -23.5150  -31.9090   23.6780 O   0  0  0  0  0  0  0  0  0  0  0  0
  -22.8560  -29.2870   22.2490 C   0  0  0  0  0  0  0  0  0  0  0  0
  -21.5360  -29.0880   22.1030 N   0  0  0  0  0  0  0  0  0  0  0  0
  -23.5500  -28.6100   23.0130 O   0  0  0  0  0  0  0  0  0  0  0  0
  -21.0350  -29.6900   21.4640 H   0  0  0  0  0  0  0  0  0  0  0  0
  -18.1740  -27.8370   22.5640 C   0  0  0  0  0  0  0  0  0  0  0  0
  -20.7390  -28.0700   22.7900 C   0  0  0  0  0  3  0  0  0  0  0  0
  -20.8230  -26.7100   22.0590 C   0  0  0  0  0  2  0  0  0  0  0  0
  -19.6920  -26.4990   21.0470 C   0  0  0  0  0  2  0  0  0  0  0  0
  -18.3290  -26.5690   21.7410 C   0  0  0  0  0  2  0  0  0  0  0  0
  -19.3040  -28.5500   23.0440 C   0  0  0  0  0  0  0  0  0  0  0  0
  -19.1030  -29.7400   23.7760 C   0  0  0  0  0  3  0  0  0  0  0  0
  -17.8040  -30.2170   24.0310 C   0  0  0  0  0  3  0  0  0  0  0  0
  -16.6880  -29.5000   23.5670 C   0  0  0  0  0  3  0  0  0  0  0  0
  -16.8740  -28.3110   22.8400 C   0  0  0  0  0  3  0  0  0  0  0  0
  -25.8640  -32.3450   23.8360 C   0  0  0  0  0  3  0  0  0  0  0  0
  -25.5320  -33.7370   24.1670 N   0  0  0  0  0  0  0  0  0  0  0  0
  -25.8690  -34.7970   23.4210 C   0  0  0  0  0  0  0  0  0  0  0  0
  -26.5630  -34.7060   22.4040 O   0  0  0  0  0  0  0  0  0  0  0  0
  -24.9180  -33.8810   24.9560 H   0  0  0  0  0  0  0  0  0  0  0  0
  -24.1260  -36.5690   23.0400 C   0  0  0  0  0  1  0  0  0  0  0  0
  -25.3560  -36.1780   23.8730 C   0  0  0  0  0  3  0  0  0  0  0  0
  -27.4600  -37.0900   24.7530 C   0  0  0  0  0  1  0  0  0  0  0  0
  -26.3790  -37.2440   23.7830 N   0  0  0  0  0  0  0  0  0  0  0  0
  -25.9570  -38.1590   23.9200 H   0  0  0  0  0  0  0  0  0  0  0  0
  -26.3200  -31.5600   25.1270 C   0  0  1  0  0  0  0  0  0  0  0  0
  -25.1750  -31.3040   26.1340 C   0  0  0  0  0  1  0  0  0  0  0  0
  -26.9320  -30.1910   24.7480 C   0  0  0  0  0  1  0  0  0  0  0  0
  -27.4310  -32.3530   25.8550 C   0  0  0  0  0  1  0  0  0  0  0  0
  2  1  1  0
  3  4  1  0
  4  1  2  0
  4  7  1  0
  5  2  2  0
  5 50  1  0
  6  3  2  0
  6  5  1  0
  7  8  2  0
  8  9  1  0
 10  7  1  0
 10 11  2  0
 12 18  1  0
 12 11  1  0
 13 18  1  0
 14 15  1  0
 14 13  1  0
 16 15  1  0
 16 23  1  0
 16 17  1  0
 18 17  1  0
 19 12  2  0
 20 21  2  0
 21 40  1  0
 22 21  1  0
 22 25  1  0
 23 20  1  0
 23 24  1  0
 24 22  2  0
 25 26  1  0
 26 27  2  0
 28 31  1  0
 28 27  1  0
 29 28  2  0
 30 29  1  0
 30 25  2  0
 31 32  1  0
 32 33  1  0
 33 34  2  0
 35 34  1  0
 35 39  1  0
 36 35  2  0
 37 32  2  0
 37 36  1  0
 38 37  1  0
 40 41  1  0
 41 44  1  0
 41 43  1  0
 42 40  2  0
 45 20  1  0
 45 46  1  0
 47 45  1  0
 48 49  1  0
 49  6  1  0
 51 52  1  0
 51 50  2  0
 53 64  2  0
 54 52  1  0
 54 59  1  0
 55 63  1  0
 55 65  1  0
 56 62  1  0
 56 58  1  0
 57 63  1  0
 58 57  1  0
 59 58  2  0
 60 61  1  0
 60 54  2  0
 61 56  2  0
 62 55  1  0
 63 53  1  0
 65 67  2  0
 66 65  1  0
 68 66  1  0
 69 78  2  0
 69 74  1  0
 70 66  1  0
 70 74  1  0
 71 70  1  0
 72 73  1  0
 72 71  1  0
 73 69  1  0
 74 75  2  0
 75 76  1  0
 77 76  2  0
 78 77  1  0
 79 53  1  0
 79 80  1  0
 79 89  1  0
 80 83  1  0
 81 85  1  0
 81 80  1  0
 82 81  2  0
 85 84  1  0
 87 85  1  0
 87 88  1  0
 87 86  1  0
 89 92  1  1
 89 90  1  0
 91 89  1  0
M  ISO  4  11 100  12 100  51 101  52 101
M  END
>  <TORSDO>  (63) 
F 21

>  <SCORE>  (63) 
-13.199

>  <name>  (63) 
62

>  <ligand_id>  (63) 
62

>  <original_smiles>  (63) 
[H]N=C(C([H])=NC(=O)N1C([H])([H])C([H])([H])C([H])([H])C([H])(n2nc(-c3c([H])c([H])c(Oc4c([H])c([H])c(F)c([H])c4F)c([H])c3[H])c(C(=O)N([H])[H])c2N([H])[H])C1([H])[H])c1c([H])c([H])c(C([H])([H])C([H])([H])Oc2c([H])c([H])c3c(c2[H])C([H])([H])N(C(=O)C([H])(N([H])C(=O)C([H])(N([H])C([H])([H])[H])C([H])([H])[H])C(C([H])([H])[H])(C([H])([H])[H])C([H])([H])[H])C([H])(C(=O)N([H])C2([H])c4c([H])c([H])c([H])c([H])c4C([H])([H])C([H])([H])C2([H])[H])C3([H])[H])c(OC([H])([H])[H])c1[H]

>  <smiles>  (63) 
[H]N=C(C([H])=NC(=O)N1C([H])([H])C([H])([H])C([H])([H])C([H])(n2nc(-c3c([H])c([H])c(Oc4c([H])c([H])c(F)c([H])c4F)c([H])c3[H])c(C(=O)N([H])[H])c2N([H])[H])C1([H])[H])c1c([H])c([H])c(C([H])([H])C([H])([H])Oc2c([H])c([H])c3c(c2[H])C([H])([H])N(C(=O)C([H])(N([H])C(=O)C([H])(N([H])C([H])([H])[H])C([H])([H])[H])C(C([H])([H])[H])(C([H])([H])[H])C([H])([H])[H])C([H])(C(=O)N([H])C2([H])c4c([H])c([H])c([H])c([H])c4C([H])([H])C([H])([H])C2([H])[H])C3([H])[H])c(OC([H])([H])[H])c1[H]

$$$$
63:0:0
     RDKit          3D

 90 98  0  0  1  0  0  0  0  0999 V2000
  -29.6580  -20.0650   18.9440 C   0  0  0  0  0  3  0  0  0  0  0  0
  -29.3310  -21.5480   18.7870 C   0  0  0  0  0  3  0  0  0  0  0  0
  -29.0400  -20.1830   21.0790 C   0  0  0  0  0  3  0  0  0  0  0  0
  -29.5400  -19.1660   20.1180 C   0  0  0  0  0  0  0  0  0  0  0  0
  -28.8050  -22.5470   19.7560 C   0  0  0  0  0  0  0  0  0  0  0  0
  -28.7130  -21.6600   20.9410 C   0  0  0  0  0  0  0  0  0  0  0  0
  -29.5190  -17.3770   20.3680 C   0  0  0  0  0  0  0  0  0  0  0  0
  -28.3600  -17.0950   20.7880 N   0  0  0  0  0  0  0  0  0  0  0  0
  -27.8000  -17.9370   20.8600 H   0  0  0  0  0  0  0  0  0  0  0  0
  -30.5430  -15.8210   20.2520 C   0  0  0  0  0  0  0  0  0  0  0  0
  -30.6760  -13.2740   19.5340 C   0  0  0  0  0  2  0  0  0  0  0  0
  -29.8050  -12.9140   18.2950 C   0  0  0  0  0  2  0  0  0  0  0  0
  -28.3540  -12.6050   18.7030 C   0  0  0  0  0  2  0  0  0  0  0  0
  -27.8350  -13.6180   19.7510 C   0  0  0  0  0  3  0  0  0  0  0  0
  -28.8420  -13.8750   20.8920 C   0  0  0  0  0  2  0  0  0  0  0  0
  -30.0600  -14.4490   20.2810 N   0  0  0  0  0  0  0  0  0  0  0  0
  -31.7690  -15.8260   20.0350 O   0  0  0  0  0  0  0  0  0  0  0  0
  -25.4590  -14.1800   20.4600 C   0  0  0  0  0  0  0  0  0  0  0  0
  -24.3830  -13.4100   20.8020 C   0  0  0  0  0  0  0  0  0  0  0  0
  -24.8440  -12.0570   20.7840 C   0  0  0  0  0  0  0  0  0  0  0  0
  -26.5010  -13.2990   20.2390 N   0  0  0  0  0  0  0  0  0  0  0  0
  -26.1430  -12.0140   20.5010 N   0  0  0  0  0  0  0  0  0  0  0  0
  -24.1020  -10.8010   20.9630 C   0  0  0  0  0  0  0  0  0  0  0  0
  -24.4900   -9.8420   21.9240 C   0  0  0  0  0  3  0  0  0  0  0  0
  -23.7470   -8.6530   22.0900 C   0  0  0  0  0  3  0  0  0  0  0  0
  -22.6000   -8.4150   21.2950 C   0  0  0  0  0  0  0  0  0  0  0  0
  -22.2310   -9.3630   20.3250 C   0  0  0  0  0  3  0  0  0  0  0  0
  -22.9750  -10.5430   20.1570 C   0  0  0  0  0  3  0  0  0  0  0  0
  -21.8330   -7.2770   21.3690 O   0  0  0  0  0  0  0  0  0  0  0  0
  -21.7160   -6.5620   22.5330 C   0  0  0  0  0  0  0  0  0  0  0  0
  -21.1860   -7.1340   23.7100 C   0  0  0  0  0  3  0  0  0  0  0  0
  -21.0190   -6.3430   24.8640 C   0  0  0  0  0  3  0  0  0  0  0  0
  -21.3720   -4.9810   24.8410 C   0  0  0  0  0  0  0  0  0  0  0  0
  -21.8950   -4.4080   23.6690 C   0  0  0  0  0  3  0  0  0  0  0  0
  -22.0630   -5.1960   22.5170 C   0  0  0  0  0  0  0  0  0  0  0  0
  -22.5470   -4.6330   21.3840 F   0  0  0  0  0  0  0  0  0  0  0  0
  -21.2050   -4.2180   25.9480 F   0  0  0  0  0  0  0  0  0  0  0  0
  -22.9840  -13.8980   21.0390 C   0  0  0  0  0  0  0  0  0  0  0  0
  -22.2360  -13.2180   21.8990 N   0  0  0  0  0  0  0  0  0  0  0  0
  -22.5640  -14.9210   20.4990 O   0  0  0  0  0  0  0  0  0  0  0  0
  -22.5890  -12.3910   22.3580 H   0  0  0  0  0  0  0  0  0  0  0  0
  -21.2960  -13.5280   22.1010 H   0  0  0  0  0  0  0  0  0  0  0  0
  -25.6380  -15.5490   20.2980 N   0  0  0  0  0  0  0  0  0  0  0  0
  -24.8980  -16.2190   20.4750 H   0  0  0  0  0  0  0  0  0  0  0  0
  -26.5580  -15.9810   20.2270 H   0  0  0  0  0  0  0  0  0  0  0  0
  -28.1920  -22.2550   22.0900 N   0  0  0  0  0  0  0  0  0  0  0  0
  -28.3440  -21.8010   22.9840 H   0  0  0  0  0  0  0  0  0  0  0  0
  -28.2120  -23.2680   22.1590 H   0  0  0  0  0  0  0  0  0  0  0  0
  -28.0470  -24.1960   19.4580 C   0  0  0  0  0  2  0  0  0  0  0  0
  -28.3030  -25.8770   19.6800 O   0  0  0  0  0  0  0  0  0  0  0  0
  -24.5910  -31.7430   22.9980 C   0  0  0  0  0  0  0  0  0  0  0  0
  -27.2880  -27.0270   19.6830 C   0  0  0  0  0  0  0  0  0  0  0  0
  -23.4360  -30.3970   21.2940 C   0  0  0  0  0  3  0  0  0  0  0  0
  -24.9290  -28.9110   19.7680 C   0  0  0  0  0  0  0  0  0  0  0  0
  -26.0000  -30.6750   21.1470 C   0  0  0  0  0  2  0  0  0  0  0  0
  -26.1150  -29.2950   20.4080 C   0  0  0  0  0  0  0  0  0  0  0  0
  -27.2800  -28.3800   20.3380 C   0  0  0  0  0  3  0  0  0  0  0  0
  -26.0610  -26.8360   18.9990 C   0  0  0  0  0  3  0  0  0  0  0  0
  -24.9360  -27.7080   19.0420 C   0  0  0  0  0  3  0  0  0  0  0  0
  -23.6810  -29.7960   19.8810 C   0  0  0  0  0  2  0  0  0  0  0  0
  -24.6970  -30.9670   21.8670 N   0  0  0  0  0  0  0  0  0  0  0  0
  -23.4940  -31.9660   23.5400 O   0  0  0  0  0  0  0  0  0  0  0  0
  -22.7780  -29.3320   22.2120 C   0  0  0  0  0  0  0  0  0  0  0  0
  -21.4480  -29.1460   22.1100 N   0  0  0  0  0  0  0  0  0  0  0  0
  -23.4740  -28.6720   22.9860 O   0  0  0  0  0  0  0  0  0  0  0  0
  -20.9350  -29.7320   21.4650 H   0  0  0  0  0  0  0  0  0  0  0  0
  -18.0990  -27.8560   22.6730 C   0  0  0  0  0  0  0  0  0  0  0  0
  -20.6670  -28.1380   22.8380 C   0  0  0  0  0  3  0  0  0  0  0  0
  -20.7540  -26.7590   22.1420 C   0  0  0  0  0  2  0  0  0  0  0  0
  -19.6100  -26.5060   21.1570 C   0  0  0  0  0  2  0  0  0  0  0  0
  -18.2590  -26.5740   21.8730 C   0  0  0  0  0  2  0  0  0  0  0  0
  -19.2290  -28.5990   23.1120 C   0  0  0  0  0  0  0  0  0  0  0  0
  -19.0210  -29.7970   23.8270 C   0  0  0  0  0  3  0  0  0  0  0  0
  -17.7190  -30.2560   24.1030 C   0  0  0  0  0  3  0  0  0  0  0  0
  -16.6060  -29.5120   23.6770 C   0  0  0  0  0  3  0  0  0  0  0  0
  -16.7980  -28.3120   22.9680 C   0  0  0  0  0  3  0  0  0  0  0  0
  -25.8380  -32.4030   23.6600 C   0  0  0  0  0  3  0  0  0  0  0  0
  -26.3640  -31.6050   24.9180 C   0  0  1  0  0  0  0  0  0  0  0  0
  -25.2700  -31.3050   25.9690 C   0  0  0  0  0  1  0  0  0  0  0  0
  -26.9890  -30.2560   24.4990 C   0  0  0  0  0  1  0  0  0  0  0  0
  -27.4870  -32.4090   25.6140 C   0  0  0  0  0  1  0  0  0  0  0  0
  -25.4750  -33.7770   24.0530 N   0  0  0  0  0  0  0  0  0  0  0  0
  -25.7720  -34.8830   23.3560 C   0  0  0  0  0  0  0  0  0  0  0  0
  -26.4390  -34.8540   22.3190 O   0  0  0  0  0  0  0  0  0  0  0  0
  -24.8780  -33.8690   24.8620 H   0  0  0  0  0  0  0  0  0  0  0  0
  -23.9870  -36.6460   23.1180 C   0  0  0  0  0  1  0  0  0  0  0  0
  -25.2500  -36.2340   23.8920 C   0  0  0  0  0  3  0  0  0  0  0  0
  -27.3600  -37.1510   24.7530 C   0  0  0  0  0  1  0  0  0  0  0  0
  -26.2490  -37.3230   23.8210 N   0  0  0  0  0  0  0  0  0  0  0  0
  -25.8150  -38.2230   24.0080 H   0  0  0  0  0  0  0  0  0  0  0  0
  1  4  1  0
  2  1  2  0
  2  5  1  0
  4  7  1  0
  4  3  2  0
  5  6  2  0
  6  3  1  0
  6 46  1  0
  7  8  2  0
  8  9  1  0
 10 16  1  0
 10  7  1  0
 11 16  1  0
 12 13  1  0
 12 11  1  0
 14 13  1  0
 14 21  1  0
 14 15  1  0
 16 15  1  0
 17 10  2  0
 18 19  2  0
 19 38  1  0
 20 19  1  0
 20 23  1  0
 21 18  1  0
 21 22  1  0
 22 20  2  0
 23 24  1  0
 24 25  2  0
 26 29  1  0
 26 25  1  0
 27 26  2  0
 28 27  1  0
 28 23  2  0
 29 30  1  0
 30 31  1  0
 31 32  2  0
 33 32  1  0
 33 37  1  0
 34 33  2  0
 35 30  2  0
 35 34  1  0
 36 35  1  0
 38 39  1  0
 39 42  1  0
 39 41  1  0
 40 38  2  0
 43 18  1  0
 43 44  1  0
 45 43  1  0
 46 48  1  0
 46 47  1  0
 49 50  1  0
 49  5  1  0
 50 52  1  0
 51 62  2  0
 52 57  1  0
 53 61  1  0
 53 63  1  0
 54 60  1  0
 54 56  1  0
 55 61  1  0
 56 55  1  0
 57 56  2  0
 58 59  1  0
 58 52  2  0
 59 54  2  0
 60 53  1  0
 61 51  1  0
 63 65  2  0
 64 63  1  0
 66 64  1  0
 67 76  2  0
 67 72  1  0
 68 64  1  0
 68 72  1  0
 69 68  1  0
 70 71  1  0
 70 69  1  0
 71 67  1  0
 72 73  2  0
 73 74  1  0
 75 74  2  0
 76 75  1  0
 77 51  1  0
 77 82  1  0
 77 78  1  0
 78 81  1  1
 78 79  1  0
 80 78  1  0
 82 85  1  0
 83 87  1  0
 83 82  1  0
 84 83  2  0
 87 86  1  0
 89 87  1  0
 89 90  1  0
 89 88  1  0
M  ISO  4   7 100  10 100  49 101  50 101
M  END
>  <TORSDO>  (64) 
F 19

>  <SCORE>  (64) 
-16.067

>  <name>  (64) 
63

>  <ligand_id>  (64) 
63

>  <original_smiles>  (64) 
[H]N=C(C(=O)N1C([H])([H])C([H])([H])C([H])([H])C([H])(n2nc(-c3c([H])c([H])c(Oc4c([H])c([H])c(F)c([H])c4F)c([H])c3[H])c(C(=O)N([H])[H])c2N([H])[H])C1([H])[H])c1c([H])c([H])c(C([H])([H])Oc2c([H])c([H])c3c(c2[H])C([H])([H])N(C(=O)C([H])(N([H])C(=O)C([H])(N([H])C([H])([H])[H])C([H])([H])[H])C(C([H])([H])[H])(C([H])([H])[H])C([H])([H])[H])C([H])(C(=O)N([H])C2([H])c4c([H])c([H])c([H])c([H])c4C([H])([H])C([H])([H])C2([H])[H])C3([H])[H])c(N([H])[H])c1[H]

>  <smiles>  (64) 
[H]N=C(C(=O)N1C([H])([H])C([H])([H])C([H])([H])C([H])(n2nc(-c3c([H])c([H])c(Oc4c([H])c([H])c(F)c([H])c4F)c([H])c3[H])c(C(=O)N([H])[H])c2N([H])[H])C1([H])[H])c1c([H])c([H])c(C([H])([H])Oc2c([H])c([H])c3c(c2[H])C([H])([H])N(C(=O)C([H])(N([H])C(=O)C([H])(N([H])C([H])([H])[H])C([H])([H])[H])C(C([H])([H])[H])(C([H])([H])[H])C([H])([H])[H])C([H])(C(=O)N([H])C2([H])c4c([H])c([H])c([H])c([H])c4C([H])([H])C([H])([H])C2([H])[H])C3([H])[H])c(N([H])[H])c1[H]

$$$$
64:0:0
     RDKit          3D

 94102  0  0  1  0  0  0  0  0999 V2000
  -30.8540  -19.1690   20.9160 C   0  0  0  0  0  3  0  0  0  0  0  0
  -30.2490  -20.4290   20.7220 C   0  0  0  0  0  3  0  0  0  0  0  0
  -28.8970  -18.0570   20.0060 C   0  0  0  0  0  3  0  0  0  0  0  0
  -30.1980  -17.9660   20.5560 C   0  0  0  0  0  0  0  0  0  0  0  0
  -28.9540  -20.5220   20.1670 C   0  0  0  0  0  0  0  0  0  0  0  0
  -28.2880  -19.3210   19.8150 C   0  0  0  0  0  0  0  0  0  0  0  0
  -27.0430  -19.3850   19.2800 F   0  0  0  0  0  0  0  0  0  0  0  0
  -30.9070  -14.3940   19.9840 C   0  0  0  0  0  0  0  0  0  0  0  0
  -30.4810  -12.1780   18.9800 C   0  0  0  0  0  2  0  0  0  0  0  0
  -29.4910  -12.3060   17.8090 C   0  0  0  0  0  2  0  0  0  0  0  0
  -28.0390  -12.2180   18.3200 C   0  0  0  0  0  2  0  0  0  0  0  0
  -27.7720  -13.1450   19.5360 C   0  0  0  0  0  3  0  0  0  0  0  0
  -28.8800  -13.0210   20.6050 C   0  0  0  0  0  2  0  0  0  0  0  0
  -30.1670  -13.2520   19.9370 N   0  0  0  0  0  0  0  0  0  0  0  0
  -32.0210  -14.4530   19.4530 O   0  0  0  0  0  0  0  0  0  0  0  0
  -30.9100  -16.6500   20.7970 C   0  0  0  0  0  0  0  0  0  0  0  0
  -30.2860  -15.4980   20.4650 N   0  0  0  0  0  0  0  0  0  0  0  0
  -32.0700  -16.6860   21.2240 O   0  0  0  0  0  0  0  0  0  0  0  0
  -29.2830  -15.4830   20.4860 H   0  0  0  0  0  0  0  0  0  0  0  0
  -25.4720  -13.8360   20.4420 C   0  0  0  0  0  0  0  0  0  0  0  0
  -24.3950  -13.1060   20.8640 C   0  0  0  0  0  0  0  0  0  0  0  0
  -24.7780  -11.7350   20.7480 C   0  0  0  0  0  0  0  0  0  0  0  0
  -26.4470  -12.9140   20.1020 N   0  0  0  0  0  0  0  0  0  0  0  0
  -26.0390  -11.6410   20.3420 N   0  0  0  0  0  0  0  0  0  0  0  0
  -23.9980  -10.5060   20.9460 C   0  0  0  0  0  0  0  0  0  0  0  0
  -24.4460   -9.4780   21.8050 C   0  0  0  0  0  3  0  0  0  0  0  0
  -23.6700   -8.3140   21.9920 C   0  0  0  0  0  3  0  0  0  0  0  0
  -22.4320   -8.1710   21.3220 C   0  0  0  0  0  0  0  0  0  0  0  0
  -22.0020   -9.1870   20.4500 C   0  0  0  0  0  3  0  0  0  0  0  0
  -22.7770  -10.3430   20.2610 C   0  0  0  0  0  3  0  0  0  0  0  0
  -21.6230   -7.0650   21.4230 O   0  0  0  0  0  0  0  0  0  0  0  0
  -21.6240   -6.2730   22.5420 C   0  0  0  0  0  0  0  0  0  0  0  0
  -21.3080   -6.7880   23.8190 C   0  0  0  0  0  3  0  0  0  0  0  0
  -21.2520   -5.9230   24.9310 C   0  0  0  0  0  3  0  0  0  0  0  0
  -21.5040   -4.5470   24.7680 C   0  0  0  0  0  0  0  0  0  0  0  0
  -21.8170   -4.0340   23.4980 C   0  0  0  0  0  3  0  0  0  0  0  0
  -21.8720   -4.8940   22.3880 C   0  0  0  0  0  0  0  0  0  0  0  0
  -22.1520   -4.3910   21.1610 F   0  0  0  0  0  0  0  0  0  0  0  0
  -21.4430   -3.7160   25.8360 F   0  0  0  0  0  0  0  0  0  0  0  0
  -23.0510  -13.6450   21.2560 C   0  0  0  0  0  0  0  0  0  0  0  0
  -22.3540  -12.9560   22.1520 N   0  0  0  0  0  0  0  0  0  0  0  0
  -22.6330  -14.7100   20.8040 O   0  0  0  0  0  0  0  0  0  0  0  0
  -22.7090  -12.0910   22.5340 H   0  0  0  0  0  0  0  0  0  0  0  0
  -21.4560  -13.2990   22.4610 H   0  0  0  0  0  0  0  0  0  0  0  0
  -25.6900  -15.2030   20.2970 N   0  0  0  0  0  0  0  0  0  0  0  0
  -24.9390  -15.8710   20.4410 H   0  0  0  0  0  0  0  0  0  0  0  0
  -26.4950  -15.6080   19.8370 H   0  0  0  0  0  0  0  0  0  0  0  0
  -28.2990  -21.7550   19.9670 N   0  0  0  0  0  0  0  0  0  0  0  0
  -27.3710  -21.6980   19.5520 H   0  0  0  0  0  0  0  0  0  0  0  0
  -29.0490  -22.9910   19.6790 C   0  0  0  0  0  2  0  0  0  0  0  0
  -28.2580  -24.2930   19.9290 C   0  0  0  0  0  0  0  0  0  0  0  0
  -27.2200  -24.2910   20.6030 O   0  0  0  0  0  0  0  0  0  0  0  0
  -28.8200  -25.5790   19.2770 C   0  0  0  0  0  2  0  0  0  0  0  0
  -28.6180  -26.7630   20.0700 O   0  0  0  0  0  0  0  0  0  0  0  0
  -24.5850  -31.7110   23.1720 C   0  0  0  0  0  0  0  0  0  0  0  0
  -27.4200  -27.4470   20.0090 C   0  0  0  0  0  0  0  0  0  0  0  0
  -23.4660  -30.3690   21.4210 C   0  0  0  0  0  3  0  0  0  0  0  0
  -24.9990  -28.9140   19.9950 C   0  0  0  0  0  0  0  0  0  0  0  0
  -25.9910  -30.7690   21.3440 C   0  0  0  0  0  2  0  0  0  0  0  0
  -26.1230  -29.4290   20.6500 C   0  0  0  0  0  0  0  0  0  0  0  0
  -27.3350  -28.7040   20.6520 C   0  0  0  0  0  3  0  0  0  0  0  0
  -26.2730  -26.9480   19.3480 C   0  0  0  0  0  3  0  0  0  0  0  0
  -25.0670  -27.6710   19.3440 C   0  0  0  0  0  3  0  0  0  0  0  0
  -23.7410  -29.7510   20.0260 C   0  0  0  0  0  2  0  0  0  0  0  0
  -24.6960  -30.9610   22.0400 N   0  0  0  0  0  0  0  0  0  0  0  0
  -23.4780  -31.9440   23.6790 O   0  0  0  0  0  0  0  0  0  0  0  0
  -22.7920  -29.2960   22.3070 C   0  0  0  0  0  0  0  0  0  0  0  0
  -21.4650  -29.1510   22.1660 N   0  0  0  0  0  0  0  0  0  0  0  0
  -23.4600  -28.6010   23.0770 O   0  0  0  0  0  0  0  0  0  0  0  0
  -20.9880  -29.7700   21.5250 H   0  0  0  0  0  0  0  0  0  0  0  0
  -18.0520  -28.0710   22.6530 C   0  0  0  0  0  0  0  0  0  0  0  0
  -20.6250  -28.1810   22.8670 C   0  0  0  0  0  3  0  0  0  0  0  0
  -20.6400  -26.8100   22.1510 C   0  0  0  0  0  2  0  0  0  0  0  0
  -19.4950  -26.6410   21.1470 C   0  0  0  0  0  2  0  0  0  0  0  0
  -18.1420  -26.7870   21.8460 C   0  0  0  0  0  2  0  0  0  0  0  0
  -19.2190  -28.7350   23.1180 C   0  0  0  0  0  0  0  0  0  0  0  0
  -19.0810  -29.9460   23.8310 C   0  0  0  0  0  3  0  0  0  0  0  0
  -17.8060  -30.4870   24.0880 C   0  0  0  0  0  3  0  0  0  0  0  0
  -16.6550  -29.8180   23.6390 C   0  0  0  0  0  3  0  0  0  0  0  0
  -16.7790  -28.6130   22.9250 C   0  0  0  0  0  3  0  0  0  0  0  0
  -25.8340  -32.3300   23.8720 C   0  0  0  0  0  3  0  0  0  0  0  0
  -26.2650  -31.5540   25.1760 C   0  0  1  0  0  0  0  0  0  0  0  0
  -25.1110  -31.3250   26.1780 C   0  0  0  0  0  1  0  0  0  0  0  0
  -26.8550  -30.1710   24.8160 C   0  0  0  0  0  1  0  0  0  0  0  0
  -27.3870  -32.3330   25.9050 C   0  0  0  0  0  1  0  0  0  0  0  0
  -25.5180  -33.7310   24.1830 N   0  0  0  0  0  0  0  0  0  0  0  0
  -25.8910  -34.7800   23.4370 C   0  0  0  0  0  0  0  0  0  0  0  0
  -26.6100  -34.6700   22.4390 O   0  0  0  0  0  0  0  0  0  0  0  0
  -24.8930  -33.8920   24.9580 H   0  0  0  0  0  0  0  0  0  0  0  0
  -24.1810  -36.5710   22.9970 C   0  0  0  0  0  1  0  0  0  0  0  0
  -25.3860  -36.1720   23.8650 C   0  0  0  0  0  3  0  0  0  0  0  0
  -27.4780  -37.0630   24.7910 C   0  0  0  0  0  1  0  0  0  0  0  0
  -26.4250  -37.2230   23.7920 N   0  0  0  0  0  0  0  0  0  0  0  0
  -26.0140  -38.1450   23.9120 H   0  0  0  0  0  0  0  0  0  0  0  0
  2  1  1  0
  3  4  1  0
  4 16  1  0
  4  1  2  0
  5  2  2  0
  6  3  2  0
  6  5  1  0
  7  6  1  0
  8 17  1  0
  9 14  1  0
 10 11  1  0
 10  9  1  0
 12 11  1  0
 12 23  1  0
 12 13  1  0
 14  8  1  0
 14 13  1  0
 15  8  2  0
 16 18  2  0
 17 19  1  0
 17 16  1  0
 20 21  2  0
 21 40  1  0
 22 21  1  0
 22 25  1  0
 23 24  1  0
 23 20  1  0
 24 22  2  0
 25 26  1  0
 26 27  2  0
 28 31  1  0
 28 27  1  0
 29 28  2  0
 30 29  1  0
 30 25  2  0
 31 32  1  0
 32 33  1  0
 33 34  2  0
 35 34  1  0
 35 39  1  0
 36 35  2  0
 37 32  2  0
 37 36  1  0
 38 37  1  0
 40 41  1  0
 41 44  1  0
 41 43  1  0
 42 40  2  0
 45 46  1  0
 45 20  1  0
 47 45  1  0
 48  5  1  0
 49 48  1  0
 50 51  1  0
 50 48  1  0
 51 52  2  0
 53 51  1  0
 53 54  1  0
 55 66  2  0
 56 54  1  0
 56 61  1  0
 57 65  1  0
 57 67  1  0
 58 64  1  0
 58 60  1  0
 59 65  1  0
 60 61  2  0
 60 59  1  0
 62 56  2  0
 63 62  1  0
 63 58  2  0
 64 57  1  0
 65 55  1  0
 67 69  2  0
 68 67  1  0
 70 68  1  0
 71 80  2  0
 71 76  1  0
 72 68  1  0
 72 76  1  0
 73 72  1  0
 74 75  1  0
 74 73  1  0
 75 71  1  0
 76 77  2  0
 77 78  1  0
 79 78  2  0
 80 79  1  0
 81 55  1  0
 81 86  1  0
 81 82  1  0
 82 85  1  1
 82 83  1  0
 84 82  1  0
 86 89  1  0
 87 91  1  0
 87 86  1  0
 88 87  2  0
 91 90  1  0
 93 91  1  0
 93 94  1  0
 93 92  1  0
M  ISO  4   8 100  17 100  53 101  54 101
M  END
>  <TORSDO>  (65) 
F 20

>  <SCORE>  (65) 
-13.779

>  <name>  (65) 
64

>  <ligand_id>  (65) 
64

>  <original_smiles>  (65) 
[H]c1c([H])c([H])c2c(c1[H])C([H])([H])C([H])([H])C([H])([H])C2([H])N([H])C(=O)C1([H])N(C(=O)C([H])(N([H])C(=O)C([H])(N([H])C([H])([H])[H])C([H])([H])[H])C(C([H])([H])[H])(C([H])([H])[H])C([H])([H])[H])C([H])([H])c2c([H])c(OC([H])([H])C(=O)C([H])([H])N([H])c3c([H])c([H])c(C(=O)N([H])C(=O)N4C([H])([H])C([H])([H])C([H])([H])C([H])(n5nc(-c6c([H])c([H])c(Oc7c([H])c([H])c(F)c([H])c7F)c([H])c6[H])c(C(=O)N([H])[H])c5N([H])[H])C4([H])[H])c([H])c3F)c([H])c([H])c2C1([H])[H]

>  <smiles>  (65) 
[H]c1c([H])c([H])c2c(c1[H])C([H])([H])C([H])([H])C([H])([H])C2([H])N([H])C(=O)C1([H])N(C(=O)C([H])(N([H])C(=O)C([H])(N([H])C([H])([H])[H])C([H])([H])[H])C(C([H])([H])[H])(C([H])([H])[H])C([H])([H])[H])C([H])([H])c2c([H])c(OC([H])([H])C(=O)C([H])([H])N([H])c3c([H])c([H])c(C(=O)N([H])C(=O)N4C([H])([H])C([H])([H])C([H])([H])C([H])(n5nc(-c6c([H])c([H])c(Oc7c([H])c([H])c(F)c([H])c7F)c([H])c6[H])c(C(=O)N([H])[H])c5N([H])[H])C4([H])[H])c([H])c3F)c([H])c([H])c2C1([H])[H]

$$$$
65:0:0
     RDKit          3D

 98106  0  0  1  0  0  0  0  0999 V2000
  -30.6250  -19.6270   21.2450 C   0  0  0  0  0  3  0  0  0  0  0  0
  -30.1290  -17.4910   20.1810 C   0  0  0  0  0  3  0  0  0  0  0  0
  -30.9410  -17.5450   22.4840 C   0  0  0  0  0  3  0  0  0  0  0  0
  -30.1790  -18.9070   20.1190 C   0  0  0  0  0  0  0  0  0  0  0  0
  -31.0150  -18.9560   22.4220 C   0  0  0  0  0  0  0  0  0  0  0  0
  -30.5100  -16.8030   21.3620 C   0  0  0  0  0  0  0  0  0  0  0  0
  -30.9660  -14.4830   20.6500 C   0  0  0  0  0  0  0  0  0  0  0  0
  -30.6650  -12.3270   19.4910 C   0  0  0  0  0  2  0  0  0  0  0  0
  -29.7470  -12.5320   18.2660 C   0  0  0  0  0  2  0  0  0  0  0  0
  -28.2630  -12.4070   18.6650 C   0  0  0  0  0  2  0  0  0  0  0  0
  -27.9090  -13.2670   19.9090 C   0  0  0  0  0  3  0  0  0  0  0  0
  -28.9350  -13.0310   21.0420 C   0  0  0  0  0  2  0  0  0  0  0  0
  -30.2860  -13.3120   20.5150 N   0  0  0  0  0  0  0  0  0  0  0  0
  -32.0340  -14.7120   20.0700 O   0  0  0  0  0  0  0  0  0  0  0  0
  -30.4010  -15.3880   21.4660 N   0  0  0  0  0  0  0  0  0  0  0  0
  -29.6920  -15.0350   22.0950 H   0  0  0  0  0  0  0  0  0  0  0  0
  -25.5120  -13.9230   20.5990 C   0  0  0  0  0  0  0  0  0  0  0  0
  -24.4200  -13.1710   20.9400 C   0  0  0  0  0  0  0  0  0  0  0  0
  -24.8480  -11.8080   20.8840 C   0  0  0  0  0  0  0  0  0  0  0  0
  -26.5390  -13.0210   20.3590 N   0  0  0  0  0  0  0  0  0  0  0  0
  -26.1390  -11.7430   20.5850 N   0  0  0  0  0  0  0  0  0  0  0  0
  -24.0890  -10.5620   21.0420 C   0  0  0  0  0  0  0  0  0  0  0  0
  -24.4860   -9.5680   21.9650 C   0  0  0  0  0  3  0  0  0  0  0  0
  -23.7320   -8.3840   22.1100 C   0  0  0  0  0  3  0  0  0  0  0  0
  -22.5660   -8.1860   21.3330 C   0  0  0  0  0  0  0  0  0  0  0  0
  -22.1880   -9.1660   20.3990 C   0  0  0  0  0  3  0  0  0  0  0  0
  -22.9430  -10.3430   20.2510 C   0  0  0  0  0  3  0  0  0  0  0  0
  -21.7850   -7.0570   21.3880 O   0  0  0  0  0  0  0  0  0  0  0  0
  -21.6970   -6.2970   22.5260 C   0  0  0  0  0  0  0  0  0  0  0  0
  -21.2390   -6.8370   23.7490 C   0  0  0  0  0  3  0  0  0  0  0  0
  -21.0980   -6.0040   24.8770 C   0  0  0  0  0  3  0  0  0  0  0  0
  -21.4060   -4.6330   24.7840 C   0  0  0  0  0  0  0  0  0  0  0  0
  -21.8550   -4.0930   23.5660 C   0  0  0  0  0  3  0  0  0  0  0  0
  -21.9980   -4.9230   22.4400 C   0  0  0  0  0  0  0  0  0  0  0  0
  -22.4130   -4.3930   21.2630 F   0  0  0  0  0  0  0  0  0  0  0  0
  -21.2620   -3.8310   25.8650 F   0  0  0  0  0  0  0  0  0  0  0  0
  -23.0330  -13.6780   21.2100 C   0  0  0  0  0  0  0  0  0  0  0  0
  -22.2780  -12.9870   22.0570 N   0  0  0  0  0  0  0  0  0  0  0  0
  -22.6230  -14.7230   20.7060 O   0  0  0  0  0  0  0  0  0  0  0  0
  -22.6180  -12.1440   22.4970 H   0  0  0  0  0  0  0  0  0  0  0  0
  -21.3440  -13.3090   22.2700 H   0  0  0  0  0  0  0  0  0  0  0  0
  -25.7140  -15.2930   20.4540 N   0  0  0  0  0  0  0  0  0  0  0  0
  -24.9690  -15.9720   20.5800 H   0  0  0  0  0  0  0  0  0  0  0  0
  -26.5910  -15.7140   20.1670 H   0  0  0  0  0  0  0  0  0  0  0  0
  -29.7920  -19.6370   18.8340 C   0  0  0  0  0  2  0  0  0  0  0  0
  -29.4840  -22.1250   19.0460 C   0  0  0  0  0  0  0  0  0  0  0  0
  -29.0130  -20.8680   19.0120 N   0  0  0  0  0  0  0  0  0  0  0  0
  -30.6870  -22.3800   19.1300 O   0  0  0  0  0  0  0  0  0  0  0  0
  -28.0090  -20.7630   18.9520 H   0  0  0  0  0  0  0  0  0  0  0  0
  -28.4640  -23.2640   18.9050 C   0  0  0  0  0  2  0  0  0  0  0  0
  -28.5830  -24.4040   19.9500 C   0  0  0  0  0  2  0  0  0  0  0  0
  -28.5900  -25.8010   19.2930 C   0  0  0  0  0  2  0  0  0  0  0  0
  -28.3750  -26.8490   20.2460 O   0  0  0  0  0  0  0  0  0  0  0  0
  -24.5530  -31.9940   23.3280 C   0  0  0  0  0  0  0  0  0  0  0  0
  -27.1700  -27.5200   20.2640 C   0  0  0  0  0  0  0  0  0  0  0  0
  -23.3290  -30.5750   21.7090 C   0  0  0  0  0  3  0  0  0  0  0  0
  -24.7660  -29.0160   20.2960 C   0  0  0  0  0  0  0  0  0  0  0  0
  -25.8530  -30.9300   21.4870 C   0  0  0  0  0  2  0  0  0  0  0  0
  -25.9280  -29.5480   20.8650 C   0  0  0  0  0  0  0  0  0  0  0  0
  -27.1300  -28.8050   20.8520 C   0  0  0  0  0  3  0  0  0  0  0  0
  -25.9770  -26.9860   19.7210 C   0  0  0  0  0  3  0  0  0  0  0  0
  -24.7840  -27.7320   19.7230 C   0  0  0  0  0  3  0  0  0  0  0  0
  -23.5300  -29.8820   20.3330 C   0  0  0  0  0  2  0  0  0  0  0  0
  -24.5960  -31.1830   22.2310 N   0  0  0  0  0  0  0  0  0  0  0  0
  -23.4760  -32.2710   23.8750 O   0  0  0  0  0  0  0  0  0  0  0  0
  -22.6830  -29.5660   22.6860 C   0  0  0  0  0  0  0  0  0  0  0  0
  -21.3680  -29.3400   22.5340 N   0  0  0  0  0  0  0  0  0  0  0  0
  -23.3650  -28.9900   23.5370 O   0  0  0  0  0  0  0  0  0  0  0  0
  -20.8770  -29.8680   21.8270 H   0  0  0  0  0  0  0  0  0  0  0  0
  -18.0320  -28.0040   22.9380 C   0  0  0  0  0  0  0  0  0  0  0  0
  -20.5590  -28.4040   23.3150 C   0  0  0  0  0  3  0  0  0  0  0  0
  -20.7580  -26.9520   22.8260 C   0  0  0  0  0  2  0  0  0  0  0  0
  -19.7240  -26.5210   21.7790 C   0  0  0  0  0  2  0  0  0  0  0  0
  -18.3050  -26.6310   22.3470 C   0  0  0  0  0  2  0  0  0  0  0  0
  -19.0910  -28.8410   23.3780 C   0  0  0  0  0  0  0  0  0  0  0  0
  -18.7860  -30.1220   23.8880 C   0  0  0  0  0  3  0  0  0  0  0  0
  -17.4530  -30.5680   23.9610 C   0  0  0  0  0  3  0  0  0  0  0  0
  -16.4070  -29.7300   23.5360 C   0  0  0  0  0  3  0  0  0  0  0  0
  -16.6970  -28.4490   23.0320 C   0  0  0  0  0  3  0  0  0  0  0  0
  -25.8460  -32.6290   23.9280 C   0  0  0  0  0  3  0  0  0  0  0  0
  -26.3840  -31.8620   25.1970 C   0  0  1  0  0  0  0  0  0  0  0  0
  -25.3060  -31.6130   26.2770 C   0  0  0  0  0  1  0  0  0  0  0  0
  -26.9810  -30.4910   24.7970 C   0  0  0  0  0  1  0  0  0  0  0  0
  -27.5300  -32.6690   25.8500 C   0  0  0  0  0  1  0  0  0  0  0  0
  -25.5400  -34.0300   24.2560 N   0  0  0  0  0  0  0  0  0  0  0  0
  -25.8470  -35.0750   23.4760 C   0  0  0  0  0  0  0  0  0  0  0  0
  -26.4880  -34.9630   22.4280 O   0  0  0  0  0  0  0  0  0  0  0  0
  -24.9720  -34.1890   25.0750 H   0  0  0  0  0  0  0  0  0  0  0  0
  -24.0960  -36.8500   23.1530 C   0  0  0  0  0  1  0  0  0  0  0  0
  -25.3640  -36.4660   23.9310 C   0  0  0  0  0  3  0  0  0  0  0  0
  -27.5170  -37.3780   24.6800 C   0  0  0  0  0  1  0  0  0  0  0  0
  -26.3850  -37.5240   23.7690 N   0  0  0  0  0  0  0  0  0  0  0  0
  -25.9770  -38.4440   23.9140 H   0  0  0  0  0  0  0  0  0  0  0  0
  -31.5350  -19.7630   23.6010 C   0  0  0  0  0  2  0  0  0  0  0  0
  -30.4390  -20.2960   24.4190 N   0  0  0  0  0  4  0  0  0  0  0  0
  -29.8580  -20.9100   23.8820 H   0  0  0  0  0  0  0  0  0  0  0  0
  -30.8180  -20.8130   25.1910 H   0  0  0  0  0  0  0  0  0  0  0  0
  -29.8830  -19.5440   24.7790 H   0  0  0  0  0  0  0  0  0  0  0  0
  1  5  1  0
  2  6  2  0
  4  2  1  0
  4  1  2  0
  5  3  2  0
  5 94  1  0
  6 15  1  0
  6  3  1  0
  7 15  1  0
  8 13  1  0
  9 10  1  0
  9  8  1  0
 11 10  1  0
 11 20  1  0
 11 12  1  0
 13  7  1  0
 13 12  1  0
 14  7  2  0
 15 16  1  0
 17 18  2  0
 18 37  1  0
 19 18  1  0
 19 22  1  0
 20 21  1  0
 20 17  1  0
 21 19  2  0
 22 23  1  0
 23 24  2  0
 25 28  1  0
 25 24  1  0
 26 25  2  0
 27 26  1  0
 27 22  2  0
 28 29  1  0
 29 30  1  0
 30 31  2  0
 32 31  1  0
 32 36  1  0
 33 32  2  0
 34 29  2  0
 34 33  1  0
 35 34  1  0
 37 38  1  0
 38 41  1  0
 38 40  1  0
 39 37  2  0
 42 43  1  0
 42 17  1  0
 44 42  1  0
 45 47  1  0
 45  4  1  0
 46 48  2  0
 47 46  1  0
 49 47  1  0
 50 46  1  0
 50 51  1  0
 52 51  1  0
 52 53  1  0
 53 55  1  0
 54 65  2  0
 55 60  1  0
 56 64  1  0
 56 66  1  0
 57 63  1  0
 57 59  1  0
 58 64  1  0
 59 58  1  0
 60 59  2  0
 61 62  1  0
 61 55  2  0
 62 57  2  0
 63 56  1  0
 64 54  1  0
 66 68  2  0
 67 66  1  0
 69 67  1  0
 70 79  2  0
 70 75  1  0
 71 67  1  0
 71 75  1  0
 72 71  1  0
 73 74  1  0
 73 72  1  0
 74 70  1  0
 75 76  2  0
 76 77  1  0
 78 77  2  0
 79 78  1  0
 80 54  1  0
 80 85  1  0
 80 81  1  0
 81 84  1  1
 81 82  1  0
 83 81  1  0
 85 88  1  0
 86 90  1  0
 86 85  1  0
 87 86  2  0
 90 89  1  0
 92 93  1  0
 92 90  1  0
 92 91  1  0
 94 95  1  0
 95 98  1  0
 95 97  1  0
 96 95  1  0
M  ISO  4   7 100  15 100  52 101  53 101
M  END
>  <TORSDO>  (66) 
F 23

>  <SCORE>  (66) 
-12.994

>  <name>  (66) 
65

>  <ligand_id>  (66) 
65

>  <original_smiles>  (66) 
[H]c1c([H])c([H])c2c(c1[H])C([H])([H])C([H])([H])C([H])([H])C2([H])N([H])C(=O)C1([H])N(C(=O)C([H])(N([H])C(=O)C([H])(N([H])C([H])([H])[H])C([H])([H])[H])C(C([H])([H])[H])(C([H])([H])[H])C([H])([H])[H])C([H])([H])c2c([H])c(OC([H])([H])C([H])([H])C([H])([H])C(=O)N([H])C([H])([H])c3c([H])c(N([H])C(=O)N4C([H])([H])C([H])([H])C([H])([H])C([H])(n5nc(-c6c([H])c([H])c(Oc7c([H])c([H])c(F)c([H])c7F)c([H])c6[H])c(C(=O)N([H])[H])c5N([H])[H])C4([H])[H])c([H])c(C([H])([H])[N+]([H])([H])[H])c3[H])c([H])c([H])c2C1([H])[H]

>  <smiles>  (66) 
[H]c1c([H])c([H])c2c(c1[H])C([H])([H])C([H])([H])C([H])([H])C2([H])N([H])C(=O)C1([H])N(C(=O)C([H])(N([H])C(=O)C([H])(N([H])C([H])([H])[H])C([H])([H])[H])C(C([H])([H])[H])(C([H])([H])[H])C([H])([H])[H])C([H])([H])c2c([H])c(OC([H])([H])C([H])([H])C([H])([H])C(=O)N([H])C([H])([H])c3c([H])c(N([H])C(=O)N4C([H])([H])C([H])([H])C([H])([H])C([H])(n5nc(-c6c([H])c([H])c(Oc7c([H])c([H])c(F)c([H])c7F)c([H])c6[H])c(C(=O)N([H])[H])c5N([H])[H])C4([H])[H])c([H])c(C([H])([H])[N+]([H])([H])[H])c3[H])c([H])c([H])c2C1([H])[H]

$$$$
66:0:0
     RDKit          3D

 98107  0  0  1  0  0  0  0  0999 V2000
  -31.6860  -17.7380   20.7430 C   0  0  0  0  0  3  0  0  0  0  0  0
  -29.4110  -18.5680   20.4630 C   0  0  0  0  0  0  0  0  0  0  0  0
  -29.8630  -19.9670   20.5050 C   0  0  0  0  0  0  0  0  0  0  0  0
  -30.3170  -17.4180   20.5680 C   0  0  0  0  0  0  0  0  0  0  0  0
  -32.1480  -19.0660   20.7900 C   0  0  0  0  0  0  0  0  0  0  0  0
  -31.2610  -20.1570   20.6700 C   0  0  0  0  0  0  0  0  0  0  0  0
  -27.9270  -18.2850   20.3090 C   0  0  0  0  0  1  0  0  0  0  0  0
  -30.6210  -14.8070   20.2970 C   0  0  0  0  0  0  0  0  0  0  0  0
  -30.3690  -12.5440   19.2620 C   0  0  0  0  0  2  0  0  0  0  0  0
  -29.4310  -12.6330   18.0400 C   0  0  0  0  0  2  0  0  0  0  0  0
  -27.9640  -12.4630   18.4740 C   0  0  0  0  0  2  0  0  0  0  0  0
  -27.5980  -13.3450   19.6980 C   0  0  0  0  0  3  0  0  0  0  0  0
  -28.6630  -13.2590   20.8160 C   0  0  0  0  0  2  0  0  0  0  0  0
  -29.9570  -13.6030   20.2150 N   0  0  0  0  0  0  0  0  0  0  0  0
  -31.8050  -14.8460   19.9520 O   0  0  0  0  0  0  0  0  0  0  0  0
  -29.8990  -15.9760   20.5460 N   0  0  0  0  0  0  0  0  0  0  0  0
  -28.9150  -15.8130   20.6910 H   0  0  0  0  0  0  0  0  0  0  0  0
  -25.2080  -13.9250   20.4210 C   0  0  0  0  0  0  0  0  0  0  0  0
  -24.1480  -13.1480   20.7980 C   0  0  0  0  0  0  0  0  0  0  0  0
  -24.6210  -11.7990   20.7830 C   0  0  0  0  0  0  0  0  0  0  0  0
  -26.2580  -13.0510   20.1940 N   0  0  0  0  0  0  0  0  0  0  0  0
  -25.9120  -11.7680   20.4770 N   0  0  0  0  0  0  0  0  0  0  0  0
  -23.9010  -10.5340   20.9830 C   0  0  0  0  0  0  0  0  0  0  0  0
  -24.3400   -9.5750   21.9230 C   0  0  0  0  0  3  0  0  0  0  0  0
  -23.6190   -8.3760   22.1130 C   0  0  0  0  0  3  0  0  0  0  0  0
  -22.4470   -8.1280   21.3610 C   0  0  0  0  0  0  0  0  0  0  0  0
  -22.0260   -9.0750   20.4120 C   0  0  0  0  0  3  0  0  0  0  0  0
  -22.7480  -10.2640   20.2200 C   0  0  0  0  0  3  0  0  0  0  0  0
  -21.6970   -6.9800   21.4600 O   0  0  0  0  0  0  0  0  0  0  0  0
  -21.6560   -6.2430   22.6170 C   0  0  0  0  0  0  0  0  0  0  0  0
  -21.2420   -6.8050   23.8440 C   0  0  0  0  0  3  0  0  0  0  0  0
  -21.1490   -5.9950   24.9930 C   0  0  0  0  0  3  0  0  0  0  0  0
  -21.4600   -4.6250   24.9160 C   0  0  0  0  0  0  0  0  0  0  0  0
  -21.8690   -4.0630   23.6930 C   0  0  0  0  0  3  0  0  0  0  0  0
  -21.9630   -4.8700   22.5470 C   0  0  0  0  0  0  0  0  0  0  0  0
  -22.3370   -4.3190   21.3660 F   0  0  0  0  0  0  0  0  0  0  0  0
  -21.3630   -3.8440   26.0170 F   0  0  0  0  0  0  0  0  0  0  0  0
  -22.7480  -13.6190   21.0600 C   0  0  0  0  0  0  0  0  0  0  0  0
  -22.0220  -12.9270   21.9330 N   0  0  0  0  0  0  0  0  0  0  0  0
  -22.3040  -14.6350   20.5270 O   0  0  0  0  0  0  0  0  0  0  0  0
  -22.3940  -12.1050   22.3820 H   0  0  0  0  0  0  0  0  0  0  0  0
  -21.0820  -13.2250   22.1540 H   0  0  0  0  0  0  0  0  0  0  0  0
  -25.3620  -15.2950   20.2260 N   0  0  0  0  0  0  0  0  0  0  0  0
  -24.5850  -15.9390   20.3130 H   0  0  0  0  0  0  0  0  0  0  0  0
  -26.1900  -15.7240   19.8370 H   0  0  0  0  0  0  0  0  0  0  0  0
  -28.1960  -23.1750   21.5940 C   0  0  0  0  0  2  0  0  0  0  0  0
  -28.6660  -21.7100   21.8030 C   0  0  0  0  0  2  0  0  0  0  0  0
  -29.1350  -22.3400   19.5830 C   0  0  0  0  0  2  0  0  0  0  0  0
  -28.9680  -23.7180   20.3810 C   0  0  0  0  0  3  0  0  0  0  0  0
  -28.9980  -21.1470   20.4920 N   0  0  0  0  0  0  0  0  0  0  0  0
  -28.2830  -24.9910   19.6440 C   0  0  0  0  0  2  0  0  0  0  0  0
  -28.3710  -26.4200   20.1230 O   0  0  0  0  0  0  0  0  0  0  0  0
  -24.5960  -31.8380   23.1520 C   0  0  0  0  0  0  0  0  0  0  0  0
  -27.2620  -27.3030   20.0400 C   0  0  0  0  0  0  0  0  0  0  0  0
  -23.4150  -30.4420   21.4970 C   0  0  0  0  0  3  0  0  0  0  0  0
  -24.8870  -28.9310   20.0490 C   0  0  0  0  0  0  0  0  0  0  0  0
  -25.9550  -30.7780   21.3300 C   0  0  0  0  0  2  0  0  0  0  0  0
  -26.0510  -29.4060   20.6650 C   0  0  0  0  0  0  0  0  0  0  0  0
  -27.2370  -28.6020   20.6580 C   0  0  0  0  0  3  0  0  0  0  0  0
  -26.0780  -26.9200   19.3670 C   0  0  0  0  0  3  0  0  0  0  0  0
  -24.9060  -27.6960   19.3910 C   0  0  0  0  0  3  0  0  0  0  0  0
  -23.6400  -29.7890   20.1090 C   0  0  0  0  0  2  0  0  0  0  0  0
  -24.6750  -31.0370   22.0490 N   0  0  0  0  0  0  0  0  0  0  0  0
  -23.5070  -32.0970   23.6860 O   0  0  0  0  0  0  0  0  0  0  0  0
  -22.7650  -29.4040   22.4440 C   0  0  0  0  0  0  0  0  0  0  0  0
  -21.4370  -29.2310   22.3350 N   0  0  0  0  0  0  0  0  0  0  0  0
  -23.4550  -28.7590   23.2380 O   0  0  0  0  0  0  0  0  0  0  0  0
  -20.9400  -29.8070   21.6710 H   0  0  0  0  0  0  0  0  0  0  0  0
  -18.0630  -28.0430   22.8820 C   0  0  0  0  0  0  0  0  0  0  0  0
  -20.6290  -28.2780   23.0990 C   0  0  0  0  0  3  0  0  0  0  0  0
  -20.7050  -26.8620   22.4820 C   0  0  0  0  0  2  0  0  0  0  0  0
  -19.5770  -26.5740   21.4850 C   0  0  0  0  0  2  0  0  0  0  0  0
  -18.2130  -26.7110   22.1660 C   0  0  0  0  0  2  0  0  0  0  0  0
  -19.1960  -28.7850   23.3060 C   0  0  0  0  0  0  0  0  0  0  0  0
  -19.0000  -30.0320   23.9380 C   0  0  0  0  0  3  0  0  0  0  0  0
  -17.7030  -30.5360   24.1500 C   0  0  0  0  0  3  0  0  0  0  0  0
  -16.5840  -29.7890   23.7420 C   0  0  0  0  0  3  0  0  0  0  0  0
  -16.7650  -28.5440   23.1140 C   0  0  0  0  0  3  0  0  0  0  0  0
  -25.8680  -32.4840   23.7810 C   0  0  0  0  0  3  0  0  0  0  0  0
  -26.3990  -31.7040   25.0470 C   0  0  1  0  0  0  0  0  0  0  0  0
  -25.3110  -31.4350   26.1130 C   0  0  0  0  0  1  0  0  0  0  0  0
  -27.0030  -30.3400   24.6400 C   0  0  0  0  0  1  0  0  0  0  0  0
  -27.5400  -32.5070   25.7160 C   0  0  0  0  0  1  0  0  0  0  0  0
  -25.5330  -33.8710   24.1340 N   0  0  0  0  0  0  0  0  0  0  0  0
  -25.8360  -34.9430   23.3880 C   0  0  0  0  0  0  0  0  0  0  0  0
  -26.4950  -34.8680   22.3470 O   0  0  0  0  0  0  0  0  0  0  0  0
  -24.9440  -34.0020   24.9430 H   0  0  0  0  0  0  0  0  0  0  0  0
  -24.0640  -36.7030   23.0890 C   0  0  0  0  0  1  0  0  0  0  0  0
  -25.3280  -36.3150   23.8720 C   0  0  0  0  0  3  0  0  0  0  0  0
  -27.4600  -37.2320   24.6750 C   0  0  0  0  0  1  0  0  0  0  0  0
  -26.3350  -37.3910   23.7570 N   0  0  0  0  0  0  0  0  0  0  0  0
  -25.9120  -38.3000   23.9310 H   0  0  0  0  0  0  0  0  0  0  0  0
  -33.5100  -19.3290   20.9670 N   0  0  0  0  0  0  0  0  0  0  0  0
  -34.1550  -18.6080   20.6620 H   0  0  0  0  0  0  0  0  0  0  0  0
  -33.7770  -20.2460   20.6230 H   0  0  0  0  0  0  0  0  0  0  0  0
  -31.8060  -21.4370   20.7900 N   0  0  0  0  0  0  0  0  0  0  0  0
  -31.0830  -22.1230   20.9730 H   0  0  0  0  0  0  0  0  0  0  0  0
  -32.5490  -21.4750   21.4750 H   0  0  0  0  0  0  0  0  0  0  0  0
  1  5  1  0
  2  3  2  0
  2  4  1  0
  3  6  1  0
  4  1  2  0
  5 93  1  0
  6 96  1  0
  6  5  2  0
  7  2  1  0
  8 16  1  0
  9 14  1  0
 10 11  1  0
 10  9  1  0
 12 11  1  0
 12 21  1  0
 12 13  1  0
 14  8  1  0
 14 13  1  0
 15  8  2  0
 16  4  1  0
 16 17  1  0
 18 19  2  0
 19 38  1  0
 20 19  1  0
 20 23  1  0
 21 18  1  0
 21 22  1  0
 22 20  2  0
 23 24  1  0
 24 25  2  0
 26 29  1  0
 26 25  1  0
 27 26  2  0
 28 27  1  0
 28 23  2  0
 29 30  1  0
 30 31  1  0
 31 32  2  0
 33 32  1  0
 33 37  1  0
 34 33  2  0
 35 30  2  0
 35 34  1  0
 36 35  1  0
 38 39  1  0
 39 42  1  0
 39 41  1  0
 40 38  2  0
 43 44  1  0
 43 18  1  0
 45 43  1  0
 46 47  1  0
 48 49  1  0
 48 50  1  0
 49 51  1  0
 49 46  1  0
 50  3  1  0
 50 47  1  0
 51 52  1  0
 53 64  2  0
 54 52  1  0
 54 59  1  0
 55 63  1  0
 55 65  1  0
 56 62  1  0
 56 58  1  0
 57 63  1  0
 58 57  1  0
 59 58  2  0
 60 61  1  0
 60 54  2  0
 61 56  2  0
 62 55  1  0
 63 53  1  0
 65 67  2  0
 66 65  1  0
 68 66  1  0
 69 78  2  0
 69 74  1  0
 70 66  1  0
 70 74  1  0
 71 70  1  0
 72 73  1  0
 72 71  1  0
 73 69  1  0
 74 75  2  0
 75 76  1  0
 77 76  2  0
 78 77  1  0
 79 53  1  0
 79 84  1  0
 79 80  1  0
 80 83  1  1
 80 81  1  0
 82 80  1  0
 84 87  1  0
 85 89  1  0
 85 84  1  0
 86 85  2  0
 89 88  1  0
 91 89  1  0
 91 92  1  0
 91 90  1  0
 94 93  1  0
 95 93  1  0
 96 97  1  0
 96 98  1  0
M  ISO  4   8 100  16 100  51 101  52 101
M  END
>  <TORSDO>  (67) 
F 20

>  <SCORE>  (67) 
-14.855

>  <name>  (67) 
66

>  <ligand_id>  (67) 
66

>  <original_smiles>  (67) 
[H]c1c([H])c([H])c2c(c1[H])C([H])([H])C([H])([H])C([H])([H])C2([H])N([H])C(=O)C1([H])N(C(=O)C([H])(N([H])C(=O)C([H])(N([H])C([H])([H])[H])C([H])([H])[H])C(C([H])([H])[H])(C([H])([H])[H])C([H])([H])[H])C([H])([H])c2c([H])c(OC([H])([H])C3([H])C([H])([H])N(c4c(N([H])[H])c(N([H])[H])c([H])c(N([H])C(=O)N5C([H])([H])C([H])([H])C([H])([H])C([H])(n6nc(-c7c([H])c([H])c(Oc8c([H])c([H])c(F)c([H])c8F)c([H])c7[H])c(C(=O)N([H])[H])c6N([H])[H])C5([H])[H])c4C([H])([H])[H])C([H])([H])C3([H])[H])c([H])c([H])c2C1([H])[H]

>  <smiles>  (67) 
[H]c1c([H])c([H])c2c(c1[H])C([H])([H])C([H])([H])C([H])([H])C2([H])N([H])C(=O)C1([H])N(C(=O)C([H])(N([H])C(=O)C([H])(N([H])C([H])([H])[H])C([H])([H])[H])C(C([H])([H])[H])(C([H])([H])[H])C([H])([H])[H])C([H])([H])c2c([H])c(OC([H])([H])C3([H])C([H])([H])N(c4c(N([H])[H])c(N([H])[H])c([H])c(N([H])C(=O)N5C([H])([H])C([H])([H])C([H])([H])C([H])(n6nc(-c7c([H])c([H])c(Oc8c([H])c([H])c(F)c([H])c8F)c([H])c7[H])c(C(=O)N([H])[H])c6N([H])[H])C5([H])[H])c4C([H])([H])[H])C([H])([H])C3([H])[H])c([H])c([H])c2C1([H])[H]

$$$$
67:0:0
     RDKit          3D

 93102  0  0  1  0  0  0  0  0999 V2000
  -26.9830  -22.4910   18.2730 C   0  0  0  0  0  0  0  0  0  0  0  0
  -25.8240  -23.2710   18.8650 C   0  0  0  0  0  2  0  0  0  0  0  0
  -26.3930  -23.7150   20.2260 C   0  0  0  0  0  2  0  0  0  0  0  0
  -27.9110  -23.7700   19.9860 C   0  0  0  0  0  3  0  0  0  0  0  0
  -28.0940  -22.5930   19.0370 N   0  0  0  0  0  0  0  0  0  0  0  0
  -26.8620  -21.8330   17.2330 O   0  0  0  0  0  0  0  0  0  0  0  0
  -28.9500  -19.2640   20.7600 C   0  0  0  0  0  3  0  0  0  0  0  0
  -30.1350  -19.3380   18.6730 C   0  0  0  0  0  3  0  0  0  0  0  0
  -28.4310  -20.5720   20.5170 C   0  0  0  0  0  3  0  0  0  0  0  0
  -29.5910  -20.6370   18.4160 C   0  0  0  0  0  3  0  0  0  0  0  0
  -29.8310  -18.6140   19.8620 C   0  0  0  0  0  0  0  0  0  0  0  0
  -28.7380  -21.3050   19.3420 C   0  0  0  0  0  0  0  0  0  0  0  0
  -30.6340  -17.3220   20.2830 C   0  0  0  0  0  2  0  0  0  0  0  0
  -30.7830  -14.7710   20.2740 C   0  0  0  0  0  0  0  0  0  0  0  0
  -30.5330  -12.5010   19.3240 C   0  0  0  0  0  2  0  0  0  0  0  0
  -29.5880  -12.5940   18.1090 C   0  0  0  0  0  2  0  0  0  0  0  0
  -28.1260  -12.4150   18.5650 C   0  0  0  0  0  2  0  0  0  0  0  0
  -27.7540  -13.3120   19.7780 C   0  0  0  0  0  3  0  0  0  0  0  0
  -28.8290  -13.2620   20.8860 C   0  0  0  0  0  2  0  0  0  0  0  0
  -30.1210  -13.5700   20.2560 N   0  0  0  0  0  0  0  0  0  0  0  0
  -31.9810  -14.8230   20.0000 O   0  0  0  0  0  0  0  0  0  0  0  0
  -30.0510  -15.9310   20.3560 N   0  0  0  0  0  0  0  0  0  0  0  0
  -29.0630  -15.8430   20.5230 H   0  0  0  0  0  0  0  0  0  0  0  0
  -25.3830  -13.8930   20.5680 C   0  0  0  0  0  0  0  0  0  0  0  0
  -24.3210  -13.1080   20.9330 C   0  0  0  0  0  0  0  0  0  0  0  0
  -24.7790  -11.7580   20.8570 C   0  0  0  0  0  0  0  0  0  0  0  0
  -26.4190  -13.0140   20.2880 N   0  0  0  0  0  0  0  0  0  0  0  0
  -26.0640  -11.7240   20.5200 N   0  0  0  0  0  0  0  0  0  0  0  0
  -24.0440  -10.4950   21.0270 C   0  0  0  0  0  0  0  0  0  0  0  0
  -24.4610   -9.5240   21.9620 C   0  0  0  0  0  3  0  0  0  0  0  0
  -23.7310   -8.3260   22.1210 C   0  0  0  0  0  3  0  0  0  0  0  0
  -22.5750   -8.0880   21.3440 C   0  0  0  0  0  0  0  0  0  0  0  0
  -22.1730   -9.0510   20.4030 C   0  0  0  0  0  3  0  0  0  0  0  0
  -22.9020  -10.2410   20.2400 C   0  0  0  0  0  3  0  0  0  0  0  0
  -21.8250   -6.9380   21.4080 O   0  0  0  0  0  0  0  0  0  0  0  0
  -21.7170   -6.2130   22.5660 C   0  0  0  0  0  0  0  0  0  0  0  0
  -21.1670   -6.7660   23.7440 C   0  0  0  0  0  3  0  0  0  0  0  0
  -21.0140   -5.9640   24.8940 C   0  0  0  0  0  3  0  0  0  0  0  0
  -21.4010   -4.6100   24.8660 C   0  0  0  0  0  0  0  0  0  0  0  0
  -21.9440   -4.0580   23.6930 C   0  0  0  0  0  3  0  0  0  0  0  0
  -22.1010   -4.8580   22.5470 C   0  0  0  0  0  0  0  0  0  0  0  0
  -22.6060   -4.3140   21.4110 F   0  0  0  0  0  0  0  0  0  0  0  0
  -21.2480   -3.8380   25.9680 F   0  0  0  0  0  0  0  0  0  0  0  0
  -22.9340  -13.5870   21.2410 C   0  0  0  0  0  0  0  0  0  0  0  0
  -22.2140  -12.8670   22.0970 N   0  0  0  0  0  0  0  0  0  0  0  0
  -22.4950  -14.6280   20.7620 O   0  0  0  0  0  0  0  0  0  0  0  0
  -22.5880  -12.0260   22.5100 H   0  0  0  0  0  0  0  0  0  0  0  0
  -21.2790  -13.1620   22.3400 H   0  0  0  0  0  0  0  0  0  0  0  0
  -25.5420  -15.2690   20.4340 N   0  0  0  0  0  0  0  0  0  0  0  0
  -24.7600  -15.8990   20.5850 H   0  0  0  0  0  0  0  0  0  0  0  0
  -26.3740  -15.7320   20.0810 H   0  0  0  0  0  0  0  0  0  0  0  0
  -28.3490  -25.2080   19.3860 C   0  0  0  0  0  2  0  0  0  0  0  0
  -28.3150  -26.5020   20.1340 O   0  0  0  0  0  0  0  0  0  0  0  0
  -24.5880  -31.9000   23.2320 C   0  0  0  0  0  0  0  0  0  0  0  0
  -27.2130  -27.3720   20.0930 C   0  0  0  0  0  0  0  0  0  0  0  0
  -23.3970  -30.5150   21.5770 C   0  0  0  0  0  3  0  0  0  0  0  0
  -24.8540  -28.9880   20.1400 C   0  0  0  0  0  0  0  0  0  0  0  0
  -25.9400  -30.8280   21.4190 C   0  0  0  0  0  2  0  0  0  0  0  0
  -26.0190  -29.4590   20.7540 C   0  0  0  0  0  0  0  0  0  0  0  0
  -27.1970  -28.6480   20.7460 C   0  0  0  0  0  3  0  0  0  0  0  0
  -26.0290  -26.9890   19.4300 C   0  0  0  0  0  3  0  0  0  0  0  0
  -24.8570  -27.7570   19.4810 C   0  0  0  0  0  3  0  0  0  0  0  0
  -23.6140  -29.8490   20.1930 C   0  0  0  0  0  2  0  0  0  0  0  0
  -24.6580  -31.1020   22.1300 N   0  0  0  0  0  0  0  0  0  0  0  0
  -23.5040  -32.1720   23.7670 O   0  0  0  0  0  0  0  0  0  0  0  0
  -22.7380  -29.4830   22.5240 C   0  0  0  0  0  0  0  0  0  0  0  0
  -21.4180  -29.2940   22.3790 N   0  0  0  0  0  0  0  0  0  0  0  0
  -23.4170  -28.8610   23.3450 O   0  0  0  0  0  0  0  0  0  0  0  0
  -20.9370  -29.8400   21.6780 H   0  0  0  0  0  0  0  0  0  0  0  0
  -18.0410  -28.1000   22.8860 C   0  0  0  0  0  0  0  0  0  0  0  0
  -20.6020  -28.3450   23.1380 C   0  0  0  0  0  3  0  0  0  0  0  0
  -20.6940  -26.9260   22.5320 C   0  0  0  0  0  2  0  0  0  0  0  0
  -19.5810  -26.6270   21.5210 C   0  0  0  0  0  2  0  0  0  0  0  0
  -18.2060  -26.7630   22.1820 C   0  0  0  0  0  2  0  0  0  0  0  0
  -19.1660  -28.8470   23.3220 C   0  0  0  0  0  0  0  0  0  0  0  0
  -18.9610  -30.0990   23.9440 C   0  0  0  0  0  3  0  0  0  0  0  0
  -17.6610  -30.6020   24.1350 C   0  0  0  0  0  3  0  0  0  0  0  0
  -16.5480  -29.8500   23.7190 C   0  0  0  0  0  3  0  0  0  0  0  0
  -16.7380  -28.6020   23.0980 C   0  0  0  0  0  3  0  0  0  0  0  0
  -25.8670  -32.5330   23.8580 C   0  0  0  0  0  3  0  0  0  0  0  0
  -26.3770  -31.7670   25.1390 C   0  0  1  0  0  0  0  0  0  0  0  0
  -25.2770  -31.5280   26.1960 C   0  0  0  0  0  1  0  0  0  0  0  0
  -26.9690  -30.3830   24.7710 C   0  0  0  0  0  1  0  0  0  0  0  0
  -27.5180  -32.5660   25.8090 C   0  0  0  0  0  1  0  0  0  0  0  0
  -25.5590  -33.9350   24.1810 N   0  0  0  0  0  0  0  0  0  0  0  0
  -25.8900  -34.9840   23.4150 C   0  0  0  0  0  0  0  0  0  0  0  0
  -26.5640  -34.8770   22.3870 O   0  0  0  0  0  0  0  0  0  0  0  0
  -24.9550  -34.0900   24.9740 H   0  0  0  0  0  0  0  0  0  0  0  0
  -24.1730  -36.7840   23.0390 C   0  0  0  0  0  1  0  0  0  0  0  0
  -25.3980  -36.3730   23.8680 C   0  0  0  0  0  3  0  0  0  0  0  0
  -27.5100  -37.2640   24.7500 C   0  0  0  0  0  1  0  0  0  0  0  0
  -26.4350  -37.4220   23.7730 N   0  0  0  0  0  0  0  0  0  0  0  0
  -26.0250  -38.3430   23.9000 H   0  0  0  0  0  0  0  0  0  0  0  0
  1  2  1  0
  1  5  1  0
  2  3  1  0
  4 52  1  0
  4  3  1  0
  5 12  1  0
  5  4  1  0
  6  1  2  0
  8 11  1  0
  9  7  1  0
 10  8  2  0
 10 12  1  0
 11 13  1  0
 11  7  2  0
 12  9  2  0
 13 22  1  0
 14 22  1  0
 15 20  1  0
 16 17  1  0
 16 15  1  0
 18 17  1  0
 18 27  1  0
 18 19  1  0
 20 14  1  0
 20 19  1  0
 21 14  2  0
 22 23  1  0
 24 25  2  0
 25 44  1  0
 26 25  1  0
 26 29  1  0
 27 28  1  0
 27 24  1  0
 28 26  2  0
 29 30  1  0
 30 31  2  0
 32 35  1  0
 32 31  1  0
 33 32  2  0
 34 33  1  0
 34 29  2  0
 35 36  1  0
 36 37  1  0
 37 38  2  0
 39 38  1  0
 39 43  1  0
 40 39  2  0
 41 36  2  0
 41 40  1  0
 42 41  1  0
 44 45  1  0
 45 48  1  0
 45 47  1  0
 46 44  2  0
 49 24  1  0
 49 50  1  0
 51 49  1  0
 52 53  1  0
 54 65  2  0
 55 53  1  0
 55 60  1  0
 56 64  1  0
 56 66  1  0
 57 63  1  0
 57 59  1  0
 58 64  1  0
 59 58  1  0
 60 59  2  0
 61 62  1  0
 61 55  2  0
 62 57  2  0
 63 56  1  0
 64 54  1  0
 66 68  2  0
 67 66  1  0
 69 67  1  0
 70 79  2  0
 70 75  1  0
 71 67  1  0
 71 75  1  0
 72 71  1  0
 73 74  1  0
 73 72  1  0
 74 70  1  0
 75 76  2  0
 76 77  1  0
 78 77  2  0
 79 78  1  0
 80 54  1  0
 80 85  1  0
 80 81  1  0
 81 84  1  1
 81 82  1  0
 83 81  1  0
 85 88  1  0
 86 90  1  0
 86 85  1  0
 87 86  2  0
 90 89  1  0
 92 90  1  0
 92 93  1  0
 92 91  1  0
M  ISO  4  14 100  22 100  52 101  53 101
M  END
>  <TORSDO>  (68) 
F 19

>  <SCORE>  (68) 
-14.262

>  <name>  (68) 
67

>  <ligand_id>  (68) 
67

>  <original_smiles>  (68) 
[H]c1c([H])c([H])c2c(c1[H])C([H])([H])C([H])([H])C([H])([H])C2([H])N([H])C(=O)C1([H])N(C(=O)C([H])(N([H])C(=O)C([H])(N([H])C([H])([H])[H])C([H])([H])[H])C(C([H])([H])[H])(C([H])([H])[H])C([H])([H])[H])C([H])([H])c2c([H])c(OC([H])([H])C3([H])N(c4c([H])c([H])c(C([H])([H])N([H])C(=O)N5C([H])([H])C([H])([H])C([H])([H])C([H])(n6nc(-c7c([H])c([H])c(Oc8c([H])c([H])c(F)c([H])c8F)c([H])c7[H])c(C(=O)N([H])[H])c6N([H])[H])C5([H])[H])c([H])c4[H])C(=O)C([H])([H])C3([H])[H])c([H])c([H])c2C1([H])[H]

>  <smiles>  (68) 
[H]c1c([H])c([H])c2c(c1[H])C([H])([H])C([H])([H])C([H])([H])C2([H])N([H])C(=O)C1([H])N(C(=O)C([H])(N([H])C(=O)C([H])(N([H])C([H])([H])[H])C([H])([H])[H])C(C([H])([H])[H])(C([H])([H])[H])C([H])([H])[H])C([H])([H])c2c([H])c(OC([H])([H])C3([H])N(c4c([H])c([H])c(C([H])([H])N([H])C(=O)N5C([H])([H])C([H])([H])C([H])([H])C([H])(n6nc(-c7c([H])c([H])c(Oc8c([H])c([H])c(F)c([H])c8F)c([H])c7[H])c(C(=O)N([H])[H])c6N([H])[H])C5([H])[H])c([H])c4[H])C(=O)C([H])([H])C3([H])[H])c([H])c([H])c2C1([H])[H]

$$$$
68:0:0
     RDKit          3D

 97100  0  0  1  0  0  0  0  0999 V2000
  -20.1520  -24.3190   20.2270 C   0  0  0  0  0  3  0  0  0  0  0  0
  -19.0110  -25.8510   19.6800 C   0  0  0  0  0 15  0  0  0  0  0  0
  -19.3860  -27.9300   19.6160 C   0  0  0  0  0 15  0  0  0  0  0  0
  -20.7320  -25.7250   22.2880 C   0  0  0  0  0 15  0  0  0  0  0  0
  -20.8080  -28.6040   21.0720 C   0  0  0  0  0  2  0  0  0  0  0  0
  -21.5070  -24.2950   21.0540 N   0  0  0  0  0  1  0  0  0  0  0  0
  -19.7770  -23.2400   19.7600 O   0  0  0  0  0  0  0  0  0  0  0  0
  -26.2080  -22.1490   20.6570 C   0  0  0  0  0  3  0  0  0  0  0  0
  -25.4220  -21.6420   18.9310 C   0  0  0  0  0  3  0  0  0  0  0  0
  -24.7840  -22.9440   21.1130 C   0  0  0  0  0  3  0  0  0  0  0  0
  -23.3040  -23.3050   20.5490 C   0  0  0  0  0  3  0  0  0  0  0  0
  -26.9160  -21.2810   19.4720 C   0  0  0  0  0  2  0  0  0  0  0  0
  -23.9840  -22.4430   19.3410 C   0  0  0  0  0  0  0  0  0  0  0  0
  -24.9080  -23.4670   22.5330 C   0  0  0  0  0  1  0  0  0  0  0  0
  -30.2930  -19.4200   18.5940 C   0  0  0  0  0  0  0  0  0  0  0  0
  -32.0760  -17.2610   17.6430 C   0  0  0  0  0  2  0  0  0  0  0  0
  -31.6610  -16.0030   16.7560 C   0  0  0  0  0  2  0  0  0  0  0  0
  -30.6760  -15.0970   17.5010 C   0  0  0  0  0  2  0  0  0  0  0  0
  -29.8650  -16.0270   18.4030 C   0  0  0  0  0  3  0  0  0  0  0  0
  -30.6840  -16.8690   19.3670 C   0  0  0  0  0  2  0  0  0  0  0  0
  -30.9020  -17.9890   18.5080 N   0  0  0  0  0  0  0  0  0  0  0  0
  -31.4210  -19.8540   18.0960 O   0  0  0  0  0  0  0  0  0  0  0  0
  -28.7950  -20.4130   19.0410 N   0  0  0  0  0  2  0  0  0  0  0  0
  -29.3390  -21.2660   19.0220 H   0  0  0  0  0  0  0  0  0  0  0  0
  -28.0190  -16.2200   20.0020 C   0  0  0  0  0  0  0  0  0  0  0  0
  -27.1990  -15.2920   20.5460 C   0  0  0  0  0  0  0  0  0  0  0  0
  -27.6360  -14.0300   20.0320 C   0  0  0  0  0  0  0  0  0  0  0  0
  -28.8390  -15.4880   19.1750 N   0  0  0  0  0  0  0  0  0  0  0  0
  -28.6940  -14.1610   19.2570 N   0  0  0  0  0  0  0  0  0  0  0  0
  -27.0560  -12.7080   20.1540 C   0  0  0  0  0  0  0  0  0  0  0  0
  -27.5950  -11.7450   21.0320 C   0  0  0  0  0  3  0  0  0  0  0  0
  -26.9970  -10.4750   21.1290 C   0  0  0  0  0  3  0  0  0  0  0  0
  -25.8580  -10.1690   20.3460 C   0  0  0  0  0  0  0  0  0  0  0  0
  -25.3510  -11.1260   19.4510 C   0  0  0  0  0  3  0  0  0  0  0  0
  -25.9490  -12.3890   19.3500 C   0  0  0  0  0  3  0  0  0  0  0  0
  -25.2180   -8.9580   20.3610 O   0  0  0  0  0  0  0  0  0  0  0  0
  -24.5280   -8.5310   21.4660 C   0  0  0  0  0  0  0  0  0  0  0  0
  -23.8660   -9.4330   22.3280 C   0  0  0  0  0  3  0  0  0  0  0  0
  -23.1100   -8.9440   23.4090 C   0  0  0  0  0  3  0  0  0  0  0  0
  -23.0080   -7.5560   23.6260 C   0  0  0  0  0  0  0  0  0  0  0  0
  -23.6630   -6.6570   22.7660 C   0  0  0  0  0  3  0  0  0  0  0  0
  -24.4200   -7.1450   21.6870 C   0  0  0  0  0  0  0  0  0  0  0  0
  -25.0350   -6.2770   20.8480 F   0  0  0  0  0  0  0  0  0  0  0  0
  -22.2730   -7.0830   24.6590 F   0  0  0  0  0  0  0  0  0  0  0  0
  -26.0100  -15.5890   21.3950 C   0  0  0  0  0  0  0  0  0  0  0  0
  -25.6070  -14.6390   22.2270 N   0  0  0  0  0  0  0  0  0  0  0  0
  -25.4650  -16.6910   21.3560 O   0  0  0  0  0  0  0  0  0  0  0  0
  -26.0770  -13.7470   22.2680 H   0  0  0  0  0  0  0  0  0  0  0  0
  -24.8160  -14.8060   22.8320 H   0  0  0  0  0  0  0  0  0  0  0  0
  -28.1190  -17.6070   20.1160 N   0  0  0  0  0  0  0  0  0  0  0  0
  -27.4790  -18.1300   20.7020 H   0  0  0  0  0  0  0  0  0  0  0  0
  -28.7220  -18.2060   19.5720 H   0  0  0  0  0  0  0  0  0  0  0  0
  -23.0770  -22.3580   18.2820 N   0  0  0  0  0  0  0  0  0  0  0  0
  -23.4120  -22.0930   17.3590 H   0  0  0  0  0  0  0  0  0  0  0  0
  -22.3080  -23.0200   18.2440 H   0  0  0  0  0  0  0  0  0  0  0  0
  -22.7250  -29.2230   20.6460 C   0  0  0  0  0  1  0  0  0  0  0  0
  -24.5020  -28.8280   21.0620 O   0  0  0  0  0  0  0  0  0  0  0  0
  -26.1480  -31.1320   25.7630 C   0  0  0  0  0  0  0  0  0  0  0  0
  -25.8500  -28.9830   20.5000 C   0  0  0  0  0  3  0  0  0  0  0  0
  -24.5190  -31.4460   23.9760 C   0  0  0  0  0  3  0  0  0  0  0  0
  -25.4040  -31.2690   21.5240 C   0  0  0  0  0  3  0  0  0  0  0  0
  -26.9850  -31.0630   23.4200 C   0  0  0  0  0  2  0  0  0  0  0  0
  -26.4710  -30.5770   22.0890 C   0  0  0  0  0  3  0  0  0  0  0  0
  -26.8610  -29.4030   21.4250 C   0  0  0  0  0  2  0  0  0  0  0  0
  -25.6370  -29.8880   19.5060 C   0  0  0  0  0  2  0  0  0  0  0  0
  -25.1270  -31.0430   20.1310 C   0  0  0  0  0  2  0  0  0  0  0  0
  -24.5570  -32.0490   22.5200 C   0  0  0  0  0  2  0  0  0  0  0  0
  -25.9170  -31.2520   24.4340 N   0  0  0  0  0  0  0  0  0  0  0  0
  -25.2330  -31.2510   26.5920 O   0  0  0  0  0  0  0  0  0  0  0  0
  -23.7870  -30.0990   24.2740 C   0  0  0  0  0  0  0  0  0  0  0  0
  -22.5480  -30.0470   24.7350 N   0  0  0  0  0  0  0  0  0  0  0  0
  -24.4080  -29.0430   24.2130 O   0  0  0  0  0  0  0  0  0  0  0  0
  -22.0500  -30.9050   24.9210 H   0  0  0  0  0  0  0  0  0  0  0  0
  -19.9030  -28.6960   22.7590 C   0  0  0  0  0  0  0  0  0  0  0  0
  -21.7440  -28.7870   24.6800 C   0  0  0  0  0  3  0  0  0  0  0  0
  -22.6630  -27.5170   23.9490 C   0  0  0  0  0  2  0  0  0  0  0  0
  -22.8620  -26.9110   22.2830 C   0  0  0  0  0  2  0  0  0  0  0  0
  -21.6460  -27.3880   21.1970 C   0  0  0  0  0  2  0  0  0  0  0  0
  -20.3320  -29.2260   24.1550 C   0  0  0  0  0  0  0  0  0  0  0  0
  -19.8200  -30.2990   25.0580 C   0  0  0  0  0  3  0  0  0  0  0  0
  -18.6890  -31.0860   24.8480 C   0  0  0  0  0  3  0  0  0  0  0  0
  -18.0670  -30.6870   23.6560 C   0  0  0  0  0  3  0  0  0  0  0  0
  -18.6340  -29.6380   22.7240 C   0  0  0  0  0  3  0  0  0  0  0  0
  -27.5800  -30.8730   26.2880 C   0  0  0  0  0  3  0  0  0  0  0  0
  -27.9820  -29.3500   26.2970 C   0  0  1  0  0  0  0  0  0  0  0  0
  -26.9470  -28.4310   26.9830 C   0  0  0  0  0  1  0  0  0  0  0  0
  -28.2020  -28.8100   24.8650 C   0  0  0  0  0  1  0  0  0  0  0  0
  -29.3340  -29.1900   27.0320 C   0  0  0  0  0  1  0  0  0  0  0  0
  -27.6090  -31.4350   27.6390 N   0  0  0  0  0  0  0  0  0  0  0  0
  -28.0770  -32.6520   27.9350 C   0  0  0  0  0  0  0  0  0  0  0  0
  -28.6270  -33.3780   27.1040 O   0  0  0  0  0  0  0  0  0  0  0  0
  -27.1280  -30.9150   28.3590 H   0  0  0  0  0  0  0  0  0  0  0  0
  -26.7980  -34.1800   29.4680 C   0  0  0  0  0  1  0  0  0  0  0  0
  -27.9170  -33.1310   29.3890 C   0  0  0  0  0  3  0  0  0  0  0  0
  -30.1940  -32.6680   30.1760 C   0  0  0  0  0  1  0  0  0  0  0  0
  -29.1640  -33.6800   29.9610 N   0  0  0  0  0  0  0  0  0  0  0  0
  -28.9790  -34.1400   30.8500 H   0  0  0  0  0  0  0  0  0  0  0  0
  1  6  1  0
  5 78  1  0
  5 74  1  0
  7  1  2  0
  8 12  1  0
  8 10  1  0
  9 13  1  0
  9 12  1  0
  9  8  1  0
 10 14  1  0
 11 10  1  0
 13 11  2  0
 15 23  1  0
 16 21  1  0
 17 18  1  0
 17 16  1  0
 19 18  1  0
 19 28  1  0
 19 20  1  0
 21 15  1  0
 21 20  1  0
 22 15  2  0
 24 23  1  0
 25 50  1  0
 25 26  2  0
 26 45  1  0
 27 30  1  0
 27 26  1  0
 28 29  1  0
 28 25  1  0
 29 27  2  0
 30 31  1  0
 31 32  2  0
 33 36  1  0
 33 32  1  0
 34 33  2  0
 35 34  1  0
 35 30  2  0
 36 37  1  0
 37 42  2  0
 37 38  1  0
 38 39  2  0
 39 40  1  0
 40 44  1  0
 41 40  2  0
 42 41  1  0
 43 42  1  0
 45 46  1  0
 46 48  1  0
 46 49  1  0
 47 45  2  0
 50 51  1  0
 52 50  1  0
 53 13  1  0
 54 53  1  0
 55 53  1  0
 56 57  1  0
 58 69  2  0
 59 57  1  0
 59 64  1  0
 60 70  1  0
 60 68  1  0
 61 66  1  0
 61 63  1  0
 61 67  1  0
 62 68  1  0
 63 64  1  0
 63 62  1  0
 65 66  1  0
 65 59  1  0
 67 60  1  0
 68 58  1  0
 70 71  1  0
 71 73  1  0
 72 70  2  0
 74 79  1  0
 75 71  1  0
 76 75  1  0
 77 76  1  0
 78 77  1  0
 79 75  1  0
 79 80  2  0
 81 80  1  0
 82 81  2  0
 83 74  2  0
 83 82  1  0
 84 58  1  0
 84 85  1  0
 84 89  1  0
 85 86  1  1
 85 88  1  0
 87 85  1  0
 89 90  1  0
 89 92  1  0
 90 94  1  0
 91 90  2  0
 94 93  1  0
 94 96  1  0
 96 95  1  0
 96 97  1  0
M  ISO  4  15 100  23 100  56 101  57 101
M  END
>  <TORSDO>  (69) 
F 19

>  <SCORE>  (69) 
11.592

>  <name>  (69) 
68

>  <ligand_id>  (69) 
68

>  <original_smiles>  (69) 
[H]c1c([H])c([H])c2c(c1[H])C([H])([H])C([H])([H])C([H])([H])C2([H])N([H])C(=O)C1([H])N(C(=O)C([H])(N([H])C(=O)C([H])(N([H])C([H])([H])[H])C([H])([H])[H])C(C([H])([H])[H])(C([H])([H])[H])C([H])([H])[H])C([H])([H])c2c([H])c(OC([H])([H])C3([H])C([H])([H])N(c4c(N([H])[H])c([H])c(N([H])C(=O)N5C([H])([H])C([H])([H])C([H])([H])C([H])(n6nc(-c7c([H])c([H])c(Oc8c([H])c([H])c(F)c([H])c8F)c([H])c7[H])c(C(=O)N([H])[H])c6N([H])[H])C5([H])[H])c([H])c4C([H])([H])[H])C(=O)C([H])([H])C3([H])[H])c([H])c([H])c2C1([H])[H]

>  <smiles>  (69) 
[H]c1c([H])c([H])c2c(c1[H])C([H])([H])C([H])([H])C([H])([H])C2([H])N([H])C(=O)C1([H])N(C(=O)C([H])(N([H])C(=O)C([H])(N([H])C([H])([H])[H])C([H])([H])[H])C(C([H])([H])[H])(C([H])([H])[H])C([H])([H])[H])C([H])([H])c2c([H])c(OC([H])([H])C3([H])C([H])([H])N(c4c(N([H])[H])c([H])c(N([H])C(=O)N5C([H])([H])C([H])([H])C([H])([H])C([H])(n6nc(-c7c([H])c([H])c(Oc8c([H])c([H])c(F)c([H])c8F)c([H])c7[H])c(C(=O)N([H])[H])c6N([H])[H])C5([H])[H])c([H])c4C([H])([H])[H])C(=O)C([H])([H])C3([H])[H])c([H])c([H])c2C1([H])[H]

$$$$
69:0:0
     RDKit          3D

 96105  0  0  1  0  0  0  0  0999 V2000
  -30.2790  -19.1020   22.1910 C   0  0  0  0  0  3  0  0  0  0  0  0
  -29.8620  -20.2110   19.6590 C   0  0  0  0  0  3  0  0  0  0  0  0
  -30.2540  -18.2230   21.0830 C   0  0  0  0  0  0  0  0  0  0  0  0
  -30.0020  -18.7970   19.8010 C   0  0  0  0  0  0  0  0  0  0  0  0
  -29.9100  -21.0800   20.7810 C   0  0  0  0  0  0  0  0  0  0  0  0
  -30.1100  -20.4950   22.0550 C   0  0  0  0  0  0  0  0  0  0  0  0
  -29.9460  -17.9250   18.5540 C   0  0  0  0  0  1  0  0  0  0  0  0
  -30.2480  -21.2790   23.1530 F   0  0  0  0  0  0  0  0  0  0  0  0
  -30.7650  -14.6260   20.2740 C   0  0  0  0  0  0  0  0  0  0  0  0
  -30.3760  -12.5050   19.0580 C   0  0  0  0  0  2  0  0  0  0  0  0
  -29.4060  -12.7040   17.8770 C   0  0  0  0  0  2  0  0  0  0  0  0
  -27.9440  -12.5580   18.3410 C   0  0  0  0  0  2  0  0  0  0  0  0
  -27.6360  -13.3800   19.6240 C   0  0  0  0  0  3  0  0  0  0  0  0
  -28.7260  -13.1860   20.7010 C   0  0  0  0  0  2  0  0  0  0  0  0
  -30.0210  -13.5010   20.0790 N   0  0  0  0  0  0  0  0  0  0  0  0
  -31.9240  -14.6990   19.8440 O   0  0  0  0  0  0  0  0  0  0  0  0
  -30.7600  -16.7980   21.2920 C   0  0  0  0  0  0  0  0  0  0  0  0
  -30.1290  -15.7310   20.7430 N   0  0  0  0  0  0  0  0  0  0  0  0
  -31.7570  -16.6650   22.0120 O   0  0  0  0  0  0  0  0  0  0  0  0
  -29.1410  -15.8060   20.5610 H   0  0  0  0  0  0  0  0  0  0  0  0
  -25.2680  -13.9670   20.4310 C   0  0  0  0  0  0  0  0  0  0  0  0
  -24.2160  -13.1870   20.8270 C   0  0  0  0  0  0  0  0  0  0  0  0
  -24.6780  -11.8370   20.7630 C   0  0  0  0  0  0  0  0  0  0  0  0
  -26.3030  -13.0910   20.1480 N   0  0  0  0  0  0  0  0  0  0  0  0
  -25.9550  -11.8040   20.4090 N   0  0  0  0  0  0  0  0  0  0  0  0
  -23.9580  -10.5720   20.9600 C   0  0  0  0  0  0  0  0  0  0  0  0
  -24.4050   -9.6030   21.8830 C   0  0  0  0  0  3  0  0  0  0  0  0
  -23.6850   -8.4030   22.0670 C   0  0  0  0  0  3  0  0  0  0  0  0
  -22.5000   -8.1640   21.3290 C   0  0  0  0  0  0  0  0  0  0  0  0
  -22.0750   -9.1220   20.3920 C   0  0  0  0  0  3  0  0  0  0  0  0
  -22.7960  -10.3130   20.2070 C   0  0  0  0  0  3  0  0  0  0  0  0
  -21.7520   -7.0160   21.4210 O   0  0  0  0  0  0  0  0  0  0  0  0
  -21.7160   -6.2720   22.5730 C   0  0  0  0  0  0  0  0  0  0  0  0
  -21.2760   -6.8140   23.8020 C   0  0  0  0  0  3  0  0  0  0  0  0
  -21.1920   -5.9930   24.9430 C   0  0  0  0  0  3  0  0  0  0  0  0
  -21.5370   -4.6300   24.8580 C   0  0  0  0  0  0  0  0  0  0  0  0
  -21.9690   -4.0880   23.6350 C   0  0  0  0  0  3  0  0  0  0  0  0
  -22.0590   -4.9080   22.4970 C   0  0  0  0  0  0  0  0  0  0  0  0
  -22.4560   -4.3740   21.3160 F   0  0  0  0  0  0  0  0  0  0  0  0
  -21.4480   -3.8420   25.9530 F   0  0  0  0  0  0  0  0  0  0  0  0
  -22.8280  -13.6620   21.1470 C   0  0  0  0  0  0  0  0  0  0  0  0
  -22.1190  -12.9480   22.0140 N   0  0  0  0  0  0  0  0  0  0  0  0
  -22.3820  -14.7020   20.6640 O   0  0  0  0  0  0  0  0  0  0  0  0
  -22.4970  -12.1110   22.4330 H   0  0  0  0  0  0  0  0  0  0  0  0
  -21.1890  -13.2470   22.2670 H   0  0  0  0  0  0  0  0  0  0  0  0
  -25.4260  -15.3390   20.2650 N   0  0  0  0  0  0  0  0  0  0  0  0
  -24.6530  -15.9800   20.3990 H   0  0  0  0  0  0  0  0  0  0  0  0
  -26.2440  -15.7840   19.8710 H   0  0  0  0  0  0  0  0  0  0  0  0
  -29.0160  -23.3360   21.3110 C   0  0  0  0  0  0  0  0  0  0  0  0
  -30.7550  -24.7630   20.4450 C   0  0  0  0  0  2  0  0  0  0  0  0
  -30.9270  -23.2900   19.9960 C   0  0  0  0  0  2  0  0  0  0  0  0
  -29.5950  -24.7510   21.4450 C   0  0  0  0  0  3  0  0  0  0  0  0
  -29.8590  -22.5180   20.6430 N   0  0  0  0  0  0  0  0  0  0  0  0
  -27.9270  -23.0140   21.7930 O   0  0  0  0  0  0  0  0  0  0  0  0
  -28.6170  -25.9740   21.4840 C   0  0  0  0  0  2  0  0  0  0  0  0
  -28.4590  -26.7230   20.2680 O   0  0  0  0  0  0  0  0  0  0  0  0
  -24.5840  -31.9340   23.2670 C   0  0  0  0  0  0  0  0  0  0  0  0
  -27.3200  -27.4980   20.2490 C   0  0  0  0  0  0  0  0  0  0  0  0
  -23.4140  -30.5120   21.6140 C   0  0  0  0  0  3  0  0  0  0  0  0
  -24.9090  -28.9830   20.2120 C   0  0  0  0  0  0  0  0  0  0  0  0
  -25.9350  -30.8990   21.4450 C   0  0  0  0  0  2  0  0  0  0  0  0
  -26.0500  -29.5220   20.8190 C   0  0  0  0  0  0  0  0  0  0  0  0
  -27.2580  -28.7810   20.8450 C   0  0  0  0  0  3  0  0  0  0  0  0
  -26.1660  -26.9790   19.6280 C   0  0  0  0  0  3  0  0  0  0  0  0
  -24.9610  -27.7100   19.6160 C   0  0  0  0  0  3  0  0  0  0  0  0
  -23.6520  -29.8270   20.2380 C   0  0  0  0  0  2  0  0  0  0  0  0
  -24.6600  -31.1310   22.1680 N   0  0  0  0  0  0  0  0  0  0  0  0
  -23.4960  -32.2010   23.7950 O   0  0  0  0  0  0  0  0  0  0  0  0
  -22.7630  -29.4890   22.5720 C   0  0  0  0  0  0  0  0  0  0  0  0
  -21.4390  -29.2990   22.4330 N   0  0  0  0  0  0  0  0  0  0  0  0
  -23.4470  -28.8680   23.3910 O   0  0  0  0  0  0  0  0  0  0  0  0
  -20.9510  -29.8540   21.7440 H   0  0  0  0  0  0  0  0  0  0  0  0
  -18.0660  -28.1070   22.9410 C   0  0  0  0  0  0  0  0  0  0  0  0
  -20.6260  -28.3550   23.2010 C   0  0  0  0  0  3  0  0  0  0  0  0
  -20.7180  -26.9310   22.6090 C   0  0  0  0  0  2  0  0  0  0  0  0
  -19.6100  -26.6240   21.5940 C   0  0  0  0  0  2  0  0  0  0  0  0
  -18.2340  -26.7650   22.2480 C   0  0  0  0  0  2  0  0  0  0  0  0
  -19.1890  -28.8610   23.3740 C   0  0  0  0  0  0  0  0  0  0  0  0
  -18.9750  -30.1220   23.9740 C   0  0  0  0  0  3  0  0  0  0  0  0
  -17.6720  -30.6240   24.1470 C   0  0  0  0  0  3  0  0  0  0  0  0
  -16.5650  -29.8660   23.7270 C   0  0  0  0  0  3  0  0  0  0  0  0
  -16.7630  -28.6090   23.1300 C   0  0  0  0  0  3  0  0  0  0  0  0
  -25.8610  -32.5740   23.8990 C   0  0  0  0  0  3  0  0  0  0  0  0
  -25.5490  -33.9750   24.2000 N   0  0  0  0  0  0  0  0  0  0  0  0
  -25.9010  -35.0140   23.4310 C   0  0  0  0  0  0  0  0  0  0  0  0
  -26.5960  -34.8910   22.4190 O   0  0  0  0  0  0  0  0  0  0  0  0
  -24.9260  -34.1430   24.9770 H   0  0  0  0  0  0  0  0  0  0  0  0
  -24.1950  -36.8070   22.9820 C   0  0  0  0  0  1  0  0  0  0  0  0
  -25.4010  -36.4110   23.8520 C   0  0  0  0  0  3  0  0  0  0  0  0
  -27.5020  -37.2980   24.7630 C   0  0  0  0  0  1  0  0  0  0  0  0
  -26.4410  -37.4580   23.7700 N   0  0  0  0  0  0  0  0  0  0  0  0
  -26.0340  -38.3820   23.8800 H   0  0  0  0  0  0  0  0  0  0  0  0
  -26.3560  -31.8240   25.1950 C   0  0  1  0  0  0  0  0  0  0  0  0
  -25.2430  -31.5940   26.2460 C   0  0  0  0  0  1  0  0  0  0  0  0
  -26.9560  -30.4450   24.8330 C   0  0  0  0  0  1  0  0  0  0  0  0
  -27.4900  -32.6350   25.8680 C   0  0  0  0  0  1  0  0  0  0  0  0
  2  4  2  0
  2  5  1  0
  3 17  1  0
  3  1  2  0
  4  3  1  0
  5  6  2  0
  6  1  1  0
  6  8  1  0
  7  4  1  0
  9 18  1  0
 10 15  1  0
 11 12  1  0
 11 10  1  0
 13 12  1  0
 13 24  1  0
 13 14  1  0
 15  9  1  0
 15 14  1  0
 16  9  2  0
 17 19  2  0
 18 17  1  0
 20 18  1  0
 21 22  2  0
 22 41  1  0
 23 22  1  0
 23 26  1  0
 24 25  1  0
 24 21  1  0
 25 23  2  0
 26 27  1  0
 27 28  2  0
 29 32  1  0
 29 28  1  0
 30 29  2  0
 31 30  1  0
 31 26  2  0
 32 33  1  0
 33 34  1  0
 34 35  2  0
 36 35  1  0
 36 40  1  0
 37 36  2  0
 38 33  2  0
 38 37  1  0
 39 38  1  0
 41 42  1  0
 42 45  1  0
 42 44  1  0
 43 41  2  0
 46 47  1  0
 46 21  1  0
 48 46  1  0
 49 52  1  0
 49 54  2  0
 50 52  1  0
 51 50  1  0
 51 53  1  0
 52 55  1  0
 53  5  1  0
 53 49  1  0
 56 55  1  0
 57 68  2  0
 58 56  1  0
 58 63  1  0
 59 67  1  0
 59 69  1  0
 60 66  1  0
 60 62  1  0
 61 67  1  0
 62 63  2  0
 62 61  1  0
 64 58  2  0
 65 64  1  0
 65 60  2  0
 66 59  1  0
 67 57  1  0
 69 71  2  0
 70 69  1  0
 72 70  1  0
 73 82  2  0
 73 78  1  0
 74 70  1  0
 74 78  1  0
 75 74  1  0
 76 77  1  0
 76 75  1  0
 77 73  1  0
 78 79  2  0
 79 80  1  0
 81 80  2  0
 82 81  1  0
 83 57  1  0
 83 84  1  0
 83 93  1  0
 84 87  1  0
 85 89  1  0
 85 84  1  0
 86 85  2  0
 89 88  1  0
 91 89  1  0
 91 92  1  0
 91 90  1  0
 93 96  1  1
 93 94  1  0
 95 93  1  0
M  ISO  4   9 100  18 100  55 101  56 101
M  END
>  <TORSDO>  (70) 
F 18

>  <SCORE>  (70) 
-14.357

>  <name>  (70) 
69

>  <ligand_id>  (70) 
69

>  <original_smiles>  (70) 
[H]c1c([H])c([H])c2c(c1[H])C([H])([H])C([H])([H])C([H])([H])C2([H])N([H])C(=O)C1([H])N(C(=O)C([H])(N([H])C(=O)C([H])(N([H])C([H])([H])[H])C([H])([H])[H])C(C([H])([H])[H])(C([H])([H])[H])C([H])([H])[H])C([H])([H])c2c([H])c(OC([H])([H])C3([H])C(=O)N(c4c([H])c(C([H])([H])[H])c(C(=O)N([H])C(=O)N5C([H])([H])C([H])([H])C([H])([H])C([H])(n6nc(-c7c([H])c([H])c(Oc8c([H])c([H])c(F)c([H])c8F)c([H])c7[H])c(C(=O)N([H])[H])c6N([H])[H])C5([H])[H])c([H])c4F)C([H])([H])C3([H])[H])c([H])c([H])c2C1([H])[H]

>  <smiles>  (70) 
[H]c1c([H])c([H])c2c(c1[H])C([H])([H])C([H])([H])C([H])([H])C2([H])N([H])C(=O)C1([H])N(C(=O)C([H])(N([H])C(=O)C([H])(N([H])C([H])([H])[H])C([H])([H])[H])C(C([H])([H])[H])(C([H])([H])[H])C([H])([H])[H])C([H])([H])c2c([H])c(OC([H])([H])C3([H])C(=O)N(c4c([H])c(C([H])([H])[H])c(C(=O)N([H])C(=O)N5C([H])([H])C([H])([H])C([H])([H])C([H])(n6nc(-c7c([H])c([H])c(Oc8c([H])c([H])c(F)c([H])c8F)c([H])c7[H])c(C(=O)N([H])[H])c6N([H])[H])C5([H])[H])c([H])c4F)C([H])([H])C3([H])[H])c([H])c([H])c2C1([H])[H]

$$$$
70:0:0
     RDKit          3D

 91 99  0  0  1  0  0  0  0  0999 V2000
  -30.5540  -19.2340   20.0210 C   0  0  0  0  0  3  0  0  0  0  0  0
  -28.3040  -18.8930   20.2190 C   0  0  0  0  0  3  0  0  0  0  0  0
  -29.0270  -21.4390   20.0650 C   0  0  0  0  0  0  0  0  0  0  0  0
  -29.5670  -18.1630   20.1400 C   0  0  0  0  0  3  0  0  0  0  0  0
  -30.3100  -20.7160   19.9900 C   0  0  0  0  0  0  0  0  0  0  0  0
  -28.0480  -20.3570   20.1870 C   0  0  0  0  0  0  0  0  0  0  0  0
  -26.7450  -20.7220   20.2850 F   0  0  0  0  0  0  0  0  0  0  0  0
  -30.5010  -15.3430   19.9770 C   0  0  0  0  0  0  0  0  0  0  0  0
  -30.4800  -12.9060   19.0770 C   0  0  0  0  0  2  0  0  0  0  0  0
  -29.4980  -12.7190   17.8920 C   0  0  0  0  0  2  0  0  0  0  0  0
  -28.0710  -12.4390   18.3970 C   0  0  0  0  0  2  0  0  0  0  0  0
  -27.6740  -13.3820   19.5600 C   0  0  0  0  0  3  0  0  0  0  0  0
  -28.7760  -13.5010   20.6350 C   0  0  0  0  0  2  0  0  0  0  0  0
  -29.9750  -14.0210   19.9570 N   0  0  0  0  0  0  0  0  0  0  0  0
  -31.6990  -15.4010   19.6600 O   0  0  0  0  0  0  0  0  0  0  0  0
  -29.6520  -16.5370   20.1800 N   0  0  0  0  0  0  0  0  0  0  0  0
  -28.7450  -16.1690   20.4210 H   0  0  0  0  0  0  0  0  0  0  0  0
  -25.3420  -13.9240   20.4420 C   0  0  0  0  0  0  0  0  0  0  0  0
  -24.3010  -13.1380   20.8510 C   0  0  0  0  0  0  0  0  0  0  0  0
  -24.7660  -11.7890   20.7680 C   0  0  0  0  0  0  0  0  0  0  0  0
  -26.3720  -13.0550   20.1270 N   0  0  0  0  0  0  0  0  0  0  0  0
  -26.0410  -11.7640   20.3900 N   0  0  0  0  0  0  0  0  0  0  0  0
  -24.0500  -10.5220   20.9670 C   0  0  0  0  0  0  0  0  0  0  0  0
  -24.4990   -9.5570   21.8960 C   0  0  0  0  0  3  0  0  0  0  0  0
  -23.7800   -8.3560   22.0840 C   0  0  0  0  0  3  0  0  0  0  0  0
  -22.5980   -8.1130   21.3450 C   0  0  0  0  0  0  0  0  0  0  0  0
  -22.1690   -9.0670   20.4050 C   0  0  0  0  0  3  0  0  0  0  0  0
  -22.8880  -10.2590   20.2150 C   0  0  0  0  0  3  0  0  0  0  0  0
  -21.8490   -6.9650   21.4430 O   0  0  0  0  0  0  0  0  0  0  0  0
  -21.7800   -6.2490   22.6110 C   0  0  0  0  0  0  0  0  0  0  0  0
  -21.2800   -6.8160   23.8040 C   0  0  0  0  0  3  0  0  0  0  0  0
  -21.1610   -6.0240   24.9630 C   0  0  0  0  0  3  0  0  0  0  0  0
  -21.5310   -4.6670   24.9310 C   0  0  0  0  0  0  0  0  0  0  0  0
  -22.0240   -4.0990   23.7430 C   0  0  0  0  0  3  0  0  0  0  0  0
  -22.1440   -4.8880   22.5860 C   0  0  0  0  0  0  0  0  0  0  0  0
  -22.5990   -4.3300   21.4380 F   0  0  0  0  0  0  0  0  0  0  0  0
  -21.4100   -3.9040   26.0430 F   0  0  0  0  0  0  0  0  0  0  0  0
  -22.9190  -13.6070   21.1970 C   0  0  0  0  0  0  0  0  0  0  0  0
  -22.2380  -12.9010   22.0920 N   0  0  0  0  0  0  0  0  0  0  0  0
  -22.4530  -14.6370   20.7090 O   0  0  0  0  0  0  0  0  0  0  0  0
  -22.6300  -12.0690   22.5090 H   0  0  0  0  0  0  0  0  0  0  0  0
  -21.3120  -13.1980   22.3670 H   0  0  0  0  0  0  0  0  0  0  0  0
  -25.4910  -15.2980   20.2810 N   0  0  0  0  0  0  0  0  0  0  0  0
  -24.7140  -15.9360   20.4240 H   0  0  0  0  0  0  0  0  0  0  0  0
  -26.2820  -15.7370   19.8290 H   0  0  0  0  0  0  0  0  0  0  0  0
  -31.4440  -21.5210   19.8670 N   0  0  0  0  0  0  0  0  0  0  0  0
  -32.3510  -21.1410   20.1170 H   0  0  0  0  0  0  0  0  0  0  0  0
  -31.3520  -22.5100   20.0800 H   0  0  0  0  0  0  0  0  0  0  0  0
  -28.7720  -23.1420   20.0290 C   0  0  0  0  0  0  0  0  0  0  0  0
  -28.0140  -24.4240   20.0430 C   0  0  0  0  0  3  0  0  0  0  0  0
  -28.3100  -25.9270   20.0090 O   0  0  0  0  0  0  0  0  0  0  0  0
  -24.7330  -31.7770   23.2130 C   0  0  0  0  0  0  0  0  0  0  0  0
  -27.3080  -27.0340   20.0140 C   0  0  0  0  0  0  0  0  0  0  0  0
  -23.5570  -30.4670   21.4930 C   0  0  0  0  0  3  0  0  0  0  0  0
  -25.0180  -28.9230   20.0210 C   0  0  0  0  0  0  0  0  0  0  0  0
  -26.1250  -30.6680   21.3990 C   0  0  0  0  0  2  0  0  0  0  0  0
  -26.1970  -29.2900   20.6820 C   0  0  0  0  0  0  0  0  0  0  0  0
  -27.3350  -28.3650   20.6620 C   0  0  0  0  0  3  0  0  0  0  0  0
  -26.1060  -26.8280   19.3000 C   0  0  0  0  0  3  0  0  0  0  0  0
  -24.9970  -27.7130   19.3110 C   0  0  0  0  0  3  0  0  0  0  0  0
  -23.8040  -29.8480   20.0910 C   0  0  0  0  0  2  0  0  0  0  0  0
  -24.8260  -30.9960   22.0900 N   0  0  0  0  0  0  0  0  0  0  0  0
  -23.6370  -32.0490   23.7310 O   0  0  0  0  0  0  0  0  0  0  0  0
  -22.8420  -29.4300   22.4000 C   0  0  0  0  0  0  0  0  0  0  0  0
  -21.5090  -29.2980   22.2640 N   0  0  0  0  0  0  0  0  0  0  0  0
  -23.4930  -28.7480   23.1940 O   0  0  0  0  0  0  0  0  0  0  0  0
  -21.0380  -29.9000   21.6040 H   0  0  0  0  0  0  0  0  0  0  0  0
  -18.0940  -28.1770   22.7570 C   0  0  0  0  0  0  0  0  0  0  0  0
  -20.6670  -28.3350   22.9810 C   0  0  0  0  0  3  0  0  0  0  0  0
  -20.7050  -26.9470   22.2980 C   0  0  0  0  0  2  0  0  0  0  0  0
  -19.5710  -26.7410   21.2880 C   0  0  0  0  0  2  0  0  0  0  0  0
  -18.2090  -26.8800   21.9740 C   0  0  0  0  0  2  0  0  0  0  0  0
  -19.2470  -28.8680   23.2170 C   0  0  0  0  0  0  0  0  0  0  0  0
  -19.0820  -30.0840   23.9140 C   0  0  0  0  0  3  0  0  0  0  0  0
  -17.7990  -30.6100   24.1530 C   0  0  0  0  0  3  0  0  0  0  0  0
  -16.6610  -29.9150   23.7070 C   0  0  0  0  0  3  0  0  0  0  0  0
  -16.8090  -28.7010   23.0150 C   0  0  0  0  0  3  0  0  0  0  0  0
  -25.9970  -32.3800   23.8950 C   0  0  0  0  0  3  0  0  0  0  0  0
  -25.6850  -33.7660   24.2870 N   0  0  0  0  0  0  0  0  0  0  0  0
  -26.0050  -34.8560   23.5760 C   0  0  0  0  0  0  0  0  0  0  0  0
  -26.6590  -34.8010   22.5320 O   0  0  0  0  0  0  0  0  0  0  0  0
  -25.1000  -33.8820   25.1010 H   0  0  0  0  0  0  0  0  0  0  0  0
  -24.2620  -36.6610   23.3530 C   0  0  0  0  0  1  0  0  0  0  0  0
  -25.5280  -36.2240   24.1070 C   0  0  0  0  0  3  0  0  0  0  0  0
  -27.6780  -37.0930   24.9200 C   0  0  0  0  0  1  0  0  0  0  0  0
  -26.5540  -37.2870   24.0070 N   0  0  0  0  0  0  0  0  0  0  0  0
  -26.1470  -38.1990   24.1940 H   0  0  0  0  0  0  0  0  0  0  0  0
  -26.4760  -31.5560   25.1550 C   0  0  1  0  0  0  0  0  0  0  0  0
  -25.3550  -31.2880   26.1870 C   0  0  0  0  0  1  0  0  0  0  0  0
  -27.0580  -30.1890   24.7320 C   0  0  0  0  0  1  0  0  0  0  0  0
  -27.6160  -32.3140   25.8740 C   0  0  0  0  0  1  0  0  0  0  0  0
  1  4  1  0
  3  6  1  0
  4 16  1  0
  4  2  1  0
  5  1  2  0
  5  3  1  0
  6  2  2  0
  6  7  1  0
  8 16  1  0
  9 14  1  0
 10 11  1  0
 10  9  1  0
 12 11  1  0
 12 21  1  0
 12 13  1  0
 14  8  1  0
 14 13  1  0
 15  8  2  0
 16 17  1  0
 18 19  2  0
 19 38  1  0
 20 19  1  0
 20 23  1  0
 21 22  1  0
 21 18  1  0
 22 20  2  0
 23 24  1  0
 24 25  2  0
 26 29  1  0
 26 25  1  0
 27 26  2  0
 28 27  1  0
 28 23  2  0
 29 30  1  0
 30 31  1  0
 31 32  2  0
 33 32  1  0
 33 37  1  0
 34 33  2  0
 35 30  2  0
 35 34  1  0
 36 35  1  0
 38 39  1  0
 39 42  1  0
 39 41  1  0
 40 38  2  0
 43 44  1  0
 43 18  1  0
 45 43  1  0
 46  5  1  0
 46 48  1  0
 46 47  1  0
 49 50  2  0
 49  3  2  0
 51 53  1  0
 51 50  1  0
 52 63  2  0
 53 58  1  0
 54 62  1  0
 54 64  1  0
 55 61  1  0
 55 57  1  0
 56 62  1  0
 57 56  1  0
 58 57  2  0
 59 60  1  0
 59 53  2  0
 60 55  2  0
 61 54  1  0
 62 52  1  0
 64 66  2  0
 65 64  1  0
 67 65  1  0
 68 77  2  0
 68 73  1  0
 69 65  1  0
 69 73  1  0
 70 69  1  0
 71 72  1  0
 71 70  1  0
 72 68  1  0
 73 74  2  0
 74 75  1  0
 76 75  2  0
 77 76  1  0
 78 52  1  0
 78 79  1  0
 78 88  1  0
 79 82  1  0
 80 84  1  0
 80 79  1  0
 81 80  2  0
 84 83  1  0
 86 84  1  0
 86 87  1  0
 86 85  1  0
 88 91  1  1
 88 89  1  0
 90 88  1  0
M  ISO  4   8 100  16 100  50 101  51 101
M  END
>  <TORSDO>  (71) 
F 18

>  <SCORE>  (71) 
-14.512

>  <name>  (71) 
70

>  <ligand_id>  (71) 
70

>  <original_smiles>  (71) 
[H]C(Oc1c([H])c([H])c2c(c1[H])C([H])([H])N(C(=O)C([H])(N([H])C(=O)C([H])(N([H])C([H])([H])[H])C([H])([H])[H])C(C([H])([H])[H])(C([H])([H])[H])C([H])([H])[H])C([H])(C(=O)N([H])C1([H])c3c([H])c([H])c([H])c([H])c3C([H])([H])C([H])([H])C1([H])[H])C2([H])[H])=C([H])c1c(F)c([H])c(N([H])C(=O)N2C([H])([H])C([H])([H])C([H])([H])C([H])(n3nc(-c4c([H])c([H])c(Oc5c([H])c([H])c(F)c([H])c5F)c([H])c4[H])c(C(=O)N([H])[H])c3N([H])[H])C2([H])[H])c([H])c1N([H])[H]

>  <smiles>  (71) 
[H]C(Oc1c([H])c([H])c2c(c1[H])C([H])([H])N(C(=O)C([H])(N([H])C(=O)C([H])(N([H])C([H])([H])[H])C([H])([H])[H])C(C([H])([H])[H])(C([H])([H])[H])C([H])([H])[H])C([H])(C(=O)N([H])C1([H])c3c([H])c([H])c([H])c([H])c3C([H])([H])C([H])([H])C1([H])[H])C2([H])[H])=C([H])c1c(F)c([H])c(N([H])C(=O)N2C([H])([H])C([H])([H])C([H])([H])C([H])(n3nc(-c4c([H])c([H])c(Oc5c([H])c([H])c(F)c([H])c5F)c([H])c4[H])c(C(=O)N([H])[H])c3N([H])[H])C2([H])[H])c([H])c1N([H])[H]

$$$$
71:0:0
     RDKit          3D

 92100  0  0  1  0  0  0  0  0999 V2000
  -28.9130  -22.3320   20.3970 C   0  0  0  0  0  0  0  0  0  0  0  0
  -28.8290  -21.0060   19.8700 N   0  0  0  0  0  0  0  0  0  0  0  0
  -29.3940  -22.5340   21.5110 O   0  0  0  0  0  0  0  0  0  0  0  0
  -28.3360  -21.0770   18.9890 H   0  0  0  0  0  0  0  0  0  0  0  0
  -30.5620  -17.5860   21.1460 C   0  0  0  0  0  3  0  0  0  0  0  0
  -30.2090  -19.0050   21.0620 C   0  0  0  0  0  3  0  0  0  0  0  0
  -28.9510  -17.0530   19.5270 C   0  0  0  0  0  3  0  0  0  0  0  0
  -29.9590  -16.5070   20.3910 C   0  0  0  0  0  0  0  0  0  0  0  0
  -29.2150  -19.5400   20.1710 C   0  0  0  0  0  0  0  0  0  0  0  0
  -28.6070  -18.4660   19.4220 C   0  0  0  0  0  0  0  0  0  0  0  0
  -27.6610  -18.8100   18.5160 F   0  0  0  0  0  0  0  0  0  0  0  0
  -30.5780  -15.0140   20.2910 C   0  0  0  0  0  0  0  0  0  0  0  0
  -30.3900  -12.6550   19.3800 C   0  0  0  0  0  2  0  0  0  0  0  0
  -29.4710  -12.6000   18.1400 C   0  0  0  0  0  2  0  0  0  0  0  0
  -28.0080  -12.3890   18.5700 C   0  0  0  0  0  2  0  0  0  0  0  0
  -27.5930  -13.3280   19.7310 C   0  0  0  0  0  3  0  0  0  0  0  0
  -28.6450  -13.3950   20.8560 C   0  0  0  0  0  2  0  0  0  0  0  0
  -29.9210  -13.7810   20.2450 N   0  0  0  0  0  0  0  0  0  0  0  0
  -31.7920  -14.9700   20.0640 O   0  0  0  0  0  0  0  0  0  0  0  0
  -25.2170  -13.8950   20.4800 C   0  0  0  0  0  0  0  0  0  0  0  0
  -24.1560  -13.1170   20.8500 C   0  0  0  0  0  0  0  0  0  0  0  0
  -24.6260  -11.7680   20.8270 C   0  0  0  0  0  0  0  0  0  0  0  0
  -26.2620  -13.0210   20.2400 N   0  0  0  0  0  0  0  0  0  0  0  0
  -25.9180  -11.7360   20.5180 N   0  0  0  0  0  0  0  0  0  0  0  0
  -23.9030  -10.5040   21.0210 C   0  0  0  0  0  0  0  0  0  0  0  0
  -24.3350   -9.5400   21.9580 C   0  0  0  0  0  3  0  0  0  0  0  0
  -23.6100   -8.3430   22.1410 C   0  0  0  0  0  3  0  0  0  0  0  0
  -22.4370   -8.1000   21.3860 C   0  0  0  0  0  0  0  0  0  0  0  0
  -22.0240   -9.0530   20.4390 C   0  0  0  0  0  3  0  0  0  0  0  0
  -22.7500  -10.2410   20.2530 C   0  0  0  0  0  3  0  0  0  0  0  0
  -21.6840   -6.9550   21.4780 O   0  0  0  0  0  0  0  0  0  0  0  0
  -21.6370   -6.2150   22.6320 C   0  0  0  0  0  0  0  0  0  0  0  0
  -21.2120   -6.7710   23.8580 C   0  0  0  0  0  3  0  0  0  0  0  0
  -21.1130   -5.9560   25.0030 C   0  0  0  0  0  3  0  0  0  0  0  0
  -21.4290   -4.5870   24.9240 C   0  0  0  0  0  0  0  0  0  0  0  0
  -21.8470   -4.0300   23.7030 C   0  0  0  0  0  3  0  0  0  0  0  0
  -21.9480   -4.8410   22.5590 C   0  0  0  0  0  0  0  0  0  0  0  0
  -22.3310   -4.2960   21.3800 F   0  0  0  0  0  0  0  0  0  0  0  0
  -21.3270   -3.8020   26.0230 F   0  0  0  0  0  0  0  0  0  0  0  0
  -22.7560  -13.5910   21.1120 C   0  0  0  0  0  0  0  0  0  0  0  0
  -22.0270  -12.8990   21.9790 N   0  0  0  0  0  0  0  0  0  0  0  0
  -22.3180  -14.6120   20.5830 O   0  0  0  0  0  0  0  0  0  0  0  0
  -22.3950  -12.0740   22.4300 H   0  0  0  0  0  0  0  0  0  0  0  0
  -21.0880  -13.1990   22.1980 H   0  0  0  0  0  0  0  0  0  0  0  0
  -25.3770  -15.2660   20.3000 N   0  0  0  0  0  0  0  0  0  0  0  0
  -24.6110  -15.9190   20.4210 H   0  0  0  0  0  0  0  0  0  0  0  0
  -26.2350  -15.7130   20.0050 H   0  0  0  0  0  0  0  0  0  0  0  0
  -28.1290  -24.8820   19.4840 C   0  0  0  0  0  3  0  0  0  0  0  0
  -28.3730  -23.4620   19.4730 C   0  0  0  0  0  0  0  0  0  0  0  0
  -28.0350  -22.9350   18.2800 O   0  0  0  0  0  0  0  0  0  0  0  0
  -27.7200  -23.6370   17.7290 H   0  0  0  0  0  0  0  0  0  0  0  0
  -28.1970  -26.1070   20.2830 O   0  0  0  0  0  0  0  0  0  0  0  0
  -24.6170  -31.8830   23.2300 C   0  0  0  0  0  0  0  0  0  0  0  0
  -27.1830  -27.1470   20.1820 C   0  0  0  0  0  0  0  0  0  0  0  0
  -23.4180  -30.4950   21.5890 C   0  0  0  0  0  3  0  0  0  0  0  0
  -24.8650  -28.9250   20.1580 C   0  0  0  0  0  0  0  0  0  0  0  0
  -25.9780  -30.7450   21.4310 C   0  0  0  0  0  2  0  0  0  0  0  0
  -26.0480  -29.3540   20.7710 C   0  0  0  0  0  0  0  0  0  0  0  0
  -27.2070  -28.4800   20.7710 C   0  0  0  0  0  3  0  0  0  0  0  0
  -25.9590  -26.8270   19.5450 C   0  0  0  0  0  3  0  0  0  0  0  0
  -24.8350  -27.6740   19.5300 C   0  0  0  0  0  3  0  0  0  0  0  0
  -23.6400  -29.8250   20.2070 C   0  0  0  0  0  2  0  0  0  0  0  0
  -24.6910  -31.0630   22.1370 N   0  0  0  0  0  0  0  0  0  0  0  0
  -23.5300  -32.1690   23.7550 O   0  0  0  0  0  0  0  0  0  0  0  0
  -22.7350  -29.4850   22.5450 C   0  0  0  0  0  0  0  0  0  0  0  0
  -21.4060  -29.3160   22.4160 N   0  0  0  0  0  0  0  0  0  0  0  0
  -23.4020  -28.8570   23.3710 O   0  0  0  0  0  0  0  0  0  0  0  0
  -20.9230  -29.8740   21.7250 H   0  0  0  0  0  0  0  0  0  0  0  0
  -18.0210  -28.1200   22.9100 C   0  0  0  0  0  0  0  0  0  0  0  0
  -20.5800  -28.3810   23.1850 C   0  0  0  0  0  3  0  0  0  0  0  0
  -20.6830  -26.9480   22.6130 C   0  0  0  0  0  2  0  0  0  0  0  0
  -19.5830  -26.6240   21.5960 C   0  0  0  0  0  2  0  0  0  0  0  0
  -18.2000  -26.7690   22.2350 C   0  0  0  0  0  2  0  0  0  0  0  0
  -19.1390  -28.8820   23.3420 C   0  0  0  0  0  0  0  0  0  0  0  0
  -18.9160  -30.1450   23.9350 C   0  0  0  0  0  3  0  0  0  0  0  0
  -17.6110  -30.6430   24.0990 C   0  0  0  0  0  3  0  0  0  0  0  0
  -16.5080  -29.8780   23.6820 C   0  0  0  0  0  3  0  0  0  0  0  0
  -16.7140  -28.6170   23.0940 C   0  0  0  0  0  3  0  0  0  0  0  0
  -25.8940  -32.5160   23.8590 C   0  0  0  0  0  3  0  0  0  0  0  0
  -26.3960  -31.7490   25.1450 C   0  0  1  0  0  0  0  0  0  0  0  0
  -25.2940  -31.5240   26.2060 C   0  0  0  0  0  1  0  0  0  0  0  0
  -26.9760  -30.3660   24.7710 C   0  0  0  0  0  1  0  0  0  0  0  0
  -27.5460  -32.5420   25.8110 C   0  0  0  0  0  1  0  0  0  0  0  0
  -25.5840  -33.9170   24.1870 N   0  0  0  0  0  0  0  0  0  0  0  0
  -25.9160  -34.9720   23.4310 C   0  0  0  0  0  0  0  0  0  0  0  0
  -26.5810  -34.8680   22.3980 O   0  0  0  0  0  0  0  0  0  0  0  0
  -24.9910  -34.0720   24.9900 H   0  0  0  0  0  0  0  0  0  0  0  0
  -24.1870  -36.7710   23.0930 C   0  0  0  0  0  1  0  0  0  0  0  0
  -25.4360  -36.3630   23.8930 C   0  0  0  0  0  3  0  0  0  0  0  0
  -27.5780  -37.2460   24.7060 C   0  0  0  0  0  1  0  0  0  0  0  0
  -26.4690  -37.4140   23.7710 N   0  0  0  0  0  0  0  0  0  0  0  0
  -26.0650  -38.3350   23.9190 H   0  0  0  0  0  0  0  0  0  0  0  0
  1  3  2  0
  2  9  1  0
  2  1  1  0
  4  2  1  0
  6  5  1  0
  7  8  1  0
  8  5  2  0
  9  6  2  0
 10  7  2  0
 10  9  1  0
 11 10  1  0
 12  8  1  0
 13 18  1  0
 14 15  1  0
 14 13  1  0
 16 15  1  0
 16 23  1  0
 16 17  1  0
 18 12  1  0
 18 17  1  0
 19 12  2  0
 20 21  2  0
 21 40  1  0
 22 21  1  0
 22 25  1  0
 23 20  1  0
 23 24  1  0
 24 22  2  0
 25 26  1  0
 26 27  2  0
 28 31  1  0
 28 27  1  0
 29 28  2  0
 30 29  1  0
 30 25  2  0
 31 32  1  0
 32 33  1  0
 33 34  2  0
 35 34  1  0
 35 39  1  0
 36 35  2  0
 37 32  2  0
 37 36  1  0
 38 37  1  0
 40 41  1  0
 41 44  1  0
 41 43  1  0
 42 40  2  0
 45 46  1  0
 45 20  1  0
 47 45  1  0
 48 52  1  0
 49 48  2  0
 49  1  1  0
 50 49  1  0
 51 50  1  0
 53 64  2  0
 54 52  1  0
 54 59  1  0
 55 63  1  0
 55 65  1  0
 56 62  1  0
 56 58  1  0
 57 63  1  0
 58 57  1  0
 59 58  2  0
 60 54  2  0
 61 60  1  0
 61 56  2  0
 62 55  1  0
 63 53  1  0
 65 67  2  0
 66 65  1  0
 68 66  1  0
 69 78  2  0
 69 74  1  0
 70 66  1  0
 70 74  1  0
 71 70  1  0
 72 73  1  0
 72 71  1  0
 73 69  1  0
 74 75  2  0
 75 76  1  0
 77 76  2  0
 78 77  1  0
 79 53  1  0
 79 84  1  0
 79 80  1  0
 80 83  1  1
 80 81  1  0
 82 80  1  0
 84 87  1  0
 85 89  1  0
 85 84  1  0
 86 85  2  0
 89 88  1  0
 91 89  1  0
 91 92  1  0
 91 90  1  0
M  ISO  4   8 100  12 100  48 101  52 101
M  END
>  <TORSDO>  (72) 
F 19

>  <SCORE>  (72) 
-14.678

>  <name>  (72) 
71

>  <ligand_id>  (72) 
71

>  <original_smiles>  (72) 
[H]OC(C(=O)N([H])c1c([H])c([H])c(C(=O)N2C([H])([H])C([H])([H])C([H])([H])C([H])(n3nc(-c4c([H])c([H])c(Oc5c([H])c([H])c(F)c([H])c5F)c([H])c4[H])c(C(=O)N([H])[H])c3N([H])[H])C2([H])[H])c([H])c1F)=C([H])Oc1c([H])c([H])c2c(c1[H])C([H])([H])N(C(=O)C([H])(N([H])C(=O)C([H])(N([H])C([H])([H])[H])C([H])([H])[H])C(C([H])([H])[H])(C([H])([H])[H])C([H])([H])[H])C([H])(C(=O)N([H])C1([H])c3c([H])c([H])c([H])c([H])c3C([H])([H])C([H])([H])C1([H])[H])C2([H])[H]

>  <smiles>  (72) 
[H]OC(C(=O)N([H])c1c([H])c([H])c(C(=O)N2C([H])([H])C([H])([H])C([H])([H])C([H])(n3nc(-c4c([H])c([H])c(Oc5c([H])c([H])c(F)c([H])c5F)c([H])c4[H])c(C(=O)N([H])[H])c3N([H])[H])C2([H])[H])c([H])c1F)=C([H])Oc1c([H])c([H])c2c(c1[H])C([H])([H])N(C(=O)C([H])(N([H])C(=O)C([H])(N([H])C([H])([H])[H])C([H])([H])[H])C(C([H])([H])[H])(C([H])([H])[H])C([H])([H])[H])C([H])(C(=O)N([H])C1([H])c3c([H])c([H])c([H])c([H])c3C([H])([H])C([H])([H])C1([H])[H])C2([H])[H]

$$$$
72:0:0
     RDKit          3D

 96104  0  0  1  0  0  0  0  0999 V2000
  -28.5230  -22.0570   20.7950 C   0  0  0  0  0  3  0  0  0  0  0  0
  -27.1120  -21.7710   21.1350 N   0  0  0  0  0  4  0  0  0  0  0  0
  -26.8230  -20.8940   20.7390 H   0  0  0  0  0  0  0  0  0  0  0  0
  -26.5180  -22.4820   20.7500 H   0  0  0  0  0  0  0  0  0  0  0  0
  -26.9720  -21.7260   22.1290 H   0  0  0  0  0  0  0  0  0  0  0  0
  -29.4120  -21.0930   21.6190 C   0  0  0  0  0  0  0  0  0  0  0  0
  -29.7980  -21.4100   22.7490 O   0  0  0  0  0  0  0  0  0  0  0  0
  -30.8100  -18.9800   21.6080 C   0  0  0  0  0  3  0  0  0  0  0  0
  -31.0510  -17.6580   21.1760 C   0  0  0  0  0  3  0  0  0  0  0  0
  -29.0080  -19.2010   19.9830 C   0  0  0  0  0  3  0  0  0  0  0  0
  -29.7670  -19.7610   21.0350 C   0  0  0  0  0  0  0  0  0  0  0  0
  -30.2280  -17.0980   20.1780 C   0  0  0  0  0  0  0  0  0  0  0  0
  -29.2250  -17.8730   19.5760 C   0  0  0  0  0  0  0  0  0  0  0  0
  -28.4040  -17.3170   18.6510 F   0  0  0  0  0  0  0  0  0  0  0  0
  -31.0890  -14.7380   19.9560 C   0  0  0  0  0  0  0  0  0  0  0  0
  -30.8020  -12.5220   18.9470 C   0  0  0  0  0  2  0  0  0  0  0  0
  -29.8040  -12.6630   17.7740 C   0  0  0  0  0  2  0  0  0  0  0  0
  -28.3490  -12.5270   18.2730 C   0  0  0  0  0  2  0  0  0  0  0  0
  -28.0510  -13.4620   19.4730 C   0  0  0  0  0  3  0  0  0  0  0  0
  -29.1370  -13.3030   20.5680 C   0  0  0  0  0  2  0  0  0  0  0  0
  -30.4550  -13.5430   19.9390 N   0  0  0  0  0  0  0  0  0  0  0  0
  -32.2680  -14.9210   19.6470 O   0  0  0  0  0  0  0  0  0  0  0  0
  -30.1820  -15.7180   19.9170 N   0  0  0  0  0  0  0  0  0  0  0  0
  -29.2590  -15.3620   19.7470 H   0  0  0  0  0  0  0  0  0  0  0  0
  -25.7130  -14.1830   20.2760 C   0  0  0  0  0  0  0  0  0  0  0  0
  -24.6300  -13.4540   20.6820 C   0  0  0  0  0  0  0  0  0  0  0  0
  -25.0320  -12.0850   20.6240 C   0  0  0  0  0  0  0  0  0  0  0  0
  -26.7100  -13.2580   20.0040 N   0  0  0  0  0  0  0  0  0  0  0  0
  -26.3050  -11.9910   20.2700 N   0  0  0  0  0  0  0  0  0  0  0  0
  -24.2620  -10.8520   20.8270 C   0  0  0  0  0  0  0  0  0  0  0  0
  -24.6320   -9.9100   21.8120 C   0  0  0  0  0  3  0  0  0  0  0  0
  -23.8710   -8.7370   22.0030 C   0  0  0  0  0  3  0  0  0  0  0  0
  -22.7240   -8.4980   21.2070 C   0  0  0  0  0  0  0  0  0  0  0  0
  -22.3660   -9.4320   20.2150 C   0  0  0  0  0  3  0  0  0  0  0  0
  -23.1320  -10.5970   20.0240 C   0  0  0  0  0  3  0  0  0  0  0  0
  -21.9440   -7.3710   21.3030 O   0  0  0  0  0  0  0  0  0  0  0  0
  -21.7540   -6.7240   22.4980 C   0  0  0  0  0  0  0  0  0  0  0  0
  -21.1970   -7.3770   23.6190 C   0  0  0  0  0  3  0  0  0  0  0  0
  -20.9550   -6.6560   24.8060 C   0  0  0  0  0  3  0  0  0  0  0  0
  -21.2620   -5.2830   24.8690 C   0  0  0  0  0  0  0  0  0  0  0  0
  -21.8140   -4.6310   23.7520 C   0  0  0  0  0  3  0  0  0  0  0  0
  -22.0560   -5.3490   22.5690 C   0  0  0  0  0  0  0  0  0  0  0  0
  -22.5660   -4.7110   21.4880 F   0  0  0  0  0  0  0  0  0  0  0  0
  -21.0250   -4.5880   26.0070 F   0  0  0  0  0  0  0  0  0  0  0  0
  -23.2620  -13.9830   21.0120 C   0  0  0  0  0  0  0  0  0  0  0  0
  -22.5440  -13.3170   21.9100 N   0  0  0  0  0  0  0  0  0  0  0  0
  -22.8400  -15.0230   20.5040 O   0  0  0  0  0  0  0  0  0  0  0  0
  -22.8960  -12.4760   22.3440 H   0  0  0  0  0  0  0  0  0  0  0  0
  -21.6210  -13.6400   22.1690 H   0  0  0  0  0  0  0  0  0  0  0  0
  -25.9290  -15.5470   20.0970 N   0  0  0  0  0  0  0  0  0  0  0  0
  -25.1590  -16.2060   20.1550 H   0  0  0  0  0  0  0  0  0  0  0  0
  -26.7880  -15.9630   19.7580 H   0  0  0  0  0  0  0  0  0  0  0  0
  -28.9000  -23.5340   21.0710 C   0  0  0  0  0  2  0  0  0  0  0  0
  -28.3370  -24.5530   20.0590 C   0  0  0  0  0  2  0  0  0  0  0  0
  -28.6590  -25.9960   20.4910 C   0  0  0  0  0  2  0  0  0  0  0  0
  -28.3240  -26.9410   19.4820 O   0  0  0  0  0  0  0  0  0  0  0  0
  -24.5130  -31.7910   23.0800 C   0  0  0  0  0  0  0  0  0  0  0  0
  -27.1310  -27.5990   19.6580 C   0  0  0  0  0  0  0  0  0  0  0  0
  -23.2680  -30.4400   21.4220 C   0  0  0  0  0  3  0  0  0  0  0  0
  -24.6970  -29.0030   19.8710 C   0  0  0  0  0  0  0  0  0  0  0  0
  -25.7700  -30.8760   21.1320 C   0  0  0  0  0  2  0  0  0  0  0  0
  -25.8650  -29.5350   20.4340 C   0  0  0  0  0  0  0  0  0  0  0  0
  -27.0880  -28.8370   20.3290 C   0  0  0  0  0  3  0  0  0  0  0  0
  -25.9550  -27.0770   19.0870 C   0  0  0  0  0  3  0  0  0  0  0  0
  -24.7350  -27.7700   19.1960 C   0  0  0  0  0  3  0  0  0  0  0  0
  -23.4360  -29.8280   20.0030 C   0  0  0  0  0  2  0  0  0  0  0  0
  -24.5390  -31.0460   21.9390 N   0  0  0  0  0  0  0  0  0  0  0  0
  -23.4500  -32.0110   23.6760 O   0  0  0  0  0  0  0  0  0  0  0  0
  -22.6890  -29.3580   22.3580 C   0  0  0  0  0  0  0  0  0  0  0  0
  -21.3730  -29.1190   22.2430 N   0  0  0  0  0  0  0  0  0  0  0  0
  -23.4140  -28.7350   23.1410 O   0  0  0  0  0  0  0  0  0  0  0  0
  -20.8490  -29.6810   21.5860 H   0  0  0  0  0  0  0  0  0  0  0  0
  -18.0710  -27.7260   22.6950 C   0  0  0  0  0  0  0  0  0  0  0  0
  -20.6140  -28.1110   22.9840 C   0  0  0  0  0  3  0  0  0  0  0  0
  -20.7950  -26.7120   22.3510 C   0  0  0  0  0  2  0  0  0  0  0  0
  -19.7060  -26.3700   21.3310 C   0  0  0  0  0  2  0  0  0  0  0  0
  -18.3180  -26.4130   21.9740 C   0  0  0  0  0  2  0  0  0  0  0  0
  -19.1480  -28.5300   23.1550 C   0  0  0  0  0  0  0  0  0  0  0  0
  -18.8630  -29.7640   23.7780 C   0  0  0  0  0  3  0  0  0  0  0  0
  -17.5340  -30.1910   23.9560 C   0  0  0  0  0  3  0  0  0  0  0  0
  -16.4730  -29.3810   23.5120 C   0  0  0  0  0  3  0  0  0  0  0  0
  -16.7420  -28.1490   22.8890 C   0  0  0  0  0  3  0  0  0  0  0  0
  -25.8110  -32.4230   23.6750 C   0  0  0  0  0  3  0  0  0  0  0  0
  -25.4860  -33.7970   24.0850 N   0  0  0  0  0  0  0  0  0  0  0  0
  -25.7830  -34.8910   23.3740 C   0  0  0  0  0  0  0  0  0  0  0  0
  -26.4340  -34.8540   22.3250 O   0  0  0  0  0  0  0  0  0  0  0  0
  -24.9040  -33.8950   24.9040 H   0  0  0  0  0  0  0  0  0  0  0  0
  -24.0220  -36.6750   23.1380 C   0  0  0  0  0  1  0  0  0  0  0  0
  -25.2810  -36.2480   23.9090 C   0  0  0  0  0  3  0  0  0  0  0  0
  -27.4140  -37.1300   24.7510 C   0  0  0  0  0  1  0  0  0  0  0  0
  -26.2950  -37.3220   23.8320 N   0  0  0  0  0  0  0  0  0  0  0  0
  -25.8780  -38.2280   24.0230 H   0  0  0  0  0  0  0  0  0  0  0  0
  -26.3950  -31.6000   24.8870 C   0  0  1  0  0  0  0  0  0  0  0  0
  -25.3560  -31.2800   25.9860 C   0  0  0  0  0  1  0  0  0  0  0  0
  -26.9920  -30.2590   24.3960 C   0  0  0  0  0  1  0  0  0  0  0  0
  -27.5560  -32.3870   25.5450 C   0  0  0  0  0  1  0  0  0  0  0  0
  1 53  1  0
  1  2  1  0
  1  6  1  0
  2  5  1  0
  3  2  1  0
  4  2  1  0
  6  7  2  0
  9  8  1  0
 10 11  1  0
 11  8  2  0
 11  6  1  0
 12  9  2  0
 13 10  2  0
 13 12  1  0
 14 13  1  0
 16 21  1  0
 17 18  1  0
 17 16  1  0
 19 18  1  0
 19 28  1  0
 19 20  1  0
 21 15  1  0
 21 20  1  0
 22 15  2  0
 23 15  1  0
 23 12  1  0
 24 23  1  0
 25 26  2  0
 26 45  1  0
 27 26  1  0
 27 30  1  0
 28 29  1  0
 28 25  1  0
 29 27  2  0
 30 31  1  0
 31 32  2  0
 33 36  1  0
 33 32  1  0
 34 33  2  0
 35 34  1  0
 35 30  2  0
 36 37  1  0
 37 42  2  0
 37 38  1  0
 38 39  2  0
 39 40  1  0
 40 44  1  0
 41 40  2  0
 42 41  1  0
 43 42  1  0
 45 46  1  0
 46 49  1  0
 46 48  1  0
 47 45  2  0
 50 51  1  0
 50 25  1  0
 52 50  1  0
 54 55  1  0
 54 53  1  0
 56 58  1  0
 56 55  1  0
 57 68  2  0
 58 63  1  0
 59 67  1  0
 59 69  1  0
 60 66  1  0
 60 62  1  0
 61 67  1  0
 62 61  1  0
 63 62  2  0
 64 65  1  0
 64 58  2  0
 65 60  2  0
 66 59  1  0
 67 57  1  0
 69 71  2  0
 70 69  1  0
 72 70  1  0
 73 82  2  0
 73 78  1  0
 74 70  1  0
 74 78  1  0
 75 74  1  0
 76 77  1  0
 76 75  1  0
 77 73  1  0
 78 79  2  0
 79 80  1  0
 81 80  2  0
 82 81  1  0
 83 57  1  0
 83 84  1  0
 83 93  1  0
 84 87  1  0
 85 89  1  0
 85 84  1  0
 86 85  2  0
 89 88  1  0
 91 89  1  0
 91 92  1  0
 91 90  1  0
 93 96  1  1
 93 94  1  0
 95 93  1  0
M  ISO  4  15 100  23 100  55 101  56 101
M  END
>  <TORSDO>  (73) 
F 22

>  <SCORE>  (73) 
-12.796

>  <name>  (73) 
72

>  <ligand_id>  (73) 
72

>  <original_smiles>  (73) 
[H]c1c([H])c([H])c2c(c1[H])C([H])([H])C([H])([H])C([H])([H])C2([H])N([H])C(=O)C1([H])N(C(=O)C([H])(N([H])C(=O)C([H])(N([H])C([H])([H])[H])C([H])([H])[H])C(C([H])([H])[H])(C([H])([H])[H])C([H])([H])[H])C([H])([H])c2c([H])c(OC([H])([H])C([H])([H])C([H])([H])C([H])(C(=O)c3c([H])c([H])c(N([H])C(=O)N4C([H])([H])C([H])([H])C([H])([H])C([H])(n5nc(-c6c([H])c([H])c(Oc7c([H])c([H])c(F)c([H])c7F)c([H])c6[H])c(C(=O)N([H])[H])c5N([H])[H])C4([H])[H])c(F)c3[H])[N+]([H])([H])[H])c([H])c([H])c2C1([H])[H]

>  <smiles>  (73) 
[H]c1c([H])c([H])c2c(c1[H])C([H])([H])C([H])([H])C([H])([H])C2([H])N([H])C(=O)C1([H])N(C(=O)C([H])(N([H])C(=O)C([H])(N([H])C([H])([H])[H])C([H])([H])[H])C(C([H])([H])[H])(C([H])([H])[H])C([H])([H])[H])C([H])([H])c2c([H])c(OC([H])([H])C([H])([H])C([H])([H])C([H])(C(=O)c3c([H])c([H])c(N([H])C(=O)N4C([H])([H])C([H])([H])C([H])([H])C([H])(n5nc(-c6c([H])c([H])c(Oc7c([H])c([H])c(F)c([H])c7F)c([H])c6[H])c(C(=O)N([H])[H])c5N([H])[H])C4([H])[H])c(F)c3[H])[N+]([H])([H])[H])c([H])c([H])c2C1([H])[H]

$$$$
73:0:0
     RDKit          3D

 92101  0  0  1  0  0  0  0  0999 V2000
  -28.8070  -20.3860   20.6830 C   0  0  0  0  0  0  0  0  0  0  0  0
  -30.4980  -23.7480   20.8450 C   0  0  0  0  0  2  0  0  0  0  0  0
  -30.5070  -22.2420   21.1600 C   0  0  0  0  0  2  0  0  0  0  0  0
  -28.3180  -22.8390   20.4270 C   0  0  0  0  0  2  0  0  0  0  0  0
  -29.0320  -24.1800   20.7720 C   0  0  0  0  0  3  0  0  0  0  0  0
  -29.2130  -21.6970   20.7430 N   0  0  0  0  0  0  0  0  0  0  0  0
  -27.6040  -20.1260   20.5730 O   0  0  0  0  0  0  0  0  0  0  0  0
  -31.1230  -19.0450   20.6020 C   0  0  0  0  0  3  0  0  0  0  0  0
  -31.4260  -17.6490   20.5540 C   0  0  0  0  0  3  0  0  0  0  0  0
  -29.7560  -19.1980   20.6880 C   0  0  0  0  0  0  0  0  0  0  0  0
  -30.2270  -17.0010   20.6610 C   0  0  0  0  0  0  0  0  0  0  0  0
  -29.2110  -17.9220   20.7390 O   0  0  0  0  0  0  0  0  0  0  0  0
  -30.7570  -14.5950   20.3140 C   0  0  0  0  0  0  0  0  0  0  0  0
  -30.4350  -12.4300   19.1650 C   0  0  0  0  0  2  0  0  0  0  0  0
  -29.4560  -12.6540   17.9910 C   0  0  0  0  0  2  0  0  0  0  0  0
  -27.9920  -12.5240   18.4630 C   0  0  0  0  0  2  0  0  0  0  0  0
  -27.7000  -13.3360   19.7540 C   0  0  0  0  0  3  0  0  0  0  0  0
  -28.7900  -13.0910   20.8210 C   0  0  0  0  0  2  0  0  0  0  0  0
  -30.0930  -13.4070   20.2160 N   0  0  0  0  0  0  0  0  0  0  0  0
  -31.9100  -14.7310   19.8950 O   0  0  0  0  0  0  0  0  0  0  0  0
  -29.9930  -15.6480   20.7200 N   0  0  0  0  0  0  0  0  0  0  0  0
  -29.0580  -15.3930   20.9890 H   0  0  0  0  0  0  0  0  0  0  0  0
  -25.3300  -13.9450   20.5430 C   0  0  0  0  0  0  0  0  0  0  0  0
  -24.2650  -13.1720   20.9230 C   0  0  0  0  0  0  0  0  0  0  0  0
  -24.7130  -11.8170   20.8490 C   0  0  0  0  0  0  0  0  0  0  0  0
  -26.3630  -13.0600   20.2680 N   0  0  0  0  0  0  0  0  0  0  0  0
  -25.9940  -11.7760   20.5090 N   0  0  0  0  0  0  0  0  0  0  0  0
  -23.9790  -10.5580   21.0270 C   0  0  0  0  0  0  0  0  0  0  0  0
  -24.4070   -9.5780   21.9520 C   0  0  0  0  0  3  0  0  0  0  0  0
  -23.6720   -8.3840   22.1180 C   0  0  0  0  0  3  0  0  0  0  0  0
  -22.4980   -8.1590   21.3590 C   0  0  0  0  0  0  0  0  0  0  0  0
  -22.0900   -9.1290   20.4270 C   0  0  0  0  0  3  0  0  0  0  0  0
  -22.8230  -10.3150   20.2580 C   0  0  0  0  0  3  0  0  0  0  0  0
  -21.7390   -7.0170   21.4370 O   0  0  0  0  0  0  0  0  0  0  0  0
  -21.6590   -6.2820   22.5930 C   0  0  0  0  0  0  0  0  0  0  0  0
  -21.1500   -6.8300   23.7900 C   0  0  0  0  0  3  0  0  0  0  0  0
  -21.0180   -6.0210   24.9360 C   0  0  0  0  0  3  0  0  0  0  0  0
  -21.3890   -4.6630   24.8850 C   0  0  0  0  0  0  0  0  0  0  0  0
  -21.8950   -4.1140   23.6930 C   0  0  0  0  0  3  0  0  0  0  0  0
  -22.0250   -4.9200   22.5490 C   0  0  0  0  0  0  0  0  0  0  0  0
  -22.4920   -4.3830   21.3960 F   0  0  0  0  0  0  0  0  0  0  0  0
  -21.2560   -3.8830   25.9820 F   0  0  0  0  0  0  0  0  0  0  0  0
  -22.8800  -13.6560   21.2430 C   0  0  0  0  0  0  0  0  0  0  0  0
  -22.1620  -12.9420   22.1020 N   0  0  0  0  0  0  0  0  0  0  0  0
  -22.4470  -14.7050   20.7670 O   0  0  0  0  0  0  0  0  0  0  0  0
  -22.5240  -12.0930   22.5130 H   0  0  0  0  0  0  0  0  0  0  0  0
  -21.2380  -13.2560   22.3630 H   0  0  0  0  0  0  0  0  0  0  0  0
  -25.4950  -15.3180   20.3920 N   0  0  0  0  0  0  0  0  0  0  0  0
  -24.7200  -15.9580   20.5330 H   0  0  0  0  0  0  0  0  0  0  0  0
  -26.3220  -15.7730   20.0250 H   0  0  0  0  0  0  0  0  0  0  0  0
  -28.7680  -25.3780   19.7870 C   0  0  0  0  0  2  0  0  0  0  0  0
  -28.6330  -26.7000   20.3890 O   0  0  0  0  0  0  0  0  0  0  0  0
  -24.6530  -31.9010   23.2680 C   0  0  0  0  0  0  0  0  0  0  0  0
  -27.4480  -27.4310   20.3070 C   0  0  0  0  0  0  0  0  0  0  0  0
  -23.5260  -30.4850   21.5870 C   0  0  0  0  0  3  0  0  0  0  0  0
  -25.0460  -28.9650   20.2220 C   0  0  0  0  0  0  0  0  0  0  0  0
  -26.0620  -30.8570   21.4960 C   0  0  0  0  0  2  0  0  0  0  0  0
  -26.1820  -29.4860   20.8520 C   0  0  0  0  0  0  0  0  0  0  0  0
  -27.3820  -28.7280   20.8900 C   0  0  0  0  0  3  0  0  0  0  0  0
  -26.2780  -26.9430   19.6760 C   0  0  0  0  0  3  0  0  0  0  0  0
  -25.0920  -27.6940   19.6340 C   0  0  0  0  0  3  0  0  0  0  0  0
  -23.7970  -29.8160   20.2170 C   0  0  0  0  0  2  0  0  0  0  0  0
  -24.7620  -31.0970   22.1720 N   0  0  0  0  0  0  0  0  0  0  0  0
  -23.5480  -32.1610   23.7650 O   0  0  0  0  0  0  0  0  0  0  0  0
  -22.8530  -29.4530   22.5210 C   0  0  0  0  0  0  0  0  0  0  0  0
  -21.5300  -29.2740   22.3650 N   0  0  0  0  0  0  0  0  0  0  0  0
  -23.5150  -28.8190   23.3470 O   0  0  0  0  0  0  0  0  0  0  0  0
  -21.0540  -29.8380   21.6760 H   0  0  0  0  0  0  0  0  0  0  0  0
  -18.1320  -28.1350   22.8470 C   0  0  0  0  0  0  0  0  0  0  0  0
  -20.6960  -28.3320   23.1120 C   0  0  0  0  0  3  0  0  0  0  0  0
  -20.7670  -26.9160   22.4940 C   0  0  0  0  0  2  0  0  0  0  0  0
  -19.6530  -26.6470   21.4770 C   0  0  0  0  0  2  0  0  0  0  0  0
  -18.2780  -26.8020   22.1310 C   0  0  0  0  0  2  0  0  0  0  0  0
  -19.2690  -28.8590   23.2940 C   0  0  0  0  0  0  0  0  0  0  0  0
  -19.0810  -30.1090   23.9240 C   0  0  0  0  0  3  0  0  0  0  0  0
  -17.7880  -30.6330   24.1100 C   0  0  0  0  0  3  0  0  0  0  0  0
  -16.6650  -29.9040   23.6780 C   0  0  0  0  0  3  0  0  0  0  0  0
  -16.8390  -28.6570   23.0510 C   0  0  0  0  0  3  0  0  0  0  0  0
  -25.9050  -32.5500   23.9330 C   0  0  0  0  0  3  0  0  0  0  0  0
  -25.5720  -33.9500   24.2290 N   0  0  0  0  0  0  0  0  0  0  0  0
  -25.9270  -34.9940   23.4680 C   0  0  0  0  0  0  0  0  0  0  0  0
  -26.6410  -34.8810   22.4680 O   0  0  0  0  0  0  0  0  0  0  0  0
  -24.9450  -34.1120   25.0040 H   0  0  0  0  0  0  0  0  0  0  0  0
  -24.2120  -36.7730   22.9980 C   0  0  0  0  0  1  0  0  0  0  0  0
  -25.4070  -36.3830   23.8840 C   0  0  0  0  0  3  0  0  0  0  0  0
  -27.4800  -37.2930   24.8350 C   0  0  0  0  0  1  0  0  0  0  0  0
  -26.4380  -37.4420   23.8220 N   0  0  0  0  0  0  0  0  0  0  0  0
  -26.0170  -38.3610   23.9320 H   0  0  0  0  0  0  0  0  0  0  0  0
  -26.3710  -31.8030   25.2430 C   0  0  1  0  0  0  0  0  0  0  0  0
  -25.2320  -31.5640   26.2610 C   0  0  0  0  0  1  0  0  0  0  0  0
  -26.9990  -30.4320   24.9030 C   0  0  0  0  0  1  0  0  0  0  0  0
  -27.4740  -32.6280   25.9490 C   0  0  0  0  0  1  0  0  0  0  0  0
  1 10  1  0
  1  6  1  0
  2  3  1  0
  4  6  1  0
  4  5  1  0
  5 51  1  0
  5  2  1  0
  6  3  1  0
  7  1  2  0
  8 10  2  0
  9  8  1  0
  9 11  2  0
 10 12  1  0
 11 21  1  0
 11 12  1  0
 13 21  1  0
 14 19  1  0
 15 16  1  0
 15 14  1  0
 17 16  1  0
 17 26  1  0
 17 18  1  0
 19 13  1  0
 19 18  1  0
 20 13  2  0
 21 22  1  0
 23 24  2  0
 24 43  1  0
 25 24  1  0
 25 28  1  0
 26 27  1  0
 26 23  1  0
 27 25  2  0
 28 29  1  0
 29 30  2  0
 31 34  1  0
 31 30  1  0
 32 31  2  0
 33 32  1  0
 33 28  2  0
 34 35  1  0
 35 36  1  0
 36 37  2  0
 38 37  1  0
 38 42  1  0
 39 38  2  0
 40 35  2  0
 40 39  1  0
 41 40  1  0
 43 44  1  0
 44 47  1  0
 44 46  1  0
 45 43  2  0
 48 49  1  0
 48 23  1  0
 50 48  1  0
 51 52  1  0
 53 64  2  0
 54 52  1  0
 54 59  1  0
 55 63  1  0
 55 65  1  0
 56 58  1  0
 57 63  1  0
 58 59  2  0
 58 57  1  0
 60 54  2  0
 61 60  1  0
 61 56  2  0
 62 56  1  0
 62 55  1  0
 63 53  1  0
 65 67  2  0
 66 65  1  0
 68 66  1  0
 69 78  2  0
 69 74  1  0
 70 66  1  0
 70 74  1  0
 71 70  1  0
 72 73  1  0
 72 71  1  0
 73 69  1  0
 74 75  2  0
 75 76  1  0
 77 76  2  0
 78 77  1  0
 79 53  1  0
 79 80  1  0
 79 89  1  0
 80 83  1  0
 81 85  1  0
 81 80  1  0
 82 81  2  0
 85 84  1  0
 87 85  1  0
 87 88  1  0
 87 86  1  0
 89 92  1  1
 89 90  1  0
 91 89  1  0
M  ISO  4  13 100  21 100  51 101  52 101
M  END
>  <TORSDO>  (74) 
F 18

>  <SCORE>  (74) 
-14.853

>  <name>  (74) 
73

>  <ligand_id>  (74) 
73

>  <original_smiles>  (74) 
[H]c1c(C(=O)N2C([H])([H])C([H])([H])C([H])(C([H])([H])Oc3c([H])c([H])c4c(c3[H])C([H])([H])N(C(=O)C([H])(N([H])C(=O)C([H])(N([H])C([H])([H])[H])C([H])([H])[H])C(C([H])([H])[H])(C([H])([H])[H])C([H])([H])[H])C([H])(C(=O)N([H])C3([H])c5c([H])c([H])c([H])c([H])c5C([H])([H])C([H])([H])C3([H])[H])C4([H])[H])C2([H])[H])oc(N([H])C(=O)N2C([H])([H])C([H])([H])C([H])([H])C([H])(n3nc(-c4c([H])c([H])c(Oc5c([H])c([H])c(F)c([H])c5F)c([H])c4[H])c(C(=O)N([H])[H])c3N([H])[H])C2([H])[H])c1[H]

>  <smiles>  (74) 
[H]c1c(C(=O)N2C([H])([H])C([H])([H])C([H])(C([H])([H])Oc3c([H])c([H])c4c(c3[H])C([H])([H])N(C(=O)C([H])(N([H])C(=O)C([H])(N([H])C([H])([H])[H])C([H])([H])[H])C(C([H])([H])[H])(C([H])([H])[H])C([H])([H])[H])C([H])(C(=O)N([H])C3([H])c5c([H])c([H])c([H])c([H])c5C([H])([H])C([H])([H])C3([H])[H])C4([H])[H])C2([H])[H])oc(N([H])C(=O)N2C([H])([H])C([H])([H])C([H])([H])C([H])(n3nc(-c4c([H])c([H])c(Oc5c([H])c([H])c(F)c([H])c5F)c([H])c4[H])c(C(=O)N([H])[H])c3N([H])[H])C2([H])[H])c1[H]

$$$$
74:0:0
     RDKit          3D

 95104  0  0  1  0  0  0  0  0999 V2000
  -26.5520  -24.0380   20.7750 C   0  0  0  0  0  0  0  0  0  0  0  0
  -26.0090  -22.7180   20.2490 C   0  0  0  0  0  2  0  0  0  0  0  0
  -26.9700  -21.5740   20.6050 C   0  0  0  0  0  2  0  0  0  0  0  0
  -28.8910  -23.1690   20.6560 C   0  0  0  0  0  2  0  0  0  0  0  0
  -27.9720  -24.3840   20.2970 C   0  0  0  0  0  3  0  0  0  0  0  0
  -28.3530  -21.8600   20.2150 N   0  0  0  0  0  0  0  0  0  0  0  0
  -25.8990  -24.7340   21.5580 O   0  0  0  0  0  0  0  0  0  0  0  0
  -29.7410  -18.4300   19.6160 C   0  0  0  0  0  3  0  0  0  0  0  0
  -29.0370  -19.6470   19.4510 C   0  0  0  0  0  3  0  0  0  0  0  0
  -30.6980  -19.2840   21.6740 C   0  0  0  0  0  3  0  0  0  0  0  0
  -30.5780  -18.2360   20.7350 C   0  0  0  0  0  0  0  0  0  0  0  0
  -29.1490  -20.7000   20.3910 C   0  0  0  0  0  0  0  0  0  0  0  0
  -29.9920  -20.4950   21.5170 C   0  0  0  0  0  0  0  0  0  0  0  0
  -30.1070  -21.4370   22.4840 F   0  0  0  0  0  0  0  0  0  0  0  0
  -31.3980  -16.9580   20.9360 C   0  0  0  0  0  2  0  0  0  0  0  0
  -31.2660  -14.6660   19.9410 C   0  0  0  0  0  0  0  0  0  0  0  0
  -30.8680  -12.4340   18.9630 C   0  0  0  0  0  2  0  0  0  0  0  0
  -29.8960  -12.5390   17.7730 C   0  0  0  0  0  2  0  0  0  0  0  0
  -28.4340  -12.4640   18.2530 C   0  0  0  0  0  2  0  0  0  0  0  0
  -28.1460  -13.4230   19.4400 C   0  0  0  0  0  3  0  0  0  0  0  0
  -29.2270  -13.2910   20.5360 C   0  0  0  0  0  2  0  0  0  0  0  0
  -30.5420  -13.5150   19.9070 N   0  0  0  0  0  0  0  0  0  0  0  0
  -32.3420  -14.7920   19.3520 O   0  0  0  0  0  0  0  0  0  0  0  0
  -30.7220  -15.6910   20.6190 N   0  0  0  0  0  0  0  0  0  0  0  0
  -29.8240  -15.5280   21.0490 H   0  0  0  0  0  0  0  0  0  0  0  0
  -25.8230  -14.1510   20.2750 C   0  0  0  0  0  0  0  0  0  0  0  0
  -24.7300  -13.4340   20.6770 C   0  0  0  0  0  0  0  0  0  0  0  0
  -25.1060  -12.0570   20.5930 C   0  0  0  0  0  0  0  0  0  0  0  0
  -26.8020  -13.2160   19.9750 N   0  0  0  0  0  0  0  0  0  0  0  0
  -26.3750  -11.9500   20.2220 N   0  0  0  0  0  0  0  0  0  0  0  0
  -24.3160  -10.8350   20.7880 C   0  0  0  0  0  0  0  0  0  0  0  0
  -24.7010   -9.8470   21.7200 C   0  0  0  0  0  3  0  0  0  0  0  0
  -23.9140   -8.6890   21.9030 C   0  0  0  0  0  3  0  0  0  0  0  0
  -22.7270   -8.5130   21.1540 C   0  0  0  0  0  0  0  0  0  0  0  0
  -22.3600   -9.4890   20.2110 C   0  0  0  0  0  3  0  0  0  0  0  0
  -23.1470  -10.6380   20.0260 C   0  0  0  0  0  3  0  0  0  0  0  0
  -21.9140   -7.4100   21.2470 O   0  0  0  0  0  0  0  0  0  0  0  0
  -21.7800   -6.7110   22.4190 C   0  0  0  0  0  0  0  0  0  0  0  0
  -21.3410   -7.3300   23.6100 C   0  0  0  0  0  3  0  0  0  0  0  0
  -21.1500   -6.5590   24.7740 C   0  0  0  0  0  3  0  0  0  0  0  0
  -21.3890   -5.1720   24.7480 C   0  0  0  0  0  0  0  0  0  0  0  0
  -21.8220   -4.5540   23.5620 C   0  0  0  0  0  3  0  0  0  0  0  0
  -22.0140   -5.3210   22.4000 C   0  0  0  0  0  0  0  0  0  0  0  0
  -22.4110   -4.7170   21.2550 F   0  0  0  0  0  0  0  0  0  0  0  0
  -21.1980   -4.4300   25.8640 F   0  0  0  0  0  0  0  0  0  0  0  0
  -23.3780  -13.9850   21.0300 C   0  0  0  0  0  0  0  0  0  0  0  0
  -22.6580  -13.3170   21.9250 N   0  0  0  0  0  0  0  0  0  0  0  0
  -22.9720  -15.0420   20.5470 O   0  0  0  0  0  0  0  0  0  0  0  0
  -22.9980  -12.4610   22.3360 H   0  0  0  0  0  0  0  0  0  0  0  0
  -21.7530  -13.6690   22.2040 H   0  0  0  0  0  0  0  0  0  0  0  0
  -26.0630  -15.5130   20.1200 N   0  0  0  0  0  0  0  0  0  0  0  0
  -25.3470  -16.2130   20.2790 H   0  0  0  0  0  0  0  0  0  0  0  0
  -26.9270  -15.9080   19.7700 H   0  0  0  0  0  0  0  0  0  0  0  0
  -28.5100  -25.7570   20.8280 C   0  0  0  0  0  2  0  0  0  0  0  0
  -28.4040  -26.8910   19.9400 O   0  0  0  0  0  0  0  0  0  0  0  0
  -24.6120  -31.9740   23.2370 C   0  0  0  0  0  0  0  0  0  0  0  0
  -27.2420  -27.6270   20.0100 C   0  0  0  0  0  0  0  0  0  0  0  0
  -23.3940  -30.6000   21.5800 C   0  0  0  0  0  3  0  0  0  0  0  0
  -24.8400  -29.1160   20.0910 C   0  0  0  0  0  0  0  0  0  0  0  0
  -25.9130  -30.9860   21.3540 C   0  0  0  0  0  2  0  0  0  0  0  0
  -26.0020  -29.6310   20.6820 C   0  0  0  0  0  0  0  0  0  0  0  0
  -27.2070  -28.8920   20.6430 C   0  0  0  0  0  3  0  0  0  0  0  0
  -26.0750  -27.1450   19.3860 C   0  0  0  0  0  3  0  0  0  0  0  0
  -24.8710  -27.8710   19.4410 C   0  0  0  0  0  3  0  0  0  0  0  0
  -23.5880  -29.9600   20.1800 C   0  0  0  0  0  2  0  0  0  0  0  0
  -24.6580  -31.2020   22.1140 N   0  0  0  0  0  0  0  0  0  0  0  0
  -23.5380  -32.2210   23.8020 O   0  0  0  0  0  0  0  0  0  0  0  0
  -22.7700  -29.5480   22.5250 C   0  0  0  0  0  0  0  0  0  0  0  0
  -21.4470  -29.3480   22.4080 N   0  0  0  0  0  0  0  0  0  0  0  0
  -23.4730  -28.9170   23.3190 O   0  0  0  0  0  0  0  0  0  0  0  0
  -20.9400  -29.9120   21.7410 H   0  0  0  0  0  0  0  0  0  0  0  0
  -18.1000  -28.0800   22.9010 C   0  0  0  0  0  0  0  0  0  0  0  0
  -20.6540  -28.3790   23.1660 C   0  0  0  0  0  3  0  0  0  0  0  0
  -20.7800  -26.9610   22.5610 C   0  0  0  0  0  2  0  0  0  0  0  0
  -19.6790  -26.6400   21.5450 C   0  0  0  0  0  2  0  0  0  0  0  0
  -18.2980  -26.7470   22.1960 C   0  0  0  0  0  2  0  0  0  0  0  0
  -19.2060  -28.8530   23.3410 C   0  0  0  0  0  0  0  0  0  0  0  0
  -18.9680  -30.1010   23.9560 C   0  0  0  0  0  3  0  0  0  0  0  0
  -17.6550  -30.5770   24.1360 C   0  0  0  0  0  3  0  0  0  0  0  0
  -16.5640  -29.7980   23.7130 C   0  0  0  0  0  3  0  0  0  0  0  0
  -16.7870  -28.5520   23.1020 C   0  0  0  0  0  3  0  0  0  0  0  0
  -25.9030  -32.6020   23.8500 C   0  0  0  0  0  3  0  0  0  0  0  0
  -26.4320  -31.8250   25.1170 C   0  0  1  0  0  0  0  0  0  0  0  0
  -25.3490  -31.5800   26.1930 C   0  0  0  0  0  1  0  0  0  0  0  0
  -27.0130  -30.4500   24.7100 C   0  0  0  0  0  1  0  0  0  0  0  0
  -27.5870  -32.6170   25.7740 C   0  0  0  0  0  1  0  0  0  0  0  0
  -25.5970  -33.9980   24.1870 N   0  0  0  0  0  0  0  0  0  0  0  0
  -25.9240  -35.0540   23.4290 C   0  0  0  0  0  0  0  0  0  0  0  0
  -26.5870  -34.9540   22.3930 O   0  0  0  0  0  0  0  0  0  0  0  0
  -25.0080  -34.1490   24.9930 H   0  0  0  0  0  0  0  0  0  0  0  0
  -24.1900  -36.8440   23.0920 C   0  0  0  0  0  1  0  0  0  0  0  0
  -25.4370  -36.4390   23.8940 C   0  0  0  0  0  3  0  0  0  0  0  0
  -27.5760  -37.3250   24.7110 C   0  0  0  0  0  1  0  0  0  0  0  0
  -26.4660  -37.4940   23.7760 N   0  0  0  0  0  0  0  0  0  0  0  0
  -26.0600  -38.4120   23.9330 H   0  0  0  0  0  0  0  0  0  0  0  0
  1  7  2  0
  2  3  1  0
  2  1  1  0
  5  4  1  0
  5  1  1  0
  5 54  1  0
  6 12  1  0
  6  3  1  0
  6  4  1  0
  8 11  1  0
  9  8  2  0
  9 12  1  0
 11 15  1  0
 11 10  2  0
 12 13  2  0
 13 10  1  0
 13 14  1  0
 16 24  1  0
 17 22  1  0
 18 19  1  0
 18 17  1  0
 20 19  1  0
 20 29  1  0
 20 21  1  0
 22 16  1  0
 22 21  1  0
 23 16  2  0
 24 15  1  0
 24 25  1  0
 26 27  2  0
 27 46  1  0
 28 27  1  0
 28 31  1  0
 29 30  1  0
 29 26  1  0
 30 28  2  0
 31 32  1  0
 32 33  2  0
 34 37  1  0
 34 33  1  0
 35 34  2  0
 36 35  1  0
 36 31  2  0
 37 38  1  0
 38 39  1  0
 39 40  2  0
 41 40  1  0
 41 45  1  0
 42 41  2  0
 43 38  2  0
 43 42  1  0
 44 43  1  0
 46 47  1  0
 47 50  1  0
 47 49  1  0
 48 46  2  0
 51 26  1  0
 51 52  1  0
 53 51  1  0
 55 57  1  0
 55 54  1  0
 56 67  2  0
 57 62  1  0
 58 66  1  0
 58 68  1  0
 59 65  1  0
 59 61  1  0
 60 66  1  0
 61 60  1  0
 62 61  2  0
 63 64  1  0
 63 57  2  0
 64 59  2  0
 65 58  1  0
 66 56  1  0
 68 70  2  0
 69 68  1  0
 71 69  1  0
 72 81  2  0
 72 77  1  0
 73 69  1  0
 73 77  1  0
 74 73  1  0
 75 76  1  0
 75 74  1  0
 76 72  1  0
 77 78  2  0
 78 79  1  0
 80 79  2  0
 81 80  1  0
 82 56  1  0
 82 87  1  0
 82 83  1  0
 83 86  1  1
 83 84  1  0
 85 83  1  0
 87 90  1  0
 88 92  1  0
 88 87  1  0
 89 88  2  0
 92 91  1  0
 94 92  1  0
 94 95  1  0
 94 93  1  0
M  ISO  4  16 100  24 100  54 101  55 101
M  END
>  <TORSDO>  (75) 
F 19

>  <SCORE>  (75) 
-13.412

>  <name>  (75) 
74

>  <ligand_id>  (75) 
74

>  <original_smiles>  (75) 
[H]c1c([H])c([H])c2c(c1[H])C([H])([H])C([H])([H])C([H])([H])C2([H])N([H])C(=O)C1([H])N(C(=O)C([H])(N([H])C(=O)C([H])(N([H])C([H])([H])[H])C([H])([H])[H])C(C([H])([H])[H])(C([H])([H])[H])C([H])([H])[H])C([H])([H])c2c([H])c(OC([H])([H])C3([H])C(=O)C([H])([H])C([H])([H])N(c4c([H])c([H])c(C([H])([H])N([H])C(=O)N5C([H])([H])C([H])([H])C([H])([H])C([H])(n6nc(-c7c([H])c([H])c(Oc8c([H])c([H])c(F)c([H])c8F)c([H])c7[H])c(C(=O)N([H])[H])c6N([H])[H])C5([H])[H])c([H])c4F)C3([H])[H])c([H])c([H])c2C1([H])[H]

>  <smiles>  (75) 
[H]c1c([H])c([H])c2c(c1[H])C([H])([H])C([H])([H])C([H])([H])C2([H])N([H])C(=O)C1([H])N(C(=O)C([H])(N([H])C(=O)C([H])(N([H])C([H])([H])[H])C([H])([H])[H])C(C([H])([H])[H])(C([H])([H])[H])C([H])([H])[H])C([H])([H])c2c([H])c(OC([H])([H])C3([H])C(=O)C([H])([H])C([H])([H])N(c4c([H])c([H])c(C([H])([H])N([H])C(=O)N5C([H])([H])C([H])([H])C([H])([H])C([H])(n6nc(-c7c([H])c([H])c(Oc8c([H])c([H])c(F)c([H])c8F)c([H])c7[H])c(C(=O)N([H])[H])c6N([H])[H])C5([H])[H])c([H])c4F)C3([H])[H])c([H])c([H])c2C1([H])[H]

$$$$
75:0:0
     RDKit          3D

 93101  0  0  1  0  0  0  0  0999 V2000
  -31.2830  -18.2640   20.9860 C   0  0  0  0  0  3  0  0  0  0  0  0
  -30.4960  -17.7600   18.7740 C   0  0  0  0  0  3  0  0  0  0  0  0
  -31.1900  -19.6610   20.7110 C   0  0  0  0  0  0  0  0  0  0  0  0
  -30.4370  -19.1610   18.4790 C   0  0  0  0  0  0  0  0  0  0  0  0
  -30.9030  -17.2700   20.0420 C   0  0  0  0  0  0  0  0  0  0  0  0
  -30.7250  -20.1550   19.4620 C   0  0  0  0  0  0  0  0  0  0  0  0
  -31.6060  -20.6370   21.7960 C   0  0  0  0  0  1  0  0  0  0  0  0
  -30.0960  -19.5800   17.0650 C   0  0  0  0  0  1  0  0  0  0  0  0
  -31.3070  -14.7780   19.7490 C   0  0  0  0  0  0  0  0  0  0  0  0
  -30.9040  -12.6500   18.4800 C   0  0  0  0  0  2  0  0  0  0  0  0
  -29.8080  -12.8760   17.4110 C   0  0  0  0  0  2  0  0  0  0  0  0
  -28.3830  -12.7360   17.9940 C   0  0  0  0  0  2  0  0  0  0  0  0
  -28.2270  -13.4860   19.3420 C   0  0  0  0  0  3  0  0  0  0  0  0
  -29.3970  -13.0890   20.2610 C   0  0  0  0  0  2  0  0  0  0  0  0
  -30.6340  -13.5700   19.6170 N   0  0  0  0  0  0  0  0  0  0  0  0
  -32.3690  -14.9360   19.1310 O   0  0  0  0  0  0  0  0  0  0  0  0
  -30.7260  -15.8610   20.4250 N   0  0  0  0  0  0  0  0  0  0  0  0
  -25.9630  -14.1320   20.3800 C   0  0  0  0  0  0  0  0  0  0  0  0
  -24.9130  -13.3740   20.8220 C   0  0  0  0  0  0  0  0  0  0  0  0
  -25.3020  -12.0110   20.6360 C   0  0  0  0  0  0  0  0  0  0  0  0
  -26.9290  -13.2290   19.9630 N   0  0  0  0  0  0  0  0  0  0  0  0
  -26.5420  -11.9440   20.1700 N   0  0  0  0  0  0  0  0  0  0  0  0
  -24.5440  -10.7680   20.8250 C   0  0  0  0  0  0  0  0  0  0  0  0
  -24.9590   -9.7820   21.7480 C   0  0  0  0  0  3  0  0  0  0  0  0
  -24.2030   -8.6050   21.9250 C   0  0  0  0  0  3  0  0  0  0  0  0
  -23.0160   -8.4050   21.1780 C   0  0  0  0  0  0  0  0  0  0  0  0
  -22.6220   -9.3770   20.2420 C   0  0  0  0  0  3  0  0  0  0  0  0
  -23.3800  -10.5460   20.0610 C   0  0  0  0  0  3  0  0  0  0  0  0
  -22.2290   -7.2810   21.2660 O   0  0  0  0  0  0  0  0  0  0  0  0
  -22.0320   -6.6340   22.4580 C   0  0  0  0  0  0  0  0  0  0  0  0
  -21.4800   -7.2900   23.5800 C   0  0  0  0  0  3  0  0  0  0  0  0
  -21.2300   -6.5670   24.7650 C   0  0  0  0  0  3  0  0  0  0  0  0
  -21.5210   -5.1900   24.8250 C   0  0  0  0  0  0  0  0  0  0  0  0
  -22.0670   -4.5350   23.7050 C   0  0  0  0  0  3  0  0  0  0  0  0
  -22.3160   -5.2550   22.5250 C   0  0  0  0  0  0  0  0  0  0  0  0
  -22.8200   -4.6160   21.4420 F   0  0  0  0  0  0  0  0  0  0  0  0
  -21.2740   -4.4950   25.9570 F   0  0  0  0  0  0  0  0  0  0  0  0
  -23.5860  -13.8800   21.3110 C   0  0  0  0  0  0  0  0  0  0  0  0
  -22.9650  -13.1640   22.2410 N   0  0  0  0  0  0  0  0  0  0  0  0
  -23.1210  -14.9440   20.9070 O   0  0  0  0  0  0  0  0  0  0  0  0
  -23.3660  -12.3050   22.5870 H   0  0  0  0  0  0  0  0  0  0  0  0
  -22.0860  -13.4820   22.6200 H   0  0  0  0  0  0  0  0  0  0  0  0
  -26.1580  -15.5070   20.2880 N   0  0  0  0  0  0  0  0  0  0  0  0
  -25.4140  -16.1620   20.5010 H   0  0  0  0  0  0  0  0  0  0  0  0
  -27.0050  -15.9620   19.9710 H   0  0  0  0  0  0  0  0  0  0  0  0
  -29.9510  -15.6620   21.6760 C   0  0  0  0  0  2  0  0  0  0  0  0
  -30.5620  -17.0030   23.7430 C   0  0  0  0  0  2  0  0  0  0  0  0
  -29.8130  -16.8310   22.6420 C   0  0  0  0  0  3  0  0  0  0  0  0
  -30.7550  -21.5440   19.1930 O   0  0  0  0  0  0  0  0  0  0  0  0
  -29.5780  -22.4100   19.3410 C   0  0  0  0  0  3  0  0  0  0  0  0
  -29.8660  -23.9910   19.4770 C   0  0  0  0  0  3  0  0  0  0  0  0
  -28.6250  -24.9970   19.4280 C   0  0  0  0  0  2  0  0  0  0  0  0
  -28.8000  -26.4680   19.6220 O   0  0  0  0  0  0  0  0  0  0  0  0
  -24.8170  -31.4990   23.0220 C   0  0  0  0  0  0  0  0  0  0  0  0
  -27.6500  -27.2850   19.6440 C   0  0  0  0  0  0  0  0  0  0  0  0
  -23.6940  -30.1800   21.2660 C   0  0  0  0  0  3  0  0  0  0  0  0
  -25.2240  -28.8150   19.7420 C   0  0  0  0  0  0  0  0  0  0  0  0
  -26.2250  -30.6140   21.1430 C   0  0  0  0  0  2  0  0  0  0  0  0
  -26.3710  -29.2960   20.3840 C   0  0  0  0  0  0  0  0  0  0  0  0
  -27.5930  -28.5500   20.3160 C   0  0  0  0  0  3  0  0  0  0  0  0
  -26.4660  -26.8620   18.9930 C   0  0  0  0  0  3  0  0  0  0  0  0
  -25.2780  -27.6100   19.0310 C   0  0  0  0  0  3  0  0  0  0  0  0
  -23.9480  -29.6250   19.8420 C   0  0  0  0  0  2  0  0  0  0  0  0
  -24.9300  -30.7780   21.8670 N   0  0  0  0  0  0  0  0  0  0  0  0
  -23.7140  -31.6920   23.5570 O   0  0  0  0  0  0  0  0  0  0  0  0
  -23.0660  -29.0650   22.1370 C   0  0  0  0  0  0  0  0  0  0  0  0
  -21.7450  -28.8610   22.0000 N   0  0  0  0  0  0  0  0  0  0  0  0
  -23.7650  -28.3910   22.8980 O   0  0  0  0  0  0  0  0  0  0  0  0
  -21.2430  -29.4530   21.3540 H   0  0  0  0  0  0  0  0  0  0  0  0
  -18.3930  -27.5670   22.4390 C   0  0  0  0  0  0  0  0  0  0  0  0
  -20.9530  -27.8420   22.6910 C   0  0  0  0  0  3  0  0  0  0  0  0
  -21.0660  -26.4740   21.9800 C   0  0  0  0  0  2  0  0  0  0  0  0
  -19.9510  -26.2300   20.9580 C   0  0  0  0  0  2  0  0  0  0  0  0
  -18.5780  -26.2940   21.6300 C   0  0  0  0  0  2  0  0  0  0  0  0
  -19.5090  -28.3030   22.9220 C   0  0  0  0  0  0  0  0  0  0  0  0
  -19.2780  -29.4980   23.6370 C   0  0  0  0  0  3  0  0  0  0  0  0
  -17.9670  -29.9600   23.8670 C   0  0  0  0  0  3  0  0  0  0  0  0
  -16.8690  -29.2180   23.3990 C   0  0  0  0  0  3  0  0  0  0  0  0
  -17.0820  -28.0220   22.6930 C   0  0  0  0  0  3  0  0  0  0  0  0
  -26.0630  -32.1350   23.7110 C   0  0  0  0  0  3  0  0  0  0  0  0
  -25.6930  -33.4930   24.1310 N   0  0  0  0  0  0  0  0  0  0  0  0
  -26.0020  -34.6090   23.4580 C   0  0  0  0  0  0  0  0  0  0  0  0
  -26.6950  -34.6050   22.4370 O   0  0  0  0  0  0  0  0  0  0  0  0
  -25.0730  -33.5700   24.9240 H   0  0  0  0  0  0  0  0  0  0  0  0
  -24.2100  -36.3540   23.1940 C   0  0  0  0  0  1  0  0  0  0  0  0
  -25.4520  -35.9420   24.0020 C   0  0  0  0  0  3  0  0  0  0  0  0
  -27.5390  -36.8390   24.9360 C   0  0  0  0  0  1  0  0  0  0  0  0
  -26.4430  -37.0390   23.9900 N   0  0  0  0  0  0  0  0  0  0  0  0
  -26.0000  -37.9290   24.2040 H   0  0  0  0  0  0  0  0  0  0  0  0
  -26.5890  -31.2970   24.9410 C   0  0  1  0  0  0  0  0  0  0  0  0
  -25.4820  -30.9290   25.9580 C   0  0  0  0  0  1  0  0  0  0  0  0
  -27.2450  -29.9820   24.4640 C   0  0  0  0  0  1  0  0  0  0  0  0
  -27.6880  -32.0960   25.6830 C   0  0  0  0  0  1  0  0  0  0  0  0
  2  5  1  0
  3  1  1  0
  3  7  1  0
  4  2  2  0
  4  6  1  0
  5 17  1  0
  5  1  2  0
  6  3  2  0
  8  4  1  0
  9 17  1  0
 10 15  1  0
 11 12  1  0
 11 10  1  0
 13 12  1  0
 13 21  1  0
 13 14  1  0
 15  9  1  0
 15 14  1  0
 16  9  2  0
 17 46  1  0
 18 19  2  0
 19 38  1  0
 20 19  1  0
 20 23  1  0
 21 22  1  0
 21 18  1  0
 22 20  2  0
 23 24  1  0
 24 25  2  0
 26 29  1  0
 26 25  1  0
 27 26  2  0
 28 27  1  0
 28 23  2  0
 29 30  1  0
 30 35  2  0
 30 31  1  0
 31 32  2  0
 32 33  1  0
 33 37  1  0
 34 33  2  0
 35 34  1  0
 36 35  1  0
 38 39  1  0
 39 41  1  0
 39 42  1  0
 40 38  2  0
 43 18  1  0
 43 44  1  0
 45 43  1  0
 46 48  1  0
 48 47  2  0
 49 50  1  0
 49  6  1  0
 50 51  2  0
 52 51  1  0
 52 53  1  0
 53 55  1  0
 54 65  2  0
 55 60  1  0
 56 64  1  0
 56 66  1  0
 57 63  1  0
 57 59  1  0
 58 64  1  0
 59 58  1  0
 60 59  2  0
 61 62  1  0
 61 55  2  0
 62 57  2  0
 63 56  1  0
 64 54  1  0
 66 68  2  0
 67 66  1  0
 69 67  1  0
 70 79  2  0
 70 75  1  0
 71 67  1  0
 71 75  1  0
 72 71  1  0
 73 74  1  0
 73 72  1  0
 74 70  1  0
 75 76  2  0
 76 77  1  0
 78 77  2  0
 79 78  1  0
 80 54  1  0
 80 81  1  0
 80 90  1  0
 81 84  1  0
 82 86  1  0
 82 81  1  0
 83 82  2  0
 86 85  1  0
 88 86  1  0
 88 89  1  0
 88 87  1  0
 90 93  1  1
 90 91  1  0
 92 90  1  0
M  ISO  4   9 100  17 100  52 101  53 101
M  END
>  <TORSDO>  (76) 
F 22

>  <SCORE>  (76) 
-8.743

>  <name>  (76) 
75

>  <ligand_id>  (76) 
75

>  <original_smiles>  (76) 
[H]C([H])=C([H])C([H])([H])N(C(=O)N1C([H])([H])C([H])([H])C([H])([H])C([H])(n2nc(-c3c([H])c([H])c(Oc4c([H])c([H])c(F)c([H])c4F)c([H])c3[H])c(C(=O)N([H])[H])c2N([H])[H])C1([H])[H])c1c([H])c(C([H])([H])[H])c(OC([H])([H])C([H])([H])C([H])([H])Oc2c([H])c([H])c3c(c2[H])C([H])([H])N(C(=O)C([H])(N([H])C(=O)C([H])(N([H])C([H])([H])[H])C([H])([H])[H])C(C([H])([H])[H])(C([H])([H])[H])C([H])([H])[H])C([H])(C(=O)N([H])C2([H])c4c([H])c([H])c([H])c([H])c4C([H])([H])C([H])([H])C2([H])[H])C3([H])[H])c(C([H])([H])[H])c1[H]

>  <smiles>  (76) 
[H]C([H])=C([H])C([H])([H])N(C(=O)N1C([H])([H])C([H])([H])C([H])([H])C([H])(n2nc(-c3c([H])c([H])c(Oc4c([H])c([H])c(F)c([H])c4F)c([H])c3[H])c(C(=O)N([H])[H])c2N([H])[H])C1([H])[H])c1c([H])c(C([H])([H])[H])c(OC([H])([H])C([H])([H])C([H])([H])Oc2c([H])c([H])c3c(c2[H])C([H])([H])N(C(=O)C([H])(N([H])C(=O)C([H])(N([H])C([H])([H])[H])C([H])([H])[H])C(C([H])([H])[H])(C([H])([H])[H])C([H])([H])[H])C([H])(C(=O)N([H])C2([H])c4c([H])c([H])c([H])c([H])c4C([H])([H])C([H])([H])C2([H])[H])C3([H])[H])c(C([H])([H])[H])c1[H]

$$$$
76:0:0
     RDKit          3D

 97106  0  0  1  0  0  0  0  0999 V2000
  -31.6210  -22.3660   19.7910 C   0  0  0  0  0  0  0  0  0  0  0  0
  -31.5940  -23.5920   20.6990 C   0  0  0  0  0  2  0  0  0  0  0  0
  -30.6960  -24.6780   20.0990 C   0  0  0  0  0  2  0  0  0  0  0  0
  -29.2710  -22.7990   19.1590 C   0  0  0  0  0  2  0  0  0  0  0  0
  -29.2750  -24.1270   19.9840 C   0  0  0  0  0  3  0  0  0  0  0  0
  -30.4330  -21.8920   19.3370 N   0  0  0  0  0  0  0  0  0  0  0  0
  -32.7100  -21.8340   19.5540 O   0  0  0  0  0  0  0  0  0  0  0  0
  -30.3540  -20.6420   18.5440 C   0  0  0  0  0  2  0  0  0  0  0  0
  -29.5540  -18.2490   18.6060 C   0  0  0  0  0  3  0  0  0  0  0  0
  -29.6240  -16.9140   19.0420 C   0  0  0  0  0  3  0  0  0  0  0  0
  -31.1940  -17.5710   20.7680 C   0  0  0  0  0  3  0  0  0  0  0  0
  -30.3040  -19.2680   19.2410 C   0  0  0  0  0  0  0  0  0  0  0  0
  -30.4910  -16.5550   20.0980 C   0  0  0  0  0  0  0  0  0  0  0  0
  -31.0600  -18.9250   20.3920 C   0  0  0  0  0  0  0  0  0  0  0  0
  -31.0680  -14.3130   19.5110 C   0  0  0  0  0  0  0  0  0  0  0  0
  -30.4760  -12.2700   18.2620 C   0  0  0  0  0  2  0  0  0  0  0  0
  -29.3980  -12.6230   17.2260 C   0  0  0  0  0  2  0  0  0  0  0  0
  -27.9920  -12.4910   17.8630 C   0  0  0  0  0  2  0  0  0  0  0  0
  -27.8760  -13.2250   19.2210 C   0  0  0  0  0  3  0  0  0  0  0  0
  -29.0720  -12.9030   20.1340 C   0  0  0  0  0  2  0  0  0  0  0  0
  -30.3120  -13.1900   19.3950 N   0  0  0  0  0  0  0  0  0  0  0  0
  -32.0180  -14.5650   18.7580 O   0  0  0  0  0  0  0  0  0  0  0  0
  -30.6810  -15.1900   20.4650 N   0  0  0  0  0  0  0  0  0  0  0  0
  -25.6820  -13.8540   20.4190 C   0  0  0  0  0  0  0  0  0  0  0  0
  -24.6530  -13.0900   20.8910 C   0  0  0  0  0  0  0  0  0  0  0  0
  -25.0210  -11.7330   20.6370 C   0  0  0  0  0  0  0  0  0  0  0  0
  -26.6120  -12.9620   19.8990 N   0  0  0  0  0  0  0  0  0  0  0  0
  -26.2310  -11.6750   20.0960 N   0  0  0  0  0  0  0  0  0  0  0  0
  -24.2740  -10.4870   20.8250 C   0  0  0  0  0  0  0  0  0  0  0  0
  -24.7130   -9.4920   21.7220 C   0  0  0  0  0  3  0  0  0  0  0  0
  -23.9670   -8.3060   21.8900 C   0  0  0  0  0  3  0  0  0  0  0  0
  -22.7710   -8.1070   21.1650 C   0  0  0  0  0  0  0  0  0  0  0  0
  -22.3510   -9.0940   20.2580 C   0  0  0  0  0  3  0  0  0  0  0  0
  -23.0970  -10.2700   20.0840 C   0  0  0  0  0  3  0  0  0  0  0  0
  -22.0010   -6.9710   21.2510 O   0  0  0  0  0  0  0  0  0  0  0  0
  -21.8670   -6.2740   22.4250 C   0  0  0  0  0  0  0  0  0  0  0  0
  -21.3850   -6.8850   23.6030 C   0  0  0  0  0  3  0  0  0  0  0  0
  -21.1820   -6.1160   24.7670 C   0  0  0  0  0  3  0  0  0  0  0  0
  -21.4660   -4.7370   24.7570 C   0  0  0  0  0  0  0  0  0  0  0  0
  -21.9470   -4.1260   23.5890 C   0  0  0  0  0  3  0  0  0  0  0  0
  -22.1460   -4.8920   22.4240 C   0  0  0  0  0  0  0  0  0  0  0  0
  -22.5890   -4.2910   21.2940 F   0  0  0  0  0  0  0  0  0  0  0  0
  -21.2700   -3.9950   25.8750 F   0  0  0  0  0  0  0  0  0  0  0  0
  -23.3520  -13.5850   21.4560 C   0  0  0  0  0  0  0  0  0  0  0  0
  -22.7610  -12.8450   22.3880 N   0  0  0  0  0  0  0  0  0  0  0  0
  -22.8720  -14.6600   21.0940 O   0  0  0  0  0  0  0  0  0  0  0  0
  -23.1580  -11.9760   22.7100 H   0  0  0  0  0  0  0  0  0  0  0  0
  -21.8950  -13.1670   22.8000 H   0  0  0  0  0  0  0  0  0  0  0  0
  -25.9050  -15.2320   20.3640 N   0  0  0  0  0  0  0  0  0  0  0  0
  -25.2400  -15.9180   20.7120 H   0  0  0  0  0  0  0  0  0  0  0  0
  -26.6930  -15.6510   19.8890 H   0  0  0  0  0  0  0  0  0  0  0  0
  -30.0140  -15.5110   22.8730 C   0  0  0  0  0  1  0  0  0  0  0  0
  -30.9750  -14.8420   21.8690 C   0  0  0  0  0  2  0  0  0  0  0  0
  -31.4110  -19.8750   22.5060 C   0  0  0  0  0  1  0  0  0  0  0  0
  -31.7210  -19.8750   21.1200 O   0  0  0  0  0  0  0  0  0  0  0  0
  -28.2620  -25.1430   19.3980 C   0  0  0  0  0  2  0  0  0  0  0  0
  -28.3820  -26.5180   19.8370 O   0  0  0  0  0  0  0  0  0  0  0  0
  -24.6470  -31.7530   22.9630 C   0  0  0  0  0  0  0  0  0  0  0  0
  -27.2280  -27.2940   19.8130 C   0  0  0  0  0  0  0  0  0  0  0  0
  -23.4140  -30.3530   21.3440 C   0  0  0  0  0  3  0  0  0  0  0  0
  -24.8410  -28.8350   19.8810 C   0  0  0  0  0  0  0  0  0  0  0  0
  -25.9430  -30.7060   21.1090 C   0  0  0  0  0  2  0  0  0  0  0  0
  -26.0160  -29.3400   20.4530 C   0  0  0  0  0  0  0  0  0  0  0  0
  -27.2090  -28.5760   20.4220 C   0  0  0  0  0  3  0  0  0  0  0  0
  -26.0320  -26.8360   19.2070 C   0  0  0  0  0  3  0  0  0  0  0  0
  -24.8460  -27.5830   19.2570 C   0  0  0  0  0  3  0  0  0  0  0  0
  -23.5980  -29.6900   19.9560 C   0  0  0  0  0  2  0  0  0  0  0  0
  -24.6870  -30.9520   21.8610 N   0  0  0  0  0  0  0  0  0  0  0  0
  -23.5750  -32.0220   23.5230 O   0  0  0  0  0  0  0  0  0  0  0  0
  -22.7840  -29.3220   22.3100 C   0  0  0  0  0  0  0  0  0  0  0  0
  -21.4540  -29.1580   22.2290 N   0  0  0  0  0  0  0  0  0  0  0  0
  -23.4900  -28.6760   23.0880 O   0  0  0  0  0  0  0  0  0  0  0  0
  -20.9440  -29.7260   21.5670 H   0  0  0  0  0  0  0  0  0  0  0  0
  -18.0810  -28.0300   22.8710 C   0  0  0  0  0  0  0  0  0  0  0  0
  -20.6540  -28.2210   23.0200 C   0  0  0  0  0  3  0  0  0  0  0  0
  -20.6960  -26.8020   22.4080 C   0  0  0  0  0  2  0  0  0  0  0  0
  -19.5370  -26.5280   21.4440 C   0  0  0  0  0  2  0  0  0  0  0  0
  -18.1920  -26.6920   22.1580 C   0  0  0  0  0  2  0  0  0  0  0  0
  -19.2380  -28.7550   23.2610 C   0  0  0  0  0  0  0  0  0  0  0  0
  -19.0800  -30.0100   23.8880 C   0  0  0  0  0  3  0  0  0  0  0  0
  -17.7980  -30.5380   24.1290 C   0  0  0  0  0  3  0  0  0  0  0  0
  -16.6560  -29.8080   23.7570 C   0  0  0  0  0  3  0  0  0  0  0  0
  -16.7990  -28.5560   23.1320 C   0  0  0  0  0  3  0  0  0  0  0  0
  -25.9440  -32.3890   23.5540 C   0  0  0  0  0  3  0  0  0  0  0  0
  -25.5950  -33.7300   24.0410 N   0  0  0  0  0  0  0  0  0  0  0  0
  -25.8450  -34.8670   23.3790 C   0  0  0  0  0  0  0  0  0  0  0  0
  -26.4630  -34.9000   22.3110 O   0  0  0  0  0  0  0  0  0  0  0  0
  -25.0430  -33.7790   24.8840 H   0  0  0  0  0  0  0  0  0  0  0  0
  -24.0550  -36.6260   23.2510 C   0  0  0  0  0  1  0  0  0  0  0  0
  -25.3220  -36.1760   23.9970 C   0  0  0  0  0  3  0  0  0  0  0  0
  -27.4320  -37.0300   24.9110 C   0  0  0  0  0  1  0  0  0  0  0  0
  -26.3180  -37.2680   23.9970 N   0  0  0  0  0  0  0  0  0  0  0  0
  -25.8850  -38.1500   24.2510 H   0  0  0  0  0  0  0  0  0  0  0  0
  -26.5890  -31.5260   24.7080 C   0  0  1  0  0  0  0  0  0  0  0  0
  -25.5840  -31.1140   25.8080 C   0  0  0  0  0  1  0  0  0  0  0  0
  -27.2210  -30.2330   24.1430 C   0  0  0  0  0  1  0  0  0  0  0  0
  -27.7410  -32.3160   25.3730 C   0  0  0  0  0  1  0  0  0  0  0  0
  1  2  1  0
  3  2  1  0
  4  6  1  0
  4  5  1  0
  5 56  1  0
  5  3  1  0
  6  1  1  0
  7  1  2  0
  8 12  1  0
  8  6  1  0
  9 10  2  0
  9 12  1  0
 10 13  1  0
 12 14  2  0
 13 23  1  0
 13 11  2  0
 14 11  1  0
 14 55  1  0
 15 23  1  0
 16 21  1  0
 17 18  1  0
 17 16  1  0
 19 18  1  0
 19 27  1  0
 19 20  1  0
 21 15  1  0
 21 20  1  0
 22 15  2  0
 23 53  1  0
 24 25  2  0
 25 44  1  0
 26 29  1  0
 26 25  1  0
 27 28  1  0
 27 24  1  0
 28 26  2  0
 29 30  1  0
 30 31  2  0
 32 35  1  0
 32 31  1  0
 33 32  2  0
 34 33  1  0
 34 29  2  0
 35 36  1  0
 36 37  1  0
 37 38  2  0
 39 38  1  0
 39 43  1  0
 40 39  2  0
 41 36  2  0
 41 40  1  0
 42 41  1  0
 44 45  1  0
 45 47  1  0
 45 48  1  0
 46 44  2  0
 49 24  1  0
 49 50  1  0
 51 49  1  0
 53 52  1  0
 55 54  1  0
 56 57  1  0
 58 69  2  0
 59 57  1  0
 59 64  1  0
 60 68  1  0
 60 70  1  0
 61 67  1  0
 61 63  1  0
 62 68  1  0
 63 62  1  0
 64 63  2  0
 65 66  1  0
 65 59  2  0
 66 61  2  0
 67 60  1  0
 68 58  1  0
 70 72  2  0
 71 70  1  0
 73 71  1  0
 74 83  2  0
 74 79  1  0
 75 71  1  0
 75 79  1  0
 76 75  1  0
 77 78  1  0
 77 76  1  0
 78 74  1  0
 79 80  2  0
 80 81  1  0
 82 81  2  0
 83 82  1  0
 84 58  1  0
 84 85  1  0
 84 94  1  0
 85 88  1  0
 86 90  1  0
 86 85  1  0
 87 86  2  0
 90 89  1  0
 90 92  1  0
 92 93  1  0
 92 91  1  0
 94 97  1  1
 94 95  1  0
 96 94  1  0
M  ISO  4  15 100  23 100  56 101  57 101
M  END
>  <TORSDO>  (77) 
F 21

>  <SCORE>  (77) 
-9.650

>  <name>  (77) 
76

>  <ligand_id>  (77) 
76

>  <original_smiles>  (77) 
[H]c1c([H])c([H])c2c(c1[H])C([H])([H])C([H])([H])C([H])([H])C2([H])N([H])C(=O)C1([H])N(C(=O)C([H])(N([H])C(=O)C([H])(N([H])C([H])([H])[H])C([H])([H])[H])C(C([H])([H])[H])(C([H])([H])[H])C([H])([H])[H])C([H])([H])c2c([H])c(OC([H])([H])C3([H])C([H])([H])N(C([H])([H])c4c([H])c([H])c(N(C(=O)N5C([H])([H])C([H])([H])C([H])([H])C([H])(n6nc(-c7c([H])c([H])c(Oc8c([H])c([H])c(F)c([H])c8F)c([H])c7[H])c(C(=O)N([H])[H])c6N([H])[H])C5([H])[H])C([H])([H])C([H])([H])[H])c([H])c4OC([H])([H])[H])C(=O)C([H])([H])C3([H])[H])c([H])c([H])c2C1([H])[H]

>  <smiles>  (77) 
[H]c1c([H])c([H])c2c(c1[H])C([H])([H])C([H])([H])C([H])([H])C2([H])N([H])C(=O)C1([H])N(C(=O)C([H])(N([H])C(=O)C([H])(N([H])C([H])([H])[H])C([H])([H])[H])C(C([H])([H])[H])(C([H])([H])[H])C([H])([H])[H])C([H])([H])c2c([H])c(OC([H])([H])C3([H])C([H])([H])N(C([H])([H])c4c([H])c([H])c(N(C(=O)N5C([H])([H])C([H])([H])C([H])([H])C([H])(n6nc(-c7c([H])c([H])c(Oc8c([H])c([H])c(F)c([H])c8F)c([H])c7[H])c(C(=O)N([H])[H])c6N([H])[H])C5([H])[H])C([H])([H])C([H])([H])[H])c([H])c4OC([H])([H])[H])C(=O)C([H])([H])C3([H])[H])c([H])c([H])c2C1([H])[H]

$$$$
77:0:0
     RDKit          3D

 94103  0  0  1  0  0  0  0  0999 V2000
  -26.8010  -23.6560   20.1730 C   0  0  0  0  0  0  0  0  0  0  0  0
  -26.9770  -22.8500   21.4490 C   0  0  0  0  0  2  0  0  0  0  0  0
  -27.5540  -21.4470   21.1720 C   0  0  0  0  0  2  0  0  0  0  0  0
  -29.1680  -22.7190   19.6510 C   0  0  0  0  0  2  0  0  0  0  0  0
  -28.0510  -23.8230   19.3010 C   0  0  0  0  0  3  0  0  0  0  0  0
  -28.6530  -21.4070   20.1850 N   0  0  0  0  0  0  0  0  0  0  0  0
  -25.6860  -24.0560   19.8300 O   0  0  0  0  0  0  0  0  0  0  0  0
  -29.2220  -19.2800   18.9270 C   0  0  0  0  0  3  0  0  0  0  0  0
  -29.5870  -17.8900   18.9450 C   0  0  0  0  0  3  0  0  0  0  0  0
  -30.1960  -18.0940   21.2570 C   0  0  0  0  0  3  0  0  0  0  0  0
  -29.2890  -20.1050   20.0900 C   0  0  0  0  0  0  0  0  0  0  0  0
  -30.0210  -17.2450   20.1410 C   0  0  0  0  0  0  0  0  0  0  0  0
  -29.8800  -19.4810   21.2310 C   0  0  0  0  0  0  0  0  0  0  0  0
  -30.1220  -20.2000   22.3540 F   0  0  0  0  0  0  0  0  0  0  0  0
  -30.8450  -14.7800   19.8400 C   0  0  0  0  0  0  0  0  0  0  0  0
  -30.6450  -12.4600   18.9610 C   0  0  0  0  0  2  0  0  0  0  0  0
  -29.6240  -12.5010   17.8020 C   0  0  0  0  0  2  0  0  0  0  0  0
  -28.1860  -12.3360   18.3350 C   0  0  0  0  0  2  0  0  0  0  0  0
  -27.8840  -13.2660   19.5400 C   0  0  0  0  0  3  0  0  0  0  0  0
  -29.0140  -13.2030   20.5930 C   0  0  0  0  0  2  0  0  0  0  0  0
  -30.2770  -13.5340   19.9090 N   0  0  0  0  0  0  0  0  0  0  0  0
  -31.9290  -14.9690   19.2800 O   0  0  0  0  0  0  0  0  0  0  0  0
  -30.0990  -15.7980   20.3620 N   0  0  0  0  0  0  0  0  0  0  0  0
  -29.3750  -15.4390   20.9660 H   0  0  0  0  0  0  0  0  0  0  0  0
  -25.5740  -13.8810   20.4890 C   0  0  0  0  0  0  0  0  0  0  0  0
  -24.5220  -13.1120   20.9070 C   0  0  0  0  0  0  0  0  0  0  0  0
  -24.9430  -11.7550   20.7620 C   0  0  0  0  0  0  0  0  0  0  0  0
  -26.5710  -12.9900   20.1180 N   0  0  0  0  0  0  0  0  0  0  0  0
  -26.2010  -11.7030   20.3410 N   0  0  0  0  0  0  0  0  0  0  0  0
  -24.2020  -10.5010   20.9470 C   0  0  0  0  0  0  0  0  0  0  0  0
  -24.5980   -9.5420   21.9050 C   0  0  0  0  0  3  0  0  0  0  0  0
  -23.8560   -8.3530   22.0780 C   0  0  0  0  0  3  0  0  0  0  0  0
  -22.7020   -8.1160   21.2930 C   0  0  0  0  0  0  0  0  0  0  0  0
  -22.3260   -9.0620   20.3240 C   0  0  0  0  0  3  0  0  0  0  0  0
  -23.0690  -10.2420   20.1500 C   0  0  0  0  0  3  0  0  0  0  0  0
  -21.9380   -6.9760   21.3730 O   0  0  0  0  0  0  0  0  0  0  0  0
  -21.7200   -6.3390   22.5670 C   0  0  0  0  0  0  0  0  0  0  0  0
  -21.1260   -6.9970   23.6670 C   0  0  0  0  0  3  0  0  0  0  0  0
  -20.8580   -6.2840   24.8510 C   0  0  0  0  0  3  0  0  0  0  0  0
  -21.1700   -4.9140   24.9370 C   0  0  0  0  0  0  0  0  0  0  0  0
  -21.7580   -4.2560   23.8420 C   0  0  0  0  0  3  0  0  0  0  0  0
  -22.0290   -4.9660   22.6580 C   0  0  0  0  0  0  0  0  0  0  0  0
  -22.5750   -4.3230   21.5970 F   0  0  0  0  0  0  0  0  0  0  0  0
  -20.9060   -4.2270   26.0730 F   0  0  0  0  0  0  0  0  0  0  0  0
  -23.1680  -13.6060   21.3320 C   0  0  0  0  0  0  0  0  0  0  0  0
  -22.5110  -12.8880   22.2380 N   0  0  0  0  0  0  0  0  0  0  0  0
  -22.7050  -14.6570   20.8970 O   0  0  0  0  0  0  0  0  0  0  0  0
  -22.8970  -12.0320   22.6070 H   0  0  0  0  0  0  0  0  0  0  0  0
  -21.6130  -13.2040   22.5720 H   0  0  0  0  0  0  0  0  0  0  0  0
  -25.7600  -15.2580   20.3830 N   0  0  0  0  0  0  0  0  0  0  0  0
  -25.0270  -15.9240   20.6100 H   0  0  0  0  0  0  0  0  0  0  0  0
  -26.6070  -15.7020   20.0540 H   0  0  0  0  0  0  0  0  0  0  0  0
  -28.3920  -25.3280   18.7950 C   0  0  0  0  0  2  0  0  0  0  0  0
  -28.3310  -26.6150   19.5390 O   0  0  0  0  0  0  0  0  0  0  0  0
  -24.5730  -31.6720   23.0690 C   0  0  0  0  0  0  0  0  0  0  0  0
  -27.1930  -27.4430   19.5520 C   0  0  0  0  0  0  0  0  0  0  0  0
  -23.3450  -30.3590   21.3740 C   0  0  0  0  0  3  0  0  0  0  0  0
  -24.7840  -28.9780   19.7680 C   0  0  0  0  0  0  0  0  0  0  0  0
  -25.8640  -30.7690   21.1210 C   0  0  0  0  0  2  0  0  0  0  0  0
  -25.9580  -29.4470   20.3710 C   0  0  0  0  0  0  0  0  0  0  0  0
  -27.1590  -28.6800   20.2730 C   0  0  0  0  0  3  0  0  0  0  0  0
  -26.0050  -27.0590   18.8990 C   0  0  0  0  0  3  0  0  0  0  0  0
  -24.8100  -27.7880   19.0280 C   0  0  0  0  0  3  0  0  0  0  0  0
  -23.5200  -29.7980   19.9390 C   0  0  0  0  0  2  0  0  0  0  0  0
  -24.6140  -30.9490   21.9100 N   0  0  0  0  0  0  0  0  0  0  0  0
  -23.5050  -31.8710   23.6690 O   0  0  0  0  0  0  0  0  0  0  0  0
  -22.7570  -29.2490   22.2780 C   0  0  0  0  0  0  0  0  0  0  0  0
  -21.4420  -28.9980   22.1510 N   0  0  0  0  0  0  0  0  0  0  0  0
  -23.4810  -28.6210   23.0530 O   0  0  0  0  0  0  0  0  0  0  0  0
  -20.9150  -29.5590   21.4970 H   0  0  0  0  0  0  0  0  0  0  0  0
  -18.1690  -27.5150   22.5560 C   0  0  0  0  0  0  0  0  0  0  0  0
  -20.6940  -27.9700   22.8770 C   0  0  0  0  0  3  0  0  0  0  0  0
  -20.9210  -26.5740   22.2510 C   0  0  0  0  0  2  0  0  0  0  0  0
  -19.8610  -26.1990   21.2100 C   0  0  0  0  0  2  0  0  0  0  0  0
  -18.4620  -26.2100   21.8340 C   0  0  0  0  0  2  0  0  0  0  0  0
  -19.2180  -28.3460   23.0330 C   0  0  0  0  0  0  0  0  0  0  0  0
  -18.8890  -29.5640   23.6700 C   0  0  0  0  0  3  0  0  0  0  0  0
  -17.5460  -29.9520   23.8310 C   0  0  0  0  0  3  0  0  0  0  0  0
  -16.5130  -29.1180   23.3710 C   0  0  0  0  0  3  0  0  0  0  0  0
  -16.8240  -27.9010   22.7410 C   0  0  0  0  0  3  0  0  0  0  0  0
  -25.8600  -32.3000   23.6860 C   0  0  0  0  0  3  0  0  0  0  0  0
  -25.5190  -33.6590   24.1310 N   0  0  0  0  0  0  0  0  0  0  0  0
  -25.7780  -34.7740   23.4390 C   0  0  0  0  0  0  0  0  0  0  0  0
  -26.3980  -34.7710   22.3720 O   0  0  0  0  0  0  0  0  0  0  0  0
  -24.9560  -33.7330   24.9660 H   0  0  0  0  0  0  0  0  0  0  0  0
  -23.9650  -36.5140   23.3170 C   0  0  0  0  0  1  0  0  0  0  0  0
  -25.2680  -36.1060   24.0230 C   0  0  0  0  0  3  0  0  0  0  0  0
  -27.4130  -37.0210   24.7910 C   0  0  0  0  0  1  0  0  0  0  0  0
  -26.2510  -37.2070   23.9280 N   0  0  0  0  0  0  0  0  0  0  0  0
  -25.8190  -38.0960   24.1670 H   0  0  0  0  0  0  0  0  0  0  0  0
  -26.4530  -31.4560   24.8820 C   0  0  1  0  0  0  0  0  0  0  0  0
  -25.4120  -31.1070   25.9740 C   0  0  0  0  0  1  0  0  0  0  0  0
  -27.0570  -30.1280   24.3710 C   0  0  0  0  0  1  0  0  0  0  0  0
  -27.6080  -32.2370   25.5530 C   0  0  0  0  0  1  0  0  0  0  0  0
  1  2  1  0
  3  2  1  0
  4  6  1  0
  5 53  1  0
  5  4  1  0
  5  1  1  0
  6  3  1  0
  7  1  2  0
  8  9  2  0
  8 11  1  0
  9 12  1  0
 11  6  1  0
 11 13  2  0
 12 23  1  0
 12 10  2  0
 13 10  1  0
 13 14  1  0
 15 21  1  0
 15 23  1  0
 16 21  1  0
 17 18  1  0
 17 16  1  0
 19 18  1  0
 19 28  1  0
 19 20  1  0
 21 20  1  0
 22 15  2  0
 23 24  1  0
 25 26  2  0
 26 45  1  0
 27 26  1  0
 27 30  1  0
 28 29  1  0
 28 25  1  0
 29 27  2  0
 30 31  1  0
 31 32  2  0
 33 36  1  0
 33 32  1  0
 34 33  2  0
 35 34  1  0
 35 30  2  0
 36 37  1  0
 37 42  2  0
 37 38  1  0
 38 39  2  0
 39 40  1  0
 40 44  1  0
 41 40  2  0
 42 41  1  0
 43 42  1  0
 45 46  1  0
 46 49  1  0
 46 48  1  0
 47 45  2  0
 50 25  1  0
 50 51  1  0
 52 50  1  0
 53 54  1  0
 54 56  1  0
 55 66  2  0
 56 61  1  0
 57 65  1  0
 57 67  1  0
 58 64  1  0
 58 60  1  0
 59 65  1  0
 60 59  1  0
 61 60  2  0
 62 63  1  0
 62 56  2  0
 63 58  2  0
 64 57  1  0
 65 55  1  0
 67 69  2  0
 68 67  1  0
 70 68  1  0
 71 80  2  0
 71 76  1  0
 72 68  1  0
 72 76  1  0
 73 72  1  0
 74 75  1  0
 74 73  1  0
 75 71  1  0
 76 77  2  0
 77 78  1  0
 79 78  2  0
 80 79  1  0
 81 55  1  0
 81 82  1  0
 81 91  1  0
 82 85  1  0
 83 87  1  0
 83 82  1  0
 84 83  2  0
 87 86  1  0
 89 87  1  0
 89 90  1  0
 89 88  1  0
 91 94  1  1
 91 92  1  0
 93 91  1  0
M  ISO  4  15 100  23 100  53 101  54 101
M  END
>  <TORSDO>  (78) 
F 18

>  <SCORE>  (78) 
-13.267

>  <name>  (78) 
77

>  <ligand_id>  (78) 
77

>  <original_smiles>  (78) 
[H]c1c([H])c([H])c2c(c1[H])C([H])([H])C([H])([H])C([H])([H])C2([H])N([H])C(=O)C1([H])N(C(=O)C([H])(N([H])C(=O)C([H])(N([H])C([H])([H])[H])C([H])([H])[H])C(C([H])([H])[H])(C([H])([H])[H])C([H])([H])[H])C([H])([H])c2c([H])c(OC([H])([H])C3([H])C(=O)C([H])([H])C([H])([H])N(c4c([H])c([H])c(N([H])C(=O)N5C([H])([H])C([H])([H])C([H])([H])C([H])(n6nc(-c7c([H])c([H])c(Oc8c([H])c([H])c(F)c([H])c8F)c([H])c7[H])c(C(=O)N([H])[H])c6N([H])[H])C5([H])[H])c([H])c4F)C3([H])[H])c([H])c([H])c2C1([H])[H]

>  <smiles>  (78) 
[H]c1c([H])c([H])c2c(c1[H])C([H])([H])C([H])([H])C([H])([H])C2([H])N([H])C(=O)C1([H])N(C(=O)C([H])(N([H])C(=O)C([H])(N([H])C([H])([H])[H])C([H])([H])[H])C(C([H])([H])[H])(C([H])([H])[H])C([H])([H])[H])C([H])([H])c2c([H])c(OC([H])([H])C3([H])C(=O)C([H])([H])C([H])([H])N(c4c([H])c([H])c(N([H])C(=O)N5C([H])([H])C([H])([H])C([H])([H])C([H])(n6nc(-c7c([H])c([H])c(Oc8c([H])c([H])c(F)c([H])c8F)c([H])c7[H])c(C(=O)N([H])[H])c6N([H])[H])C5([H])[H])c([H])c4F)C3([H])[H])c([H])c([H])c2C1([H])[H]

$$$$
78:0:0
     RDKit          3D

 95103  0  0  1  0  0  0  0  0999 V2000
  -29.7030  -19.9000   20.6170 C   0  0  0  0  0  3  0  0  0  0  0  0
  -28.3060  -18.2580   19.5160 C   0  0  0  0  0  3  0  0  0  0  0  0
  -28.8560  -21.0140   20.2250 C   0  0  0  0  0  0  0  0  0  0  0  0
  -29.4570  -18.5100   20.2850 C   0  0  0  0  0  0  0  0  0  0  0  0
  -27.6920  -20.6580   19.4820 C   0  0  0  0  0  0  0  0  0  0  0  0
  -27.4470  -19.3080   19.1290 C   0  0  0  0  0  0  0  0  0  0  0  0
  -26.3340  -19.0080   18.4140 F   0  0  0  0  0  0  0  0  0  0  0  0
  -26.7080  -21.5740   19.0930 N   0  0  0  0  0  0  0  0  0  0  0  0
  -26.4780  -22.3240   19.7320 H   0  0  0  0  0  0  0  0  0  0  0  0
  -25.8660  -21.1350   18.7290 H   0  0  0  0  0  0  0  0  0  0  0  0
  -29.1640  -22.4670   20.7090 C   0  0  0  0  0  0  0  0  0  0  0  0
  -29.8180  -22.6240   21.7440 O   0  0  0  0  0  0  0  0  0  0  0  0
  -28.7650  -23.8010   19.9250 C   0  0  0  0  0  2  0  0  0  0  0  0
  -28.2800  -25.0920   20.7580 C   0  0  0  0  0  2  0  0  0  0  0  0
  -28.4680  -26.4900   20.2620 O   0  0  0  0  0  0  0  0  0  0  0  0
  -24.6300  -31.8530   23.2610 C   0  0  0  0  0  0  0  0  0  0  0  0
  -27.3520  -27.3410   20.2350 C   0  0  0  0  0  0  0  0  0  0  0  0
  -23.4770  -30.4510   21.5860 C   0  0  0  0  0  3  0  0  0  0  0  0
  -24.9750  -28.9260   20.1800 C   0  0  0  0  0  0  0  0  0  0  0  0
  -26.0150  -30.8040   21.4530 C   0  0  0  0  0  2  0  0  0  0  0  0
  -26.1270  -29.4290   20.8000 C   0  0  0  0  0  0  0  0  0  0  0  0
  -27.3230  -28.6480   20.8140 C   0  0  0  0  0  3  0  0  0  0  0  0
  -26.1820  -26.8900   19.5910 C   0  0  0  0  0  3  0  0  0  0  0  0
  -25.0050  -27.6630   19.5660 C   0  0  0  0  0  3  0  0  0  0  0  0
  -23.7280  -29.7870   20.2060 C   0  0  0  0  0  2  0  0  0  0  0  0
  -24.7260  -31.0540   22.1570 N   0  0  0  0  0  0  0  0  0  0  0  0
  -23.5320  -32.1090   23.7780 O   0  0  0  0  0  0  0  0  0  0  0  0
  -22.8110  -29.4180   22.5260 C   0  0  0  0  0  0  0  0  0  0  0  0
  -21.4860  -29.2400   22.3890 N   0  0  0  0  0  0  0  0  0  0  0  0
  -23.4870  -28.7810   23.3390 O   0  0  0  0  0  0  0  0  0  0  0  0
  -21.0000  -29.8080   21.7090 H   0  0  0  0  0  0  0  0  0  0  0  0
  -18.1030  -28.0590   22.8830 C   0  0  0  0  0  0  0  0  0  0  0  0
  -20.6650  -28.2880   23.1390 C   0  0  0  0  0  3  0  0  0  0  0  0
  -20.7490  -26.8720   22.5240 C   0  0  0  0  0  2  0  0  0  0  0  0
  -19.6370  -26.5870   21.5090 C   0  0  0  0  0  2  0  0  0  0  0  0
  -18.2620  -26.7270   22.1690 C   0  0  0  0  0  2  0  0  0  0  0  0
  -19.2320  -28.7990   23.3250 C   0  0  0  0  0  0  0  0  0  0  0  0
  -19.0290  -30.0460   23.9540 C   0  0  0  0  0  3  0  0  0  0  0  0
  -17.7300  -30.5530   24.1470 C   0  0  0  0  0  3  0  0  0  0  0  0
  -16.6160  -29.8100   23.7190 C   0  0  0  0  0  3  0  0  0  0  0  0
  -16.8020  -28.5650   23.0930 C   0  0  0  0  0  3  0  0  0  0  0  0
  -25.8920  -32.4990   23.9120 C   0  0  0  0  0  3  0  0  0  0  0  0
  -25.5660  -33.9000   24.2130 N   0  0  0  0  0  0  0  0  0  0  0  0
  -25.9130  -34.9450   23.4500 C   0  0  0  0  0  0  0  0  0  0  0  0
  -26.6090  -34.8320   22.4380 O   0  0  0  0  0  0  0  0  0  0  0  0
  -24.9510  -34.0620   24.9980 H   0  0  0  0  0  0  0  0  0  0  0  0
  -24.1890  -36.7300   23.0260 C   0  0  0  0  0  1  0  0  0  0  0  0
  -25.4080  -36.3370   23.8770 C   0  0  0  0  0  3  0  0  0  0  0  0
  -27.5110  -37.2460   24.7630 C   0  0  0  0  0  1  0  0  0  0  0  0
  -26.4390  -37.3930   23.7810 N   0  0  0  0  0  0  0  0  0  0  0  0
  -26.0240  -38.3130   23.8990 H   0  0  0  0  0  0  0  0  0  0  0  0
  -26.3700  -31.7490   25.2150 C   0  0  1  0  0  0  0  0  0  0  0  0
  -25.2450  -31.5250   26.2520 C   0  0  0  0  0  1  0  0  0  0  0  0
  -26.9730  -30.3700   24.8630 C   0  0  0  0  0  1  0  0  0  0  0  0
  -27.4950  -32.5600   25.9030 C   0  0  0  0  0  1  0  0  0  0  0  0
  -30.8370  -17.5020   22.1960 C   0  0  0  0  0  1  0  0  0  0  0  0
  -30.3960  -17.3040   20.7340 C   0  0  0  0  0  3  0  0  0  0  0  0
  -30.6880  -14.7510   20.2330 C   0  0  0  0  0  0  0  0  0  0  0  0
  -30.4300  -12.5320   19.1240 C   0  0  0  0  0  2  0  0  0  0  0  0
  -29.4570  -12.6670   17.9330 C   0  0  0  0  0  2  0  0  0  0  0  0
  -27.9970  -12.5020   18.3990 C   0  0  0  0  0  2  0  0  0  0  0  0
  -27.6710  -13.3490   19.6590 C   0  0  0  0  0  3  0  0  0  0  0  0
  -28.7580  -13.1930   20.7450 C   0  0  0  0  0  2  0  0  0  0  0  0
  -30.0430  -13.5450   20.1300 N   0  0  0  0  0  0  0  0  0  0  0  0
  -31.8600  -14.8620   19.8650 O   0  0  0  0  0  0  0  0  0  0  0  0
  -29.9400  -15.8610   20.5790 N   0  0  0  0  0  0  0  0  0  0  0  0
  -28.9770  -15.6740   20.8080 H   0  0  0  0  0  0  0  0  0  0  0  0
  -25.3030  -13.9370   20.4510 C   0  0  0  0  0  0  0  0  0  0  0  0
  -24.2450  -13.1630   20.8440 C   0  0  0  0  0  0  0  0  0  0  0  0
  -24.7060  -11.8110   20.7900 C   0  0  0  0  0  0  0  0  0  0  0  0
  -26.3380  -13.0590   20.1810 N   0  0  0  0  0  0  0  0  0  0  0  0
  -25.9880  -11.7740   20.4480 N   0  0  0  0  0  0  0  0  0  0  0  0
  -23.9810  -10.5490   20.9850 C   0  0  0  0  0  0  0  0  0  0  0  0
  -24.4230   -9.5810   21.9130 C   0  0  0  0  0  3  0  0  0  0  0  0
  -23.7010   -8.3820   22.0960 C   0  0  0  0  0  3  0  0  0  0  0  0
  -22.5200   -8.1440   21.3520 C   0  0  0  0  0  0  0  0  0  0  0  0
  -22.0970   -9.1020   20.4140 C   0  0  0  0  0  3  0  0  0  0  0  0
  -22.8210  -10.2920   20.2280 C   0  0  0  0  0  3  0  0  0  0  0  0
  -21.7650   -7.0000   21.4470 O   0  0  0  0  0  0  0  0  0  0  0  0
  -21.7180   -6.2630   22.6030 C   0  0  0  0  0  0  0  0  0  0  0  0
  -21.2720   -6.8160   23.8230 C   0  0  0  0  0  3  0  0  0  0  0  0
  -21.1740   -6.0030   24.9710 C   0  0  0  0  0  3  0  0  0  0  0  0
  -21.5130   -4.6380   24.8980 C   0  0  0  0  0  0  0  0  0  0  0  0
  -21.9510   -4.0850   23.6820 C   0  0  0  0  0  3  0  0  0  0  0  0
  -22.0510   -4.8950   22.5380 C   0  0  0  0  0  0  0  0  0  0  0  0
  -22.4550   -4.3510   21.3640 F   0  0  0  0  0  0  0  0  0  0  0  0
  -21.4110   -3.8550   25.9970 F   0  0  0  0  0  0  0  0  0  0  0  0
  -22.8550  -13.6410   21.1490 C   0  0  0  0  0  0  0  0  0  0  0  0
  -22.1430  -12.9390   22.0240 N   0  0  0  0  0  0  0  0  0  0  0  0
  -22.4080  -14.6700   20.6460 O   0  0  0  0  0  0  0  0  0  0  0  0
  -22.5190  -12.1080   22.4570 H   0  0  0  0  0  0  0  0  0  0  0  0
  -21.2100  -13.2380   22.2660 H   0  0  0  0  0  0  0  0  0  0  0  0
  -25.4610  -15.3080   20.2750 N   0  0  0  0  0  0  0  0  0  0  0  0
  -24.6800  -15.9480   20.3670 H   0  0  0  0  0  0  0  0  0  0  0  0
  -26.2610  -15.7240   19.8200 H   0  0  0  0  0  0  0  0  0  0  0  0
  2  4  2  0
  3  1  2  0
  3 11  1  0
  4  1  1  0
  4 57  1  0
  5  3  1  0
  6  5  2  0
  6  2  1  0
  7  6  1  0
  8  5  1  0
  8  9  1  0
 10  8  1  0
 11 12  2  0
 13 11  1  0
 13 14  1  0
 15 14  1  0
 16 27  2  0
 17 15  1  0
 17 22  1  0
 18 26  1  0
 18 28  1  0
 19 25  1  0
 19 21  1  0
 20 26  1  0
 21 22  2  0
 21 20  1  0
 23 17  2  0
 24 23  1  0
 24 19  2  0
 25 18  1  0
 26 16  1  0
 28 30  2  0
 29 28  1  0
 31 29  1  0
 32 41  2  0
 32 37  1  0
 33 29  1  0
 33 37  1  0
 34 33  1  0
 35 36  1  0
 35 34  1  0
 36 32  1  0
 37 38  2  0
 38 39  1  0
 40 39  2  0
 41 40  1  0
 42 16  1  0
 42 43  1  0
 42 52  1  0
 43 46  1  0
 44 48  1  0
 44 43  1  0
 45 44  2  0
 48 47  1  0
 50 48  1  0
 50 51  1  0
 50 49  1  0
 52 55  1  1
 52 53  1  0
 54 52  1  0
 57 56  1  0
 58 66  1  0
 59 64  1  0
 60 61  1  0
 60 59  1  0
 62 61  1  0
 62 71  1  0
 62 63  1  0
 64 58  1  0
 64 63  1  0
 65 58  2  0
 66 57  1  0
 66 67  1  0
 68 69  2  0
 69 88  1  0
 70 69  1  0
 70 73  1  0
 71 72  1  0
 71 68  1  0
 72 70  2  0
 73 74  1  0
 74 75  2  0
 76 79  1  0
 76 75  1  0
 77 76  2  0
 78 77  1  0
 78 73  2  0
 79 80  1  0
 80 81  1  0
 81 82  2  0
 83 82  1  0
 83 87  1  0
 84 83  2  0
 85 80  2  0
 85 84  1  0
 86 85  1  0
 88 89  1  0
 89 92  1  0
 89 91  1  0
 90 88  2  0
 93 94  1  0
 93 68  1  0
 95 93  1  0
M  ISO  4  14 101  15 101  58 100  66 100
M  END
>  <TORSDO>  (79) 
F 21

>  <SCORE>  (79) 
-13.959

>  <name>  (79) 
78

>  <ligand_id>  (79) 
78

>  <original_smiles>  (79) 
[H]c1c([H])c([H])c2c(c1[H])C([H])([H])C([H])([H])C([H])([H])C2([H])N([H])C(=O)C1([H])N(C(=O)C([H])(N([H])C(=O)C([H])(N([H])C([H])([H])[H])C([H])([H])[H])C(C([H])([H])[H])(C([H])([H])[H])C([H])([H])[H])C([H])([H])c2c([H])c(OC([H])([H])C([H])([H])C(=O)c3c([H])c(C([H])(N([H])C(=O)N4C([H])([H])C([H])([H])C([H])([H])C([H])(n5nc(-c6c([H])c([H])c(Oc7c([H])c([H])c(F)c([H])c7F)c([H])c6[H])c(C(=O)N([H])[H])c5N([H])[H])C4([H])[H])C([H])([H])[H])c([H])c(F)c3N([H])[H])c([H])c([H])c2C1([H])[H]

>  <smiles>  (79) 
[H]c1c([H])c([H])c2c(c1[H])C([H])([H])C([H])([H])C([H])([H])C2([H])N([H])C(=O)C1([H])N(C(=O)C([H])(N([H])C(=O)C([H])(N([H])C([H])([H])[H])C([H])([H])[H])C(C([H])([H])[H])(C([H])([H])[H])C([H])([H])[H])C([H])([H])c2c([H])c(OC([H])([H])C([H])([H])C(=O)c3c([H])c(C([H])(N([H])C(=O)N4C([H])([H])C([H])([H])C([H])([H])C([H])(n5nc(-c6c([H])c([H])c(Oc7c([H])c([H])c(F)c([H])c7F)c([H])c6[H])c(C(=O)N([H])[H])c5N([H])[H])C4([H])[H])C([H])([H])[H])c([H])c(F)c3N([H])[H])c([H])c([H])c2C1([H])[H]

$$$$
79:0:0
     RDKit          3D

 94102  0  0  1  0  0  0  0  0999 V2000
  -31.0640  -19.1650   19.9810 C   0  0  0  0  0  3  0  0  0  0  0  0
  -30.5040  -20.4140   19.6510 C   0  0  0  0  0  3  0  0  0  0  0  0
  -28.8580  -18.1620   20.0520 C   0  0  0  0  0  3  0  0  0  0  0  0
  -30.2580  -18.0250   20.1940 C   0  0  0  0  0  0  0  0  0  0  0  0
  -28.2930  -19.4240   19.7320 C   0  0  0  0  0  0  0  0  0  0  0  0
  -29.1020  -20.5750   19.5330 C   0  0  0  0  0  0  0  0  0  0  0  0
  -30.9570  -14.3990   20.2250 C   0  0  0  0  0  0  0  0  0  0  0  0
  -30.5740  -12.1300   19.3360 C   0  0  0  0  0  2  0  0  0  0  0  0
  -29.6530  -12.1920   18.1030 C   0  0  0  0  0  2  0  0  0  0  0  0
  -28.1780  -12.1210   18.5400 C   0  0  0  0  0  2  0  0  0  0  0  0
  -27.8380  -13.1140   19.6840 C   0  0  0  0  0  3  0  0  0  0  0  0
  -28.8890  -13.0640   20.8160 C   0  0  0  0  0  2  0  0  0  0  0  0
  -30.2080  -13.2600   20.2050 N   0  0  0  0  0  0  0  0  0  0  0  0
  -32.1230  -14.3910   19.8200 O   0  0  0  0  0  0  0  0  0  0  0  0
  -30.9320  -16.7530   20.6570 C   0  0  0  0  0  0  0  0  0  0  0  0
  -30.3110  -15.5630   20.4810 N   0  0  0  0  0  0  0  0  0  0  0  0
  -32.0740  -16.8600   21.1200 O   0  0  0  0  0  0  0  0  0  0  0  0
  -29.3100  -15.5640   20.4000 H   0  0  0  0  0  0  0  0  0  0  0  0
  -25.4910  -13.8350   20.4430 C   0  0  0  0  0  0  0  0  0  0  0  0
  -24.3910  -13.1170   20.8240 C   0  0  0  0  0  0  0  0  0  0  0  0
  -24.7810  -11.7430   20.7810 C   0  0  0  0  0  0  0  0  0  0  0  0
  -26.4840  -12.9030   20.1900 N   0  0  0  0  0  0  0  0  0  0  0  0
  -26.0630  -11.6400   20.4540 N   0  0  0  0  0  0  0  0  0  0  0  0
  -23.9920  -10.5190   20.9740 C   0  0  0  0  0  0  0  0  0  0  0  0
  -24.3990   -9.5130   21.8790 C   0  0  0  0  0  3  0  0  0  0  0  0
  -23.6150   -8.3550   22.0620 C   0  0  0  0  0  3  0  0  0  0  0  0
  -22.4080   -8.1930   21.3410 C   0  0  0  0  0  0  0  0  0  0  0  0
  -22.0190   -9.1860   20.4240 C   0  0  0  0  0  3  0  0  0  0  0  0
  -22.8050  -10.3370   20.2390 C   0  0  0  0  0  3  0  0  0  0  0  0
  -21.5950   -7.0900   21.4340 O   0  0  0  0  0  0  0  0  0  0  0  0
  -21.5690   -6.3090   22.5620 C   0  0  0  0  0  0  0  0  0  0  0  0
  -21.2250   -6.8360   23.8260 C   0  0  0  0  0  3  0  0  0  0  0  0
  -21.1440   -5.9840   24.9460 C   0  0  0  0  0  3  0  0  0  0  0  0
  -21.3950   -4.6060   24.8030 C   0  0  0  0  0  0  0  0  0  0  0  0
  -21.7310   -4.0790   23.5440 C   0  0  0  0  0  3  0  0  0  0  0  0
  -21.8150   -4.9280   22.4260 C   0  0  0  0  0  0  0  0  0  0  0  0
  -22.1180   -4.4100   21.2110 F   0  0  0  0  0  0  0  0  0  0  0  0
  -21.3090   -3.7860   25.8760 F   0  0  0  0  0  0  0  0  0  0  0  0
  -23.0240  -13.6640   21.1160 C   0  0  0  0  0  0  0  0  0  0  0  0
  -22.2750  -13.0060   21.9950 N   0  0  0  0  0  0  0  0  0  0  0  0
  -22.6300  -14.7100   20.6010 O   0  0  0  0  0  0  0  0  0  0  0  0
  -22.6070  -12.1600   22.4340 H   0  0  0  0  0  0  0  0  0  0  0  0
  -21.3580  -13.3560   22.2340 H   0  0  0  0  0  0  0  0  0  0  0  0
  -25.7230  -15.1960   20.2650 N   0  0  0  0  0  0  0  0  0  0  0  0
  -24.9870  -15.8820   20.3830 H   0  0  0  0  0  0  0  0  0  0  0  0
  -26.5740  -15.5910   19.8860 H   0  0  0  0  0  0  0  0  0  0  0  0
  -26.9110  -19.5480   19.6210 N   0  0  0  0  0  0  0  0  0  0  0  0
  -26.3660  -18.7200   19.4040 H   0  0  0  0  0  0  0  0  0  0  0  0
  -26.5780  -20.3820   19.1450 H   0  0  0  0  0  0  0  0  0  0  0  0
  -28.4920  -21.7960   19.2430 O   0  0  0  0  0  0  0  0  0  0  0  0
  -29.3440  -22.9180   18.9560 C   0  0  0  0  0  2  0  0  0  0  0  0
  -28.6240  -24.2700   18.7070 C   0  0  0  0  0  2  0  0  0  0  0  0
  -28.3000  -25.1150   19.9620 C   0  0  0  0  0  2  0  0  0  0  0  0
  -28.3890  -26.5370   19.7300 O   0  0  0  0  0  0  0  0  0  0  0  0
  -24.5310  -31.5150   23.0500 C   0  0  0  0  0  0  0  0  0  0  0  0
  -27.2160  -27.2590   19.7540 C   0  0  0  0  0  0  0  0  0  0  0  0
  -23.3470  -30.2070   21.3180 C   0  0  0  0  0  3  0  0  0  0  0  0
  -24.8190  -28.7580   19.8220 C   0  0  0  0  0  0  0  0  0  0  0  0
  -25.8720  -30.5870   21.1630 C   0  0  0  0  0  2  0  0  0  0  0  0
  -25.9700  -29.2560   20.4440 C   0  0  0  0  0  0  0  0  0  0  0  0
  -27.1750  -28.5170   20.4000 C   0  0  0  0  0  3  0  0  0  0  0  0
  -26.0470  -26.7750   19.1290 C   0  0  0  0  0  3  0  0  0  0  0  0
  -24.8530  -27.5190   19.1590 C   0  0  0  0  0  3  0  0  0  0  0  0
  -23.5710  -29.6100   19.9020 C   0  0  0  0  0  2  0  0  0  0  0  0
  -24.6010  -30.7810   21.9040 N   0  0  0  0  0  0  0  0  0  0  0  0
  -23.4440  -31.7510   23.5950 O   0  0  0  0  0  0  0  0  0  0  0  0
  -22.6920  -29.1300   22.2100 C   0  0  0  0  0  0  0  0  0  0  0  0
  -21.3610  -28.9840   22.0960 N   0  0  0  0  0  0  0  0  0  0  0  0
  -23.3760  -28.4290   22.9620 O   0  0  0  0  0  0  0  0  0  0  0  0
  -20.8710  -29.6030   21.4650 H   0  0  0  0  0  0  0  0  0  0  0  0
  -17.9640  -27.8710   22.6190 C   0  0  0  0  0  0  0  0  0  0  0  0
  -20.5380  -28.0070   22.8080 C   0  0  0  0  0  3  0  0  0  0  0  0
  -20.5610  -26.6340   22.0950 C   0  0  0  0  0  2  0  0  0  0  0  0
  -19.4090  -26.4510   21.1020 C   0  0  0  0  0  2  0  0  0  0  0  0
  -18.0600  -26.5850   21.8140 C   0  0  0  0  0  2  0  0  0  0  0  0
  -19.1280  -28.5460   23.0720 C   0  0  0  0  0  0  0  0  0  0  0  0
  -18.9840  -29.7560   23.7860 C   0  0  0  0  0  3  0  0  0  0  0  0
  -17.7090  -30.2880   24.0510 C   0  0  0  0  0  3  0  0  0  0  0  0
  -16.5590  -29.6070   23.6150 C   0  0  0  0  0  3  0  0  0  0  0  0
  -16.6870  -28.4000   22.9040 C   0  0  0  0  0  3  0  0  0  0  0  0
  -25.8090  -32.1140   23.7180 C   0  0  0  0  0  3  0  0  0  0  0  0
  -25.5080  -33.5060   24.0770 N   0  0  0  0  0  0  0  0  0  0  0  0
  -25.8790  -34.5730   23.3580 C   0  0  0  0  0  0  0  0  0  0  0  0
  -26.5820  -34.4890   22.3480 O   0  0  0  0  0  0  0  0  0  0  0  0
  -24.8900  -33.6470   24.8630 H   0  0  0  0  0  0  0  0  0  0  0  0
  -24.1800  -36.3940   23.0040 C   0  0  0  0  0  1  0  0  0  0  0  0
  -25.3950  -35.9560   23.8370 C   0  0  0  0  0  3  0  0  0  0  0  0
  -27.5120  -36.8000   24.7510 C   0  0  0  0  0  1  0  0  0  0  0  0
  -26.4410  -37.0000   23.7780 N   0  0  0  0  0  0  0  0  0  0  0  0
  -26.0390  -37.9200   23.9340 H   0  0  0  0  0  0  0  0  0  0  0  0
  -26.2880  -31.3020   24.9840 C   0  0  1  0  0  0  0  0  0  0  0  0
  -25.1710  -31.0580   26.0260 C   0  0  0  0  0  1  0  0  0  0  0  0
  -26.8540  -29.9250   24.5660 C   0  0  0  0  0  1  0  0  0  0  0  0
  -27.4380  -32.0590   25.6880 C   0  0  0  0  0  1  0  0  0  0  0  0
  1  4  1  0
  2  1  2  0
  3  4  2  0
  4 15  1  0
  5  3  1  0
  6  2  1  0
  6  5  2  0
  7 16  1  0
  8 13  1  0
  9 10  1  0
  9  8  1  0
 11 10  1  0
 11 22  1  0
 11 12  1  0
 13  7  1  0
 13 12  1  0
 14  7  2  0
 15 17  2  0
 16 15  1  0
 18 16  1  0
 19 20  2  0
 20 39  1  0
 21 20  1  0
 21 24  1  0
 22 19  1  0
 22 23  1  0
 23 21  2  0
 24 25  1  0
 25 26  2  0
 27 30  1  0
 27 26  1  0
 28 27  2  0
 29 28  1  0
 29 24  2  0
 30 31  1  0
 31 32  1  0
 32 33  2  0
 34 33  1  0
 34 38  1  0
 35 34  2  0
 36 31  2  0
 36 35  1  0
 37 36  1  0
 39 40  1  0
 40 43  1  0
 40 42  1  0
 41 39  2  0
 44 45  1  0
 44 19  1  0
 46 44  1  0
 47  5  1  0
 48 47  1  0
 49 47  1  0
 50  6  1  0
 51 50  1  0
 52 51  1  0
 52 53  1  0
 54 56  1  0
 54 53  1  0
 55 66  2  0
 56 61  1  0
 57 65  1  0
 57 67  1  0
 58 64  1  0
 58 60  1  0
 59 65  1  0
 60 59  1  0
 61 60  2  0
 62 63  1  0
 62 56  2  0
 63 58  2  0
 64 57  1  0
 65 55  1  0
 67 69  2  0
 68 67  1  0
 70 68  1  0
 71 80  2  0
 71 76  1  0
 72 68  1  0
 72 76  1  0
 73 72  1  0
 74 75  1  0
 74 73  1  0
 75 71  1  0
 76 77  2  0
 77 78  1  0
 79 78  2  0
 80 79  1  0
 81 55  1  0
 81 82  1  0
 81 91  1  0
 82 85  1  0
 83 87  1  0
 83 82  1  0
 84 83  2  0
 87 86  1  0
 89 87  1  0
 89 90  1  0
 89 88  1  0
 91 94  1  1
 91 92  1  0
 93 91  1  0
M  ISO  4   7 100  16 100  53 101  54 101
M  END
>  <TORSDO>  (80) 
F 21

>  <SCORE>  (80) 
-13.234

>  <name>  (80) 
79

>  <ligand_id>  (80) 
79

>  <original_smiles>  (80) 
[H]c1c([H])c([H])c2c(c1[H])C([H])([H])C([H])([H])C([H])([H])C2([H])N([H])C(=O)C1([H])N(C(=O)C([H])(N([H])C(=O)C([H])(N([H])C([H])([H])[H])C([H])([H])[H])C(C([H])([H])[H])(C([H])([H])[H])C([H])([H])[H])C([H])([H])c2c([H])c(OC([H])([H])C([H])([H])C([H])([H])Oc3c([H])c([H])c(C(=O)N([H])C(=O)N4C([H])([H])C([H])([H])C([H])([H])C([H])(n5nc(-c6c([H])c([H])c(Oc7c([H])c([H])c(F)c([H])c7F)c([H])c6[H])c(C(=O)N([H])[H])c5N([H])[H])C4([H])[H])c([H])c3N([H])[H])c([H])c([H])c2C1([H])[H]

>  <smiles>  (80) 
[H]c1c([H])c([H])c2c(c1[H])C([H])([H])C([H])([H])C([H])([H])C2([H])N([H])C(=O)C1([H])N(C(=O)C([H])(N([H])C(=O)C([H])(N([H])C([H])([H])[H])C([H])([H])[H])C(C([H])([H])[H])(C([H])([H])[H])C([H])([H])[H])C([H])([H])c2c([H])c(OC([H])([H])C([H])([H])C([H])([H])Oc3c([H])c([H])c(C(=O)N([H])C(=O)N4C([H])([H])C([H])([H])C([H])([H])C([H])(n5nc(-c6c([H])c([H])c(Oc7c([H])c([H])c(F)c([H])c7F)c([H])c6[H])c(C(=O)N([H])[H])c5N([H])[H])C4([H])[H])c([H])c3N([H])[H])c([H])c([H])c2C1([H])[H]

$$$$
80:0:0
     RDKit          3D

 95104  0  0  1  0  0  0  0  0999 V2000
  -26.9990  -21.7710   20.9960 C   0  0  0  0  0  0  0  0  0  0  0  0
  -26.1820  -23.0490   21.1660 C   0  0  0  0  0  2  0  0  0  0  0  0
  -26.6980  -24.2060   20.3310 C   0  0  0  0  0  2  0  0  0  0  0  0
  -28.8960  -23.0860   20.0280 C   0  0  0  0  0  2  0  0  0  0  0  0
  -28.2420  -24.4290   20.4550 C   0  0  0  0  0  3  0  0  0  0  0  0
  -28.3140  -21.8510   20.6360 N   0  0  0  0  0  0  0  0  0  0  0  0
  -26.4100  -20.7070   21.2140 O   0  0  0  0  0  0  0  0  0  0  0  0
  -30.6390  -19.1510   19.4330 C   0  0  0  0  0  3  0  0  0  0  0  0
  -30.0450  -18.6640   21.7450 C   0  0  0  0  0  3  0  0  0  0  0  0
  -29.8230  -20.2980   19.4540 C   0  0  0  0  0  3  0  0  0  0  0  0
  -29.2490  -19.8290   21.7760 C   0  0  0  0  0  3  0  0  0  0  0  0
  -30.7500  -18.3240   20.5690 C   0  0  0  0  0  0  0  0  0  0  0  0
  -29.1210  -20.6610   20.6280 C   0  0  0  0  0  0  0  0  0  0  0  0
  -31.6970  -14.9820   19.5030 C   0  0  0  0  0  0  0  0  0  0  0  0
  -31.2280  -12.8120   18.4210 C   0  0  0  0  0  2  0  0  0  0  0  0
  -30.0690  -12.9250   17.4120 C   0  0  0  0  0  2  0  0  0  0  0  0
  -28.7170  -12.7290   18.1190 C   0  0  0  0  0  2  0  0  0  0  0  0
  -28.5760  -13.6210   19.3780 C   0  0  0  0  0  3  0  0  0  0  0  0
  -29.8200  -13.4910   20.2860 C   0  0  0  0  0  2  0  0  0  0  0  0
  -31.0030  -13.8140   19.4760 N   0  0  0  0  0  0  0  0  0  0  0  0
  -32.7110  -15.1580   18.8190 O   0  0  0  0  0  0  0  0  0  0  0  0
  -31.6820  -17.1510   20.5130 C   0  0  0  0  0  0  0  0  0  0  0  0
  -31.1160  -15.9750   20.1970 N   0  0  0  0  0  0  0  0  0  0  0  0
  -32.8900  -17.3290   20.7010 O   0  0  0  0  0  0  0  0  0  0  0  0
  -30.1320  -15.8770   20.3880 H   0  0  0  0  0  0  0  0  0  0  0  0
  -26.4700  -14.1950   20.7370 C   0  0  0  0  0  0  0  0  0  0  0  0
  -25.4390  -13.4170   21.1910 C   0  0  0  0  0  0  0  0  0  0  0  0
  -25.7420  -12.0810   20.7880 C   0  0  0  0  0  0  0  0  0  0  0  0
  -27.3440  -13.3250   20.1030 N   0  0  0  0  0  0  0  0  0  0  0  0
  -26.9220  -12.0380   20.1850 N   0  0  0  0  0  0  0  0  0  0  0  0
  -24.9540  -10.8470   20.8900 C   0  0  0  0  0  0  0  0  0  0  0  0
  -25.3870   -9.7590   21.6780 C   0  0  0  0  0  3  0  0  0  0  0  0
  -24.6050   -8.5880   21.7700 C   0  0  0  0  0  3  0  0  0  0  0  0
  -23.3760   -8.5000   21.0730 C   0  0  0  0  0  0  0  0  0  0  0  0
  -22.9640   -9.5770   20.2690 C   0  0  0  0  0  3  0  0  0  0  0  0
  -23.7460  -10.7400   20.1760 C   0  0  0  0  0  3  0  0  0  0  0  0
  -22.5610   -7.3950   21.0870 O   0  0  0  0  0  0  0  0  0  0  0  0
  -22.3940   -6.6340   22.2180 C   0  0  0  0  0  0  0  0  0  0  0  0
  -21.8990   -7.1860   23.4190 C   0  0  0  0  0  3  0  0  0  0  0  0
  -21.6840   -6.3570   24.5380 C   0  0  0  0  0  3  0  0  0  0  0  0
  -21.9440   -4.9770   24.4530 C   0  0  0  0  0  0  0  0  0  0  0  0
  -22.4300   -4.4240   23.2540 C   0  0  0  0  0  3  0  0  0  0  0  0
  -22.6510   -5.2500   22.1390 C   0  0  0  0  0  0  0  0  0  0  0  0
  -23.1000   -4.7110   20.9800 F   0  0  0  0  0  0  0  0  0  0  0  0
  -21.7260   -4.1760   25.5230 F   0  0  0  0  0  0  0  0  0  0  0  0
  -24.1910  -13.8970   21.8750 C   0  0  0  0  0  0  0  0  0  0  0  0
  -23.6220  -13.0770   22.7510 N   0  0  0  0  0  0  0  0  0  0  0  0
  -23.7440  -15.0250   21.6750 O   0  0  0  0  0  0  0  0  0  0  0  0
  -24.0020  -12.1590   22.9320 H   0  0  0  0  0  0  0  0  0  0  0  0
  -22.7920  -13.3690   23.2470 H   0  0  0  0  0  0  0  0  0  0  0  0
  -26.7260  -15.5640   20.7920 N   0  0  0  0  0  0  0  0  0  0  0  0
  -26.0680  -16.2140   21.2080 H   0  0  0  0  0  0  0  0  0  0  0  0
  -27.5060  -16.0270   20.3420 H   0  0  0  0  0  0  0  0  0  0  0  0
  -28.6850  -25.6750   19.5770 C   0  0  0  0  0  2  0  0  0  0  0  0
  -28.9150  -27.1270   19.7170 O   0  0  0  0  0  0  0  0  0  0  0  0
  -25.0980  -31.6930   23.5700 C   0  0  0  0  0  0  0  0  0  0  0  0
  -27.8010  -27.9870   19.6900 C   0  0  0  0  0  0  0  0  0  0  0  0
  -23.9080  -30.6100   21.6930 C   0  0  0  0  0  3  0  0  0  0  0  0
  -25.3820  -29.4290   19.9890 C   0  0  0  0  0  0  0  0  0  0  0  0
  -26.4230  -31.0620   21.5590 C   0  0  0  0  0  2  0  0  0  0  0  0
  -26.5360  -29.8470   20.6650 C   0  0  0  0  0  0  0  0  0  0  0  0
  -27.7490  -29.1330   20.5180 C   0  0  0  0  0  3  0  0  0  0  0  0
  -26.6350  -27.6310   18.9670 C   0  0  0  0  0  3  0  0  0  0  0  0
  -25.4270  -28.3230   19.1320 C   0  0  0  0  0  3  0  0  0  0  0  0
  -24.1120  -30.2120   20.2080 C   0  0  0  0  0  2  0  0  0  0  0  0
  -25.1640  -31.1160   22.3380 N   0  0  0  0  0  0  0  0  0  0  0  0
  -24.0150  -31.8310   24.1560 O   0  0  0  0  0  0  0  0  0  0  0  0
  -23.2750  -29.4140   22.4400 C   0  0  0  0  0  0  0  0  0  0  0  0
  -21.9630  -29.2030   22.2420 N   0  0  0  0  0  0  0  0  0  0  0  0
  -23.9630  -28.6790   23.1550 O   0  0  0  0  0  0  0  0  0  0  0  0
  -21.4610  -29.8440   21.6440 H   0  0  0  0  0  0  0  0  0  0  0  0
  -18.6550  -27.7700   22.3620 C   0  0  0  0  0  0  0  0  0  0  0  0
  -21.1740  -28.1170   22.8190 C   0  0  0  0  0  3  0  0  0  0  0  0
  -21.3910  -26.7980   22.0410 C   0  0  0  0  0  2  0  0  0  0  0  0
  -20.3640  -26.5770   20.9260 C   0  0  0  0  0  2  0  0  0  0  0  0
  -18.9480  -26.5500   21.5040 C   0  0  0  0  0  2  0  0  0  0  0  0
  -19.7020  -28.5150   22.9670 C   0  0  0  0  0  0  0  0  0  0  0  0
  -19.3790  -29.6600   23.7260 C   0  0  0  0  0  3  0  0  0  0  0  0
  -18.0410  -30.0640   23.8870 C   0  0  0  0  0  3  0  0  0  0  0  0
  -17.0050  -29.3100   23.3080 C   0  0  0  0  0  3  0  0  0  0  0  0
  -17.3130  -28.1640   22.5510 C   0  0  0  0  0  3  0  0  0  0  0  0
  -26.3760  -32.2230   24.2900 C   0  0  0  0  0  3  0  0  0  0  0  0
  -26.0520  -33.5370   24.8560 N   0  0  0  0  0  0  0  0  0  0  0  0
  -26.3970  -34.7090   24.3050 C   0  0  0  0  0  0  0  0  0  0  0  0
  -27.0940  -34.7930   23.2910 O   0  0  0  0  0  0  0  0  0  0  0  0
  -25.4360  -33.5450   25.6560 H   0  0  0  0  0  0  0  0  0  0  0  0
  -24.6790  -36.5460   24.2100 C   0  0  0  0  0  1  0  0  0  0  0  0
  -25.8870  -35.9980   24.9870 C   0  0  0  0  0  3  0  0  0  0  0  0
  -27.9810  -36.7070   26.0550 C   0  0  0  0  0  1  0  0  0  0  0  0
  -26.9200  -37.0500   25.1120 N   0  0  0  0  0  0  0  0  0  0  0  0
  -26.5010  -37.9260   25.4130 H   0  0  0  0  0  0  0  0  0  0  0  0
  -26.9040  -31.2470   25.4090 C   0  0  1  0  0  0  0  0  0  0  0  0
  -25.8140  -30.8000   26.4110 C   0  0  0  0  0  1  0  0  0  0  0  0
  -27.4980  -29.9690   24.7740 C   0  0  0  0  0  1  0  0  0  0  0  0
  -28.0500  -31.9180   26.1980 C   0  0  0  0  0  1  0  0  0  0  0  0
  1  2  1  0
  1  7  2  0
  3  5  1  0
  3  2  1  0
  4  5  1  0
  4  6  1  0
  5 54  1  0
  6  1  1  0
  8 10  2  0
  8 12  1  0
  9 11  1  0
 10 13  1  0
 12  9  2  0
 13  6  1  0
 13 11  2  0
 14 23  1  0
 15 20  1  0
 16 17  1  0
 16 15  1  0
 18 17  1  0
 18 29  1  0
 18 19  1  0
 20 14  1  0
 20 19  1  0
 21 14  2  0
 22 12  1  0
 22 24  2  0
 23 25  1  0
 23 22  1  0
 26 51  1  0
 26 27  2  0
 27 46  1  0
 28 31  1  0
 28 27  1  0
 29 30  1  0
 29 26  1  0
 30 28  2  0
 31 32  1  0
 32 33  2  0
 34 37  1  0
 34 33  1  0
 35 34  2  0
 36 35  1  0
 36 31  2  0
 37 38  1  0
 38 39  1  0
 39 40  2  0
 41 40  1  0
 41 45  1  0
 42 41  2  0
 43 38  2  0
 43 42  1  0
 44 43  1  0
 46 47  1  0
 47 49  1  0
 47 50  1  0
 48 46  2  0
 51 52  1  0
 53 51  1  0
 54 55  1  0
 56 67  2  0
 57 55  1  0
 57 62  1  0
 58 66  1  0
 58 68  1  0
 59 65  1  0
 59 61  1  0
 60 66  1  0
 61 60  1  0
 62 61  2  0
 63 64  1  0
 63 57  2  0
 64 59  2  0
 65 58  1  0
 66 56  1  0
 68 70  2  0
 69 68  1  0
 71 69  1  0
 72 81  2  0
 72 77  1  0
 73 69  1  0
 73 77  1  0
 74 73  1  0
 75 76  1  0
 75 74  1  0
 76 72  1  0
 77 78  2  0
 78 79  1  0
 80 79  2  0
 81 80  1  0
 82 56  1  0
 82 83  1  0
 82 92  1  0
 83 86  1  0
 84 83  1  0
 84 88  1  0
 85 84  2  0
 88 87  1  0
 88 90  1  0
 90 91  1  0
 90 89  1  0
 92 95  1  1
 92 93  1  0
 94 92  1  0
M  ISO  4  14 100  23 100  54 101  55 101
M  END
>  <TORSDO>  (81) 
F 18

>  <SCORE>  (81) 
-4.945

>  <name>  (81) 
80

>  <ligand_id>  (81) 
80

>  <original_smiles>  (81) 
[H]c1c([H])c([H])c2c(c1[H])C([H])([H])C([H])([H])C([H])([H])C2([H])N([H])C(=O)C1([H])N(C(=O)C([H])(N([H])C(=O)C([H])(N([H])C([H])([H])[H])C([H])([H])[H])C(C([H])([H])[H])(C([H])([H])[H])C([H])([H])[H])C([H])([H])c2c([H])c(OC([H])([H])C3([H])C([H])([H])N(c4c([H])c([H])c(C(=O)N([H])C(=O)N5C([H])([H])C([H])([H])C([H])([H])C([H])(n6nc(-c7c([H])c([H])c(Oc8c([H])c([H])c(F)c([H])c8F)c([H])c7[H])c(C(=O)N([H])[H])c6N([H])[H])C5([H])[H])c([H])c4[H])C(=O)C([H])([H])C3([H])[H])c([H])c([H])c2C1([H])[H]

>  <smiles>  (81) 
[H]c1c([H])c([H])c2c(c1[H])C([H])([H])C([H])([H])C([H])([H])C2([H])N([H])C(=O)C1([H])N(C(=O)C([H])(N([H])C(=O)C([H])(N([H])C([H])([H])[H])C([H])([H])[H])C(C([H])([H])[H])(C([H])([H])[H])C([H])([H])[H])C([H])([H])c2c([H])c(OC([H])([H])C3([H])C([H])([H])N(c4c([H])c([H])c(C(=O)N([H])C(=O)N5C([H])([H])C([H])([H])C([H])([H])C([H])(n6nc(-c7c([H])c([H])c(Oc8c([H])c([H])c(F)c([H])c8F)c([H])c7[H])c(C(=O)N([H])[H])c6N([H])[H])C5([H])[H])c([H])c4[H])C(=O)C([H])([H])C3([H])[H])c([H])c([H])c2C1([H])[H]

$$$$
81:0:0
     RDKit          3D

 93102  0  0  1  0  0  0  0  0999 V2000
  -28.5230  -20.7370   18.0060 C   0  0  0  0  0  0  0  0  0  0  0  0
  -27.5240  -21.8320   17.6330 C   0  0  0  0  0  2  0  0  0  0  0  0
  -27.9890  -23.2160   18.0770 C   0  0  0  0  0  2  0  0  0  0  0  0
  -28.9390  -21.9650   20.1120 C   0  0  0  0  0  2  0  0  0  0  0  0
  -28.1870  -23.3540   19.6030 C   0  0  0  0  0  3  0  0  0  0  0  0
  -28.8680  -20.6290   19.3070 N   0  0  0  0  0  0  0  0  0  0  0  0
  -28.9220  -19.9660   17.1270 O   0  0  0  0  0  0  0  0  0  0  0  0
  -27.1800  -17.5770   20.7460 C   0  0  0  0  0  3  0  0  0  0  0  0
  -27.5190  -18.9050   20.4180 C   0  0  0  0  0  3  0  0  0  0  0  0
  -28.0790  -16.5110   20.5510 C   0  0  0  0  0  3  0  0  0  0  0  0
  -29.7000  -18.0990   19.6740 C   0  0  0  0  0  3  0  0  0  0  0  0
  -28.7660  -19.2290   19.8440 C   0  0  0  0  0  0  0  0  0  0  0  0
  -29.3770  -16.7100   20.0340 C   0  0  0  0  0  0  0  0  0  0  0  0
  -30.6610  -14.4200   19.5320 C   0  0  0  0  0  0  0  0  0  0  0  0
  -30.2970  -12.0830   18.6900 C   0  0  0  0  0  2  0  0  0  0  0  0
  -29.2660  -12.0780   17.5440 C   0  0  0  0  0  2  0  0  0  0  0  0
  -27.8430  -11.9440   18.1140 C   0  0  0  0  0  2  0  0  0  0  0  0
  -27.5830  -12.9160   19.2960 C   0  0  0  0  0  3  0  0  0  0  0  0
  -28.7360  -12.9160   20.3240 C   0  0  0  0  0  2  0  0  0  0  0  0
  -29.9740  -13.2190   19.5970 N   0  0  0  0  0  0  0  0  0  0  0  0
  -31.7240  -14.4450   18.9010 O   0  0  0  0  0  0  0  0  0  0  0  0
  -31.3340  -15.9070   21.2530 C   0  0  0  0  0  1  0  0  0  0  0  0
  -30.3010  -15.5560   20.2710 N   0  0  0  0  0  0  0  0  0  0  0  0
  -25.3030  -13.5780   20.2560 C   0  0  0  0  0  0  0  0  0  0  0  0
  -24.2600  -12.8390   20.7420 C   0  0  0  0  0  0  0  0  0  0  0  0
  -24.6770  -11.4750   20.6780 C   0  0  0  0  0  0  0  0  0  0  0  0
  -26.2910  -12.6660   19.9260 N   0  0  0  0  0  0  0  0  0  0  0  0
  -25.9280  -11.3950   20.2410 N   0  0  0  0  0  0  0  0  0  0  0  0
  -23.9350  -10.2370   20.9550 C   0  0  0  0  0  0  0  0  0  0  0  0
  -24.3900   -9.2980   21.9080 C   0  0  0  0  0  3  0  0  0  0  0  0
  -23.6480   -8.1270   22.1700 C   0  0  0  0  0  3  0  0  0  0  0  0
  -22.4350   -7.8860   21.4820 C   0  0  0  0  0  0  0  0  0  0  0  0
  -21.9990   -8.8110   20.5170 C   0  0  0  0  0  3  0  0  0  0  0  0
  -22.7410   -9.9740   20.2530 C   0  0  0  0  0  3  0  0  0  0  0  0
  -21.6610   -6.7640   21.6540 O   0  0  0  0  0  0  0  0  0  0  0  0
  -21.5980   -6.1100   22.8590 C   0  0  0  0  0  0  0  0  0  0  0  0
  -21.1700   -6.7580   24.0380 C   0  0  0  0  0  3  0  0  0  0  0  0
  -21.0540   -6.0290   25.2390 C   0  0  0  0  0  3  0  0  0  0  0  0
  -21.3560   -4.6540   25.2610 C   0  0  0  0  0  0  0  0  0  0  0  0
  -21.7780   -4.0070   24.0860 C   0  0  0  0  0  3  0  0  0  0  0  0
  -21.8950   -4.7330   22.8870 C   0  0  0  0  0  0  0  0  0  0  0  0
  -22.2800   -4.0990   21.7540 F   0  0  0  0  0  0  0  0  0  0  0  0
  -21.2390   -3.9520   26.4120 F   0  0  0  0  0  0  0  0  0  0  0  0
  -22.9130  -13.3630   21.1490 C   0  0  0  0  0  0  0  0  0  0  0  0
  -22.2640  -12.7050   22.1020 N   0  0  0  0  0  0  0  0  0  0  0  0
  -22.4510  -14.3910   20.6560 O   0  0  0  0  0  0  0  0  0  0  0  0
  -22.6530  -11.8750   22.5240 H   0  0  0  0  0  0  0  0  0  0  0  0
  -21.3630  -13.0380   22.4160 H   0  0  0  0  0  0  0  0  0  0  0  0
  -25.4880  -14.9410   20.0460 N   0  0  0  0  0  0  0  0  0  0  0  0
  -24.7630  -15.6230   20.2340 H   0  0  0  0  0  0  0  0  0  0  0  0
  -26.3270  -15.3550   19.6620 H   0  0  0  0  0  0  0  0  0  0  0  0
  -28.7830  -24.8900   19.7850 C   0  0  0  0  0  2  0  0  0  0  0  0
  -28.3680  -26.0850   20.6030 O   0  0  0  0  0  0  0  0  0  0  0  0
  -24.5680  -31.6510   23.2220 C   0  0  0  0  0  0  0  0  0  0  0  0
  -27.2850  -26.9700   20.3750 C   0  0  0  0  0  0  0  0  0  0  0  0
  -23.4340  -30.2280   21.5520 C   0  0  0  0  0  3  0  0  0  0  0  0
  -24.9410  -28.6350   20.2100 C   0  0  0  0  0  0  0  0  0  0  0  0
  -25.9810  -30.5130   21.4850 C   0  0  0  0  0  2  0  0  0  0  0  0
  -26.0800  -29.1180   20.8630 C   0  0  0  0  0  0  0  0  0  0  0  0
  -27.2470  -28.2920   20.9420 C   0  0  0  0  0  3  0  0  0  0  0  0
  -26.1340  -26.5560   19.6750 C   0  0  0  0  0  3  0  0  0  0  0  0
  -24.9760  -27.3660   19.6020 C   0  0  0  0  0  3  0  0  0  0  0  0
  -23.7070  -29.5220   20.1930 C   0  0  0  0  0  2  0  0  0  0  0  0
  -24.6780  -30.8200   22.1440 N   0  0  0  0  0  0  0  0  0  0  0  0
  -23.4620  -31.9460   23.7010 O   0  0  0  0  0  0  0  0  0  0  0  0
  -22.7170  -29.2390   22.5020 C   0  0  0  0  0  0  0  0  0  0  0  0
  -21.3920  -29.0850   22.3330 N   0  0  0  0  0  0  0  0  0  0  0  0
  -23.3540  -28.6110   23.3520 O   0  0  0  0  0  0  0  0  0  0  0  0
  -20.9370  -29.6430   21.6240 H   0  0  0  0  0  0  0  0  0  0  0  0
  -17.9740  -27.9750   22.7590 C   0  0  0  0  0  0  0  0  0  0  0  0
  -20.5320  -28.1690   23.0840 C   0  0  0  0  0  3  0  0  0  0  0  0
  -20.6090  -26.7360   22.5090 C   0  0  0  0  0  2  0  0  0  0  0  0
  -19.5210  -26.4430   21.4710 C   0  0  0  0  0  2  0  0  0  0  0  0
  -18.1300  -26.6230   22.0840 C   0  0  0  0  0  2  0  0  0  0  0  0
  -19.1020  -28.7070   23.2150 C   0  0  0  0  0  0  0  0  0  0  0  0
  -18.9020  -29.9740   23.8070 C   0  0  0  0  0  3  0  0  0  0  0  0
  -17.6070  -30.5070   23.9480 C   0  0  0  0  0  3  0  0  0  0  0  0
  -16.4930  -29.7720   23.5070 C   0  0  0  0  0  3  0  0  0  0  0  0
  -16.6780  -28.5070   22.9190 C   0  0  0  0  0  3  0  0  0  0  0  0
  -25.8230  -32.2900   23.8950 C   0  0  0  0  0  3  0  0  0  0  0  0
  -25.5110  -33.7010   24.1700 N   0  0  0  0  0  0  0  0  0  0  0  0
  -25.8820  -34.7300   23.3970 C   0  0  0  0  0  0  0  0  0  0  0  0
  -26.5870  -34.5930   22.3940 O   0  0  0  0  0  0  0  0  0  0  0  0
  -24.8870  -33.8830   24.9430 H   0  0  0  0  0  0  0  0  0  0  0  0
  -24.1800  -36.5280   22.9360 C   0  0  0  0  0  1  0  0  0  0  0  0
  -25.3910  -36.1370   23.7980 C   0  0  0  0  0  3  0  0  0  0  0  0
  -27.5060  -37.0310   24.6730 C   0  0  0  0  0  1  0  0  0  0  0  0
  -26.4360  -37.1780   23.6880 N   0  0  0  0  0  0  0  0  0  0  0  0
  -26.0330  -38.1050   23.7950 H   0  0  0  0  0  0  0  0  0  0  0  0
  -26.2630  -31.5530   25.2190 C   0  0  1  0  0  0  0  0  0  0  0  0
  -25.1110  -31.3560   26.2330 C   0  0  0  0  0  1  0  0  0  0  0  0
  -26.8520  -30.1590   24.9020 C   0  0  0  0  0  1  0  0  0  0  0  0
  -27.3830  -32.3580   25.9200 C   0  0  0  0  0  1  0  0  0  0  0  0
  1  6  1  0
  2  1  1  0
  2  3  1  0
  3  5  1  0
  5 52  1  0
  5  4  1  0
  6 12  1  0
  6  4  1  0
  7  1  2  0
  9  8  2  0
 10  8  1  0
 11 12  2  0
 11 13  1  0
 12  9  1  0
 13 23  1  0
 13 10  2  0
 14 20  1  0
 14 23  1  0
 15 20  1  0
 16 17  1  0
 16 15  1  0
 18 17  1  0
 18 27  1  0
 18 19  1  0
 20 19  1  0
 21 14  2  0
 23 22  1  0
 24 25  2  0
 25 44  1  0
 26 25  1  0
 26 29  1  0
 27 28  1  0
 27 24  1  0
 28 26  2  0
 29 30  1  0
 30 31  2  0
 32 35  1  0
 32 31  1  0
 33 32  2  0
 34 33  1  0
 34 29  2  0
 35 36  1  0
 36 41  2  0
 36 37  1  0
 37 38  2  0
 38 39  1  0
 39 43  1  0
 40 39  2  0
 41 40  1  0
 42 41  1  0
 44 45  1  0
 45 48  1  0
 45 47  1  0
 46 44  2  0
 49 50  1  0
 49 24  1  0
 51 49  1  0
 52 53  1  0
 54 65  2  0
 55 53  1  0
 55 60  1  0
 56 64  1  0
 56 66  1  0
 57 59  1  0
 58 64  1  0
 59 60  2  0
 59 58  1  0
 61 55  2  0
 62 61  1  0
 62 57  2  0
 63 57  1  0
 63 56  1  0
 64 54  1  0
 66 68  2  0
 67 66  1  0
 69 67  1  0
 70 79  2  0
 70 75  1  0
 71 67  1  0
 71 75  1  0
 72 71  1  0
 73 74  1  0
 73 72  1  0
 74 70  1  0
 75 76  2  0
 76 77  1  0
 78 77  2  0
 79 78  1  0
 80 54  1  0
 80 81  1  0
 80 90  1  0
 81 84  1  0
 82 86  1  0
 82 81  1  0
 83 82  2  0
 86 85  1  0
 88 89  1  0
 88 86  1  0
 88 87  1  0
 90 93  1  1
 90 91  1  0
 92 90  1  0
M  ISO  4  14 100  23 100  52 101  53 101
M  END
>  <TORSDO>  (82) 
F 18

>  <SCORE>  (82) 
-12.943

>  <name>  (82) 
81

>  <ligand_id>  (82) 
81

>  <original_smiles>  (82) 
[H]c1c([H])c(N(C(=O)N2C([H])([H])C([H])([H])C([H])([H])C([H])(n3nc(-c4c([H])c([H])c(Oc5c([H])c([H])c(F)c([H])c5F)c([H])c4[H])c(C(=O)N([H])[H])c3N([H])[H])C2([H])[H])C([H])([H])[H])c([H])c(N2C(=O)C([H])([H])C([H])([H])C([H])(C([H])([H])Oc3c([H])c([H])c4c(c3[H])C([H])([H])N(C(=O)C([H])(N([H])C(=O)C([H])(N([H])C([H])([H])[H])C([H])([H])[H])C(C([H])([H])[H])(C([H])([H])[H])C([H])([H])[H])C([H])(C(=O)N([H])C3([H])c5c([H])c([H])c([H])c([H])c5C([H])([H])C([H])([H])C3([H])[H])C4([H])[H])C2([H])[H])c1[H]

>  <smiles>  (82) 
[H]c1c([H])c(N(C(=O)N2C([H])([H])C([H])([H])C([H])([H])C([H])(n3nc(-c4c([H])c([H])c(Oc5c([H])c([H])c(F)c([H])c5F)c([H])c4[H])c(C(=O)N([H])[H])c3N([H])[H])C2([H])[H])C([H])([H])[H])c([H])c(N2C(=O)C([H])([H])C([H])([H])C([H])(C([H])([H])Oc3c([H])c([H])c4c(c3[H])C([H])([H])N(C(=O)C([H])(N([H])C(=O)C([H])(N([H])C([H])([H])[H])C([H])([H])[H])C(C([H])([H])[H])(C([H])([H])[H])C([H])([H])[H])C([H])(C(=O)N([H])C3([H])c5c([H])c([H])c([H])c([H])c5C([H])([H])C([H])([H])C3([H])[H])C4([H])[H])C2([H])[H])c1[H]

$$$$
83:0:0
     RDKit          3D

 93101  0  0  1  0  0  0  0  0999 V2000
  -31.1070  -18.0450   19.4100 C   0  0  0  0  0  3  0  0  0  0  0  0
  -31.6950  -19.2360   18.9450 C   0  0  0  0  0  3  0  0  0  0  0  0
  -29.5730  -19.3510   20.7610 C   0  0  0  0  0  3  0  0  0  0  0  0
  -30.0410  -18.0750   20.3280 C   0  0  0  0  0  0  0  0  0  0  0  0
  -31.2360  -20.5030   19.3830 C   0  0  0  0  0  0  0  0  0  0  0  0
  -30.1520  -20.5680   20.2990 C   0  0  0  0  0  0  0  0  0  0  0  0
  -29.3900  -16.7900   20.7580 C   0  0  0  0  0  0  0  0  0  0  0  0
  -28.1400  -16.6500   20.6310 N   0  0  0  0  0  0  0  0  0  0  0  0
  -27.7320  -17.4680   20.1940 H   0  0  0  0  0  0  0  0  0  0  0  0
  -30.2210  -15.6750   21.4370 C   0  0  0  0  0  2  0  0  0  0  0  0
  -30.6940  -14.5180   20.5050 C   0  0  0  0  0  0  0  0  0  0  0  0
  -30.3570  -12.3770   19.2950 C   0  0  0  0  0  2  0  0  0  0  0  0
  -29.4230  -12.5830   18.0860 C   0  0  0  0  0  2  0  0  0  0  0  0
  -27.9480  -12.4360   18.5110 C   0  0  0  0  0  2  0  0  0  0  0  0
  -27.6100  -13.2700   19.7740 C   0  0  0  0  0  3  0  0  0  0  0  0
  -28.6600  -13.0560   20.8870 C   0  0  0  0  0  2  0  0  0  0  0  0
  -29.9870  -13.3620   20.3300 N   0  0  0  0  0  0  0  0  0  0  0  0
  -31.7710  -14.6860   19.9240 O   0  0  0  0  0  0  0  0  0  0  0  0
  -25.2090  -13.8850   20.4680 C   0  0  0  0  0  0  0  0  0  0  0  0
  -24.1370  -13.1190   20.8310 C   0  0  0  0  0  0  0  0  0  0  0  0
  -24.5960  -11.7660   20.8190 C   0  0  0  0  0  0  0  0  0  0  0  0
  -26.2550  -13.0000   20.2510 N   0  0  0  0  0  0  0  0  0  0  0  0
  -25.8880  -11.7210   20.5210 N   0  0  0  0  0  0  0  0  0  0  0  0
  -23.8680  -10.5080   21.0170 C   0  0  0  0  0  0  0  0  0  0  0  0
  -24.2940   -9.5470   21.9600 C   0  0  0  0  0  3  0  0  0  0  0  0
  -23.5630   -8.3540   22.1420 C   0  0  0  0  0  3  0  0  0  0  0  0
  -22.3940   -8.1120   21.3830 C   0  0  0  0  0  0  0  0  0  0  0  0
  -21.9890   -9.0610   20.4280 C   0  0  0  0  0  3  0  0  0  0  0  0
  -22.7200  -10.2450   20.2440 C   0  0  0  0  0  3  0  0  0  0  0  0
  -21.6370   -6.9690   21.4770 O   0  0  0  0  0  0  0  0  0  0  0  0
  -21.5790   -6.2370   22.6360 C   0  0  0  0  0  0  0  0  0  0  0  0
  -21.1530   -6.8060   23.8570 C   0  0  0  0  0  3  0  0  0  0  0  0
  -21.0370   -5.9990   25.0060 C   0  0  0  0  0  3  0  0  0  0  0  0
  -21.3450   -4.6280   24.9390 C   0  0  0  0  0  0  0  0  0  0  0  0
  -21.7660   -4.0590   23.7240 C   0  0  0  0  0  3  0  0  0  0  0  0
  -21.8790   -4.8620   22.5750 C   0  0  0  0  0  0  0  0  0  0  0  0
  -22.2640   -4.3050   21.4020 F   0  0  0  0  0  0  0  0  0  0  0  0
  -21.2290   -3.8500   26.0420 F   0  0  0  0  0  0  0  0  0  0  0  0
  -22.7390  -13.6010   21.0960 C   0  0  0  0  0  0  0  0  0  0  0  0
  -22.0020  -12.9120   21.9600 N   0  0  0  0  0  0  0  0  0  0  0  0
  -22.3090  -14.6270   20.5690 O   0  0  0  0  0  0  0  0  0  0  0  0
  -22.3630  -12.0830   22.4090 H   0  0  0  0  0  0  0  0  0  0  0  0
  -21.0640  -13.2190   22.1780 H   0  0  0  0  0  0  0  0  0  0  0  0
  -25.3810  -15.2550   20.2940 N   0  0  0  0  0  0  0  0  0  0  0  0
  -24.6430  -15.9190   20.4950 H   0  0  0  0  0  0  0  0  0  0  0  0
  -26.3050  -15.6840   20.2300 H   0  0  0  0  0  0  0  0  0  0  0  0
  -32.5960  -21.6650   17.7890 C   0  0  0  0  0  1  0  0  0  0  0  0
  -31.8310  -21.6810   18.9890 O   0  0  0  0  0  0  0  0  0  0  0  0
  -29.7140  -21.7840   20.8160 O   0  0  0  0  0  0  0  0  0  0  0  0
  -29.2040  -22.7960   19.9190 C   0  0  0  0  0  2  0  0  0  0  0  0
  -29.2810  -24.2470   20.4980 C   0  0  0  0  0  2  0  0  0  0  0  0
  -28.3400  -25.2510   19.7670 C   0  0  0  0  0  2  0  0  0  0  0  0
  -28.3850  -26.6360   20.2120 O   0  0  0  0  0  0  0  0  0  0  0  0
  -24.5760  -31.8880   23.2410 C   0  0  0  0  0  0  0  0  0  0  0  0
  -27.2230  -27.4040   20.1540 C   0  0  0  0  0  0  0  0  0  0  0  0
  -23.3780  -30.4910   21.5930 C   0  0  0  0  0  3  0  0  0  0  0  0
  -24.8340  -28.9560   20.1640 C   0  0  0  0  0  0  0  0  0  0  0  0
  -25.9120  -30.8320   21.4140 C   0  0  0  0  0  2  0  0  0  0  0  0
  -25.9950  -29.4590   20.7660 C   0  0  0  0  0  0  0  0  0  0  0  0
  -27.1870  -28.6890   20.7590 C   0  0  0  0  0  3  0  0  0  0  0  0
  -26.0400  -26.9480   19.5200 C   0  0  0  0  0  3  0  0  0  0  0  0
  -24.8560  -27.7030   19.5360 C   0  0  0  0  0  3  0  0  0  0  0  0
  -23.5940  -29.8190   20.2120 C   0  0  0  0  0  2  0  0  0  0  0  0
  -24.6410  -31.0860   22.1390 N   0  0  0  0  0  0  0  0  0  0  0  0
  -23.4910  -32.1620   23.7730 O   0  0  0  0  0  0  0  0  0  0  0  0
  -22.7190  -29.4670   22.5460 C   0  0  0  0  0  0  0  0  0  0  0  0
  -21.3930  -29.2920   22.4200 N   0  0  0  0  0  0  0  0  0  0  0  0
  -23.3980  -28.8300   23.3560 O   0  0  0  0  0  0  0  0  0  0  0  0
  -20.9040  -29.8600   21.7410 H   0  0  0  0  0  0  0  0  0  0  0  0
  -18.0090  -28.1210   22.9250 C   0  0  0  0  0  0  0  0  0  0  0  0
  -20.5710  -28.3540   23.1850 C   0  0  0  0  0  3  0  0  0  0  0  0
  -20.6560  -26.9260   22.5980 C   0  0  0  0  0  2  0  0  0  0  0  0
  -19.5470  -26.6220   21.5860 C   0  0  0  0  0  2  0  0  0  0  0  0
  -18.1690  -26.7740   22.2380 C   0  0  0  0  0  2  0  0  0  0  0  0
  -19.1360  -28.8690   23.3560 C   0  0  0  0  0  0  0  0  0  0  0  0
  -18.9300  -30.1300   23.9560 C   0  0  0  0  0  3  0  0  0  0  0  0
  -17.6310  -30.6440   24.1280 C   0  0  0  0  0  3  0  0  0  0  0  0
  -16.5190  -29.8920   23.7120 C   0  0  0  0  0  3  0  0  0  0  0  0
  -16.7080  -28.6310   23.1180 C   0  0  0  0  0  3  0  0  0  0  0  0
  -25.8580  -32.5180   23.8670 C   0  0  0  0  0  3  0  0  0  0  0  0
  -25.5470  -33.9150   24.1970 N   0  0  0  0  0  0  0  0  0  0  0  0
  -25.8780  -34.9680   23.4370 C   0  0  0  0  0  0  0  0  0  0  0  0
  -26.5500  -34.8640   22.4060 O   0  0  0  0  0  0  0  0  0  0  0  0
  -24.9540  -34.0700   25.0000 H   0  0  0  0  0  0  0  0  0  0  0  0
  -24.1530  -36.7600   23.0790 C   0  0  0  0  0  1  0  0  0  0  0  0
  -25.3910  -36.3560   23.8940 C   0  0  0  0  0  3  0  0  0  0  0  0
  -27.5250  -37.2390   24.7290 C   0  0  0  0  0  1  0  0  0  0  0  0
  -26.4240  -37.4080   23.7830 N   0  0  0  0  0  0  0  0  0  0  0  0
  -26.0200  -38.3290   23.9310 H   0  0  0  0  0  0  0  0  0  0  0  0
  -26.3720  -31.7440   25.1420 C   0  0  1  0  0  0  0  0  0  0  0  0
  -25.2770  -31.5030   26.2080 C   0  0  0  0  0  1  0  0  0  0  0  0
  -26.9530  -30.3670   24.7450 C   0  0  0  0  0  1  0  0  0  0  0  0
  -27.5210  -32.5360   25.8080 C   0  0  0  0  0  1  0  0  0  0  0  0
  1  4  1  0
  2  5  1  0
  2  1  2  0
  4  7  1  0
  4  3  2  0
  5  6  2  0
  6  3  1  0
  6 49  1  0
  7 10  1  0
  8  7  2  0
  9  8  1  0
 11 10  1  0
 12 17  1  0
 13 14  1  0
 13 12  1  0
 15 14  1  0
 15 22  1  0
 15 16  1  0
 17 11  1  0
 17 16  1  0
 18 11  2  0
 19 20  2  0
 20 39  1  0
 21 20  1  0
 21 24  1  0
 22 19  1  0
 22 23  1  0
 23 21  2  0
 24 25  1  0
 25 26  2  0
 27 30  1  0
 27 26  1  0
 28 27  2  0
 29 28  1  0
 29 24  2  0
 30 31  1  0
 31 32  1  0
 32 33  2  0
 34 33  1  0
 34 38  1  0
 35 34  2  0
 36 31  2  0
 36 35  1  0
 37 36  1  0
 39 40  1  0
 40 43  1  0
 40 42  1  0
 41 39  2  0
 44 19  1  0
 44 45  1  0
 46 44  1  0
 47 48  1  0
 48  5  1  0
 50 51  1  0
 50 49  1  0
 52 53  1  0
 52 51  1  0
 54 65  2  0
 55 53  1  0
 55 60  1  0
 56 64  1  0
 56 66  1  0
 57 63  1  0
 57 59  1  0
 58 64  1  0
 59 58  1  0
 60 59  2  0
 61 62  1  0
 61 55  2  0
 62 57  2  0
 63 56  1  0
 64 54  1  0
 66 68  2  0
 67 66  1  0
 69 67  1  0
 70 79  2  0
 70 75  1  0
 71 67  1  0
 71 75  1  0
 72 71  1  0
 73 74  1  0
 73 72  1  0
 74 70  1  0
 75 76  2  0
 76 77  1  0
 78 77  2  0
 79 78  1  0
 80 54  1  0
 80 81  1  0
 80 90  1  0
 81 84  1  0
 82 86  1  0
 82 81  1  0
 83 82  2  0
 86 85  1  0
 88 86  1  0
 88 89  1  0
 88 87  1  0
 90 93  1  1
 90 91  1  0
 92 90  1  0
M  ISO  4  10 100  11 100  52 101  53 101
M  END
>  <TORSDO>  (83) 
F 23

>  <SCORE>  (83) 
-12.931

>  <name>  (83) 
83

>  <ligand_id>  (83) 
83

>  <original_smiles>  (83) 
[H]N=C(c1c([H])c([H])c(OC([H])([H])[H])c(OC([H])([H])C([H])([H])C([H])([H])Oc2c([H])c([H])c3c(c2[H])C([H])([H])N(C(=O)C([H])(N([H])C(=O)C([H])(N([H])C([H])([H])[H])C([H])([H])[H])C(C([H])([H])[H])(C([H])([H])[H])C([H])([H])[H])C([H])(C(=O)N([H])C2([H])c4c([H])c([H])c([H])c([H])c4C([H])([H])C([H])([H])C2([H])[H])C3([H])[H])c1[H])C([H])([H])C(=O)N1C([H])([H])C([H])([H])C([H])([H])C([H])(n2nc(-c3c([H])c([H])c(Oc4c([H])c([H])c(F)c([H])c4F)c([H])c3[H])c(C(=O)N([H])[H])c2N([H])[H])C1([H])[H]

>  <smiles>  (83) 
[H]N=C(c1c([H])c([H])c(OC([H])([H])[H])c(OC([H])([H])C([H])([H])C([H])([H])Oc2c([H])c([H])c3c(c2[H])C([H])([H])N(C(=O)C([H])(N([H])C(=O)C([H])(N([H])C([H])([H])[H])C([H])([H])[H])C(C([H])([H])[H])(C([H])([H])[H])C([H])([H])[H])C([H])(C(=O)N([H])C2([H])c4c([H])c([H])c([H])c([H])c4C([H])([H])C([H])([H])C2([H])[H])C3([H])[H])c1[H])C([H])([H])C(=O)N1C([H])([H])C([H])([H])C([H])([H])C([H])(n2nc(-c3c([H])c([H])c(Oc4c([H])c([H])c(F)c([H])c4F)c([H])c3[H])c(C(=O)N([H])[H])c2N([H])[H])C1([H])[H]

$$$$
84:0:0
     RDKit          3D

 92101  0  0  1  0  0  0  0  0999 V2000
  -29.4090  -25.0350   21.3120 C   0  0  0  0  0  0  0  0  0  0  0  0
  -28.8490  -26.2560   21.2350 C   0  0  0  0  0  3  0  0  0  0  0  0
  -29.6730  -24.1710   20.0900 C   0  0  0  0  0  2  0  0  0  0  0  0
  -29.8120  -24.3970   22.6360 C   0  0  0  0  0  2  0  0  0  0  0  0
  -29.1070  -22.7550   20.2780 C   0  0  0  0  0  2  0  0  0  0  0  0
  -29.3150  -22.9410   22.7680 C   0  0  0  0  0  2  0  0  0  0  0  0
  -29.5660  -22.1890   21.5420 N   0  0  0  0  0  0  0  0  0  0  0  0
  -29.0850  -18.5370   20.9430 C   0  0  0  0  0  3  0  0  0  0  0  0
  -31.1990  -18.9000   22.0890 C   0  0  0  0  0  3  0  0  0  0  0  0
  -28.8010  -19.9130   21.0350 C   0  0  0  0  0  3  0  0  0  0  0  0
  -30.9070  -20.2740   22.1990 C   0  0  0  0  0  3  0  0  0  0  0  0
  -30.3190  -18.0330   21.4080 C   0  0  0  0  0  0  0  0  0  0  0  0
  -29.7360  -20.7980   21.6170 C   0  0  0  0  0  0  0  0  0  0  0  0
  -30.7760  -16.6750   21.0810 C   0  0  0  0  0  3  0  0  0  0  0  0
  -30.0280  -15.6400   20.6430 C   0  0  0  0  0  3  0  0  0  0  0  0
  -30.7070  -14.4780   20.0810 C   0  0  0  0  0  0  0  0  0  0  0  0
  -30.2790  -12.3590   18.9130 C   0  0  0  0  0  2  0  0  0  0  0  0
  -29.2780  -12.6070   17.7680 C   0  0  0  0  0  2  0  0  0  0  0  0
  -27.8300  -12.4750   18.2790 C   0  0  0  0  0  2  0  0  0  0  0  0
  -27.5730  -13.2780   19.5820 C   0  0  0  0  0  3  0  0  0  0  0  0
  -28.6950  -13.0430   20.6190 C   0  0  0  0  0  2  0  0  0  0  0  0
  -29.9830  -13.3330   19.9730 N   0  0  0  0  0  0  0  0  0  0  0  0
  -31.8140  -14.5990   19.5490 O   0  0  0  0  0  0  0  0  0  0  0  0
  -25.2290  -13.8610   20.4640 C   0  0  0  0  0  0  0  0  0  0  0  0
  -24.1850  -13.0780   20.8790 C   0  0  0  0  0  0  0  0  0  0  0  0
  -24.6410  -11.7270   20.7780 C   0  0  0  0  0  0  0  0  0  0  0  0
  -26.2560  -12.9880   20.1400 N   0  0  0  0  0  0  0  0  0  0  0  0
  -25.9090  -11.6980   20.3850 N   0  0  0  0  0  0  0  0  0  0  0  0
  -23.9280  -10.4600   20.9810 C   0  0  0  0  0  0  0  0  0  0  0  0
  -24.3970   -9.4840   21.8870 C   0  0  0  0  0  3  0  0  0  0  0  0
  -23.6830   -8.2810   22.0750 C   0  0  0  0  0  3  0  0  0  0  0  0
  -22.4870   -8.0450   21.3590 C   0  0  0  0  0  0  0  0  0  0  0  0
  -22.0350   -9.0110   20.4410 C   0  0  0  0  0  3  0  0  0  0  0  0
  -22.7490  -10.2050   20.2500 C   0  0  0  0  0  3  0  0  0  0  0  0
  -21.7410   -6.8940   21.4580 O   0  0  0  0  0  0  0  0  0  0  0  0
  -21.7010   -6.1610   22.6170 C   0  0  0  0  0  0  0  0  0  0  0  0
  -21.2850   -6.7280   23.8420 C   0  0  0  0  0  3  0  0  0  0  0  0
  -21.1920   -5.9210   24.9930 C   0  0  0  0  0  3  0  0  0  0  0  0
  -21.5020   -4.5500   24.9210 C   0  0  0  0  0  0  0  0  0  0  0  0
  -21.9090   -3.9840   23.7010 C   0  0  0  0  0  3  0  0  0  0  0  0
  -22.0050   -4.7880   22.5510 C   0  0  0  0  0  0  0  0  0  0  0  0
  -22.3790   -4.2320   21.3730 F   0  0  0  0  0  0  0  0  0  0  0  0
  -21.4040   -3.7730   26.0250 F   0  0  0  0  0  0  0  0  0  0  0  0
  -22.8100  -13.5480   21.2550 C   0  0  0  0  0  0  0  0  0  0  0  0
  -22.1420  -12.8310   22.1520 N   0  0  0  0  0  0  0  0  0  0  0  0
  -22.3380  -14.5840   20.7880 O   0  0  0  0  0  0  0  0  0  0  0  0
  -22.5390  -11.9940   22.5530 H   0  0  0  0  0  0  0  0  0  0  0  0
  -21.2220  -13.1270   22.4450 H   0  0  0  0  0  0  0  0  0  0  0  0
  -25.3830  -15.2360   20.3170 N   0  0  0  0  0  0  0  0  0  0  0  0
  -24.6240  -15.8840   20.4950 H   0  0  0  0  0  0  0  0  0  0  0  0
  -26.2060  -15.6860   19.9400 H   0  0  0  0  0  0  0  0  0  0  0  0
  -28.4820  -26.8250   20.0450 O   0  0  0  0  0  0  0  0  0  0  0  0
  -24.5450  -31.8340   23.1910 C   0  0  0  0  0  0  0  0  0  0  0  0
  -27.3140  -27.5390   20.0610 C   0  0  0  0  0  0  0  0  0  0  0  0
  -23.3750  -30.4230   21.5280 C   0  0  0  0  0  3  0  0  0  0  0  0
  -24.8730  -28.9460   20.0830 C   0  0  0  0  0  0  0  0  0  0  0  0
  -25.8850  -30.8630   21.3330 C   0  0  0  0  0  2  0  0  0  0  0  0
  -26.0110  -29.5060   20.6810 C   0  0  0  0  0  0  0  0  0  0  0  0
  -27.2340  -28.8080   20.6730 C   0  0  0  0  0  3  0  0  0  0  0  0
  -26.1700  -26.9850   19.4550 C   0  0  0  0  0  3  0  0  0  0  0  0
  -24.9450  -27.6810   19.4690 C   0  0  0  0  0  3  0  0  0  0  0  0
  -23.6020  -29.7650   20.1400 C   0  0  0  0  0  2  0  0  0  0  0  0
  -24.6190  -31.0540   22.0770 N   0  0  0  0  0  0  0  0  0  0  0  0
  -23.4580  -32.0700   23.7360 O   0  0  0  0  0  0  0  0  0  0  0  0
  -22.7530  -29.3720   22.4740 C   0  0  0  0  0  0  0  0  0  0  0  0
  -21.4380  -29.1420   22.3300 N   0  0  0  0  0  0  0  0  0  0  0  0
  -23.4490  -28.7670   23.2940 O   0  0  0  0  0  0  0  0  0  0  0  0
  -20.9360  -29.6850   21.6410 H   0  0  0  0  0  0  0  0  0  0  0  0
  -18.1120  -27.7980   22.7480 C   0  0  0  0  0  0  0  0  0  0  0  0
  -20.6470  -28.1710   23.0840 C   0  0  0  0  0  3  0  0  0  0  0  0
  -20.8280  -26.7440   22.5160 C   0  0  0  0  0  2  0  0  0  0  0  0
  -19.7690  -26.3690   21.4740 C   0  0  0  0  0  2  0  0  0  0  0  0
  -18.3670  -26.4550   22.0840 C   0  0  0  0  0  2  0  0  0  0  0  0
  -19.1840  -28.6100   23.2030 C   0  0  0  0  0  0  0  0  0  0  0  0
  -18.8950  -29.8650   23.7810 C   0  0  0  0  0  3  0  0  0  0  0  0
  -17.5660  -30.3090   23.9100 C   0  0  0  0  0  3  0  0  0  0  0  0
  -16.5070  -29.4950   23.4720 C   0  0  0  0  0  3  0  0  0  0  0  0
  -16.7820  -28.2420   22.8960 C   0  0  0  0  0  3  0  0  0  0  0  0
  -25.8160  -32.4890   23.8210 C   0  0  0  0  0  3  0  0  0  0  0  0
  -25.4790  -33.8780   24.1510 N   0  0  0  0  0  0  0  0  0  0  0  0
  -25.7900  -34.9370   23.3900 C   0  0  0  0  0  0  0  0  0  0  0  0
  -26.4610  -34.8480   22.3590 O   0  0  0  0  0  0  0  0  0  0  0  0
  -24.8790  -34.0200   24.9510 H   0  0  0  0  0  0  0  0  0  0  0  0
  -24.0150  -36.6860   23.0450 C   0  0  0  0  0  1  0  0  0  0  0  0
  -25.2730  -36.3150   23.8470 C   0  0  0  0  0  3  0  0  0  0  0  0
  -27.3920  -37.2540   24.6570 C   0  0  0  0  0  1  0  0  0  0  0  0
  -26.2780  -37.3910   23.7210 N   0  0  0  0  0  0  0  0  0  0  0  0
  -25.8520  -38.3020   23.8640 H   0  0  0  0  0  0  0  0  0  0  0  0
  -26.3460  -31.7210   25.0940 C   0  0  1  0  0  0  0  0  0  0  0  0
  -25.2560  -31.4570   26.1590 C   0  0  0  0  0  1  0  0  0  0  0  0
  -26.9580  -30.3580   24.6930 C   0  0  0  0  0  1  0  0  0  0  0  0
  -27.4780  -32.5360   25.7610 C   0  0  0  0  0  1  0  0  0  0  0  0
  1  4  1  0
  2  1  2  0
  3  5  1  0
  3  1  1  0
  4  6  1  0
  5  7  1  0
  7 13  1  0
  7  6  1  0
  8 10  2  0
  8 12  1  0
  9 11  1  0
 10 13  1  0
 12  9  2  0
 13 11  2  0
 14 12  1  0
 15 14  2  0
 16 15  1  0
 17 22  1  0
 18 19  1  0
 18 17  1  0
 20 19  1  0
 20 27  1  0
 20 21  1  0
 22 16  1  0
 22 21  1  0
 23 16  2  0
 24 25  2  0
 25 44  1  0
 26 25  1  0
 26 29  1  0
 27 28  1  0
 27 24  1  0
 28 26  2  0
 29 30  1  0
 30 31  2  0
 32 35  1  0
 32 31  1  0
 33 32  2  0
 34 33  1  0
 34 29  2  0
 35 36  1  0
 36 37  1  0
 37 38  2  0
 39 38  1  0
 39 43  1  0
 40 39  2  0
 41 36  2  0
 41 40  1  0
 42 41  1  0
 44 45  1  0
 45 48  1  0
 45 47  1  0
 46 44  2  0
 49 24  1  0
 49 50  1  0
 51 49  1  0
 52 54  1  0
 52  2  1  0
 53 64  2  0
 54 59  1  0
 55 63  1  0
 55 65  1  0
 56 62  1  0
 56 58  1  0
 57 63  1  0
 58 57  1  0
 59 58  2  0
 60 61  1  0
 60 54  2  0
 61 56  2  0
 62 55  1  0
 63 53  1  0
 65 67  2  0
 66 65  1  0
 68 66  1  0
 69 78  2  0
 69 74  1  0
 70 66  1  0
 70 74  1  0
 71 70  1  0
 72 73  1  0
 72 71  1  0
 73 69  1  0
 74 75  2  0
 75 76  1  0
 77 76  2  0
 78 77  1  0
 79 53  1  0
 79 80  1  0
 79 89  1  0
 80 83  1  0
 81 85  1  0
 81 80  1  0
 82 81  2  0
 85 84  1  0
 87 85  1  0
 87 88  1  0
 87 86  1  0
 89 92  1  1
 89 90  1  0
 91 89  1  0
M  ISO  4   2 101  15 100  16 100  52 101
M  END
>  <TORSDO>  (84) 
F 18

>  <SCORE>  (84) 
-14.207

>  <name>  (84) 
84

>  <ligand_id>  (84) 
84

>  <original_smiles>  (84) 
[H]C(Oc1c([H])c([H])c2c(c1[H])C([H])([H])N(C(=O)C([H])(N([H])C(=O)C([H])(N([H])C([H])([H])[H])C([H])([H])[H])C(C([H])([H])[H])(C([H])([H])[H])C([H])([H])[H])C([H])(C(=O)N([H])C1([H])c3c([H])c([H])c([H])c([H])c3C([H])([H])C([H])([H])C1([H])[H])C2([H])[H])=C1C([H])([H])C([H])([H])N(c2c([H])c([H])c(C([H])=C([H])C(=O)N3C([H])([H])C([H])([H])C([H])([H])C([H])(n4nc(-c5c([H])c([H])c(Oc6c([H])c([H])c(F)c([H])c6F)c([H])c5[H])c(C(=O)N([H])[H])c4N([H])[H])C3([H])[H])c([H])c2[H])C([H])([H])C1([H])[H]

>  <smiles>  (84) 
[H]C(Oc1c([H])c([H])c2c(c1[H])C([H])([H])N(C(=O)C([H])(N([H])C(=O)C([H])(N([H])C([H])([H])[H])C([H])([H])[H])C(C([H])([H])[H])(C([H])([H])[H])C([H])([H])[H])C([H])(C(=O)N([H])C1([H])c3c([H])c([H])c([H])c([H])c3C([H])([H])C([H])([H])C1([H])[H])C2([H])[H])=C1C([H])([H])C([H])([H])N(c2c([H])c([H])c(C([H])=C([H])C(=O)N3C([H])([H])C([H])([H])C([H])([H])C([H])(n4nc(-c5c([H])c([H])c(Oc6c([H])c([H])c(F)c([H])c6F)c([H])c5[H])c(C(=O)N([H])[H])c4N([H])[H])C3([H])[H])c([H])c2[H])C([H])([H])C1([H])[H]

$$$$
85:0:0
     RDKit          3D

 95104  0  0  1  0  0  0  0  0999 V2000
  -28.9620  -21.9560   17.2910 C   0  0  0  0  0  0  0  0  0  0  0  0
  -28.0180  -23.0260   16.7650 C   0  0  0  0  0  2  0  0  0  0  0  0
  -28.3770  -24.3790   17.3510 C   0  0  0  0  0  2  0  0  0  0  0  0
  -29.1760  -23.0800   19.4360 C   0  0  0  0  0  2  0  0  0  0  0  0
  -28.4150  -24.3710   18.8910 C   0  0  0  0  0  3  0  0  0  0  0  0
  -29.0380  -21.8050   18.6370 N   0  0  0  0  0  0  0  0  0  0  0  0
  -29.6110  -21.2860   16.4800 O   0  0  0  0  0  0  0  0  0  0  0  0
  -28.7710  -18.0010   19.0550 C   0  0  0  0  0  3  0  0  0  0  0  0
  -28.6730  -19.3090   18.5330 C   0  0  0  0  0  3  0  0  0  0  0  0
  -29.7990  -20.2010   20.4640 C   0  0  0  0  0  3  0  0  0  0  0  0
  -29.3600  -17.7560   20.3130 C   0  0  0  0  0  0  0  0  0  0  0  0
  -29.1870  -20.4570   19.2090 C   0  0  0  0  0  0  0  0  0  0  0  0
  -29.8730  -18.8840   21.0100 C   0  0  0  0  0  0  0  0  0  0  0  0
  -30.4100  -18.7270   22.2440 F   0  0  0  0  0  0  0  0  0  0  0  0
  -29.2510  -16.3290   20.9270 C   0  0  0  0  0  2  0  0  0  0  0  0
  -30.8010  -14.4720   20.1040 C   0  0  0  0  0  0  0  0  0  0  0  0
  -30.3460  -12.3350   18.9230 C   0  0  0  0  0  2  0  0  0  0  0  0
  -29.3400  -12.5310   17.7720 C   0  0  0  0  0  2  0  0  0  0  0  0
  -27.9020  -12.3740   18.2950 C   0  0  0  0  0  2  0  0  0  0  0  0
  -27.6380  -13.2150   19.5680 C   0  0  0  0  0  3  0  0  0  0  0  0
  -28.7600  -13.0290   20.6170 C   0  0  0  0  0  2  0  0  0  0  0  0
  -30.0470  -13.3330   19.9730 N   0  0  0  0  0  0  0  0  0  0  0  0
  -31.8760  -14.5800   19.5050 O   0  0  0  0  0  0  0  0  0  0  0  0
  -31.5070  -16.0240   21.8290 C   0  0  0  0  0  1  0  0  0  0  0  0
  -30.4440  -15.4390   21.0060 N   0  0  0  0  0  0  0  0  0  0  0  0
  -25.3070  -13.8350   20.4540 C   0  0  0  0  0  0  0  0  0  0  0  0
  -24.2520  -13.0690   20.8700 C   0  0  0  0  0  0  0  0  0  0  0  0
  -24.6880  -11.7120   20.7730 C   0  0  0  0  0  0  0  0  0  0  0  0
  -26.3180  -12.9450   20.1310 N   0  0  0  0  0  0  0  0  0  0  0  0
  -25.9570  -11.6620   20.3850 N   0  0  0  0  0  0  0  0  0  0  0  0
  -23.9560  -10.4560   20.9700 C   0  0  0  0  0  0  0  0  0  0  0  0
  -24.3910   -9.4830   21.8970 C   0  0  0  0  0  3  0  0  0  0  0  0
  -23.6560   -8.2920   22.0830 C   0  0  0  0  0  3  0  0  0  0  0  0
  -22.4730   -8.0660   21.3430 C   0  0  0  0  0  0  0  0  0  0  0  0
  -22.0560   -9.0270   20.4040 C   0  0  0  0  0  3  0  0  0  0  0  0
  -22.7910  -10.2090   20.2150 C   0  0  0  0  0  3  0  0  0  0  0  0
  -21.7100   -6.9270   21.4370 O   0  0  0  0  0  0  0  0  0  0  0  0
  -21.6370   -6.2050   22.6020 C   0  0  0  0  0  0  0  0  0  0  0  0
  -21.1710   -6.7790   23.8050 C   0  0  0  0  0  3  0  0  0  0  0  0
  -21.0460   -5.9830   24.9620 C   0  0  0  0  0  3  0  0  0  0  0  0
  -21.3780   -4.6150   24.9160 C   0  0  0  0  0  0  0  0  0  0  0  0
  -21.8370   -4.0420   23.7160 C   0  0  0  0  0  3  0  0  0  0  0  0
  -21.9630   -4.8340   22.5630 C   0  0  0  0  0  0  0  0  0  0  0  0
  -22.3850   -4.2730   21.4040 F   0  0  0  0  0  0  0  0  0  0  0  0
  -21.2500   -3.8490   26.0230 F   0  0  0  0  0  0  0  0  0  0  0  0
  -22.8820  -13.5590   21.2400 C   0  0  0  0  0  0  0  0  0  0  0  0
  -22.1980  -12.8500   22.1310 N   0  0  0  0  0  0  0  0  0  0  0  0
  -22.4300  -14.6050   20.7750 O   0  0  0  0  0  0  0  0  0  0  0  0
  -22.5790  -12.0040   22.5250 H   0  0  0  0  0  0  0  0  0  0  0  0
  -21.2820  -13.1590   22.4250 H   0  0  0  0  0  0  0  0  0  0  0  0
  -25.4810  -15.2080   20.3010 N   0  0  0  0  0  0  0  0  0  0  0  0
  -24.7240  -15.8620   20.4630 H   0  0  0  0  0  0  0  0  0  0  0  0
  -26.3000  -15.6460   19.9010 H   0  0  0  0  0  0  0  0  0  0  0  0
  -28.9700  -25.8020   19.2860 C   0  0  0  0  0  2  0  0  0  0  0  0
  -28.4560  -26.5860   20.3790 O   0  0  0  0  0  0  0  0  0  0  0  0
  -24.6280  -31.8800   23.2380 C   0  0  0  0  0  0  0  0  0  0  0  0
  -27.3140  -27.3660   20.2420 C   0  0  0  0  0  0  0  0  0  0  0  0
  -23.4480  -30.4530   21.5980 C   0  0  0  0  0  3  0  0  0  0  0  0
  -24.9230  -28.9010   20.2000 C   0  0  0  0  0  0  0  0  0  0  0  0
  -25.9760  -30.8030   21.4300 C   0  0  0  0  0  2  0  0  0  0  0  0
  -26.0700  -29.4200   20.8090 C   0  0  0  0  0  0  0  0  0  0  0  0
  -27.2610  -28.6520   20.8410 C   0  0  0  0  0  3  0  0  0  0  0  0
  -26.1520  -26.8830   19.6030 C   0  0  0  0  0  3  0  0  0  0  0  0
  -24.9600  -27.6340   19.5940 C   0  0  0  0  0  3  0  0  0  0  0  0
  -23.6760  -29.7610   20.2270 C   0  0  0  0  0  2  0  0  0  0  0  0
  -24.7020  -31.0620   22.1480 N   0  0  0  0  0  0  0  0  0  0  0  0
  -23.5410  -32.1550   23.7600 O   0  0  0  0  0  0  0  0  0  0  0  0
  -22.7840  -29.4440   22.5640 C   0  0  0  0  0  0  0  0  0  0  0  0
  -21.4560  -29.2760   22.4390 N   0  0  0  0  0  0  0  0  0  0  0  0
  -23.4590  -28.8170   23.3850 O   0  0  0  0  0  0  0  0  0  0  0  0
  -20.9700  -29.8360   21.7540 H   0  0  0  0  0  0  0  0  0  0  0  0
  -18.0680  -28.1320   22.9630 C   0  0  0  0  0  0  0  0  0  0  0  0
  -20.6320  -28.3510   23.2170 C   0  0  0  0  0  3  0  0  0  0  0  0
  -20.7090  -26.9180   22.6410 C   0  0  0  0  0  2  0  0  0  0  0  0
  -19.5950  -26.6130   21.6340 C   0  0  0  0  0  2  0  0  0  0  0  0
  -18.2200  -26.7800   22.2860 C   0  0  0  0  0  2  0  0  0  0  0  0
  -19.2010  -28.8760   23.3870 C   0  0  0  0  0  0  0  0  0  0  0  0
  -19.0050  -30.1420   23.9800 C   0  0  0  0  0  3  0  0  0  0  0  0
  -17.7100  -30.6650   24.1520 C   0  0  0  0  0  3  0  0  0  0  0  0
  -16.5910  -29.9170   23.7450 C   0  0  0  0  0  3  0  0  0  0  0  0
  -16.7720  -28.6520   23.1580 C   0  0  0  0  0  3  0  0  0  0  0  0
  -25.9050  -32.5240   23.8640 C   0  0  0  0  0  3  0  0  0  0  0  0
  -26.4390  -31.7450   25.1280 C   0  0  1  0  0  0  0  0  0  0  0  0
  -25.3530  -31.4730   26.1940 C   0  0  0  0  0  1  0  0  0  0  0  0
  -27.0470  -30.3850   24.7130 C   0  0  0  0  0  1  0  0  0  0  0  0
  -27.5740  -32.5510   25.8010 C   0  0  0  0  0  1  0  0  0  0  0  0
  -25.5770  -33.9130   24.2120 N   0  0  0  0  0  0  0  0  0  0  0  0
  -25.8860  -34.9790   23.4610 C   0  0  0  0  0  0  0  0  0  0  0  0
  -26.5490  -34.8970   22.4230 O   0  0  0  0  0  0  0  0  0  0  0  0
  -24.9970  -34.0510   25.0260 H   0  0  0  0  0  0  0  0  0  0  0  0
  -24.1290  -36.7440   23.1310 C   0  0  0  0  0  1  0  0  0  0  0  0
  -25.3790  -36.3530   23.9380 C   0  0  0  0  0  3  0  0  0  0  0  0
  -27.5000  -37.2590   24.7790 C   0  0  0  0  0  1  0  0  0  0  0  0
  -26.3950  -37.4240   23.8360 N   0  0  0  0  0  0  0  0  0  0  0  0
  -25.9750  -38.3350   23.9980 H   0  0  0  0  0  0  0  0  0  0  0  0
  1  6  1  0
  2  1  1  0
  2  3  1  0
  3  5  1  0
  5 54  1  0
  5  4  1  0
  6 12  1  0
  6  4  1  0
  7  1  2  0
  8 11  1  0
  9  8  2  0
  9 12  1  0
 10 13  1  0
 11 15  1  0
 11 13  2  0
 12 10  2  0
 13 14  1  0
 15 25  1  0
 16 25  1  0
 17 22  1  0
 18 19  1  0
 18 17  1  0
 20 19  1  0
 20 29  1  0
 20 21  1  0
 22 16  1  0
 22 21  1  0
 23 16  2  0
 25 24  1  0
 26 27  2  0
 27 46  1  0
 28 27  1  0
 28 31  1  0
 29 30  1  0
 29 26  1  0
 30 28  2  0
 31 32  1  0
 32 33  2  0
 34 37  1  0
 34 33  1  0
 35 34  2  0
 36 35  1  0
 36 31  2  0
 37 38  1  0
 38 39  1  0
 39 40  2  0
 41 40  1  0
 41 45  1  0
 42 41  2  0
 43 38  2  0
 43 42  1  0
 44 43  1  0
 46 47  1  0
 47 50  1  0
 47 49  1  0
 48 46  2  0
 51 26  1  0
 51 52  1  0
 53 51  1  0
 54 55  1  0
 56 67  2  0
 57 55  1  0
 57 62  1  0
 58 66  1  0
 58 68  1  0
 59 65  1  0
 59 61  1  0
 60 66  1  0
 61 62  2  0
 61 60  1  0
 63 57  2  0
 64 63  1  0
 64 59  2  0
 65 58  1  0
 66 56  1  0
 68 70  2  0
 69 68  1  0
 71 69  1  0
 72 81  2  0
 72 77  1  0
 73 69  1  0
 73 77  1  0
 74 73  1  0
 75 76  1  0
 75 74  1  0
 76 72  1  0
 77 78  2  0
 78 79  1  0
 80 79  2  0
 81 80  1  0
 82 56  1  0
 82 87  1  0
 82 83  1  0
 83 86  1  1
 83 84  1  0
 85 83  1  0
 87 90  1  0
 88 92  1  0
 88 87  1  0
 89 88  2  0
 92 91  1  0
 94 92  1  0
 94 95  1  0
 94 93  1  0
M  ISO  4  16 100  25 100  54 101  55 101
M  END
>  <TORSDO>  (85) 
F 19

>  <SCORE>  (85) 
-13.539

>  <name>  (85) 
85

>  <ligand_id>  (85) 
85

>  <original_smiles>  (85) 
[H]c1c([H])c([H])c2c(c1[H])C([H])([H])C([H])([H])C([H])([H])C2([H])N([H])C(=O)C1([H])N(C(=O)C([H])(N([H])C(=O)C([H])(N([H])C([H])([H])[H])C([H])([H])[H])C(C([H])([H])[H])(C([H])([H])[H])C([H])([H])[H])C([H])([H])c2c([H])c(OC([H])([H])C3([H])C([H])([H])N(c4c([H])c([H])c(C([H])([H])N(C(=O)N5C([H])([H])C([H])([H])C([H])([H])C([H])(n6nc(-c7c([H])c([H])c(Oc8c([H])c([H])c(F)c([H])c8F)c([H])c7[H])c(C(=O)N([H])[H])c6N([H])[H])C5([H])[H])C([H])([H])[H])c(F)c4[H])C(=O)C([H])([H])C3([H])[H])c([H])c([H])c2C1([H])[H]

>  <smiles>  (85) 
[H]c1c([H])c([H])c2c(c1[H])C([H])([H])C([H])([H])C([H])([H])C2([H])N([H])C(=O)C1([H])N(C(=O)C([H])(N([H])C(=O)C([H])(N([H])C([H])([H])[H])C([H])([H])[H])C(C([H])([H])[H])(C([H])([H])[H])C([H])([H])[H])C([H])([H])c2c([H])c(OC([H])([H])C3([H])C([H])([H])N(c4c([H])c([H])c(C([H])([H])N(C(=O)N5C([H])([H])C([H])([H])C([H])([H])C([H])(n6nc(-c7c([H])c([H])c(Oc8c([H])c([H])c(F)c([H])c8F)c([H])c7[H])c(C(=O)N([H])[H])c6N([H])[H])C5([H])[H])C([H])([H])[H])c(F)c4[H])C(=O)C([H])([H])C3([H])[H])c([H])c([H])c2C1([H])[H]

$$$$
86:0:0
     RDKit          3D

 95104  0  0  1  0  0  0  0  0999 V2000
  -27.2980  -21.8500   20.6450 C   0  0  0  0  0  0  0  0  0  0  0  0
  -29.1690  -23.3570   20.7140 C   0  0  0  0  0  0  0  0  0  0  0  0
  -26.2820  -22.9940   20.7280 C   0  0  0  0  0  2  0  0  0  0  0  0
  -26.8770  -24.3690   20.4390 C   0  0  0  0  0  2  0  0  0  0  0  0
  -28.2410  -24.5540   21.1020 C   0  0  0  0  0  3  0  0  0  0  0  0
  -28.6440  -22.0870   20.6260 N   0  0  0  0  0  0  0  0  0  0  0  0
  -26.8150  -20.7110   20.6090 O   0  0  0  0  0  0  0  0  0  0  0  0
  -30.3690  -23.5780   20.5100 O   0  0  0  0  0  0  0  0  0  0  0  0
  -30.0560  -18.7010   19.6480 C   0  0  0  0  0  3  0  0  0  0  0  0
  -31.0270  -19.3840   21.7620 C   0  0  0  0  0  3  0  0  0  0  0  0
  -29.3900  -19.9470   19.5600 C   0  0  0  0  0  3  0  0  0  0  0  0
  -30.3510  -20.6230   21.6860 C   0  0  0  0  0  3  0  0  0  0  0  0
  -30.8680  -18.3980   20.7630 C   0  0  0  0  0  0  0  0  0  0  0  0
  -29.4960  -20.9150   20.5950 C   0  0  0  0  0  0  0  0  0  0  0  0
  -31.6300  -17.0660   20.8810 C   0  0  0  0  0  2  0  0  0  0  0  0
  -31.4100  -14.7630   19.9100 C   0  0  0  0  0  0  0  0  0  0  0  0
  -30.9890  -12.5050   18.9940 C   0  0  0  0  0  2  0  0  0  0  0  0
  -30.0230  -12.5800   17.7960 C   0  0  0  0  0  2  0  0  0  0  0  0
  -28.5630  -12.5060   18.2790 C   0  0  0  0  0  2  0  0  0  0  0  0
  -28.2690  -13.5060   19.4300 C   0  0  0  0  0  3  0  0  0  0  0  0
  -29.3500  -13.4250   20.5320 C   0  0  0  0  0  2  0  0  0  0  0  0
  -30.6660  -13.6210   19.9000 N   0  0  0  0  0  0  0  0  0  0  0  0
  -32.4910  -14.8480   19.3240 O   0  0  0  0  0  0  0  0  0  0  0  0
  -30.8920  -15.8280   20.5580 N   0  0  0  0  0  0  0  0  0  0  0  0
  -29.9840  -15.7120   20.9810 H   0  0  0  0  0  0  0  0  0  0  0  0
  -25.9670  -14.2610   20.2960 C   0  0  0  0  0  0  0  0  0  0  0  0
  -24.8600  -13.5570   20.6910 C   0  0  0  0  0  0  0  0  0  0  0  0
  -25.2130  -12.1780   20.5900 C   0  0  0  0  0  0  0  0  0  0  0  0
  -26.9260  -13.3130   19.9750 N   0  0  0  0  0  0  0  0  0  0  0  0
  -26.4790  -12.0510   20.2100 N   0  0  0  0  0  0  0  0  0  0  0  0
  -24.4020  -10.9680   20.7820 C   0  0  0  0  0  0  0  0  0  0  0  0
  -24.7680   -9.9730   21.7150 C   0  0  0  0  0  3  0  0  0  0  0  0
  -23.9640   -8.8270   21.8920 C   0  0  0  0  0  3  0  0  0  0  0  0
  -22.7770   -8.6690   21.1380 C   0  0  0  0  0  0  0  0  0  0  0  0
  -22.4280   -9.6520   20.1950 C   0  0  0  0  0  3  0  0  0  0  0  0
  -23.2320  -10.7900   20.0160 C   0  0  0  0  0  3  0  0  0  0  0  0
  -21.9450   -7.5780   21.2260 O   0  0  0  0  0  0  0  0  0  0  0  0
  -21.7840   -6.8880   22.4010 C   0  0  0  0  0  0  0  0  0  0  0  0
  -21.3000   -7.5110   23.5730 C   0  0  0  0  0  3  0  0  0  0  0  0
  -21.0840   -6.7480   24.7380 C   0  0  0  0  0  3  0  0  0  0  0  0
  -21.3430   -5.3640   24.7320 C   0  0  0  0  0  0  0  0  0  0  0  0
  -21.8200   -4.7410   23.5640 C   0  0  0  0  0  3  0  0  0  0  0  0
  -22.0360   -5.5020   22.4020 C   0  0  0  0  0  0  0  0  0  0  0  0
  -22.4750   -4.8930   21.2740 F   0  0  0  0  0  0  0  0  0  0  0  0
  -21.1280   -4.6280   25.8480 F   0  0  0  0  0  0  0  0  0  0  0  0
  -23.5200  -14.1290   21.0580 C   0  0  0  0  0  0  0  0  0  0  0  0
  -22.7980  -13.4700   21.9570 N   0  0  0  0  0  0  0  0  0  0  0  0
  -23.1260  -15.1920   20.5810 O   0  0  0  0  0  0  0  0  0  0  0  0
  -23.1290  -12.6090   22.3640 H   0  0  0  0  0  0  0  0  0  0  0  0
  -21.9010  -13.8350   22.2440 H   0  0  0  0  0  0  0  0  0  0  0  0
  -26.2330  -15.6210   20.1660 N   0  0  0  0  0  0  0  0  0  0  0  0
  -25.5390  -16.3330   20.3690 H   0  0  0  0  0  0  0  0  0  0  0  0
  -27.1220  -16.0080   19.8740 H   0  0  0  0  0  0  0  0  0  0  0  0
  -28.8100  -26.0350   21.0690 C   0  0  0  0  0  2  0  0  0  0  0  0
  -28.5960  -26.8830   19.9080 O   0  0  0  0  0  0  0  0  0  0  0  0
  -24.6390  -31.8640   23.2300 C   0  0  0  0  0  0  0  0  0  0  0  0
  -27.4580  -27.6680   19.9390 C   0  0  0  0  0  0  0  0  0  0  0  0
  -23.5010  -30.5140   21.5020 C   0  0  0  0  0  3  0  0  0  0  0  0
  -25.0260  -29.1190   20.0040 C   0  0  0  0  0  0  0  0  0  0  0  0
  -26.0190  -30.9590   21.3650 C   0  0  0  0  0  2  0  0  0  0  0  0
  -26.1590  -29.6260   20.6560 C   0  0  0  0  0  0  0  0  0  0  0  0
  -27.3760  -28.8960   20.6460 C   0  0  0  0  0  3  0  0  0  0  0  0
  -26.3320  -27.2360   19.2140 C   0  0  0  0  0  3  0  0  0  0  0  0
  -25.1080  -27.9200   19.2810 C   0  0  0  0  0  3  0  0  0  0  0  0
  -23.7500  -29.9260   20.0890 C   0  0  0  0  0  2  0  0  0  0  0  0
  -24.7370  -31.1230   22.0910 N   0  0  0  0  0  0  0  0  0  0  0  0
  -23.5430  -32.0670   23.7690 O   0  0  0  0  0  0  0  0  0  0  0  0
  -22.8770  -29.4160   22.3930 C   0  0  0  0  0  0  0  0  0  0  0  0
  -21.5650  -29.1820   22.2280 N   0  0  0  0  0  0  0  0  0  0  0  0
  -23.5710  -28.7800   23.1910 O   0  0  0  0  0  0  0  0  0  0  0  0
  -21.0650  -29.7470   21.5550 H   0  0  0  0  0  0  0  0  0  0  0  0
  -18.2430  -27.8130   22.5920 C   0  0  0  0  0  0  0  0  0  0  0  0
  -20.7790  -28.1710   22.9330 C   0  0  0  0  0  3  0  0  0  0  0  0
  -20.9610  -26.7770   22.2870 C   0  0  0  0  0  2  0  0  0  0  0  0
  -19.8960  -26.4580   21.2310 C   0  0  0  0  0  2  0  0  0  0  0  0
  -18.4970  -26.5070   21.8550 C   0  0  0  0  0  2  0  0  0  0  0  0
  -19.3170  -28.6020   23.0830 C   0  0  0  0  0  0  0  0  0  0  0  0
  -19.0290  -29.8220   23.7330 C   0  0  0  0  0  3  0  0  0  0  0  0
  -17.7000  -30.2550   23.8940 C   0  0  0  0  0  3  0  0  0  0  0  0
  -16.6400  -29.4660   23.4190 C   0  0  0  0  0  3  0  0  0  0  0  0
  -16.9120  -28.2470   22.7730 C   0  0  0  0  0  3  0  0  0  0  0  0
  -25.8950  -32.5050   23.8970 C   0  0  0  0  0  3  0  0  0  0  0  0
  -26.3890  -31.7210   25.1730 C   0  0  1  0  0  0  0  0  0  0  0  0
  -25.2700  -31.4470   26.2050 C   0  0  0  0  0  1  0  0  0  0  0  0
  -27.0060  -30.3580   24.7740 C   0  0  0  0  0  1  0  0  0  0  0  0
  -27.5090  -32.5220   25.8790 C   0  0  0  0  0  1  0  0  0  0  0  0
  -25.5540  -33.8920   24.2370 N   0  0  0  0  0  0  0  0  0  0  0  0
  -25.8910  -34.9590   23.5010 C   0  0  0  0  0  0  0  0  0  0  0  0
  -26.5910  -34.8790   22.4870 O   0  0  0  0  0  0  0  0  0  0  0  0
  -24.9330  -34.0290   25.0220 H   0  0  0  0  0  0  0  0  0  0  0  0
  -24.1440  -36.7270   23.1190 C   0  0  0  0  0  1  0  0  0  0  0  0
  -25.3690  -36.3330   23.9600 C   0  0  0  0  0  3  0  0  0  0  0  0
  -27.4600  -37.2450   24.8670 C   0  0  0  0  0  1  0  0  0  0  0  0
  -26.3880  -37.4040   23.8880 N   0  0  0  0  0  0  0  0  0  0  0  0
  -25.9620  -38.3170   24.0290 H   0  0  0  0  0  0  0  0  0  0  0  0
  1  3  1  0
  2  5  1  0
  4  3  1  0
  4  5  1  0
  5 54  1  0
  6  1  1  0
  6  2  1  0
  7  1  2  0
  8  2  2  0
  9 13  1  0
 11  9  2  0
 11 14  1  0
 12 10  1  0
 13 15  1  0
 13 10  2  0
 14  6  1  0
 14 12  2  0
 16 24  1  0
 17 22  1  0
 18 19  1  0
 18 17  1  0
 20 19  1  0
 20 29  1  0
 20 21  1  0
 22 16  1  0
 22 21  1  0
 23 16  2  0
 24 15  1  0
 24 25  1  0
 26 27  2  0
 27 46  1  0
 28 27  1  0
 28 31  1  0
 29 30  1  0
 29 26  1  0
 30 28  2  0
 31 32  1  0
 32 33  2  0
 34 37  1  0
 34 33  1  0
 35 34  2  0
 36 35  1  0
 36 31  2  0
 37 38  1  0
 38 43  2  0
 38 39  1  0
 39 40  2  0
 41 40  1  0
 41 45  1  0
 42 41  2  0
 43 42  1  0
 44 43  1  0
 46 47  1  0
 47 50  1  0
 47 49  1  0
 48 46  2  0
 51 26  1  0
 51 52  1  0
 53 51  1  0
 55 57  1  0
 55 54  1  0
 56 67  2  0
 57 62  1  0
 58 66  1  0
 58 68  1  0
 59 65  1  0
 59 61  1  0
 60 66  1  0
 61 60  1  0
 62 61  2  0
 63 64  1  0
 63 57  2  0
 64 59  2  0
 65 58  1  0
 66 56  1  0
 68 70  2  0
 69 68  1  0
 71 69  1  0
 72 81  2  0
 72 77  1  0
 73 69  1  0
 73 77  1  0
 74 73  1  0
 75 76  1  0
 75 74  1  0
 76 72  1  0
 77 78  2  0
 78 79  1  0
 80 79  2  0
 81 80  1  0
 82 56  1  0
 82 87  1  0
 82 83  1  0
 83 86  1  1
 83 84  1  0
 85 83  1  0
 87 90  1  0
 88 92  1  0
 88 87  1  0
 89 88  2  0
 92 91  1  0
 94 92  1  0
 94 95  1  0
 94 93  1  0
M  ISO  4  16 100  24 100  54 101  55 101
M  END
>  <TORSDO>  (86) 
F 19

>  <SCORE>  (86) 
-12.581

>  <name>  (86) 
86

>  <ligand_id>  (86) 
86

>  <original_smiles>  (86) 
[H]c1c([H])c([H])c2c(c1[H])C([H])([H])C([H])([H])C([H])([H])C2([H])N([H])C(=O)C1([H])N(C(=O)C([H])(N([H])C(=O)C([H])(N([H])C([H])([H])[H])C([H])([H])[H])C(C([H])([H])[H])(C([H])([H])[H])C([H])([H])[H])C([H])([H])c2c([H])c(OC([H])([H])C3([H])C(=O)N(c4c([H])c([H])c(C([H])([H])N([H])C(=O)N5C([H])([H])C([H])([H])C([H])([H])C([H])(n6nc(-c7c([H])c([H])c(Oc8c([H])c([H])c(F)c([H])c8F)c([H])c7[H])c(C(=O)N([H])[H])c6N([H])[H])C5([H])[H])c([H])c4[H])C(=O)C([H])([H])C3([H])[H])c([H])c([H])c2C1([H])[H]

>  <smiles>  (86) 
[H]c1c([H])c([H])c2c(c1[H])C([H])([H])C([H])([H])C([H])([H])C2([H])N([H])C(=O)C1([H])N(C(=O)C([H])(N([H])C(=O)C([H])(N([H])C([H])([H])[H])C([H])([H])[H])C(C([H])([H])[H])(C([H])([H])[H])C([H])([H])[H])C([H])([H])c2c([H])c(OC([H])([H])C3([H])C(=O)N(c4c([H])c([H])c(C([H])([H])N([H])C(=O)N5C([H])([H])C([H])([H])C([H])([H])C([H])(n6nc(-c7c([H])c([H])c(Oc8c([H])c([H])c(F)c([H])c8F)c([H])c7[H])c(C(=O)N([H])[H])c6N([H])[H])C5([H])[H])c([H])c4[H])C(=O)C([H])([H])C3([H])[H])c([H])c([H])c2C1([H])[H]

$$$$
87:0:0
     RDKit          3D

 94103  0  0  1  0  0  0  0  0999 V2000
  -30.2480  -21.7540   18.2960 C   0  0  0  0  0  0  0  0  0  0  0  0
  -30.1380  -23.2010   17.7800 C   0  0  0  0  0  2  0  0  0  0  0  0
  -29.8970  -24.2590   18.8610 C   0  0  0  0  0  2  0  0  0  0  0  0
  -29.0410  -22.4330   20.3640 C   0  0  0  0  0  2  0  0  0  0  0  0
  -28.7050  -23.8610   19.7290 C   0  0  0  0  0  3  0  0  0  0  0  0
  -29.6430  -21.3730   19.4640 N   0  0  0  0  0  0  0  0  0  0  0  0
  -30.8910  -20.9770   17.5800 O   0  0  0  0  0  0  0  0  0  0  0  0
  -29.7360  -17.5070   19.4300 C   0  0  0  0  0  3  0  0  0  0  0  0
  -30.6320  -18.2720   21.5150 C   0  0  0  0  0  3  0  0  0  0  0  0
  -29.4600  -18.8610   19.0740 C   0  0  0  0  0  3  0  0  0  0  0  0
  -30.3660  -19.6270   21.1590 C   0  0  0  0  0  3  0  0  0  0  0  0
  -30.3490  -17.1620   20.6630 C   0  0  0  0  0  0  0  0  0  0  0  0
  -29.7970  -19.9700   19.9070 C   0  0  0  0  0  0  0  0  0  0  0  0
  -30.5940  -15.7180   21.1370 C   0  0  0  0  0  0  0  0  0  0  0  0
  -30.4730  -15.4720   22.3760 N   0  0  0  0  0  0  0  0  0  0  0  0
  -30.1850  -16.3060   22.8750 H   0  0  0  0  0  0  0  0  0  0  0  0
  -31.0920  -14.6050   20.1460 C   0  0  0  0  0  0  0  0  0  0  0  0
  -30.6760  -12.4710   18.9280 C   0  0  0  0  0  2  0  0  0  0  0  0
  -29.6810  -12.7120   17.7700 C   0  0  0  0  0  2  0  0  0  0  0  0
  -28.2310  -12.5700   18.2690 C   0  0  0  0  0  2  0  0  0  0  0  0
  -27.9780  -13.3840   19.5630 C   0  0  0  0  0  3  0  0  0  0  0  0
  -29.0720  -13.1070   20.6140 C   0  0  0  0  0  2  0  0  0  0  0  0
  -30.3780  -13.4350   20.0140 N   0  0  0  0  0  0  0  0  0  0  0  0
  -32.1410  -14.7840   19.5160 O   0  0  0  0  0  0  0  0  0  0  0  0
  -25.6430  -14.0480   20.4040 C   0  0  0  0  0  0  0  0  0  0  0  0
  -24.5670  -13.3000   20.8110 C   0  0  0  0  0  0  0  0  0  0  0  0
  -24.9820  -11.9370   20.7270 C   0  0  0  0  0  0  0  0  0  0  0  0
  -26.6420  -13.1380   20.1010 N   0  0  0  0  0  0  0  0  0  0  0  0
  -26.2530  -11.8620   20.3530 N   0  0  0  0  0  0  0  0  0  0  0  0
  -24.2250  -10.6940   20.9260 C   0  0  0  0  0  0  0  0  0  0  0  0
  -24.6350   -9.7210   21.8650 C   0  0  0  0  0  3  0  0  0  0  0  0
  -23.8810   -8.5420   22.0480 C   0  0  0  0  0  3  0  0  0  0  0  0
  -22.7020   -8.3310   21.2950 C   0  0  0  0  0  0  0  0  0  0  0  0
  -22.3100   -9.2930   20.3480 C   0  0  0  0  0  3  0  0  0  0  0  0
  -23.0640  -10.4630   20.1610 C   0  0  0  0  0  3  0  0  0  0  0  0
  -21.9200   -7.2050   21.3910 O   0  0  0  0  0  0  0  0  0  0  0  0
  -21.8010   -6.5070   22.5650 C   0  0  0  0  0  0  0  0  0  0  0  0
  -21.3320   -7.1170   23.7500 C   0  0  0  0  0  3  0  0  0  0  0  0
  -21.1570   -6.3480   24.9170 C   0  0  0  0  0  3  0  0  0  0  0  0
  -21.4430   -4.9690   24.9020 C   0  0  0  0  0  0  0  0  0  0  0  0
  -21.9030   -4.3590   23.7220 C   0  0  0  0  0  3  0  0  0  0  0  0
  -22.0780   -5.1250   22.5560 C   0  0  0  0  0  0  0  0  0  0  0  0
  -22.5040   -4.5260   21.4170 F   0  0  0  0  0  0  0  0  0  0  0  0
  -21.2680   -4.2290   26.0200 F   0  0  0  0  0  0  0  0  0  0  0  0
  -23.2040  -13.8180   21.1630 C   0  0  0  0  0  0  0  0  0  0  0  0
  -22.5010  -13.1290   22.0550 N   0  0  0  0  0  0  0  0  0  0  0  0
  -22.7710  -14.8640   20.6840 O   0  0  0  0  0  0  0  0  0  0  0  0
  -22.8630  -12.2770   22.4560 H   0  0  0  0  0  0  0  0  0  0  0  0
  -21.5890  -13.4580   22.3410 H   0  0  0  0  0  0  0  0  0  0  0  0
  -25.8500  -15.4140   20.2460 N   0  0  0  0  0  0  0  0  0  0  0  0
  -25.1250  -16.1050   20.4020 H   0  0  0  0  0  0  0  0  0  0  0  0
  -26.7110  -15.8180   19.8970 H   0  0  0  0  0  0  0  0  0  0  0  0
  -28.2820  -25.0380   20.7110 C   0  0  0  0  0  2  0  0  0  0  0  0
  -28.4130  -26.4340   20.2530 O   0  0  0  0  0  0  0  0  0  0  0  0
  -24.5430  -31.7720   23.1710 C   0  0  0  0  0  0  0  0  0  0  0  0
  -27.2730  -27.2370   20.2180 C   0  0  0  0  0  0  0  0  0  0  0  0
  -23.3900  -30.3470   21.5170 C   0  0  0  0  0  3  0  0  0  0  0  0
  -24.8900  -28.7980   20.1380 C   0  0  0  0  0  0  0  0  0  0  0  0
  -25.9220  -30.7000   21.3790 C   0  0  0  0  0  2  0  0  0  0  0  0
  -26.0360  -29.3160   20.7530 C   0  0  0  0  0  0  0  0  0  0  0  0
  -27.2360  -28.5490   20.7820 C   0  0  0  0  0  3  0  0  0  0  0  0
  -26.1060  -26.7590   19.5860 C   0  0  0  0  0  3  0  0  0  0  0  0
  -24.9240  -27.5240   19.5440 C   0  0  0  0  0  3  0  0  0  0  0  0
  -23.6420  -29.6590   20.1500 C   0  0  0  0  0  2  0  0  0  0  0  0
  -24.6360  -30.9570   22.0810 N   0  0  0  0  0  0  0  0  0  0  0  0
  -23.4470  -32.0390   23.6800 O   0  0  0  0  0  0  0  0  0  0  0  0
  -22.7160  -29.3320   22.4710 C   0  0  0  0  0  0  0  0  0  0  0  0
  -21.3940  -29.1490   22.3190 N   0  0  0  0  0  0  0  0  0  0  0  0
  -23.3840  -28.7120   23.3030 O   0  0  0  0  0  0  0  0  0  0  0  0
  -20.9160  -29.7010   21.6190 H   0  0  0  0  0  0  0  0  0  0  0  0
  -18.0140  -27.9320   22.7470 C   0  0  0  0  0  0  0  0  0  0  0  0
  -20.5630  -28.2120   23.0790 C   0  0  0  0  0  3  0  0  0  0  0  0
  -20.6900  -26.7770   22.5180 C   0  0  0  0  0  2  0  0  0  0  0  0
  -19.6160  -26.4380   21.4790 C   0  0  0  0  0  2  0  0  0  0  0  0
  -18.2180  -26.5770   22.0900 C   0  0  0  0  0  2  0  0  0  0  0  0
  -19.1160  -28.7060   23.1960 C   0  0  0  0  0  0  0  0  0  0  0  0
  -18.8740  -29.9730   23.7700 C   0  0  0  0  0  3  0  0  0  0  0  0
  -17.5640  -30.4680   23.8970 C   0  0  0  0  0  3  0  0  0  0  0  0
  -16.4740  -29.6930   23.4630 C   0  0  0  0  0  3  0  0  0  0  0  0
  -16.6990  -28.4260   22.8950 C   0  0  0  0  0  3  0  0  0  0  0  0
  -25.8060  -32.4200   23.8180 C   0  0  0  0  0  3  0  0  0  0  0  0
  -26.3170  -31.6450   25.0950 C   0  0  1  0  0  0  0  0  0  0  0  0
  -25.2110  -31.3700   26.1420 C   0  0  0  0  0  1  0  0  0  0  0  0
  -26.9360  -30.2850   24.6930 C   0  0  0  0  0  1  0  0  0  0  0  0
  -27.4460  -32.4540   25.7800 C   0  0  0  0  0  1  0  0  0  0  0  0
  -25.4660  -33.8110   24.1550 N   0  0  0  0  0  0  0  0  0  0  0  0
  -25.7950  -34.8750   23.4100 C   0  0  0  0  0  0  0  0  0  0  0  0
  -26.4850  -34.7920   22.3880 O   0  0  0  0  0  0  0  0  0  0  0  0
  -24.8370  -33.9410   24.9340 H   0  0  0  0  0  0  0  0  0  0  0  0
  -24.0400  -36.6420   23.0510 C   0  0  0  0  0  1  0  0  0  0  0  0
  -25.2810  -36.2520   23.8680 C   0  0  0  0  0  3  0  0  0  0  0  0
  -27.3940  -37.1680   24.7240 C   0  0  0  0  0  1  0  0  0  0  0  0
  -26.2980  -37.3210   23.7720 N   0  0  0  0  0  0  0  0  0  0  0  0
  -25.8750  -38.2330   23.9260 H   0  0  0  0  0  0  0  0  0  0  0  0
  1  6  1  0
  2  1  1  0
  2  3  1  0
  3  5  1  0
  5  4  1  0
  5 53  1  0
  6 13  1  0
  6  4  1  0
  7  1  2  0
  8 12  1  0
 10  8  2  0
 10 13  1  0
 11  9  1  0
 12 14  1  0
 12  9  2  0
 13 11  2  0
 14 15  2  0
 15 16  1  0
 17 14  1  0
 18 23  1  0
 19 20  1  0
 19 18  1  0
 21 20  1  0
 21 28  1  0
 21 22  1  0
 23 17  1  0
 23 22  1  0
 24 17  2  0
 25 26  2  0
 26 45  1  0
 27 26  1  0
 27 30  1  0
 28 29  1  0
 28 25  1  0
 29 27  2  0
 30 31  1  0
 31 32  2  0
 33 36  1  0
 33 32  1  0
 34 33  2  0
 35 34  1  0
 35 30  2  0
 36 37  1  0
 37 38  1  0
 38 39  2  0
 40 39  1  0
 40 44  1  0
 41 40  2  0
 42 37  2  0
 42 41  1  0
 43 42  1  0
 45 46  1  0
 46 49  1  0
 46 48  1  0
 47 45  2  0
 50 51  1  0
 50 25  1  0
 52 50  1  0
 54 53  1  0
 55 66  2  0
 56 54  1  0
 56 61  1  0
 57 65  1  0
 57 67  1  0
 58 64  1  0
 58 60  1  0
 59 65  1  0
 60 61  2  0
 60 59  1  0
 62 56  2  0
 63 62  1  0
 63 58  2  0
 64 57  1  0
 65 55  1  0
 67 69  2  0
 68 67  1  0
 70 68  1  0
 71 80  2  0
 71 76  1  0
 72 68  1  0
 72 76  1  0
 73 72  1  0
 74 75  1  0
 74 73  1  0
 75 71  1  0
 76 77  2  0
 77 78  1  0
 79 78  2  0
 80 79  1  0
 81 55  1  0
 81 86  1  0
 81 82  1  0
 82 85  1  1
 82 83  1  0
 84 82  1  0
 86 89  1  0
 87 91  1  0
 87 86  1  0
 88 87  2  0
 91 90  1  0
 93 91  1  0
 93 94  1  0
 93 92  1  0
M  ISO  4  14 100  17 100  53 101  54 101
M  END
>  <TORSDO>  (87) 
F 19

>  <SCORE>  (87) 
-13.844

>  <name>  (87) 
87

>  <ligand_id>  (87) 
87

>  <original_smiles>  (87) 
[H]N=C(C(=O)N1C([H])([H])C([H])([H])C([H])([H])C([H])(n2nc(-c3c([H])c([H])c(Oc4c([H])c([H])c(F)c([H])c4F)c([H])c3[H])c(C(=O)N([H])[H])c2N([H])[H])C1([H])[H])c1c([H])c([H])c(N2C(=O)C([H])([H])C([H])([H])C([H])(C([H])([H])Oc3c([H])c([H])c4c(c3[H])C([H])([H])N(C(=O)C([H])(N([H])C(=O)C([H])(N([H])C([H])([H])[H])C([H])([H])[H])C(C([H])([H])[H])(C([H])([H])[H])C([H])([H])[H])C([H])(C(=O)N([H])C3([H])c5c([H])c([H])c([H])c([H])c5C([H])([H])C([H])([H])C3([H])[H])C4([H])[H])C2([H])[H])c([H])c1[H]

>  <smiles>  (87) 
[H]N=C(C(=O)N1C([H])([H])C([H])([H])C([H])([H])C([H])(n2nc(-c3c([H])c([H])c(Oc4c([H])c([H])c(F)c([H])c4F)c([H])c3[H])c(C(=O)N([H])[H])c2N([H])[H])C1([H])[H])c1c([H])c([H])c(N2C(=O)C([H])([H])C([H])([H])C([H])(C([H])([H])Oc3c([H])c([H])c4c(c3[H])C([H])([H])N(C(=O)C([H])(N([H])C(=O)C([H])(N([H])C([H])([H])[H])C([H])([H])[H])C(C([H])([H])[H])(C([H])([H])[H])C([H])([H])[H])C([H])(C(=O)N([H])C3([H])c5c([H])c([H])c([H])c([H])c5C([H])([H])C([H])([H])C3([H])[H])C4([H])[H])C2([H])[H])c([H])c1[H]

$$$$
88:0:0
     RDKit          3D

 97106  0  0  1  0  0  0  0  0999 V2000
  -28.9110  -21.3450   22.2420 C   0  0  0  0  0  2  0  0  0  0  0  0
  -27.3750  -23.0370   21.1950 C   0  0  0  0  0  2  0  0  0  0  0  0
  -29.7500  -23.7600   21.7940 C   0  0  0  0  0  2  0  0  0  0  0  0
  -27.3120  -24.3120   20.3580 C   0  0  0  0  0  2  0  0  0  0  0  0
  -29.0040  -25.0730   22.1230 C   0  0  0  0  0  2  0  0  0  0  0  0
  -28.8390  -22.5860   21.3300 C   0  0  0  0  0  3  0  0  0  0  0  0
  -27.9740  -25.5230   21.0490 C   0  0  0  0  0  3  0  0  0  0  0  0
  -28.5820  -26.4930   20.0060 C   0  0  0  0  0  2  0  0  0  0  0  0
  -27.6490  -26.8240   18.9730 O   0  0  0  0  0  0  0  0  0  0  0  0
  -24.5970  -31.7360   23.1660 C   0  0  0  0  0  0  0  0  0  0  0  0
  -26.5700  -27.6150   19.2840 C   0  0  0  0  0  0  0  0  0  0  0  0
  -23.1070  -30.6240   21.5220 C   0  0  0  0  0  3  0  0  0  0  0  0
  -24.2840  -29.2100   19.7520 C   0  0  0  0  0  0  0  0  0  0  0  0
  -25.6010  -30.8800   21.0590 C   0  0  0  0  0  2  0  0  0  0  0  0
  -25.5260  -29.5900   20.2750 C   0  0  0  0  0  0  0  0  0  0  0  0
  -26.6710  -28.7910   20.0590 C   0  0  0  0  0  3  0  0  0  0  0  0
  -25.3200  -27.2590   18.7350 C   0  0  0  0  0  3  0  0  0  0  0  0
  -24.1750  -28.0460   18.9720 C   0  0  0  0  0  3  0  0  0  0  0  0
  -23.1070  -30.1080   20.0540 C   0  0  0  0  0  2  0  0  0  0  0  0
  -24.4600  -31.0850   21.9750 N   0  0  0  0  0  0  0  0  0  0  0  0
  -23.6110  -31.9980   23.8670 O   0  0  0  0  0  0  0  0  0  0  0  0
  -22.5020  -29.5330   22.4320 C   0  0  0  0  0  0  0  0  0  0  0  0
  -21.1690  -29.3880   22.3820 N   0  0  0  0  0  0  0  0  0  0  0  0
  -23.2250  -28.8220   23.1370 O   0  0  0  0  0  0  0  0  0  0  0  0
  -20.6500  -30.0190   21.7880 H   0  0  0  0  0  0  0  0  0  0  0  0
  -17.8230  -28.1370   22.9200 C   0  0  0  0  0  0  0  0  0  0  0  0
  -20.3870  -28.3920   23.1130 C   0  0  0  0  0  3  0  0  0  0  0  0
  -20.4770  -27.0090   22.4280 C   0  0  0  0  0  2  0  0  0  0  0  0
  -19.3370  -26.7460   21.4400 C   0  0  0  0  0  2  0  0  0  0  0  0
  -17.9790  -26.8410   22.1420 C   0  0  0  0  0  2  0  0  0  0  0  0
  -18.9550  -28.8720   23.3610 C   0  0  0  0  0  0  0  0  0  0  0  0
  -18.7610  -30.0860   24.0550 C   0  0  0  0  0  3  0  0  0  0  0  0
  -17.4630  -30.5710   24.3070 C   0  0  0  0  0  3  0  0  0  0  0  0
  -16.3450  -29.8350   23.8770 C   0  0  0  0  0  3  0  0  0  0  0  0
  -16.5250  -28.6190   23.1930 C   0  0  0  0  0  3  0  0  0  0  0  0
  -25.9940  -32.2040   23.6860 C   0  0  0  0  0  3  0  0  0  0  0  0
  -25.8480  -33.5840   24.1700 N   0  0  0  0  0  0  0  0  0  0  0  0
  -26.2290  -34.6720   23.4850 C   0  0  0  0  0  0  0  0  0  0  0  0
  -26.8170  -34.6100   22.4020 O   0  0  0  0  0  0  0  0  0  0  0  0
  -25.3390  -33.7120   25.0320 H   0  0  0  0  0  0  0  0  0  0  0  0
  -24.6820  -36.6530   23.4000 C   0  0  0  0  0  1  0  0  0  0  0  0
  -25.9050  -36.0440   24.1020 C   0  0  0  0  0  3  0  0  0  0  0  0
  -28.1450  -36.6260   24.9220 C   0  0  0  0  0  1  0  0  0  0  0  0
  -27.0360  -36.9960   24.0460 N   0  0  0  0  0  0  0  0  0  0  0  0
  -26.7310  -37.9320   24.3010 H   0  0  0  0  0  0  0  0  0  0  0  0
  -26.5820  -31.2740   24.8160 C   0  0  1  0  0  0  0  0  0  0  0  0
  -25.5870  -31.0110   25.9700 C   0  0  0  0  0  1  0  0  0  0  0  0
  -27.0110  -29.9050   24.2360 C   0  0  0  0  0  1  0  0  0  0  0  0
  -27.8540  -31.9150   25.4210 C   0  0  0  0  0  1  0  0  0  0  0  0
  -30.2430  -20.7400   22.2750 N   0  0  0  0  0  0  0  0  0  0  0  0
  -30.7950  -20.9910   23.0910 H   0  0  0  0  0  0  0  0  0  0  0  0
  -30.2480  -17.5120   20.4020 C   0  0  0  0  0  3  0  0  0  0  0  0
  -30.2320  -18.8930   20.6630 C   0  0  0  0  0  3  0  0  0  0  0  0
  -30.4910  -17.0740   22.7890 C   0  0  0  0  0  3  0  0  0  0  0  0
  -30.3790  -16.5960   21.4670 C   0  0  0  0  0  0  0  0  0  0  0  0
  -30.3250  -19.3730   21.9900 C   0  0  0  0  0  0  0  0  0  0  0  0
  -30.4790  -18.4640   23.0670 C   0  0  0  0  0  0  0  0  0  0  0  0
  -30.5430  -14.5590   20.0970 C   0  0  0  0  0  0  0  0  0  0  0  0
  -30.1390  -12.4860   18.8220 C   0  0  0  0  0  2  0  0  0  0  0  0
  -29.0990  -12.7480   17.7150 C   0  0  0  0  0  2  0  0  0  0  0  0
  -27.6740  -12.5370   18.2570 C   0  0  0  0  0  2  0  0  0  0  0  0
  -27.4300  -13.3250   19.5700 C   0  0  0  0  0  3  0  0  0  0  0  0
  -28.5710  -13.0690   20.5850 C   0  0  0  0  0  2  0  0  0  0  0  0
  -29.8580  -13.3970   19.9370 N   0  0  0  0  0  0  0  0  0  0  0  0
  -31.4390  -14.9360   19.3300 O   0  0  0  0  0  0  0  0  0  0  0  0
  -30.2610  -15.2080   21.2350 N   0  0  0  0  0  0  0  0  0  0  0  0
  -29.6780  -14.7010   21.8860 H   0  0  0  0  0  0  0  0  0  0  0  0
  -25.0710  -13.8630   20.4650 C   0  0  0  0  0  0  0  0  0  0  0  0
  -24.0620  -13.0570   20.9130 C   0  0  0  0  0  0  0  0  0  0  0  0
  -24.5590  -11.7200   20.8350 C   0  0  0  0  0  0  0  0  0  0  0  0
  -26.1220  -13.0160   20.1420 N   0  0  0  0  0  0  0  0  0  0  0  0
  -25.8170  -11.7220   20.4160 N   0  0  0  0  0  0  0  0  0  0  0  0
  -23.8900  -10.4370   21.0860 C   0  0  0  0  0  0  0  0  0  0  0  0
  -24.3480   -9.5450   22.0800 C   0  0  0  0  0  3  0  0  0  0  0  0
  -23.6730   -8.3290   22.3160 C   0  0  0  0  0  3  0  0  0  0  0  0
  -22.5280   -7.9940   21.5550 C   0  0  0  0  0  0  0  0  0  0  0  0
  -22.0930   -8.8740   20.5470 C   0  0  0  0  0  3  0  0  0  0  0  0
  -22.7700  -10.0830   20.3110 C   0  0  0  0  0  3  0  0  0  0  0  0
  -21.8240   -6.8230   21.6950 O   0  0  0  0  0  0  0  0  0  0  0  0
  -21.7270   -6.1800   22.9030 C   0  0  0  0  0  0  0  0  0  0  0  0
  -21.1720   -6.8090   24.0400 C   0  0  0  0  0  3  0  0  0  0  0  0
  -21.0290   -6.0880   25.2420 C   0  0  0  0  0  3  0  0  0  0  0  0
  -21.4290   -4.7420   25.3100 C   0  0  0  0  0  0  0  0  0  0  0  0
  -21.9780   -4.1140   24.1780 C   0  0  0  0  0  3  0  0  0  0  0  0
  -22.1250   -4.8310   22.9780 C   0  0  0  0  0  0  0  0  0  0  0  0
  -22.6350   -4.2140   21.8850 F   0  0  0  0  0  0  0  0  0  0  0  0
  -21.2860   -4.0500   26.4640 F   0  0  0  0  0  0  0  0  0  0  0  0
  -22.6830  -13.4870   21.3200 C   0  0  0  0  0  0  0  0  0  0  0  0
  -22.0890  -12.7900   22.2810 N   0  0  0  0  0  0  0  0  0  0  0  0
  -22.1490  -14.4760   20.8190 O   0  0  0  0  0  0  0  0  0  0  0  0
  -22.5410  -11.9840   22.6860 H   0  0  0  0  0  0  0  0  0  0  0  0
  -21.1720  -13.0510   22.6160 H   0  0  0  0  0  0  0  0  0  0  0  0
  -25.1760  -15.2430   20.3030 N   0  0  0  0  0  0  0  0  0  0  0  0
  -24.4380  -15.8630   20.6160 H   0  0  0  0  0  0  0  0  0  0  0  0
  -26.0090  -15.7360   20.0080 H   0  0  0  0  0  0  0  0  0  0  0  0
  -30.1450  -18.2100   25.4450 C   0  0  0  0  0  1  0  0  0  0  0  0
  -30.5810  -18.9960   24.3400 O   0  0  0  0  0  0  0  0  0  0  0  0
  1 50  1  0
  2  6  1  0
  3  5  1  0
  4  7  1  0
  4  2  1  0
  6  3  1  0
  6  1  1  0
  7  8  1  0
  7  5  1  0
  9 11  1  0
  9  8  1  0
 10 21  2  0
 11 16  1  0
 12 20  1  0
 12 22  1  0
 13 19  1  0
 13 15  1  0
 14 20  1  0
 15 14  1  0
 16 15  2  0
 17 18  1  0
 17 11  2  0
 18 13  2  0
 19 12  1  0
 20 10  1  0
 22 24  2  0
 23 22  1  0
 25 23  1  0
 26 35  2  0
 26 31  1  0
 27 23  1  0
 27 31  1  0
 28 27  1  0
 29 30  1  0
 29 28  1  0
 30 26  1  0
 31 32  2  0
 32 33  1  0
 34 33  2  0
 35 34  1  0
 36 10  1  0
 36 37  1  0
 36 46  1  0
 37 40  1  0
 38 42  1  0
 38 37  1  0
 39 38  2  0
 42 41  1  0
 44 42  1  0
 44 45  1  0
 44 43  1  0
 46 49  1  1
 46 47  1  0
 48 46  1  0
 50 51  1  0
 52 53  2  0
 52 55  1  0
 53 56  1  0
 54 57  1  0
 55 54  2  0
 56 50  1  0
 56 57  2  0
 57 97  1  0
 58 66  1  0
 59 64  1  0
 60 61  1  0
 60 59  1  0
 62 61  1  0
 62 71  1  0
 62 63  1  0
 64 58  1  0
 64 63  1  0
 65 58  2  0
 66 55  1  0
 66 67  1  0
 68 69  2  0
 69 88  1  0
 70 69  1  0
 70 73  1  0
 71 72  1  0
 71 68  1  0
 72 70  2  0
 73 74  1  0
 74 75  2  0
 76 79  1  0
 76 75  1  0
 77 76  2  0
 78 77  1  0
 78 73  2  0
 79 80  1  0
 80 85  2  0
 80 81  1  0
 81 82  2  0
 82 83  1  0
 83 87  1  0
 84 83  2  0
 85 84  1  0
 86 85  1  0
 88 89  1  0
 89 92  1  0
 89 91  1  0
 90 88  2  0
 93 68  1  0
 93 94  1  0
 95 93  1  0
 97 96  1  0
M  ISO  4   8 101   9 101  58 100  66 100
M  END
>  <TORSDO>  (88) 
F 21

>  <SCORE>  (88) 
-9.352

>  <name>  (88) 
88

>  <ligand_id>  (88) 
88

>  <original_smiles>  (88) 
[H]c1c([H])c([H])c2c(c1[H])C([H])([H])C([H])([H])C([H])([H])C2([H])N([H])C(=O)C1([H])N(C(=O)C([H])(N([H])C(=O)C([H])(N([H])C([H])([H])[H])C([H])([H])[H])C(C([H])([H])[H])(C([H])([H])[H])C([H])([H])[H])C([H])([H])c2c([H])c(OC([H])([H])C3([H])C([H])([H])C([H])([H])C([H])(C([H])([H])N([H])c4c([H])c([H])c(N([H])C(=O)N5C([H])([H])C([H])([H])C([H])([H])C([H])(n6nc(-c7c([H])c([H])c(Oc8c([H])c([H])c(F)c([H])c8F)c([H])c7[H])c(C(=O)N([H])[H])c6N([H])[H])C5([H])[H])c([H])c4OC([H])([H])[H])C([H])([H])C3([H])[H])c([H])c([H])c2C1([H])[H]

>  <smiles>  (88) 
[H]c1c([H])c([H])c2c(c1[H])C([H])([H])C([H])([H])C([H])([H])C2([H])N([H])C(=O)C1([H])N(C(=O)C([H])(N([H])C(=O)C([H])(N([H])C([H])([H])[H])C([H])([H])[H])C(C([H])([H])[H])(C([H])([H])[H])C([H])([H])[H])C([H])([H])c2c([H])c(OC([H])([H])C3([H])C([H])([H])C([H])([H])C([H])(C([H])([H])N([H])c4c([H])c([H])c(N([H])C(=O)N5C([H])([H])C([H])([H])C([H])([H])C([H])(n6nc(-c7c([H])c([H])c(Oc8c([H])c([H])c(F)c([H])c8F)c([H])c7[H])c(C(=O)N([H])[H])c6N([H])[H])C5([H])[H])c([H])c4OC([H])([H])[H])C([H])([H])C3([H])[H])c([H])c([H])c2C1([H])[H]

$$$$
