0:0:0
     RDKit          3D

 95103  0  0  1  0  0  0  0  0999 V2000
  -28.6200  -18.9840   19.8230 C   0  0  0  0  0  3  0  0  0  0  0  0
  -28.1360  -20.3220   19.9550 C   0  0  0  0  0  3  0  0  0  0  0  0
  -29.8530  -18.5710   20.3930 C   0  0  0  0  0  0  0  0  0  0  0  0
  -28.8490  -21.3440   20.6420 C   0  0  0  0  0  0  0  0  0  0  0  0
  -30.0740  -20.9240   21.2360 C   0  0  0  0  0  0  0  0  0  0  0  0
  -30.5600  -19.5810   21.1130 C   0  0  0  0  0  0  0  0  0  0  0  0
  -31.7470  -19.2750   21.6930 F   0  0  0  0  0  0  0  0  0  0  0  0
  -30.8100  -21.8270   22.0070 N   0  0  0  0  0  0  0  0  0  0  0  0
  -30.2630  -22.5540   22.4480 H   0  0  0  0  0  0  0  0  0  0  0  0
  -31.4530  -21.3880   22.6560 H   0  0  0  0  0  0  0  0  0  0  0  0
  -28.7270  -23.8180   20.5800 C   0  0  0  0  0  3  0  0  0  0  0  0
  -28.2380  -22.6360   20.8410 N   0  0  0  0  0  0  0  0  0  0  0  0
  -27.9930  -25.1510   21.0040 C   0  0  0  0  0  2  0  0  0  0  0  0
  -28.2990  -26.4510   20.3490 O   0  0  0  0  0  0  0  0  0  0  0  0
  -24.5690  -31.9160   23.2420 C   0  0  0  0  0  0  0  0  0  0  0  0
  -27.2150  -27.3340   20.2750 C   0  0  0  0  0  0  0  0  0  0  0  0
  -23.3820  -30.4900   21.6130 C   0  0  0  0  0  3  0  0  0  0  0  0
  -24.8520  -28.9350   20.2110 C   0  0  0  0  0  0  0  0  0  0  0  0
  -25.9210  -30.8220   21.4450 C   0  0  0  0  0  2  0  0  0  0  0  0
  -26.0140  -29.4370   20.8140 C   0  0  0  0  0  0  0  0  0  0  0  0
  -27.2050  -28.6500   20.8350 C   0  0  0  0  0  3  0  0  0  0  0  0
  -26.0400  -26.8900   19.6340 C   0  0  0  0  0  3  0  0  0  0  0  0
  -24.8670  -27.6660   19.6120 C   0  0  0  0  0  3  0  0  0  0  0  0
  -23.6090  -29.8020   20.2410 C   0  0  0  0  0  2  0  0  0  0  0  0
  -24.6420  -31.0920   22.1560 N   0  0  0  0  0  0  0  0  0  0  0  0
  -23.4820  -32.1970   23.7650 O   0  0  0  0  0  0  0  0  0  0  0  0
  -22.7180  -29.4800   22.5790 C   0  0  0  0  0  0  0  0  0  0  0  0
  -21.3920  -29.3020   22.4490 N   0  0  0  0  0  0  0  0  0  0  0  0
  -23.3940  -28.8600   23.4030 O   0  0  0  0  0  0  0  0  0  0  0  0
  -20.9060  -29.8530   21.7570 H   0  0  0  0  0  0  0  0  0  0  0  0
  -18.0080  -28.1310   22.9610 C   0  0  0  0  0  0  0  0  0  0  0  0
  -20.5680  -28.3740   23.2260 C   0  0  0  0  0  3  0  0  0  0  0  0
  -20.6600  -26.9380   22.6580 C   0  0  0  0  0  2  0  0  0  0  0  0
  -19.5550  -26.6180   21.6470 C   0  0  0  0  0  2  0  0  0  0  0  0
  -18.1730  -26.7750   22.2920 C   0  0  0  0  0  2  0  0  0  0  0  0
  -19.1330  -28.8870   23.3840 C   0  0  0  0  0  0  0  0  0  0  0  0
  -18.9250  -30.1540   23.9690 C   0  0  0  0  0  3  0  0  0  0  0  0
  -17.6240  -30.6640   24.1360 C   0  0  0  0  0  3  0  0  0  0  0  0
  -16.5120  -29.9040   23.7320 C   0  0  0  0  0  3  0  0  0  0  0  0
  -16.7060  -28.6400   23.1480 C   0  0  0  0  0  3  0  0  0  0  0  0
  -25.8480  -32.5600   23.8640 C   0  0  0  0  0  3  0  0  0  0  0  0
  -25.5300  -33.9610   24.1730 N   0  0  0  0  0  0  0  0  0  0  0  0
  -25.8680  -35.0060   23.4040 C   0  0  0  0  0  0  0  0  0  0  0  0
  -26.5480  -34.8920   22.3810 O   0  0  0  0  0  0  0  0  0  0  0  0
  -24.9230  -34.1240   24.9620 H   0  0  0  0  0  0  0  0  0  0  0  0
  -24.1470  -36.7970   23.0040 C   0  0  0  0  0  1  0  0  0  0  0  0
  -25.3730  -36.3980   23.8410 C   0  0  0  0  0  3  0  0  0  0  0  0
  -27.4880  -37.2920   24.7070 C   0  0  0  0  0  1  0  0  0  0  0  0
  -26.4070  -37.4500   23.7390 N   0  0  0  0  0  0  0  0  0  0  0  0
  -25.9990  -38.3720   23.8720 H   0  0  0  0  0  0  0  0  0  0  0  0
  -26.3580  -31.8090   25.1550 C   0  0  1  0  0  0  0  0  0  0  0  0
  -25.2580  -31.5790   26.2160 C   0  0  0  0  0  1  0  0  0  0  0  0
  -26.9520  -30.4280   24.7900 C   0  0  0  0  0  1  0  0  0  0  0  0
  -27.4950  -32.6200   25.8170 C   0  0  0  0  0  1  0  0  0  0  0  0
  -30.5330  -17.1820   20.0520 C   0  0  0  0  0  3  0  0  0  0  0  0
  -30.6650  -14.6660   20.4450 C   0  0  0  0  0  0  0  0  0  0  0  0
  -30.3870  -12.4440   19.3950 C   0  0  0  0  0  2  0  0  0  0  0  0
  -29.4640  -12.5700   18.1650 C   0  0  0  0  0  2  0  0  0  0  0  0
  -27.9890  -12.4220   18.5860 C   0  0  0  0  0  2  0  0  0  0  0  0
  -27.6180  -13.2980   19.8130 C   0  0  0  0  0  3  0  0  0  0  0  0
  -28.6670  -13.1800   20.9410 C   0  0  0  0  0  2  0  0  0  0  0  0
  -29.9760  -13.4880   20.3560 N   0  0  0  0  0  0  0  0  0  0  0  0
  -31.8730  -14.6960   20.2010 O   0  0  0  0  0  0  0  0  0  0  0  0
  -29.9600  -15.8490   20.4890 N   0  0  0  0  0  0  0  0  0  0  0  0
  -28.9660  -15.7960   20.6520 H   0  0  0  0  0  0  0  0  0  0  0  0
  -25.2170  -13.8880   20.4990 C   0  0  0  0  0  0  0  0  0  0  0  0
  -24.1470  -13.1120   20.8550 C   0  0  0  0  0  0  0  0  0  0  0  0
  -24.6150  -11.7630   20.8400 C   0  0  0  0  0  0  0  0  0  0  0  0
  -26.2670  -13.0100   20.2860 N   0  0  0  0  0  0  0  0  0  0  0  0
  -25.9110  -11.7280   20.5550 N   0  0  0  0  0  0  0  0  0  0  0  0
  -23.8900  -10.4980   21.0230 C   0  0  0  0  0  0  0  0  0  0  0  0
  -24.3020   -9.5410   21.9750 C   0  0  0  0  0  3  0  0  0  0  0  0
  -23.5770   -8.3410   22.1460 C   0  0  0  0  0  3  0  0  0  0  0  0
  -22.4240   -8.0920   21.3650 C   0  0  0  0  0  0  0  0  0  0  0  0
  -22.0290   -9.0380   20.4040 C   0  0  0  0  0  3  0  0  0  0  0  0
  -22.7560  -10.2280   20.2300 C   0  0  0  0  0  3  0  0  0  0  0  0
  -21.6730   -6.9440   21.4430 O   0  0  0  0  0  0  0  0  0  0  0  0
  -21.5930   -6.2140   22.6020 C   0  0  0  0  0  0  0  0  0  0  0  0
  -21.1140   -6.7780   23.8050 C   0  0  0  0  0  3  0  0  0  0  0  0
  -20.9830   -5.9740   24.9540 C   0  0  0  0  0  3  0  0  0  0  0  0
  -21.3200   -4.6080   24.9020 C   0  0  0  0  0  0  0  0  0  0  0  0
  -21.7930   -4.0450   23.7050 C   0  0  0  0  0  3  0  0  0  0  0  0
  -21.9250   -4.8460   22.5570 C   0  0  0  0  0  0  0  0  0  0  0  0
  -22.3610   -4.2930   21.3990 F   0  0  0  0  0  0  0  0  0  0  0  0
  -21.1880   -3.8340   26.0050 F   0  0  0  0  0  0  0  0  0  0  0  0
  -22.7430  -13.5860   21.0960 C   0  0  0  0  0  0  0  0  0  0  0  0
  -22.0000  -12.8870   21.9470 N   0  0  0  0  0  0  0  0  0  0  0  0
  -22.3150  -14.6110   20.5690 O   0  0  0  0  0  0  0  0  0  0  0  0
  -22.3590  -12.0560   22.3950 H   0  0  0  0  0  0  0  0  0  0  0  0
  -21.0580  -13.1880   22.1540 H   0  0  0  0  0  0  0  0  0  0  0  0
  -25.3780  -15.2580   20.3150 N   0  0  0  0  0  0  0  0  0  0  0  0
  -24.6080  -15.9090   20.4140 H   0  0  0  0  0  0  0  0  0  0  0  0
  -26.2230  -15.6960   19.9730 H   0  0  0  0  0  0  0  0  0  0  0  0
  -31.7630  -18.2310   18.0290 C   0  0  0  0  0  1  0  0  0  0  0  0
  -30.8120  -17.1310   18.5240 C   0  0  0  0  0  2  0  0  0  0  0  0
  1  2  2  0
  1  3  1  0
  2  4  1  0
  3  6  2  0
  4 12  1  0
  4  5  2  0
  5  8  1  0
  6  5  1  0
  6  7  1  0
  8  9  1  0
  8 10  1  0
 11 12  2  0
 11 13  1  0
 14 13  1  0
 15 26  2  0
 16 14  1  0
 16 21  1  0
 17 25  1  0
 17 27  1  0
 18 24  1  0
 18 20  1  0
 19 25  1  0
 20 21  2  0
 20 19  1  0
 22 16  2  0
 23 22  1  0
 23 18  2  0
 24 17  1  0
 25 15  1  0
 27 29  2  0
 28 27  1  0
 30 28  1  0
 31 40  2  0
 31 36  1  0
 32 28  1  0
 32 36  1  0
 33 32  1  0
 34 35  1  0
 34 33  1  0
 35 31  1  0
 36 37  2  0
 37 38  1  0
 39 38  2  0
 40 39  1  0
 41 15  1  0
 41 42  1  0
 41 51  1  0
 42 45  1  0
 43 47  1  0
 43 42  1  0
 44 43  2  0
 47 46  1  0
 49 47  1  0
 49 50  1  0
 49 48  1  0
 51 54  1  1
 51 52  1  0
 53 51  1  0
 55 95  1  0
 55  3  1  0
 55 64  1  0
 56 64  1  0
 57 62  1  0
 58 59  1  0
 58 57  1  0
 60 59  1  0
 60 69  1  0
 60 61  1  0
 62 56  1  0
 62 61  1  0
 63 56  2  0
 64 65  1  0
 66 67  2  0
 67 86  1  0
 68 67  1  0
 68 71  1  0
 69 66  1  0
 69 70  1  0
 70 68  2  0
 71 72  1  0
 72 73  2  0
 74 77  1  0
 74 73  1  0
 75 74  2  0
 76 75  1  0
 76 71  2  0
 77 78  1  0
 78 79  1  0
 79 80  2  0
 81 80  1  0
 81 85  1  0
 82 81  2  0
 83 78  2  0
 83 82  1  0
 84 83  1  0
 86 87  1  0
 87 90  1  0
 87 89  1  0
 88 86  2  0
 91 92  1  0
 91 66  1  0
 93 91  1  0
 94 95  1  0
M  ISO  4  13 101  14 101  56 100  64 100
M  END
>  <TORSDO>  (1) 
F 21

>  <SCORE>  (1) 
-14.073

>  <name>  (1) 
0

>  <ligand_id>  (1) 
0

>  <original_smiles>  (1) 
[H]C(=Nc1c([H])c([H])c(C([H])(N([H])C(=O)N2C([H])([H])C([H])([H])C([H])([H])C([H])(n3nc(-c4c([H])c([H])c(Oc5c([H])c([H])c(F)c([H])c5F)c([H])c4[H])c(C(=O)N([H])[H])c3N([H])[H])C2([H])[H])C([H])([H])C([H])([H])[H])c(F)c1N([H])[H])C([H])([H])Oc1c([H])c([H])c2c(c1[H])C([H])([H])N(C(=O)C([H])(N([H])C(=O)C([H])(N([H])C([H])([H])[H])C([H])([H])[H])C(C([H])([H])[H])(C([H])([H])[H])C([H])([H])[H])C([H])(C(=O)N([H])C1([H])c3c([H])c([H])c([H])c([H])c3C([H])([H])C([H])([H])C1([H])[H])C2([H])[H]

>  <smiles>  (1) 
[H]C(=Nc1c([H])c([H])c(C([H])(N([H])C(=O)N2C([H])([H])C([H])([H])C([H])([H])C([H])(n3nc(-c4c([H])c([H])c(Oc5c([H])c([H])c(F)c([H])c5F)c([H])c4[H])c(C(=O)N([H])[H])c3N([H])[H])C2([H])[H])C([H])([H])C([H])([H])[H])c(F)c1N([H])[H])C([H])([H])Oc1c([H])c([H])c2c(c1[H])C([H])([H])N(C(=O)C([H])(N([H])C(=O)C([H])(N([H])C([H])([H])[H])C([H])([H])[H])C(C([H])([H])[H])(C([H])([H])[H])C([H])([H])[H])C([H])(C(=O)N([H])C1([H])c3c([H])c([H])c([H])c([H])c3C([H])([H])C([H])([H])C1([H])[H])C2([H])[H]

$$$$
1:0:0
     RDKit          3D

 94102  0  0  1  0  0  0  0  0999 V2000
  -28.9630  -21.1660   19.6640 C   0  0  0  0  0  0  0  0  0  0  0  0
  -29.0270  -22.4400   20.2100 N   0  0  0  0  0  0  0  0  0  0  0  0
  -28.2950  -20.9750   18.6460 O   0  0  0  0  0  0  0  0  0  0  0  0
  -29.5510  -22.5190   21.0710 H   0  0  0  0  0  0  0  0  0  0  0  0
  -31.7820  -19.1170   21.3520 C   0  0  0  0  0  3  0  0  0  0  0  0
  -30.9730  -20.1850   20.9090 C   0  0  0  0  0  3  0  0  0  0  0  0
  -31.4030  -17.7680   21.1730 C   0  0  0  0  0  3  0  0  0  0  0  0
  -29.3680  -18.5410   20.1000 C   0  0  0  0  0  3  0  0  0  0  0  0
  -29.7390  -19.9490   20.2650 C   0  0  0  0  0  0  0  0  0  0  0  0
  -30.1860  -17.4140   20.5460 C   0  0  0  0  0  0  0  0  0  0  0  0
  -30.5830  -14.8180   20.3200 C   0  0  0  0  0  0  0  0  0  0  0  0
  -30.3790  -12.5380   19.3140 C   0  0  0  0  0  2  0  0  0  0  0  0
  -29.4280  -12.5980   18.0960 C   0  0  0  0  0  2  0  0  0  0  0  0
  -27.9670  -12.4090   18.5460 C   0  0  0  0  0  2  0  0  0  0  0  0
  -27.5950  -13.2890   19.7690 C   0  0  0  0  0  3  0  0  0  0  0  0
  -28.6680  -13.2280   20.8770 C   0  0  0  0  0  2  0  0  0  0  0  0
  -29.9480  -13.5930   20.2610 N   0  0  0  0  0  0  0  0  0  0  0  0
  -31.7780  -14.8860   20.0330 O   0  0  0  0  0  0  0  0  0  0  0  0
  -29.8050  -15.9740   20.4400 N   0  0  0  0  0  0  0  0  0  0  0  0
  -28.8110  -15.8060   20.4680 H   0  0  0  0  0  0  0  0  0  0  0  0
  -25.2150  -13.8600   20.5390 C   0  0  0  0  0  0  0  0  0  0  0  0
  -24.1600  -13.0760   20.9170 C   0  0  0  0  0  0  0  0  0  0  0  0
  -24.6300  -11.7270   20.8660 C   0  0  0  0  0  0  0  0  0  0  0  0
  -26.2590  -12.9880   20.2770 N   0  0  0  0  0  0  0  0  0  0  0  0
  -25.9170  -11.7000   20.5390 N   0  0  0  0  0  0  0  0  0  0  0  0
  -23.9140  -10.4610   21.0560 C   0  0  0  0  0  0  0  0  0  0  0  0
  -24.3590   -9.4870   21.9760 C   0  0  0  0  0  3  0  0  0  0  0  0
  -23.6420   -8.2840   22.1510 C   0  0  0  0  0  3  0  0  0  0  0  0
  -22.4620   -8.0470   21.4070 C   0  0  0  0  0  0  0  0  0  0  0  0
  -22.0360   -9.0070   20.4730 C   0  0  0  0  0  3  0  0  0  0  0  0
  -22.7550  -10.2020   20.2970 C   0  0  0  0  0  3  0  0  0  0  0  0
  -21.7170   -6.8960   21.4920 O   0  0  0  0  0  0  0  0  0  0  0  0
  -21.6800   -6.1440   22.6390 C   0  0  0  0  0  0  0  0  0  0  0  0
  -21.2450   -6.6810   23.8700 C   0  0  0  0  0  3  0  0  0  0  0  0
  -21.1600   -5.8530   25.0070 C   0  0  0  0  0  3  0  0  0  0  0  0
  -21.4990   -4.4890   24.9140 C   0  0  0  0  0  0  0  0  0  0  0  0
  -21.9260   -3.9530   23.6870 C   0  0  0  0  0  3  0  0  0  0  0  0
  -22.0120   -4.7770   22.5520 C   0  0  0  0  0  0  0  0  0  0  0  0
  -22.4050   -4.2500   21.3670 F   0  0  0  0  0  0  0  0  0  0  0  0
  -21.4090   -3.6910   26.0030 F   0  0  0  0  0  0  0  0  0  0  0  0
  -22.7650  -13.5440   21.2100 C   0  0  0  0  0  0  0  0  0  0  0  0
  -22.0480  -12.8310   22.0720 N   0  0  0  0  0  0  0  0  0  0  0  0
  -22.3210  -14.5780   20.7110 O   0  0  0  0  0  0  0  0  0  0  0  0
  -22.4220  -12.0000   22.5050 H   0  0  0  0  0  0  0  0  0  0  0  0
  -21.1100  -13.1240   22.3070 H   0  0  0  0  0  0  0  0  0  0  0  0
  -25.3680  -15.2310   20.3760 N   0  0  0  0  0  0  0  0  0  0  0  0
  -24.5920  -15.8730   20.5030 H   0  0  0  0  0  0  0  0  0  0  0  0
  -26.2020  -15.6770   20.0190 H   0  0  0  0  0  0  0  0  0  0  0  0
  -28.6100  -23.7780   19.5630 C   0  0  0  0  0  3  0  0  0  0  0  0
  -29.7100  -24.2100   18.5740 C   0  0  0  0  0  0  0  0  0  0  0  0
  -29.2820  -25.0360   17.3640 C   0  0  0  0  0  1  0  0  0  0  0  0
  -30.9030  -23.9270   18.7150 O   0  0  0  0  0  0  0  0  0  0  0  0
  -28.3420  -25.0320   20.5620 C   0  0  0  0  0  2  0  0  0  0  0  0
  -28.3730  -26.4820   20.1530 O   0  0  0  0  0  0  0  0  0  0  0  0
  -24.5840  -31.8970   23.2410 C   0  0  0  0  0  0  0  0  0  0  0  0
  -27.2290  -27.3050   20.2040 C   0  0  0  0  0  0  0  0  0  0  0  0
  -23.3920  -30.4870   21.6000 C   0  0  0  0  0  3  0  0  0  0  0  0
  -24.8530  -28.9200   20.1950 C   0  0  0  0  0  0  0  0  0  0  0  0
  -25.9310  -30.8020   21.4270 C   0  0  0  0  0  2  0  0  0  0  0  0
  -26.0210  -29.4160   20.7880 C   0  0  0  0  0  0  0  0  0  0  0  0
  -27.2130  -28.6230   20.7740 C   0  0  0  0  0  3  0  0  0  0  0  0
  -26.0320  -26.8570   19.6100 C   0  0  0  0  0  3  0  0  0  0  0  0
  -24.8610  -27.6470   19.6000 C   0  0  0  0  0  3  0  0  0  0  0  0
  -23.6160  -29.8010   20.2270 C   0  0  0  0  0  2  0  0  0  0  0  0
  -24.6550  -31.0810   22.1460 N   0  0  0  0  0  0  0  0  0  0  0  0
  -23.4980  -32.1770   23.7690 O   0  0  0  0  0  0  0  0  0  0  0  0
  -22.7250  -29.4790   22.5650 C   0  0  0  0  0  0  0  0  0  0  0  0
  -21.4000  -29.2980   22.4310 N   0  0  0  0  0  0  0  0  0  0  0  0
  -23.3990  -28.8620   23.3940 O   0  0  0  0  0  0  0  0  0  0  0  0
  -20.9150  -29.8510   21.7380 H   0  0  0  0  0  0  0  0  0  0  0  0
  -18.0220  -28.0970   22.9240 C   0  0  0  0  0  0  0  0  0  0  0  0
  -20.5800  -28.3600   23.2000 C   0  0  0  0  0  3  0  0  0  0  0  0
  -20.6850  -26.9280   22.6250 C   0  0  0  0  0  2  0  0  0  0  0  0
  -19.5850  -26.6030   21.6080 C   0  0  0  0  0  2  0  0  0  0  0  0
  -18.2020  -26.7480   22.2490 C   0  0  0  0  0  2  0  0  0  0  0  0
  -19.1390  -28.8610   23.3560 C   0  0  0  0  0  0  0  0  0  0  0  0
  -18.9180  -30.1230   23.9500 C   0  0  0  0  0  3  0  0  0  0  0  0
  -17.6140  -30.6230   24.1130 C   0  0  0  0  0  3  0  0  0  0  0  0
  -16.5110  -29.8580   23.6950 C   0  0  0  0  0  3  0  0  0  0  0  0
  -16.7160  -28.5960   23.1080 C   0  0  0  0  0  3  0  0  0  0  0  0
  -25.8630  -32.5360   23.8690 C   0  0  0  0  0  3  0  0  0  0  0  0
  -26.3630  -31.7810   25.1610 C   0  0  1  0  0  0  0  0  0  0  0  0
  -25.2600  -31.5600   26.2220 C   0  0  0  0  0  1  0  0  0  0  0  0
  -26.9490  -30.3970   24.7940 C   0  0  0  0  0  1  0  0  0  0  0  0
  -27.5060  -32.5840   25.8280 C   0  0  0  0  0  1  0  0  0  0  0  0
  -25.5510  -33.9380   24.1820 N   0  0  0  0  0  0  0  0  0  0  0  0
  -25.9030  -34.9850   23.4220 C   0  0  0  0  0  0  0  0  0  0  0  0
  -26.5950  -34.8710   22.4070 O   0  0  0  0  0  0  0  0  0  0  0  0
  -24.9450  -34.1000   24.9710 H   0  0  0  0  0  0  0  0  0  0  0  0
  -24.1980  -36.7920   23.0130 C   0  0  0  0  0  1  0  0  0  0  0  0
  -25.4140  -36.3800   23.8600 C   0  0  0  0  0  3  0  0  0  0  0  0
  -27.5290  -37.2600   24.7470 C   0  0  0  0  0  1  0  0  0  0  0  0
  -26.4550  -37.4260   23.7690 N   0  0  0  0  0  0  0  0  0  0  0  0
  -26.0500  -38.3490   23.8990 H   0  0  0  0  0  0  0  0  0  0  0  0
  1  2  1  0
  1  9  1  0
  2  4  1  0
  3  1  2  0
  6  5  2  0
  7  5  1  0
  8  9  2  0
  8 10  1  0
  9  6  1  0
 10  7  2  0
 11 19  1  0
 12 17  1  0
 13 14  1  0
 13 12  1  0
 15 14  1  0
 15 24  1  0
 15 16  1  0
 17 11  1  0
 17 16  1  0
 18 11  2  0
 19 20  1  0
 19 10  1  0
 21 22  2  0
 22 41  1  0
 23 22  1  0
 23 26  1  0
 24 21  1  0
 24 25  1  0
 25 23  2  0
 26 27  1  0
 27 28  2  0
 29 32  1  0
 29 28  1  0
 30 29  2  0
 31 30  1  0
 31 26  2  0
 32 33  1  0
 33 34  1  0
 34 35  2  0
 36 35  1  0
 36 40  1  0
 37 36  2  0
 38 33  2  0
 38 37  1  0
 39 38  1  0
 41 42  1  0
 42 45  1  0
 42 44  1  0
 43 41  2  0
 46 47  1  0
 46 21  1  0
 48 46  1  0
 49  2  1  0
 49 53  1  0
 50 52  2  0
 50 49  1  0
 51 50  1  0
 54 56  1  0
 54 53  1  0
 55 66  2  0
 56 61  1  0
 57 65  1  0
 57 67  1  0
 58 64  1  0
 58 60  1  0
 59 65  1  0
 60 59  1  0
 61 60  2  0
 62 56  2  0
 63 62  1  0
 63 58  2  0
 64 57  1  0
 65 55  1  0
 67 69  2  0
 68 67  1  0
 70 68  1  0
 71 80  2  0
 71 76  1  0
 72 68  1  0
 72 76  1  0
 73 72  1  0
 74 75  1  0
 74 73  1  0
 75 71  1  0
 76 77  2  0
 77 78  1  0
 79 78  2  0
 80 79  1  0
 81 55  1  0
 81 86  1  0
 81 82  1  0
 82 85  1  1
 82 83  1  0
 84 82  1  0
 86 89  1  0
 87 91  1  0
 87 86  1  0
 88 87  2  0
 91 90  1  0
 93 91  1  0
 93 94  1  0
 93 92  1  0
M  ISO  4  11 100  19 100  53 101  54 101
M  END
>  <TORSDO>  (2) 
F 20

>  <SCORE>  (2) 
-14.098

>  <name>  (2) 
1

>  <ligand_id>  (2) 
1

>  <original_smiles>  (2) 
[H]c1c([H])c(C(=O)N([H])C([H])(C(=O)C([H])([H])[H])C([H])([H])Oc2c([H])c([H])c3c(c2[H])C([H])([H])N(C(=O)C([H])(N([H])C(=O)C([H])(N([H])C([H])([H])[H])C([H])([H])[H])C(C([H])([H])[H])(C([H])([H])[H])C([H])([H])[H])C([H])(C(=O)N([H])C2([H])c4c([H])c([H])c([H])c([H])c4C([H])([H])C([H])([H])C2([H])[H])C3([H])[H])c([H])c(N([H])C(=O)N2C([H])([H])C([H])([H])C([H])([H])C([H])(n3nc(-c4c([H])c([H])c(Oc5c([H])c([H])c(F)c([H])c5F)c([H])c4[H])c(C(=O)N([H])[H])c3N([H])[H])C2([H])[H])c1[H]

>  <smiles>  (2) 
[H]c1c([H])c(C(=O)N([H])C([H])(C(=O)C([H])([H])[H])C([H])([H])Oc2c([H])c([H])c3c(c2[H])C([H])([H])N(C(=O)C([H])(N([H])C(=O)C([H])(N([H])C([H])([H])[H])C([H])([H])[H])C(C([H])([H])[H])(C([H])([H])[H])C([H])([H])[H])C([H])(C(=O)N([H])C2([H])c4c([H])c([H])c([H])c([H])c4C([H])([H])C([H])([H])C2([H])[H])C3([H])[H])c([H])c(N([H])C(=O)N2C([H])([H])C([H])([H])C([H])([H])C([H])(n3nc(-c4c([H])c([H])c(Oc5c([H])c([H])c(F)c([H])c5F)c([H])c4[H])c(C(=O)N([H])[H])c3N([H])[H])C2([H])[H])c1[H]

$$$$
2:0:0
     RDKit          3D

 97106  0  0  1  0  0  0  0  0999 V2000
  -28.0930  -22.4530   18.1350 C   0  0  0  0  0  0  0  0  0  0  0  0
  -29.2220  -22.6660   20.7800 C   0  0  0  0  0  0  0  0  0  0  0  0
  -27.9930  -23.8250   18.7920 C   0  0  0  0  0  2  0  0  0  0  0  0
  -29.2570  -21.5680   18.5860 C   0  0  0  0  0  2  0  0  0  0  0  0
  -28.9480  -24.0250   19.9970 C   0  0  0  0  0  3  0  0  0  0  0  0
  -29.3700  -21.5010   20.0540 N   0  0  0  0  0  0  0  0  0  0  0  0
  -27.2800  -22.0840   17.2840 O   0  0  0  0  0  0  0  0  0  0  0  0
  -29.2880  -22.6800   22.0120 O   0  0  0  0  0  0  0  0  0  0  0  0
  -28.6450  -19.2250   20.8060 C   0  0  0  0  0  3  0  0  0  0  0  0
  -28.9160  -17.8290   20.8890 C   0  0  0  0  0  3  0  0  0  0  0  0
  -31.2730  -18.2570   20.6310 C   0  0  0  0  0  3  0  0  0  0  0  0
  -29.6780  -20.1670   20.5670 C   0  0  0  0  0  0  0  0  0  0  0  0
  -30.2250  -17.3000   20.7120 C   0  0  0  0  0  0  0  0  0  0  0  0
  -31.0050  -19.6590   20.5410 C   0  0  0  0  0  0  0  0  0  0  0  0
  -32.0330  -20.5040   20.2920 F   0  0  0  0  0  0  0  0  0  0  0  0
  -31.1170  -14.8670   20.6420 C   0  0  0  0  0  0  0  0  0  0  0  0
  -30.9830  -12.5130   19.8250 C   0  0  0  0  0  2  0  0  0  0  0  0
  -30.1420  -12.4340   18.5320 C   0  0  0  0  0  2  0  0  0  0  0  0
  -28.6230  -12.4240   18.8340 C   0  0  0  0  0  2  0  0  0  0  0  0
  -28.1690  -13.3690   19.9830 C   0  0  0  0  0  3  0  0  0  0  0  0
  -29.1530  -13.3660   21.1700 C   0  0  0  0  0  2  0  0  0  0  0  0
  -30.4880  -13.6450   20.6310 N   0  0  0  0  0  0  0  0  0  0  0  0
  -32.3500  -14.9310   20.6030 O   0  0  0  0  0  0  0  0  0  0  0  0
  -30.3620  -15.9410   20.1780 N   0  0  0  0  0  0  0  0  0  0  0  0
  -25.7400  -13.9830   20.5460 C   0  0  0  0  0  0  0  0  0  0  0  0
  -24.6500  -13.2180   20.8580 C   0  0  0  0  0  0  0  0  0  0  0  0
  -25.1120  -11.8670   20.8850 C   0  0  0  0  0  0  0  0  0  0  0  0
  -26.7970  -13.0970   20.4000 N   0  0  0  0  0  0  0  0  0  0  0  0
  -26.4200  -11.8220   20.6750 N   0  0  0  0  0  0  0  0  0  0  0  0
  -24.3700  -10.6100   21.0400 C   0  0  0  0  0  0  0  0  0  0  0  0
  -24.7600   -9.6370   21.9880 C   0  0  0  0  0  3  0  0  0  0  0  0
  -24.0200   -8.4450   22.1350 C   0  0  0  0  0  3  0  0  0  0  0  0
  -22.8780   -8.2150   21.3330 C   0  0  0  0  0  0  0  0  0  0  0  0
  -22.5080   -9.1740   20.3740 C   0  0  0  0  0  3  0  0  0  0  0  0
  -23.2480  -10.3590   20.2250 C   0  0  0  0  0  3  0  0  0  0  0  0
  -22.1150   -7.0720   21.3860 O   0  0  0  0  0  0  0  0  0  0  0  0
  -21.9190   -6.3930   22.5620 C   0  0  0  0  0  0  0  0  0  0  0  0
  -21.2770   -6.9920   23.6680 C   0  0  0  0  0  3  0  0  0  0  0  0
  -21.0360   -6.2380   24.8330 C   0  0  0  0  0  3  0  0  0  0  0  0
  -21.4250   -4.8860   24.8920 C   0  0  0  0  0  0  0  0  0  0  0  0
  -22.0570   -4.2870   23.7880 C   0  0  0  0  0  3  0  0  0  0  0  0
  -22.3020   -5.0390   22.6260 C   0  0  0  0  0  0  0  0  0  0  0  0
  -22.8950   -4.4520   21.5590 F   0  0  0  0  0  0  0  0  0  0  0  0
  -21.1840   -4.1580   26.0080 F   0  0  0  0  0  0  0  0  0  0  0  0
  -23.2400  -13.7040   21.0140 C   0  0  0  0  0  0  0  0  0  0  0  0
  -22.4640  -13.0760   21.8910 N   0  0  0  0  0  0  0  0  0  0  0  0
  -22.8290  -14.6810   20.3870 O   0  0  0  0  0  0  0  0  0  0  0  0
  -22.8070  -12.2940   22.4300 H   0  0  0  0  0  0  0  0  0  0  0  0
  -21.5140  -13.3910   22.0340 H   0  0  0  0  0  0  0  0  0  0  0  0
  -25.9130  -15.3490   20.3480 N   0  0  0  0  0  0  0  0  0  0  0  0
  -25.1300  -15.9930   20.3950 H   0  0  0  0  0  0  0  0  0  0  0  0
  -26.7650  -15.7770   20.0110 H   0  0  0  0  0  0  0  0  0  0  0  0
  -30.1300  -15.9960   18.7130 C   0  0  0  0  0  2  0  0  0  0  0  0
  -32.0800  -15.5480   17.0930 C   0  0  0  0  0  1  0  0  0  0  0  0
  -31.2980  -16.5960   17.8920 C   0  0  0  0  0  2  0  0  0  0  0  0
  -28.4800  -25.2910   20.8290 C   0  0  0  0  0  2  0  0  0  0  0  0
  -28.5810  -26.6160   20.1890 O   0  0  0  0  0  0  0  0  0  0  0  0
  -24.5930  -31.7590   23.2580 C   0  0  0  0  0  0  0  0  0  0  0  0
  -27.4330  -27.4080   20.1570 C   0  0  0  0  0  0  0  0  0  0  0  0
  -23.4840  -30.3910   21.5220 C   0  0  0  0  0  3  0  0  0  0  0  0
  -25.0240  -28.9280   20.1050 C   0  0  0  0  0  0  0  0  0  0  0  0
  -26.0140  -30.7880   21.4420 C   0  0  0  0  0  2  0  0  0  0  0  0
  -26.1550  -29.4370   20.7580 C   0  0  0  0  0  0  0  0  0  0  0  0
  -27.3650  -28.6900   20.7740 C   0  0  0  0  0  3  0  0  0  0  0  0
  -26.2860  -26.9400   19.4820 C   0  0  0  0  0  3  0  0  0  0  0  0
  -25.0900  -27.6820   19.4580 C   0  0  0  0  0  3  0  0  0  0  0  0
  -23.7650  -29.7690   20.1310 C   0  0  0  0  0  2  0  0  0  0  0  0
  -24.7110  -30.9930   22.1340 N   0  0  0  0  0  0  0  0  0  0  0  0
  -23.4850  -31.9920   23.7620 O   0  0  0  0  0  0  0  0  0  0  0  0
  -22.8140  -29.3250   22.4220 C   0  0  0  0  0  0  0  0  0  0  0  0
  -21.4850  -29.1780   22.2940 N   0  0  0  0  0  0  0  0  0  0  0  0
  -23.4880  -28.6380   23.1930 O   0  0  0  0  0  0  0  0  0  0  0  0
  -21.0000  -29.7900   21.6510 H   0  0  0  0  0  0  0  0  0  0  0  0
  -18.0850  -28.0470   22.7740 C   0  0  0  0  0  0  0  0  0  0  0  0
  -20.6540  -28.2070   23.0080 C   0  0  0  0  0  3  0  0  0  0  0  0
  -20.7030  -26.8230   22.3210 C   0  0  0  0  0  2  0  0  0  0  0  0
  -19.5720  -26.6110   21.3110 C   0  0  0  0  0  2  0  0  0  0  0  0
  -18.2060  -26.7480   21.9920 C   0  0  0  0  0  2  0  0  0  0  0  0
  -19.2350  -28.7400   23.2360 C   0  0  0  0  0  0  0  0  0  0  0  0
  -19.0680  -29.9590   23.9250 C   0  0  0  0  0  3  0  0  0  0  0  0
  -17.7820  -30.4860   24.1580 C   0  0  0  0  0  3  0  0  0  0  0  0
  -16.6470  -29.7860   23.7130 C   0  0  0  0  0  3  0  0  0  0  0  0
  -16.8000  -28.5690   23.0240 C   0  0  0  0  0  3  0  0  0  0  0  0
  -25.8390  -32.3950   23.9500 C   0  0  0  0  0  3  0  0  0  0  0  0
  -26.2710  -31.6400   25.2660 C   0  0  1  0  0  0  0  0  0  0  0  0
  -25.1130  -31.4240   26.2680 C   0  0  0  0  0  1  0  0  0  0  0  0
  -26.8710  -30.2550   24.9300 C   0  0  0  0  0  1  0  0  0  0  0  0
  -27.3800  -32.4410   25.9910 C   0  0  0  0  0  1  0  0  0  0  0  0
  -25.5170  -33.7990   24.2400 N   0  0  0  0  0  0  0  0  0  0  0  0
  -25.8680  -34.8360   23.4680 C   0  0  0  0  0  0  0  0  0  0  0  0
  -26.5670  -34.7110   22.4580 O   0  0  0  0  0  0  0  0  0  0  0  0
  -24.9030  -33.9700   25.0220 H   0  0  0  0  0  0  0  0  0  0  0  0
  -24.1480  -36.6150   23.0220 C   0  0  0  0  0  1  0  0  0  0  0  0
  -25.3640  -36.2320   23.8800 C   0  0  0  0  0  3  0  0  0  0  0  0
  -27.4590  -37.1530   24.7730 C   0  0  0  0  0  1  0  0  0  0  0  0
  -26.3990  -37.2860   23.7760 N   0  0  0  0  0  0  0  0  0  0  0  0
  -25.9830  -38.2080   23.8780 H   0  0  0  0  0  0  0  0  0  0  0  0
  1  4  1  0
  1  3  1  0
  2  8  2  0
  3  5  1  0
  4  6  1  0
  5  2  1  0
  5 56  1  0
  6 12  1  0
  6  2  1  0
  7  1  2  0
  9 10  1  0
 11 13  1  0
 12  9  2  0
 13 10  2  0
 14 12  1  0
 14 11  2  0
 15 14  1  0
 17 22  1  0
 18 19  1  0
 18 17  1  0
 20 19  1  0
 20 28  1  0
 20 21  1  0
 22 16  1  0
 22 21  1  0
 23 16  2  0
 24 16  1  0
 24 13  1  0
 25 26  2  0
 26 27  1  0
 26 45  1  0
 27 30  1  0
 28 25  1  0
 28 29  1  0
 29 27  2  0
 30 31  1  0
 31 32  2  0
 33 36  1  0
 33 32  1  0
 34 33  2  0
 35 34  1  0
 35 30  2  0
 36 37  1  0
 37 42  2  0
 37 38  1  0
 38 39  2  0
 39 40  1  0
 40 44  1  0
 41 40  2  0
 42 41  1  0
 43 42  1  0
 45 46  1  0
 46 49  1  0
 46 48  1  0
 47 45  2  0
 50 51  1  0
 50 25  1  0
 52 50  1  0
 53 24  1  0
 54 55  1  0
 55 53  1  0
 57 56  1  0
 58 69  2  0
 59 57  1  0
 59 64  1  0
 60 68  1  0
 60 70  1  0
 61 67  1  0
 61 63  1  0
 62 68  1  0
 63 64  2  0
 63 62  1  0
 65 59  2  0
 66 65  1  0
 66 61  2  0
 67 60  1  0
 68 58  1  0
 70 72  2  0
 71 70  1  0
 73 71  1  0
 74 83  2  0
 74 79  1  0
 75 71  1  0
 75 79  1  0
 76 75  1  0
 77 78  1  0
 77 76  1  0
 78 74  1  0
 79 80  2  0
 80 81  1  0
 82 81  2  0
 83 82  1  0
 84 58  1  0
 84 89  1  0
 84 85  1  0
 85 88  1  1
 85 86  1  0
 87 85  1  0
 89 92  1  0
 90 94  1  0
 90 89  1  0
 91 90  2  0
 94 93  1  0
 96 97  1  0
 96 94  1  0
 96 95  1  0
M  ISO  4  16 100  24 100  56 101  57 101
M  END
>  <TORSDO>  (3) 
F 20

>  <SCORE>  (3) 
-13.294

>  <name>  (3) 
2

>  <ligand_id>  (3) 
2

>  <original_smiles>  (3) 
[H]c1c([H])c([H])c2c(c1[H])C([H])([H])C([H])([H])C([H])([H])C2([H])N([H])C(=O)C1([H])N(C(=O)C([H])(N([H])C(=O)C([H])(N([H])C([H])([H])[H])C([H])([H])[H])C(C([H])([H])[H])(C([H])([H])[H])C([H])([H])[H])C([H])([H])c2c([H])c(OC([H])([H])C3([H])C(=O)N(c4c([H])c([H])c(N(C(=O)N5C([H])([H])C([H])([H])C([H])([H])C([H])(n6nc(-c7c([H])c([H])c(Oc8c([H])c([H])c(F)c([H])c8F)c([H])c7[H])c(C(=O)N([H])[H])c6N([H])[H])C5([H])[H])C([H])([H])C([H])([H])C([H])([H])[H])c([H])c4F)C([H])([H])C(=O)C3([H])[H])c([H])c([H])c2C1([H])[H]

>  <smiles>  (3) 
[H]c1c([H])c([H])c2c(c1[H])C([H])([H])C([H])([H])C([H])([H])C2([H])N([H])C(=O)C1([H])N(C(=O)C([H])(N([H])C(=O)C([H])(N([H])C([H])([H])[H])C([H])([H])[H])C(C([H])([H])[H])(C([H])([H])[H])C([H])([H])[H])C([H])([H])c2c([H])c(OC([H])([H])C3([H])C(=O)N(c4c([H])c([H])c(N(C(=O)N5C([H])([H])C([H])([H])C([H])([H])C([H])(n6nc(-c7c([H])c([H])c(Oc8c([H])c([H])c(F)c([H])c8F)c([H])c7[H])c(C(=O)N([H])[H])c6N([H])[H])C5([H])[H])C([H])([H])C([H])([H])C([H])([H])[H])c([H])c4F)C([H])([H])C(=O)C3([H])[H])c([H])c([H])c2C1([H])[H]

$$$$
3:0:0
     RDKit          3D

 96105  0  0  1  0  0  0  0  0999 V2000
  -27.0250  -24.2040   21.2770 C   0  0  0  0  0  3  0  0  0  0  0  0
  -28.3500  -24.6950   21.1000 C   0  0  0  0  0  0  0  0  0  0  0  0
  -29.1480  -23.5910   20.8760 C   0  0  0  0  0  0  0  0  0  0  0  0
  -27.0690  -22.8430   21.1940 C   0  0  0  0  0  0  0  0  0  0  0  0
  -30.6190  -23.5440   20.5930 C   0  0  0  0  0  1  0  0  0  0  0  0
  -28.3700  -22.4270   20.9640 N   0  0  0  0  0  0  0  0  0  0  0  0
  -30.4340  -19.3080   21.4190 C   0  0  0  0  0  3  0  0  0  0  0  0
  -28.7720  -18.8930   19.7010 C   0  0  0  0  0  3  0  0  0  0  0  0
  -29.8950  -20.5980   21.6300 C   0  0  0  0  0  3  0  0  0  0  0  0
  -28.2420  -20.1890   19.9020 C   0  0  0  0  0  3  0  0  0  0  0  0
  -29.9150  -18.4570   20.4170 C   0  0  0  0  0  0  0  0  0  0  0  0
  -28.8250  -21.0740   20.8390 C   0  0  0  0  0  0  0  0  0  0  0  0
  -30.8370  -17.1310   18.4590 C   0  0  0  0  0  1  0  0  0  0  0  0
  -30.7010  -17.1990   19.9990 C   0  0  0  0  0  3  0  0  0  0  0  0
  -30.9830  -14.7720   20.4300 C   0  0  0  0  0  0  0  0  0  0  0  0
  -30.6500  -12.6200   19.3100 C   0  0  0  0  0  2  0  0  0  0  0  0
  -29.7340  -12.8700   18.0940 C   0  0  0  0  0  2  0  0  0  0  0  0
  -28.2540  -12.7490   18.5070 C   0  0  0  0  0  2  0  0  0  0  0  0
  -27.9140  -13.5730   19.7780 C   0  0  0  0  0  3  0  0  0  0  0  0
  -28.9570  -13.3510   20.8970 C   0  0  0  0  0  2  0  0  0  0  0  0
  -30.2860  -13.6110   20.3330 N   0  0  0  0  0  0  0  0  0  0  0  0
  -32.1780  -14.8480   20.1320 O   0  0  0  0  0  0  0  0  0  0  0  0
  -30.2400  -15.8990   20.5320 N   0  0  0  0  0  0  0  0  0  0  0  0
  -29.2610  -15.7990   20.7480 H   0  0  0  0  0  0  0  0  0  0  0  0
  -25.5140  -14.1940   20.4600 C   0  0  0  0  0  0  0  0  0  0  0  0
  -24.4370  -13.4280   20.8150 C   0  0  0  0  0  0  0  0  0  0  0  0
  -24.8910  -12.0740   20.7940 C   0  0  0  0  0  0  0  0  0  0  0  0
  -26.5550  -13.3050   20.2430 N   0  0  0  0  0  0  0  0  0  0  0  0
  -26.1840  -12.0260   20.5050 N   0  0  0  0  0  0  0  0  0  0  0  0
  -24.1540  -10.8160   20.9750 C   0  0  0  0  0  0  0  0  0  0  0  0
  -24.5400   -9.8670   21.9470 C   0  0  0  0  0  3  0  0  0  0  0  0
  -23.8040   -8.6740   22.1150 C   0  0  0  0  0  3  0  0  0  0  0  0
  -22.6680   -8.4220   21.3080 C   0  0  0  0  0  0  0  0  0  0  0  0
  -22.3020   -9.3590   20.3270 C   0  0  0  0  0  3  0  0  0  0  0  0
  -23.0390  -10.5430   20.1570 C   0  0  0  0  0  3  0  0  0  0  0  0
  -21.9080   -7.2800   21.3830 O   0  0  0  0  0  0  0  0  0  0  0  0
  -21.7570   -6.5910   22.5600 C   0  0  0  0  0  0  0  0  0  0  0  0
  -21.2180   -7.1990   23.7150 C   0  0  0  0  0  3  0  0  0  0  0  0
  -21.0160   -6.4360   24.8820 C   0  0  0  0  0  3  0  0  0  0  0  0
  -21.3410   -5.0670   24.8940 C   0  0  0  0  0  0  0  0  0  0  0  0
  -21.8720   -4.4590   23.7450 C   0  0  0  0  0  3  0  0  0  0  0  0
  -22.0760   -5.2180   22.5790 C   0  0  0  0  0  0  0  0  0  0  0  0
  -22.5690   -4.6230   21.4660 F   0  0  0  0  0  0  0  0  0  0  0  0
  -21.1390   -4.3320   26.0140 F   0  0  0  0  0  0  0  0  0  0  0  0
  -23.0390  -13.9140   21.0660 C   0  0  0  0  0  0  0  0  0  0  0  0
  -22.2960  -13.2270   21.9260 N   0  0  0  0  0  0  0  0  0  0  0  0
  -22.6130  -14.9390   20.5350 O   0  0  0  0  0  0  0  0  0  0  0  0
  -22.6530  -12.3980   22.3780 H   0  0  0  0  0  0  0  0  0  0  0  0
  -21.3570  -13.5340   22.1370 H   0  0  0  0  0  0  0  0  0  0  0  0
  -25.6910  -15.5630   20.2820 N   0  0  0  0  0  0  0  0  0  0  0  0
  -24.9290  -16.2240   20.3850 H   0  0  0  0  0  0  0  0  0  0  0  0
  -26.5460  -15.9970   19.9600 H   0  0  0  0  0  0  0  0  0  0  0  0
  -26.0510  -21.9500   21.3310 O   0  0  0  0  0  0  0  0  0  0  0  0
  -25.2550  -22.4420   21.5050 H   0  0  0  0  0  0  0  0  0  0  0  0
  -28.7850  -26.1560   21.2070 C   0  0  0  0  0  2  0  0  0  0  0  0
  -28.5000  -26.9540   20.0520 O   0  0  0  0  0  0  0  0  0  0  0  0
  -24.5910  -32.0000   23.2630 C   0  0  0  0  0  0  0  0  0  0  0  0
  -27.3300  -27.6730   20.1110 C   0  0  0  0  0  0  0  0  0  0  0  0
  -23.4180  -30.6010   21.5920 C   0  0  0  0  0  3  0  0  0  0  0  0
  -24.9070  -29.1220   20.1430 C   0  0  0  0  0  0  0  0  0  0  0  0
  -25.9350  -31.0210   21.4050 C   0  0  0  0  0  2  0  0  0  0  0  0
  -26.0510  -29.6620   20.7450 C   0  0  0  0  0  0  0  0  0  0  0  0
  -27.2680  -28.9430   20.7300 C   0  0  0  0  0  3  0  0  0  0  0  0
  -26.1750  -27.1460   19.5010 C   0  0  0  0  0  3  0  0  0  0  0  0
  -24.9620  -27.8600   19.5200 C   0  0  0  0  0  3  0  0  0  0  0  0
  -23.6450  -29.9530   20.2000 C   0  0  0  0  0  2  0  0  0  0  0  0
  -24.6660  -31.2220   22.1450 N   0  0  0  0  0  0  0  0  0  0  0  0
  -23.5030  -32.2390   23.8060 O   0  0  0  0  0  0  0  0  0  0  0  0
  -22.7880  -29.5500   22.5320 C   0  0  0  0  0  0  0  0  0  0  0  0
  -21.4670  -29.3460   22.4020 N   0  0  0  0  0  0  0  0  0  0  0  0
  -23.4840  -28.9190   23.3320 O   0  0  0  0  0  0  0  0  0  0  0  0
  -20.9660  -29.9080   21.7280 H   0  0  0  0  0  0  0  0  0  0  0  0
  -18.1120  -28.0960   22.8930 C   0  0  0  0  0  0  0  0  0  0  0  0
  -20.6680  -28.3780   23.1530 C   0  0  0  0  0  3  0  0  0  0  0  0
  -20.7840  -26.9640   22.5380 C   0  0  0  0  0  2  0  0  0  0  0  0
  -19.6780  -26.6560   21.5230 C   0  0  0  0  0  2  0  0  0  0  0  0
  -18.3000  -26.7680   22.1800 C   0  0  0  0  0  2  0  0  0  0  0  0
  -19.2240  -28.8600   23.3350 C   0  0  0  0  0  0  0  0  0  0  0  0
  -18.9950  -30.1050   23.9590 C   0  0  0  0  0  3  0  0  0  0  0  0
  -17.6860  -30.5870   24.1460 C   0  0  0  0  0  3  0  0  0  0  0  0
  -16.5880  -29.8190   23.7210 C   0  0  0  0  0  3  0  0  0  0  0  0
  -16.8030  -28.5770   23.1000 C   0  0  0  0  0  3  0  0  0  0  0  0
  -25.8630  -32.6460   23.8970 C   0  0  0  0  0  3  0  0  0  0  0  0
  -26.3730  -31.8850   25.1820 C   0  0  1  0  0  0  0  0  0  0  0  0
  -25.2680  -31.6360   26.2350 C   0  0  0  0  0  1  0  0  0  0  0  0
  -26.9780  -30.5140   24.8000 C   0  0  0  0  0  1  0  0  0  0  0  0
  -27.5050  -32.6950   25.8560 C   0  0  0  0  0  1  0  0  0  0  0  0
  -25.5390  -34.0430   24.2130 N   0  0  0  0  0  0  0  0  0  0  0  0
  -25.8730  -35.0920   23.4500 C   0  0  0  0  0  0  0  0  0  0  0  0
  -26.5560  -34.9860   22.4270 O   0  0  0  0  0  0  0  0  0  0  0  0
  -24.9370  -34.2010   25.0080 H   0  0  0  0  0  0  0  0  0  0  0  0
  -24.1290  -36.8620   23.0610 C   0  0  0  0  0  1  0  0  0  0  0  0
  -25.3660  -36.4790   23.8890 C   0  0  0  0  0  3  0  0  0  0  0  0
  -27.4830  -37.3920   24.7340 C   0  0  0  0  0  1  0  0  0  0  0  0
  -26.3890  -37.5420   23.7780 N   0  0  0  0  0  0  0  0  0  0  0  0
  -25.9720  -38.4590   23.9140 H   0  0  0  0  0  0  0  0  0  0  0  0
  2 55  1  0
  2  1  1  0
  3  6  1  0
  3  2  2  0
  4  1  2  0
  4 53  1  0
  5  3  1  0
  6  4  1  0
  7  9  1  0
  8 10  2  0
  8 11  1  0
 10 12  1  0
 11  7  2  0
 12  6  1  0
 12  9  2  0
 14 13  1  0
 14 11  1  0
 14 23  1  0
 15 23  1  0
 16 21  1  0
 17 18  1  0
 17 16  1  0
 19 18  1  0
 19 28  1  0
 19 20  1  0
 21 15  1  0
 21 20  1  0
 22 15  2  0
 23 24  1  0
 25 26  2  0
 26 45  1  0
 27 26  1  0
 27 30  1  0
 28 25  1  0
 28 29  1  0
 29 27  2  0
 30 31  1  0
 31 32  2  0
 33 36  1  0
 33 32  1  0
 34 33  2  0
 35 34  1  0
 35 30  2  0
 36 37  1  0
 37 42  2  0
 37 38  1  0
 38 39  2  0
 39 40  1  0
 40 44  1  0
 41 40  2  0
 42 41  1  0
 43 42  1  0
 45 46  1  0
 46 49  1  0
 46 48  1  0
 47 45  2  0
 50 51  1  0
 50 25  1  0
 52 50  1  0
 53 54  1  0
 56 58  1  0
 56 55  1  0
 57 68  2  0
 58 63  1  0
 59 67  1  0
 59 69  1  0
 60 66  1  0
 60 62  1  0
 61 67  1  0
 62 61  1  0
 63 62  2  0
 64 65  1  0
 64 58  2  0
 65 60  2  0
 66 59  1  0
 67 57  1  0
 69 71  2  0
 70 69  1  0
 72 70  1  0
 73 82  2  0
 73 78  1  0
 74 70  1  0
 74 78  1  0
 75 74  1  0
 76 77  1  0
 76 75  1  0
 77 73  1  0
 78 79  2  0
 79 80  1  0
 81 80  2  0
 82 81  1  0
 83 57  1  0
 83 88  1  0
 83 84  1  0
 84 87  1  1
 84 85  1  0
 86 84  1  0
 88 91  1  0
 89 93  1  0
 89 88  1  0
 90 89  2  0
 93 92  1  0
 95 93  1  0
 95 96  1  0
 95 94  1  0
M  ISO  4  15 100  23 100  55 101  56 101
M  END
>  <TORSDO>  (4) 
F 20

>  <SCORE>  (4) 
-13.322

>  <name>  (4) 
3

>  <ligand_id>  (4) 
3

>  <original_smiles>  (4) 
[H]Oc1c([H])c(C([H])([H])Oc2c([H])c([H])c3c(c2[H])C([H])([H])N(C(=O)C([H])(N([H])C(=O)C([H])(N([H])C([H])([H])[H])C([H])([H])[H])C(C([H])([H])[H])(C([H])([H])[H])C([H])([H])[H])C([H])(C(=O)N([H])C2([H])c4c([H])c([H])c([H])c([H])c4C([H])([H])C([H])([H])C2([H])[H])C3([H])[H])c(C([H])([H])[H])n1-c1c([H])c([H])c(C([H])(N([H])C(=O)N2C([H])([H])C([H])([H])C([H])([H])C([H])(n3nc(-c4c([H])c([H])c(Oc5c([H])c([H])c(F)c([H])c5F)c([H])c4[H])c(C(=O)N([H])[H])c3N([H])[H])C2([H])[H])C([H])([H])[H])c([H])c1[H]

>  <smiles>  (4) 
[H]Oc1c([H])c(C([H])([H])Oc2c([H])c([H])c3c(c2[H])C([H])([H])N(C(=O)C([H])(N([H])C(=O)C([H])(N([H])C([H])([H])[H])C([H])([H])[H])C(C([H])([H])[H])(C([H])([H])[H])C([H])([H])[H])C([H])(C(=O)N([H])C2([H])c4c([H])c([H])c([H])c([H])c4C([H])([H])C([H])([H])C2([H])[H])C3([H])[H])c(C([H])([H])[H])n1-c1c([H])c([H])c(C([H])(N([H])C(=O)N2C([H])([H])C([H])([H])C([H])([H])C([H])(n3nc(-c4c([H])c([H])c(Oc5c([H])c([H])c(F)c([H])c5F)c([H])c4[H])c(C(=O)N([H])[H])c3N([H])[H])C2([H])[H])C([H])([H])[H])c([H])c1[H]

$$$$
4:0:0
     RDKit          3D

 93101  0  0  1  0  0  0  0  0999 V2000
  -31.1620  -17.9970   19.8450 C   0  0  0  0  0  3  0  0  0  0  0  0
  -31.0440  -19.3960   19.5880 C   0  0  0  0  0  3  0  0  0  0  0  0
  -28.9090  -17.9940   20.6510 C   0  0  0  0  0  3  0  0  0  0  0  0
  -30.0980  -17.2440   20.4070 C   0  0  0  0  0  0  0  0  0  0  0  0
  -28.7800  -19.3910   20.3910 C   0  0  0  0  0  0  0  0  0  0  0  0
  -29.8720  -20.1500   19.8670 C   0  0  0  0  0  0  0  0  0  0  0  0
  -30.1790  -15.7740   20.8680 C   0  0  0  0  0  0  0  0  0  0  0  0
  -29.8420  -15.5190   22.0650 N   0  0  0  0  0  0  0  0  0  0  0  0
  -29.5590  -16.3640   22.5470 H   0  0  0  0  0  0  0  0  0  0  0  0
  -30.7070  -14.6270   19.9270 C   0  0  0  0  0  0  0  0  0  0  0  0
  -30.3470  -12.4200   18.8240 C   0  0  0  0  0  2  0  0  0  0  0  0
  -29.3210  -12.5720   17.6800 C   0  0  0  0  0  2  0  0  0  0  0  0
  -27.8800  -12.4170   18.2060 C   0  0  0  0  0  2  0  0  0  0  0  0
  -27.6250  -13.2690   19.4760 C   0  0  0  0  0  3  0  0  0  0  0  0
  -28.7530  -13.0610   20.5070 C   0  0  0  0  0  2  0  0  0  0  0  0
  -30.0330  -13.4240   19.8680 N   0  0  0  0  0  0  0  0  0  0  0  0
  -31.7370  -14.8060   19.2680 O   0  0  0  0  0  0  0  0  0  0  0  0
  -25.3080  -13.8990   20.3970 C   0  0  0  0  0  0  0  0  0  0  0  0
  -24.2580  -13.1380   20.8340 C   0  0  0  0  0  0  0  0  0  0  0  0
  -24.6850  -11.7790   20.7320 C   0  0  0  0  0  0  0  0  0  0  0  0
  -26.3110  -13.0040   20.0560 N   0  0  0  0  0  0  0  0  0  0  0  0
  -25.9450  -11.7220   20.3150 N   0  0  0  0  0  0  0  0  0  0  0  0
  -23.9500  -10.5270   20.9500 C   0  0  0  0  0  0  0  0  0  0  0  0
  -24.4220   -9.5390   21.8430 C   0  0  0  0  0  3  0  0  0  0  0  0
  -23.6870   -8.3520   22.0490 C   0  0  0  0  0  3  0  0  0  0  0  0
  -22.4660   -8.1440   21.3640 C   0  0  0  0  0  0  0  0  0  0  0  0
  -22.0120   -9.1220   20.4600 C   0  0  0  0  0  3  0  0  0  0  0  0
  -22.7470  -10.3000   20.2520 C   0  0  0  0  0  3  0  0  0  0  0  0
  -21.6970   -7.0110   21.4820 O   0  0  0  0  0  0  0  0  0  0  0  0
  -21.6880   -6.2660   22.6340 C   0  0  0  0  0  0  0  0  0  0  0  0
  -21.3160   -6.8200   23.8790 C   0  0  0  0  0  3  0  0  0  0  0  0
  -21.2520   -6.0010   25.0230 C   0  0  0  0  0  3  0  0  0  0  0  0
  -21.5490   -4.6290   24.9260 C   0  0  0  0  0  0  0  0  0  0  0  0
  -21.9150   -4.0740   23.6870 C   0  0  0  0  0  3  0  0  0  0  0  0
  -21.9800   -4.8900   22.5430 C   0  0  0  0  0  0  0  0  0  0  0  0
  -22.3120   -4.3450   21.3480 F   0  0  0  0  0  0  0  0  0  0  0  0
  -21.4810   -3.8400   26.0240 F   0  0  0  0  0  0  0  0  0  0  0  0
  -22.8980  -13.6360   21.2330 C   0  0  0  0  0  0  0  0  0  0  0  0
  -22.2310  -12.9360   22.1440 N   0  0  0  0  0  0  0  0  0  0  0  0
  -22.4380  -14.6790   20.7710 O   0  0  0  0  0  0  0  0  0  0  0  0
  -22.6170  -12.0920   22.5400 H   0  0  0  0  0  0  0  0  0  0  0  0
  -21.3230  -13.2510   22.4520 H   0  0  0  0  0  0  0  0  0  0  0  0
  -25.4880  -15.2710   20.2420 N   0  0  0  0  0  0  0  0  0  0  0  0
  -24.7480  -15.9380   20.4330 H   0  0  0  0  0  0  0  0  0  0  0  0
  -26.3230  -15.7020   19.8650 H   0  0  0  0  0  0  0  0  0  0  0  0
  -27.5450  -19.9750   20.6670 N   0  0  0  0  0  0  0  0  0  0  0  0
  -26.7380  -19.3640   20.7380 H   0  0  0  0  0  0  0  0  0  0  0  0
  -27.3290  -20.8400   20.1870 H   0  0  0  0  0  0  0  0  0  0  0  0
  -29.9220  -21.5380   19.5910 O   0  0  0  0  0  0  0  0  0  0  0  0
  -28.9280  -22.5250   20.0100 C   0  0  0  0  0  3  0  0  0  0  0  0
  -29.2320  -24.0340   19.6100 C   0  0  0  0  0  3  0  0  0  0  0  0
  -28.1880  -25.1240   20.0980 C   0  0  0  0  0  2  0  0  0  0  0  0
  -28.3490  -26.5270   19.6640 O   0  0  0  0  0  0  0  0  0  0  0  0
  -24.6670  -31.7090   23.0720 C   0  0  0  0  0  0  0  0  0  0  0  0
  -27.2150  -27.3450   19.7190 C   0  0  0  0  0  0  0  0  0  0  0  0
  -23.4170  -30.3780   21.4070 C   0  0  0  0  0  3  0  0  0  0  0  0
  -24.8310  -28.9100   19.8650 C   0  0  0  0  0  0  0  0  0  0  0  0
  -25.9440  -30.7350   21.1530 C   0  0  0  0  0  2  0  0  0  0  0  0
  -26.0130  -29.3900   20.4420 C   0  0  0  0  0  0  0  0  0  0  0  0
  -27.2100  -28.6210   20.3580 C   0  0  0  0  0  3  0  0  0  0  0  0
  -26.0120  -26.9190   19.1120 C   0  0  0  0  0  3  0  0  0  0  0  0
  -24.8310  -27.6800   19.1900 C   0  0  0  0  0  3  0  0  0  0  0  0
  -23.5880  -29.7660   19.9920 C   0  0  0  0  0  2  0  0  0  0  0  0
  -24.6960  -30.9540   21.9350 N   0  0  0  0  0  0  0  0  0  0  0  0
  -23.6010  -31.9520   23.6560 O   0  0  0  0  0  0  0  0  0  0  0  0
  -22.7950  -29.3120   22.3410 C   0  0  0  0  0  0  0  0  0  0  0  0
  -21.4670  -29.1330   22.2510 N   0  0  0  0  0  0  0  0  0  0  0  0
  -23.5050  -28.6530   23.1050 O   0  0  0  0  0  0  0  0  0  0  0  0
  -20.9530  -29.7180   21.6070 H   0  0  0  0  0  0  0  0  0  0  0  0
  -18.1110  -27.9080   22.8210 C   0  0  0  0  0  0  0  0  0  0  0  0
  -20.6790  -28.1560   23.0040 C   0  0  0  0  0  3  0  0  0  0  0  0
  -20.7560  -26.7550   22.3510 C   0  0  0  0  0  2  0  0  0  0  0  0
  -19.6140  -26.4850   21.3670 C   0  0  0  0  0  2  0  0  0  0  0  0
  -18.2590  -26.5960   22.0710 C   0  0  0  0  0  2  0  0  0  0  0  0
  -19.2470  -28.6480   23.2460 C   0  0  0  0  0  0  0  0  0  0  0  0
  -19.0530  -29.8790   23.9090 C   0  0  0  0  0  3  0  0  0  0  0  0
  -17.7560  -30.3690   24.1530 C   0  0  0  0  0  3  0  0  0  0  0  0
  -16.6350  -29.6260   23.7440 C   0  0  0  0  0  3  0  0  0  0  0  0
  -16.8150  -28.3970   23.0850 C   0  0  0  0  0  3  0  0  0  0  0  0
  -25.9670  -32.3210   23.6790 C   0  0  0  0  0  3  0  0  0  0  0  0
  -25.6620  -33.7010   24.0810 N   0  0  0  0  0  0  0  0  0  0  0  0
  -25.9530  -34.7880   23.3530 C   0  0  0  0  0  0  0  0  0  0  0  0
  -26.5760  -34.7330   22.2890 O   0  0  0  0  0  0  0  0  0  0  0  0
  -25.1040  -33.8170   24.9140 H   0  0  0  0  0  0  0  0  0  0  0  0
  -24.1880  -36.5700   23.1630 C   0  0  0  0  0  1  0  0  0  0  0  0
  -25.4760  -36.1510   23.8890 C   0  0  0  0  0  3  0  0  0  0  0  0
  -27.6420  -37.0340   24.6370 C   0  0  0  0  0  1  0  0  0  0  0  0
  -26.4890  -37.2210   23.7600 N   0  0  0  0  0  0  0  0  0  0  0  0
  -26.0820  -38.1300   23.9620 H   0  0  0  0  0  0  0  0  0  0  0  0
  -26.5280  -31.4960   24.9030 C   0  0  1  0  0  0  0  0  0  0  0  0
  -25.4720  -31.2110   25.9970 C   0  0  0  0  0  1  0  0  0  0  0  0
  -27.0980  -30.1380   24.4320 C   0  0  0  0  0  1  0  0  0  0  0  0
  -27.7010  -32.2640   25.5570 C   0  0  0  0  0  1  0  0  0  0  0  0
  1  4  1  0
  2  1  2  0
  2  6  1  0
  4  3  2  0
  4  7  1  0
  5  3  1  0
  5 46  1  0
  6  5  2  0
  7  8  2  0
  8  9  1  0
 10  7  1  0
 11 16  1  0
 12 13  1  0
 12 11  1  0
 14 13  1  0
 14 21  1  0
 14 15  1  0
 16 10  1  0
 16 15  1  0
 17 10  2  0
 18 19  2  0
 19 38  1  0
 20 19  1  0
 20 23  1  0
 21 22  1  0
 21 18  1  0
 22 20  2  0
 23 24  1  0
 24 25  2  0
 26 29  1  0
 26 25  1  0
 27 26  2  0
 28 27  1  0
 28 23  2  0
 29 30  1  0
 30 31  1  0
 31 32  2  0
 33 32  1  0
 33 37  1  0
 34 33  2  0
 35 30  2  0
 35 34  1  0
 36 35  1  0
 38 39  1  0
 39 42  1  0
 39 41  1  0
 40 38  2  0
 43 18  1  0
 43 44  1  0
 45 43  1  0
 46 47  1  0
 48 46  1  0
 49  6  1  0
 49 50  1  0
 51 50  2  0
 51 52  1  0
 53 55  1  0
 53 52  1  0
 54 65  2  0
 55 60  1  0
 56 64  1  0
 56 66  1  0
 57 63  1  0
 57 59  1  0
 58 64  1  0
 59 58  1  0
 60 59  2  0
 61 62  1  0
 61 55  2  0
 62 57  2  0
 63 56  1  0
 64 54  1  0
 66 68  2  0
 67 66  1  0
 69 67  1  0
 70 79  2  0
 70 75  1  0
 71 67  1  0
 71 75  1  0
 72 71  1  0
 73 74  1  0
 73 72  1  0
 74 70  1  0
 75 76  2  0
 76 77  1  0
 78 77  2  0
 79 78  1  0
 80 54  1  0
 80 81  1  0
 80 90  1  0
 81 84  1  0
 82 86  1  0
 82 81  1  0
 83 82  2  0
 86 85  1  0
 88 86  1  0
 88 89  1  0
 88 87  1  0
 90 93  1  1
 90 91  1  0
 92 90  1  0
M  ISO  4   7 100  10 100  52 101  53 101
M  END
>  <TORSDO>  (5) 
F 22

>  <SCORE>  (5) 
-12.601

>  <name>  (5) 
4

>  <ligand_id>  (5) 
4

>  <original_smiles>  (5) 
[H]N=C(C(=O)N1C([H])([H])C([H])([H])C([H])([H])C([H])(n2nc(-c3c([H])c([H])c(Oc4c([H])c([H])c(F)c([H])c4F)c([H])c3[H])c(C(=O)N([H])[H])c2N([H])[H])C1([H])[H])c1c([H])c([H])c(OC([H])([H])C([H])([H])C([H])([H])Oc2c([H])c([H])c3c(c2[H])C([H])([H])N(C(=O)C([H])(N([H])C(=O)C([H])(N([H])C([H])([H])[H])C([H])([H])[H])C(C([H])([H])[H])(C([H])([H])[H])C([H])([H])[H])C([H])(C(=O)N([H])C2([H])c4c([H])c([H])c([H])c([H])c4C([H])([H])C([H])([H])C2([H])[H])C3([H])[H])c(N([H])[H])c1[H]

>  <smiles>  (5) 
[H]N=C(C(=O)N1C([H])([H])C([H])([H])C([H])([H])C([H])(n2nc(-c3c([H])c([H])c(Oc4c([H])c([H])c(F)c([H])c4F)c([H])c3[H])c(C(=O)N([H])[H])c2N([H])[H])C1([H])[H])c1c([H])c([H])c(OC([H])([H])C([H])([H])C([H])([H])Oc2c([H])c([H])c3c(c2[H])C([H])([H])N(C(=O)C([H])(N([H])C(=O)C([H])(N([H])C([H])([H])[H])C([H])([H])[H])C(C([H])([H])[H])(C([H])([H])[H])C([H])([H])[H])C([H])(C(=O)N([H])C2([H])c4c([H])c([H])c([H])c([H])c4C([H])([H])C([H])([H])C2([H])[H])C3([H])[H])c(N([H])[H])c1[H]

$$$$
5:0:0
     RDKit          3D

 94103  0  0  1  0  0  0  0  0999 V2000
  -28.7530  -22.4060   20.0690 C   0  0  0  0  0  3  0  0  0  0  0  0
  -28.7240  -23.6970   20.5940 C   0  0  0  0  0  0  0  0  0  0  0  0
  -29.3850  -23.8600   21.9020 C   0  0  0  0  0  0  0  0  0  0  0  0
  -30.3120  -22.7270   22.3670 C   0  0  0  0  0  2  0  0  0  0  0  0
  -29.7970  -21.3090   22.0170 C   0  0  0  0  0  2  0  0  0  0  0  0
  -29.3200  -21.1950   20.6350 N   0  0  0  0  0  0  0  0  0  0  0  0
  -29.2460  -24.8510   22.6260 O   0  0  0  0  0  0  0  0  0  0  0  0
  -29.0540  -19.6810   18.7040 C   0  0  0  0  0  3  0  0  0  0  0  0
  -29.3590  -17.2410   18.7600 C   0  0  0  0  0  3  0  0  0  0  0  0
  -29.6950  -18.5810   20.7650 C   0  0  0  0  0  3  0  0  0  0  0  0
  -29.0280  -18.4210   18.0650 C   0  0  0  0  0  0  0  0  0  0  0  0
  -29.3660  -19.8370   20.0750 C   0  0  0  0  0  0  0  0  0  0  0  0
  -29.7150  -17.2660   20.1250 C   0  0  0  0  0  0  0  0  0  0  0  0
  -28.5990  -18.3270   16.6120 C   0  0  0  0  0  1  0  0  0  0  0  0
  -30.6250  -14.8440   20.3760 C   0  0  0  0  0  0  0  0  0  0  0  0
  -30.4350  -12.5650   19.3750 C   0  0  0  0  0  2  0  0  0  0  0  0
  -29.5100  -12.6660   18.1430 C   0  0  0  0  0  2  0  0  0  0  0  0
  -28.0360  -12.4840   18.5540 C   0  0  0  0  0  2  0  0  0  0  0  0
  -27.6570  -13.3560   19.7800 C   0  0  0  0  0  3  0  0  0  0  0  0
  -28.7080  -13.2570   20.9100 C   0  0  0  0  0  2  0  0  0  0  0  0
  -30.0150  -13.6110   20.3390 N   0  0  0  0  0  0  0  0  0  0  0  0
  -31.7790  -14.9720   19.9530 O   0  0  0  0  0  0  0  0  0  0  0  0
  -29.8950  -15.9490   20.7910 N   0  0  0  0  0  0  0  0  0  0  0  0
  -29.1150  -15.6930   21.3780 H   0  0  0  0  0  0  0  0  0  0  0  0
  -25.2580  -13.9400   20.4690 C   0  0  0  0  0  0  0  0  0  0  0  0
  -24.1930  -13.1640   20.8370 C   0  0  0  0  0  0  0  0  0  0  0  0
  -24.6640  -11.8150   20.8260 C   0  0  0  0  0  0  0  0  0  0  0  0
  -26.3090  -13.0640   20.2570 N   0  0  0  0  0  0  0  0  0  0  0  0
  -25.9580  -11.7810   20.5340 N   0  0  0  0  0  0  0  0  0  0  0  0
  -23.9420  -10.5510   21.0260 C   0  0  0  0  0  0  0  0  0  0  0  0
  -24.3770   -9.5910   21.9670 C   0  0  0  0  0  3  0  0  0  0  0  0
  -23.6530   -8.3940   22.1530 C   0  0  0  0  0  3  0  0  0  0  0  0
  -22.4820   -8.1460   21.3990 C   0  0  0  0  0  0  0  0  0  0  0  0
  -22.0680   -9.0920   20.4440 C   0  0  0  0  0  3  0  0  0  0  0  0
  -22.7910  -10.2820   20.2570 C   0  0  0  0  0  3  0  0  0  0  0  0
  -21.7340   -6.9970   21.4940 O   0  0  0  0  0  0  0  0  0  0  0  0
  -21.6930   -6.2570   22.6480 C   0  0  0  0  0  0  0  0  0  0  0  0
  -21.2660   -6.8120   23.8760 C   0  0  0  0  0  3  0  0  0  0  0  0
  -21.1710   -5.9970   25.0210 C   0  0  0  0  0  3  0  0  0  0  0  0
  -21.4930   -4.6290   24.9440 C   0  0  0  0  0  0  0  0  0  0  0  0
  -21.9140   -4.0750   23.7230 C   0  0  0  0  0  3  0  0  0  0  0  0
  -22.0100   -4.8840   22.5770 C   0  0  0  0  0  0  0  0  0  0  0  0
  -22.3930   -4.3390   21.3980 F   0  0  0  0  0  0  0  0  0  0  0  0
  -21.3960   -3.8460   26.0430 F   0  0  0  0  0  0  0  0  0  0  0  0
  -22.7920  -13.6360   21.0920 C   0  0  0  0  0  0  0  0  0  0  0  0
  -22.0620  -12.9440   21.9580 N   0  0  0  0  0  0  0  0  0  0  0  0
  -22.3500  -14.6510   20.5530 O   0  0  0  0  0  0  0  0  0  0  0  0
  -22.4270  -12.1170   22.4050 H   0  0  0  0  0  0  0  0  0  0  0  0
  -21.1240  -13.2450   22.1770 H   0  0  0  0  0  0  0  0  0  0  0  0
  -25.4240  -15.3090   20.2760 N   0  0  0  0  0  0  0  0  0  0  0  0
  -24.6670  -15.9770   20.3700 H   0  0  0  0  0  0  0  0  0  0  0  0
  -26.2850  -15.7320   19.9590 H   0  0  0  0  0  0  0  0  0  0  0  0
  -27.9230  -24.9440   19.9960 C   0  0  0  0  0  2  0  0  0  0  0  0
  -28.2290  -26.4000   20.2910 O   0  0  0  0  0  0  0  0  0  0  0  0
  -24.5990  -31.9770   23.2490 C   0  0  0  0  0  0  0  0  0  0  0  0
  -27.1630  -27.3370   20.2050 C   0  0  0  0  0  0  0  0  0  0  0  0
  -23.3850  -30.5750   21.6240 C   0  0  0  0  0  3  0  0  0  0  0  0
  -24.8240  -29.0160   20.1950 C   0  0  0  0  0  0  0  0  0  0  0  0
  -25.9340  -30.8650   21.4380 C   0  0  0  0  0  2  0  0  0  0  0  0
  -26.0040  -29.4810   20.7890 C   0  0  0  0  0  0  0  0  0  0  0  0
  -27.1770  -28.6540   20.7880 C   0  0  0  0  0  3  0  0  0  0  0  0
  -25.9630  -26.9640   19.5540 C   0  0  0  0  0  3  0  0  0  0  0  0
  -24.8090  -27.7640   19.5700 C   0  0  0  0  0  3  0  0  0  0  0  0
  -23.5930  -29.8970   20.2460 C   0  0  0  0  0  2  0  0  0  0  0  0
  -24.6600  -31.1550   22.1600 N   0  0  0  0  0  0  0  0  0  0  0  0
  -23.5160  -32.2650   23.7800 O   0  0  0  0  0  0  0  0  0  0  0  0
  -22.7180  -29.5670   22.5900 C   0  0  0  0  0  0  0  0  0  0  0  0
  -21.3910  -29.3880   22.4640 N   0  0  0  0  0  0  0  0  0  0  0  0
  -23.3930  -28.9460   23.4150 O   0  0  0  0  0  0  0  0  0  0  0  0
  -20.9010  -29.9410   21.7750 H   0  0  0  0  0  0  0  0  0  0  0  0
  -18.0130  -28.1950   22.9790 C   0  0  0  0  0  0  0  0  0  0  0  0
  -20.5720  -28.4560   23.2420 C   0  0  0  0  0  3  0  0  0  0  0  0
  -20.6730  -27.0190   22.6790 C   0  0  0  0  0  2  0  0  0  0  0  0
  -19.5680  -26.6880   21.6700 C   0  0  0  0  0  2  0  0  0  0  0  0
  -18.1860  -26.8400   22.3120 C   0  0  0  0  0  2  0  0  0  0  0  0
  -19.1320  -28.9610   23.4000 C   0  0  0  0  0  0  0  0  0  0  0  0
  -18.9140  -30.2280   23.9830 C   0  0  0  0  0  3  0  0  0  0  0  0
  -17.6100  -30.7310   24.1460 C   0  0  0  0  0  3  0  0  0  0  0  0
  -16.5050  -29.9630   23.7390 C   0  0  0  0  0  3  0  0  0  0  0  0
  -16.7060  -28.6960   23.1620 C   0  0  0  0  0  3  0  0  0  0  0  0
  -25.8840  -32.6120   23.8630 C   0  0  0  0  0  3  0  0  0  0  0  0
  -25.5780  -34.0140   24.1850 N   0  0  0  0  0  0  0  0  0  0  0  0
  -25.9090  -35.0600   23.4180 C   0  0  0  0  0  0  0  0  0  0  0  0
  -26.5710  -34.9480   22.3820 O   0  0  0  0  0  0  0  0  0  0  0  0
  -24.9940  -34.1770   24.9920 H   0  0  0  0  0  0  0  0  0  0  0  0
  -24.1850  -36.8570   23.0630 C   0  0  0  0  0  1  0  0  0  0  0  0
  -25.4290  -36.4520   23.8700 C   0  0  0  0  0  3  0  0  0  0  0  0
  -27.5680  -37.3340   24.6880 C   0  0  0  0  0  1  0  0  0  0  0  0
  -26.4660  -37.5010   23.7450 N   0  0  0  0  0  0  0  0  0  0  0  0
  -26.0630  -38.4240   23.8910 H   0  0  0  0  0  0  0  0  0  0  0  0
  -26.3980  -31.8500   25.1460 C   0  0  1  0  0  0  0  0  0  0  0  0
  -25.3030  -31.6220   26.2150 C   0  0  0  0  0  1  0  0  0  0  0  0
  -26.9820  -30.4690   24.7700 C   0  0  0  0  0  1  0  0  0  0  0  0
  -27.5500  -32.6500   25.7990 C   0  0  0  0  0  1  0  0  0  0  0  0
  1  2  2  0
  1  6  1  0
  2  3  1  0
  3  4  1  0
  3  7  2  0
  5  4  1  0
  6  5  1  0
  8 12  1  0
  9 13  2  0
 11  8  2  0
 11  9  1  0
 12  6  1  0
 12 10  2  0
 13 10  1  0
 13 23  1  0
 14 11  1  0
 15 23  1  0
 16 21  1  0
 17 18  1  0
 17 16  1  0
 19 18  1  0
 19 28  1  0
 19 20  1  0
 21 15  1  0
 21 20  1  0
 22 15  2  0
 23 24  1  0
 25 26  2  0
 26 45  1  0
 27 26  1  0
 27 30  1  0
 28 25  1  0
 28 29  1  0
 29 27  2  0
 30 31  1  0
 31 32  2  0
 33 36  1  0
 33 32  1  0
 34 33  2  0
 35 34  1  0
 35 30  2  0
 36 37  1  0
 37 38  1  0
 38 39  2  0
 40 39  1  0
 40 44  1  0
 41 40  2  0
 42 37  2  0
 42 41  1  0
 43 42  1  0
 45 46  1  0
 46 49  1  0
 46 48  1  0
 47 45  2  0
 50 51  1  0
 50 25  1  0
 52 50  1  0
 53 54  1  0
 53  2  1  0
 55 66  2  0
 56 54  1  0
 56 61  1  0
 57 65  1  0
 57 67  1  0
 58 64  1  0
 58 60  1  0
 59 65  1  0
 60 59  1  0
 61 60  2  0
 62 63  1  0
 62 56  2  0
 63 58  2  0
 64 57  1  0
 65 55  1  0
 67 69  2  0
 68 67  1  0
 70 68  1  0
 71 80  2  0
 71 76  1  0
 72 68  1  0
 72 76  1  0
 73 72  1  0
 74 75  1  0
 74 73  1  0
 75 71  1  0
 76 77  2  0
 77 78  1  0
 79 78  2  0
 80 79  1  0
 81 55  1  0
 81 82  1  0
 81 91  1  0
 82 85  1  0
 83 87  1  0
 83 82  1  0
 84 83  2  0
 87 86  1  0
 89 87  1  0
 89 90  1  0
 89 88  1  0
 91 94  1  1
 91 92  1  0
 93 91  1  0
M  ISO  4  15 100  23 100  53 101  54 101
M  END
>  <TORSDO>  (6) 
F 18

>  <SCORE>  (6) 
-14.937

>  <name>  (6) 
5

>  <ligand_id>  (6) 
5

>  <original_smiles>  (6) 
[H]C1=C(C([H])([H])Oc2c([H])c([H])c3c(c2[H])C([H])([H])N(C(=O)C([H])(N([H])C(=O)C([H])(N([H])C([H])([H])[H])C([H])([H])[H])C(C([H])([H])[H])(C([H])([H])[H])C([H])([H])[H])C([H])(C(=O)N([H])C2([H])c4c([H])c([H])c([H])c([H])c4C([H])([H])C([H])([H])C2([H])[H])C3([H])[H])C(=O)C([H])([H])C([H])([H])N1c1c([H])c(N([H])C(=O)N2C([H])([H])C([H])([H])C([H])([H])C([H])(n3nc(-c4c([H])c([H])c(Oc5c([H])c([H])c(F)c([H])c5F)c([H])c4[H])c(C(=O)N([H])[H])c3N([H])[H])C2([H])[H])c([H])c(C([H])([H])[H])c1[H]

>  <smiles>  (6) 
[H]C1=C(C([H])([H])Oc2c([H])c([H])c3c(c2[H])C([H])([H])N(C(=O)C([H])(N([H])C(=O)C([H])(N([H])C([H])([H])[H])C([H])([H])[H])C(C([H])([H])[H])(C([H])([H])[H])C([H])([H])[H])C([H])(C(=O)N([H])C2([H])c4c([H])c([H])c([H])c([H])c4C([H])([H])C([H])([H])C2([H])[H])C3([H])[H])C(=O)C([H])([H])C([H])([H])N1c1c([H])c(N([H])C(=O)N2C([H])([H])C([H])([H])C([H])([H])C([H])(n3nc(-c4c([H])c([H])c(Oc5c([H])c([H])c(F)c([H])c5F)c([H])c4[H])c(C(=O)N([H])[H])c3N([H])[H])C2([H])[H])c([H])c(C([H])([H])[H])c1[H]

$$$$
6:0:0
     RDKit          3D

 93101  0  0  1  0  0  0  0  0999 V2000
  -30.8120  -19.5760   19.3810 C   0  0  0  0  0  3  0  0  0  0  0  0
  -30.2940  -20.9040   19.4520 C   0  0  0  0  0  3  0  0  0  0  0  0
  -28.2740  -20.0130   20.4000 C   0  0  0  0  0  3  0  0  0  0  0  0
  -30.0970  -18.4240   19.8270 C   0  0  0  0  0  0  0  0  0  0  0  0
  -29.0120  -21.1690   19.9980 C   0  0  0  0  0  0  0  0  0  0  0  0
  -28.7900  -18.6790   20.3220 C   0  0  0  0  0  0  0  0  0  0  0  0
  -28.0330  -17.6530   20.7850 F   0  0  0  0  0  0  0  0  0  0  0  0
  -30.9040  -14.6230   19.7700 C   0  0  0  0  0  0  0  0  0  0  0  0
  -30.5180  -12.3320   18.8840 C   0  0  0  0  0  2  0  0  0  0  0  0
  -29.5110  -12.3820   17.7190 C   0  0  0  0  0  2  0  0  0  0  0  0
  -28.0740  -12.2600   18.2550 C   0  0  0  0  0  2  0  0  0  0  0  0
  -27.7970  -13.2120   19.4540 C   0  0  0  0  0  3  0  0  0  0  0  0
  -28.9320  -13.1810   20.5010 C   0  0  0  0  0  2  0  0  0  0  0  0
  -30.1860  -13.4530   19.7940 N   0  0  0  0  0  0  0  0  0  0  0  0
  -32.0650  -14.5830   19.3540 O   0  0  0  0  0  0  0  0  0  0  0  0
  -30.8520  -17.0810   19.9530 C   0  0  0  0  0  0  0  0  0  0  0  0
  -30.2590  -15.8310   19.9810 N   0  0  0  0  0  0  0  0  0  0  0  0
  -32.0830  -17.2120   19.9940 O   0  0  0  0  0  0  0  0  0  0  0  0
  -29.2600  -15.8060   20.0990 H   0  0  0  0  0  0  0  0  0  0  0  0
  -25.5100  -13.8630   20.4130 C   0  0  0  0  0  0  0  0  0  0  0  0
  -24.4500  -13.1160   20.8480 C   0  0  0  0  0  0  0  0  0  0  0  0
  -24.8510  -11.7500   20.7250 C   0  0  0  0  0  0  0  0  0  0  0  0
  -26.4920  -12.9550   20.0540 N   0  0  0  0  0  0  0  0  0  0  0  0
  -26.1070  -11.6770   20.3020 N   0  0  0  0  0  0  0  0  0  0  0  0
  -24.0900  -10.5100   20.9300 C   0  0  0  0  0  0  0  0  0  0  0  0
  -24.5200   -9.5200   21.8410 C   0  0  0  0  0  3  0  0  0  0  0  0
  -23.7600   -8.3470   22.0370 C   0  0  0  0  0  3  0  0  0  0  0  0
  -22.5550   -8.1540   21.3210 C   0  0  0  0  0  0  0  0  0  0  0  0
  -22.1420   -9.1330   20.3980 C   0  0  0  0  0  3  0  0  0  0  0  0
  -22.9030  -10.2980   20.2010 C   0  0  0  0  0  3  0  0  0  0  0  0
  -21.7670   -7.0350   21.4250 O   0  0  0  0  0  0  0  0  0  0  0  0
  -21.6920   -6.3120   22.5900 C   0  0  0  0  0  0  0  0  0  0  0  0
  -21.2270   -6.8840   23.7940 C   0  0  0  0  0  3  0  0  0  0  0  0
  -21.1020   -6.0890   24.9500 C   0  0  0  0  0  3  0  0  0  0  0  0
  -21.4300   -4.7200   24.9020 C   0  0  0  0  0  0  0  0  0  0  0  0
  -21.8860   -4.1470   23.7020 C   0  0  0  0  0  3  0  0  0  0  0  0
  -22.0130   -4.9410   22.5480 C   0  0  0  0  0  0  0  0  0  0  0  0
  -22.4340   -4.3790   21.3890 F   0  0  0  0  0  0  0  0  0  0  0  0
  -21.3020   -3.9530   26.0100 F   0  0  0  0  0  0  0  0  0  0  0  0
  -23.1030  -13.6370   21.2590 C   0  0  0  0  0  0  0  0  0  0  0  0
  -22.4300  -12.9440   22.1720 N   0  0  0  0  0  0  0  0  0  0  0  0
  -22.6610  -14.6920   20.8080 O   0  0  0  0  0  0  0  0  0  0  0  0
  -22.8050  -12.0910   22.5600 H   0  0  0  0  0  0  0  0  0  0  0  0
  -21.5290  -13.2740   22.4890 H   0  0  0  0  0  0  0  0  0  0  0  0
  -25.7130  -15.2320   20.2690 N   0  0  0  0  0  0  0  0  0  0  0  0
  -24.9800  -15.9060   20.4630 H   0  0  0  0  0  0  0  0  0  0  0  0
  -26.5460  -15.6550   19.8840 H   0  0  0  0  0  0  0  0  0  0  0  0
  -28.8380  -23.7870   19.8740 C   0  0  0  0  0  0  0  0  0  0  0  0
  -28.4430  -22.5110   20.2110 N   0  0  0  0  0  0  0  0  0  0  0  0
  -29.8170  -24.0140   19.1590 O   0  0  0  0  0  0  0  0  0  0  0  0
  -27.5920  -22.5120   20.7580 H   0  0  0  0  0  0  0  0  0  0  0  0
  -27.9750  -24.9940   20.4310 C   0  0  0  0  0  2  0  0  0  0  0  0
  -28.2830  -26.3690   19.9500 O   0  0  0  0  0  0  0  0  0  0  0  0
  -24.5250  -31.6780   23.0840 C   0  0  0  0  0  0  0  0  0  0  0  0
  -27.1920  -27.2440   19.9190 C   0  0  0  0  0  0  0  0  0  0  0  0
  -23.3460  -30.3190   21.3930 C   0  0  0  0  0  3  0  0  0  0  0  0
  -24.8210  -28.8300   19.9300 C   0  0  0  0  0  0  0  0  0  0  0  0
  -25.8820  -30.6710   21.2370 C   0  0  0  0  0  2  0  0  0  0  0  0
  -25.9810  -29.3150   20.5490 C   0  0  0  0  0  0  0  0  0  0  0  0
  -27.1750  -28.5330   20.5340 C   0  0  0  0  0  3  0  0  0  0  0  0
  -26.0200  -26.8190   19.2610 C   0  0  0  0  0  3  0  0  0  0  0  0
  -24.8420  -27.5880   19.2750 C   0  0  0  0  0  3  0  0  0  0  0  0
  -23.5760  -29.6900   19.9930 C   0  0  0  0  0  2  0  0  0  0  0  0
  -24.6030  -30.9050   21.9620 N   0  0  0  0  0  0  0  0  0  0  0  0
  -23.4360  -31.9270   23.6200 O   0  0  0  0  0  0  0  0  0  0  0  0
  -22.6890  -29.2650   22.3170 C   0  0  0  0  0  0  0  0  0  0  0  0
  -21.3630  -29.0910   22.1890 N   0  0  0  0  0  0  0  0  0  0  0  0
  -23.3700  -28.6100   23.1100 O   0  0  0  0  0  0  0  0  0  0  0  0
  -20.8710  -29.6730   21.5240 H   0  0  0  0  0  0  0  0  0  0  0  0
  -17.9790  -27.9160   22.6960 C   0  0  0  0  0  0  0  0  0  0  0  0
  -20.5460  -28.1270   22.9280 C   0  0  0  0  0  3  0  0  0  0  0  0
  -20.6150  -26.7240   22.2790 C   0  0  0  0  0  2  0  0  0  0  0  0
  -19.4880  -26.4690   21.2710 C   0  0  0  0  0  2  0  0  0  0  0  0
  -18.1220  -26.6010   21.9500 C   0  0  0  0  0  2  0  0  0  0  0  0
  -19.1180  -28.6410   23.1420 C   0  0  0  0  0  0  0  0  0  0  0  0
  -18.9270  -29.8750   23.8000 C   0  0  0  0  0  3  0  0  0  0  0  0
  -17.6320  -30.3840   24.0180 C   0  0  0  0  0  3  0  0  0  0  0  0
  -16.5100  -29.6560   23.5890 C   0  0  0  0  0  3  0  0  0  0  0  0
  -16.6850  -28.4230   22.9340 C   0  0  0  0  0  3  0  0  0  0  0  0
  -25.7980  -32.3040   23.7320 C   0  0  0  0  0  3  0  0  0  0  0  0
  -25.4780  -33.6930   24.0880 N   0  0  0  0  0  0  0  0  0  0  0  0
  -25.8000  -34.7620   23.3490 C   0  0  0  0  0  0  0  0  0  0  0  0
  -26.4670  -34.6840   22.3130 O   0  0  0  0  0  0  0  0  0  0  0  0
  -24.8870  -33.8260   24.8960 H   0  0  0  0  0  0  0  0  0  0  0  0
  -24.0430  -36.5370   23.0440 C   0  0  0  0  0  1  0  0  0  0  0  0
  -25.3010  -36.1390   23.8320 C   0  0  0  0  0  3  0  0  0  0  0  0
  -27.4300  -37.0510   24.6520 C   0  0  0  0  0  1  0  0  0  0  0  0
  -26.3190  -37.2070   23.7170 N   0  0  0  0  0  0  0  0  0  0  0  0
  -25.9010  -38.1210   23.8720 H   0  0  0  0  0  0  0  0  0  0  0  0
  -26.3030  -31.5080   25.0000 C   0  0  1  0  0  0  0  0  0  0  0  0
  -25.1960  -31.2370   26.0450 C   0  0  0  0  0  1  0  0  0  0  0  0
  -26.9040  -30.1450   24.5860 C   0  0  0  0  0  1  0  0  0  0  0  0
  -27.4370  -32.2970   25.6960 C   0  0  0  0  0  1  0  0  0  0  0  0
  1  2  2  0
  1  4  1  0
  2  5  1  0
  4 16  1  0
  4  6  2  0
  5 49  1  0
  5  3  2  0
  6  3  1  0
  6  7  1  0
  8 14  1  0
  8 17  1  0
  9 14  1  0
 10 11  1  0
 10  9  1  0
 12 11  1  0
 12 23  1  0
 12 13  1  0
 14 13  1  0
 15  8  2  0
 16 17  1  0
 16 18  2  0
 17 19  1  0
 20 21  2  0
 21 40  1  0
 22 21  1  0
 22 25  1  0
 23 24  1  0
 23 20  1  0
 24 22  2  0
 25 26  1  0
 26 27  2  0
 28 31  1  0
 28 27  1  0
 29 28  2  0
 30 29  1  0
 30 25  2  0
 31 32  1  0
 32 33  1  0
 33 34  2  0
 35 34  1  0
 35 39  1  0
 36 35  2  0
 37 32  2  0
 37 36  1  0
 38 37  1  0
 40 41  1  0
 41 44  1  0
 41 43  1  0
 42 40  2  0
 45 20  1  0
 45 46  1  0
 47 45  1  0
 48 49  1  0
 48 52  1  0
 49 51  1  0
 50 48  2  0
 53 52  1  0
 54 65  2  0
 55 53  1  0
 55 60  1  0
 56 64  1  0
 56 66  1  0
 57 63  1  0
 57 59  1  0
 58 64  1  0
 59 58  1  0
 60 59  2  0
 61 62  1  0
 61 55  2  0
 62 57  2  0
 63 56  1  0
 64 54  1  0
 66 68  2  0
 67 66  1  0
 69 67  1  0
 70 79  2  0
 70 75  1  0
 71 67  1  0
 71 75  1  0
 72 71  1  0
 73 74  1  0
 73 72  1  0
 74 70  1  0
 75 76  2  0
 76 77  1  0
 78 77  2  0
 79 78  1  0
 80 54  1  0
 80 81  1  0
 80 90  1  0
 81 84  1  0
 82 86  1  0
 82 81  1  0
 83 82  2  0
 86 85  1  0
 88 86  1  0
 88 89  1  0
 88 87  1  0
 90 93  1  1
 90 91  1  0
 92 90  1  0
M  ISO  4   8 100  17 100  52 101  53 101
M  END
>  <TORSDO>  (7) 
F 18

>  <SCORE>  (7) 
-14.419

>  <name>  (7) 
6

>  <ligand_id>  (7) 
6

>  <original_smiles>  (7) 
[H]c1c([H])c([H])c2c(c1[H])C([H])([H])C([H])([H])C([H])([H])C2([H])N([H])C(=O)C1([H])N(C(=O)C([H])(N([H])C(=O)C([H])(N([H])C([H])([H])[H])C([H])([H])[H])C(C([H])([H])[H])(C([H])([H])[H])C([H])([H])[H])C([H])([H])c2c([H])c(OC([H])([H])C(=O)N([H])c3c([H])c([H])c(C(=O)N([H])C(=O)N4C([H])([H])C([H])([H])C([H])([H])C([H])(n5nc(-c6c([H])c([H])c(Oc7c([H])c([H])c(F)c([H])c7F)c([H])c6[H])c(C(=O)N([H])[H])c5N([H])[H])C4([H])[H])c(F)c3[H])c([H])c([H])c2C1([H])[H]

>  <smiles>  (7) 
[H]c1c([H])c([H])c2c(c1[H])C([H])([H])C([H])([H])C([H])([H])C2([H])N([H])C(=O)C1([H])N(C(=O)C([H])(N([H])C(=O)C([H])(N([H])C([H])([H])[H])C([H])([H])[H])C(C([H])([H])[H])(C([H])([H])[H])C([H])([H])[H])C([H])([H])c2c([H])c(OC([H])([H])C(=O)N([H])c3c([H])c([H])c(C(=O)N([H])C(=O)N4C([H])([H])C([H])([H])C([H])([H])C([H])(n5nc(-c6c([H])c([H])c(Oc7c([H])c([H])c(F)c([H])c7F)c([H])c6[H])c(C(=O)N([H])[H])c5N([H])[H])C4([H])[H])c(F)c3[H])c([H])c([H])c2C1([H])[H]

$$$$
7:0:0
     RDKit          3D

 99108  0  0  1  0  0  0  0  0999 V2000
  -30.0000  -23.6170   22.8620 C   0  0  0  0  0  0  0  0  0  0  0  0
  -30.3610  -25.0680   23.1630 C   0  0  0  0  0  2  0  0  0  0  0  0
  -30.0210  -24.8000   20.7960 C   0  0  0  0  0  2  0  0  0  0  0  0
  -29.5160  -23.5070   21.4370 C   0  0  0  0  0  3  0  0  0  0  0  0
  -30.0150  -25.7840   21.9050 N   0  0  2  0  0  4  0  0  0  0  0  0
  -30.1210  -22.6890   23.6690 O   0  0  0  0  0  0  0  0  0  0  0  0
  -29.0470  -26.0550   22.0020 H   0  0  0  0  0  0  0  0  0  0  0  0
  -29.7630  -22.0750   19.4340 C   0  0  0  0  0  0  0  0  0  0  0  0
  -29.9210  -22.2860   20.7410 N   0  0  0  0  0  0  0  0  0  0  0  0
  -29.2600  -22.9070   18.6770 O   0  0  0  0  0  0  0  0  0  0  0  0
  -30.2720  -21.5270   21.3080 H   0  0  0  0  0  0  0  0  0  0  0  0
  -31.0300  -19.8840   19.6790 C   0  0  0  0  0  3  0  0  0  0  0  0
  -31.4470  -18.6410   19.1600 C   0  0  0  0  0  3  0  0  0  0  0  0
  -29.7240  -20.2980   17.6620 C   0  0  0  0  0  3  0  0  0  0  0  0
  -30.1700  -20.7220   18.9310 C   0  0  0  0  0  0  0  0  0  0  0  0
  -31.0010  -18.2290   17.8840 C   0  0  0  0  0  0  0  0  0  0  0  0
  -30.1260  -19.0520   17.1500 C   0  0  0  0  0  0  0  0  0  0  0  0
  -29.6840  -18.6460   15.9360 F   0  0  0  0  0  0  0  0  0  0  0  0
  -32.5480  -16.3980   17.3870 C   0  0  0  0  0  0  0  0  0  0  0  0
  -34.3020  -15.2120   16.1150 C   0  0  0  0  0  2  0  0  0  0  0  0
  -35.4000  -16.1880   15.6510 C   0  0  0  0  0  2  0  0  0  0  0  0
  -35.0190  -16.8600   14.3190 C   0  0  0  0  0  2  0  0  0  0  0  0
  -33.5860  -17.4520   14.3440 C   0  0  0  0  0  3  0  0  0  0  0  0
  -32.5850  -16.3990   14.8680 C   0  0  0  0  0  2  0  0  0  0  0  0
  -33.0320  -15.9440   16.2020 N   0  0  0  0  0  0  0  0  0  0  0  0
  -33.0980  -16.1940   18.4740 O   0  0  0  0  0  0  0  0  0  0  0  0
  -31.3620  -17.0040   17.2790 N   0  0  0  0  0  0  0  0  0  0  0  0
  -30.9750  -16.9060   16.3510 H   0  0  0  0  0  0  0  0  0  0  0  0
  -32.6690  -19.1980   12.6820 C   0  0  0  0  0  0  0  0  0  0  0  0
  -32.5450  -19.1830   11.3180 C   0  0  0  0  0  0  0  0  0  0  0  0
  -33.0250  -17.9070   10.8920 C   0  0  0  0  0  0  0  0  0  0  0  0
  -33.1950  -17.9610   13.0310 N   0  0  0  0  0  0  0  0  0  0  0  0
  -33.3620  -17.1680   11.9420 N   0  0  0  0  0  0  0  0  0  0  0  0
  -33.2360  -17.3660    9.5440 C   0  0  0  0  0  0  0  0  0  0  0  0
  -32.5890  -16.1880    9.1110 C   0  0  0  0  0  3  0  0  0  0  0  0
  -32.7930  -15.6960    7.8040 C   0  0  0  0  0  3  0  0  0  0  0  0
  -33.6510  -16.3850    6.9130 C   0  0  0  0  0  0  0  0  0  0  0  0
  -34.3100  -17.5450    7.3560 C   0  0  0  0  0  3  0  0  0  0  0  0
  -34.1090  -18.0300    8.6600 C   0  0  0  0  0  3  0  0  0  0  0  0
  -33.9340  -15.9660    5.6360 O   0  0  0  0  0  0  0  0  0  0  0  0
  -33.0110  -15.2850    4.8820 C   0  0  0  0  0  0  0  0  0  0  0  0
  -31.7710  -15.8570    4.5260 C   0  0  0  0  0  3  0  0  0  0  0  0
  -30.8820  -15.1510    3.6920 C   0  0  0  0  0  3  0  0  0  0  0  0
  -31.2340  -13.8770    3.2050 C   0  0  0  0  0  0  0  0  0  0  0  0
  -32.4710  -13.3080    3.5540 C   0  0  0  0  0  3  0  0  0  0  0  0
  -33.3580  -14.0120    4.3880 C   0  0  0  0  0  0  0  0  0  0  0  0
  -34.5580  -13.4670    4.7030 F   0  0  0  0  0  0  0  0  0  0  0  0
  -30.3840  -13.2010    2.3980 F   0  0  0  0  0  0  0  0  0  0  0  0
  -32.0960  -20.3220   10.4480 C   0  0  0  0  0  0  0  0  0  0  0  0
  -31.4020  -20.0210    9.3560 N   0  0  0  0  0  0  0  0  0  0  0  0
  -32.3150  -21.4910   10.7590 O   0  0  0  0  0  0  0  0  0  0  0  0
  -31.2010  -19.0630    9.1110 H   0  0  0  0  0  0  0  0  0  0  0  0
  -31.0650  -20.7610    8.7570 H   0  0  0  0  0  0  0  0  0  0  0  0
  -32.3960  -20.1590   13.6500 N   0  0  0  0  0  0  0  0  0  0  0  0
  -32.0250  -21.0730   13.4190 H   0  0  0  0  0  0  0  0  0  0  0  0
  -32.5060  -20.0140   14.6450 H   0  0  0  0  0  0  0  0  0  0  0  0
  -30.7800  -27.0350   21.6540 C   0  0  0  0  0  2  0  0  0  0  0  0
  -29.9730  -28.2580   22.1040 C   0  0  0  0  0  2  0  0  0  0  0  0
  -28.8480  -28.3680   21.2340 O   0  0  0  0  0  0  0  0  0  0  0  0
  -24.3160  -28.2150   26.7530 C   0  0  0  0  0  0  0  0  0  0  0  0
  -27.6160  -28.6720   21.7710 C   0  0  0  0  0  0  0  0  0  0  0  0
  -23.3380  -28.8100   24.5570 C   0  0  0  0  0  3  0  0  0  0  0  0
  -25.0170  -29.2880   22.6980 C   0  0  0  0  0  0  0  0  0  0  0  0
  -25.7840  -29.3260   25.0790 C   0  0  0  0  0  2  0  0  0  0  0  0
  -26.0720  -29.1460   23.6060 C   0  0  0  0  0  0  0  0  0  0  0  0
  -27.3690  -28.8470   23.1520 C   0  0  0  0  0  3  0  0  0  0  0  0
  -26.5410  -28.8080   20.8670 C   0  0  0  0  0  3  0  0  0  0  0  0
  -25.2440  -29.1170   21.3200 C   0  0  0  0  0  3  0  0  0  0  0  0
  -23.6650  -29.6310   23.2800 C   0  0  0  0  0  2  0  0  0  0  0  0
  -24.4950  -28.7400   25.5080 N   0  0  0  0  0  0  0  0  0  0  0  0
  -23.1990  -27.8370   27.1320 O   0  0  0  0  0  0  0  0  0  0  0  0
  -22.8160  -27.4220   24.1260 C   0  0  0  0  0  0  0  0  0  0  0  0
  -21.8080  -27.4140   23.2390 N   0  0  0  0  0  0  0  0  0  0  0  0
  -23.3310  -26.3870   24.5590 O   0  0  0  0  0  0  0  0  0  0  0  0
  -21.4350  -28.3050   22.9400 H   0  0  0  0  0  0  0  0  0  0  0  0
  -19.7000  -26.2660   20.5430 C   0  0  0  0  0  0  0  0  0  0  0  0
  -21.1800  -26.2270   22.6610 C   0  0  0  0  0  3  0  0  0  0  0  0
  -22.1920  -25.4200   21.8150 C   0  0  0  0  0  2  0  0  0  0  0  0
  -22.1780  -25.8010   20.3310 C   0  0  0  0  0  2  0  0  0  0  0  0
  -20.7850  -25.5770   19.7330 C   0  0  0  0  0  2  0  0  0  0  0  0
  -19.8920  -26.5850   21.9130 C   0  0  0  0  0  0  0  0  0  0  0  0
  -18.8640  -27.2560   22.6110 C   0  0  0  0  0  3  0  0  0  0  0  0
  -17.6630  -27.6020   21.9640 C   0  0  0  0  0  3  0  0  0  0  0  0
  -17.4720  -27.2700   20.6120 C   0  0  0  0  0  3  0  0  0  0  0  0
  -18.4880  -26.6010   19.9050 C   0  0  0  0  0  3  0  0  0  0  0  0
  -25.4970  -28.0870   27.7670 C   0  0  0  0  0  3  0  0  0  0  0  0
  -26.4150  -26.8310   27.5020 C   0  0  1  0  0  0  0  0  0  0  0  0
  -25.6550  -25.4840   27.5550 C   0  0  0  0  0  1  0  0  0  0  0  0
  -27.0960  -26.9370   26.1180 C   0  0  0  0  0  1  0  0  0  0  0  0
  -27.5490  -26.7800   28.5520 C   0  0  0  0  0  1  0  0  0  0  0  0
  -24.9160  -28.0360   29.1150 N   0  0  0  0  0  0  0  0  0  0  0  0
  -24.9880  -29.0290   30.0110 C   0  0  0  0  0  0  0  0  0  0  0  0
  -25.6200  -30.0710   29.8100 O   0  0  0  0  0  0  0  0  0  0  0  0
  -24.3330  -27.2400   29.3270 H   0  0  0  0  0  0  0  0  0  0  0  0
  -22.8950  -29.5840   31.2910 C   0  0  0  0  0  1  0  0  0  0  0  0
  -24.2380  -28.8390   31.3430 C   0  0  0  0  0  3  0  0  0  0  0  0
  -26.1640  -28.4410   32.8120 C   0  0  0  0  0  1  0  0  0  0  0  0
  -25.0090  -29.2870   32.5220 N   0  0  0  0  0  0  0  0  0  0  0  0
  -24.4190  -29.3140   33.3490 H   0  0  0  0  0  0  0  0  0  0  0  0
  1  2  1  0
  1  6  2  0
  3  4  1  0
  3  5  1  0
  4  9  1  0
  4  1  1  0
  5  7  1  1
  5  2  1  0
  8  9  1  0
  9 11  1  0
 10  8  2  0
 13 12  1  0
 14 15  1  0
 15  8  1  0
 15 12  2  0
 16 13  2  0
 17 14  2  0
 17 16  1  0
 18 17  1  0
 19 26  2  0
 20 25  1  0
 21 20  1  0
 22 23  1  0
 22 21  1  0
 23 32  1  0
 23 24  1  0
 24 25  1  0
 25 19  1  0
 27 19  1  0
 27 16  1  0
 28 27  1  0
 29 32  1  0
 29 54  1  0
 30 29  2  0
 31 30  1  0
 31 33  2  0
 33 32  1  0
 34 31  1  0
 35 34  1  0
 36 35  2  0
 37 38  2  0
 37 36  1  0
 38 39  1  0
 39 34  2  0
 40 37  1  0
 41 40  1  0
 42 41  1  0
 43 42  2  0
 44 45  2  0
 44 43  1  0
 45 46  1  0
 46 47  1  0
 46 41  2  0
 48 44  1  0
 49 51  2  0
 49 30  1  0
 50 49  1  0
 52 50  1  0
 53 50  1  0
 54 56  1  0
 55 54  1  0
 57  5  1  0
 57 58  1  0
 59 61  1  0
 59 58  1  0
 60 71  2  0
 61 66  1  0
 62 72  1  0
 62 70  1  0
 63 69  1  0
 63 65  1  0
 64 70  1  0
 65 64  1  0
 66 65  2  0
 67 68  1  0
 67 61  2  0
 68 63  2  0
 69 62  1  0
 70 60  1  0
 72 74  2  0
 73 72  1  0
 75 73  1  0
 76 81  1  0
 77 73  1  0
 78 77  1  0
 79 78  1  0
 80 79  1  0
 80 76  1  0
 81 82  2  0
 81 77  1  0
 83 82  1  0
 84 83  2  0
 85 76  2  0
 85 84  1  0
 86 60  1  0
 86 91  1  0
 87 88  1  6
 87 86  1  0
 87 90  1  0
 89 87  1  0
 91 94  1  0
 91 92  1  0
 92 96  1  0
 93 92  2  0
 96 95  1  0
 96 98  1  0
 98 97  1  0
 98 99  1  0
M  ISO  4  19 100  27 100  58 101  59 101
M  END
>  <TORSDO>  (8) 
F 20

>  <SCORE>  (8) 
-4.619

>  <name>  (8) 
7

>  <ligand_id>  (8) 
7

>  <original_smiles>  (8) 
[H]c1c([H])c([H])c2c(c1[H])C([H])([H])C([H])([H])C([H])([H])C2([H])N([H])C(=O)C1([H])N(C(=O)C([H])(N([H])C(=O)C([H])(N([H])C([H])([H])[H])C([H])([H])[H])C(C([H])([H])[H])(C([H])([H])[H])C([H])([H])[H])C([H])([H])c2c([H])c(OC([H])([H])C([H])([H])[N+]3([H])C([H])([H])C(=O)C([H])(N([H])C(=O)c4c([H])c([H])c(N([H])C(=O)N5C([H])([H])C([H])([H])C([H])([H])C([H])(n6nc(-c7c([H])c([H])c(Oc8c([H])c([H])c(F)c([H])c8F)c([H])c7[H])c(C(=O)N([H])[H])c6N([H])[H])C5([H])[H])c(F)c4[H])C3([H])[H])c([H])c([H])c2C1([H])[H]

>  <smiles>  (8) 
[H]c1c([H])c([H])c2c(c1[H])C([H])([H])C([H])([H])C([H])([H])C2([H])N([H])C(=O)C1([H])N(C(=O)C([H])(N([H])C(=O)C([H])(N([H])C([H])([H])[H])C([H])([H])[H])C(C([H])([H])[H])(C([H])([H])[H])C([H])([H])[H])C([H])([H])c2c([H])c(OC([H])([H])C([H])([H])[N+]3([H])C([H])([H])C(=O)C([H])(N([H])C(=O)c4c([H])c([H])c(N([H])C(=O)N5C([H])([H])C([H])([H])C([H])([H])C([H])(n6nc(-c7c([H])c([H])c(Oc8c([H])c([H])c(F)c([H])c8F)c([H])c7[H])c(C(=O)N([H])[H])c6N([H])[H])C5([H])[H])c(F)c4[H])C3([H])[H])c([H])c([H])c2C1([H])[H]

$$$$
9:0:0
     RDKit          3D

 93102  0  0  1  0  0  0  0  0999 V2000
  -28.5270  -24.2660   19.8940 C   0  0  0  0  0  0  0  0  0  0  0  0
  -28.6950  -24.1950   18.5660 C   0  0  0  0  0  0  0  0  0  0  0  0
  -28.5740  -22.9100   20.4270 C   0  0  0  0  0  0  0  0  0  0  0  0
  -28.8690  -22.7790   18.1270 C   0  0  0  0  0  2  0  0  0  0  0  0
  -28.7620  -25.2800   17.5090 C   0  0  0  0  0  1  0  0  0  0  0  0
  -28.7680  -22.0460   19.3890 N   0  0  0  0  0  0  0  0  0  0  0  0
  -28.4640  -22.6070   21.6190 O   0  0  0  0  0  0  0  0  0  0  0  0
  -29.8060  -18.5730   18.3500 C   0  0  0  0  0  3  0  0  0  0  0  0
  -28.8660  -18.4280   20.5790 C   0  0  0  0  0  3  0  0  0  0  0  0
  -29.5530  -19.9570   18.3260 C   0  0  0  0  0  3  0  0  0  0  0  0
  -28.5920  -19.8140   20.5470 C   0  0  0  0  0  3  0  0  0  0  0  0
  -29.4940  -17.7970   19.4850 C   0  0  0  0  0  0  0  0  0  0  0  0
  -28.9680  -20.6150   19.4360 C   0  0  0  0  0  0  0  0  0  0  0  0
  -29.9030  -16.3750   19.4890 C   0  0  0  0  0  2  0  0  0  0  0  0
  -30.0190  -15.5940   20.5010 N   0  0  0  0  0  2  0  0  0  0  0  0
  -30.7500  -14.4570   20.1880 C   0  0  0  0  0  0  0  0  0  0  0  0
  -30.3660  -12.3090   19.0680 C   0  0  0  0  0  2  0  0  0  0  0  0
  -29.4060  -12.5610   17.8880 C   0  0  0  0  0  2  0  0  0  0  0  0
  -27.9440  -12.4210   18.3480 C   0  0  0  0  0  2  0  0  0  0  0  0
  -27.6380  -13.2510   19.6250 C   0  0  0  0  0  3  0  0  0  0  0  0
  -28.7240  -13.0450   20.7040 C   0  0  0  0  0  2  0  0  0  0  0  0
  -30.0410  -13.3000   20.1020 N   0  0  0  0  0  0  0  0  0  0  0  0
  -31.9090  -14.5330   19.7730 O   0  0  0  0  0  0  0  0  0  0  0  0
  -25.2630  -13.8490   20.4070 C   0  0  0  0  0  0  0  0  0  0  0  0
  -24.2060  -13.0750   20.7990 C   0  0  0  0  0  0  0  0  0  0  0  0
  -24.6690  -11.7220   20.7540 C   0  0  0  0  0  0  0  0  0  0  0  0
  -26.3020  -12.9710   20.1440 N   0  0  0  0  0  0  0  0  0  0  0  0
  -25.9490  -11.6870   20.4120 N   0  0  0  0  0  0  0  0  0  0  0  0
  -23.9510  -10.4580   20.9590 C   0  0  0  0  0  0  0  0  0  0  0  0
  -24.3990   -9.4980   21.8930 C   0  0  0  0  0  3  0  0  0  0  0  0
  -23.6810   -8.2980   22.0870 C   0  0  0  0  0  3  0  0  0  0  0  0
  -22.5020   -8.0490   21.3440 C   0  0  0  0  0  0  0  0  0  0  0  0
  -22.0740   -8.9980   20.4010 C   0  0  0  0  0  3  0  0  0  0  0  0
  -22.7910  -10.1910   20.2060 C   0  0  0  0  0  3  0  0  0  0  0  0
  -21.7560   -6.8990   21.4450 O   0  0  0  0  0  0  0  0  0  0  0  0
  -21.7120   -6.1710   22.6060 C   0  0  0  0  0  0  0  0  0  0  0  0
  -21.2650   -6.7310   23.8220 C   0  0  0  0  0  3  0  0  0  0  0  0
  -21.1700   -5.9280   24.9760 C   0  0  0  0  0  3  0  0  0  0  0  0
  -21.5100   -4.5630   24.9140 C   0  0  0  0  0  0  0  0  0  0  0  0
  -21.9480   -4.0010   23.7020 C   0  0  0  0  0  3  0  0  0  0  0  0
  -22.0450   -4.8020   22.5500 C   0  0  0  0  0  0  0  0  0  0  0  0
  -22.4480   -4.2510   21.3800 F   0  0  0  0  0  0  0  0  0  0  0  0
  -21.4110   -3.7880   26.0190 F   0  0  0  0  0  0  0  0  0  0  0  0
  -22.8150  -13.5480   21.1080 C   0  0  0  0  0  0  0  0  0  0  0  0
  -22.1120  -12.8480   21.9920 N   0  0  0  0  0  0  0  0  0  0  0  0
  -22.3610  -14.5730   20.6020 O   0  0  0  0  0  0  0  0  0  0  0  0
  -22.4930  -12.0210   22.4250 H   0  0  0  0  0  0  0  0  0  0  0  0
  -21.1800  -13.1480   22.2410 H   0  0  0  0  0  0  0  0  0  0  0  0
  -25.4210  -15.2220   20.2310 N   0  0  0  0  0  0  0  0  0  0  0  0
  -24.6670  -15.8810   20.3810 H   0  0  0  0  0  0  0  0  0  0  0  0
  -26.2820  -15.6630   19.9310 H   0  0  0  0  0  0  0  0  0  0  0  0
  -28.3490  -25.4760   20.8170 C   0  0  0  0  0  2  0  0  0  0  0  0
  -28.4230  -26.7520   20.1730 O   0  0  0  0  0  0  0  0  0  0  0  0
  -24.5810  -31.8730   23.2240 C   0  0  0  0  0  0  0  0  0  0  0  0
  -27.2490  -27.4670   20.1570 C   0  0  0  0  0  0  0  0  0  0  0  0
  -23.3830  -30.4700   21.5730 C   0  0  0  0  0  3  0  0  0  0  0  0
  -24.8460  -28.9480   20.1460 C   0  0  0  0  0  0  0  0  0  0  0  0
  -25.9030  -30.8510   21.3770 C   0  0  0  0  0  2  0  0  0  0  0  0
  -25.9960  -29.4820   20.7400 C   0  0  0  0  0  0  0  0  0  0  0  0
  -27.2000  -28.7480   20.7450 C   0  0  0  0  0  3  0  0  0  0  0  0
  -26.0890  -26.9410   19.5490 C   0  0  0  0  0  3  0  0  0  0  0  0
  -24.8870  -27.6750   19.5450 C   0  0  0  0  0  3  0  0  0  0  0  0
  -23.5970  -29.7970   20.1900 C   0  0  0  0  0  2  0  0  0  0  0  0
  -24.6410  -31.0800   22.1170 N   0  0  0  0  0  0  0  0  0  0  0  0
  -23.4980  -32.1370   23.7630 O   0  0  0  0  0  0  0  0  0  0  0  0
  -22.7330  -29.4460   22.5300 C   0  0  0  0  0  0  0  0  0  0  0  0
  -21.4070  -29.2700   22.4050 N   0  0  0  0  0  0  0  0  0  0  0  0
  -23.4180  -28.8140   23.3390 O   0  0  0  0  0  0  0  0  0  0  0  0
  -20.9190  -29.8270   21.7190 H   0  0  0  0  0  0  0  0  0  0  0  0
  -18.0250  -28.1020   22.9070 C   0  0  0  0  0  0  0  0  0  0  0  0
  -20.5870  -28.3340   23.1720 C   0  0  0  0  0  3  0  0  0  0  0  0
  -20.6770  -26.9100   22.5780 C   0  0  0  0  0  2  0  0  0  0  0  0
  -19.5650  -26.6080   21.5680 C   0  0  0  0  0  2  0  0  0  0  0  0
  -18.1870  -26.7590   22.2180 C   0  0  0  0  0  2  0  0  0  0  0  0
  -19.1520  -28.8500   23.3400 C   0  0  0  0  0  0  0  0  0  0  0  0
  -18.9460  -30.1090   23.9440 C   0  0  0  0  0  3  0  0  0  0  0  0
  -17.6470  -30.6190   24.1220 C   0  0  0  0  0  3  0  0  0  0  0  0
  -16.5350  -29.8690   23.7050 C   0  0  0  0  0  3  0  0  0  0  0  0
  -16.7230  -28.6130   23.1020 C   0  0  0  0  0  3  0  0  0  0  0  0
  -25.8630  -32.5050   23.8540 C   0  0  0  0  0  3  0  0  0  0  0  0
  -26.3750  -31.7310   25.1290 C   0  0  1  0  0  0  0  0  0  0  0  0
  -25.2790  -31.4950   26.1920 C   0  0  0  0  0  1  0  0  0  0  0  0
  -26.9590  -30.3550   24.7310 C   0  0  0  0  0  1  0  0  0  0  0  0
  -27.5230  -32.5270   25.7980 C   0  0  0  0  0  1  0  0  0  0  0  0
  -25.5560  -33.9030   24.1810 N   0  0  0  0  0  0  0  0  0  0  0  0
  -25.8930  -34.9530   23.4210 C   0  0  0  0  0  0  0  0  0  0  0  0
  -26.5690  -34.8490   22.3940 O   0  0  0  0  0  0  0  0  0  0  0  0
  -24.9620  -34.0640   24.9820 H   0  0  0  0  0  0  0  0  0  0  0  0
  -24.1680  -36.7470   23.0490 C   0  0  0  0  0  1  0  0  0  0  0  0
  -25.4000  -36.3430   23.8740 C   0  0  0  0  0  3  0  0  0  0  0  0
  -27.5240  -37.2230   24.7330 C   0  0  0  0  0  1  0  0  0  0  0  0
  -26.4340  -37.3970   23.7760 N   0  0  0  0  0  0  0  0  0  0  0  0
  -26.0250  -38.3150   23.9240 H   0  0  0  0  0  0  0  0  0  0  0  0
  1  3  1  0
  1 52  1  0
  2  1  2  0
  3  7  2  0
  4  2  1  0
  4  6  1  0
  5  2  1  0
  6 13  1  0
  6  3  1  0
  8 12  1  0
 10  8  2  0
 10 13  1  0
 11  9  1  0
 12 14  1  0
 12  9  2  0
 13 11  2  0
 14 15  1  0
 16 15  1  0
 17 22  1  0
 18 19  1  0
 18 17  1  0
 20 19  1  0
 20 27  1  0
 20 21  1  0
 22 16  1  0
 22 21  1  0
 23 16  2  0
 24 25  2  0
 25 44  1  0
 26 25  1  0
 26 29  1  0
 27 24  1  0
 27 28  1  0
 28 26  2  0
 29 30  1  0
 30 31  2  0
 32 35  1  0
 32 31  1  0
 33 32  2  0
 34 33  1  0
 34 29  2  0
 35 36  1  0
 36 37  1  0
 37 38  2  0
 39 38  1  0
 39 43  1  0
 40 39  2  0
 41 36  2  0
 41 40  1  0
 42 41  1  0
 44 45  1  0
 45 48  1  0
 45 47  1  0
 46 44  2  0
 49 50  1  0
 49 24  1  0
 51 49  1  0
 53 52  1  0
 54 65  2  0
 55 53  1  0
 55 60  1  0
 56 64  1  0
 56 66  1  0
 57 63  1  0
 57 59  1  0
 58 64  1  0
 59 60  2  0
 59 58  1  0
 61 55  2  0
 62 61  1  0
 62 57  2  0
 63 56  1  0
 64 54  1  0
 66 68  2  0
 67 66  1  0
 69 67  1  0
 70 79  2  0
 70 75  1  0
 71 67  1  0
 71 75  1  0
 72 71  1  0
 73 74  1  0
 73 72  1  0
 74 70  1  0
 75 76  2  0
 76 77  1  0
 78 77  2  0
 79 78  1  0
 80 54  1  0
 80 85  1  0
 80 81  1  0
 81 84  1  1
 81 82  1  0
 83 81  1  0
 85 88  1  0
 86 90  1  0
 86 85  1  0
 87 86  2  0
 90 89  1  0
 92 90  1  0
 92 93  1  0
 92 91  1  0
M  ISO  4  15 100  16 100  52 101  53 101
M  END
>  <TORSDO>  (9) 
F 19

>  <SCORE>  (9) 
-14.426

>  <name>  (9) 
9

>  <ligand_id>  (9) 
9

>  <original_smiles>  (9) 
[H]C(=NC(=O)N1C([H])([H])C([H])([H])C([H])([H])C([H])(n2nc(-c3c([H])c([H])c(Oc4c([H])c([H])c(F)c([H])c4F)c([H])c3[H])c(C(=O)N([H])[H])c2N([H])[H])C1([H])[H])c1c([H])c([H])c(N2C(=O)C(C([H])([H])Oc3c([H])c([H])c4c(c3[H])C([H])([H])N(C(=O)C([H])(N([H])C(=O)C([H])(N([H])C([H])([H])[H])C([H])([H])[H])C(C([H])([H])[H])(C([H])([H])[H])C([H])([H])[H])C([H])(C(=O)N([H])C3([H])c5c([H])c([H])c([H])c([H])c5C([H])([H])C([H])([H])C3([H])[H])C4([H])[H])=C(C([H])([H])[H])C2([H])[H])c([H])c1[H]

>  <smiles>  (9) 
[H]C(=NC(=O)N1C([H])([H])C([H])([H])C([H])([H])C([H])(n2nc(-c3c([H])c([H])c(Oc4c([H])c([H])c(F)c([H])c4F)c([H])c3[H])c(C(=O)N([H])[H])c2N([H])[H])C1([H])[H])c1c([H])c([H])c(N2C(=O)C(C([H])([H])Oc3c([H])c([H])c4c(c3[H])C([H])([H])N(C(=O)C([H])(N([H])C(=O)C([H])(N([H])C([H])([H])[H])C([H])([H])[H])C(C([H])([H])[H])(C([H])([H])[H])C([H])([H])[H])C([H])(C(=O)N([H])C3([H])c5c([H])c([H])c([H])c([H])c5C([H])([H])C([H])([H])C3([H])[H])C4([H])[H])=C(C([H])([H])[H])C2([H])[H])c([H])c1[H]

$$$$
10:0:0
     RDKit          3D

 94103  0  0  1  0  0  0  0  0999 V2000
  -28.6160  -23.8220   19.4410 C   0  0  0  0  0  0  0  0  0  0  0  0
  -27.4400  -21.9760   18.2470 C   0  0  0  0  0  0  0  0  0  0  0  0
  -28.3080  -25.1980   19.3900 C   0  0  0  0  0  3  0  0  0  0  0  0
  -28.4770  -23.0870   18.1120 C   0  0  0  0  0  2  0  0  0  0  0  0
  -29.0950  -22.7400   20.5280 C   0  0  0  0  0  2  0  0  0  0  0  0
  -27.5640  -21.0560   19.4690 C   0  0  0  0  0  2  0  0  0  0  0  0
  -28.8140  -21.2450   20.2260 N   0  0  0  0  0  0  0  0  0  0  0  0
  -26.5620  -21.8060   17.3970 O   0  0  0  0  0  0  0  0  0  0  0  0
  -31.5320  -19.1760   21.8960 C   0  0  0  0  0  3  0  0  0  0  0  0
  -30.7250  -20.2420   21.4420 C   0  0  0  0  0  3  0  0  0  0  0  0
  -31.2420  -17.8280   21.6030 C   0  0  0  0  0  3  0  0  0  0  0  0
  -29.5600  -20.0380   20.6630 C   0  0  0  0  0  0  0  0  0  0  0  0
  -30.1050  -17.4810   20.8490 C   0  0  0  0  0  0  0  0  0  0  0  0
  -29.2720  -18.6020   20.4020 C   0  0  0  0  0  0  0  0  0  0  0  0
  -28.1660  -18.2400   19.7130 F   0  0  0  0  0  0  0  0  0  0  0  0
  -30.5890  -14.8820   20.5680 C   0  0  0  0  0  0  0  0  0  0  0  0
  -30.4580  -12.5770   19.5730 C   0  0  0  0  0  2  0  0  0  0  0  0
  -29.5450  -12.5800   18.3260 C   0  0  0  0  0  2  0  0  0  0  0  0
  -28.0700  -12.3840   18.7280 C   0  0  0  0  0  2  0  0  0  0  0  0
  -27.6470  -13.3000   19.9070 C   0  0  0  0  0  3  0  0  0  0  0  0
  -28.6800  -13.2650   21.0540 C   0  0  0  0  0  2  0  0  0  0  0  0
  -29.9750  -13.6480   20.4770 N   0  0  0  0  0  0  0  0  0  0  0  0
  -31.7980  -14.9640   20.3390 O   0  0  0  0  0  0  0  0  0  0  0  0
  -29.7880  -16.0290   20.6390 N   0  0  0  0  0  0  0  0  0  0  0  0
  -28.8060  -15.8390   20.5170 H   0  0  0  0  0  0  0  0  0  0  0  0
  -25.2390  -13.8720   20.5730 C   0  0  0  0  0  0  0  0  0  0  0  0
  -24.1700  -13.0900   20.9170 C   0  0  0  0  0  0  0  0  0  0  0  0
  -24.6470  -11.7430   20.9110 C   0  0  0  0  0  0  0  0  0  0  0  0
  -26.2960  -13.0010   20.3690 N   0  0  0  0  0  0  0  0  0  0  0  0
  -25.9470  -11.7170   20.6390 N   0  0  0  0  0  0  0  0  0  0  0  0
  -23.9260  -10.4750   21.0910 C   0  0  0  0  0  0  0  0  0  0  0  0
  -24.3360   -9.5210   22.0470 C   0  0  0  0  0  3  0  0  0  0  0  0
  -23.6150   -8.3190   22.2140 C   0  0  0  0  0  3  0  0  0  0  0  0
  -22.4700   -8.0640   21.4220 C   0  0  0  0  0  0  0  0  0  0  0  0
  -22.0800   -9.0060   20.4550 C   0  0  0  0  0  3  0  0  0  0  0  0
  -22.8010  -10.1990   20.2870 C   0  0  0  0  0  3  0  0  0  0  0  0
  -21.7220   -6.9120   21.4970 O   0  0  0  0  0  0  0  0  0  0  0  0
  -21.6340   -6.1860   22.6570 C   0  0  0  0  0  0  0  0  0  0  0  0
  -21.1290   -6.7480   23.8500 C   0  0  0  0  0  3  0  0  0  0  0  0
  -20.9890   -5.9470   25.0020 C   0  0  0  0  0  3  0  0  0  0  0  0
  -21.3440   -4.5860   24.9610 C   0  0  0  0  0  0  0  0  0  0  0  0
  -21.8440   -4.0240   23.7730 C   0  0  0  0  0  3  0  0  0  0  0  0
  -21.9850   -4.8210   22.6240 C   0  0  0  0  0  0  0  0  0  0  0  0
  -22.4460   -4.2710   21.4750 F   0  0  0  0  0  0  0  0  0  0  0  0
  -21.2030   -3.8130   26.0630 F   0  0  0  0  0  0  0  0  0  0  0  0
  -22.7620  -13.5560   21.1410 C   0  0  0  0  0  0  0  0  0  0  0  0
  -22.0130  -12.8610   21.9890 N   0  0  0  0  0  0  0  0  0  0  0  0
  -22.3300  -14.5740   20.5990 O   0  0  0  0  0  0  0  0  0  0  0  0
  -22.3730  -12.0390   22.4520 H   0  0  0  0  0  0  0  0  0  0  0  0
  -21.0640  -13.1530   22.1780 H   0  0  0  0  0  0  0  0  0  0  0  0
  -25.3910  -15.2450   20.3890 N   0  0  0  0  0  0  0  0  0  0  0  0
  -24.6050  -15.8820   20.4700 H   0  0  0  0  0  0  0  0  0  0  0  0
  -26.2280  -15.6970   20.0470 H   0  0  0  0  0  0  0  0  0  0  0  0
  -28.2960  -26.3400   20.2480 O   0  0  0  0  0  0  0  0  0  0  0  0
  -24.6840  -31.9000   23.3050 C   0  0  0  0  0  0  0  0  0  0  0  0
  -27.2350  -27.2940   20.1720 C   0  0  0  0  0  0  0  0  0  0  0  0
  -23.4590  -30.5240   21.6660 C   0  0  0  0  0  3  0  0  0  0  0  0
  -24.8870  -28.9790   20.2020 C   0  0  0  0  0  0  0  0  0  0  0  0
  -26.0060  -30.8100   21.4650 C   0  0  0  0  0  2  0  0  0  0  0  0
  -26.0710  -29.4340   20.7960 C   0  0  0  0  0  0  0  0  0  0  0  0
  -27.2470  -28.6050   20.7700 C   0  0  0  0  0  3  0  0  0  0  0  0
  -26.0160  -26.9140   19.5610 C   0  0  0  0  0  3  0  0  0  0  0  0
  -24.8670  -27.7280   19.5720 C   0  0  0  0  0  3  0  0  0  0  0  0
  -23.6570  -29.8670   20.2740 C   0  0  0  0  0  2  0  0  0  0  0  0
  -24.7360  -31.1000   22.1990 N   0  0  0  0  0  0  0  0  0  0  0  0
  -23.6060  -32.1760   23.8540 O   0  0  0  0  0  0  0  0  0  0  0  0
  -22.7950  -29.5050   22.6230 C   0  0  0  0  0  0  0  0  0  0  0  0
  -21.4700  -29.3170   22.4880 N   0  0  0  0  0  0  0  0  0  0  0  0
  -23.4720  -28.8850   23.4480 O   0  0  0  0  0  0  0  0  0  0  0  0
  -20.9840  -29.8690   21.7930 H   0  0  0  0  0  0  0  0  0  0  0  0
  -18.1070  -28.0480   22.9500 C   0  0  0  0  0  0  0  0  0  0  0  0
  -20.6560  -28.3670   23.2520 C   0  0  0  0  0  3  0  0  0  0  0  0
  -20.7980  -26.9350   22.6860 C   0  0  0  0  0  2  0  0  0  0  0  0
  -19.7150  -26.5770   21.6660 C   0  0  0  0  0  2  0  0  0  0  0  0
  -18.3230  -26.6960   22.2920 C   0  0  0  0  0  2  0  0  0  0  0  0
  -19.2030  -28.8400   23.3850 C   0  0  0  0  0  0  0  0  0  0  0  0
  -18.9470  -30.1020   23.9650 C   0  0  0  0  0  3  0  0  0  0  0  0
  -17.6310  -30.5760   24.1070 C   0  0  0  0  0  3  0  0  0  0  0  0
  -16.5490  -29.7840   23.6850 C   0  0  0  0  0  3  0  0  0  0  0  0
  -16.7880  -28.5210   23.1120 C   0  0  0  0  0  3  0  0  0  0  0  0
  -25.9720  -32.5250   23.9220 C   0  0  0  0  0  3  0  0  0  0  0  0
  -25.6780  -33.9320   24.2410 N   0  0  0  0  0  0  0  0  0  0  0  0
  -26.0090  -34.9760   23.4700 C   0  0  0  0  0  0  0  0  0  0  0  0
  -26.6620  -34.8560   22.4290 O   0  0  0  0  0  0  0  0  0  0  0  0
  -25.0980  -34.0970   25.0500 H   0  0  0  0  0  0  0  0  0  0  0  0
  -24.2950  -36.7870   23.1250 C   0  0  0  0  0  1  0  0  0  0  0  0
  -25.5430  -36.3740   23.9210 C   0  0  0  0  0  3  0  0  0  0  0  0
  -27.6980  -37.2470   24.7170 C   0  0  0  0  0  1  0  0  0  0  0  0
  -26.5870  -37.4140   23.7850 N   0  0  0  0  0  0  0  0  0  0  0  0
  -26.1940  -38.3410   23.9230 H   0  0  0  0  0  0  0  0  0  0  0  0
  -26.4750  -31.7630   25.2090 C   0  0  1  0  0  0  0  0  0  0  0  0
  -25.3770  -31.5520   26.2780 C   0  0  0  0  0  1  0  0  0  0  0  0
  -27.0410  -30.3730   24.8380 C   0  0  0  0  0  1  0  0  0  0  0  0
  -27.6360  -32.5500   25.8650 C   0  0  0  0  0  1  0  0  0  0  0  0
  1  5  1  0
  2  6  1  0
  3  1  2  0
  3 54  1  0
  4  2  1  0
  4  1  1  0
  6  7  1  0
  7  5  1  0
  7 12  1  0
  8  2  2  0
 10  9  2  0
 11  9  1  0
 12 10  1  0
 13 11  2  0
 14 12  2  0
 14 13  1  0
 15 14  1  0
 16 24  1  0
 17 22  1  0
 18 19  1  0
 18 17  1  0
 20 19  1  0
 20 29  1  0
 20 21  1  0
 22 16  1  0
 22 21  1  0
 23 16  2  0
 24 13  1  0
 25 24  1  0
 26 27  2  0
 27 46  1  0
 28 27  1  0
 28 31  1  0
 29 26  1  0
 29 30  1  0
 30 28  2  0
 31 32  1  0
 32 33  2  0
 34 37  1  0
 34 33  1  0
 35 34  2  0
 36 35  1  0
 36 31  2  0
 37 38  1  0
 38 39  1  0
 39 40  2  0
 41 40  1  0
 41 45  1  0
 42 41  2  0
 43 38  2  0
 43 42  1  0
 44 43  1  0
 46 47  1  0
 47 50  1  0
 47 49  1  0
 48 46  2  0
 51 52  1  0
 51 26  1  0
 53 51  1  0
 55 66  2  0
 56 54  1  0
 56 61  1  0
 57 65  1  0
 57 67  1  0
 58 64  1  0
 58 60  1  0
 59 65  1  0
 60 59  1  0
 61 60  2  0
 62 63  1  0
 62 56  2  0
 63 58  2  0
 64 57  1  0
 65 55  1  0
 67 69  2  0
 68 67  1  0
 70 68  1  0
 71 80  2  0
 71 76  1  0
 72 68  1  0
 72 76  1  0
 73 72  1  0
 74 75  1  0
 74 73  1  0
 75 71  1  0
 76 77  2  0
 77 78  1  0
 79 78  2  0
 80 79  1  0
 81 55  1  0
 81 82  1  0
 81 91  1  0
 82 85  1  0
 83 87  1  0
 83 82  1  0
 84 83  2  0
 87 86  1  0
 89 87  1  0
 89 90  1  0
 89 88  1  0
 91 94  1  1
 91 92  1  0
 93 91  1  0
M  ISO  4   3 101  16 100  24 100  54 101
M  END
>  <TORSDO>  (10) 
F 17

>  <SCORE>  (10) 
-15.586

>  <name>  (10) 
10

>  <ligand_id>  (10) 
10

>  <original_smiles>  (10) 
[H]C(Oc1c([H])c([H])c2c(c1[H])C([H])([H])N(C(=O)C([H])(N([H])C(=O)C([H])(N([H])C([H])([H])[H])C([H])([H])[H])C(C([H])([H])[H])(C([H])([H])[H])C([H])([H])[H])C([H])(C(=O)N([H])C1([H])c3c([H])c([H])c([H])c([H])c3C([H])([H])C([H])([H])C1([H])[H])C2([H])[H])=C1C([H])([H])C(=O)C([H])([H])N(c2c([H])c([H])c([H])c(N([H])C(=O)N3C([H])([H])C([H])([H])C([H])([H])C([H])(n4nc(-c5c([H])c([H])c(Oc6c([H])c([H])c(F)c([H])c6F)c([H])c5[H])c(C(=O)N([H])[H])c4N([H])[H])C3([H])[H])c2F)C1([H])[H]

>  <smiles>  (10) 
[H]C(Oc1c([H])c([H])c2c(c1[H])C([H])([H])N(C(=O)C([H])(N([H])C(=O)C([H])(N([H])C([H])([H])[H])C([H])([H])[H])C(C([H])([H])[H])(C([H])([H])[H])C([H])([H])[H])C([H])(C(=O)N([H])C1([H])c3c([H])c([H])c([H])c([H])c3C([H])([H])C([H])([H])C1([H])[H])C2([H])[H])=C1C([H])([H])C(=O)C([H])([H])N(c2c([H])c([H])c([H])c(N([H])C(=O)N3C([H])([H])C([H])([H])C([H])([H])C([H])(n4nc(-c5c([H])c([H])c(Oc6c([H])c([H])c(F)c([H])c6F)c([H])c5[H])c(C(=O)N([H])[H])c4N([H])[H])C3([H])[H])c2F)C1([H])[H]

$$$$
11:0:0
     RDKit          3D

 97106  0  0  1  0  0  0  0  0999 V2000
  -27.9340  -23.2400   21.0370 C   0  0  0  0  0  3  0  0  0  0  0  0
  -29.3890  -22.7510   19.4640 C   0  0  0  0  0  3  0  0  0  0  0  0
  -28.6340  -23.8370   19.9380 C   0  0  0  0  0  0  0  0  0  0  0  0
  -28.3010  -21.9130   21.1700 C   0  0  0  0  0  0  0  0  0  0  0  0
  -29.2280  -21.5360   20.2020 N   0  0  0  0  0  0  0  0  0  0  0  0
  -31.3350  -20.4320   19.6830 C   0  0  0  0  0  3  0  0  0  0  0  0
  -31.7990  -18.0300   19.7580 C   0  0  0  0  0  3  0  0  0  0  0  0
  -29.9840  -20.2520   20.0480 C   0  0  0  0  0  0  0  0  0  0  0  0
  -32.2220  -19.3540   19.5380 C   0  0  0  0  0  0  0  0  0  0  0  0
  -30.4670  -17.6990   20.1170 C   0  0  0  0  0  0  0  0  0  0  0  0
  -29.5640  -18.8530   20.2540 C   0  0  0  0  0  0  0  0  0  0  0  0
  -28.2730  -18.5900   20.5690 F   0  0  0  0  0  0  0  0  0  0  0  0
  -30.7980  -15.0580   20.1250 C   0  0  0  0  0  0  0  0  0  0  0  0
  -30.5480  -12.7650   19.1530 C   0  0  0  0  0  2  0  0  0  0  0  0
  -29.5760  -12.8120   17.9550 C   0  0  0  0  0  2  0  0  0  0  0  0
  -28.1250  -12.6240   18.4380 C   0  0  0  0  0  2  0  0  0  0  0  0
  -27.7800  -13.5180   19.6580 C   0  0  0  0  0  3  0  0  0  0  0  0
  -28.8790  -13.4810   20.7430 C   0  0  0  0  0  2  0  0  0  0  0  0
  -30.1440  -13.8410   20.0930 N   0  0  0  0  0  0  0  0  0  0  0  0
  -31.9860  -15.0660   19.7980 O   0  0  0  0  0  0  0  0  0  0  0  0
  -30.0810  -16.2490   20.3130 N   0  0  0  0  0  0  0  0  0  0  0  0
  -29.1140  -16.1110   20.5630 H   0  0  0  0  0  0  0  0  0  0  0  0
  -25.4290  -14.0780   20.5080 C   0  0  0  0  0  0  0  0  0  0  0  0
  -24.3800  -13.2910   20.8960 C   0  0  0  0  0  0  0  0  0  0  0  0
  -24.8410  -11.9420   20.8050 C   0  0  0  0  0  0  0  0  0  0  0  0
  -26.4630  -13.2080   20.2000 N   0  0  0  0  0  0  0  0  0  0  0  0
  -26.1200  -11.9160   20.4440 N   0  0  0  0  0  0  0  0  0  0  0  0
  -24.1220  -10.6740   20.9830 C   0  0  0  0  0  0  0  0  0  0  0  0
  -24.5340   -9.7170   21.9370 C   0  0  0  0  0  3  0  0  0  0  0  0
  -23.8120   -8.5160   22.1050 C   0  0  0  0  0  3  0  0  0  0  0  0
  -22.6650   -8.2610   21.3160 C   0  0  0  0  0  0  0  0  0  0  0  0
  -22.2730   -9.2060   20.3500 C   0  0  0  0  0  3  0  0  0  0  0  0
  -22.9960  -10.3990   20.1810 C   0  0  0  0  0  3  0  0  0  0  0  0
  -21.9170   -7.1100   21.3890 O   0  0  0  0  0  0  0  0  0  0  0  0
  -21.7690   -6.4240   22.5680 C   0  0  0  0  0  0  0  0  0  0  0  0
  -21.1590   -7.0080   23.6990 C   0  0  0  0  0  3  0  0  0  0  0  0
  -20.9640   -6.2430   24.8670 C   0  0  0  0  0  3  0  0  0  0  0  0
  -21.3670   -4.8960   24.9040 C   0  0  0  0  0  0  0  0  0  0  0  0
  -21.9700   -4.3110   23.7760 C   0  0  0  0  0  3  0  0  0  0  0  0
  -22.1670   -5.0710   22.6100 C   0  0  0  0  0  0  0  0  0  0  0  0
  -22.7290   -4.4970   21.5190 F   0  0  0  0  0  0  0  0  0  0  0  0
  -21.1730   -4.1590   26.0220 F   0  0  0  0  0  0  0  0  0  0  0  0
  -22.9950  -13.7580   21.2370 C   0  0  0  0  0  0  0  0  0  0  0  0
  -22.2990  -13.0320   22.1030 N   0  0  0  0  0  0  0  0  0  0  0  0
  -22.5400  -14.8020   20.7710 O   0  0  0  0  0  0  0  0  0  0  0  0
  -22.6810  -12.1870   22.5020 H   0  0  0  0  0  0  0  0  0  0  0  0
  -21.3710  -13.3250   22.3750 H   0  0  0  0  0  0  0  0  0  0  0  0
  -25.5840  -15.4540   20.3670 N   0  0  0  0  0  0  0  0  0  0  0  0
  -24.8210  -16.1010   20.5330 H   0  0  0  0  0  0  0  0  0  0  0  0
  -26.4160  -15.9100   20.0150 H   0  0  0  0  0  0  0  0  0  0  0  0
  -33.5470  -19.6050   19.1800 N   0  0  0  0  0  0  0  0  0  0  0  0
  -33.8000  -20.5070   18.7880 H   0  0  0  0  0  0  0  0  0  0  0  0
  -34.1320  -18.8460   18.8420 H   0  0  0  0  0  0  0  0  0  0  0  0
  -27.8940  -21.0230   22.1130 O   0  0  0  0  0  0  0  0  0  0  0  0
  -27.2420  -21.4540   22.6560 H   0  0  0  0  0  0  0  0  0  0  0  0
  -28.5060  -25.3110   19.3020 C   0  0  0  0  0  2  0  0  0  0  0  0
  -28.3740  -26.5970   20.0820 O   0  0  0  0  0  0  0  0  0  0  0  0
  -24.5890  -31.9690   23.1830 C   0  0  0  0  0  0  0  0  0  0  0  0
  -27.2520  -27.4650   20.0120 C   0  0  0  0  0  0  0  0  0  0  0  0
  -23.4000  -30.5790   21.5270 C   0  0  0  0  0  3  0  0  0  0  0  0
  -24.8660  -29.0830   20.0520 C   0  0  0  0  0  0  0  0  0  0  0  0
  -25.9370  -30.9330   21.3340 C   0  0  0  0  0  2  0  0  0  0  0  0
  -26.0340  -29.5650   20.6530 C   0  0  0  0  0  0  0  0  0  0  0  0
  -27.2250  -28.7680   20.6250 C   0  0  0  0  0  3  0  0  0  0  0  0
  -26.0490  -27.0480   19.3970 C   0  0  0  0  0  3  0  0  0  0  0  0
  -24.8800  -27.8330   19.4170 C   0  0  0  0  0  3  0  0  0  0  0  0
  -23.6160  -29.9370   20.1310 C   0  0  0  0  0  2  0  0  0  0  0  0
  -24.6610  -31.1800   22.0700 N   0  0  0  0  0  0  0  0  0  0  0  0
  -23.5030  -32.2160   23.7300 O   0  0  0  0  0  0  0  0  0  0  0  0
  -22.7630  -29.5320   22.4730 C   0  0  0  0  0  0  0  0  0  0  0  0
  -21.4390  -29.3360   22.3600 N   0  0  0  0  0  0  0  0  0  0  0  0
  -23.4620  -28.9000   23.2710 O   0  0  0  0  0  0  0  0  0  0  0  0
  -20.9330  -29.8980   21.6890 H   0  0  0  0  0  0  0  0  0  0  0  0
  -18.0840  -28.0830   22.8920 C   0  0  0  0  0  0  0  0  0  0  0  0
  -20.6450  -28.3680   23.1200 C   0  0  0  0  0  3  0  0  0  0  0  0
  -20.7520  -26.9540   22.5050 C   0  0  0  0  0  2  0  0  0  0  0  0
  -19.6350  -26.6440   21.5030 C   0  0  0  0  0  2  0  0  0  0  0  0
  -18.2640  -26.7550   22.1760 C   0  0  0  0  0  2  0  0  0  0  0  0
  -19.2020  -28.8490   23.3200 C   0  0  0  0  0  0  0  0  0  0  0  0
  -18.9790  -30.0920   23.9510 C   0  0  0  0  0  3  0  0  0  0  0  0
  -17.6710  -30.5700   24.1570 C   0  0  0  0  0  3  0  0  0  0  0  0
  -16.5690  -29.8030   23.7440 C   0  0  0  0  0  3  0  0  0  0  0  0
  -16.7760  -28.5620   23.1170 C   0  0  0  0  0  3  0  0  0  0  0  0
  -25.8610  -32.6180   23.8060 C   0  0  0  0  0  3  0  0  0  0  0  0
  -26.3850  -31.8530   25.0850 C   0  0  1  0  0  0  0  0  0  0  0  0
  -25.2900  -31.5940   26.1470 C   0  0  0  0  0  1  0  0  0  0  0  0
  -26.9950  -30.4870   24.6960 C   0  0  0  0  0  1  0  0  0  0  0  0
  -27.5160  -32.6670   25.7550 C   0  0  0  0  0  1  0  0  0  0  0  0
  -25.5320  -34.0120   24.1410 N   0  0  0  0  0  0  0  0  0  0  0  0
  -25.8500  -35.0730   23.3870 C   0  0  0  0  0  0  0  0  0  0  0  0
  -26.5180  -34.9820   22.3530 O   0  0  0  0  0  0  0  0  0  0  0  0
  -24.9360  -34.1550   24.9430 H   0  0  0  0  0  0  0  0  0  0  0  0
  -24.1110  -36.8570   23.0290 C   0  0  0  0  0  1  0  0  0  0  0  0
  -25.3450  -36.4540   23.8510 C   0  0  0  0  0  3  0  0  0  0  0  0
  -27.4550  -37.3540   24.7280 C   0  0  0  0  0  1  0  0  0  0  0  0
  -26.3700  -37.5160   23.7630 N   0  0  0  0  0  0  0  0  0  0  0  0
  -25.9530  -38.4320   23.9040 H   0  0  0  0  0  0  0  0  0  0  0  0
  1  4  2  0
  2  3  2  0
  2  5  1  0
  3  1  1  0
  4 54  1  0
  5  4  1  0
  6  8  1  0
  7 10  2  0
  8  5  1  0
  8 11  2  0
  9  6  2  0
  9  7  1  0
 10 11  1  0
 10 21  1  0
 11 12  1  0
 13 21  1  0
 14 19  1  0
 15 16  1  0
 15 14  1  0
 17 16  1  0
 17 26  1  0
 17 18  1  0
 19 13  1  0
 19 18  1  0
 20 13  2  0
 21 22  1  0
 23 24  2  0
 24 43  1  0
 25 24  1  0
 25 28  1  0
 26 27  1  0
 26 23  1  0
 27 25  2  0
 28 29  1  0
 29 30  2  0
 31 34  1  0
 31 30  1  0
 32 31  2  0
 33 32  1  0
 33 28  2  0
 34 35  1  0
 35 40  2  0
 35 36  1  0
 36 37  2  0
 37 38  1  0
 38 42  1  0
 39 38  2  0
 40 39  1  0
 41 40  1  0
 43 44  1  0
 44 47  1  0
 44 46  1  0
 45 43  2  0
 48 23  1  0
 48 49  1  0
 50 48  1  0
 51  9  1  0
 52 51  1  0
 53 51  1  0
 54 55  1  0
 56  3  1  0
 56 57  1  0
 58 69  2  0
 59 57  1  0
 59 64  1  0
 60 68  1  0
 60 70  1  0
 61 67  1  0
 61 63  1  0
 62 68  1  0
 63 62  1  0
 64 63  2  0
 65 66  1  0
 65 59  2  0
 66 61  2  0
 67 60  1  0
 68 58  1  0
 70 72  2  0
 71 70  1  0
 73 71  1  0
 74 83  2  0
 74 79  1  0
 75 71  1  0
 75 79  1  0
 76 75  1  0
 77 78  1  0
 77 76  1  0
 78 74  1  0
 79 80  2  0
 80 81  1  0
 82 81  2  0
 83 82  1  0
 84 58  1  0
 84 89  1  0
 84 85  1  0
 85 88  1  1
 85 86  1  0
 87 85  1  0
 89 92  1  0
 90 94  1  0
 90 89  1  0
 91 90  2  0
 94 93  1  0
 96 94  1  0
 96 97  1  0
 96 95  1  0
M  ISO  4  13 100  21 100  56 101  57 101
M  END
>  <TORSDO>  (11) 
F 20

>  <SCORE>  (11) 
-14.005

>  <name>  (11) 
11

>  <ligand_id>  (11) 
11

>  <original_smiles>  (11) 
[H]Oc1c([H])c(C([H])([H])Oc2c([H])c([H])c3c(c2[H])C([H])([H])N(C(=O)C([H])(N([H])C(=O)C([H])(N([H])C([H])([H])[H])C([H])([H])[H])C(C([H])([H])[H])(C([H])([H])[H])C([H])([H])[H])C([H])(C(=O)N([H])C2([H])c4c([H])c([H])c([H])c([H])c4C([H])([H])C([H])([H])C2([H])[H])C3([H])[H])c([H])n1-c1c([H])c(N([H])[H])c([H])c(N([H])C(=O)N2C([H])([H])C([H])([H])C([H])([H])C([H])(n3nc(-c4c([H])c([H])c(Oc5c([H])c([H])c(F)c([H])c5F)c([H])c4[H])c(C(=O)N([H])[H])c3N([H])[H])C2([H])[H])c1F

>  <smiles>  (11) 
[H]Oc1c([H])c(C([H])([H])Oc2c([H])c([H])c3c(c2[H])C([H])([H])N(C(=O)C([H])(N([H])C(=O)C([H])(N([H])C([H])([H])[H])C([H])([H])[H])C(C([H])([H])[H])(C([H])([H])[H])C([H])([H])[H])C([H])(C(=O)N([H])C2([H])c4c([H])c([H])c([H])c([H])c4C([H])([H])C([H])([H])C2([H])[H])C3([H])[H])c([H])n1-c1c([H])c(N([H])[H])c([H])c(N([H])C(=O)N2C([H])([H])C([H])([H])C([H])([H])C([H])(n3nc(-c4c([H])c([H])c(Oc5c([H])c([H])c(F)c([H])c5F)c([H])c4[H])c(C(=O)N([H])[H])c3N([H])[H])C2([H])[H])c1F

$$$$
12:0:0
     RDKit          3D

 92100  0  0  1  0  0  0  0  0999 V2000
  -30.0470  -21.3010   20.5610 C   0  0  0  0  0  0  0  0  0  0  0  0
  -29.0320  -21.9640   21.1500 N   0  0  0  0  0  0  0  0  0  0  0  0
  -30.9640  -21.8920   19.9840 O   0  0  0  0  0  0  0  0  0  0  0  0
  -28.3030  -21.3940   21.5540 H   0  0  0  0  0  0  0  0  0  0  0  0
  -30.6560  -19.0260   19.5920 C   0  0  0  0  0  3  0  0  0  0  0  0
  -29.4450  -19.0760   21.6920 C   0  0  0  0  0  3  0  0  0  0  0  0
  -30.6960  -17.6100   19.6470 C   0  0  0  0  0  3  0  0  0  0  0  0
  -29.4740  -17.6630   21.7400 C   0  0  0  0  0  3  0  0  0  0  0  0
  -30.0230  -19.7850   20.6100 C   0  0  0  0  0  0  0  0  0  0  0  0
  -30.1040  -16.9060   20.7230 C   0  0  0  0  0  0  0  0  0  0  0  0
  -30.7210  -14.5260   20.1230 C   0  0  0  0  0  0  0  0  0  0  0  0
  -30.4050  -12.3940   18.9200 C   0  0  0  0  0  2  0  0  0  0  0  0
  -29.3930  -12.6230   17.7740 C   0  0  0  0  0  2  0  0  0  0  0  0
  -27.9430  -12.4670   18.2780 C   0  0  0  0  0  2  0  0  0  0  0  0
  -27.6740  -13.2550   19.5880 C   0  0  0  0  0  3  0  0  0  0  0  0
  -28.7850  -12.9930   20.6280 C   0  0  0  0  0  2  0  0  0  0  0  0
  -30.0760  -13.3310   20.0080 N   0  0  0  0  0  0  0  0  0  0  0  0
  -31.8070  -14.7480   19.5840 O   0  0  0  0  0  0  0  0  0  0  0  0
  -30.0450  -15.4730   20.8120 N   0  0  0  0  0  0  0  0  0  0  0  0
  -29.2740  -15.1090   21.3450 H   0  0  0  0  0  0  0  0  0  0  0  0
  -25.3120  -13.8460   20.4290 C   0  0  0  0  0  0  0  0  0  0  0  0
  -24.2610  -13.0680   20.8370 C   0  0  0  0  0  0  0  0  0  0  0  0
  -24.7200  -11.7160   20.7500 C   0  0  0  0  0  0  0  0  0  0  0  0
  -26.3450  -12.9710   20.1250 N   0  0  0  0  0  0  0  0  0  0  0  0
  -25.9950  -11.6830   20.3800 N   0  0  0  0  0  0  0  0  0  0  0  0
  -24.0060  -10.4520   20.9550 C   0  0  0  0  0  0  0  0  0  0  0  0
  -24.4560   -9.4900   21.8870 C   0  0  0  0  0  3  0  0  0  0  0  0
  -23.7430   -8.2890   22.0780 C   0  0  0  0  0  3  0  0  0  0  0  0
  -22.5660   -8.0370   21.3330 C   0  0  0  0  0  0  0  0  0  0  0  0
  -22.1330   -8.9860   20.3910 C   0  0  0  0  0  3  0  0  0  0  0  0
  -22.8470  -10.1820   20.1990 C   0  0  0  0  0  3  0  0  0  0  0  0
  -21.8220   -6.8870   21.4310 O   0  0  0  0  0  0  0  0  0  0  0  0
  -21.7410   -6.1750   22.6010 C   0  0  0  0  0  0  0  0  0  0  0  0
  -21.2690   -6.7610   23.7940 C   0  0  0  0  0  3  0  0  0  0  0  0
  -21.1350   -5.9790   24.9570 C   0  0  0  0  0  3  0  0  0  0  0  0
  -21.4680   -4.6120   24.9300 C   0  0  0  0  0  0  0  0  0  0  0  0
  -21.9320   -4.0240   23.7400 C   0  0  0  0  0  3  0  0  0  0  0  0
  -22.0690   -4.8040   22.5780 C   0  0  0  0  0  0  0  0  0  0  0  0
  -22.4970   -4.2270   21.4290 F   0  0  0  0  0  0  0  0  0  0  0  0
  -21.3340   -3.8570   26.0470 F   0  0  0  0  0  0  0  0  0  0  0  0
  -22.8820  -13.5390   21.1880 C   0  0  0  0  0  0  0  0  0  0  0  0
  -22.1990  -12.8290   22.0780 N   0  0  0  0  0  0  0  0  0  0  0  0
  -22.4170  -14.5730   20.7100 O   0  0  0  0  0  0  0  0  0  0  0  0
  -22.5880  -11.9940   22.4910 H   0  0  0  0  0  0  0  0  0  0  0  0
  -21.2740  -13.1280   22.3490 H   0  0  0  0  0  0  0  0  0  0  0  0
  -25.4650  -15.2230   20.2790 N   0  0  0  0  0  0  0  0  0  0  0  0
  -24.6990  -15.8680   20.4400 H   0  0  0  0  0  0  0  0  0  0  0  0
  -26.3020  -15.6850   19.9430 H   0  0  0  0  0  0  0  0  0  0  0  0
  -28.9860  -23.4160   21.4360 C   0  0  0  0  0  2  0  0  0  0  0  0
  -27.9460  -24.2220   20.5970 C   0  0  0  0  0  2  0  0  0  0  0  0
  -28.5490  -25.3480   19.7020 C   0  0  0  0  0  2  0  0  0  0  0  0
  -28.4910  -26.6920   20.2320 O   0  0  0  0  0  0  0  0  0  0  0  0
  -24.6490  -31.9030   23.2140 C   0  0  0  0  0  0  0  0  0  0  0  0
  -27.3080  -27.4150   20.1790 C   0  0  0  0  0  0  0  0  0  0  0  0
  -23.4530  -30.4850   21.5830 C   0  0  0  0  0  3  0  0  0  0  0  0
  -24.9090  -28.9370   20.1690 C   0  0  0  0  0  0  0  0  0  0  0  0
  -25.9810  -30.8400   21.3900 C   0  0  0  0  0  2  0  0  0  0  0  0
  -26.0660  -29.4640   20.7570 C   0  0  0  0  0  0  0  0  0  0  0  0
  -27.2650  -28.7110   20.7530 C   0  0  0  0  0  3  0  0  0  0  0  0
  -26.1250  -26.9070   19.5870 C   0  0  0  0  0  3  0  0  0  0  0  0
  -24.9370  -27.6610   19.5800 C   0  0  0  0  0  3  0  0  0  0  0  0
  -23.6590  -29.7840   20.2160 C   0  0  0  0  0  2  0  0  0  0  0  0
  -24.7140  -31.0890   22.1210 N   0  0  0  0  0  0  0  0  0  0  0  0
  -23.5640  -32.1740   23.7480 O   0  0  0  0  0  0  0  0  0  0  0  0
  -22.7970  -29.4740   22.5550 C   0  0  0  0  0  0  0  0  0  0  0  0
  -21.4710  -29.2940   22.4310 N   0  0  0  0  0  0  0  0  0  0  0  0
  -23.4820  -28.8490   23.3720 O   0  0  0  0  0  0  0  0  0  0  0  0
  -20.9730  -29.8530   21.7520 H   0  0  0  0  0  0  0  0  0  0  0  0
  -18.1150  -28.0570   22.9030 C   0  0  0  0  0  0  0  0  0  0  0  0
  -20.6640  -28.3460   23.1930 C   0  0  0  0  0  3  0  0  0  0  0  0
  -20.7930  -26.9160   22.6180 C   0  0  0  0  0  2  0  0  0  0  0  0
  -19.6980  -26.5770   21.6000 C   0  0  0  0  0  2  0  0  0  0  0  0
  -18.3110  -26.7070   22.2320 C   0  0  0  0  0  2  0  0  0  0  0  0
  -19.2210  -28.8330   23.3420 C   0  0  0  0  0  0  0  0  0  0  0  0
  -18.9870  -30.0980   23.9250 C   0  0  0  0  0  3  0  0  0  0  0  0
  -17.6750  -30.5880   24.0640 C   0  0  0  0  0  3  0  0  0  0  0  0
  -16.5800  -29.8140   23.6370 C   0  0  0  0  0  3  0  0  0  0  0  0
  -16.8020  -28.5450   23.0720 C   0  0  0  0  0  3  0  0  0  0  0  0
  -25.9310  -32.5460   23.8300 C   0  0  0  0  0  3  0  0  0  0  0  0
  -26.4560  -31.7830   25.1070 C   0  0  1  0  0  0  0  0  0  0  0  0
  -25.3650  -31.5410   26.1740 C   0  0  0  0  0  1  0  0  0  0  0  0
  -27.0530  -30.4110   24.7180 C   0  0  0  0  0  1  0  0  0  0  0  0
  -27.5960  -32.5920   25.7680 C   0  0  0  0  0  1  0  0  0  0  0  0
  -25.6120  -33.9420   24.1520 N   0  0  0  0  0  0  0  0  0  0  0  0
  -25.9380  -34.9940   23.3900 C   0  0  0  0  0  0  0  0  0  0  0  0
  -26.6080  -34.8930   22.3590 O   0  0  0  0  0  0  0  0  0  0  0  0
  -25.0200  -34.0950   24.9550 H   0  0  0  0  0  0  0  0  0  0  0  0
  -24.1960  -36.7720   23.0280 C   0  0  0  0  0  1  0  0  0  0  0  0
  -25.4380  -36.3790   23.8430 C   0  0  0  0  0  3  0  0  0  0  0  0
  -27.5640  -37.2840   24.6740 C   0  0  0  0  0  1  0  0  0  0  0  0
  -26.4630  -37.4380   23.7270 N   0  0  0  0  0  0  0  0  0  0  0  0
  -26.0500  -38.3570   23.8650 H   0  0  0  0  0  0  0  0  0  0  0  0
  1  9  1  0
  1  2  1  0
  2 49  1  0
  2  4  1  0
  3  1  2  0
  5  7  2  0
  5  9  1  0
  6  8  1  0
  7 10  1  0
  9  6  2  0
 10 19  1  0
 10  8  2  0
 11 19  1  0
 12 17  1  0
 13 14  1  0
 13 12  1  0
 15 14  1  0
 15 24  1  0
 15 16  1  0
 17 11  1  0
 17 16  1  0
 18 11  2  0
 19 20  1  0
 21 22  2  0
 22 41  1  0
 23 22  1  0
 23 26  1  0
 24 25  1  0
 24 21  1  0
 25 23  2  0
 26 27  1  0
 27 28  2  0
 29 32  1  0
 29 28  1  0
 30 29  2  0
 31 30  1  0
 31 26  2  0
 32 33  1  0
 33 34  1  0
 34 35  2  0
 36 35  1  0
 36 40  1  0
 37 36  2  0
 38 33  2  0
 38 37  1  0
 39 38  1  0
 41 42  1  0
 42 45  1  0
 42 44  1  0
 43 41  2  0
 46 21  1  0
 46 47  1  0
 48 46  1  0
 50 49  1  0
 51 52  1  0
 51 50  1  0
 53 64  2  0
 54 52  1  0
 54 59  1  0
 55 63  1  0
 55 65  1  0
 56 62  1  0
 56 58  1  0
 57 63  1  0
 58 57  1  0
 59 58  2  0
 60 54  2  0
 61 60  1  0
 61 56  2  0
 62 55  1  0
 63 53  1  0
 65 67  2  0
 66 65  1  0
 68 66  1  0
 69 78  2  0
 69 74  1  0
 70 66  1  0
 70 74  1  0
 71 70  1  0
 72 73  1  0
 72 71  1  0
 73 69  1  0
 74 75  2  0
 75 76  1  0
 77 76  2  0
 78 77  1  0
 79 53  1  0
 79 84  1  0
 79 80  1  0
 80 83  1  1
 80 81  1  0
 82 80  1  0
 84 87  1  0
 85 89  1  0
 85 84  1  0
 86 85  2  0
 89 88  1  0
 91 89  1  0
 91 92  1  0
 91 90  1  0
M  ISO  4  11 100  19 100  51 101  52 101
M  END
>  <TORSDO>  (12) 
F 20

>  <SCORE>  (12) 
-12.700

>  <name>  (12) 
12

>  <ligand_id>  (12) 
12

>  <original_smiles>  (12) 
[H]c1c([H])c([H])c2c(c1[H])C([H])([H])C([H])([H])C([H])([H])C2([H])N([H])C(=O)C1([H])N(C(=O)C([H])(N([H])C(=O)C([H])(N([H])C([H])([H])[H])C([H])([H])[H])C(C([H])([H])[H])(C([H])([H])[H])C([H])([H])[H])C([H])([H])c2c([H])c(OC([H])([H])C([H])([H])C([H])([H])N([H])C(=O)c3c([H])c([H])c(N([H])C(=O)N4C([H])([H])C([H])([H])C([H])([H])C([H])(n5nc(-c6c([H])c([H])c(Oc7c([H])c([H])c(F)c([H])c7F)c([H])c6[H])c(C(=O)N([H])[H])c5N([H])[H])C4([H])[H])c([H])c3[H])c([H])c([H])c2C1([H])[H]

>  <smiles>  (12) 
[H]c1c([H])c([H])c2c(c1[H])C([H])([H])C([H])([H])C([H])([H])C2([H])N([H])C(=O)C1([H])N(C(=O)C([H])(N([H])C(=O)C([H])(N([H])C([H])([H])[H])C([H])([H])[H])C(C([H])([H])[H])(C([H])([H])[H])C([H])([H])[H])C([H])([H])c2c([H])c(OC([H])([H])C([H])([H])C([H])([H])N([H])C(=O)c3c([H])c([H])c(N([H])C(=O)N4C([H])([H])C([H])([H])C([H])([H])C([H])(n5nc(-c6c([H])c([H])c(Oc7c([H])c([H])c(F)c([H])c7F)c([H])c6[H])c(C(=O)N([H])[H])c5N([H])[H])C4([H])[H])c([H])c3[H])c([H])c([H])c2C1([H])[H]

$$$$
13:0:0
     RDKit          3D

 96104  0  0  1  0  0  0  0  0999 V2000
  -29.6460  -18.6840   21.1570 C   0  0  0  0  0  3  0  0  0  0  0  0
  -29.7790  -20.0480   21.5220 C   0  0  0  0  0  3  0  0  0  0  0  0
  -30.9370  -19.1150   19.1410 C   0  0  0  0  0  3  0  0  0  0  0  0
  -30.2180  -18.2080   19.9540 C   0  0  0  0  0  0  0  0  0  0  0  0
  -30.4950  -20.9480   20.6960 C   0  0  0  0  0  0  0  0  0  0  0  0
  -31.0740  -20.4700   19.5010 C   0  0  0  0  0  0  0  0  0  0  0  0
  -31.7490  -21.3520   18.6530 N   0  0  0  0  0  0  0  0  0  0  0  0
  -31.9360  -21.0140   17.7150 H   0  0  0  0  0  0  0  0  0  0  0  0
  -31.3860  -22.2970   18.6290 H   0  0  0  0  0  0  0  0  0  0  0  0
  -28.7130  -16.8070   18.5350 C   0  0  0  0  0  1  0  0  0  0  0  0
  -29.9800  -16.7970   19.4060 C   0  0  0  0  0  3  0  0  0  0  0  0
  -30.6860  -14.5820   20.2350 C   0  0  0  0  0  0  0  0  0  0  0  0
  -30.3500  -12.4100   19.1540 C   0  0  0  0  0  2  0  0  0  0  0  0
  -29.3760  -12.6400   17.9780 C   0  0  0  0  0  2  0  0  0  0  0  0
  -27.9130  -12.5140   18.4490 C   0  0  0  0  0  2  0  0  0  0  0  0
  -27.6170  -13.3180   19.7440 C   0  0  0  0  0  3  0  0  0  0  0  0
  -28.7160  -13.1070   20.8130 C   0  0  0  0  0  2  0  0  0  0  0  0
  -30.0190  -13.3960   20.1930 N   0  0  0  0  0  0  0  0  0  0  0  0
  -31.8490  -14.7070   19.8470 O   0  0  0  0  0  0  0  0  0  0  0  0
  -29.8990  -15.6710   20.3610 N   0  0  0  0  0  0  0  0  0  0  0  0
  -28.9900  -15.5010   20.7620 H   0  0  0  0  0  0  0  0  0  0  0  0
  -25.2410  -13.9000   20.5390 C   0  0  0  0  0  0  0  0  0  0  0  0
  -24.1910  -13.1140   20.9310 C   0  0  0  0  0  0  0  0  0  0  0  0
  -24.6570  -11.7660   20.8640 C   0  0  0  0  0  0  0  0  0  0  0  0
  -26.2840  -13.0270   20.2630 N   0  0  0  0  0  0  0  0  0  0  0  0
  -25.9370  -11.7390   20.5140 N   0  0  0  0  0  0  0  0  0  0  0  0
  -23.9450  -10.4960   21.0560 C   0  0  0  0  0  0  0  0  0  0  0  0
  -24.3970   -9.5280   21.9800 C   0  0  0  0  0  3  0  0  0  0  0  0
  -23.6850   -8.3230   22.1610 C   0  0  0  0  0  3  0  0  0  0  0  0
  -22.5060   -8.0780   21.4180 C   0  0  0  0  0  0  0  0  0  0  0  0
  -22.0730   -9.0350   20.4850 C   0  0  0  0  0  3  0  0  0  0  0  0
  -22.7860  -10.2310   20.3010 C   0  0  0  0  0  3  0  0  0  0  0  0
  -21.7620   -6.9270   21.5110 O   0  0  0  0  0  0  0  0  0  0  0  0
  -21.7160   -6.1890   22.6670 C   0  0  0  0  0  0  0  0  0  0  0  0
  -21.2520   -6.7390   23.8820 C   0  0  0  0  0  3  0  0  0  0  0  0
  -21.1560   -5.9290   25.0300 C   0  0  0  0  0  3  0  0  0  0  0  0
  -21.5150   -4.5680   24.9650 C   0  0  0  0  0  0  0  0  0  0  0  0
  -21.9720   -4.0170   23.7540 C   0  0  0  0  0  3  0  0  0  0  0  0
  -22.0700   -4.8260   22.6090 C   0  0  0  0  0  0  0  0  0  0  0  0
  -22.4910   -4.2860   21.4400 F   0  0  0  0  0  0  0  0  0  0  0  0
  -21.4160   -3.7870   26.0650 F   0  0  0  0  0  0  0  0  0  0  0  0
  -22.8000  -13.5780   21.2560 C   0  0  0  0  0  0  0  0  0  0  0  0
  -22.1010  -12.8570   22.1270 N   0  0  0  0  0  0  0  0  0  0  0  0
  -22.3410  -14.6120   20.7730 O   0  0  0  0  0  0  0  0  0  0  0  0
  -22.4820  -12.0140   22.5330 H   0  0  0  0  0  0  0  0  0  0  0  0
  -21.1710  -13.1480   22.3910 H   0  0  0  0  0  0  0  0  0  0  0  0
  -25.3930  -15.2740   20.3760 N   0  0  0  0  0  0  0  0  0  0  0  0
  -24.6280  -15.9240   20.5140 H   0  0  0  0  0  0  0  0  0  0  0  0
  -26.2270  -15.7170   20.0130 H   0  0  0  0  0  0  0  0  0  0  0  0
  -30.6810  -22.3010   21.0220 N   0  0  0  0  0  0  0  0  0  0  0  0
  -31.3230  -22.7550   20.3780 H   0  0  0  0  0  0  0  0  0  0  0  0
  -29.4850  -23.1160   21.2670 C   0  0  0  0  0  2  0  0  0  0  0  0
  -29.5970  -24.5480   20.6990 C   0  0  0  0  0  0  0  0  0  0  0  0
  -30.6180  -24.9180   20.1050 O   0  0  0  0  0  0  0  0  0  0  0  0
  -28.3780  -25.4680   20.8910 C   0  0  0  0  0  2  0  0  0  0  0  0
  -28.5590  -26.7700   20.3000 O   0  0  0  0  0  0  0  0  0  0  0  0
  -24.6310  -31.9280   23.2340 C   0  0  0  0  0  0  0  0  0  0  0  0
  -27.3950  -27.5050   20.2450 C   0  0  0  0  0  0  0  0  0  0  0  0
  -23.4770  -30.5020   21.5760 C   0  0  0  0  0  3  0  0  0  0  0  0
  -24.9800  -28.9770   20.1900 C   0  0  0  0  0  0  0  0  0  0  0  0
  -26.0000  -30.8960   21.4250 C   0  0  0  0  0  2  0  0  0  0  0  0
  -26.1190  -29.5240   20.7950 C   0  0  0  0  0  0  0  0  0  0  0  0
  -27.3320  -28.7970   20.8140 C   0  0  0  0  0  3  0  0  0  0  0  0
  -26.2400  -26.9760   19.6240 C   0  0  0  0  0  3  0  0  0  0  0  0
  -25.0360  -27.7030   19.5990 C   0  0  0  0  0  3  0  0  0  0  0  0
  -23.7220  -29.8160   20.2050 C   0  0  0  0  0  2  0  0  0  0  0  0
  -24.7200  -31.1240   22.1370 N   0  0  0  0  0  0  0  0  0  0  0  0
  -23.5350  -32.1880   23.7500 O   0  0  0  0  0  0  0  0  0  0  0  0
  -22.8180  -29.4780   22.5280 C   0  0  0  0  0  0  0  0  0  0  0  0
  -21.4980  -29.2820   22.3770 N   0  0  0  0  0  0  0  0  0  0  0  0
  -23.4930  -28.8620   23.3570 O   0  0  0  0  0  0  0  0  0  0  0  0
  -21.0160  -29.8320   21.6790 H   0  0  0  0  0  0  0  0  0  0  0  0
  -18.1210  -28.0870   22.8420 C   0  0  0  0  0  0  0  0  0  0  0  0
  -20.6750  -28.3400   23.1350 C   0  0  0  0  0  3  0  0  0  0  0  0
  -20.7800  -26.9130   22.5500 C   0  0  0  0  0  2  0  0  0  0  0  0
  -19.6860  -26.5980   21.5250 C   0  0  0  0  0  2  0  0  0  0  0  0
  -18.3000  -26.7420   22.1590 C   0  0  0  0  0  2  0  0  0  0  0  0
  -19.2360  -28.8460   23.2850 C   0  0  0  0  0  0  0  0  0  0  0  0
  -19.0150  -30.1060   23.8820 C   0  0  0  0  0  3  0  0  0  0  0  0
  -17.7110  -30.6080   24.0410 C   0  0  0  0  0  3  0  0  0  0  0  0
  -16.6080  -29.8470   23.6160 C   0  0  0  0  0  3  0  0  0  0  0  0
  -16.8140  -28.5890   23.0220 C   0  0  0  0  0  3  0  0  0  0  0  0
  -25.8960  -32.5760   23.8770 C   0  0  0  0  0  3  0  0  0  0  0  0
  -25.5670  -33.9740   24.1860 N   0  0  0  0  0  0  0  0  0  0  0  0
  -25.9170  -35.0220   23.4290 C   0  0  0  0  0  0  0  0  0  0  0  0
  -26.6190  -34.9140   22.4190 O   0  0  0  0  0  0  0  0  0  0  0  0
  -24.9470  -34.1310   24.9670 H   0  0  0  0  0  0  0  0  0  0  0  0
  -24.2020  -36.8060   22.9830 C   0  0  0  0  0  1  0  0  0  0  0  0
  -25.4030  -36.4100   23.8560 C   0  0  0  0  0  3  0  0  0  0  0  0
  -27.4920  -37.3080   24.7860 C   0  0  0  0  0  1  0  0  0  0  0  0
  -26.4370  -37.4670   23.7870 N   0  0  0  0  0  0  0  0  0  0  0  0
  -26.0220  -38.3860   23.9060 H   0  0  0  0  0  0  0  0  0  0  0  0
  -26.3950  -31.8200   25.1690 C   0  0  1  0  0  0  0  0  0  0  0  0
  -25.2830  -31.5730   26.2150 C   0  0  0  0  0  1  0  0  0  0  0  0
  -27.0060  -30.4490   24.7960 C   0  0  0  0  0  1  0  0  0  0  0  0
  -27.5200  -32.6340   25.8500 C   0  0  0  0  0  1  0  0  0  0  0  0
  1  2  1  0
  3  6  2  0
  3  4  1  0
  4  1  2  0
  5 50  1  0
  5  2  2  0
  6  5  1  0
  7  6  1  0
  8  7  1  0
  9  7  1  0
 11 10  1  0
 11  4  1  0
 11 20  1  0
 12 20  1  0
 13 18  1  0
 14 15  1  0
 14 13  1  0
 16 15  1  0
 16 25  1  0
 16 17  1  0
 18 12  1  0
 18 17  1  0
 19 12  2  0
 20 21  1  0
 22 23  2  0
 23 42  1  0
 24 23  1  0
 24 27  1  0
 25 26  1  0
 25 22  1  0
 26 24  2  0
 27 28  1  0
 28 29  2  0
 30 33  1  0
 30 29  1  0
 31 30  2  0
 32 31  1  0
 32 27  2  0
 33 34  1  0
 34 35  1  0
 35 36  2  0
 37 36  1  0
 37 41  1  0
 38 37  2  0
 39 34  2  0
 39 38  1  0
 40 39  1  0
 42 43  1  0
 43 46  1  0
 43 45  1  0
 44 42  2  0
 47 48  1  0
 47 22  1  0
 49 47  1  0
 50 52  1  0
 51 50  1  0
 53 55  1  0
 53 52  1  0
 54 53  2  0
 56 55  1  0
 57 68  2  0
 58 56  1  0
 58 63  1  0
 59 67  1  0
 59 69  1  0
 60 66  1  0
 60 62  1  0
 61 67  1  0
 62 63  2  0
 62 61  1  0
 64 58  2  0
 65 64  1  0
 65 60  2  0
 66 59  1  0
 67 57  1  0
 69 71  2  0
 70 69  1  0
 72 70  1  0
 73 82  2  0
 73 78  1  0
 74 70  1  0
 74 78  1  0
 75 74  1  0
 76 77  1  0
 76 75  1  0
 77 73  1  0
 78 79  2  0
 79 80  1  0
 81 80  2  0
 82 81  1  0
 83 57  1  0
 83 84  1  0
 83 93  1  0
 84 87  1  0
 85 89  1  0
 85 84  1  0
 86 85  2  0
 89 88  1  0
 91 89  1  0
 91 92  1  0
 91 90  1  0
 93 96  1  1
 93 94  1  0
 95 93  1  0
M  ISO  4  12 100  20 100  55 101  56 101
M  END
>  <TORSDO>  (13) 
F 22

>  <SCORE>  (13) 
-13.063

>  <name>  (13) 
13

>  <ligand_id>  (13) 
13

>  <original_smiles>  (13) 
[H]c1c([H])c([H])c2c(c1[H])C([H])([H])C([H])([H])C([H])([H])C2([H])N([H])C(=O)C1([H])N(C(=O)C([H])(N([H])C(=O)C([H])(N([H])C([H])([H])[H])C([H])([H])[H])C(C([H])([H])[H])(C([H])([H])[H])C([H])([H])[H])C([H])([H])c2c([H])c(OC([H])([H])C(=O)C([H])([H])N([H])c3c([H])c([H])c(C([H])(N([H])C(=O)N4C([H])([H])C([H])([H])C([H])([H])C([H])(n5nc(-c6c([H])c([H])c(Oc7c([H])c([H])c(F)c([H])c7F)c([H])c6[H])c(C(=O)N([H])[H])c5N([H])[H])C4([H])[H])C([H])([H])[H])c([H])c3N([H])[H])c([H])c([H])c2C1([H])[H]

>  <smiles>  (13) 
[H]c1c([H])c([H])c2c(c1[H])C([H])([H])C([H])([H])C([H])([H])C2([H])N([H])C(=O)C1([H])N(C(=O)C([H])(N([H])C(=O)C([H])(N([H])C([H])([H])[H])C([H])([H])[H])C(C([H])([H])[H])(C([H])([H])[H])C([H])([H])[H])C([H])([H])c2c([H])c(OC([H])([H])C(=O)C([H])([H])N([H])c3c([H])c([H])c(C([H])(N([H])C(=O)N4C([H])([H])C([H])([H])C([H])([H])C([H])(n5nc(-c6c([H])c([H])c(Oc7c([H])c([H])c(F)c([H])c7F)c([H])c6[H])c(C(=O)N([H])[H])c5N([H])[H])C4([H])[H])C([H])([H])[H])c([H])c3N([H])[H])c([H])c([H])c2C1([H])[H]

$$$$
14:0:0
     RDKit          3D

 96105  0  0  1  0  0  0  0  0999 V2000
  -27.4210  -22.8700   20.2520 C   0  0  0  0  0  3  0  0  0  0  0  0
  -28.4860  -23.6360   19.6730 C   0  0  0  0  0  0  0  0  0  0  0  0
  -29.4690  -22.6640   19.4050 C   0  0  0  0  0  0  0  0  0  0  0  0
  -27.7260  -21.5200   20.1840 C   0  0  0  0  0  0  0  0  0  0  0  0
  -30.8480  -22.9640   18.8450 C   0  0  0  0  0  1  0  0  0  0  0  0
  -29.0130  -21.3090   19.6610 N   0  0  0  0  0  0  0  0  0  0  0  0
  -31.0510  -18.7360   17.6920 C   0  0  0  0  0  3  0  0  0  0  0  0
  -30.3740  -19.8970   18.1130 C   0  0  0  0  0  3  0  0  0  0  0  0
  -31.0110  -17.5450   18.4480 C   0  0  0  0  0  3  0  0  0  0  0  0
  -29.6610  -19.9730   19.3380 C   0  0  0  0  0  0  0  0  0  0  0  0
  -30.2770  -17.4460   19.6730 C   0  0  0  0  0  0  0  0  0  0  0  0
  -29.6100  -18.7020   20.0920 C   0  0  0  0  0  0  0  0  0  0  0  0
  -28.8860  -18.6750   21.2370 F   0  0  0  0  0  0  0  0  0  0  0  0
  -30.8320  -14.8970   19.9760 C   0  0  0  0  0  0  0  0  0  0  0  0
  -30.4740  -12.6580   18.8890 C   0  0  0  0  0  2  0  0  0  0  0  0
  -29.4600  -12.7010   17.7260 C   0  0  0  0  0  2  0  0  0  0  0  0
  -28.0280  -12.4860   18.2410 C   0  0  0  0  0  2  0  0  0  0  0  0
  -27.7160  -13.3700   19.4810 C   0  0  0  0  0  3  0  0  0  0  0  0
  -28.8450  -13.3480   20.5360 C   0  0  0  0  0  2  0  0  0  0  0  0
  -30.1020  -13.7160   19.8650 N   0  0  0  0  0  0  0  0  0  0  0  0
  -31.9900  -14.8900   19.5460 O   0  0  0  0  0  0  0  0  0  0  0  0
  -30.2780  -16.1180   20.4330 N   0  0  0  0  0  0  0  0  0  0  0  0
  -25.3820  -13.9290   20.3770 C   0  0  0  0  0  0  0  0  0  0  0  0
  -24.3470  -13.1440   20.7930 C   0  0  0  0  0  0  0  0  0  0  0  0
  -24.8130  -11.7940   20.7130 C   0  0  0  0  0  0  0  0  0  0  0  0
  -26.4120  -13.0590   20.0600 N   0  0  0  0  0  0  0  0  0  0  0  0
  -26.0840  -11.7670   20.3240 N   0  0  0  0  0  0  0  0  0  0  0  0
  -24.1000  -10.5250   20.9160 C   0  0  0  0  0  0  0  0  0  0  0  0
  -24.5460   -9.5700   21.8540 C   0  0  0  0  0  3  0  0  0  0  0  0
  -23.8330   -8.3670   22.0450 C   0  0  0  0  0  3  0  0  0  0  0  0
  -22.6540   -8.1160   21.3040 C   0  0  0  0  0  0  0  0  0  0  0  0
  -22.2280   -9.0610   20.3530 C   0  0  0  0  0  3  0  0  0  0  0  0
  -22.9440  -10.2530   20.1590 C   0  0  0  0  0  3  0  0  0  0  0  0
  -21.9060   -6.9690   21.4060 O   0  0  0  0  0  0  0  0  0  0  0  0
  -21.8110   -6.2750   22.5880 C   0  0  0  0  0  0  0  0  0  0  0  0
  -21.3310   -6.8770   23.7710 C   0  0  0  0  0  3  0  0  0  0  0  0
  -21.1810   -6.1080   24.9400 C   0  0  0  0  0  3  0  0  0  0  0  0
  -21.5040   -4.7370   24.9320 C   0  0  0  0  0  0  0  0  0  0  0  0
  -21.9790   -4.1340   23.7550 C   0  0  0  0  0  3  0  0  0  0  0  0
  -22.1280   -4.9000   22.5840 C   0  0  0  0  0  0  0  0  0  0  0  0
  -22.5690   -4.3090   21.4460 F   0  0  0  0  0  0  0  0  0  0  0  0
  -21.3540   -3.9970   26.0550 F   0  0  0  0  0  0  0  0  0  0  0  0
  -22.9670  -13.6180   21.1450 C   0  0  0  0  0  0  0  0  0  0  0  0
  -22.2920  -12.9250   22.0530 N   0  0  0  0  0  0  0  0  0  0  0  0
  -22.5020  -14.6440   20.6530 O   0  0  0  0  0  0  0  0  0  0  0  0
  -22.6880  -12.1040   22.4850 H   0  0  0  0  0  0  0  0  0  0  0  0
  -21.3720  -13.2390   22.3330 H   0  0  0  0  0  0  0  0  0  0  0  0
  -25.5240  -15.3060   20.2220 N   0  0  0  0  0  0  0  0  0  0  0  0
  -24.7370  -15.9310   20.3540 H   0  0  0  0  0  0  0  0  0  0  0  0
  -26.3780  -15.7860   19.9650 H   0  0  0  0  0  0  0  0  0  0  0  0
  -31.2470  -17.0460   22.6220 C   0  0  0  0  0  1  0  0  0  0  0  0
  -30.1480  -16.2000   21.9130 C   0  0  0  0  0  2  0  0  0  0  0  0
  -26.8990  -20.4830   20.4850 O   0  0  0  0  0  0  0  0  0  0  0  0
  -26.0270  -20.8280   20.6650 H   0  0  0  0  0  0  0  0  0  0  0  0
  -28.4410  -25.1970   19.2310 C   0  0  0  0  0  2  0  0  0  0  0  0
  -28.2950  -26.3910   20.1430 O   0  0  0  0  0  0  0  0  0  0  0  0
  -24.6500  -31.8860   23.2160 C   0  0  0  0  0  0  0  0  0  0  0  0
  -27.2030  -27.2940   20.0840 C   0  0  0  0  0  0  0  0  0  0  0  0
  -23.4320  -30.5060   21.5810 C   0  0  0  0  0  3  0  0  0  0  0  0
  -24.8590  -28.9620   20.1170 C   0  0  0  0  0  0  0  0  0  0  0  0
  -25.9750  -30.8030   21.3740 C   0  0  0  0  0  2  0  0  0  0  0  0
  -26.0400  -29.4260   20.7110 C   0  0  0  0  0  0  0  0  0  0  0  0
  -27.2130  -28.5990   20.6890 C   0  0  0  0  0  3  0  0  0  0  0  0
  -25.9900  -26.8990   19.4800 C   0  0  0  0  0  3  0  0  0  0  0  0
  -24.8390  -27.7130   19.4910 C   0  0  0  0  0  3  0  0  0  0  0  0
  -23.6310  -29.8510   20.1890 C   0  0  0  0  0  2  0  0  0  0  0  0
  -24.7060  -31.0860   22.1120 N   0  0  0  0  0  0  0  0  0  0  0  0
  -23.5710  -32.1610   23.7640 O   0  0  0  0  0  0  0  0  0  0  0  0
  -22.7780  -29.4790   22.5370 C   0  0  0  0  0  0  0  0  0  0  0  0
  -21.4500  -29.2910   22.4170 N   0  0  0  0  0  0  0  0  0  0  0  0
  -23.4640  -28.8550   23.3490 O   0  0  0  0  0  0  0  0  0  0  0  0
  -20.9590  -29.8490   21.7330 H   0  0  0  0  0  0  0  0  0  0  0  0
  -18.0850  -28.0470   22.9000 C   0  0  0  0  0  0  0  0  0  0  0  0
  -20.6400  -28.3460   23.1860 C   0  0  0  0  0  3  0  0  0  0  0  0
  -20.7670  -26.9140   22.6160 C   0  0  0  0  0  2  0  0  0  0  0  0
  -19.6750  -26.5700   21.5970 C   0  0  0  0  0  2  0  0  0  0  0  0
  -18.2870  -26.6970   22.2300 C   0  0  0  0  0  2  0  0  0  0  0  0
  -19.1910  -28.8280   23.3340 C   0  0  0  0  0  0  0  0  0  0  0  0
  -18.9470  -30.0890   23.9170 C   0  0  0  0  0  3  0  0  0  0  0  0
  -17.6340  -30.5700   24.0730 C   0  0  0  0  0  3  0  0  0  0  0  0
  -16.5430  -29.7860   23.6570 C   0  0  0  0  0  3  0  0  0  0  0  0
  -16.7710  -28.5280   23.0740 C   0  0  0  0  0  3  0  0  0  0  0  0
  -25.9360  -32.5180   23.8290 C   0  0  0  0  0  3  0  0  0  0  0  0
  -26.4600  -31.7440   25.1020 C   0  0  1  0  0  0  0  0  0  0  0  0
  -25.3770  -31.5080   26.1810 C   0  0  0  0  0  1  0  0  0  0  0  0
  -27.0340  -30.3650   24.7050 C   0  0  0  0  0  1  0  0  0  0  0  0
  -27.6190  -32.5340   25.7540 C   0  0  0  0  0  1  0  0  0  0  0  0
  -25.6300  -33.9180   24.1680 N   0  0  0  0  0  0  0  0  0  0  0  0
  -25.9540  -34.9740   23.4150 C   0  0  0  0  0  0  0  0  0  0  0  0
  -26.6120  -34.8760   22.3750 O   0  0  0  0  0  0  0  0  0  0  0  0
  -25.0390  -34.0640   24.9750 H   0  0  0  0  0  0  0  0  0  0  0  0
  -24.2220  -36.7710   23.0870 C   0  0  0  0  0  1  0  0  0  0  0  0
  -25.4680  -36.3580   23.8860 C   0  0  0  0  0  3  0  0  0  0  0  0
  -27.6190  -37.2300   24.6960 C   0  0  0  0  0  1  0  0  0  0  0  0
  -26.4970  -37.4160   23.7780 N   0  0  0  0  0  0  0  0  0  0  0  0
  -26.0910  -38.3320   23.9560 H   0  0  0  0  0  0  0  0  0  0  0  0
  2  1  1  0
  3  6  1  0
  3  2  2  0
  4  1  2  0
  4 53  1  0
  5  3  1  0
  6  4  1  0
  7  8  2  0
  7  9  1  0
  8 10  1  0
  9 11  2  0
 10  6  1  0
 10 12  2  0
 11 12  1  0
 11 22  1  0
 12 13  1  0
 14 22  1  0
 15 20  1  0
 16 17  1  0
 16 15  1  0
 18 17  1  0
 18 26  1  0
 18 19  1  0
 20 14  1  0
 20 19  1  0
 21 14  2  0
 22 52  1  0
 23 24  2  0
 24 43  1  0
 25 24  1  0
 25 28  1  0
 26 27  1  0
 26 23  1  0
 27 25  2  0
 28 29  1  0
 29 30  2  0
 31 34  1  0
 31 30  1  0
 32 31  2  0
 33 32  1  0
 33 28  2  0
 34 35  1  0
 35 36  1  0
 36 37  2  0
 38 37  1  0
 38 42  1  0
 39 38  2  0
 40 35  2  0
 40 39  1  0
 41 40  1  0
 43 44  1  0
 44 47  1  0
 44 46  1  0
 45 43  2  0
 48 49  1  0
 48 23  1  0
 50 48  1  0
 52 51  1  0
 53 54  1  0
 55  2  1  0
 55 56  1  0
 57 68  2  0
 58 56  1  0
 58 63  1  0
 59 67  1  0
 59 69  1  0
 60 66  1  0
 60 62  1  0
 61 67  1  0
 62 61  1  0
 63 62  2  0
 64 65  1  0
 64 58  2  0
 65 60  2  0
 66 59  1  0
 67 57  1  0
 69 71  2  0
 70 69  1  0
 72 70  1  0
 73 82  2  0
 73 78  1  0
 74 70  1  0
 74 78  1  0
 75 74  1  0
 76 77  1  0
 76 75  1  0
 77 73  1  0
 78 79  2  0
 79 80  1  0
 81 80  2  0
 82 81  1  0
 83 57  1  0
 83 88  1  0
 83 84  1  0
 84 87  1  1
 84 85  1  0
 86 84  1  0
 88 91  1  0
 89 93  1  0
 89 88  1  0
 90 89  2  0
 93 92  1  0
 95 93  1  0
 95 96  1  0
 95 94  1  0
M  ISO  4  14 100  22 100  55 101  56 101
M  END
>  <TORSDO>  (14) 
F 20

>  <SCORE>  (14) 
-13.005

>  <name>  (14) 
14

>  <ligand_id>  (14) 
14

>  <original_smiles>  (14) 
[H]Oc1c([H])c(C([H])([H])Oc2c([H])c([H])c3c(c2[H])C([H])([H])N(C(=O)C([H])(N([H])C(=O)C([H])(N([H])C([H])([H])[H])C([H])([H])[H])C(C([H])([H])[H])(C([H])([H])[H])C([H])([H])[H])C([H])(C(=O)N([H])C2([H])c4c([H])c([H])c([H])c([H])c4C([H])([H])C([H])([H])C2([H])[H])C3([H])[H])c(C([H])([H])[H])n1-c1c([H])c([H])c([H])c(N(C(=O)N2C([H])([H])C([H])([H])C([H])([H])C([H])(n3nc(-c4c([H])c([H])c(Oc5c([H])c([H])c(F)c([H])c5F)c([H])c4[H])c(C(=O)N([H])[H])c3N([H])[H])C2([H])[H])C([H])([H])C([H])([H])[H])c1F

>  <smiles>  (14) 
[H]Oc1c([H])c(C([H])([H])Oc2c([H])c([H])c3c(c2[H])C([H])([H])N(C(=O)C([H])(N([H])C(=O)C([H])(N([H])C([H])([H])[H])C([H])([H])[H])C(C([H])([H])[H])(C([H])([H])[H])C([H])([H])[H])C([H])(C(=O)N([H])C2([H])c4c([H])c([H])c([H])c([H])c4C([H])([H])C([H])([H])C2([H])[H])C3([H])[H])c(C([H])([H])[H])n1-c1c([H])c([H])c([H])c(N(C(=O)N2C([H])([H])C([H])([H])C([H])([H])C([H])(n3nc(-c4c([H])c([H])c(Oc5c([H])c([H])c(F)c([H])c5F)c([H])c4[H])c(C(=O)N([H])[H])c3N([H])[H])C2([H])[H])C([H])([H])C([H])([H])[H])c1F

$$$$
15:0:0
     RDKit          3D

 94103  0  0  1  0  0  0  0  0999 V2000
  -31.3700  -19.1030   20.5180 C   0  0  0  0  0  3  0  0  0  0  0  0
  -29.2670  -17.9750   20.0970 C   0  0  0  0  0  3  0  0  0  0  0  0
  -30.7660  -20.3540   20.2660 C   0  0  0  0  0  3  0  0  0  0  0  0
  -28.6600  -19.2330   19.8380 C   0  0  0  0  0  3  0  0  0  0  0  0
  -30.6310  -17.8990   20.4620 C   0  0  0  0  0  0  0  0  0  0  0  0
  -29.3890  -20.4450   19.9550 C   0  0  0  0  0  0  0  0  0  0  0  0
  -30.8150  -14.4860   19.7160 C   0  0  0  0  0  0  0  0  0  0  0  0
  -30.2340  -12.4320   18.4450 C   0  0  0  0  0  2  0  0  0  0  0  0
  -29.1620  -12.6850   17.3660 C   0  0  0  0  0  2  0  0  0  0  0  0
  -27.7520  -12.5300   17.9610 C   0  0  0  0  0  2  0  0  0  0  0  0
  -27.5790  -13.3380   19.2690 C   0  0  0  0  0  3  0  0  0  0  0  0
  -28.7460  -13.0860   20.2420 C   0  0  0  0  0  2  0  0  0  0  0  0
  -30.0230  -13.3770   19.5620 N   0  0  0  0  0  0  0  0  0  0  0  0
  -31.6820  -14.7610   18.8760 O   0  0  0  0  0  0  0  0  0  0  0  0
  -31.6920  -15.3570   22.9780 C   0  0  0  0  0  2  0  0  0  0  0  0
  -31.6770  -16.7670   22.4330 C   0  0  0  0  0  2  0  0  0  0  0  0
  -30.6020  -14.6800   22.1600 C   0  0  0  0  0  2  0  0  0  0  0  0
  -31.3210  -16.6080   20.9470 C   0  0  0  0  0  3  0  0  0  0  0  0
  -30.6360  -15.2830   20.8130 N   0  0  0  0  0  0  0  0  0  0  0  0
  -25.3200  -13.9590   20.3340 C   0  0  0  0  0  0  0  0  0  0  0  0
  -24.2850  -13.1920   20.7990 C   0  0  0  0  0  0  0  0  0  0  0  0
  -24.6930  -11.8330   20.6270 C   0  0  0  0  0  0  0  0  0  0  0  0
  -26.2920  -13.0670   19.9080 N   0  0  0  0  0  0  0  0  0  0  0  0
  -25.9270  -11.7800   20.1430 N   0  0  0  0  0  0  0  0  0  0  0  0
  -23.9560  -10.5810   20.8400 C   0  0  0  0  0  0  0  0  0  0  0  0
  -24.4180   -9.5950   21.7380 C   0  0  0  0  0  3  0  0  0  0  0  0
  -23.6830   -8.4060   21.9380 C   0  0  0  0  0  3  0  0  0  0  0  0
  -22.4700   -8.1960   21.2390 C   0  0  0  0  0  0  0  0  0  0  0  0
  -22.0250   -9.1710   20.3300 C   0  0  0  0  0  3  0  0  0  0  0  0
  -22.7620  -10.3510   20.1280 C   0  0  0  0  0  3  0  0  0  0  0  0
  -21.7020   -7.0620   21.3500 O   0  0  0  0  0  0  0  0  0  0  0  0
  -21.6230   -6.3590   22.5250 C   0  0  0  0  0  0  0  0  0  0  0  0
  -21.1660   -6.9540   23.7210 C   0  0  0  0  0  3  0  0  0  0  0  0
  -21.0340   -6.1770   24.8890 C   0  0  0  0  0  3  0  0  0  0  0  0
  -21.3470   -4.8040   24.8620 C   0  0  0  0  0  0  0  0  0  0  0  0
  -21.7970   -4.2090   23.6700 C   0  0  0  0  0  3  0  0  0  0  0  0
  -21.9310   -4.9830   22.5040 C   0  0  0  0  0  0  0  0  0  0  0  0
  -22.3450   -4.4000   21.3540 F   0  0  0  0  0  0  0  0  0  0  0  0
  -21.2140   -4.0560   25.9810 F   0  0  0  0  0  0  0  0  0  0  0  0
  -22.9530  -13.6870   21.2840 C   0  0  0  0  0  0  0  0  0  0  0  0
  -22.3320  -12.9680   22.2130 N   0  0  0  0  0  0  0  0  0  0  0  0
  -22.4760  -14.7440   20.8730 O   0  0  0  0  0  0  0  0  0  0  0  0
  -22.7340  -12.1120   22.5650 H   0  0  0  0  0  0  0  0  0  0  0  0
  -21.4440  -13.2810   22.5780 H   0  0  0  0  0  0  0  0  0  0  0  0
  -25.5070  -15.3330   20.2190 N   0  0  0  0  0  0  0  0  0  0  0  0
  -24.7880  -16.0010   20.4720 H   0  0  0  0  0  0  0  0  0  0  0  0
  -26.3240  -15.7670   19.8070 H   0  0  0  0  0  0  0  0  0  0  0  0
  -29.0760  -22.9330   20.1860 C   0  0  0  0  0  0  0  0  0  0  0  0
  -28.7370  -21.7060   19.7140 N   0  0  0  0  0  0  0  0  0  0  0  0
  -29.9860  -23.0960   21.0020 O   0  0  0  0  0  0  0  0  0  0  0  0
  -27.8990  -21.6710   19.1500 H   0  0  0  0  0  0  0  0  0  0  0  0
  -28.2930  -24.1740   19.6740 C   0  0  0  0  0  2  0  0  0  0  0  0
  -28.2060  -25.3720   20.6720 C   0  0  0  0  0  2  0  0  0  0  0  0
  -28.2550  -26.6810   20.0600 O   0  0  0  0  0  0  0  0  0  0  0  0
  -24.5400  -31.9150   23.1980 C   0  0  0  0  0  0  0  0  0  0  0  0
  -27.0930  -27.4250   20.1010 C   0  0  0  0  0  0  0  0  0  0  0  0
  -23.2930  -30.5100   21.5890 C   0  0  0  0  0  3  0  0  0  0  0  0
  -24.7090  -28.9490   20.1480 C   0  0  0  0  0  0  0  0  0  0  0  0
  -25.8170  -30.8500   21.3380 C   0  0  0  0  0  2  0  0  0  0  0  0
  -25.8830  -29.4730   20.7060 C   0  0  0  0  0  0  0  0  0  0  0  0
  -27.0810  -28.7200   20.6710 C   0  0  0  0  0  3  0  0  0  0  0  0
  -25.9040  -26.9140   19.5430 C   0  0  0  0  0  3  0  0  0  0  0  0
  -24.7160  -27.6700   19.5630 C   0  0  0  0  0  3  0  0  0  0  0  0
  -23.4710  -29.8170   20.2120 C   0  0  0  0  0  2  0  0  0  0  0  0
  -24.5690  -31.1070   22.0990 N   0  0  0  0  0  0  0  0  0  0  0  0
  -23.4710  -32.1970   23.7580 O   0  0  0  0  0  0  0  0  0  0  0  0
  -22.6540  -29.5010   22.5710 C   0  0  0  0  0  0  0  0  0  0  0  0
  -21.3330  -29.2990   22.4460 N   0  0  0  0  0  0  0  0  0  0  0  0
  -23.3460  -28.9000   23.3970 O   0  0  0  0  0  0  0  0  0  0  0  0
  -20.8360  -29.8360   21.7490 H   0  0  0  0  0  0  0  0  0  0  0  0
  -17.9780  -28.0530   22.9460 C   0  0  0  0  0  0  0  0  0  0  0  0
  -20.5270  -28.3650   23.2330 C   0  0  0  0  0  3  0  0  0  0  0  0
  -20.6620  -26.9220   22.6920 C   0  0  0  0  0  2  0  0  0  0  0  0
  -19.5750  -26.5540   21.6770 C   0  0  0  0  0  2  0  0  0  0  0  0
  -18.1840  -26.6900   22.3060 C   0  0  0  0  0  2  0  0  0  0  0  0
  -19.0770  -28.8460   23.3660 C   0  0  0  0  0  0  0  0  0  0  0  0
  -18.8310  -30.1200   23.9230 C   0  0  0  0  0  3  0  0  0  0  0  0
  -17.5160  -30.6010   24.0640 C   0  0  0  0  0  3  0  0  0  0  0  0
  -16.4300  -29.8050   23.6620 C   0  0  0  0  0  3  0  0  0  0  0  0
  -16.6610  -28.5340   23.1080 C   0  0  0  0  0  3  0  0  0  0  0  0
  -25.8420  -32.5410   23.7900 C   0  0  0  0  0  3  0  0  0  0  0  0
  -26.4050  -31.7490   25.0320 C   0  0  1  0  0  0  0  0  0  0  0  0
  -25.3390  -31.4490   26.1130 C   0  0  0  0  0  1  0  0  0  0  0  0
  -27.0180  -30.4010   24.5870 C   0  0  0  0  0  1  0  0  0  0  0  0
  -27.5460  -32.5550   25.6960 C   0  0  0  0  0  1  0  0  0  0  0  0
  -25.5380  -33.9320   24.1560 N   0  0  0  0  0  0  0  0  0  0  0  0
  -25.8280  -34.9980   23.3970 C   0  0  0  0  0  0  0  0  0  0  0  0
  -26.4510  -34.9150   22.3360 O   0  0  0  0  0  0  0  0  0  0  0  0
  -24.9820  -34.0700   24.9860 H   0  0  0  0  0  0  0  0  0  0  0  0
  -24.0720  -36.7800   23.1450 C   0  0  0  0  0  1  0  0  0  0  0  0
  -25.3500  -36.3750   23.8960 C   0  0  0  0  0  3  0  0  0  0  0  0
  -27.5100  -37.2670   24.6480 C   0  0  0  0  0  1  0  0  0  0  0  0
  -26.3690  -37.4380   23.7530 N   0  0  0  0  0  0  0  0  0  0  0  0
  -25.9620  -38.3520   23.9290 H   0  0  0  0  0  0  0  0  0  0  0  0
  2  5  2  0
  3  1  2  0
  4  6  2  0
  4  2  1  0
  5  1  1  0
  6  3  1  0
  7 19  1  0
  8 13  1  0
  9 10  1  0
  9  8  1  0
 11 10  1  0
 11 23  1  0
 11 12  1  0
 13  7  1  0
 13 12  1  0
 14  7  2  0
 16 15  1  0
 17 15  1  0
 18  5  1  0
 18 16  1  0
 19 18  1  0
 19 17  1  0
 20 21  2  0
 21 40  1  0
 22 21  1  0
 22 25  1  0
 23 24  1  0
 23 20  1  0
 24 22  2  0
 25 26  1  0
 26 27  2  0
 28 31  1  0
 28 27  1  0
 29 28  2  0
 30 29  1  0
 30 25  2  0
 31 32  1  0
 32 33  1  0
 33 34  2  0
 35 34  1  0
 35 39  1  0
 36 35  2  0
 37 32  2  0
 37 36  1  0
 38 37  1  0
 40 41  1  0
 41 43  1  0
 41 44  1  0
 42 40  2  0
 45 20  1  0
 45 46  1  0
 47 45  1  0
 48 50  2  0
 49  6  1  0
 49 48  1  0
 51 49  1  0
 52 48  1  0
 52 53  1  0
 54 56  1  0
 54 53  1  0
 55 66  2  0
 56 61  1  0
 57 65  1  0
 57 67  1  0
 58 64  1  0
 58 60  1  0
 59 65  1  0
 60 59  1  0
 61 60  2  0
 62 63  1  0
 62 56  2  0
 63 58  2  0
 64 57  1  0
 65 55  1  0
 67 69  2  0
 68 67  1  0
 70 68  1  0
 71 80  2  0
 71 76  1  0
 72 68  1  0
 72 76  1  0
 73 72  1  0
 74 75  1  0
 74 73  1  0
 75 71  1  0
 76 77  2  0
 77 78  1  0
 79 78  2  0
 80 79  1  0
 81 55  1  0
 81 86  1  0
 81 82  1  0
 82 85  1  1
 82 83  1  0
 84 82  1  0
 86 89  1  0
 87 91  1  0
 87 86  1  0
 88 87  2  0
 91 90  1  0
 93 91  1  0
 93 94  1  0
 93 92  1  0
M  ISO  4   7 100  19 100  53 101  54 101
M  END
>  <TORSDO>  (15) 
F 19

>  <SCORE>  (15) 
-9.775

>  <name>  (15) 
15

>  <ligand_id>  (15) 
15

>  <original_smiles>  (15) 
[H]c1c([H])c([H])c2c(c1[H])C([H])([H])C([H])([H])C([H])([H])C2([H])N([H])C(=O)C1([H])N(C(=O)C([H])(N([H])C(=O)C([H])(N([H])C([H])([H])[H])C([H])([H])[H])C(C([H])([H])[H])(C([H])([H])[H])C([H])([H])[H])C([H])([H])c2c([H])c(OC([H])([H])C([H])([H])C(=O)N([H])c3c([H])c([H])c(C4([H])N(C(=O)N5C([H])([H])C([H])([H])C([H])([H])C([H])(n6nc(-c7c([H])c([H])c(Oc8c([H])c([H])c(F)c([H])c8F)c([H])c7[H])c(C(=O)N([H])[H])c6N([H])[H])C5([H])[H])C([H])([H])C([H])([H])C4([H])[H])c([H])c3[H])c([H])c([H])c2C1([H])[H]

>  <smiles>  (15) 
[H]c1c([H])c([H])c2c(c1[H])C([H])([H])C([H])([H])C([H])([H])C2([H])N([H])C(=O)C1([H])N(C(=O)C([H])(N([H])C(=O)C([H])(N([H])C([H])([H])[H])C([H])([H])[H])C(C([H])([H])[H])(C([H])([H])[H])C([H])([H])[H])C([H])([H])c2c([H])c(OC([H])([H])C([H])([H])C(=O)N([H])c3c([H])c([H])c(C4([H])N(C(=O)N5C([H])([H])C([H])([H])C([H])([H])C([H])(n6nc(-c7c([H])c([H])c(Oc8c([H])c([H])c(F)c([H])c8F)c([H])c7[H])c(C(=O)N([H])[H])c6N([H])[H])C5([H])[H])C([H])([H])C([H])([H])C4([H])[H])c([H])c3[H])c([H])c([H])c2C1([H])[H]

$$$$
16:0:0
     RDKit          3D

 94102  0  0  1  0  0  0  0  0999 V2000
  -28.9250  -17.9630   20.5180 C   0  0  0  0  0  3  0  0  0  0  0  0
  -31.2920  -18.0910   20.1690 C   0  0  0  0  0  3  0  0  0  0  0  0
  -30.1740  -17.2840   20.4960 C   0  0  0  0  0  0  0  0  0  0  0  0
  -28.7750  -19.3630   20.2810 C   0  0  0  0  0  0  0  0  0  0  0  0
  -31.1630  -19.4910   19.9340 C   0  0  0  0  0  0  0  0  0  0  0  0
  -29.9200  -20.1830   20.0170 C   0  0  0  0  0  0  0  0  0  0  0  0
  -27.3560  -19.9070   20.3180 C   0  0  0  0  0  1  0  0  0  0  0  0
  -30.2630  -15.8400   21.0000 C   0  0  0  0  0  0  0  0  0  0  0  0
  -29.8740  -15.6350   22.1890 N   0  0  0  0  0  0  0  0  0  0  0  0
  -29.5620  -16.5000   22.6140 H   0  0  0  0  0  0  0  0  0  0  0  0
  -30.8460  -14.6850   20.1070 C   0  0  0  0  0  0  0  0  0  0  0  0
  -30.5240  -12.5000   18.9540 C   0  0  0  0  0  2  0  0  0  0  0  0
  -29.5370  -12.6820   17.7800 C   0  0  0  0  0  2  0  0  0  0  0  0
  -28.0780  -12.5190   18.2530 C   0  0  0  0  0  2  0  0  0  0  0  0
  -27.7810  -13.3370   19.5360 C   0  0  0  0  0  3  0  0  0  0  0  0
  -28.8770  -13.1040   20.5980 C   0  0  0  0  0  2  0  0  0  0  0  0
  -30.1760  -13.4820   20.0080 N   0  0  0  0  0  0  0  0  0  0  0  0
  -31.9080  -14.8700   19.5020 O   0  0  0  0  0  0  0  0  0  0  0  0
  -25.4180  -13.9410   20.3510 C   0  0  0  0  0  0  0  0  0  0  0  0
  -24.3640  -13.1700   20.7580 C   0  0  0  0  0  0  0  0  0  0  0  0
  -24.8180  -11.8170   20.6980 C   0  0  0  0  0  0  0  0  0  0  0  0
  -26.4480  -13.0580   20.0650 N   0  0  0  0  0  0  0  0  0  0  0  0
  -26.0940  -11.7750   20.3320 N   0  0  0  0  0  0  0  0  0  0  0  0
  -24.0950  -10.5570   20.9080 C   0  0  0  0  0  0  0  0  0  0  0  0
  -24.5440   -9.5920   21.8390 C   0  0  0  0  0  3  0  0  0  0  0  0
  -23.8210   -8.3960   22.0360 C   0  0  0  0  0  3  0  0  0  0  0  0
  -22.6350   -8.1530   21.3020 C   0  0  0  0  0  0  0  0  0  0  0  0
  -22.2050   -9.1070   20.3620 C   0  0  0  0  0  3  0  0  0  0  0  0
  -22.9280  -10.2950   20.1620 C   0  0  0  0  0  3  0  0  0  0  0  0
  -21.8820   -7.0090   21.4100 O   0  0  0  0  0  0  0  0  0  0  0  0
  -21.8290   -6.2880   22.5760 C   0  0  0  0  0  0  0  0  0  0  0  0
  -21.3880   -6.8620   23.7880 C   0  0  0  0  0  3  0  0  0  0  0  0
  -21.2820   -6.0660   24.9460 C   0  0  0  0  0  3  0  0  0  0  0  0
  -21.6100   -4.6990   24.8940 C   0  0  0  0  0  0  0  0  0  0  0  0
  -22.0460   -4.1250   23.6870 C   0  0  0  0  0  3  0  0  0  0  0  0
  -22.1540   -4.9170   22.5300 C   0  0  0  0  0  0  0  0  0  0  0  0
  -22.5540   -4.3540   21.3650 F   0  0  0  0  0  0  0  0  0  0  0  0
  -21.5030   -3.9320   26.0050 F   0  0  0  0  0  0  0  0  0  0  0  0
  -22.9820  -13.6510   21.0940 C   0  0  0  0  0  0  0  0  0  0  0  0
  -22.2900  -12.9560   21.9900 N   0  0  0  0  0  0  0  0  0  0  0  0
  -22.5240  -14.6780   20.5940 O   0  0  0  0  0  0  0  0  0  0  0  0
  -22.6720  -12.1240   22.4140 H   0  0  0  0  0  0  0  0  0  0  0  0
  -21.3640  -13.2610   22.2560 H   0  0  0  0  0  0  0  0  0  0  0  0
  -25.5820  -15.3120   20.1740 N   0  0  0  0  0  0  0  0  0  0  0  0
  -24.8290  -15.9740   20.3270 H   0  0  0  0  0  0  0  0  0  0  0  0
  -26.4080  -15.7370   19.7730 H   0  0  0  0  0  0  0  0  0  0  0  0
  -32.3060  -20.2320   19.6360 N   0  0  0  0  0  0  0  0  0  0  0  0
  -33.2250  -19.8580   19.8410 H   0  0  0  0  0  0  0  0  0  0  0  0
  -32.2360  -21.2420   19.7360 H   0  0  0  0  0  0  0  0  0  0  0  0
  -29.9790  -21.5840   19.8060 O   0  0  0  0  0  0  0  0  0  0  0  0
  -28.9260  -22.5410   20.1250 C   0  0  0  0  0  3  0  0  0  0  0  0
  -29.3420  -24.0690   20.0220 C   0  0  0  0  0  3  0  0  0  0  0  0
  -28.1800  -25.1070   20.2660 C   0  0  0  0  0  2  0  0  0  0  0  0
  -28.4210  -26.5540   20.0740 O   0  0  0  0  0  0  0  0  0  0  0  0
  -24.7070  -31.8790   23.2160 C   0  0  0  0  0  0  0  0  0  0  0  0
  -27.2940  -27.3840   20.0670 C   0  0  0  0  0  0  0  0  0  0  0  0
  -23.4810  -30.4880   21.5850 C   0  0  0  0  0  3  0  0  0  0  0  0
  -24.9160  -28.9680   20.1200 C   0  0  0  0  0  0  0  0  0  0  0  0
  -26.0140  -30.8290   21.3620 C   0  0  0  0  0  2  0  0  0  0  0  0
  -26.0910  -29.4610   20.7020 C   0  0  0  0  0  0  0  0  0  0  0  0
  -27.2830  -28.6790   20.6680 C   0  0  0  0  0  3  0  0  0  0  0  0
  -26.0970  -26.9540   19.4470 C   0  0  0  0  0  3  0  0  0  0  0  0
  -24.9200  -27.7210   19.4850 C   0  0  0  0  0  3  0  0  0  0  0  0
  -23.6750  -29.8290   20.1950 C   0  0  0  0  0  2  0  0  0  0  0  0
  -24.7530  -31.0820   22.1110 N   0  0  0  0  0  0  0  0  0  0  0  0
  -23.6310  -32.1460   23.7720 O   0  0  0  0  0  0  0  0  0  0  0  0
  -22.8450  -29.4560   22.5460 C   0  0  0  0  0  0  0  0  0  0  0  0
  -21.5190  -29.2640   22.4320 N   0  0  0  0  0  0  0  0  0  0  0  0
  -23.5390  -28.8340   23.3540 O   0  0  0  0  0  0  0  0  0  0  0  0
  -21.0160  -29.8260   21.7610 H   0  0  0  0  0  0  0  0  0  0  0  0
  -18.1670  -28.0050   22.9280 C   0  0  0  0  0  0  0  0  0  0  0  0
  -20.7180  -28.3120   23.2030 C   0  0  0  0  0  3  0  0  0  0  0  0
  -20.8480  -26.8830   22.6300 C   0  0  0  0  0  2  0  0  0  0  0  0
  -19.7550  -26.5410   21.6130 C   0  0  0  0  0  2  0  0  0  0  0  0
  -18.3700  -26.6570   22.2560 C   0  0  0  0  0  2  0  0  0  0  0  0
  -19.2700  -28.7890   23.3590 C   0  0  0  0  0  0  0  0  0  0  0  0
  -19.0250  -30.0500   23.9430 C   0  0  0  0  0  3  0  0  0  0  0  0
  -17.7110  -30.5260   24.1070 C   0  0  0  0  0  3  0  0  0  0  0  0
  -16.6210  -29.7390   23.6940 C   0  0  0  0  0  3  0  0  0  0  0  0
  -16.8520  -28.4810   23.1090 C   0  0  0  0  0  3  0  0  0  0  0  0
  -25.9990  -32.5100   23.8210 C   0  0  0  0  0  3  0  0  0  0  0  0
  -25.6930  -33.9080   24.1560 N   0  0  0  0  0  0  0  0  0  0  0  0
  -26.0130  -34.9610   23.3920 C   0  0  0  0  0  0  0  0  0  0  0  0
  -26.6690  -34.8580   22.3510 O   0  0  0  0  0  0  0  0  0  0  0  0
  -25.1120  -34.0620   24.9670 H   0  0  0  0  0  0  0  0  0  0  0  0
  -24.2810  -36.7530   23.0540 C   0  0  0  0  0  1  0  0  0  0  0  0
  -25.5290  -36.3480   23.8540 C   0  0  0  0  0  3  0  0  0  0  0  0
  -27.6720  -37.2340   24.6660 C   0  0  0  0  0  1  0  0  0  0  0  0
  -26.5610  -37.4030   23.7330 N   0  0  0  0  0  0  0  0  0  0  0  0
  -26.1550  -38.3230   23.8860 H   0  0  0  0  0  0  0  0  0  0  0  0
  -26.5330  -31.7390   25.0890 C   0  0  1  0  0  0  0  0  0  0  0  0
  -25.4530  -31.5010   26.1700 C   0  0  0  0  0  1  0  0  0  0  0  0
  -27.1120  -30.3620   24.6900 C   0  0  0  0  0  1  0  0  0  0  0  0
  -27.6910  -32.5340   25.7380 C   0  0  0  0  0  1  0  0  0  0  0  0
  2  3  2  0
  3  1  1  0
  3  8  1  0
  4  7  1  0
  4  1  2  0
  5  6  2  0
  5  2  1  0
  6  4  1  0
  8  9  2  0
  9 10  1  0
 11  8  1  0
 12 17  1  0
 13 14  1  0
 13 12  1  0
 15 14  1  0
 15 22  1  0
 15 16  1  0
 17 11  1  0
 17 16  1  0
 18 11  2  0
 19 20  2  0
 20 39  1  0
 21 20  1  0
 21 24  1  0
 22 23  1  0
 22 19  1  0
 23 21  2  0
 24 25  1  0
 25 26  2  0
 27 30  1  0
 27 26  1  0
 28 27  2  0
 29 28  1  0
 29 24  2  0
 30 31  1  0
 31 32  1  0
 32 33  2  0
 34 33  1  0
 34 38  1  0
 35 34  2  0
 36 31  2  0
 36 35  1  0
 37 36  1  0
 39 40  1  0
 40 43  1  0
 40 42  1  0
 41 39  2  0
 44 45  1  0
 44 19  1  0
 46 44  1  0
 47 49  1  0
 47 48  1  0
 47  5  1  0
 50  6  1  0
 50 51  1  0
 52 51  2  0
 52 53  1  0
 54 53  1  0
 55 66  2  0
 56 54  1  0
 56 61  1  0
 57 65  1  0
 57 67  1  0
 58 64  1  0
 58 60  1  0
 59 65  1  0
 60 59  1  0
 61 60  2  0
 62 63  1  0
 62 56  2  0
 63 58  2  0
 64 57  1  0
 65 55  1  0
 67 69  2  0
 68 67  1  0
 70 68  1  0
 71 80  2  0
 71 76  1  0
 72 68  1  0
 72 76  1  0
 73 72  1  0
 74 75  1  0
 74 73  1  0
 75 71  1  0
 76 77  2  0
 77 78  1  0
 79 78  2  0
 80 79  1  0
 81 55  1  0
 81 82  1  0
 81 91  1  0
 82 85  1  0
 83 87  1  0
 83 82  1  0
 84 83  2  0
 87 86  1  0
 89 87  1  0
 89 90  1  0
 89 88  1  0
 91 94  1  1
 91 92  1  0
 93 91  1  0
M  ISO  4   8 100  11 100  53 101  54 101
M  END
>  <TORSDO>  (16) 
F 22

>  <SCORE>  (16) 
-12.588

>  <name>  (16) 
16

>  <ligand_id>  (16) 
16

>  <original_smiles>  (16) 
[H]N=C(C(=O)N1C([H])([H])C([H])([H])C([H])([H])C([H])(n2nc(-c3c([H])c([H])c(Oc4c([H])c([H])c(F)c([H])c4F)c([H])c3[H])c(C(=O)N([H])[H])c2N([H])[H])C1([H])[H])c1c([H])c(N([H])[H])c(OC([H])([H])C([H])([H])C([H])([H])Oc2c([H])c([H])c3c(c2[H])C([H])([H])N(C(=O)C([H])(N([H])C(=O)C([H])(N([H])C([H])([H])[H])C([H])([H])[H])C(C([H])([H])[H])(C([H])([H])[H])C([H])([H])[H])C([H])(C(=O)N([H])C2([H])c4c([H])c([H])c([H])c([H])c4C([H])([H])C([H])([H])C2([H])[H])C3([H])[H])c(C([H])([H])[H])c1[H]

>  <smiles>  (16) 
[H]N=C(C(=O)N1C([H])([H])C([H])([H])C([H])([H])C([H])(n2nc(-c3c([H])c([H])c(Oc4c([H])c([H])c(F)c([H])c4F)c([H])c3[H])c(C(=O)N([H])[H])c2N([H])[H])C1([H])[H])c1c([H])c(N([H])[H])c(OC([H])([H])C([H])([H])C([H])([H])Oc2c([H])c([H])c3c(c2[H])C([H])([H])N(C(=O)C([H])(N([H])C(=O)C([H])(N([H])C([H])([H])[H])C([H])([H])[H])C(C([H])([H])[H])(C([H])([H])[H])C([H])([H])[H])C([H])(C(=O)N([H])C2([H])c4c([H])c([H])c([H])c([H])c4C([H])([H])C([H])([H])C2([H])[H])C3([H])[H])c(C([H])([H])[H])c1[H]

$$$$
17:0:0
     RDKit          3D

 97105  0  0  1  0  0  0  0  0999 V2000
  -30.9980  -18.2650   20.9260 C   0  0  0  0  0  3  0  0  0  0  0  0
  -30.6630  -19.6370   20.7120 C   0  0  0  0  0  3  0  0  0  0  0  0
  -30.6550  -17.7910   18.5990 C   0  0  0  0  0  3  0  0  0  0  0  0
  -30.9760  -17.2790   19.8880 C   0  0  0  0  0  0  0  0  0  0  0  0
  -30.2960  -20.1300   19.4350 C   0  0  0  0  0  0  0  0  0  0  0  0
  -30.3280  -19.1720   18.3780 C   0  0  0  0  0  0  0  0  0  0  0  0
  -31.4800  -14.8850   19.1960 C   0  0  0  0  0  0  0  0  0  0  0  0
  -30.9550  -12.7380   18.0090 C   0  0  0  0  0  2  0  0  0  0  0  0
  -29.7600  -12.9190   17.0430 C   0  0  0  0  0  2  0  0  0  0  0  0
  -28.4170  -12.7250   17.7720 C   0  0  0  0  0  2  0  0  0  0  0  0
  -28.3550  -13.5090   19.1060 C   0  0  0  0  0  3  0  0  0  0  0  0
  -29.6240  -13.2590   19.9390 C   0  0  0  0  0  2  0  0  0  0  0  0
  -30.8030  -13.6750   19.1500 N   0  0  0  0  0  0  0  0  0  0  0  0
  -32.3750  -15.1100   18.3720 O   0  0  0  0  0  0  0  0  0  0  0  0
  -31.2910  -15.4330   21.4760 C   0  0  0  0  0  0  0  0  0  0  0  0
  -31.1840  -15.8280   20.1730 N   0  0  0  0  0  0  0  0  0  0  0  0
  -32.1590  -14.6400   21.8660 O   0  0  0  0  0  0  0  0  0  0  0  0
  -26.2750  -14.0610   20.5140 C   0  0  0  0  0  0  0  0  0  0  0  0
  -25.2740  -13.2750   21.0160 C   0  0  0  0  0  0  0  0  0  0  0  0
  -25.6010  -11.9340   20.6450 C   0  0  0  0  0  0  0  0  0  0  0  0
  -27.1480  -13.1980   19.8670 N   0  0  0  0  0  0  0  0  0  0  0  0
  -26.7630  -11.9030   20.0050 N   0  0  0  0  0  0  0  0  0  0  0  0
  -24.8440  -10.6870   20.8100 C   0  0  0  0  0  0  0  0  0  0  0  0
  -25.3080   -9.6440   21.6420 C   0  0  0  0  0  3  0  0  0  0  0  0
  -24.5520   -8.4620   21.7970 C   0  0  0  0  0  3  0  0  0  0  0  0
  -23.3200   -8.3130   21.1190 C   0  0  0  0  0  0  0  0  0  0  0  0
  -22.8740   -9.3450   20.2740 C   0  0  0  0  0  3  0  0  0  0  0  0
  -23.6290  -10.5190   20.1180 C   0  0  0  0  0  3  0  0  0  0  0  0
  -22.5320   -7.1880   21.1880 O   0  0  0  0  0  0  0  0  0  0  0  0
  -22.3400   -6.5170   22.3690 C   0  0  0  0  0  0  0  0  0  0  0  0
  -21.8030   -7.1530   23.5090 C   0  0  0  0  0  3  0  0  0  0  0  0
  -21.5580   -6.4080   24.6800 C   0  0  0  0  0  3  0  0  0  0  0  0
  -21.8380   -5.0290   24.7090 C   0  0  0  0  0  0  0  0  0  0  0  0
  -22.3660   -4.3940   23.5720 C   0  0  0  0  0  3  0  0  0  0  0  0
  -22.6150   -5.1350   22.4050 C   0  0  0  0  0  0  0  0  0  0  0  0
  -23.1050   -4.5140   21.3040 F   0  0  0  0  0  0  0  0  0  0  0  0
  -21.5930   -4.3110   25.8300 F   0  0  0  0  0  0  0  0  0  0  0  0
  -24.0350  -13.7480   21.7190 C   0  0  0  0  0  0  0  0  0  0  0  0
  -23.5170  -12.9580   22.6520 N   0  0  0  0  0  0  0  0  0  0  0  0
  -23.5430  -14.8490   21.4740 O   0  0  0  0  0  0  0  0  0  0  0  0
  -23.9340  -12.0640   22.8710 H   0  0  0  0  0  0  0  0  0  0  0  0
  -22.6970  -13.2540   23.1590 H   0  0  0  0  0  0  0  0  0  0  0  0
  -26.5040  -15.4330   20.5330 N   0  0  0  0  0  0  0  0  0  0  0  0
  -25.8410  -16.0770   20.9520 H   0  0  0  0  0  0  0  0  0  0  0  0
  -27.2660  -15.9030   20.0610 H   0  0  0  0  0  0  0  0  0  0  0  0
  -30.3680  -15.8140   23.7030 C   0  0  0  0  0  2  0  0  0  0  0  0
  -30.3030  -16.0250   22.3760 C   0  0  0  0  0  3  0  0  0  0  0  0
  -29.5590  -22.5770   19.9330 C   0  0  0  0  0  0  0  0  0  0  0  0
  -29.9900  -21.5400   19.1420 N   0  0  0  0  0  0  0  0  0  0  0  0
  -29.2870  -22.4020   21.1230 O   0  0  0  0  0  0  0  0  0  0  0  0
  -30.0970  -21.7720   18.1640 H   0  0  0  0  0  0  0  0  0  0  0  0
  -29.4180  -24.0430   19.3330 C   0  0  0  0  0  3  0  0  0  0  0  0
  -28.5890  -25.1490   20.1410 C   0  0  0  0  0  3  0  0  0  0  0  0
  -28.7870  -26.5920   19.8470 O   0  0  0  0  0  0  0  0  0  0  0  0
  -25.0570  -31.6820   23.3800 C   0  0  0  0  0  0  0  0  0  0  0  0
  -27.6750  -27.4470   19.9070 C   0  0  0  0  0  0  0  0  0  0  0  0
  -23.8730  -30.4950   21.5660 C   0  0  0  0  0  3  0  0  0  0  0  0
  -25.3340  -29.0830   20.0140 C   0  0  0  0  0  0  0  0  0  0  0  0
  -26.4190  -30.7910   21.4750 C   0  0  0  0  0  2  0  0  0  0  0  0
  -26.4940  -29.4890   20.6850 C   0  0  0  0  0  0  0  0  0  0  0  0
  -27.6720  -28.6850   20.6180 C   0  0  0  0  0  3  0  0  0  0  0  0
  -26.4960  -27.0920   19.2200 C   0  0  0  0  0  3  0  0  0  0  0  0
  -25.3360  -27.8900   19.2730 C   0  0  0  0  0  3  0  0  0  0  0  0
  -24.1110  -29.9720   20.1250 C   0  0  0  0  0  2  0  0  0  0  0  0
  -25.1340  -31.0010   22.1990 N   0  0  0  0  0  0  0  0  0  0  0  0
  -23.9650  -31.9180   23.9180 O   0  0  0  0  0  0  0  0  0  0  0  0
  -23.1690  -29.3920   22.3910 C   0  0  0  0  0  0  0  0  0  0  0  0
  -21.8430  -29.2590   22.2180 N   0  0  0  0  0  0  0  0  0  0  0  0
  -23.8160  -28.6630   23.1470 O   0  0  0  0  0  0  0  0  0  0  0  0
  -21.3800  -29.9020   21.5900 H   0  0  0  0  0  0  0  0  0  0  0  0
  -18.4280  -28.1100   22.5360 C   0  0  0  0  0  0  0  0  0  0  0  0
  -20.9880  -28.2600   22.8630 C   0  0  0  0  0  3  0  0  0  0  0  0
  -21.0580  -26.9070   22.1200 C   0  0  0  0  0  2  0  0  0  0  0  0
  -19.9630  -26.7410   21.0620 C   0  0  0  0  0  2  0  0  0  0  0  0
  -18.5760  -26.8470   21.7050 C   0  0  0  0  0  2  0  0  0  0  0  0
  -19.5610  -28.7820   23.0670 C   0  0  0  0  0  0  0  0  0  0  0  0
  -19.3690  -29.9690   23.8050 C   0  0  0  0  0  3  0  0  0  0  0  0
  -18.0760  -30.4850   24.0160 C   0  0  0  0  0  3  0  0  0  0  0  0
  -16.9570  -29.8080   23.5020 C   0  0  0  0  0  3  0  0  0  0  0  0
  -17.1330  -28.6220   22.7670 C   0  0  0  0  0  3  0  0  0  0  0  0
  -26.3340  -32.2170   24.0990 C   0  0  0  0  0  3  0  0  0  0  0  0
  -26.0290  -33.5630   24.6030 N   0  0  0  0  0  0  0  0  0  0  0  0
  -26.3870  -34.7030   23.9960 C   0  0  0  0  0  0  0  0  0  0  0  0
  -27.0770  -34.7280   22.9740 O   0  0  0  0  0  0  0  0  0  0  0  0
  -25.4150  -33.6180   25.4030 H   0  0  0  0  0  0  0  0  0  0  0  0
  -24.6890  -36.5530   23.8380 C   0  0  0  0  0  1  0  0  0  0  0  0
  -25.9010  -36.0250   24.6210 C   0  0  0  0  0  3  0  0  0  0  0  0
  -28.0270  -36.7530   25.6140 C   0  0  0  0  0  1  0  0  0  0  0  0
  -26.9490  -37.0680   24.6790 N   0  0  0  0  0  0  0  0  0  0  0  0
  -26.5500  -37.9640   24.9460 H   0  0  0  0  0  0  0  0  0  0  0  0
  -26.8220  -31.2830   25.2740 C   0  0  1  0  0  0  0  0  0  0  0  0
  -25.6980  -30.8740   26.2540 C   0  0  0  0  0  1  0  0  0  0  0  0
  -27.4550  -29.9880   24.7150 C   0  0  0  0  0  1  0  0  0  0  0  0
  -27.9280  -31.9980   26.0850 C   0  0  0  0  0  1  0  0  0  0  0  0
  -30.0220  -19.5920   17.0820 N   0  0  0  0  0  0  0  0  0  0  0  0
  -29.8580  -18.8770   16.3810 H   0  0  0  0  0  0  0  0  0  0  0  0
  -29.3860  -20.3740   16.9820 H   0  0  0  0  0  0  0  0  0  0  0  0
  2  1  1  0
  3  4  1  0
  4 16  1  0
  4  1  2  0
  5  2  2  0
  6  3  2  0
  6  5  1  0
  7 16  1  0
  8 13  1  0
  9 10  1  0
  9  8  1  0
 11 10  1  0
 11 21  1  0
 11 12  1  0
 13  7  1  0
 13 12  1  0
 14  7  2  0
 15 17  2  0
 15 47  1  0
 16 15  1  0
 18 43  1  0
 18 19  2  0
 19 38  1  0
 20 23  1  0
 20 19  1  0
 21 22  1  0
 21 18  1  0
 22 20  2  0
 23 24  1  0
 24 25  2  0
 26 29  1  0
 26 25  1  0
 27 26  2  0
 28 27  1  0
 28 23  2  0
 29 30  1  0
 30 35  2  0
 30 31  1  0
 31 32  2  0
 32 33  1  0
 33 37  1  0
 34 33  2  0
 35 34  1  0
 36 35  1  0
 38 39  1  0
 39 41  1  0
 39 42  1  0
 40 38  2  0
 43 44  1  0
 45 43  1  0
 47 46  2  0
 48 50  2  0
 49  5  1  0
 49 48  1  0
 51 49  1  0
 52 48  1  0
 52 53  2  0
 54 56  1  0
 54 53  1  0
 55 66  2  0
 56 61  1  0
 57 65  1  0
 57 67  1  0
 58 64  1  0
 58 60  1  0
 59 65  1  0
 60 59  1  0
 61 60  2  0
 62 63  1  0
 62 56  2  0
 63 58  2  0
 64 57  1  0
 65 55  1  0
 67 69  2  0
 68 67  1  0
 70 68  1  0
 71 80  2  0
 71 76  1  0
 72 68  1  0
 72 76  1  0
 73 72  1  0
 74 75  1  0
 74 73  1  0
 75 71  1  0
 76 77  2  0
 77 78  1  0
 79 78  2  0
 80 79  1  0
 81 55  1  0
 81 82  1  0
 81 91  1  0
 82 85  1  0
 83 82  1  0
 83 87  1  0
 84 83  2  0
 87 86  1  0
 87 89  1  0
 89 90  1  0
 89 88  1  0
 91 94  1  1
 91 92  1  0
 93 91  1  0
 95  6  1  0
 96 95  1  0
 97 95  1  0
M  ISO  4   7 100  16 100  53 101  54 101
M  END
>  <TORSDO>  (17) 
F 21

>  <SCORE>  (17) 
-4.722

>  <name>  (17) 
17

>  <ligand_id>  (17) 
17

>  <original_smiles>  (17) 
[H]C([H])=C([H])C(=O)N(C(=O)N1C([H])([H])C([H])([H])C([H])([H])C([H])(n2nc(-c3c([H])c([H])c(Oc4c([H])c([H])c(F)c([H])c4F)c([H])c3[H])c(C(=O)N([H])[H])c2N([H])[H])C1([H])[H])c1c([H])c([H])c(N([H])C(=O)C([H])([H])C([H])([H])Oc2c([H])c([H])c3c(c2[H])C([H])([H])N(C(=O)C([H])(N([H])C(=O)C([H])(N([H])C([H])([H])[H])C([H])([H])[H])C(C([H])([H])[H])(C([H])([H])[H])C([H])([H])[H])C([H])(C(=O)N([H])C2([H])c4c([H])c([H])c([H])c([H])c4C([H])([H])C([H])([H])C2([H])[H])C3([H])[H])c(N([H])[H])c1[H]

>  <smiles>  (17) 
[H]C([H])=C([H])C(=O)N(C(=O)N1C([H])([H])C([H])([H])C([H])([H])C([H])(n2nc(-c3c([H])c([H])c(Oc4c([H])c([H])c(F)c([H])c4F)c([H])c3[H])c(C(=O)N([H])[H])c2N([H])[H])C1([H])[H])c1c([H])c([H])c(N([H])C(=O)C([H])([H])C([H])([H])Oc2c([H])c([H])c3c(c2[H])C([H])([H])N(C(=O)C([H])(N([H])C(=O)C([H])(N([H])C([H])([H])[H])C([H])([H])[H])C(C([H])([H])[H])(C([H])([H])[H])C([H])([H])[H])C([H])(C(=O)N([H])C2([H])c4c([H])c([H])c([H])c([H])c4C([H])([H])C([H])([H])C2([H])[H])C3([H])[H])c(N([H])[H])c1[H]

$$$$
18:0:0
     RDKit          3D

 96105  0  0  1  0  0  0  0  0999 V2000
  -31.0190  -19.3040   21.0550 C   0  0  0  0  0  3  0  0  0  0  0  0
  -30.8400  -20.7020   20.9370 C   0  0  0  0  0  3  0  0  0  0  0  0
  -28.8440  -18.9160   20.0400 C   0  0  0  0  0  3  0  0  0  0  0  0
  -30.0650  -18.3960   20.5300 C   0  0  0  0  0  0  0  0  0  0  0  0
  -29.7060  -21.2210   20.2800 C   0  0  0  0  0  0  0  0  0  0  0  0
  -28.6750  -20.3200   19.8990 C   0  0  0  0  0  0  0  0  0  0  0  0
  -27.5650  -20.7920   19.2780 F   0  0  0  0  0  0  0  0  0  0  0  0
  -30.7030  -14.5400   20.4260 C   0  0  0  0  0  0  0  0  0  0  0  0
  -30.3210  -12.3580   19.3770 C   0  0  0  0  0  2  0  0  0  0  0  0
  -29.4120  -12.5670   18.1510 C   0  0  0  0  0  2  0  0  0  0  0  0
  -27.9350  -12.4400   18.5620 C   0  0  0  0  0  2  0  0  0  0  0  0
  -27.5890  -13.2850   19.8220 C   0  0  0  0  0  3  0  0  0  0  0  0
  -28.6430  -13.1310   20.9430 C   0  0  0  0  0  2  0  0  0  0  0  0
  -29.9610  -13.3950   20.3610 N   0  0  0  0  0  0  0  0  0  0  0  0
  -31.8810  -14.5490   20.0530 O   0  0  0  0  0  0  0  0  0  0  0  0
  -30.5400  -17.0320   20.1930 C   0  0  0  0  0  0  0  0  0  0  0  0
  -30.0500  -15.8300   20.6430 N   0  0  0  0  0  0  0  0  0  0  0  0
  -31.5600  -17.0900   19.3230 N   0  0  0  0  0  4  0  0  0  0  0  0
  -29.1510  -15.9060   21.0880 H   0  0  0  0  0  0  0  0  0  0  0  0
  -31.8800  -17.9770   18.9650 H   0  0  0  0  0  0  0  0  0  0  0  0
  -32.0700  -16.2410   19.1120 H   0  0  0  0  0  0  0  0  0  0  0  0
  -25.1950  -13.8840   20.5280 C   0  0  0  0  0  0  0  0  0  0  0  0
  -24.1270  -13.1120   20.8940 C   0  0  0  0  0  0  0  0  0  0  0  0
  -24.5880  -11.7600   20.8670 C   0  0  0  0  0  0  0  0  0  0  0  0
  -26.2400  -13.0030   20.3020 N   0  0  0  0  0  0  0  0  0  0  0  0
  -25.8820  -11.7200   20.5690 N   0  0  0  0  0  0  0  0  0  0  0  0
  -23.8600  -10.4990   21.0540 C   0  0  0  0  0  0  0  0  0  0  0  0
  -24.2840   -9.5310   21.9910 C   0  0  0  0  0  3  0  0  0  0  0  0
  -23.5550   -8.3360   22.1650 C   0  0  0  0  0  3  0  0  0  0  0  0
  -22.3860   -8.1020   21.4030 C   0  0  0  0  0  0  0  0  0  0  0  0
  -21.9820   -9.0580   20.4550 C   0  0  0  0  0  3  0  0  0  0  0  0
  -22.7110  -10.2450   20.2780 C   0  0  0  0  0  3  0  0  0  0  0  0
  -21.6270   -6.9600   21.4880 O   0  0  0  0  0  0  0  0  0  0  0  0
  -21.5670   -6.2180   22.6410 C   0  0  0  0  0  0  0  0  0  0  0  0
  -21.1330   -6.7720   23.8640 C   0  0  0  0  0  3  0  0  0  0  0  0
  -21.0240   -5.9570   25.0090 C   0  0  0  0  0  3  0  0  0  0  0  0
  -21.3350   -4.5870   24.9290 C   0  0  0  0  0  0  0  0  0  0  0  0
  -21.7560   -4.0310   23.7090 C   0  0  0  0  0  3  0  0  0  0  0  0
  -21.8700   -4.8430   22.5670 C   0  0  0  0  0  0  0  0  0  0  0  0
  -22.2590   -4.2970   21.3890 F   0  0  0  0  0  0  0  0  0  0  0  0
  -21.2210   -3.7990   26.0250 F   0  0  0  0  0  0  0  0  0  0  0  0
  -22.7290  -13.5940   21.1550 C   0  0  0  0  0  0  0  0  0  0  0  0
  -21.9900  -12.8970   22.0100 N   0  0  0  0  0  0  0  0  0  0  0  0
  -22.2990  -14.6240   20.6370 O   0  0  0  0  0  0  0  0  0  0  0  0
  -22.3460  -12.0620   22.4490 H   0  0  0  0  0  0  0  0  0  0  0  0
  -21.0520  -13.2050   22.2230 H   0  0  0  0  0  0  0  0  0  0  0  0
  -25.3620  -15.2540   20.3410 N   0  0  0  0  0  0  0  0  0  0  0  0
  -24.5850  -15.9010   20.4180 H   0  0  0  0  0  0  0  0  0  0  0  0
  -26.1820  -15.6770   19.9270 H   0  0  0  0  0  0  0  0  0  0  0  0
  -28.7730  -24.5720   19.0860 C   0  0  0  0  0  0  0  0  0  0  0  0
  -28.6070  -25.9130   19.0900 C   0  0  0  0  0  3  0  0  0  0  0  0
  -29.1070  -23.7830   17.8550 C   0  0  0  0  0  2  0  0  0  0  0  0
  -28.8050  -23.5950   20.2490 C   0  0  0  0  0  2  0  0  0  0  0  0
  -29.9960  -22.6580   18.3850 C   0  0  0  0  0  2  0  0  0  0  0  0
  -29.7620  -22.5620   19.8310 N   0  0  0  0  0  0  0  0  0  0  0  0
  -28.3560  -26.6880   20.1930 O   0  0  0  0  0  0  0  0  0  0  0  0
  -24.5610  -31.8980   23.2500 C   0  0  0  0  0  0  0  0  0  0  0  0
  -27.2090  -27.4520   20.1750 C   0  0  0  0  0  0  0  0  0  0  0  0
  -23.3620  -30.4930   21.6050 C   0  0  0  0  0  3  0  0  0  0  0  0
  -24.8180  -28.9620   20.1830 C   0  0  0  0  0  0  0  0  0  0  0  0
  -25.8880  -30.8550   21.4160 C   0  0  0  0  0  2  0  0  0  0  0  0
  -25.9750  -29.4840   20.7740 C   0  0  0  0  0  0  0  0  0  0  0  0
  -27.1750  -28.7330   20.7740 C   0  0  0  0  0  3  0  0  0  0  0  0
  -26.0250  -26.9410   19.5940 C   0  0  0  0  0  3  0  0  0  0  0  0
  -24.8380  -27.6880   19.5900 C   0  0  0  0  0  3  0  0  0  0  0  0
  -23.5740  -29.8160   20.2260 C   0  0  0  0  0  2  0  0  0  0  0  0
  -24.6210  -31.0980   22.1480 N   0  0  0  0  0  0  0  0  0  0  0  0
  -23.4780  -32.1710   23.7870 O   0  0  0  0  0  0  0  0  0  0  0  0
  -22.7120  -29.4680   22.5650 C   0  0  0  0  0  0  0  0  0  0  0  0
  -21.3870  -29.2880   22.4380 N   0  0  0  0  0  0  0  0  0  0  0  0
  -23.3960  -28.8400   23.3780 O   0  0  0  0  0  0  0  0  0  0  0  0
  -20.8970  -29.8520   21.7590 H   0  0  0  0  0  0  0  0  0  0  0  0
  -18.0090  -28.1040   22.9340 C   0  0  0  0  0  0  0  0  0  0  0  0
  -20.5680  -28.3480   23.2040 C   0  0  0  0  0  3  0  0  0  0  0  0
  -20.6610  -26.9200   22.6180 C   0  0  0  0  0  2  0  0  0  0  0  0
  -19.5560  -26.6070   21.6050 C   0  0  0  0  0  2  0  0  0  0  0  0
  -18.1750  -26.7560   22.2520 C   0  0  0  0  0  2  0  0  0  0  0  0
  -19.1320  -28.8580   23.3660 C   0  0  0  0  0  0  0  0  0  0  0  0
  -18.9210  -30.1210   23.9620 C   0  0  0  0  0  3  0  0  0  0  0  0
  -17.6190  -30.6300   24.1300 C   0  0  0  0  0  3  0  0  0  0  0  0
  -16.5110  -29.8710   23.7180 C   0  0  0  0  0  3  0  0  0  0  0  0
  -16.7060  -28.6090   23.1270 C   0  0  0  0  0  3  0  0  0  0  0  0
  -25.8450  -32.5310   23.8720 C   0  0  0  0  0  3  0  0  0  0  0  0
  -25.5360  -33.9310   24.1960 N   0  0  0  0  0  0  0  0  0  0  0  0
  -25.8720  -34.9790   23.4360 C   0  0  0  0  0  0  0  0  0  0  0  0
  -26.5490  -34.8730   22.4100 O   0  0  0  0  0  0  0  0  0  0  0  0
  -24.9410  -34.0880   24.9970 H   0  0  0  0  0  0  0  0  0  0  0  0
  -24.1500  -36.7710   23.0560 C   0  0  0  0  0  1  0  0  0  0  0  0
  -25.3810  -36.3690   23.8850 C   0  0  0  0  0  3  0  0  0  0  0  0
  -27.5070  -37.2510   24.7400 C   0  0  0  0  0  1  0  0  0  0  0  0
  -26.4160  -37.4200   23.7840 N   0  0  0  0  0  0  0  0  0  0  0  0
  -26.0070  -38.3390   23.9290 H   0  0  0  0  0  0  0  0  0  0  0  0
  -26.3600  -31.7640   25.1520 C   0  0  1  0  0  0  0  0  0  0  0  0
  -25.2630  -31.5260   26.2180 C   0  0  0  0  0  1  0  0  0  0  0  0
  -26.9460  -30.3870   24.7610 C   0  0  0  0  0  1  0  0  0  0  0  0
  -27.5080  -32.5600   25.8160 C   0  0  0  0  0  1  0  0  0  0  0  0
  2  1  1  0
  3  4  1  0
  4  1  2  0
  5  2  2  0
  6  3  2  0
  6  5  1  0
  7  6  1  0
  8 17  1  0
  9 14  1  0
 10 11  1  0
 10  9  1  0
 12 11  1  0
 12 25  1  0
 12 13  1  0
 14  8  1  0
 14 13  1  0
 15  8  2  0
 16  4  1  0
 16 17  1  0
 17 19  1  0
 18 16  2  0
 20 18  1  0
 21 18  1  0
 22 23  2  0
 23 42  1  0
 24 23  1  0
 24 27  1  0
 25 22  1  0
 25 26  1  0
 26 24  2  0
 27 28  1  0
 28 29  2  0
 30 33  1  0
 30 29  1  0
 31 30  2  0
 32 31  1  0
 32 27  2  0
 33 34  1  0
 34 35  1  0
 35 36  2  0
 37 36  1  0
 37 41  1  0
 38 37  2  0
 39 34  2  0
 39 38  1  0
 40 39  1  0
 42 43  1  0
 43 46  1  0
 43 45  1  0
 44 42  2  0
 47 48  1  0
 47 22  1  0
 49 47  1  0
 50 51  2  0
 50 53  1  0
 51 56  1  0
 52 54  1  0
 52 50  1  0
 54 55  1  0
 55 53  1  0
 55  5  1  0
 57 68  2  0
 58 56  1  0
 58 63  1  0
 59 67  1  0
 59 69  1  0
 60 66  1  0
 60 62  1  0
 61 67  1  0
 62 63  2  0
 62 61  1  0
 64 58  2  0
 65 64  1  0
 65 60  2  0
 66 59  1  0
 67 57  1  0
 69 71  2  0
 70 69  1  0
 72 70  1  0
 73 82  2  0
 73 78  1  0
 74 70  1  0
 74 78  1  0
 75 74  1  0
 76 77  1  0
 76 75  1  0
 77 73  1  0
 78 79  2  0
 79 80  1  0
 81 80  2  0
 82 81  1  0
 83 57  1  0
 83 84  1  0
 83 93  1  0
 84 87  1  0
 85 89  1  0
 85 84  1  0
 86 85  2  0
 89 88  1  0
 91 89  1  0
 91 92  1  0
 91 90  1  0
 93 96  1  1
 93 94  1  0
 95 93  1  0
M  ISO  4   8 100  17 100  51 101  56 101
M  END
>  <TORSDO>  (18) 
F 17

>  <SCORE>  (18) 
-15.386

>  <name>  (18) 
18

>  <ligand_id>  (18) 
18

>  <original_smiles>  (18) 
[H]C(Oc1c([H])c([H])c2c(c1[H])C([H])([H])N(C(=O)C([H])(N([H])C(=O)C([H])(N([H])C([H])([H])[H])C([H])([H])[H])C(C([H])([H])[H])(C([H])([H])[H])C([H])([H])[H])C([H])(C(=O)N([H])C1([H])c3c([H])c([H])c([H])c([H])c3C([H])([H])C([H])([H])C1([H])[H])C2([H])[H])=C1C([H])([H])N(c2c([H])c([H])c(C(N([H])C(=O)N3C([H])([H])C([H])([H])C([H])([H])C([H])(n4nc(-c5c([H])c([H])c(Oc6c([H])c([H])c(F)c([H])c6F)c([H])c5[H])c(C(=O)N([H])[H])c4N([H])[H])C3([H])[H])=[N+]([H])[H])c([H])c2F)C([H])([H])C1([H])[H]

>  <smiles>  (18) 
[H]C(Oc1c([H])c([H])c2c(c1[H])C([H])([H])N(C(=O)C([H])(N([H])C(=O)C([H])(N([H])C([H])([H])[H])C([H])([H])[H])C(C([H])([H])[H])(C([H])([H])[H])C([H])([H])[H])C([H])(C(=O)N([H])C1([H])c3c([H])c([H])c([H])c([H])c3C([H])([H])C([H])([H])C1([H])[H])C2([H])[H])=C1C([H])([H])N(c2c([H])c([H])c(C(N([H])C(=O)N3C([H])([H])C([H])([H])C([H])([H])C([H])(n4nc(-c5c([H])c([H])c(Oc6c([H])c([H])c(F)c([H])c6F)c([H])c5[H])c(C(=O)N([H])[H])c4N([H])[H])C3([H])[H])=[N+]([H])[H])c([H])c2F)C([H])([H])C1([H])[H]

$$$$
19:0:0
     RDKit          3D

 94101  0  0  1  0  0  0  0  0999 V2000
  -28.6310  -22.3440   20.1600 C   0  0  0  0  0  0  0  0  0  0  0  0
  -30.0980  -22.3400   20.3780 C   0  0  0  0  0  0  0  0  0  0  0  0
  -27.8870  -23.7240   20.1880 C   0  0  0  0  0  3  0  0  0  0  0  0
  -28.3070  -20.5270   19.9390 C   0  0  0  0  0  2  0  0  0  0  0  0
  -30.9350  -21.0910   19.9460 C   0  0  0  0  0  2  0  0  0  0  0  0
  -30.5490  -19.6730   20.5250 C   0  0  0  0  0  2  0  0  0  0  0  0
  -29.3000  -19.1070   19.9910 N   0  0  0  0  0  0  0  0  0  0  0  0
  -30.7000  -23.3060   20.8590 O   0  0  0  0  0  0  0  0  0  0  0  0
  -29.1990  -16.6050   18.4670 C   0  0  0  0  0  2  0  0  0  0  0  0
  -29.2130  -14.9150   18.2140 C   0  0  0  0  0  1  0  0  0  0  0  0
  -29.8160  -14.8610   21.5060 C   0  0  0  0  0  2  0  0  0  0  0  0
  -29.3710  -17.4470   19.8850 C   0  0  0  0  0  0  0  0  0  0  0  0
  -29.7270  -13.7360   20.1170 C   0  0  0  0  0  2  0  0  0  0  0  0
  -29.7100  -16.5290   21.2310 C   0  0  0  0  0  0  0  0  0  0  0  0
  -29.9180  -17.2620   22.3510 F   0  0  0  0  0  0  0  0  0  0  0  0
  -31.8250  -14.3530   19.9370 C   0  0  0  0  0  0  0  0  0  0  0  0
  -31.3030  -13.5920   18.1430 C   0  0  0  0  0  2  0  0  0  0  0  0
  -30.0670  -12.3050   17.9500 C   0  0  0  0  0  3  0  0  0  0  0  0
  -28.3940  -12.2630   18.5010 C   0  0  0  0  0  3  0  0  0  0  0  0
  -27.4460  -13.5520   19.2840 C   0  0  0  0  0  3  0  0  0  0  0  0
  -28.1370  -15.1990   19.9070 C   0  0  0  0  0  1  0  0  0  0  0  0
  -30.9860  -15.0860   19.2180 N   0  0  0  0  0  2  0  0  0  0  0  0
  -33.0220  -14.5050   19.8750 O   0  0  0  0  0  0  0  0  0  0  0  0
  -31.4360  -12.2490   21.3310 C   0  0  0  0  0  1  0  0  0  0  0  0
  -31.0560  -13.3950   20.5140 N   0  0  0  0  0  0  0  0  0  0  0  0
  -25.4460  -13.9900   20.4180 C   0  0  0  0  0  0  0  0  0  0  0  0
  -24.4540  -13.2100   20.8490 C   0  0  0  0  0  0  0  0  0  0  0  0
  -24.8950  -11.8580   20.7100 C   0  0  0  0  0  0  0  0  0  0  0  0
  -26.4150  -13.1150   20.0620 N   0  0  0  0  0  0  0  0  0  0  0  0
  -26.1410  -11.8090   20.2690 N   0  0  0  0  0  0  0  0  0  0  0  0
  -24.1440  -10.6270   20.8810 C   0  0  0  0  0  0  0  0  0  0  0  0
  -24.5570   -9.6270   21.7830 C   0  0  0  0  0  3  0  0  0  0  0  0
  -23.7600   -8.4820   21.9750 C   0  0  0  0  0  3  0  0  0  0  0  0
  -22.5440   -8.3390   21.2630 C   0  0  0  0  0  0  0  0  0  0  0  0
  -22.1620   -9.3260   20.3380 C   0  0  0  0  0  3  0  0  0  0  0  0
  -22.9600  -10.4600   20.1410 C   0  0  0  0  0  3  0  0  0  0  0  0
  -21.7070   -7.2600   21.3790 O   0  0  0  0  0  0  0  0  0  0  0  0
  -21.6160   -6.5500   22.5480 C   0  0  0  0  0  0  0  0  0  0  0  0
  -21.2360   -7.1590   23.7640 C   0  0  0  0  0  3  0  0  0  0  0  0
  -21.0900   -6.3750   24.9250 C   0  0  0  0  0  3  0  0  0  0  0  0
  -21.3130   -4.9860   24.8700 C   0  0  0  0  0  0  0  0  0  0  0  0
  -21.6880   -4.3790   23.6590 C   0  0  0  0  0  3  0  0  0  0  0  0
  -21.8370   -5.1600   22.5000 C   0  0  0  0  0  0  0  0  0  0  0  0
  -22.1800   -4.5710   21.3290 F   0  0  0  0  0  0  0  0  0  0  0  0
  -21.1620   -4.2320   25.9830 F   0  0  0  0  0  0  0  0  0  0  0  0
  -23.1230  -13.7520   21.2070 C   0  0  0  0  0  0  0  0  0  0  0  0
  -22.4440  -13.0930   22.1270 N   0  0  0  0  0  0  0  0  0  0  0  0
  -22.7240  -14.8130   20.7230 O   0  0  0  0  0  0  0  0  0  0  0  0
  -22.8080  -12.2460   22.5360 H   0  0  0  0  0  0  0  0  0  0  0  0
  -21.5460  -13.4390   22.4320 H   0  0  0  0  0  0  0  0  0  0  0  0
  -25.5120  -15.3610   20.2030 N   0  0  0  0  0  0  0  0  0  0  0  0
  -24.6870  -15.9350   20.3430 H   0  0  0  0  0  0  0  0  0  0  0  0
  -26.2360  -15.8230   19.6710 H   0  0  0  0  0  0  0  0  0  0  0  0
  -28.1070  -25.3400   20.3690 O   0  0  0  0  0  0  0  0  0  0  0  0
  -24.5730  -31.7840   23.1320 C   0  0  0  0  0  0  0  0  0  0  0  0
  -27.1630  -26.5950   20.3040 C   0  0  0  0  0  0  0  0  0  0  0  0
  -23.4250  -30.3230   21.5270 C   0  0  0  0  0  3  0  0  0  0  0  0
  -24.9040  -28.6530   20.1710 C   0  0  0  0  0  0  0  0  0  0  0  0
  -26.0070  -30.4750   21.4360 C   0  0  0  0  0  2  0  0  0  0  0  0
  -26.0890  -29.0190   20.8180 C   0  0  0  0  0  0  0  0  0  0  0  0
  -27.2030  -28.0160   20.8560 C   0  0  0  0  0  3  0  0  0  0  0  0
  -25.9530  -26.4650   19.5800 C   0  0  0  0  0  3  0  0  0  0  0  0
  -24.8780  -27.4040   19.5290 C   0  0  0  0  0  3  0  0  0  0  0  0
  -23.6900  -29.5970   20.1770 C   0  0  0  0  0  2  0  0  0  0  0  0
  -24.6920  -30.8980   22.0820 N   0  0  0  0  0  0  0  0  0  0  0  0
  -23.4680  -32.0830   23.6190 O   0  0  0  0  0  0  0  0  0  0  0  0
  -22.7130  -29.3620   22.5180 C   0  0  0  0  0  0  0  0  0  0  0  0
  -21.3800  -29.2060   22.4030 N   0  0  0  0  0  0  0  0  0  0  0  0
  -23.3740  -28.7540   23.3640 O   0  0  0  0  0  0  0  0  0  0  0  0
  -20.8960  -29.7450   21.7000 H   0  0  0  0  0  0  0  0  0  0  0  0
  -17.9960  -28.0040   22.9660 C   0  0  0  0  0  0  0  0  0  0  0  0
  -20.5590  -28.2820   23.1980 C   0  0  0  0  0  3  0  0  0  0  0  0
  -20.6560  -26.8390   22.6460 C   0  0  0  0  0  2  0  0  0  0  0  0
  -19.5450  -26.5000   21.6480 C   0  0  0  0  0  2  0  0  0  0  0  0
  -18.1700  -26.6480   22.3020 C   0  0  0  0  0  2  0  0  0  0  0  0
  -19.1170  -28.7770   23.3720 C   0  0  0  0  0  0  0  0  0  0  0  0
  -18.8960  -30.0430   23.9580 C   0  0  0  0  0  3  0  0  0  0  0  0
  -17.5890  -30.5350   24.1400 C   0  0  0  0  0  3  0  0  0  0  0  0
  -16.4850  -29.7600   23.7460 C   0  0  0  0  0  3  0  0  0  0  0  0
  -16.6890  -28.4960   23.1660 C   0  0  0  0  0  3  0  0  0  0  0  0
  -25.8160  -32.4770   23.7670 C   0  0  0  0  0  3  0  0  0  0  0  0
  -25.4580  -33.8770   24.0720 N   0  0  0  0  0  0  0  0  0  0  0  0
  -25.7820  -34.9410   23.3230 C   0  0  0  0  0  0  0  0  0  0  0  0
  -26.4690  -34.8470   22.3030 O   0  0  0  0  0  0  0  0  0  0  0  0
  -24.8460  -34.0220   24.8620 H   0  0  0  0  0  0  0  0  0  0  0  0
  -24.0290  -36.7130   22.9480 C   0  0  0  0  0  1  0  0  0  0  0  0
  -25.2670  -36.3250   23.7730 C   0  0  0  0  0  3  0  0  0  0  0  0
  -27.3750  -37.2560   24.6290 C   0  0  0  0  0  1  0  0  0  0  0  0
  -26.2820  -37.3970   23.6700 N   0  0  0  0  0  0  0  0  0  0  0  0
  -25.8560  -38.3100   23.8070 H   0  0  0  0  0  0  0  0  0  0  0  0
  -26.3180  -31.7590   25.0810 C   0  0  1  0  0  0  0  0  0  0  0  0
  -25.2060  -31.5310   26.1320 C   0  0  0  0  0  1  0  0  0  0  0  0
  -26.9410  -30.3820   24.7600 C   0  0  0  0  0  1  0  0  0  0  0  0
  -27.4370  -32.5990   25.7420 C   0  0  0  0  0  1  0  0  0  0  0  0
  1  3  2  0
  1  2  1  0
  2  8  2  0
  3 54  1  0
  4  7  1  0
  4  1  1  0
  5  2  1  0
  5  6  1  0
  7  6  1  0
  9 12  1  0
 10  9  1  0
 12  7  1  0
 12 14  2  0
 13 25  1  0
 13 11  1  0
 14 11  1  0
 14 15  1  0
 16 25  1  0
 17 22  1  0
 18 17  1  0
 18 19  2  0
 19 20  1  0
 20 21  1  0
 20 29  1  0
 22 16  1  0
 23 16  2  0
 25 24  1  0
 26 27  2  0
 27 46  1  0
 28 27  1  0
 28 31  1  0
 29 30  1  0
 29 26  1  0
 30 28  2  0
 31 32  1  0
 32 33  2  0
 34 37  1  0
 34 33  1  0
 35 34  2  0
 36 35  1  0
 36 31  2  0
 37 38  1  0
 38 39  1  0
 39 40  2  0
 41 40  1  0
 41 45  1  0
 42 41  2  0
 43 38  2  0
 43 42  1  0
 44 43  1  0
 46 47  1  0
 47 50  1  0
 47 49  1  0
 48 46  2  0
 51 52  1  0
 51 26  1  0
 53 51  1  0
 55 66  2  0
 56 54  1  0
 56 61  1  0
 57 65  1  0
 57 67  1  0
 58 64  1  0
 58 60  1  0
 59 65  1  0
 60 61  2  0
 60 59  1  0
 62 56  2  0
 63 62  1  0
 63 58  2  0
 64 57  1  0
 65 55  1  0
 67 69  2  0
 68 67  1  0
 70 68  1  0
 71 80  2  0
 71 76  1  0
 72 68  1  0
 72 76  1  0
 73 72  1  0
 74 75  1  0
 74 73  1  0
 75 71  1  0
 76 77  2  0
 77 78  1  0
 79 78  2  0
 80 79  1  0
 81 55  1  0
 81 82  1  0
 81 91  1  0
 82 85  1  0
 83 87  1  0
 83 82  1  0
 84 83  2  0
 87 86  1  0
 89 87  1  0
 89 90  1  0
 89 88  1  0
 91 94  1  1
 91 92  1  0
 93 91  1  0
M  ISO  4   3 101  16 100  25 100  54 101
M  END
>  <TORSDO>  (19) 
F 17

>  <SCORE>  (19) 
-14.368

>  <name>  (19) 
19

>  <ligand_id>  (19) 
19

>  <original_smiles>  (19) 
[H]C(Oc1c([H])c([H])c2c(c1[H])C([H])([H])N(C(=O)C([H])(N([H])C(=O)C([H])(N([H])C([H])([H])[H])C([H])([H])[H])C(C([H])([H])[H])(C([H])([H])[H])C([H])([H])[H])C([H])(C(=O)N([H])C1([H])c3c([H])c([H])c([H])c([H])c3C([H])([H])C([H])([H])C1([H])[H])C2([H])[H])=C1C(=O)C([H])([H])C([H])([H])N(c2c([H])c([H])c(N(C(=O)N3C([H])([H])C([H])([H])C([H])([H])C([H])(n4nc(-c5c([H])c([H])c(Oc6c([H])c([H])c(F)c([H])c6F)c([H])c5[H])c(C(=O)N([H])[H])c4N([H])[H])C3([H])[H])C([H])([H])[H])c([H])c2F)C1([H])[H]

>  <smiles>  (19) 
[H]C(Oc1c([H])c([H])c2c(c1[H])C([H])([H])N(C(=O)C([H])(N([H])C(=O)C([H])(N([H])C([H])([H])[H])C([H])([H])[H])C(C([H])([H])[H])(C([H])([H])[H])C([H])([H])[H])C([H])(C(=O)N([H])C1([H])c3c([H])c([H])c([H])c([H])c3C([H])([H])C([H])([H])C1([H])[H])C2([H])[H])=C1C(=O)C([H])([H])C([H])([H])N(c2c([H])c([H])c(N(C(=O)N3C([H])([H])C([H])([H])C([H])([H])C([H])(n4nc(-c5c([H])c([H])c(Oc6c([H])c([H])c(F)c([H])c6F)c([H])c5[H])c(C(=O)N([H])[H])c4N([H])[H])C3([H])[H])C([H])([H])[H])c([H])c2F)C1([H])[H]

$$$$
20:0:0
     RDKit          3D

 97105  0  0  1  0  0  0  0  0999 V2000
  -29.6430  -23.5000   19.7140 C   0  0  0  0  0  0  0  0  0  0  0  0
  -29.9300  -22.1390   19.6830 N   0  0  0  0  0  0  0  0  0  0  0  0
  -30.0490  -24.1810   18.7730 O   0  0  0  0  0  0  0  0  0  0  0  0
  -30.7040  -21.9580   19.0620 H   0  0  0  0  0  0  0  0  0  0  0  0
  -27.0120  -19.8970   20.4210 C   0  0  0  0  0  3  0  0  0  0  0  0
  -27.5890  -18.6240   20.3840 C   0  0  0  0  0  3  0  0  0  0  0  0
  -27.7960  -21.0280   20.2030 C   0  0  0  0  0  3  0  0  0  0  0  0
  -29.7700  -19.5760   19.9680 C   0  0  0  0  0  3  0  0  0  0  0  0
  -28.9760  -18.3760   20.1530 C   0  0  0  0  0  0  0  0  0  0  0  0
  -29.1850  -20.9180   19.9950 C   0  0  0  0  0  0  0  0  0  0  0  0
  -28.4950  -16.0260   20.9790 C   0  0  0  0  0  1  0  0  0  0  0  0
  -29.3380  -16.8130   19.9270 C   0  0  2  0  0  0  0  0  0  0  0  0
  -31.2320  -14.8730   20.1840 C   0  0  0  0  0  0  0  0  0  0  0  0
  -31.0870  -12.4280   19.6570 C   0  0  0  0  0  2  0  0  0  0  0  0
  -30.2150  -12.0980   18.4280 C   0  0  0  0  0  2  0  0  0  0  0  0
  -28.7380  -11.9100   18.8290 C   0  0  0  0  0  2  0  0  0  0  0  0
  -28.2410  -13.0340   19.7690 C   0  0  0  0  0  3  0  0  0  0  0  0
  -29.2530  -13.2840   20.9070 C   0  0  0  0  0  2  0  0  0  0  0  0
  -30.5410  -13.6640   20.2870 N   0  0  0  0  0  0  0  0  0  0  0  0
  -32.4410  -14.8210   19.9680 O   0  0  0  0  0  0  0  0  0  0  0  0
  -30.6950  -16.1680   20.0970 N   0  0  0  0  0  0  0  0  0  0  0  0
  -31.4380  -16.8460   20.0230 H   0  0  0  0  0  0  0  0  0  0  0  0
  -25.8670  -13.7460   20.4440 C   0  0  0  0  0  0  0  0  0  0  0  0
  -24.7680  -13.0250   20.8060 C   0  0  0  0  0  0  0  0  0  0  0  0
  -25.1790  -11.6590   20.7900 C   0  0  0  0  0  0  0  0  0  0  0  0
  -26.8830  -12.8220   20.2440 N   0  0  0  0  0  0  0  0  0  0  0  0
  -26.4720  -11.5600   20.5110 N   0  0  0  0  0  0  0  0  0  0  0  0
  -24.4000  -10.4330   20.9630 C   0  0  0  0  0  0  0  0  0  0  0  0
  -24.7330   -9.4840   21.9530 C   0  0  0  0  0  3  0  0  0  0  0  0
  -23.9550   -8.3180   22.1120 C   0  0  0  0  0  3  0  0  0  0  0  0
  -22.8310   -8.0970   21.2790 C   0  0  0  0  0  0  0  0  0  0  0  0
  -22.5200   -9.0360   20.2790 C   0  0  0  0  0  3  0  0  0  0  0  0
  -23.2970  -10.1930   20.1190 C   0  0  0  0  0  3  0  0  0  0  0  0
  -22.0320   -6.9830   21.3460 O   0  0  0  0  0  0  0  0  0  0  0  0
  -21.8120   -6.3300   22.5330 C   0  0  0  0  0  0  0  0  0  0  0  0
  -21.2550   -6.9870   23.6520 C   0  0  0  0  0  3  0  0  0  0  0  0
  -20.9790   -6.2610   24.8280 C   0  0  0  0  0  3  0  0  0  0  0  0
  -21.2520   -4.8800   24.8840 C   0  0  0  0  0  0  0  0  0  0  0  0
  -21.8020   -4.2250   23.7680 C   0  0  0  0  0  3  0  0  0  0  0  0
  -22.0790   -4.9490   22.5950 C   0  0  0  0  0  0  0  0  0  0  0  0
  -22.5910   -4.3090   21.5160 F   0  0  0  0  0  0  0  0  0  0  0  0
  -20.9790   -4.1800   26.0090 F   0  0  0  0  0  0  0  0  0  0  0  0
  -23.3880  -13.5670   21.0430 C   0  0  0  0  0  0  0  0  0  0  0  0
  -22.6190  -12.9190   21.9100 N   0  0  0  0  0  0  0  0  0  0  0  0
  -23.0040  -14.6010   20.5000 O   0  0  0  0  0  0  0  0  0  0  0  0
  -22.9440  -12.0850   22.3750 H   0  0  0  0  0  0  0  0  0  0  0  0
  -21.6910  -13.2630   22.1120 H   0  0  0  0  0  0  0  0  0  0  0  0
  -26.0520  -15.1050   20.2390 N   0  0  0  0  0  0  0  0  0  0  0  0
  -25.2780  -15.7560   20.2870 H   0  0  0  0  0  0  0  0  0  0  0  0
  -26.8980  -15.5180   19.8620 H   0  0  0  0  0  0  0  0  0  0  0  0
  -28.0860  -17.1400   17.6670 C   0  0  0  0  0  2  0  0  0  0  0  0
  -29.0380  -16.5820   18.4380 C   0  0  0  0  0  3  0  0  0  0  0  0
  -28.4060  -25.4010   20.9490 C   0  0  0  0  0  3  0  0  0  0  0  0
  -28.9110  -24.1140   20.8630 C   0  0  0  0  0  0  0  0  0  0  0  0
  -28.7630  -23.3650   21.9670 O   0  0  0  0  0  0  0  0  0  0  0  0
  -28.3080  -23.8870   22.6110 H   0  0  0  0  0  0  0  0  0  0  0  0
  -28.4400  -26.5000   20.0830 O   0  0  0  0  0  0  0  0  0  0  0  0
  -24.6010  -31.8140   23.1660 C   0  0  0  0  0  0  0  0  0  0  0  0
  -27.3290  -27.3490   20.0910 C   0  0  0  0  0  0  0  0  0  0  0  0
  -23.4410  -30.4230   21.4870 C   0  0  0  0  0  3  0  0  0  0  0  0
  -24.9360  -28.9070   20.0680 C   0  0  0  0  0  0  0  0  0  0  0  0
  -25.9750  -30.7800   21.3490 C   0  0  0  0  0  2  0  0  0  0  0  0
  -26.0870  -29.4100   20.6900 C   0  0  0  0  0  0  0  0  0  0  0  0
  -27.2880  -28.6410   20.6960 C   0  0  0  0  0  3  0  0  0  0  0  0
  -26.1580  -26.8880   19.4560 C   0  0  0  0  0  3  0  0  0  0  0  0
  -24.9710  -27.6490   19.4440 C   0  0  0  0  0  3  0  0  0  0  0  0
  -23.6870  -29.7640   20.1030 C   0  0  0  0  0  2  0  0  0  0  0  0
  -24.6900  -31.0230   22.0590 N   0  0  0  0  0  0  0  0  0  0  0  0
  -23.5060  -32.0720   23.6880 O   0  0  0  0  0  0  0  0  0  0  0  0
  -22.7720  -29.3880   22.4230 C   0  0  0  0  0  0  0  0  0  0  0  0
  -21.4470  -29.2110   22.2820 N   0  0  0  0  0  0  0  0  0  0  0  0
  -23.4450  -28.7480   23.2350 O   0  0  0  0  0  0  0  0  0  0  0  0
  -20.9630  -29.7820   21.6020 H   0  0  0  0  0  0  0  0  0  0  0  0
  -18.0670  -28.0040   22.7310 C   0  0  0  0  0  0  0  0  0  0  0  0
  -20.6220  -28.2590   23.0270 C   0  0  0  0  0  3  0  0  0  0  0  0
  -20.7300  -26.8390   22.4220 C   0  0  0  0  0  2  0  0  0  0  0  0
  -19.6370  -26.5370   21.3930 C   0  0  0  0  0  2  0  0  0  0  0  0
  -18.2490  -26.6690   22.0300 C   0  0  0  0  0  2  0  0  0  0  0  0
  -19.1820  -28.7590   23.1850 C   0  0  0  0  0  0  0  0  0  0  0  0
  -18.9580  -30.0090   23.8000 C   0  0  0  0  0  3  0  0  0  0  0  0
  -17.6520  -30.5070   23.9660 C   0  0  0  0  0  3  0  0  0  0  0  0
  -16.5510  -29.7500   23.5280 C   0  0  0  0  0  3  0  0  0  0  0  0
  -16.7590  -28.5000   22.9170 C   0  0  0  0  0  3  0  0  0  0  0  0
  -25.8680  -32.4490   23.8200 C   0  0  0  0  0  3  0  0  0  0  0  0
  -25.5420  -33.8410   24.1600 N   0  0  0  0  0  0  0  0  0  0  0  0
  -25.8740  -34.9050   23.4170 C   0  0  0  0  0  0  0  0  0  0  0  0
  -26.5560  -34.8180   22.3920 O   0  0  0  0  0  0  0  0  0  0  0  0
  -24.9350  -33.9830   24.9560 H   0  0  0  0  0  0  0  0  0  0  0  0
  -24.1330  -36.6860   23.0620 C   0  0  0  0  0  1  0  0  0  0  0  0
  -25.3690  -36.2850   23.8820 C   0  0  0  0  0  3  0  0  0  0  0  0
  -27.4860  -37.1800   24.7440 C   0  0  0  0  0  1  0  0  0  0  0  0
  -26.3930  -37.3480   23.7900 N   0  0  0  0  0  0  0  0  0  0  0  0
  -25.9770  -38.2630   23.9410 H   0  0  0  0  0  0  0  0  0  0  0  0
  -26.3670  -31.6680   25.0960 C   0  0  1  0  0  0  0  0  0  0  0  0
  -25.2570  -31.4130   26.1430 C   0  0  0  0  0  1  0  0  0  0  0  0
  -26.9650  -30.2970   24.7000 C   0  0  0  0  0  1  0  0  0  0  0  0
  -27.5010  -32.4610   25.7860 C   0  0  0  0  0  1  0  0  0  0  0  0
  1 54  1  0
  2  1  1  0
  2 10  1  0
  3  1  2  0
  4  2  1  0
  6  5  1  0
  7  5  2  0
  8 10  2  0
  8  9  1  0
  9  6  2  0
 10  7  1  0
 12 21  1  0
 12  9  1  0
 12 11  1  1
 13 19  1  0
 14 19  1  0
 15 16  1  0
 15 14  1  0
 17 16  1  0
 17 26  1  0
 17 18  1  0
 19 18  1  0
 20 13  2  0
 21 13  1  0
 22 21  1  0
 23 24  2  0
 24 43  1  0
 25 24  1  0
 25 28  1  0
 26 23  1  0
 26 27  1  0
 27 25  2  0
 28 29  1  0
 29 30  2  0
 31 34  1  0
 31 30  1  0
 32 31  2  0
 33 32  1  0
 33 28  2  0
 34 35  1  0
 35 40  2  0
 35 36  1  0
 36 37  2  0
 37 38  1  0
 38 42  1  0
 39 38  2  0
 40 39  1  0
 41 40  1  0
 43 44  1  0
 44 47  1  0
 44 46  1  0
 45 43  2  0
 48 49  1  0
 48 23  1  0
 50 48  1  0
 51 52  2  0
 52 12  1  0
 54 53  2  0
 54 55  1  0
 55 56  1  0
 57 59  1  0
 57 53  1  0
 58 69  2  0
 59 64  1  0
 60 68  1  0
 60 70  1  0
 61 67  1  0
 61 63  1  0
 62 68  1  0
 63 64  2  0
 63 62  1  0
 65 59  2  0
 66 65  1  0
 66 61  2  0
 67 60  1  0
 68 58  1  0
 70 72  2  0
 71 70  1  0
 73 71  1  0
 74 83  2  0
 74 79  1  0
 75 71  1  0
 75 79  1  0
 76 75  1  0
 77 78  1  0
 77 76  1  0
 78 74  1  0
 79 80  2  0
 80 81  1  0
 82 81  2  0
 83 82  1  0
 84 58  1  0
 84 85  1  0
 84 94  1  0
 85 88  1  0
 86 90  1  0
 86 85  1  0
 87 86  2  0
 90 89  1  0
 92 90  1  0
 92 93  1  0
 92 91  1  0
 94 97  1  1
 94 95  1  0
 96 94  1  0
M  ISO  4  13 100  21 100  53 101  57 101
M  END
>  <TORSDO>  (20) 
F 21

>  <SCORE>  (20) 
-10.788

>  <name>  (20) 
20

>  <ligand_id>  (20) 
20

>  <original_smiles>  (20) 
[H]OC(C(=O)N([H])c1c([H])c([H])c([H])c(C(C([H])=C([H])[H])(N([H])C(=O)N2C([H])([H])C([H])([H])C([H])([H])C([H])(n3nc(-c4c([H])c([H])c(Oc5c([H])c([H])c(F)c([H])c5F)c([H])c4[H])c(C(=O)N([H])[H])c3N([H])[H])C2([H])[H])C([H])([H])[H])c1[H])=C([H])Oc1c([H])c([H])c2c(c1[H])C([H])([H])N(C(=O)C([H])(N([H])C(=O)C([H])(N([H])C([H])([H])[H])C([H])([H])[H])C(C([H])([H])[H])(C([H])([H])[H])C([H])([H])[H])C([H])(C(=O)N([H])C1([H])c3c([H])c([H])c([H])c([H])c3C([H])([H])C([H])([H])C1([H])[H])C2([H])[H]

>  <smiles>  (20) 
[H]OC(C(=O)N([H])c1c([H])c([H])c([H])c(C(C([H])=C([H])[H])(N([H])C(=O)N2C([H])([H])C([H])([H])C([H])([H])C([H])(n3nc(-c4c([H])c([H])c(Oc5c([H])c([H])c(F)c([H])c5F)c([H])c4[H])c(C(=O)N([H])[H])c3N([H])[H])C2([H])[H])C([H])([H])[H])c1[H])=C([H])Oc1c([H])c([H])c2c(c1[H])C([H])([H])N(C(=O)C([H])(N([H])C(=O)C([H])(N([H])C([H])([H])[H])C([H])([H])[H])C(C([H])([H])[H])(C([H])([H])[H])C([H])([H])[H])C([H])(C(=O)N([H])C1([H])c3c([H])c([H])c([H])c([H])c3C([H])([H])C([H])([H])C1([H])[H])C2([H])[H]

$$$$
21:0:0
     RDKit          3D

 97106  0  0  1  0  0  0  0  0999 V2000
  -30.7470  -22.1120   22.0520 C   0  0  0  0  0  0  0  0  0  0  0  0
  -30.8310  -23.6140   22.3620 C   0  0  0  0  0  2  0  0  0  0  0  0
  -29.5940  -24.4160   21.9480 C   0  0  0  0  0  2  0  0  0  0  0  0
  -29.0380  -22.6020   20.2990 C   0  0  0  0  0  2  0  0  0  0  0  0
  -29.2840  -24.1670   20.4760 C   0  0  0  0  0  3  0  0  0  0  0  0
  -29.9690  -21.6640   21.0270 N   0  0  0  0  0  0  0  0  0  0  0  0
  -31.4230  -21.3590   22.7620 O   0  0  0  0  0  0  0  0  0  0  0  0
  -28.9820  -19.3670   21.3280 C   0  0  0  0  0  3  0  0  0  0  0  0
  -29.0210  -17.9480   21.1660 C   0  0  0  0  0  3  0  0  0  0  0  0
  -31.0610  -18.1640   19.8970 C   0  0  0  0  0  3  0  0  0  0  0  0
  -29.9700  -20.2200   20.7670 C   0  0  0  0  0  0  0  0  0  0  0  0
  -30.0570  -17.3050   20.4370 C   0  0  0  0  0  0  0  0  0  0  0  0
  -31.0160  -19.5840   20.0410 C   0  0  0  0  0  0  0  0  0  0  0  0
  -30.6350  -14.8150   20.2500 C   0  0  0  0  0  0  0  0  0  0  0  0
  -30.4420  -12.4960   19.3490 C   0  0  0  0  0  2  0  0  0  0  0  0
  -29.5030  -12.4320   18.1240 C   0  0  0  0  0  2  0  0  0  0  0  0
  -28.0200  -12.3600   18.5530 C   0  0  0  0  0  2  0  0  0  0  0  0
  -27.6370  -13.2860   19.7460 C   0  0  0  0  0  3  0  0  0  0  0  0
  -28.7070  -13.2770   20.8580 C   0  0  0  0  0  2  0  0  0  0  0  0
  -29.9930  -13.5980   20.2280 N   0  0  0  0  0  0  0  0  0  0  0  0
  -31.8600  -14.8660   20.1060 O   0  0  0  0  0  0  0  0  0  0  0  0
  -29.8770  -15.9400   19.9240 N   0  0  0  0  0  0  0  0  0  0  0  0
  -25.2520  -13.8770   20.4790 C   0  0  0  0  0  0  0  0  0  0  0  0
  -24.1870  -13.1000   20.8460 C   0  0  0  0  0  0  0  0  0  0  0  0
  -24.6560  -11.7500   20.8250 C   0  0  0  0  0  0  0  0  0  0  0  0
  -26.3000  -13.0000   20.2510 N   0  0  0  0  0  0  0  0  0  0  0  0
  -25.9490  -11.7180   20.5290 N   0  0  0  0  0  0  0  0  0  0  0  0
  -23.9380  -10.4840   21.0150 C   0  0  0  0  0  0  0  0  0  0  0  0
  -24.3740   -9.5230   21.9510 C   0  0  0  0  0  3  0  0  0  0  0  0
  -23.6560   -8.3210   22.1300 C   0  0  0  0  0  3  0  0  0  0  0  0
  -22.4880   -8.0720   21.3710 C   0  0  0  0  0  0  0  0  0  0  0  0
  -22.0710   -9.0240   20.4230 C   0  0  0  0  0  3  0  0  0  0  0  0
  -22.7900  -10.2170   20.2420 C   0  0  0  0  0  3  0  0  0  0  0  0
  -21.7400   -6.9240   21.4610 O   0  0  0  0  0  0  0  0  0  0  0  0
  -21.6850   -6.1890   22.6180 C   0  0  0  0  0  0  0  0  0  0  0  0
  -21.2420   -6.7490   23.8370 C   0  0  0  0  0  3  0  0  0  0  0  0
  -21.1330   -5.9380   24.9850 C   0  0  0  0  0  3  0  0  0  0  0  0
  -21.4590   -4.5710   24.9140 C   0  0  0  0  0  0  0  0  0  0  0  0
  -21.8960   -4.0100   23.7020 C   0  0  0  0  0  3  0  0  0  0  0  0
  -22.0040   -4.8170   22.5570 C   0  0  0  0  0  0  0  0  0  0  0  0
  -22.4030   -4.2680   21.3830 F   0  0  0  0  0  0  0  0  0  0  0  0
  -21.3480   -3.7900   26.0150 F   0  0  0  0  0  0  0  0  0  0  0  0
  -22.7860  -13.5690   21.1080 C   0  0  0  0  0  0  0  0  0  0  0  0
  -22.0610  -12.8740   21.9800 N   0  0  0  0  0  0  0  0  0  0  0  0
  -22.3420  -14.5870   20.5790 O   0  0  0  0  0  0  0  0  0  0  0  0
  -22.4310  -12.0490   22.4280 H   0  0  0  0  0  0  0  0  0  0  0  0
  -21.1220  -13.1730   22.2000 H   0  0  0  0  0  0  0  0  0  0  0  0
  -25.4150  -15.2460   20.2930 N   0  0  0  0  0  0  0  0  0  0  0  0
  -24.6560  -15.9110   20.4010 H   0  0  0  0  0  0  0  0  0  0  0  0
  -26.2790  -15.6770   19.9960 H   0  0  0  0  0  0  0  0  0  0  0  0
  -28.3690  -17.0030   18.1460 C   0  0  0  0  0  1  0  0  0  0  0  0
  -29.5060  -16.0150   18.4910 C   0  0  0  0  0  2  0  0  0  0  0  0
  -32.0050  -20.3550   19.4200 N   0  0  0  0  0  0  0  0  0  0  0  0
  -32.5920  -19.9270   18.7130 H   0  0  0  0  0  0  0  0  0  0  0  0
  -31.8120  -21.3310   19.2200 H   0  0  0  0  0  0  0  0  0  0  0  0
  -28.1370  -25.1340   19.9760 C   0  0  0  0  0  2  0  0  0  0  0  0
  -28.3290  -26.5860   20.1540 O   0  0  0  0  0  0  0  0  0  0  0  0
  -24.5820  -31.8910   23.2390 C   0  0  0  0  0  0  0  0  0  0  0  0
  -27.1930  -27.4050   20.1130 C   0  0  0  0  0  0  0  0  0  0  0  0
  -23.3700  -30.5100   21.5900 C   0  0  0  0  0  3  0  0  0  0  0  0
  -24.8170  -28.9890   20.1340 C   0  0  0  0  0  0  0  0  0  0  0  0
  -25.9040  -30.8480   21.3880 C   0  0  0  0  0  2  0  0  0  0  0  0
  -25.9860  -29.4790   20.7290 C   0  0  0  0  0  0  0  0  0  0  0  0
  -27.1770  -28.6990   20.7100 C   0  0  0  0  0  3  0  0  0  0  0  0
  -26.0000  -26.9610   19.4950 C   0  0  0  0  0  3  0  0  0  0  0  0
  -24.8250  -27.7340   19.5080 C   0  0  0  0  0  3  0  0  0  0  0  0
  -23.5770  -29.8560   20.1980 C   0  0  0  0  0  2  0  0  0  0  0  0
  -24.6390  -31.0980   22.1310 N   0  0  0  0  0  0  0  0  0  0  0  0
  -23.5020  -32.1580   23.7870 O   0  0  0  0  0  0  0  0  0  0  0  0
  -22.7210  -29.4780   22.5390 C   0  0  0  0  0  0  0  0  0  0  0  0
  -21.3940  -29.3000   22.4230 N   0  0  0  0  0  0  0  0  0  0  0  0
  -23.4090  -28.8390   23.3410 O   0  0  0  0  0  0  0  0  0  0  0  0
  -20.8990  -29.8680   21.7490 H   0  0  0  0  0  0  0  0  0  0  0  0
  -18.0210  -28.0990   22.9310 C   0  0  0  0  0  0  0  0  0  0  0  0
  -20.5810  -28.3520   23.1860 C   0  0  0  0  0  3  0  0  0  0  0  0
  -20.6790  -26.9290   22.5890 C   0  0  0  0  0  2  0  0  0  0  0  0
  -19.5680  -26.6200   21.5810 C   0  0  0  0  0  2  0  0  0  0  0  0
  -18.1910  -26.7580   22.2360 C   0  0  0  0  0  2  0  0  0  0  0  0
  -19.1440  -28.8540   23.3620 C   0  0  0  0  0  0  0  0  0  0  0  0
  -18.9290  -30.1110   23.9710 C   0  0  0  0  0  3  0  0  0  0  0  0
  -17.6260  -30.6110   24.1510 C   0  0  0  0  0  3  0  0  0  0  0  0
  -16.5180  -29.8530   23.7330 C   0  0  0  0  0  3  0  0  0  0  0  0
  -16.7160  -28.5990   23.1300 C   0  0  0  0  0  3  0  0  0  0  0  0
  -25.8680  -32.5190   23.8610 C   0  0  0  0  0  3  0  0  0  0  0  0
  -26.3880  -31.7350   25.1280 C   0  0  1  0  0  0  0  0  0  0  0  0
  -25.3000  -31.4880   26.1990 C   0  0  0  0  0  1  0  0  0  0  0  0
  -26.9660  -30.3580   24.7220 C   0  0  0  0  0  1  0  0  0  0  0  0
  -27.5410  -32.5220   25.7940 C   0  0  0  0  0  1  0  0  0  0  0  0
  -25.5600  -33.9140   24.2040 N   0  0  0  0  0  0  0  0  0  0  0  0
  -25.8700  -34.9710   23.4430 C   0  0  0  0  0  0  0  0  0  0  0  0
  -26.5190  -34.8750   22.3990 O   0  0  0  0  0  0  0  0  0  0  0  0
  -24.9810  -34.0620   25.0180 H   0  0  0  0  0  0  0  0  0  0  0  0
  -24.1190  -36.7530   23.1400 C   0  0  0  0  0  1  0  0  0  0  0  0
  -25.3840  -36.3560   23.9160 C   0  0  0  0  0  3  0  0  0  0  0  0
  -27.5350  -37.2560   24.6870 C   0  0  0  0  0  1  0  0  0  0  0  0
  -26.4050  -37.4160   23.7780 N   0  0  0  0  0  0  0  0  0  0  0  0
  -25.9950  -38.3330   23.9410 H   0  0  0  0  0  0  0  0  0  0  0  0
  1  2  1  0
  1  7  2  0
  3  2  1  0
  4  5  1  0
  4  6  1  0
  5 56  1  0
  5  3  1  0
  6  1  1  0
  9  8  1  0
 10 13  2  0
 10 12  1  0
 11  6  1  0
 11  8  2  0
 12  9  2  0
 13 11  1  0
 15 20  1  0
 16 17  1  0
 16 15  1  0
 18 17  1  0
 18 26  1  0
 18 19  1  0
 20 14  1  0
 20 19  1  0
 21 14  2  0
 22 14  1  0
 22 12  1  0
 23 24  2  0
 24 43  1  0
 25 24  1  0
 25 28  1  0
 26 23  1  0
 26 27  1  0
 27 25  2  0
 28 29  1  0
 29 30  2  0
 31 34  1  0
 31 30  1  0
 32 31  2  0
 33 32  1  0
 33 28  2  0
 34 35  1  0
 35 36  1  0
 36 37  2  0
 38 37  1  0
 38 42  1  0
 39 38  2  0
 40 35  2  0
 40 39  1  0
 41 40  1  0
 43 44  1  0
 44 47  1  0
 44 46  1  0
 45 43  2  0
 48 49  1  0
 48 23  1  0
 50 48  1  0
 51 52  1  0
 52 22  1  0
 53 13  1  0
 54 53  1  0
 55 53  1  0
 56 57  1  0
 58 69  2  0
 59 57  1  0
 59 64  1  0
 60 68  1  0
 60 70  1  0
 61 67  1  0
 61 63  1  0
 62 68  1  0
 63 62  1  0
 64 63  2  0
 65 66  1  0
 65 59  2  0
 66 61  2  0
 67 60  1  0
 68 58  1  0
 70 72  2  0
 71 70  1  0
 73 71  1  0
 74 83  2  0
 74 79  1  0
 75 71  1  0
 75 79  1  0
 76 75  1  0
 77 78  1  0
 77 76  1  0
 78 74  1  0
 79 80  2  0
 80 81  1  0
 82 81  2  0
 83 82  1  0
 84 58  1  0
 84 89  1  0
 84 85  1  0
 85 88  1  1
 85 86  1  0
 87 85  1  0
 89 92  1  0
 90 94  1  0
 90 89  1  0
 91 90  2  0
 94 93  1  0
 96 94  1  0
 96 97  1  0
 96 95  1  0
M  ISO  4  14 100  22 100  56 101  57 101
M  END
>  <TORSDO>  (21) 
F 20

>  <SCORE>  (21) 
-12.344

>  <name>  (21) 
21

>  <ligand_id>  (21) 
21

>  <original_smiles>  (21) 
[H]c1c([H])c([H])c2c(c1[H])C([H])([H])C([H])([H])C([H])([H])C2([H])N([H])C(=O)C1([H])N(C(=O)C([H])(N([H])C(=O)C([H])(N([H])C([H])([H])[H])C([H])([H])[H])C(C([H])([H])[H])(C([H])([H])[H])C([H])([H])[H])C([H])([H])c2c([H])c(OC([H])([H])C3([H])C([H])([H])N(c4c([H])c([H])c(N(C(=O)N5C([H])([H])C([H])([H])C([H])([H])C([H])(n6nc(-c7c([H])c([H])c(Oc8c([H])c([H])c(F)c([H])c8F)c([H])c7[H])c(C(=O)N([H])[H])c6N([H])[H])C5([H])[H])C([H])([H])C([H])([H])[H])c([H])c4N([H])[H])C(=O)C([H])([H])C3([H])[H])c([H])c([H])c2C1([H])[H]

>  <smiles>  (21) 
[H]c1c([H])c([H])c2c(c1[H])C([H])([H])C([H])([H])C([H])([H])C2([H])N([H])C(=O)C1([H])N(C(=O)C([H])(N([H])C(=O)C([H])(N([H])C([H])([H])[H])C([H])([H])[H])C(C([H])([H])[H])(C([H])([H])[H])C([H])([H])[H])C([H])([H])c2c([H])c(OC([H])([H])C3([H])C([H])([H])N(c4c([H])c([H])c(N(C(=O)N5C([H])([H])C([H])([H])C([H])([H])C([H])(n6nc(-c7c([H])c([H])c(Oc8c([H])c([H])c(F)c([H])c8F)c([H])c7[H])c(C(=O)N([H])[H])c6N([H])[H])C5([H])[H])C([H])([H])C([H])([H])[H])c([H])c4N([H])[H])C(=O)C([H])([H])C3([H])[H])c([H])c([H])c2C1([H])[H]

$$$$
22:0:0
     RDKit          3D

 93101  0  0  1  0  0  0  0  0999 V2000
  -28.8990  -18.4520   18.7620 C   0  0  0  0  0  3  0  0  0  0  0  0
  -28.3310  -20.8460   18.5930 C   0  0  0  0  0  3  0  0  0  0  0  0
  -28.3570  -19.5450   18.0430 C   0  0  0  0  0  0  0  0  0  0  0  0
  -29.4520  -18.6270   20.0480 C   0  0  0  0  0  0  0  0  0  0  0  0
  -28.8520  -21.1270   19.8800 C   0  0  0  0  0  0  0  0  0  0  0  0
  -29.4080  -19.9820   20.5910 C   0  0  0  0  0  0  0  0  0  0  0  0
  -27.8090  -19.3310   16.6440 C   0  0  0  0  0  1  0  0  0  0  0  0
  -29.9200  -20.1970   21.8270 F   0  0  0  0  0  0  0  0  0  0  0  0
  -28.4830  -23.7460   19.8880 C   0  0  0  0  0  0  0  0  0  0  0  0
  -28.7680  -22.5030   20.4540 N   0  0  0  0  0  0  0  0  0  0  0  0
  -28.4470  -23.9030   18.6660 O   0  0  0  0  0  0  0  0  0  0  0  0
  -28.9060  -22.5340   21.4550 H   0  0  0  0  0  0  0  0  0  0  0  0
  -28.1890  -25.0330   20.8010 C   0  0  0  0  0  2  0  0  0  0  0  0
  -28.3550  -26.4120   20.2220 O   0  0  0  0  0  0  0  0  0  0  0  0
  -24.6080  -31.8740   23.2360 C   0  0  0  0  0  0  0  0  0  0  0  0
  -27.2500  -27.2850   20.2200 C   0  0  0  0  0  0  0  0  0  0  0  0
  -23.4240  -30.4710   21.5840 C   0  0  0  0  0  3  0  0  0  0  0  0
  -24.8900  -28.9120   20.1780 C   0  0  0  0  0  0  0  0  0  0  0  0
  -25.9680  -30.7840   21.4310 C   0  0  0  0  0  2  0  0  0  0  0  0
  -26.0540  -29.4010   20.7870 C   0  0  0  0  0  0  0  0  0  0  0  0
  -27.2400  -28.6000   20.7930 C   0  0  0  0  0  3  0  0  0  0  0  0
  -26.0650  -26.8550   19.5880 C   0  0  0  0  0  3  0  0  0  0  0  0
  -24.9000  -27.6460   19.5670 C   0  0  0  0  0  3  0  0  0  0  0  0
  -23.6540  -29.7890   20.2080 C   0  0  0  0  0  2  0  0  0  0  0  0
  -24.6840  -31.0620   22.1390 N   0  0  0  0  0  0  0  0  0  0  0  0
  -23.5170  -32.1490   23.7610 O   0  0  0  0  0  0  0  0  0  0  0  0
  -22.7500  -29.4590   22.5420 C   0  0  0  0  0  0  0  0  0  0  0  0
  -21.4240  -29.2840   22.4080 N   0  0  0  0  0  0  0  0  0  0  0  0
  -23.4230  -28.8300   23.3640 O   0  0  0  0  0  0  0  0  0  0  0  0
  -20.9390  -29.8460   21.7230 H   0  0  0  0  0  0  0  0  0  0  0  0
  -18.0430  -28.0980   22.9080 C   0  0  0  0  0  0  0  0  0  0  0  0
  -20.6020  -28.3460   23.1760 C   0  0  0  0  0  3  0  0  0  0  0  0
  -20.6970  -26.9160   22.5930 C   0  0  0  0  0  2  0  0  0  0  0  0
  -19.5920  -26.6030   21.5790 C   0  0  0  0  0  2  0  0  0  0  0  0
  -18.2110  -26.7530   22.2220 C   0  0  0  0  0  2  0  0  0  0  0  0
  -19.1630  -28.8540   23.3400 C   0  0  0  0  0  0  0  0  0  0  0  0
  -18.9510  -30.1140   23.9380 C   0  0  0  0  0  3  0  0  0  0  0  0
  -17.6480  -30.6200   24.1080 C   0  0  0  0  0  3  0  0  0  0  0  0
  -16.5400  -29.8620   23.6890 C   0  0  0  0  0  3  0  0  0  0  0  0
  -16.7380  -28.6020   23.0970 C   0  0  0  0  0  3  0  0  0  0  0  0
  -25.8810  -32.5150   23.8700 C   0  0  0  0  0  3  0  0  0  0  0  0
  -26.3830  -31.7550   25.1590 C   0  0  1  0  0  0  0  0  0  0  0  0
  -25.2790  -31.5270   26.2170 C   0  0  0  0  0  1  0  0  0  0  0  0
  -26.9720  -30.3770   24.7850 C   0  0  0  0  0  1  0  0  0  0  0  0
  -27.5250  -32.5560   25.8280 C   0  0  0  0  0  1  0  0  0  0  0  0
  -25.5690  -33.9160   24.1920 N   0  0  0  0  0  0  0  0  0  0  0  0
  -25.9020  -34.9660   23.4300 C   0  0  0  0  0  0  0  0  0  0  0  0
  -26.5750  -34.8580   22.4020 O   0  0  0  0  0  0  0  0  0  0  0  0
  -24.9870  -34.0740   25.0010 H   0  0  0  0  0  0  0  0  0  0  0  0
  -24.1790  -36.7570   23.0470 C   0  0  0  0  0  1  0  0  0  0  0  0
  -25.4090  -36.3570   23.8780 C   0  0  0  0  0  3  0  0  0  0  0  0
  -27.5300  -37.2420   24.7360 C   0  0  0  0  0  1  0  0  0  0  0  0
  -26.4420  -37.4100   23.7770 N   0  0  0  0  0  0  0  0  0  0  0  0
  -26.0340  -38.3300   23.9220 H   0  0  0  0  0  0  0  0  0  0  0  0
  -30.1630  -17.3850   20.7630 C   0  0  0  0  0  2  0  0  0  0  0  0
  -30.5770  -14.7910   20.3600 C   0  0  0  0  0  0  0  0  0  0  0  0
  -30.4060  -12.5100   19.3500 C   0  0  0  0  0  2  0  0  0  0  0  0
  -29.4500  -12.5570   18.1360 C   0  0  0  0  0  2  0  0  0  0  0  0
  -27.9870  -12.3710   18.5870 C   0  0  0  0  0  2  0  0  0  0  0  0
  -27.6160  -13.2620   19.8020 C   0  0  0  0  0  3  0  0  0  0  0  0
  -28.6870  -13.1840   20.9100 C   0  0  0  0  0  2  0  0  0  0  0  0
  -29.9670  -13.5600   20.2950 N   0  0  0  0  0  0  0  0  0  0  0  0
  -31.7760  -14.8960   20.0840 O   0  0  0  0  0  0  0  0  0  0  0  0
  -29.7790  -15.9180   20.5360 N   0  0  0  0  0  0  0  0  0  0  0  0
  -28.7980  -15.7170   20.6560 H   0  0  0  0  0  0  0  0  0  0  0  0
  -25.2360  -13.8390   20.5600 C   0  0  0  0  0  0  0  0  0  0  0  0
  -24.1770  -13.0570   20.9350 C   0  0  0  0  0  0  0  0  0  0  0  0
  -24.6480  -11.7090   20.8930 C   0  0  0  0  0  0  0  0  0  0  0  0
  -26.2810  -12.9660   20.3070 N   0  0  0  0  0  0  0  0  0  0  0  0
  -25.9360  -11.6800   20.5750 N   0  0  0  0  0  0  0  0  0  0  0  0
  -23.9310  -10.4420   21.0790 C   0  0  0  0  0  0  0  0  0  0  0  0
  -24.3760   -9.4660   21.9990 C   0  0  0  0  0  3  0  0  0  0  0  0
  -23.6560   -8.2650   22.1740 C   0  0  0  0  0  3  0  0  0  0  0  0
  -22.4770   -8.0300   21.4280 C   0  0  0  0  0  0  0  0  0  0  0  0
  -22.0510   -8.9930   20.4950 C   0  0  0  0  0  3  0  0  0  0  0  0
  -22.7730  -10.1850   20.3180 C   0  0  0  0  0  3  0  0  0  0  0  0
  -21.7270   -6.8820   21.5130 O   0  0  0  0  0  0  0  0  0  0  0  0
  -21.6920   -6.1280   22.6590 C   0  0  0  0  0  0  0  0  0  0  0  0
  -21.2640   -6.6660   23.8930 C   0  0  0  0  0  3  0  0  0  0  0  0
  -21.1780   -5.8380   25.0290 C   0  0  0  0  0  3  0  0  0  0  0  0
  -21.5110   -4.4730   24.9350 C   0  0  0  0  0  0  0  0  0  0  0  0
  -21.9320   -3.9350   23.7060 C   0  0  0  0  0  3  0  0  0  0  0  0
  -22.0190   -4.7600   22.5710 C   0  0  0  0  0  0  0  0  0  0  0  0
  -22.4060   -4.2310   21.3850 F   0  0  0  0  0  0  0  0  0  0  0  0
  -21.4210   -3.6750   26.0240 F   0  0  0  0  0  0  0  0  0  0  0  0
  -22.7800  -13.5250   21.2190 C   0  0  0  0  0  0  0  0  0  0  0  0
  -22.0650  -12.8140   22.0820 N   0  0  0  0  0  0  0  0  0  0  0  0
  -22.3330  -14.5520   20.7110 O   0  0  0  0  0  0  0  0  0  0  0  0
  -22.4430  -11.9810   22.5090 H   0  0  0  0  0  0  0  0  0  0  0  0
  -21.1250  -13.1030   22.3180 H   0  0  0  0  0  0  0  0  0  0  0  0
  -25.3890  -15.2130   20.3900 N   0  0  0  0  0  0  0  0  0  0  0  0
  -24.6110  -15.8550   20.5010 H   0  0  0  0  0  0  0  0  0  0  0  0
  -26.2200  -15.6650   20.0350 H   0  0  0  0  0  0  0  0  0  0  0  0
  1  4  1  0
  2  5  2  0
  3  2  1  0
  3  1  2  0
  4  6  2  0
  4 55  1  0
  5 10  1  0
  5  6  1  0
  6  8  1  0
  7  3  1  0
  9 10  1  0
  9 13  1  0
 10 12  1  0
 11  9  2  0
 14 13  1  0
 15 26  2  0
 16 14  1  0
 16 21  1  0
 17 25  1  0
 17 27  1  0
 18 24  1  0
 18 20  1  0
 19 25  1  0
 20 21  2  0
 20 19  1  0
 22 16  2  0
 23 22  1  0
 23 18  2  0
 24 17  1  0
 25 15  1  0
 27 29  2  0
 28 27  1  0
 30 28  1  0
 31 40  2  0
 31 36  1  0
 32 28  1  0
 32 36  1  0
 33 32  1  0
 34 35  1  0
 34 33  1  0
 35 31  1  0
 36 37  2  0
 37 38  1  0
 39 38  2  0
 40 39  1  0
 41 15  1  0
 41 46  1  0
 41 42  1  0
 42 45  1  1
 42 43  1  0
 44 42  1  0
 46 49  1  0
 47 51  1  0
 47 46  1  0
 48 47  2  0
 51 50  1  0
 53 51  1  0
 53 54  1  0
 53 52  1  0
 56 64  1  0
 57 62  1  0
 58 59  1  0
 58 57  1  0
 60 59  1  0
 60 69  1  0
 60 61  1  0
 62 56  1  0
 62 61  1  0
 63 56  2  0
 64 65  1  0
 64 55  1  0
 66 67  2  0
 67 86  1  0
 68 67  1  0
 68 71  1  0
 69 66  1  0
 69 70  1  0
 70 68  2  0
 71 72  1  0
 72 73  2  0
 74 77  1  0
 74 73  1  0
 75 74  2  0
 76 75  1  0
 76 71  2  0
 77 78  1  0
 78 79  1  0
 79 80  2  0
 81 80  1  0
 81 85  1  0
 82 81  2  0
 83 78  2  0
 83 82  1  0
 84 83  1  0
 86 87  1  0
 87 90  1  0
 87 89  1  0
 88 86  2  0
 91 92  1  0
 91 66  1  0
 93 91  1  0
M  ISO  4  13 101  14 101  56 100  64 100
M  END
>  <TORSDO>  (22) 
F 19

>  <SCORE>  (22) 
-14.559

>  <name>  (22) 
22

>  <ligand_id>  (22) 
22

>  <original_smiles>  (22) 
[H]c1c([H])c([H])c2c(c1[H])C([H])([H])C([H])([H])C([H])([H])C2([H])N([H])C(=O)C1([H])N(C(=O)C([H])(N([H])C(=O)C([H])(N([H])C([H])([H])[H])C([H])([H])[H])C(C([H])([H])[H])(C([H])([H])[H])C([H])([H])[H])C([H])([H])c2c([H])c(OC([H])([H])C(=O)N([H])c3c([H])c(C([H])([H])[H])c([H])c(C([H])([H])N([H])C(=O)N4C([H])([H])C([H])([H])C([H])([H])C([H])(n5nc(-c6c([H])c([H])c(Oc7c([H])c([H])c(F)c([H])c7F)c([H])c6[H])c(C(=O)N([H])[H])c5N([H])[H])C4([H])[H])c3F)c([H])c([H])c2C1([H])[H]

>  <smiles>  (22) 
[H]c1c([H])c([H])c2c(c1[H])C([H])([H])C([H])([H])C([H])([H])C2([H])N([H])C(=O)C1([H])N(C(=O)C([H])(N([H])C(=O)C([H])(N([H])C([H])([H])[H])C([H])([H])[H])C(C([H])([H])[H])(C([H])([H])[H])C([H])([H])[H])C([H])([H])c2c([H])c(OC([H])([H])C(=O)N([H])c3c([H])c(C([H])([H])[H])c([H])c(C([H])([H])N([H])C(=O)N4C([H])([H])C([H])([H])C([H])([H])C([H])(n5nc(-c6c([H])c([H])c(Oc7c([H])c([H])c(F)c([H])c7F)c([H])c6[H])c(C(=O)N([H])[H])c5N([H])[H])C4([H])[H])c3F)c([H])c([H])c2C1([H])[H]

$$$$
23:0:0
     RDKit          3D

 97106  0  0  1  0  0  0  0  0999 V2000
  -31.0110  -21.9250   21.4250 C   0  0  0  0  0  0  0  0  0  0  0  0
  -31.1780  -23.4310   21.6840 C   0  0  0  0  0  2  0  0  0  0  0  0
  -29.9260  -24.2610   21.3870 C   0  0  0  0  0  2  0  0  0  0  0  0
  -29.1770  -22.4370   19.8200 C   0  0  0  0  0  2  0  0  0  0  0  0
  -29.4690  -24.0030   19.9560 C   0  0  0  0  0  3  0  0  0  0  0  0
  -30.1580  -21.4790   20.4590 N   0  0  0  0  0  0  0  0  0  0  0  0
  -31.7010  -21.1660   22.1160 O   0  0  0  0  0  0  0  0  0  0  0  0
  -28.9640  -19.2840   20.7380 C   0  0  0  0  0  3  0  0  0  0  0  0
  -31.1640  -17.8150   19.8040 C   0  0  0  0  0  3  0  0  0  0  0  0
  -30.0820  -20.0200   20.2700 C   0  0  0  0  0  0  0  0  0  0  0  0
  -31.1760  -19.2450   19.7700 C   0  0  0  0  0  0  0  0  0  0  0  0
  -30.0670  -17.0860   20.3380 C   0  0  0  0  0  0  0  0  0  0  0  0
  -28.9610  -17.8590   20.7740 C   0  0  0  0  0  0  0  0  0  0  0  0
  -27.8750  -17.2150   21.2660 F   0  0  0  0  0  0  0  0  0  0  0  0
  -30.7070  -14.5980   19.9400 C   0  0  0  0  0  0  0  0  0  0  0  0
  -30.3840  -12.4000   18.8310 C   0  0  0  0  0  2  0  0  0  0  0  0
  -29.3520  -12.5910   17.6950 C   0  0  0  0  0  2  0  0  0  0  0  0
  -27.9120  -12.4460   18.2260 C   0  0  0  0  0  2  0  0  0  0  0  0
  -27.6660  -13.2730   19.5170 C   0  0  0  0  0  3  0  0  0  0  0  0
  -28.7990  -13.0480   20.5440 C   0  0  0  0  0  2  0  0  0  0  0  0
  -30.0720  -13.3860   19.8850 N   0  0  0  0  0  0  0  0  0  0  0  0
  -31.8280  -14.7610   19.4470 O   0  0  0  0  0  0  0  0  0  0  0  0
  -29.9630  -15.6300   20.4370 N   0  0  0  0  0  0  0  0  0  0  0  0
  -29.1250  -15.3220   20.9080 H   0  0  0  0  0  0  0  0  0  0  0  0
  -25.3440  -13.8970   20.4270 C   0  0  0  0  0  0  0  0  0  0  0  0
  -24.2890  -13.1340   20.8490 C   0  0  0  0  0  0  0  0  0  0  0  0
  -24.7180  -11.7760   20.7400 C   0  0  0  0  0  0  0  0  0  0  0  0
  -26.3480  -13.0050   20.0890 N   0  0  0  0  0  0  0  0  0  0  0  0
  -25.9820  -11.7210   20.3360 N   0  0  0  0  0  0  0  0  0  0  0  0
  -23.9800  -10.5220   20.9450 C   0  0  0  0  0  0  0  0  0  0  0  0
  -24.4230   -9.5470   21.8650 C   0  0  0  0  0  3  0  0  0  0  0  0
  -23.6870   -8.3570   22.0560 C   0  0  0  0  0  3  0  0  0  0  0  0
  -22.4950   -8.1350   21.3280 C   0  0  0  0  0  0  0  0  0  0  0  0
  -22.0720   -9.0980   20.3940 C   0  0  0  0  0  3  0  0  0  0  0  0
  -22.8080  -10.2790   20.2010 C   0  0  0  0  0  3  0  0  0  0  0  0
  -21.7290   -6.9990   21.4290 O   0  0  0  0  0  0  0  0  0  0  0  0
  -21.6380   -6.2950   22.6030 C   0  0  0  0  0  0  0  0  0  0  0  0
  -21.1800   -6.8930   23.7980 C   0  0  0  0  0  3  0  0  0  0  0  0
  -21.0360   -6.1150   24.9640 C   0  0  0  0  0  3  0  0  0  0  0  0
  -21.3410   -4.7400   24.9370 C   0  0  0  0  0  0  0  0  0  0  0  0
  -21.7910   -4.1420   23.7470 C   0  0  0  0  0  3  0  0  0  0  0  0
  -21.9360   -4.9180   22.5830 C   0  0  0  0  0  0  0  0  0  0  0  0
  -22.3510   -4.3320   21.4330 F   0  0  0  0  0  0  0  0  0  0  0  0
  -21.1950   -3.9910   26.0540 F   0  0  0  0  0  0  0  0  0  0  0  0
  -22.9270  -13.6290   21.2400 C   0  0  0  0  0  0  0  0  0  0  0  0
  -22.2580  -12.9280   22.1490 N   0  0  0  0  0  0  0  0  0  0  0  0
  -22.4670  -14.6700   20.7740 O   0  0  0  0  0  0  0  0  0  0  0  0
  -22.6440  -12.0840   22.5460 H   0  0  0  0  0  0  0  0  0  0  0  0
  -21.3460  -13.2400   22.4520 H   0  0  0  0  0  0  0  0  0  0  0  0
  -25.5260  -15.2700   20.2820 N   0  0  0  0  0  0  0  0  0  0  0  0
  -24.7920  -15.9370   20.4910 H   0  0  0  0  0  0  0  0  0  0  0  0
  -26.3730  -15.7080   19.9460 H   0  0  0  0  0  0  0  0  0  0  0  0
  -32.2990  -19.8760   19.2360 N   0  0  0  0  0  0  0  0  0  0  0  0
  -33.1480  -19.3330   19.1080 H   0  0  0  0  0  0  0  0  0  0  0  0
  -32.4870  -20.8400   19.4900 H   0  0  0  0  0  0  0  0  0  0  0  0
  -28.3080  -25.0020   19.5330 C   0  0  0  0  0  2  0  0  0  0  0  0
  -28.4730  -26.4560   19.7580 O   0  0  0  0  0  0  0  0  0  0  0  0
  -24.5640  -31.5690   23.0290 C   0  0  0  0  0  0  0  0  0  0  0  0
  -27.3170  -27.2530   19.7580 C   0  0  0  0  0  0  0  0  0  0  0  0
  -23.3990  -30.2080   21.3290 C   0  0  0  0  0  3  0  0  0  0  0  0
  -24.8940  -28.7730   19.8350 C   0  0  0  0  0  0  0  0  0  0  0  0
  -25.9250  -30.6210   21.1530 C   0  0  0  0  0  2  0  0  0  0  0  0
  -26.0490  -29.2780   20.4450 C   0  0  0  0  0  0  0  0  0  0  0  0
  -27.2620  -28.5300   20.3970 C   0  0  0  0  0  3  0  0  0  0  0  0
  -26.1310  -26.7990   19.1330 C   0  0  0  0  0  3  0  0  0  0  0  0
  -24.9350  -27.5380   19.1710 C   0  0  0  0  0  3  0  0  0  0  0  0
  -23.6300  -29.6030   19.9210 C   0  0  0  0  0  2  0  0  0  0  0  0
  -24.6480  -30.8140   21.8950 N   0  0  0  0  0  0  0  0  0  0  0  0
  -23.4740  -31.7860   23.5790 O   0  0  0  0  0  0  0  0  0  0  0  0
  -22.7730  -29.1290   22.2440 C   0  0  0  0  0  0  0  0  0  0  0  0
  -21.4500  -28.9250   22.1210 N   0  0  0  0  0  0  0  0  0  0  0  0
  -23.4760  -28.4790   23.0220 O   0  0  0  0  0  0  0  0  0  0  0  0
  -20.9380  -29.5060   21.4720 H   0  0  0  0  0  0  0  0  0  0  0  0
  -18.1030  -27.6550   22.6340 C   0  0  0  0  0  0  0  0  0  0  0  0
  -20.6640  -27.9310   22.8550 C   0  0  0  0  0  3  0  0  0  0  0  0
  -20.7670  -26.5380   22.1920 C   0  0  0  0  0  2  0  0  0  0  0  0
  -19.6440  -26.2620   21.1870 C   0  0  0  0  0  2  0  0  0  0  0  0
  -18.2770  -26.3520   21.8730 C   0  0  0  0  0  2  0  0  0  0  0  0
  -19.2230  -28.4040   23.0820 C   0  0  0  0  0  0  0  0  0  0  0  0
  -19.0060  -29.6250   23.7550 C   0  0  0  0  0  3  0  0  0  0  0  0
  -17.7010  -30.1020   23.9810 C   0  0  0  0  0  3  0  0  0  0  0  0
  -16.5940  -29.3510   23.5490 C   0  0  0  0  0  3  0  0  0  0  0  0
  -16.7970  -28.1280   22.8830 C   0  0  0  0  0  3  0  0  0  0  0  0
  -25.8270  -32.2150   23.6750 C   0  0  0  0  0  3  0  0  0  0  0  0
  -26.3580  -31.4170   24.9300 C   0  0  1  0  0  0  0  0  0  0  0  0
  -25.2680  -31.1200   25.9860 C   0  0  0  0  0  1  0  0  0  0  0  0
  -26.9740  -30.0660   24.4980 C   0  0  0  0  0  1  0  0  0  0  0  0
  -27.4880  -32.2170   25.6190 C   0  0  0  0  0  1  0  0  0  0  0  0
  -25.4830  -33.5930   24.0470 N   0  0  0  0  0  0  0  0  0  0  0  0
  -25.7800  -34.6760   23.3140 C   0  0  0  0  0  0  0  0  0  0  0  0
  -26.4430  -34.6190   22.2760 O   0  0  0  0  0  0  0  0  0  0  0  0
  -24.8950  -33.7090   24.8590 H   0  0  0  0  0  0  0  0  0  0  0  0
  -23.9930  -36.4220   23.0300 C   0  0  0  0  0  1  0  0  0  0  0  0
  -25.2580  -36.0380   23.8120 C   0  0  0  0  0  3  0  0  0  0  0  0
  -27.3770  -36.9690   24.6350 C   0  0  0  0  0  1  0  0  0  0  0  0
  -26.2560  -37.1250   23.7100 N   0  0  0  0  0  0  0  0  0  0  0  0
  -25.8240  -38.0280   23.8840 H   0  0  0  0  0  0  0  0  0  0  0  0
  1  2  1  0
  1  7  2  0
  3  2  1  0
  4  5  1  0
  4  6  1  0
  5 56  1  0
  5  3  1  0
  6  1  1  0
  8 13  1  0
  9 12  1  0
 10  6  1  0
 10  8  2  0
 11  9  2  0
 11 10  1  0
 12 23  1  0
 12 13  2  0
 13 14  1  0
 15 23  1  0
 16 21  1  0
 17 18  1  0
 17 16  1  0
 19 18  1  0
 19 28  1  0
 19 20  1  0
 21 15  1  0
 21 20  1  0
 22 15  2  0
 23 24  1  0
 25 26  2  0
 26 45  1  0
 27 26  1  0
 27 30  1  0
 28 29  1  0
 28 25  1  0
 29 27  2  0
 30 31  1  0
 31 32  2  0
 33 36  1  0
 33 32  1  0
 34 33  2  0
 35 34  1  0
 35 30  2  0
 36 37  1  0
 37 38  1  0
 38 39  2  0
 40 39  1  0
 40 44  1  0
 41 40  2  0
 42 37  2  0
 42 41  1  0
 43 42  1  0
 45 46  1  0
 46 49  1  0
 46 48  1  0
 47 45  2  0
 50 25  1  0
 50 51  1  0
 52 50  1  0
 53 55  1  0
 53 11  1  0
 54 53  1  0
 56 57  1  0
 57 59  1  0
 58 69  2  0
 59 64  1  0
 60 68  1  0
 60 70  1  0
 61 67  1  0
 61 63  1  0
 62 68  1  0
 63 62  1  0
 64 63  2  0
 65 66  1  0
 65 59  2  0
 66 61  2  0
 67 60  1  0
 68 58  1  0
 70 72  2  0
 71 70  1  0
 73 71  1  0
 74 83  2  0
 74 79  1  0
 75 71  1  0
 75 79  1  0
 76 75  1  0
 77 78  1  0
 77 76  1  0
 78 74  1  0
 79 80  2  0
 80 81  1  0
 82 81  2  0
 83 82  1  0
 84 58  1  0
 84 89  1  0
 84 85  1  0
 85 88  1  1
 85 86  1  0
 87 85  1  0
 89 92  1  0
 90 94  1  0
 90 89  1  0
 91 90  2  0
 94 93  1  0
 96 94  1  0
 96 97  1  0
 96 95  1  0
M  ISO  4  15 100  23 100  56 101  57 101
M  END
>  <TORSDO>  (23) 
F 19

>  <SCORE>  (23) 
-13.305

>  <name>  (23) 
23

>  <ligand_id>  (23) 
23

>  <original_smiles>  (23) 
[H]c1c([H])c([H])c2c(c1[H])C([H])([H])C([H])([H])C([H])([H])C2([H])N([H])C(=O)C1([H])N(C(=O)C([H])(N([H])C(=O)C([H])(N([H])C([H])([H])[H])C([H])([H])[H])C(C([H])([H])[H])(C([H])([H])[H])C([H])([H])[H])C([H])([H])c2c([H])c(OC([H])([H])C3([H])C([H])([H])N(c4c([H])c(F)c(N([H])C(=O)N5C([H])([H])C([H])([H])C([H])([H])C([H])(n6nc(-c7c([H])c([H])c(Oc8c([H])c([H])c(F)c([H])c8F)c([H])c7[H])c(C(=O)N([H])[H])c6N([H])[H])C5([H])[H])c([H])c4N([H])[H])C(=O)C([H])([H])C3([H])[H])c([H])c([H])c2C1([H])[H]

>  <smiles>  (23) 
[H]c1c([H])c([H])c2c(c1[H])C([H])([H])C([H])([H])C([H])([H])C2([H])N([H])C(=O)C1([H])N(C(=O)C([H])(N([H])C(=O)C([H])(N([H])C([H])([H])[H])C([H])([H])[H])C(C([H])([H])[H])(C([H])([H])[H])C([H])([H])[H])C([H])([H])c2c([H])c(OC([H])([H])C3([H])C([H])([H])N(c4c([H])c(F)c(N([H])C(=O)N5C([H])([H])C([H])([H])C([H])([H])C([H])(n6nc(-c7c([H])c([H])c(Oc8c([H])c([H])c(F)c([H])c8F)c([H])c7[H])c(C(=O)N([H])[H])c6N([H])[H])C5([H])[H])c([H])c4N([H])[H])C(=O)C([H])([H])C3([H])[H])c([H])c([H])c2C1([H])[H]

$$$$
24:0:0
     RDKit          3D

 96104  0  0  1  0  0  0  0  0999 V2000
  -31.4500  -20.4680   21.2240 C   0  0  0  0  0  3  0  0  0  0  0  0
  -31.0090  -21.7860   20.9610 C   0  0  0  0  0  3  0  0  0  0  0  0
  -29.1550  -19.6600   21.1240 C   0  0  0  0  0  3  0  0  0  0  0  0
  -30.5340  -19.3860   21.3050 C   0  0  0  0  0  0  0  0  0  0  0  0
  -29.6310  -22.0440   20.7620 C   0  0  0  0  0  0  0  0  0  0  0  0
  -28.7150  -20.9720   20.8510 C   0  0  0  0  0  0  0  0  0  0  0  0
  -27.3930  -21.2100   20.6630 F   0  0  0  0  0  0  0  0  0  0  0  0
  -29.6240  -24.5040   20.1320 C   0  0  0  0  0  0  0  0  0  0  0  0
  -29.0690  -23.3080   20.4220 N   0  0  0  0  0  0  0  0  0  0  0  0
  -30.7880  -24.8180   20.3910 O   0  0  0  0  0  0  0  0  0  0  0  0
  -28.0720  -23.2680   20.2550 H   0  0  0  0  0  0  0  0  0  0  0  0
  -28.6720  -25.4850   19.4170 C   0  0  0  0  0  2  0  0  0  0  0  0
  -28.6450  -26.8150   19.9880 O   0  0  0  0  0  0  0  0  0  0  0  0
  -24.5530  -31.7450   23.1340 C   0  0  0  0  0  0  0  0  0  0  0  0
  -27.4400  -27.5100   19.9500 C   0  0  0  0  0  0  0  0  0  0  0  0
  -23.4330  -30.3410   21.4410 C   0  0  0  0  0  3  0  0  0  0  0  0
  -24.9730  -28.9230   19.9870 C   0  0  0  0  0  0  0  0  0  0  0  0
  -25.9470  -30.8100   21.2950 C   0  0  0  0  0  2  0  0  0  0  0  0
  -26.1010  -29.4700   20.6080 C   0  0  0  0  0  0  0  0  0  0  0  0
  -27.3320  -28.7660   20.5990 C   0  0  0  0  0  3  0  0  0  0  0  0
  -26.2880  -27.0090   19.2910 C   0  0  0  0  0  3  0  0  0  0  0  0
  -25.0610  -27.6880   19.3340 C   0  0  0  0  0  3  0  0  0  0  0  0
  -23.6900  -29.7200   20.0430 C   0  0  0  0  0  2  0  0  0  0  0  0
  -24.6610  -30.9800   22.0140 N   0  0  0  0  0  0  0  0  0  0  0  0
  -23.4530  -31.9520   23.6670 O   0  0  0  0  0  0  0  0  0  0  0  0
  -22.8220  -29.2610   22.3590 C   0  0  0  0  0  0  0  0  0  0  0  0
  -21.5070  -29.0230   22.2120 N   0  0  0  0  0  0  0  0  0  0  0  0
  -23.5280  -28.6350   23.1570 O   0  0  0  0  0  0  0  0  0  0  0  0
  -21.0010  -29.5660   21.5260 H   0  0  0  0  0  0  0  0  0  0  0  0
  -18.1860  -27.6870   22.6680 C   0  0  0  0  0  0  0  0  0  0  0  0
  -20.7320  -28.0280   22.9480 C   0  0  0  0  0  3  0  0  0  0  0  0
  -20.8890  -26.6270   22.3140 C   0  0  0  0  0  2  0  0  0  0  0  0
  -19.7950  -26.2980   21.2920 C   0  0  0  0  0  2  0  0  0  0  0  0
  -18.4120  -26.3710   21.9440 C   0  0  0  0  0  2  0  0  0  0  0  0
  -19.2780  -28.4730   23.1260 C   0  0  0  0  0  0  0  0  0  0  0  0
  -19.0140  -29.7000   23.7680 C   0  0  0  0  0  3  0  0  0  0  0  0
  -17.6950  -30.1430   23.9640 C   0  0  0  0  0  3  0  0  0  0  0  0
  -16.6170  -29.3580   23.5210 C   0  0  0  0  0  3  0  0  0  0  0  0
  -16.8630  -28.1350   22.8740 C   0  0  0  0  0  3  0  0  0  0  0  0
  -25.8020  -32.4160   23.7840 C   0  0  0  0  0  3  0  0  0  0  0  0
  -26.3310  -31.6480   25.0580 C   0  0  1  0  0  0  0  0  0  0  0  0
  -25.2280  -31.3520   26.1000 C   0  0  0  0  0  1  0  0  0  0  0  0
  -26.9840  -30.3040   24.6610 C   0  0  0  0  0  1  0  0  0  0  0  0
  -27.4320  -32.4840   25.7520 C   0  0  0  0  0  1  0  0  0  0  0  0
  -25.4340  -33.7960   24.1260 N   0  0  0  0  0  0  0  0  0  0  0  0
  -25.7330  -34.8690   23.3830 C   0  0  0  0  0  0  0  0  0  0  0  0
  -26.4230  -34.8090   22.3630 O   0  0  0  0  0  0  0  0  0  0  0  0
  -24.8260  -33.9190   24.9240 H   0  0  0  0  0  0  0  0  0  0  0  0
  -23.9330  -36.5870   23.0250 C   0  0  0  0  0  1  0  0  0  0  0  0
  -25.1790  -36.2290   23.8500 C   0  0  0  0  0  3  0  0  0  0  0  0
  -27.2570  -37.1970   24.7300 C   0  0  0  0  0  1  0  0  0  0  0  0
  -26.1650  -37.3270   23.7670 N   0  0  0  0  0  0  0  0  0  0  0  0
  -25.7140  -38.2260   23.9200 H   0  0  0  0  0  0  0  0  0  0  0  0
  -31.0350  -17.9600   21.6280 C   0  0  0  0  0  3  0  0  0  0  0  0
  -31.0490  -14.6290   19.8810 C   0  0  0  0  0  0  0  0  0  0  0  0
  -30.5690  -12.4630   18.7960 C   0  0  0  0  0  2  0  0  0  0  0  0
  -29.5640  -12.6850   17.6420 C   0  0  0  0  0  2  0  0  0  0  0  0
  -28.1220  -12.5770   18.1670 C   0  0  0  0  0  2  0  0  0  0  0  0
  -27.8840  -13.4270   19.4430 C   0  0  0  0  0  3  0  0  0  0  0  0
  -29.0120  -13.2400   20.4870 C   0  0  0  0  0  2  0  0  0  0  0  0
  -30.3140  -13.4780   19.8390 N   0  0  0  0  0  0  0  0  0  0  0  0
  -32.0910  -14.7340   19.2260 O   0  0  0  0  0  0  0  0  0  0  0  0
  -30.9150  -16.9690   20.4290 C   0  0  0  0  0  0  0  0  0  0  0  0
  -30.5840  -15.6650   20.6250 N   0  0  0  0  0  0  0  0  0  0  0  0
  -31.1760  -17.4130   19.3040 O   0  0  0  0  0  0  0  0  0  0  0  0
  -29.9920  -15.4480   21.4070 H   0  0  0  0  0  0  0  0  0  0  0  0
  -25.5760  -14.0610   20.3760 C   0  0  0  0  0  0  0  0  0  0  0  0
  -24.5100  -13.3070   20.7910 C   0  0  0  0  0  0  0  0  0  0  0  0
  -24.9150  -11.9450   20.6570 C   0  0  0  0  0  0  0  0  0  0  0  0
  -26.5650  -13.1620   20.0170 N   0  0  0  0  0  0  0  0  0  0  0  0
  -26.1770  -11.8800   20.2460 N   0  0  0  0  0  0  0  0  0  0  0  0
  -24.1610  -10.6980   20.8490 C   0  0  0  0  0  0  0  0  0  0  0  0
  -24.6050   -9.6980   21.7390 C   0  0  0  0  0  3  0  0  0  0  0  0
  -23.8560   -8.5150   21.9190 C   0  0  0  0  0  3  0  0  0  0  0  0
  -22.6490   -8.3230   21.2070 C   0  0  0  0  0  0  0  0  0  0  0  0
  -22.2240   -9.3110   20.3040 C   0  0  0  0  0  3  0  0  0  0  0  0
  -22.9720  -10.4840   20.1240 C   0  0  0  0  0  3  0  0  0  0  0  0
  -21.8720   -7.1920   21.2960 O   0  0  0  0  0  0  0  0  0  0  0  0
  -21.8080   -6.4520   22.4490 C   0  0  0  0  0  0  0  0  0  0  0  0
  -21.3920   -7.0180   23.6730 C   0  0  0  0  0  3  0  0  0  0  0  0
  -21.2790   -6.2070   24.8200 C   0  0  0  0  0  3  0  0  0  0  0  0
  -21.5650   -4.8300   24.7420 C   0  0  0  0  0  0  0  0  0  0  0  0
  -21.9680   -4.2650   23.5190 C   0  0  0  0  0  3  0  0  0  0  0  0
  -22.0870   -5.0740   22.3760 C   0  0  0  0  0  0  0  0  0  0  0  0
  -22.4600   -4.5230   21.1960 F   0  0  0  0  0  0  0  0  0  0  0  0
  -21.4450   -4.0460   25.8380 F   0  0  0  0  0  0  0  0  0  0  0  0
  -23.1590  -13.8120   21.2040 C   0  0  0  0  0  0  0  0  0  0  0  0
  -22.4920  -13.0960   22.1000 N   0  0  0  0  0  0  0  0  0  0  0  0
  -22.7110  -14.8730   20.7710 O   0  0  0  0  0  0  0  0  0  0  0  0
  -22.8730  -12.2350   22.4650 H   0  0  0  0  0  0  0  0  0  0  0  0
  -21.5880  -13.4090   22.4240 H   0  0  0  0  0  0  0  0  0  0  0  0
  -25.7840  -15.4310   20.2480 N   0  0  0  0  0  0  0  0  0  0  0  0
  -25.0730  -16.1250   20.4570 H   0  0  0  0  0  0  0  0  0  0  0  0
  -26.6330  -15.8310   19.8700 H   0  0  0  0  0  0  0  0  0  0  0  0
  -30.9230  -18.3660   24.1700 C   0  0  0  0  0  1  0  0  0  0  0  0
  -30.5560  -17.4290   23.0030 C   0  0  0  0  0  2  0  0  0  0  0  0
  1  4  1  0
  2  1  2  0
  3  4  2  0
  4 54  1  0
  5  6  2  0
  5  2  1  0
  6  3  1  0
  7  6  1  0
  8 10  2  0
  8  9  1  0
  9  5  1  0
 11  9  1  0
 12 13  1  0
 12  8  1  0
 14 25  2  0
 15 13  1  0
 15 20  1  0
 16 24  1  0
 16 26  1  0
 17 23  1  0
 17 19  1  0
 18 24  1  0
 19 18  1  0
 20 19  2  0
 21 22  1  0
 21 15  2  0
 22 17  2  0
 23 16  1  0
 24 14  1  0
 26 28  2  0
 27 26  1  0
 29 27  1  0
 30 39  2  0
 30 35  1  0
 31 27  1  0
 31 35  1  0
 32 31  1  0
 33 34  1  0
 33 32  1  0
 34 30  1  0
 35 36  2  0
 36 37  1  0
 38 37  2  0
 39 38  1  0
 40 14  1  0
 40 45  1  0
 40 41  1  0
 41 44  1  1
 41 42  1  0
 43 41  1  0
 45 48  1  0
 46 50  1  0
 46 45  1  0
 47 46  2  0
 50 49  1  0
 52 50  1  0
 52 53  1  0
 52 51  1  0
 54 96  1  0
 55 64  1  0
 56 61  1  0
 57 58  1  0
 57 56  1  0
 59 58  1  0
 59 70  1  0
 59 60  1  0
 61 55  1  0
 61 60  1  0
 62 55  2  0
 63 64  1  0
 63 54  1  0
 64 66  1  0
 65 63  2  0
 67 68  2  0
 68 87  1  0
 69 68  1  0
 69 72  1  0
 70 71  1  0
 70 67  1  0
 71 69  2  0
 72 73  1  0
 73 74  2  0
 75 78  1  0
 75 74  1  0
 76 75  2  0
 77 76  1  0
 77 72  2  0
 78 79  1  0
 79 80  1  0
 80 81  2  0
 82 81  1  0
 82 86  1  0
 83 82  2  0
 84 79  2  0
 84 83  1  0
 85 84  1  0
 87 88  1  0
 88 91  1  0
 88 90  1  0
 89 87  2  0
 92 67  1  0
 92 93  1  0
 94 92  1  0
 96 95  1  0
M  ISO  4  12 101  13 101  55 100  64 100
M  END
>  <TORSDO>  (24) 
F 20

>  <SCORE>  (24) 
-12.313

>  <name>  (24) 
24

>  <ligand_id>  (24) 
24

>  <original_smiles>  (24) 
[H]c1c([H])c([H])c2c(c1[H])C([H])([H])C([H])([H])C([H])([H])C2([H])N([H])C(=O)C1([H])N(C(=O)C([H])(N([H])C(=O)C([H])(N([H])C([H])([H])[H])C([H])([H])[H])C(C([H])([H])[H])(C([H])([H])[H])C([H])([H])[H])C([H])([H])c2c([H])c(OC([H])([H])C(=O)N([H])c3c([H])c([H])c(C([H])(C(=O)N([H])C(=O)N4C([H])([H])C([H])([H])C([H])([H])C([H])(n5nc(-c6c([H])c([H])c(Oc7c([H])c([H])c(F)c([H])c7F)c([H])c6[H])c(C(=O)N([H])[H])c5N([H])[H])C4([H])[H])C([H])([H])C([H])([H])[H])c([H])c3F)c([H])c([H])c2C1([H])[H]

>  <smiles>  (24) 
[H]c1c([H])c([H])c2c(c1[H])C([H])([H])C([H])([H])C([H])([H])C2([H])N([H])C(=O)C1([H])N(C(=O)C([H])(N([H])C(=O)C([H])(N([H])C([H])([H])[H])C([H])([H])[H])C(C([H])([H])[H])(C([H])([H])[H])C([H])([H])[H])C([H])([H])c2c([H])c(OC([H])([H])C(=O)N([H])c3c([H])c([H])c(C([H])(C(=O)N([H])C(=O)N4C([H])([H])C([H])([H])C([H])([H])C([H])(n5nc(-c6c([H])c([H])c(Oc7c([H])c([H])c(F)c([H])c7F)c([H])c6[H])c(C(=O)N([H])[H])c5N([H])[H])C4([H])[H])C([H])([H])C([H])([H])[H])c([H])c3F)c([H])c([H])c2C1([H])[H]

$$$$
25:0:0
     RDKit          3D

 96105  0  0  1  0  0  0  0  0999 V2000
  -27.1080  -23.6030   18.6980 C   0  0  0  0  0  3  0  0  0  0  0  0
  -28.3290  -24.2570   19.0500 C   0  0  0  0  0  0  0  0  0  0  0  0
  -29.2060  -23.2470   19.4100 C   0  0  0  0  0  0  0  0  0  0  0  0
  -27.2760  -22.2630   18.8630 C   0  0  0  0  0  0  0  0  0  0  0  0
  -30.6350  -23.3700   19.8510 C   0  0  0  0  0  1  0  0  0  0  0  0
  -28.5740  -21.9980   19.2680 N   0  0  0  0  0  0  0  0  0  0  0  0
  -30.9400  -19.0580   19.1430 C   0  0  0  0  0  3  0  0  0  0  0  0
  -30.3810  -20.3370   18.9150 C   0  0  0  0  0  3  0  0  0  0  0  0
  -28.4300  -19.6960   20.1970 C   0  0  0  0  0  3  0  0  0  0  0  0
  -30.2680  -18.0850   19.9170 C   0  0  0  0  0  0  0  0  0  0  0  0
  -28.9730  -18.4010   20.4040 C   0  0  0  0  0  0  0  0  0  0  0  0
  -29.1320  -20.6880   19.4700 C   0  0  0  0  0  0  0  0  0  0  0  0
  -28.1530  -17.3810   21.1700 C   0  0  0  0  0  1  0  0  0  0  0  0
  -31.0160  -16.7980   20.3230 C   0  0  0  0  0  2  0  0  0  0  0  0
  -30.9930  -14.4090   19.5600 C   0  0  0  0  0  0  0  0  0  0  0  0
  -30.5110  -12.2040   18.5660 C   0  0  0  0  0  2  0  0  0  0  0  0
  -29.4740  -12.3730   17.4360 C   0  0  0  0  0  2  0  0  0  0  0  0
  -28.0380  -12.3470   17.9960 C   0  0  0  0  0  2  0  0  0  0  0  0
  -27.8510  -13.2610   19.2370 C   0  0  0  0  0  3  0  0  0  0  0  0
  -28.9880  -13.0470   20.2600 C   0  0  0  0  0  2  0  0  0  0  0  0
  -30.2610  -13.2630   19.5550 N   0  0  0  0  0  0  0  0  0  0  0  0
  -32.1080  -14.4840   19.0380 O   0  0  0  0  0  0  0  0  0  0  0  0
  -30.3760  -15.4980   20.0580 N   0  0  0  0  0  0  0  0  0  0  0  0
  -29.4330  -15.3710   20.3890 H   0  0  0  0  0  0  0  0  0  0  0  0
  -25.5880  -14.0360   20.1810 C   0  0  0  0  0  0  0  0  0  0  0  0
  -24.5020  -13.3430   20.6400 C   0  0  0  0  0  0  0  0  0  0  0  0
  -24.8490  -11.9610   20.5460 C   0  0  0  0  0  0  0  0  0  0  0  0
  -26.5340  -13.0800   19.8420 N   0  0  0  0  0  0  0  0  0  0  0  0
  -26.0980  -11.8250   20.1190 N   0  0  0  0  0  0  0  0  0  0  0  0
  -24.0450  -10.7550   20.7820 C   0  0  0  0  0  0  0  0  0  0  0  0
  -24.4660   -9.7510   21.6820 C   0  0  0  0  0  3  0  0  0  0  0  0
  -23.6650   -8.6100   21.9060 C   0  0  0  0  0  3  0  0  0  0  0  0
  -22.4300   -8.4660   21.2310 C   0  0  0  0  0  0  0  0  0  0  0  0
  -22.0260   -9.4580   20.3210 C   0  0  0  0  0  3  0  0  0  0  0  0
  -22.8270  -10.5890   20.0940 C   0  0  0  0  0  3  0  0  0  0  0  0
  -21.5990   -7.3810   21.3680 O   0  0  0  0  0  0  0  0  0  0  0  0
  -21.5530   -6.6500   22.5290 C   0  0  0  0  0  0  0  0  0  0  0  0
  -21.2410   -7.2440   23.7710 C   0  0  0  0  0  3  0  0  0  0  0  0
  -21.1380   -6.4450   24.9270 C   0  0  0  0  0  3  0  0  0  0  0  0
  -21.3350   -5.0540   24.8420 C   0  0  0  0  0  0  0  0  0  0  0  0
  -21.6390   -4.4590   23.6040 C   0  0  0  0  0  3  0  0  0  0  0  0
  -21.7430   -5.2560   22.4500 C   0  0  0  0  0  0  0  0  0  0  0  0
  -22.0140   -4.6760   21.2560 F   0  0  0  0  0  0  0  0  0  0  0  0
  -21.2280   -4.2860   25.9510 F   0  0  0  0  0  0  0  0  0  0  0  0
  -23.1780  -13.9230   21.0480 C   0  0  0  0  0  0  0  0  0  0  0  0
  -22.4860  -13.2710   21.9750 N   0  0  0  0  0  0  0  0  0  0  0  0
  -22.7740  -14.9870   20.5810 O   0  0  0  0  0  0  0  0  0  0  0  0
  -22.8220  -12.4050   22.3720 H   0  0  0  0  0  0  0  0  0  0  0  0
  -21.5990  -13.6380   22.2910 H   0  0  0  0  0  0  0  0  0  0  0  0
  -25.8370  -15.3940   19.9980 N   0  0  0  0  0  0  0  0  0  0  0  0
  -25.1180  -16.0920   20.1620 H   0  0  0  0  0  0  0  0  0  0  0  0
  -26.6530  -15.7730   19.5330 H   0  0  0  0  0  0  0  0  0  0  0  0
  -26.3680  -21.2730   18.6490 O   0  0  0  0  0  0  0  0  0  0  0  0
  -25.5190  -21.6830   18.5240 H   0  0  0  0  0  0  0  0  0  0  0  0
  -28.6110  -25.7660   18.9200 C   0  0  0  0  0  2  0  0  0  0  0  0
  -28.3000  -26.6160   20.0500 O   0  0  0  0  0  0  0  0  0  0  0  0
  -24.4130  -31.7590   23.1710 C   0  0  0  0  0  0  0  0  0  0  0  0
  -27.1230  -27.3510   20.0510 C   0  0  0  0  0  0  0  0  0  0  0  0
  -23.2350  -30.3640   21.5030 C   0  0  0  0  0  3  0  0  0  0  0  0
  -24.7140  -28.8580   20.0740 C   0  0  0  0  0  0  0  0  0  0  0  0
  -25.7640  -30.7360   21.3400 C   0  0  0  0  0  2  0  0  0  0  0  0
  -25.8640  -29.3710   20.6850 C   0  0  0  0  0  0  0  0  0  0  0  0
  -27.0670  -28.6210   20.6820 C   0  0  0  0  0  3  0  0  0  0  0  0
  -25.9460  -26.8630   19.4470 C   0  0  0  0  0  3  0  0  0  0  0  0
  -24.7500  -27.5980   19.4570 C   0  0  0  0  0  3  0  0  0  0  0  0
  -23.4630  -29.7100   20.1160 C   0  0  0  0  0  2  0  0  0  0  0  0
  -24.4880  -30.9690   22.0600 N   0  0  0  0  0  0  0  0  0  0  0  0
  -23.3220  -32.0170   23.7020 O   0  0  0  0  0  0  0  0  0  0  0  0
  -22.5840  -29.3270   22.4450 C   0  0  0  0  0  0  0  0  0  0  0  0
  -21.2630  -29.1280   22.2950 N   0  0  0  0  0  0  0  0  0  0  0  0
  -23.2620  -28.7030   23.2670 O   0  0  0  0  0  0  0  0  0  0  0  0
  -20.7750  -29.6840   21.6040 H   0  0  0  0  0  0  0  0  0  0  0  0
  -17.9000  -27.8720   22.7260 C   0  0  0  0  0  0  0  0  0  0  0  0
  -20.4480  -28.1740   23.0460 C   0  0  0  0  0  3  0  0  0  0  0  0
  -20.5860  -26.7450   22.4700 C   0  0  0  0  0  2  0  0  0  0  0  0
  -19.5100  -26.4070   21.4350 C   0  0  0  0  0  2  0  0  0  0  0  0
  -18.1110  -26.5290   22.0480 C   0  0  0  0  0  2  0  0  0  0  0  0
  -18.9980  -28.6510   23.1790 C   0  0  0  0  0  0  0  0  0  0  0  0
  -18.7480  -29.9100   23.7700 C   0  0  0  0  0  3  0  0  0  0  0  0
  -17.4330  -30.3900   23.9100 C   0  0  0  0  0  3  0  0  0  0  0  0
  -16.3490  -29.6080   23.4740 C   0  0  0  0  0  3  0  0  0  0  0  0
  -16.5830  -28.3500   22.8880 C   0  0  0  0  0  3  0  0  0  0  0  0
  -25.6870  -32.3950   23.8090 C   0  0  0  0  0  3  0  0  0  0  0  0
  -26.1970  -31.6170   25.0830 C   0  0  1  0  0  0  0  0  0  0  0  0
  -25.0990  -31.3590   26.1400 C   0  0  0  0  0  1  0  0  0  0  0  0
  -26.7970  -30.2490   24.6800 C   0  0  0  0  0  1  0  0  0  0  0  0
  -27.3370  -32.4150   25.7620 C   0  0  0  0  0  1  0  0  0  0  0  0
  -25.3610  -33.7860   24.1480 N   0  0  0  0  0  0  0  0  0  0  0  0
  -25.6770  -34.8480   23.3960 C   0  0  0  0  0  0  0  0  0  0  0  0
  -26.3480  -34.7610   22.3640 O   0  0  0  0  0  0  0  0  0  0  0  0
  -24.7770  -33.9300   24.9610 H   0  0  0  0  0  0  0  0  0  0  0  0
  -23.9190  -36.6100   23.0510 C   0  0  0  0  0  1  0  0  0  0  0  0
  -25.1660  -36.2250   23.8630 C   0  0  0  0  0  3  0  0  0  0  0  0
  -27.2910  -37.1280   24.6960 C   0  0  0  0  0  1  0  0  0  0  0  0
  -26.1810  -37.2960   23.7610 N   0  0  0  0  0  0  0  0  0  0  0  0
  -25.7610  -38.2060   23.9330 H   0  0  0  0  0  0  0  0  0  0  0  0
  1  4  2  0
  1  2  1  0
  2  3  2  0
  3  5  1  0
  4  6  1  0
  6  3  1  0
  6 12  1  0
  7 10  1  0
  8  7  2  0
  8 12  1  0
  9 11  1  0
 10 14  1  0
 10 11  2  0
 11 13  1  0
 12  9  2  0
 15 23  1  0
 16 21  1  0
 17 18  1  0
 17 16  1  0
 19 18  1  0
 19 28  1  0
 19 20  1  0
 21 15  1  0
 21 20  1  0
 22 15  2  0
 23 14  1  0
 23 24  1  0
 25 26  2  0
 26 45  1  0
 27 26  1  0
 27 30  1  0
 28 29  1  0
 28 25  1  0
 29 27  2  0
 30 31  1  0
 31 32  2  0
 33 36  1  0
 33 32  1  0
 34 33  2  0
 35 34  1  0
 35 30  2  0
 36 37  1  0
 37 38  1  0
 38 39  2  0
 40 39  1  0
 40 44  1  0
 41 40  2  0
 42 37  2  0
 42 41  1  0
 43 42  1  0
 45 46  1  0
 46 49  1  0
 46 48  1  0
 47 45  2  0
 50 51  1  0
 50 25  1  0
 52 50  1  0
 53  4  1  0
 54 53  1  0
 55  2  1  0
 55 56  1  0
 56 58  1  0
 57 68  2  0
 58 63  1  0
 59 67  1  0
 59 69  1  0
 60 66  1  0
 60 62  1  0
 61 67  1  0
 62 61  1  0
 63 62  2  0
 64 65  1  0
 64 58  2  0
 65 60  2  0
 66 59  1  0
 67 57  1  0
 69 71  2  0
 70 69  1  0
 72 70  1  0
 73 82  2  0
 73 78  1  0
 74 70  1  0
 74 78  1  0
 75 74  1  0
 76 77  1  0
 76 75  1  0
 77 73  1  0
 78 79  2  0
 79 80  1  0
 81 80  2  0
 82 81  1  0
 83 57  1  0
 83 88  1  0
 83 84  1  0
 84 87  1  1
 84 85  1  0
 86 84  1  0
 88 91  1  0
 89 93  1  0
 89 88  1  0
 90 89  2  0
 93 92  1  0
 95 93  1  0
 95 96  1  0
 95 94  1  0
M  ISO  4  15 100  23 100  55 101  56 101
M  END
>  <TORSDO>  (25) 
F 20

>  <SCORE>  (25) 
-12.863

>  <name>  (25) 
25

>  <ligand_id>  (25) 
25

>  <original_smiles>  (25) 
[H]Oc1c([H])c(C([H])([H])Oc2c([H])c([H])c3c(c2[H])C([H])([H])N(C(=O)C([H])(N([H])C(=O)C([H])(N([H])C([H])([H])[H])C([H])([H])[H])C(C([H])([H])[H])(C([H])([H])[H])C([H])([H])[H])C([H])(C(=O)N([H])C2([H])c4c([H])c([H])c([H])c([H])c4C([H])([H])C([H])([H])C2([H])[H])C3([H])[H])c(C([H])([H])[H])n1-c1c([H])c([H])c(C([H])([H])N([H])C(=O)N2C([H])([H])C([H])([H])C([H])([H])C([H])(n3nc(-c4c([H])c([H])c(Oc5c([H])c([H])c(F)c([H])c5F)c([H])c4[H])c(C(=O)N([H])[H])c3N([H])[H])C2([H])[H])c(C([H])([H])[H])c1[H]

>  <smiles>  (25) 
[H]Oc1c([H])c(C([H])([H])Oc2c([H])c([H])c3c(c2[H])C([H])([H])N(C(=O)C([H])(N([H])C(=O)C([H])(N([H])C([H])([H])[H])C([H])([H])[H])C(C([H])([H])[H])(C([H])([H])[H])C([H])([H])[H])C([H])(C(=O)N([H])C2([H])c4c([H])c([H])c([H])c([H])c4C([H])([H])C([H])([H])C2([H])[H])C3([H])[H])c(C([H])([H])[H])n1-c1c([H])c([H])c(C([H])([H])N([H])C(=O)N2C([H])([H])C([H])([H])C([H])([H])C([H])(n3nc(-c4c([H])c([H])c(Oc5c([H])c([H])c(F)c([H])c5F)c([H])c4[H])c(C(=O)N([H])[H])c3N([H])[H])C2([H])[H])c(C([H])([H])[H])c1[H]

$$$$
26:0:0
     RDKit          3D

 97106  0  0  1  0  0  0  0  0999 V2000
  -29.1170  -22.9840   20.0610 C   0  0  0  0  0  3  0  0  0  0  0  0
  -28.6230  -24.1940   19.6840 C   0  0  0  0  0  0  0  0  0  0  0  0
  -29.2600  -22.0870   17.8290 C   0  0  0  0  0  0  0  0  0  0  0  0
  -28.3420  -24.4660   18.2180 C   0  0  0  0  0  2  0  0  0  0  0  0
  -29.1200  -23.5160   17.2870 C   0  0  0  0  0  2  0  0  0  0  0  0
  -29.4160  -21.9220   19.1700 N   0  0  0  0  0  0  0  0  0  0  0  0
  -29.2530  -21.1520   17.0180 O   0  0  0  0  0  0  0  0  0  0  0  0
  -29.1710  -18.5870   20.9370 C   0  0  0  0  0  3  0  0  0  0  0  0
  -28.8470  -19.8730   20.4380 C   0  0  0  0  0  3  0  0  0  0  0  0
  -31.3960  -18.7880   19.9940 C   0  0  0  0  0  3  0  0  0  0  0  0
  -30.4550  -18.0350   20.7280 C   0  0  0  0  0  0  0  0  0  0  0  0
  -29.7900  -20.6330   19.7020 C   0  0  0  0  0  0  0  0  0  0  0  0
  -31.0810  -20.0710   19.4870 C   0  0  0  0  0  0  0  0  0  0  0  0
  -32.0890  -20.7630   18.8130 N   0  0  0  0  0  0  0  0  0  0  0  0
  -32.8980  -20.2420   18.4920 H   0  0  0  0  0  0  0  0  0  0  0  0
  -31.8350  -21.5100   18.1750 H   0  0  0  0  0  0  0  0  0  0  0  0
  -30.8800  -16.7140   21.3870 C   0  0  0  0  0  2  0  0  0  0  0  0
  -30.8510  -14.5170   20.1660 C   0  0  0  0  0  0  0  0  0  0  0  0
  -30.4760  -12.3990   18.9460 C   0  0  0  0  0  2  0  0  0  0  0  0
  -29.4670  -12.6210   17.8030 C   0  0  0  0  0  2  0  0  0  0  0  0
  -28.0200  -12.4670   18.3120 C   0  0  0  0  0  2  0  0  0  0  0  0
  -27.7530  -13.2760   19.6100 C   0  0  0  0  0  3  0  0  0  0  0  0
  -28.8660  -13.0300   20.6510 C   0  0  0  0  0  2  0  0  0  0  0  0
  -30.1560  -13.3560   20.0160 N   0  0  0  0  0  0  0  0  0  0  0  0
  -31.9360  -14.7180   19.6150 O   0  0  0  0  0  0  0  0  0  0  0  0
  -30.2520  -15.4760   20.8980 N   0  0  0  0  0  0  0  0  0  0  0  0
  -29.3410  -15.2520   21.2690 H   0  0  0  0  0  0  0  0  0  0  0  0
  -25.4010  -13.8670   20.4680 C   0  0  0  0  0  0  0  0  0  0  0  0
  -24.3510  -13.0880   20.8740 C   0  0  0  0  0  0  0  0  0  0  0  0
  -24.8050  -11.7360   20.7790 C   0  0  0  0  0  0  0  0  0  0  0  0
  -26.4280  -12.9910   20.1550 N   0  0  0  0  0  0  0  0  0  0  0  0
  -26.0750  -11.7020   20.3990 N   0  0  0  0  0  0  0  0  0  0  0  0
  -24.0850  -10.4710   20.9730 C   0  0  0  0  0  0  0  0  0  0  0  0
  -24.5280   -9.5040   21.9030 C   0  0  0  0  0  3  0  0  0  0  0  0
  -23.8090   -8.3030   22.0840 C   0  0  0  0  0  3  0  0  0  0  0  0
  -22.6320   -8.0610   21.3360 C   0  0  0  0  0  0  0  0  0  0  0  0
  -22.2080   -9.0160   20.3960 C   0  0  0  0  0  3  0  0  0  0  0  0
  -22.9290  -10.2080   20.2110 C   0  0  0  0  0  3  0  0  0  0  0  0
  -21.8840   -6.9120   21.4270 O   0  0  0  0  0  0  0  0  0  0  0  0
  -21.8030   -6.1950   22.5950 C   0  0  0  0  0  0  0  0  0  0  0  0
  -21.2950   -6.7630   23.7830 C   0  0  0  0  0  3  0  0  0  0  0  0
  -21.1650   -5.9710   24.9420 C   0  0  0  0  0  3  0  0  0  0  0  0
  -21.5330   -4.6130   24.9120 C   0  0  0  0  0  0  0  0  0  0  0  0
  -22.0360   -4.0460   23.7280 C   0  0  0  0  0  3  0  0  0  0  0  0
  -22.1670   -4.8340   22.5710 C   0  0  0  0  0  0  0  0  0  0  0  0
  -22.6310   -4.2770   21.4270 F   0  0  0  0  0  0  0  0  0  0  0  0
  -21.4020   -3.8500   26.0220 F   0  0  0  0  0  0  0  0  0  0  0  0
  -22.9730  -13.5610   21.2350 C   0  0  0  0  0  0  0  0  0  0  0  0
  -22.2880  -12.8360   22.1140 N   0  0  0  0  0  0  0  0  0  0  0  0
  -22.5140  -14.6060   20.7770 O   0  0  0  0  0  0  0  0  0  0  0  0
  -22.6730  -11.9900   22.5060 H   0  0  0  0  0  0  0  0  0  0  0  0
  -21.3660  -13.1330   22.3990 H   0  0  0  0  0  0  0  0  0  0  0  0
  -25.5620  -15.2420   20.3200 N   0  0  0  0  0  0  0  0  0  0  0  0
  -24.8050  -15.8960   20.4880 H   0  0  0  0  0  0  0  0  0  0  0  0
  -26.3960  -15.6860   19.9570 H   0  0  0  0  0  0  0  0  0  0  0  0
  -28.2420  -25.2960   20.6880 C   0  0  0  0  0  2  0  0  0  0  0  0
  -28.3790  -26.6530   20.2040 O   0  0  0  0  0  0  0  0  0  0  0  0
  -24.5700  -31.8830   23.2300 C   0  0  0  0  0  0  0  0  0  0  0  0
  -27.2210  -27.4080   20.1910 C   0  0  0  0  0  0  0  0  0  0  0  0
  -23.3690  -30.4680   21.5950 C   0  0  0  0  0  3  0  0  0  0  0  0
  -24.8280  -28.9230   20.1830 C   0  0  0  0  0  0  0  0  0  0  0  0
  -25.8960  -30.8280   21.3980 C   0  0  0  0  0  2  0  0  0  0  0  0
  -25.9860  -29.4530   20.7660 C   0  0  0  0  0  0  0  0  0  0  0  0
  -27.1900  -28.7050   20.7590 C   0  0  0  0  0  3  0  0  0  0  0  0
  -26.0450  -26.8990   19.6020 C   0  0  0  0  0  3  0  0  0  0  0  0
  -24.8530  -27.6480   19.5950 C   0  0  0  0  0  3  0  0  0  0  0  0
  -23.5820  -29.7810   20.2210 C   0  0  0  0  0  2  0  0  0  0  0  0
  -24.6300  -31.0750   22.1330 N   0  0  0  0  0  0  0  0  0  0  0  0
  -23.4860  -32.1560   23.7650 O   0  0  0  0  0  0  0  0  0  0  0  0
  -22.7170  -29.4520   22.5610 C   0  0  0  0  0  0  0  0  0  0  0  0
  -21.3930  -29.2700   22.4340 N   0  0  0  0  0  0  0  0  0  0  0  0
  -23.4000  -28.8320   23.3800 O   0  0  0  0  0  0  0  0  0  0  0  0
  -20.9030  -29.8230   21.7450 H   0  0  0  0  0  0  0  0  0  0  0  0
  -18.0120  -28.1050   22.9610 C   0  0  0  0  0  0  0  0  0  0  0  0
  -20.5750  -28.3370   23.2090 C   0  0  0  0  0  3  0  0  0  0  0  0
  -20.6590  -26.9070   22.6260 C   0  0  0  0  0  2  0  0  0  0  0  0
  -19.5430  -26.6000   21.6210 C   0  0  0  0  0  2  0  0  0  0  0  0
  -18.1690  -26.7550   22.2790 C   0  0  0  0  0  2  0  0  0  0  0  0
  -19.1420  -28.8540   23.3840 C   0  0  0  0  0  0  0  0  0  0  0  0
  -18.9420  -30.1160   23.9810 C   0  0  0  0  0  3  0  0  0  0  0  0
  -17.6440  -30.6300   24.1610 C   0  0  0  0  0  3  0  0  0  0  0  0
  -16.5290  -29.8780   23.7560 C   0  0  0  0  0  3  0  0  0  0  0  0
  -16.7130  -28.6170   23.1620 C   0  0  0  0  0  3  0  0  0  0  0  0
  -25.8530  -32.5210   23.8480 C   0  0  0  0  0  3  0  0  0  0  0  0
  -26.3730  -31.7550   25.1250 C   0  0  1  0  0  0  0  0  0  0  0  0
  -25.2810  -31.5090   26.1920 C   0  0  0  0  0  1  0  0  0  0  0  0
  -26.9680  -30.3820   24.7340 C   0  0  0  0  0  1  0  0  0  0  0  0
  -27.5170  -32.5580   25.7880 C   0  0  0  0  0  1  0  0  0  0  0  0
  -25.5400  -33.9180   24.1710 N   0  0  0  0  0  0  0  0  0  0  0  0
  -25.8820  -34.9690   23.4130 C   0  0  0  0  0  0  0  0  0  0  0  0
  -26.5640  -34.8630   22.3900 O   0  0  0  0  0  0  0  0  0  0  0  0
  -24.9370  -34.0750   24.9650 H   0  0  0  0  0  0  0  0  0  0  0  0
  -24.1740  -36.7710   23.0140 C   0  0  0  0  0  1  0  0  0  0  0  0
  -25.3890  -36.3580   23.8610 C   0  0  0  0  0  3  0  0  0  0  0  0
  -27.4970  -37.2350   24.7630 C   0  0  0  0  0  1  0  0  0  0  0  0
  -26.4290  -37.4060   23.7810 N   0  0  0  0  0  0  0  0  0  0  0  0
  -26.0220  -38.3280   23.9130 H   0  0  0  0  0  0  0  0  0  0  0  0
  2  1  2  0
  2 56  1  0
  3  6  1  0
  4  2  1  0
  5  3  1  0
  5  4  1  0
  6 12  1  0
  6  1  1  0
  7  3  2  0
  9  8  2  0
 10 11  2  0
 11  8  1  0
 11 17  1  0
 12  9  1  0
 13 12  2  0
 13 10  1  0
 14 13  1  0
 15 14  1  0
 16 14  1  0
 18 26  1  0
 19 24  1  0
 20 21  1  0
 20 19  1  0
 22 21  1  0
 22 31  1  0
 22 23  1  0
 24 18  1  0
 24 23  1  0
 25 18  2  0
 26 27  1  0
 26 17  1  0
 28 29  2  0
 29 48  1  0
 30 29  1  0
 30 33  1  0
 31 32  1  0
 31 28  1  0
 32 30  2  0
 33 34  1  0
 34 35  2  0
 36 39  1  0
 36 35  1  0
 37 36  2  0
 38 37  1  0
 38 33  2  0
 39 40  1  0
 40 41  1  0
 41 42  2  0
 43 42  1  0
 43 47  1  0
 44 43  2  0
 45 40  2  0
 45 44  1  0
 46 45  1  0
 48 49  1  0
 49 52  1  0
 49 51  1  0
 50 48  2  0
 53 28  1  0
 53 54  1  0
 55 53  1  0
 57 56  1  0
 58 69  2  0
 59 57  1  0
 59 64  1  0
 60 68  1  0
 60 70  1  0
 61 67  1  0
 61 63  1  0
 62 68  1  0
 63 62  1  0
 64 63  2  0
 65 59  2  0
 66 65  1  0
 66 61  2  0
 67 60  1  0
 68 58  1  0
 70 72  2  0
 71 70  1  0
 73 71  1  0
 74 83  2  0
 74 79  1  0
 75 71  1  0
 75 79  1  0
 76 75  1  0
 77 78  1  0
 77 76  1  0
 78 74  1  0
 79 80  2  0
 80 81  1  0
 82 81  2  0
 83 82  1  0
 84 58  1  0
 84 89  1  0
 84 85  1  0
 85 88  1  1
 85 86  1  0
 87 85  1  0
 89 92  1  0
 90 94  1  0
 90 89  1  0
 91 90  2  0
 94 93  1  0
 96 94  1  0
 96 97  1  0
 96 95  1  0
M  ISO  4  18 100  26 100  56 101  57 101
M  END
>  <TORSDO>  (26) 
F 20

>  <SCORE>  (26) 
-14.061

>  <name>  (26) 
26

>  <ligand_id>  (26) 
26

>  <original_smiles>  (26) 
[H]C1=C(C([H])([H])Oc2c([H])c([H])c3c(c2[H])C([H])([H])N(C(=O)C([H])(N([H])C(=O)C([H])(N([H])C([H])([H])[H])C([H])([H])[H])C(C([H])([H])[H])(C([H])([H])[H])C([H])([H])[H])C([H])(C(=O)N([H])C2([H])c4c([H])c([H])c([H])c([H])c4C([H])([H])C([H])([H])C2([H])[H])C3([H])[H])C([H])([H])C([H])([H])C(=O)N1c1c([H])c([H])c(C([H])([H])N([H])C(=O)N2C([H])([H])C([H])([H])C([H])([H])C([H])(n3nc(-c4c([H])c([H])c(Oc5c([H])c([H])c(F)c([H])c5F)c([H])c4[H])c(C(=O)N([H])[H])c3N([H])[H])C2([H])[H])c([H])c1N([H])[H]

>  <smiles>  (26) 
[H]C1=C(C([H])([H])Oc2c([H])c([H])c3c(c2[H])C([H])([H])N(C(=O)C([H])(N([H])C(=O)C([H])(N([H])C([H])([H])[H])C([H])([H])[H])C(C([H])([H])[H])(C([H])([H])[H])C([H])([H])[H])C([H])(C(=O)N([H])C2([H])c4c([H])c([H])c([H])c([H])c4C([H])([H])C([H])([H])C2([H])[H])C3([H])[H])C([H])([H])C([H])([H])C(=O)N1c1c([H])c([H])c(C([H])([H])N([H])C(=O)N2C([H])([H])C([H])([H])C([H])([H])C([H])(n3nc(-c4c([H])c([H])c(Oc5c([H])c([H])c(F)c([H])c5F)c([H])c4[H])c(C(=O)N([H])[H])c3N([H])[H])C2([H])[H])c([H])c1N([H])[H]

$$$$
27:0:0
     RDKit          3D

 97105  0  0  1  0  0  0  0  0999 V2000
  -28.9100  -17.9750   20.3010 C   0  0  0  0  0  3  0  0  0  0  0  0
  -28.0890  -19.1150   20.2240 C   0  0  0  0  0  3  0  0  0  0  0  0
  -30.3530  -19.1140   21.9030 C   0  0  0  0  0  3  0  0  0  0  0  0
  -30.0690  -17.9820   21.1110 C   0  0  0  0  0  0  0  0  0  0  0  0
  -28.4230  -20.2770   20.9590 C   0  0  0  0  0  0  0  0  0  0  0  0
  -29.5220  -20.2480   21.8470 C   0  0  0  0  0  0  0  0  0  0  0  0
  -31.1930  -14.6740   20.0580 C   0  0  0  0  0  0  0  0  0  0  0  0
  -30.8000  -12.5340   18.9030 C   0  0  0  0  0  2  0  0  0  0  0  0
  -29.8020  -12.7240   17.7450 C   0  0  0  0  0  2  0  0  0  0  0  0
  -28.3530  -12.5890   18.2480 C   0  0  0  0  0  2  0  0  0  0  0  0
  -28.0730  -13.4450   19.5110 C   0  0  0  0  0  3  0  0  0  0  0  0
  -29.1780  -13.2410   20.5720 C   0  0  0  0  0  2  0  0  0  0  0  0
  -30.4750  -13.5280   19.9350 N   0  0  0  0  0  0  0  0  0  0  0  0
  -32.2830  -14.8330   19.4990 O   0  0  0  0  0  0  0  0  0  0  0  0
  -31.0630  -16.8650   21.0210 C   0  0  0  0  0  0  0  0  0  0  0  0
  -30.5540  -15.6680   20.6940 N   0  0  0  0  0  0  0  0  0  0  0  0
  -32.2580  -17.0920   21.2480 O   0  0  0  0  0  0  0  0  0  0  0  0
  -29.5690  -15.5430   20.8490 H   0  0  0  0  0  0  0  0  0  0  0  0
  -25.7340  -14.0610   20.3950 C   0  0  0  0  0  0  0  0  0  0  0  0
  -24.6730  -13.2900   20.7910 C   0  0  0  0  0  0  0  0  0  0  0  0
  -25.1050  -11.9340   20.6660 C   0  0  0  0  0  0  0  0  0  0  0  0
  -26.7440  -13.1740   20.0570 N   0  0  0  0  0  0  0  0  0  0  0  0
  -26.3720  -11.8880   20.2770 N   0  0  0  0  0  0  0  0  0  0  0  0
  -24.3670  -10.6770   20.8370 C   0  0  0  0  0  0  0  0  0  0  0  0
  -24.7920   -9.6900   21.7540 C   0  0  0  0  0  3  0  0  0  0  0  0
  -24.0550   -8.4960   21.9130 C   0  0  0  0  0  3  0  0  0  0  0  0
  -22.8790   -8.2820   21.1540 C   0  0  0  0  0  0  0  0  0  0  0  0
  -22.4740   -9.2580   20.2260 C   0  0  0  0  0  3  0  0  0  0  0  0
  -23.2120  -10.4420   20.0660 C   0  0  0  0  0  3  0  0  0  0  0  0
  -22.1130   -7.1430   21.2240 O   0  0  0  0  0  0  0  0  0  0  0  0
  -21.9900   -6.4280   22.3890 C   0  0  0  0  0  0  0  0  0  0  0  0
  -21.4930   -7.0130   23.5750 C   0  0  0  0  0  3  0  0  0  0  0  0
  -21.3170   -6.2240   24.7280 C   0  0  0  0  0  3  0  0  0  0  0  0
  -21.6290   -4.8520   24.6990 C   0  0  0  0  0  0  0  0  0  0  0  0
  -22.1190   -4.2670   23.5190 C   0  0  0  0  0  3  0  0  0  0  0  0
  -22.2970   -5.0520   22.3670 C   0  0  0  0  0  0  0  0  0  0  0  0
  -22.7490   -4.4790   21.2250 F   0  0  0  0  0  0  0  0  0  0  0  0
  -21.4530   -4.0930   25.8060 F   0  0  0  0  0  0  0  0  0  0  0  0
  -23.3050  -13.7780   21.1710 C   0  0  0  0  0  0  0  0  0  0  0  0
  -22.6170  -13.0560   22.0490 N   0  0  0  0  0  0  0  0  0  0  0  0
  -22.8570  -14.8340   20.7280 O   0  0  0  0  0  0  0  0  0  0  0  0
  -22.9920  -12.2010   22.4310 H   0  0  0  0  0  0  0  0  0  0  0  0
  -21.7020  -13.3650   22.3450 H   0  0  0  0  0  0  0  0  0  0  0  0
  -25.9180  -15.4350   20.2760 N   0  0  0  0  0  0  0  0  0  0  0  0
  -25.1740  -16.0980   20.4630 H   0  0  0  0  0  0  0  0  0  0  0  0
  -26.7530  -15.8750   19.9160 H   0  0  0  0  0  0  0  0  0  0  0  0
  -27.4090  -22.1580   19.6940 C   0  0  0  0  0  0  0  0  0  0  0  0
  -27.7480  -21.5150   20.8220 N   0  0  0  0  0  0  0  0  0  0  0  0
  -27.2890  -21.6250   18.5880 O   0  0  0  0  0  0  0  0  0  0  0  0
  -27.8270  -22.1040   21.6390 H   0  0  0  0  0  0  0  0  0  0  0  0
  -27.1530  -23.6580   19.8370 C   0  0  0  0  0  2  0  0  0  0  0  0
  -28.4060  -24.4710   19.4400 C   0  0  0  0  0  2  0  0  0  0  0  0
  -28.6480  -25.7140   20.3140 C   0  0  0  0  0  2  0  0  0  0  0  0
  -28.6130  -26.9140   19.5470 O   0  0  0  0  0  0  0  0  0  0  0  0
  -24.8030  -31.5680   23.3040 C   0  0  0  0  0  0  0  0  0  0  0  0
  -27.4360  -27.6040   19.6550 C   0  0  0  0  0  0  0  0  0  0  0  0
  -23.5810  -30.3760   21.5110 C   0  0  0  0  0  3  0  0  0  0  0  0
  -25.0260  -29.0410   19.8890 C   0  0  0  0  0  0  0  0  0  0  0  0
  -26.0980  -30.7880   21.3260 C   0  0  0  0  0  2  0  0  0  0  0  0
  -26.1840  -29.5100   20.5210 C   0  0  0  0  0  0  0  0  0  0  0  0
  -27.3950  -28.7980   20.4020 C   0  0  0  0  0  3  0  0  0  0  0  0
  -26.2650  -27.1370   19.0220 C   0  0  0  0  0  3  0  0  0  0  0  0
  -25.0580  -27.8510   19.1390 C   0  0  0  0  0  3  0  0  0  0  0  0
  -23.7770  -29.8750   20.0550 C   0  0  0  0  0  2  0  0  0  0  0  0
  -24.8460  -30.9180   22.1080 N   0  0  0  0  0  0  0  0  0  0  0  0
  -23.7280  -31.7650   23.8870 O   0  0  0  0  0  0  0  0  0  0  0  0
  -22.9500  -29.2370   22.3430 C   0  0  0  0  0  0  0  0  0  0  0  0
  -21.6280  -29.0550   22.1970 N   0  0  0  0  0  0  0  0  0  0  0  0
  -23.6470  -28.5240   23.0700 O   0  0  0  0  0  0  0  0  0  0  0  0
  -21.1270  -29.6910   21.5920 H   0  0  0  0  0  0  0  0  0  0  0  0
  -18.2810  -27.7360   22.5050 C   0  0  0  0  0  0  0  0  0  0  0  0
  -20.8260  -28.0190   22.8480 C   0  0  0  0  0  3  0  0  0  0  0  0
  -20.9740  -26.6610   22.1230 C   0  0  0  0  0  2  0  0  0  0  0  0
  -19.8930  -26.4240   21.0620 C   0  0  0  0  0  2  0  0  0  0  0  0
  -18.4990  -26.4700   21.6930 C   0  0  0  0  0  2  0  0  0  0  0  0
  -19.3740  -28.4710   23.0340 C   0  0  0  0  0  0  0  0  0  0  0  0
  -19.1170  -29.6600   23.7510 C   0  0  0  0  0  3  0  0  0  0  0  0
  -17.8000  -30.1130   23.9460 C   0  0  0  0  0  3  0  0  0  0  0  0
  -16.7200  -29.3730   23.4340 C   0  0  0  0  0  3  0  0  0  0  0  0
  -16.9610  -28.1850   22.7190 C   0  0  0  0  0  3  0  0  0  0  0  0
  -26.0970  -32.1210   23.9830 C   0  0  0  0  0  3  0  0  0  0  0  0
  -25.8050  -33.4860   24.4430 N   0  0  0  0  0  0  0  0  0  0  0  0
  -26.1720  -34.5990   23.7930 C   0  0  0  0  0  0  0  0  0  0  0  0
  -26.8630  -34.5830   22.7710 O   0  0  0  0  0  0  0  0  0  0  0  0
  -25.1990  -33.5720   25.2450 H   0  0  0  0  0  0  0  0  0  0  0  0
  -24.4760  -36.4410   23.5790 C   0  0  0  0  0  1  0  0  0  0  0  0
  -25.6940  -35.9450   24.3710 C   0  0  0  0  0  3  0  0  0  0  0  0
  -27.8250  -36.7140   25.3190 C   0  0  0  0  0  1  0  0  0  0  0  0
  -26.7440  -36.9870   24.3770 N   0  0  0  0  0  0  0  0  0  0  0  0
  -26.3470  -37.8950   24.6040 H   0  0  0  0  0  0  0  0  0  0  0  0
  -26.6050  -31.2250   25.1780 C   0  0  1  0  0  0  0  0  0  0  0  0
  -25.5120  -30.9120   26.2270 C   0  0  0  0  0  1  0  0  0  0  0  0
  -27.1580  -29.8800   24.6540 C   0  0  0  0  0  1  0  0  0  0  0  0
  -27.7720  -31.9330   25.9050 C   0  0  0  0  0  1  0  0  0  0  0  0
  -29.8180  -21.3540   22.6460 N   0  0  0  0  0  0  0  0  0  0  0  0
  -30.5500  -21.2160   23.3360 H   0  0  0  0  0  0  0  0  0  0  0  0
  -29.0260  -21.8170   23.0760 H   0  0  0  0  0  0  0  0  0  0  0  0
  1  4  1  0
  2  1  2  0
  2  5  1  0
  4  3  2  0
  5  6  2  0
  6  3  1  0
  6 95  1  0
  7 16  1  0
  8 13  1  0
  9 10  1  0
  9  8  1  0
 11 10  1  0
 11 22  1  0
 11 12  1  0
 13  7  1  0
 13 12  1  0
 14  7  2  0
 15  4  1  0
 15 17  2  0
 16 18  1  0
 16 15  1  0
 19 20  2  0
 20 39  1  0
 21 20  1  0
 21 24  1  0
 22 23  1  0
 22 19  1  0
 23 21  2  0
 24 25  1  0
 25 26  2  0
 27 30  1  0
 27 26  1  0
 28 27  2  0
 29 28  1  0
 29 24  2  0
 30 31  1  0
 31 32  1  0
 32 33  2  0
 34 33  1  0
 34 38  1  0
 35 34  2  0
 36 31  2  0
 36 35  1  0
 37 36  1  0
 39 40  1  0
 40 43  1  0
 40 42  1  0
 41 39  2  0
 44 19  1  0
 44 45  1  0
 46 44  1  0
 47 51  1  0
 47 48  1  0
 48  5  1  0
 48 50  1  0
 49 47  2  0
 52 51  1  0
 52 53  1  0
 54 56  1  0
 54 53  1  0
 55 66  2  0
 56 61  1  0
 57 65  1  0
 57 67  1  0
 58 64  1  0
 58 60  1  0
 59 65  1  0
 60 59  1  0
 61 60  2  0
 62 63  1  0
 62 56  2  0
 63 58  2  0
 64 57  1  0
 65 55  1  0
 67 69  2  0
 68 67  1  0
 70 68  1  0
 71 80  2  0
 71 76  1  0
 72 68  1  0
 72 76  1  0
 73 72  1  0
 74 75  1  0
 74 73  1  0
 75 71  1  0
 76 77  2  0
 77 78  1  0
 79 78  2  0
 80 79  1  0
 81 55  1  0
 81 82  1  0
 81 91  1  0
 82 85  1  0
 83 87  1  0
 83 82  1  0
 84 83  2  0
 87 86  1  0
 87 89  1  0
 89 90  1  0
 89 88  1  0
 91 94  1  1
 91 92  1  0
 93 91  1  0
 95 97  1  0
 95 96  1  0
M  ISO  4   7 100  16 100  53 101  54 101
M  END
>  <TORSDO>  (27) 
F 21

>  <SCORE>  (27) 
-12.177

>  <name>  (27) 
27

>  <ligand_id>  (27) 
27

>  <original_smiles>  (27) 
[H]c1c([H])c([H])c2c(c1[H])C([H])([H])C([H])([H])C([H])([H])C2([H])N([H])C(=O)C1([H])N(C(=O)C([H])(N([H])C(=O)C([H])(N([H])C([H])([H])[H])C([H])([H])[H])C(C([H])([H])[H])(C([H])([H])[H])C([H])([H])[H])C([H])([H])c2c([H])c(OC([H])([H])C([H])([H])C([H])([H])C(=O)N([H])c3c([H])c([H])c(C(=O)N([H])C(=O)N4C([H])([H])C([H])([H])C([H])([H])C([H])(n5nc(-c6c([H])c([H])c(Oc7c([H])c([H])c(F)c([H])c7F)c([H])c6[H])c(C(=O)N([H])[H])c5N([H])[H])C4([H])[H])c([H])c3N([H])[H])c([H])c([H])c2C1([H])[H]

>  <smiles>  (27) 
[H]c1c([H])c([H])c2c(c1[H])C([H])([H])C([H])([H])C([H])([H])C2([H])N([H])C(=O)C1([H])N(C(=O)C([H])(N([H])C(=O)C([H])(N([H])C([H])([H])[H])C([H])([H])[H])C(C([H])([H])[H])(C([H])([H])[H])C([H])([H])[H])C([H])([H])c2c([H])c(OC([H])([H])C([H])([H])C([H])([H])C(=O)N([H])c3c([H])c([H])c(C(=O)N([H])C(=O)N4C([H])([H])C([H])([H])C([H])([H])C([H])(n5nc(-c6c([H])c([H])c(Oc7c([H])c([H])c(F)c([H])c7F)c([H])c6[H])c(C(=O)N([H])[H])c5N([H])[H])C4([H])[H])c([H])c3N([H])[H])c([H])c([H])c2C1([H])[H]

$$$$
28:0:0
     RDKit          3D

 93101  0  0  1  0  0  0  0  0999 V2000
  -31.6920  -20.9640   18.5180 C   0  0  0  0  0  3  0  0  0  0  0  0
  -30.9870  -18.7180   18.9110 C   0  0  0  0  0  3  0  0  0  0  0  0
  -29.5650  -20.7040   19.8840 C   0  0  0  0  0  0  0  0  0  0  0  0
  -31.8350  -19.6120   18.2780 C   0  0  0  0  0  0  0  0  0  0  0  0
  -30.6330  -21.4770   19.2750 C   0  0  0  0  0  0  0  0  0  0  0  0
  -29.9220  -19.0030   19.8080 C   0  0  0  0  0  3  0  0  0  0  0  0
  -30.3160  -15.8450   20.0530 C   0  0  0  0  0  0  0  0  0  0  0  0
  -30.4090  -13.2690   19.1810 C   0  0  0  0  0  2  0  0  0  0  0  0
  -29.5070  -12.8300   17.9870 C   0  0  0  0  0  2  0  0  0  0  0  0
  -28.0980  -12.4400   18.4620 C   0  0  0  0  0  2  0  0  0  0  0  0
  -27.6070  -13.4060   19.5650 C   0  0  0  0  0  3  0  0  0  0  0  0
  -28.6630  -13.7410   20.6490 C   0  0  0  0  0  2  0  0  0  0  0  0
  -29.7870  -14.4520   19.9690 N   0  0  0  0  0  0  0  0  0  0  0  0
  -31.5350  -15.7110   19.7990 O   0  0  0  0  0  0  0  0  0  0  0  0
  -28.4630  -17.2110   21.1110 C   0  0  0  0  0  1  0  0  0  0  0  0
  -29.6220  -17.3070   20.2340 N   0  0  0  0  0  0  0  0  0  0  0  0
  -25.2730  -13.8890   20.4230 C   0  0  0  0  0  0  0  0  0  0  0  0
  -24.2380  -13.0970   20.8150 C   0  0  0  0  0  0  0  0  0  0  0  0
  -24.7200  -11.7530   20.7480 C   0  0  0  0  0  0  0  0  0  0  0  0
  -26.3160  -13.0350   20.1260 N   0  0  0  0  0  0  0  0  0  0  0  0
  -26.0030  -11.7380   20.3900 N   0  0  0  0  0  0  0  0  0  0  0  0
  -24.0090  -10.4830   20.9470 C   0  0  0  0  0  0  0  0  0  0  0  0
  -24.4390   -9.5340   21.9010 C   0  0  0  0  0  3  0  0  0  0  0  0
  -23.7200   -8.3340   22.0880 C   0  0  0  0  0  3  0  0  0  0  0  0
  -22.5590   -8.0740   21.3220 C   0  0  0  0  0  0  0  0  0  0  0  0
  -22.1470   -9.0120   20.3580 C   0  0  0  0  0  3  0  0  0  0  0  0
  -22.8670  -10.2030   20.1690 C   0  0  0  0  0  3  0  0  0  0  0  0
  -21.8110   -6.9240   21.4180 O   0  0  0  0  0  0  0  0  0  0  0  0
  -21.7170   -6.2220   22.5920 C   0  0  0  0  0  0  0  0  0  0  0  0
  -21.1910   -6.8020   23.7660 C   0  0  0  0  0  3  0  0  0  0  0  0
  -21.0480   -6.0240   24.9320 C   0  0  0  0  0  3  0  0  0  0  0  0
  -21.4190   -4.6650   24.9240 C   0  0  0  0  0  0  0  0  0  0  0  0
  -21.9380   -4.0850   23.7540 C   0  0  0  0  0  3  0  0  0  0  0  0
  -22.0830   -4.8590   22.5890 C   0  0  0  0  0  0  0  0  0  0  0  0
  -22.5640   -4.2900   21.4580 F   0  0  0  0  0  0  0  0  0  0  0  0
  -21.2740   -3.9160   26.0410 F   0  0  0  0  0  0  0  0  0  0  0  0
  -22.8460  -13.5590   21.1290 C   0  0  0  0  0  0  0  0  0  0  0  0
  -22.1450  -12.8480   22.0010 N   0  0  0  0  0  0  0  0  0  0  0  0
  -22.3950  -14.5930   20.6360 O   0  0  0  0  0  0  0  0  0  0  0  0
  -22.5290  -12.0130   22.4220 H   0  0  0  0  0  0  0  0  0  0  0  0
  -21.2110  -13.1380   22.2520 H   0  0  0  0  0  0  0  0  0  0  0  0
  -25.4050  -15.2630   20.2590 N   0  0  0  0  0  0  0  0  0  0  0  0
  -24.6340  -15.9010   20.4290 H   0  0  0  0  0  0  0  0  0  0  0  0
  -26.2220  -15.7170   19.8760 H   0  0  0  0  0  0  0  0  0  0  0  0
  -32.8400  -19.1370   17.4280 N   0  0  0  0  0  0  0  0  0  0  0  0
  -33.5050  -19.7820   17.0120 H   0  0  0  0  0  0  0  0  0  0  0  0
  -33.2040  -18.1930   17.5390 H   0  0  0  0  0  0  0  0  0  0  0  0
  -30.7300  -22.8740   19.3520 N   0  0  0  0  0  0  0  0  0  0  0  0
  -31.2400  -23.3550   18.6180 H   0  0  0  0  0  0  0  0  0  0  0  0
  -29.8840  -23.3690   19.6220 H   0  0  0  0  0  0  0  0  0  0  0  0
  -28.4390  -22.1330   20.3290 C   0  0  0  0  0  0  0  0  0  0  0  0
  -27.9900  -23.6670   20.4040 C   0  0  0  0  0  3  0  0  0  0  0  0
  -28.2020  -25.2960   20.1790 O   0  0  0  0  0  0  0  0  0  0  0  0
  -24.6340  -31.7700   23.0760 C   0  0  0  0  0  0  0  0  0  0  0  0
  -27.2360  -26.5670   20.1790 C   0  0  0  0  0  0  0  0  0  0  0  0
  -23.4870  -30.3400   21.4400 C   0  0  0  0  0  3  0  0  0  0  0  0
  -24.9670  -28.6660   20.0710 C   0  0  0  0  0  0  0  0  0  0  0  0
  -26.0710  -30.4620   21.3690 C   0  0  0  0  0  2  0  0  0  0  0  0
  -26.1530  -29.0090   20.7310 C   0  0  0  0  0  0  0  0  0  0  0  0
  -27.2650  -27.9890   20.7510 C   0  0  0  0  0  3  0  0  0  0  0  0
  -26.0120  -26.4710   19.4590 C   0  0  0  0  0  3  0  0  0  0  0  0
  -24.9400  -27.4230   19.4120 C   0  0  0  0  0  3  0  0  0  0  0  0
  -23.7590  -29.6250   20.0840 C   0  0  0  0  0  2  0  0  0  0  0  0
  -24.7560  -30.8960   22.0130 N   0  0  0  0  0  0  0  0  0  0  0  0
  -23.5300  -32.0720   23.5610 O   0  0  0  0  0  0  0  0  0  0  0  0
  -22.7540  -29.3790   22.4140 C   0  0  0  0  0  0  0  0  0  0  0  0
  -21.4160  -29.2570   22.3060 N   0  0  0  0  0  0  0  0  0  0  0  0
  -23.4020  -28.7360   23.2430 O   0  0  0  0  0  0  0  0  0  0  0  0
  -20.9370  -29.8250   21.6200 H   0  0  0  0  0  0  0  0  0  0  0  0
  -18.0050  -28.1290   22.8950 C   0  0  0  0  0  0  0  0  0  0  0  0
  -20.5790  -28.3270   23.0810 C   0  0  0  0  0  3  0  0  0  0  0  0
  -20.6230  -26.9030   22.4740 C   0  0  0  0  0  2  0  0  0  0  0  0
  -19.4840  -26.6360   21.4860 C   0  0  0  0  0  2  0  0  0  0  0  0
  -18.1260  -26.7980   22.1740 C   0  0  0  0  0  2  0  0  0  0  0  0
  -19.1560  -28.8540   23.3060 C   0  0  0  0  0  0  0  0  0  0  0  0
  -18.9840  -30.1000   23.9450 C   0  0  0  0  0  3  0  0  0  0  0  0
  -17.6980  -30.6220   24.1760 C   0  0  0  0  0  3  0  0  0  0  0  0
  -16.5620  -29.8950   23.7770 C   0  0  0  0  0  3  0  0  0  0  0  0
  -16.7170  -28.6500   23.1430 C   0  0  0  0  0  3  0  0  0  0  0  0
  -25.8770  -32.4430   23.7340 C   0  0  0  0  0  3  0  0  0  0  0  0
  -26.3780  -31.6890   25.0280 C   0  0  1  0  0  0  0  0  0  0  0  0
  -25.2670  -31.4370   26.0770 C   0  0  0  0  0  1  0  0  0  0  0  0
  -26.9920  -30.3180   24.6670 C   0  0  0  0  0  1  0  0  0  0  0  0
  -27.5040  -32.5040   25.7070 C   0  0  0  0  0  1  0  0  0  0  0  0
  -25.5250  -33.8370   24.0810 N   0  0  0  0  0  0  0  0  0  0  0  0
  -25.8550  -34.9200   23.3650 C   0  0  0  0  0  0  0  0  0  0  0  0
  -26.5420  -34.8550   22.3430 O   0  0  0  0  0  0  0  0  0  0  0  0
  -24.9110  -33.9590   24.8720 H   0  0  0  0  0  0  0  0  0  0  0  0
  -24.1210  -36.7230   23.0290 C   0  0  0  0  0  1  0  0  0  0  0  0
  -25.3460  -36.2950   23.8540 C   0  0  0  0  0  3  0  0  0  0  0  0
  -27.4480  -37.1840   24.7690 C   0  0  0  0  0  1  0  0  0  0  0  0
  -26.3720  -37.3620   23.7970 N   0  0  0  0  0  0  0  0  0  0  0  0
  -25.9530  -38.2760   23.9540 H   0  0  0  0  0  0  0  0  0  0  0  0
  1  5  2  0
  2  6  1  0
  3 51  2  0
  4  1  1  0
  4  2  2  0
  5 48  1  0
  5  3  1  0
  6  3  1  0
  6 16  1  0
  7 16  1  0
  8 13  1  0
  9 10  1  0
  9  8  1  0
 11 10  1  0
 11 20  1  0
 11 12  1  0
 13  7  1  0
 13 12  1  0
 14  7  2  0
 16 15  1  0
 17 18  2  0
 18 37  1  0
 19 18  1  0
 19 22  1  0
 20 21  1  0
 20 17  1  0
 21 19  2  0
 22 23  1  0
 23 24  2  0
 25 28  1  0
 25 24  1  0
 26 25  2  0
 27 26  1  0
 27 22  2  0
 28 29  1  0
 29 30  1  0
 30 31  2  0
 32 31  1  0
 32 36  1  0
 33 32  2  0
 34 29  2  0
 34 33  1  0
 35 34  1  0
 37 38  1  0
 38 41  1  0
 38 40  1  0
 39 37  2  0
 42 17  1  0
 42 43  1  0
 44 42  1  0
 45 47  1  0
 45  4  1  0
 46 45  1  0
 48 50  1  0
 49 48  1  0
 51 52  2  0
 53 55  1  0
 53 52  1  0
 54 65  2  0
 55 60  1  0
 56 64  1  0
 56 66  1  0
 57 63  1  0
 57 59  1  0
 58 64  1  0
 59 60  2  0
 59 58  1  0
 61 55  2  0
 62 61  1  0
 62 57  2  0
 63 56  1  0
 64 54  1  0
 66 68  2  0
 67 66  1  0
 69 67  1  0
 70 79  2  0
 70 75  1  0
 71 67  1  0
 71 75  1  0
 72 71  1  0
 73 74  1  0
 73 72  1  0
 74 70  1  0
 75 76  2  0
 76 77  1  0
 78 77  2  0
 79 78  1  0
 80 54  1  0
 80 85  1  0
 80 81  1  0
 81 84  1  1
 81 82  1  0
 83 81  1  0
 85 88  1  0
 86 90  1  0
 86 85  1  0
 87 86  2  0
 90 89  1  0
 92 90  1  0
 92 93  1  0
 92 91  1  0
M  ISO  4   7 100  16 100  52 101  53 101
M  END
>  <TORSDO>  (28) 
F 19

>  <SCORE>  (28) 
-15.563

>  <name>  (28) 
28

>  <ligand_id>  (28) 
28

>  <original_smiles>  (28) 
[H]C(Oc1c([H])c([H])c2c(c1[H])C([H])([H])N(C(=O)C([H])(N([H])C(=O)C([H])(N([H])C([H])([H])[H])C([H])([H])[H])C(C([H])([H])[H])(C([H])([H])[H])C([H])([H])[H])C([H])(C(=O)N([H])C1([H])c3c([H])c([H])c([H])c([H])c3C([H])([H])C([H])([H])C1([H])[H])C2([H])[H])=C([H])c1c(N([H])[H])c([H])c(N([H])[H])c([H])c1N(C(=O)N1C([H])([H])C([H])([H])C([H])([H])C([H])(n2nc(-c3c([H])c([H])c(Oc4c([H])c([H])c(F)c([H])c4F)c([H])c3[H])c(C(=O)N([H])[H])c2N([H])[H])C1([H])[H])C([H])([H])[H]

>  <smiles>  (28) 
[H]C(Oc1c([H])c([H])c2c(c1[H])C([H])([H])N(C(=O)C([H])(N([H])C(=O)C([H])(N([H])C([H])([H])[H])C([H])([H])[H])C(C([H])([H])[H])(C([H])([H])[H])C([H])([H])[H])C([H])(C(=O)N([H])C1([H])c3c([H])c([H])c([H])c([H])c3C([H])([H])C([H])([H])C1([H])[H])C2([H])[H])=C([H])c1c(N([H])[H])c([H])c(N([H])[H])c([H])c1N(C(=O)N1C([H])([H])C([H])([H])C([H])([H])C([H])(n2nc(-c3c([H])c([H])c(Oc4c([H])c([H])c(F)c([H])c4F)c([H])c3[H])c(C(=O)N([H])[H])c2N([H])[H])C1([H])[H])C([H])([H])[H]

$$$$
29:0:0
     RDKit          3D

 96105  0  0  1  0  0  0  0  0999 V2000
  -28.7810  -23.0730   20.1270 C   0  0  0  0  0  3  0  0  0  0  0  0
  -29.0190  -24.3750   19.8000 C   0  0  0  0  0  0  0  0  0  0  0  0
  -30.3760  -24.7650   19.3720 C   0  0  0  0  0  0  0  0  0  0  0  0
  -29.3180  -20.7170   20.4120 C   0  0  0  0  0  0  0  0  0  0  0  0
  -31.4690  -23.7100   19.5450 C   0  0  0  0  0  2  0  0  0  0  0  0
  -30.9350  -22.2870   19.2690 C   0  0  0  0  0  2  0  0  0  0  0  0
  -29.6960  -21.9840   20.0170 N   0  0  0  0  0  0  0  0  0  0  0  0
  -30.6680  -25.8680   18.9040 O   0  0  0  0  0  0  0  0  0  0  0  0
  -28.1630  -20.4630   20.7790 O   0  0  0  0  0  0  0  0  0  0  0  0
  -31.6470  -19.7440   20.8110 C   0  0  0  0  0  3  0  0  0  0  0  0
  -29.8420  -18.2120   20.2440 C   0  0  0  0  0  3  0  0  0  0  0  0
  -32.0770  -17.3430   20.6700 C   0  0  0  0  0  3  0  0  0  0  0  0
  -30.2980  -19.5510   20.4370 C   0  0  0  0  0  0  0  0  0  0  0  0
  -32.5360  -18.6530   20.9050 C   0  0  0  0  0  0  0  0  0  0  0  0
  -30.7220  -17.1000   20.3500 C   0  0  0  0  0  0  0  0  0  0  0  0
  -33.9860  -18.8850   21.2790 C   0  0  0  0  0  1  0  0  0  0  0  0
  -30.9140  -14.6560   19.8220 C   0  0  0  0  0  0  0  0  0  0  0  0
  -30.5510  -12.3790   18.9310 C   0  0  0  0  0  2  0  0  0  0  0  0
  -29.5370  -12.4330   17.7710 C   0  0  0  0  0  2  0  0  0  0  0  0
  -28.0940  -12.3380   18.3040 C   0  0  0  0  0  2  0  0  0  0  0  0
  -27.8240  -13.3150   19.4790 C   0  0  0  0  0  3  0  0  0  0  0  0
  -28.9470  -13.2390   20.5380 C   0  0  0  0  0  2  0  0  0  0  0  0
  -30.2270  -13.4800   19.8520 N   0  0  0  0  0  0  0  0  0  0  0  0
  -32.0250  -14.7540   19.2940 O   0  0  0  0  0  0  0  0  0  0  0  0
  -30.2300  -15.7550   20.2230 N   0  0  0  0  0  0  0  0  0  0  0  0
  -29.2580  -15.6050   20.4410 H   0  0  0  0  0  0  0  0  0  0  0  0
  -25.5410  -14.0210   20.4320 C   0  0  0  0  0  0  0  0  0  0  0  0
  -24.4630  -13.2940   20.8610 C   0  0  0  0  0  0  0  0  0  0  0  0
  -24.8340  -11.9210   20.7270 C   0  0  0  0  0  0  0  0  0  0  0  0
  -26.5050  -13.0930   20.0680 N   0  0  0  0  0  0  0  0  0  0  0  0
  -26.0880  -11.8220   20.3030 N   0  0  0  0  0  0  0  0  0  0  0  0
  -24.0500  -10.6940   20.9230 C   0  0  0  0  0  0  0  0  0  0  0  0
  -24.4580   -9.6950   21.8320 C   0  0  0  0  0  3  0  0  0  0  0  0
  -23.6780   -8.5330   22.0170 C   0  0  0  0  0  3  0  0  0  0  0  0
  -22.4740   -8.3640   21.2920 C   0  0  0  0  0  0  0  0  0  0  0  0
  -22.0850   -9.3520   20.3710 C   0  0  0  0  0  3  0  0  0  0  0  0
  -22.8650  -10.5040   20.1840 C   0  0  0  0  0  3  0  0  0  0  0  0
  -21.6660   -7.2580   21.3870 O   0  0  0  0  0  0  0  0  0  0  0  0
  -21.5560   -6.5440   22.5540 C   0  0  0  0  0  0  0  0  0  0  0  0
  -21.1100   -7.1400   23.7530 C   0  0  0  0  0  3  0  0  0  0  0  0
  -20.9470   -6.3550   24.9120 C   0  0  0  0  0  3  0  0  0  0  0  0
  -21.2200   -4.9740   24.8720 C   0  0  0  0  0  0  0  0  0  0  0  0
  -21.6590   -4.3780   23.6770 C   0  0  0  0  0  3  0  0  0  0  0  0
  -21.8240   -5.1600   22.5200 C   0  0  0  0  0  0  0  0  0  0  0  0
  -22.2270   -4.5770   21.3660 F   0  0  0  0  0  0  0  0  0  0  0  0
  -21.0550   -4.2180   25.9820 F   0  0  0  0  0  0  0  0  0  0  0  0
  -23.1270  -13.8370   21.2790 C   0  0  0  0  0  0  0  0  0  0  0  0
  -22.4370  -13.1430   22.1790 N   0  0  0  0  0  0  0  0  0  0  0  0
  -22.7080  -14.9080   20.8450 O   0  0  0  0  0  0  0  0  0  0  0  0
  -22.7900  -12.2740   22.5510 H   0  0  0  0  0  0  0  0  0  0  0  0
  -21.5430  -13.4870   22.5000 H   0  0  0  0  0  0  0  0  0  0  0  0
  -25.7740  -15.3870   20.3020 N   0  0  0  0  0  0  0  0  0  0  0  0
  -25.0590  -16.0760   20.5050 H   0  0  0  0  0  0  0  0  0  0  0  0
  -26.6100  -15.7920   19.9000 H   0  0  0  0  0  0  0  0  0  0  0  0
  -27.8800  -25.4090   19.7090 C   0  0  0  0  0  2  0  0  0  0  0  0
  -28.0950  -26.7730   20.1710 O   0  0  0  0  0  0  0  0  0  0  0  0
  -24.5050  -32.0750   23.3980 C   0  0  0  0  0  0  0  0  0  0  0  0
  -26.9620  -27.5900   20.1720 C   0  0  0  0  0  0  0  0  0  0  0  0
  -23.2240  -30.7130   21.7860 C   0  0  0  0  0  3  0  0  0  0  0  0
  -24.6030  -29.1830   20.2870 C   0  0  0  0  0  0  0  0  0  0  0  0
  -25.7550  -31.0230   21.5110 C   0  0  0  0  0  2  0  0  0  0  0  0
  -25.7960  -29.6590   20.8460 C   0  0  0  0  0  0  0  0  0  0  0  0
  -26.9770  -28.8710   20.7890 C   0  0  0  0  0  3  0  0  0  0  0  0
  -25.7430  -27.1650   19.5830 C   0  0  0  0  0  3  0  0  0  0  0  0
  -24.5750  -27.9370   19.6520 C   0  0  0  0  0  3  0  0  0  0  0  0
  -23.3770  -30.0600   20.3900 C   0  0  0  0  0  2  0  0  0  0  0  0
  -24.5160  -31.2850   22.2870 N   0  0  0  0  0  0  0  0  0  0  0  0
  -23.4450  -32.3560   23.9760 O   0  0  0  0  0  0  0  0  0  0  0  0
  -22.5930  -29.6840   22.7540 C   0  0  0  0  0  0  0  0  0  0  0  0
  -21.2820  -29.4340   22.5930 N   0  0  0  0  0  0  0  0  0  0  0  0
  -23.2790  -29.1130   23.6050 O   0  0  0  0  0  0  0  0  0  0  0  0
  -20.7870  -29.9480   21.8780 H   0  0  0  0  0  0  0  0  0  0  0  0
  -17.9790  -28.0100   22.9530 C   0  0  0  0  0  0  0  0  0  0  0  0
  -20.4860  -28.4800   23.3670 C   0  0  0  0  0  3  0  0  0  0  0  0
  -20.7330  -27.0320   22.8880 C   0  0  0  0  0  2  0  0  0  0  0  0
  -19.7280  -26.5670   21.8290 C   0  0  0  0  0  2  0  0  0  0  0  0
  -18.2990  -26.6410   22.3760 C   0  0  0  0  0  2  0  0  0  0  0  0
  -19.0070  -28.8790   23.4040 C   0  0  0  0  0  0  0  0  0  0  0  0
  -18.6560  -30.1540   23.9020 C   0  0  0  0  0  3  0  0  0  0  0  0
  -17.3100  -30.5610   23.9530 C   0  0  0  0  0  3  0  0  0  0  0  0
  -16.2960  -29.6910   23.5200 C   0  0  0  0  0  3  0  0  0  0  0  0
  -16.6300  -28.4180   23.0250 C   0  0  0  0  0  3  0  0  0  0  0  0
  -25.8180  -32.6840   23.9780 C   0  0  0  0  0  3  0  0  0  0  0  0
  -25.5510  -34.0940   24.2920 N   0  0  0  0  0  0  0  0  0  0  0  0
  -25.8800  -35.1240   23.5010 C   0  0  0  0  0  0  0  0  0  0  0  0
  -26.5120  -34.9870   22.4500 O   0  0  0  0  0  0  0  0  0  0  0  0
  -24.9880  -34.2770   25.1090 H   0  0  0  0  0  0  0  0  0  0  0  0
  -24.1750  -36.9440   23.1720 C   0  0  0  0  0  1  0  0  0  0  0  0
  -25.4370  -36.5310   23.9460 C   0  0  0  0  0  3  0  0  0  0  0  0
  -27.6150  -37.3900   24.6850 C   0  0  0  0  0  1  0  0  0  0  0  0
  -26.4860  -37.5600   23.7730 N   0  0  0  0  0  0  0  0  0  0  0  0
  -26.1040  -38.4920   23.9130 H   0  0  0  0  0  0  0  0  0  0  0  0
  -26.3470  -31.9190   25.2530 C   0  0  1  0  0  0  0  0  0  0  0  0
  -25.2650  -31.6930   26.3350 C   0  0  0  0  0  1  0  0  0  0  0  0
  -26.9190  -30.5360   24.8630 C   0  0  0  0  0  1  0  0  0  0  0  0
  -27.5080  -32.7120   25.8950 C   0  0  0  0  0  1  0  0  0  0  0  0
  2  1  2  0
  3  5  1  0
  3  2  1  0
  4 13  1  0
  4  9  2  0
  6  5  1  0
  6  7  1  0
  7  1  1  0
  7  4  1  0
  8  3  2  0
 10 14  1  0
 11 15  2  0
 11 13  1  0
 12 14  2  0
 13 10  2  0
 14 16  1  0
 15 12  1  0
 17 23  1  0
 17 25  1  0
 18 23  1  0
 19 20  1  0
 19 18  1  0
 21 20  1  0
 21 30  1  0
 21 22  1  0
 23 22  1  0
 24 17  2  0
 25 15  1  0
 25 26  1  0
 27 28  2  0
 28 47  1  0
 29 28  1  0
 29 32  1  0
 30 31  1  0
 30 27  1  0
 31 29  2  0
 32 33  1  0
 33 34  2  0
 35 38  1  0
 35 34  1  0
 36 35  2  0
 37 36  1  0
 37 32  2  0
 38 39  1  0
 39 40  1  0
 40 41  2  0
 42 41  1  0
 42 46  1  0
 43 42  2  0
 44 39  2  0
 44 43  1  0
 45 44  1  0
 47 48  1  0
 48 51  1  0
 48 50  1  0
 49 47  2  0
 52 27  1  0
 52 53  1  0
 54 52  1  0
 55  2  1  0
 55 56  1  0
 56 58  1  0
 57 68  2  0
 58 63  1  0
 59 67  1  0
 59 69  1  0
 60 66  1  0
 60 62  1  0
 61 67  1  0
 62 61  1  0
 63 62  2  0
 64 65  1  0
 64 58  2  0
 65 60  2  0
 66 59  1  0
 67 57  1  0
 69 71  2  0
 70 69  1  0
 72 70  1  0
 73 82  2  0
 73 78  1  0
 74 70  1  0
 74 78  1  0
 75 74  1  0
 76 77  1  0
 76 75  1  0
 77 73  1  0
 78 79  2  0
 79 80  1  0
 81 80  2  0
 82 81  1  0
 83 57  1  0
 83 84  1  0
 83 93  1  0
 84 87  1  0
 85 89  1  0
 85 84  1  0
 86 85  2  0
 89 88  1  0
 91 92  1  0
 91 89  1  0
 91 90  1  0
 93 96  1  1
 93 94  1  0
 95 93  1  0
M  ISO  4  17 100  25 100  55 101  56 101
M  END
>  <TORSDO>  (29) 
F 18

>  <SCORE>  (29) 
-14.076

>  <name>  (29) 
29

>  <ligand_id>  (29) 
29

>  <original_smiles>  (29) 
[H]C1=C(C([H])([H])Oc2c([H])c([H])c3c(c2[H])C([H])([H])N(C(=O)C([H])(N([H])C(=O)C([H])(N([H])C([H])([H])[H])C([H])([H])[H])C(C([H])([H])[H])(C([H])([H])[H])C([H])([H])[H])C([H])(C(=O)N([H])C2([H])c4c([H])c([H])c([H])c([H])c4C([H])([H])C([H])([H])C2([H])[H])C3([H])[H])C(=O)C([H])([H])C([H])([H])N1C(=O)c1c([H])c(N([H])C(=O)N2C([H])([H])C([H])([H])C([H])([H])C([H])(n3nc(-c4c([H])c([H])c(Oc5c([H])c([H])c(F)c([H])c5F)c([H])c4[H])c(C(=O)N([H])[H])c3N([H])[H])C2([H])[H])c([H])c(C([H])([H])[H])c1[H]

>  <smiles>  (29) 
[H]C1=C(C([H])([H])Oc2c([H])c([H])c3c(c2[H])C([H])([H])N(C(=O)C([H])(N([H])C(=O)C([H])(N([H])C([H])([H])[H])C([H])([H])[H])C(C([H])([H])[H])(C([H])([H])[H])C([H])([H])[H])C([H])(C(=O)N([H])C2([H])c4c([H])c([H])c([H])c([H])c4C([H])([H])C([H])([H])C2([H])[H])C3([H])[H])C(=O)C([H])([H])C([H])([H])N1C(=O)c1c([H])c(N([H])C(=O)N2C([H])([H])C([H])([H])C([H])([H])C([H])(n3nc(-c4c([H])c([H])c(Oc5c([H])c([H])c(F)c([H])c5F)c([H])c4[H])c(C(=O)N([H])[H])c3N([H])[H])C2([H])[H])c([H])c(C([H])([H])[H])c1[H]

$$$$
30:0:0
     RDKit          3D

 87 95  0  0  1  0  0  0  0  0999 V2000
  -29.1050  -22.8960   20.4670 C   0  0  0  0  0  0  0  0  0  0  0  0
  -30.1410  -23.4210   20.8950 O   0  0  0  0  0  0  0  0  0  0  0  0
  -30.4960  -20.5260   20.8320 C   0  0  0  0  0  3  0  0  0  0  0  0
  -30.6710  -19.0310   20.7930 C   0  0  0  0  0  3  0  0  0  0  0  0
  -29.3150  -21.1860   20.4280 C   0  0  0  0  0  0  0  0  0  0  0  0
  -29.6450  -18.1870   20.3530 C   0  0  0  0  0  0  0  0  0  0  0  0
  -28.3810  -19.5970   19.9820 S   0  0  0  0  0  0  0  0  0  0  0  0
  -30.3550  -15.4130   20.2360 C   0  0  0  0  0  0  0  0  0  0  0  0
  -30.3750  -12.9500   19.3530 C   0  0  0  0  0  2  0  0  0  0  0  0
  -29.4390  -12.6950   18.1410 C   0  0  0  0  0  2  0  0  0  0  0  0
  -28.0010  -12.4000   18.6060 C   0  0  0  0  0  2  0  0  0  0  0  0
  -27.5480  -13.3670   19.7260 C   0  0  0  0  0  3  0  0  0  0  0  0
  -28.6090  -13.5470   20.8340 C   0  0  0  0  0  2  0  0  0  0  0  0
  -29.8150  -14.0900   20.1770 N   0  0  0  0  0  0  0  0  0  0  0  0
  -31.5820  -15.4200   20.0340 O   0  0  0  0  0  0  0  0  0  0  0  0
  -29.5420  -16.6720   20.2890 N   0  0  0  0  0  0  0  0  0  0  0  0
  -28.5740  -16.3890   20.2680 H   0  0  0  0  0  0  0  0  0  0  0  0
  -25.1850  -13.9010   20.5190 C   0  0  0  0  0  0  0  0  0  0  0  0
  -24.1340  -13.1130   20.8960 C   0  0  0  0  0  0  0  0  0  0  0  0
  -24.6100  -11.7670   20.8500 C   0  0  0  0  0  0  0  0  0  0  0  0
  -26.2320  -13.0360   20.2550 N   0  0  0  0  0  0  0  0  0  0  0  0
  -25.8990  -11.7460   20.5220 N   0  0  0  0  0  0  0  0  0  0  0  0
  -23.8950  -10.4990   21.0380 C   0  0  0  0  0  0  0  0  0  0  0  0
  -24.3330   -9.5330   21.9700 C   0  0  0  0  0  3  0  0  0  0  0  0
  -23.6130   -8.3310   22.1490 C   0  0  0  0  0  3  0  0  0  0  0  0
  -22.4410   -8.0870   21.3950 C   0  0  0  0  0  0  0  0  0  0  0  0
  -22.0210   -9.0420   20.4510 C   0  0  0  0  0  3  0  0  0  0  0  0
  -22.7420  -10.2350   20.2710 C   0  0  0  0  0  3  0  0  0  0  0  0
  -21.6920   -6.9380   21.4830 O   0  0  0  0  0  0  0  0  0  0  0  0
  -21.6360   -6.2030   22.6400 C   0  0  0  0  0  0  0  0  0  0  0  0
  -21.1670   -6.7570   23.8520 C   0  0  0  0  0  3  0  0  0  0  0  0
  -21.0590   -5.9470   25.0000 C   0  0  0  0  0  3  0  0  0  0  0  0
  -21.4090   -4.5840   24.9370 C   0  0  0  0  0  0  0  0  0  0  0  0
  -21.8710   -4.0300   23.7300 C   0  0  0  0  0  3  0  0  0  0  0  0
  -21.9800   -4.8380   22.5840 C   0  0  0  0  0  0  0  0  0  0  0  0
  -22.4050   -4.2940   21.4170 F   0  0  0  0  0  0  0  0  0  0  0  0
  -21.2990   -3.8050   26.0380 F   0  0  0  0  0  0  0  0  0  0  0  0
  -22.7370  -13.5780   21.1850 C   0  0  0  0  0  0  0  0  0  0  0  0
  -22.0260  -12.8780   22.0600 N   0  0  0  0  0  0  0  0  0  0  0  0
  -22.2870  -14.6000   20.6690 O   0  0  0  0  0  0  0  0  0  0  0  0
  -22.4050  -12.0490   22.4960 H   0  0  0  0  0  0  0  0  0  0  0  0
  -21.0890  -13.1720   22.2980 H   0  0  0  0  0  0  0  0  0  0  0  0
  -25.3320  -15.2740   20.3430 N   0  0  0  0  0  0  0  0  0  0  0  0
  -24.5530  -15.9140   20.4570 H   0  0  0  0  0  0  0  0  0  0  0  0
  -26.1500  -15.7180   19.9480 H   0  0  0  0  0  0  0  0  0  0  0  0
  -27.9650  -24.2030   20.1270 C   0  0  0  0  0  2  0  0  0  0  0  0
  -28.1940  -25.8510   20.3360 O   0  0  0  0  0  0  0  0  0  0  0  0
  -24.6460  -31.8910   23.2580 C   0  0  0  0  0  0  0  0  0  0  0  0
  -27.1880  -26.9690   20.2560 C   0  0  0  0  0  0  0  0  0  0  0  0
  -23.4520  -30.5040   21.6130 C   0  0  0  0  0  3  0  0  0  0  0  0
  -24.8980  -28.8840   20.1950 C   0  0  0  0  0  0  0  0  0  0  0  0
  -26.0220  -30.6900   21.4800 C   0  0  0  0  0  2  0  0  0  0  0  0
  -26.0860  -29.2780   20.8240 C   0  0  0  0  0  0  0  0  0  0  0  0
  -27.2230  -28.3420   20.8250 C   0  0  0  0  0  3  0  0  0  0  0  0
  -25.9700  -26.7370   19.5780 C   0  0  0  0  0  3  0  0  0  0  0  0
  -24.8680  -27.6350   19.5500 C   0  0  0  0  0  3  0  0  0  0  0  0
  -23.6840  -29.8170   20.2380 C   0  0  0  0  0  2  0  0  0  0  0  0
  -24.7280  -31.0550   22.1690 N   0  0  0  0  0  0  0  0  0  0  0  0
  -23.5560  -32.1870   23.7750 O   0  0  0  0  0  0  0  0  0  0  0  0
  -22.7430  -29.5160   22.5760 C   0  0  0  0  0  0  0  0  0  0  0  0
  -21.4120  -29.3580   22.4450 N   0  0  0  0  0  0  0  0  0  0  0  0
  -23.3990  -28.8900   23.4120 O   0  0  0  0  0  0  0  0  0  0  0  0
  -20.9340  -29.9130   21.7480 H   0  0  0  0  0  0  0  0  0  0  0  0
  -18.0220  -28.1590   22.9320 C   0  0  0  0  0  0  0  0  0  0  0  0
  -20.5810  -28.4240   23.2120 C   0  0  0  0  0  3  0  0  0  0  0  0
  -20.6840  -26.9900   22.6410 C   0  0  0  0  0  2  0  0  0  0  0  0
  -19.5890  -26.6670   21.6200 C   0  0  0  0  0  2  0  0  0  0  0  0
  -18.2030  -26.8120   22.2550 C   0  0  0  0  0  2  0  0  0  0  0  0
  -19.1380  -28.9240   23.3670 C   0  0  0  0  0  0  0  0  0  0  0  0
  -18.9120  -30.1850   23.9630 C   0  0  0  0  0  3  0  0  0  0  0  0
  -17.6060  -30.6810   24.1280 C   0  0  0  0  0  3  0  0  0  0  0  0
  -16.5050  -29.9140   23.7070 C   0  0  0  0  0  3  0  0  0  0  0  0
  -16.7140  -28.6550   23.1150 C   0  0  0  0  0  3  0  0  0  0  0  0
  -25.9180  -32.5270   23.8970 C   0  0  0  0  0  3  0  0  0  0  0  0
  -25.6090  -33.9290   24.2300 N   0  0  0  0  0  0  0  0  0  0  0  0
  -25.9200  -34.9870   23.4680 C   0  0  0  0  0  0  0  0  0  0  0  0
  -26.5600  -34.8860   22.4190 O   0  0  0  0  0  0  0  0  0  0  0  0
  -25.0360  -34.0800   25.0480 H   0  0  0  0  0  0  0  0  0  0  0  0
  -24.1680  -36.7760   23.1960 C   0  0  0  0  0  1  0  0  0  0  0  0
  -25.4490  -36.3770   23.9450 C   0  0  0  0  0  3  0  0  0  0  0  0
  -27.6160  -37.2830   24.6690 C   0  0  0  0  0  1  0  0  0  0  0  0
  -26.4700  -37.4360   23.7760 N   0  0  0  0  0  0  0  0  0  0  0  0
  -26.0640  -38.3540   23.9370 H   0  0  0  0  0  0  0  0  0  0  0  0
  -26.4090  -31.7610   25.1880 C   0  0  1  0  0  0  0  0  0  0  0  0
  -25.2990  -31.5450   26.2430 C   0  0  0  0  0  1  0  0  0  0  0  0
  -26.9850  -30.3750   24.8250 C   0  0  0  0  0  1  0  0  0  0  0  0
  -27.5580  -32.5510   25.8600 C   0  0  0  0  0  1  0  0  0  0  0  0
  1  2  2  0
  4  3  1  0
  5  1  1  0
  5  3  2  0
  6  4  2  0
  7  6  1  0
  7  5  1  0
  8 16  1  0
  9 14  1  0
 10 11  1  0
 10  9  1  0
 12 11  1  0
 12 21  1  0
 12 13  1  0
 14  8  1  0
 14 13  1  0
 15  8  2  0
 16  6  1  0
 17 16  1  0
 18 19  2  0
 19 38  1  0
 20 19  1  0
 20 23  1  0
 21 18  1  0
 21 22  1  0
 22 20  2  0
 23 24  1  0
 24 25  2  0
 26 29  1  0
 26 25  1  0
 27 26  2  0
 28 27  1  0
 28 23  2  0
 29 30  1  0
 30 31  1  0
 31 32  2  0
 33 32  1  0
 33 37  1  0
 34 33  2  0
 35 30  2  0
 35 34  1  0
 36 35  1  0
 38 39  1  0
 39 42  1  0
 39 41  1  0
 40 38  2  0
 43 44  1  0
 43 18  1  0
 45 43  1  0
 46 47  1  0
 46  1  1  0
 48 59  2  0
 49 47  1  0
 49 54  1  0
 50 58  1  0
 50 60  1  0
 51 57  1  0
 51 53  1  0
 52 58  1  0
 53 54  2  0
 53 52  1  0
 55 49  2  0
 56 55  1  0
 56 51  2  0
 57 50  1  0
 58 48  1  0
 60 62  2  0
 61 60  1  0
 63 61  1  0
 64 73  2  0
 64 69  1  0
 65 61  1  0
 65 69  1  0
 66 65  1  0
 67 68  1  0
 67 66  1  0
 68 64  1  0
 69 70  2  0
 70 71  1  0
 72 71  2  0
 73 72  1  0
 74 48  1  0
 74 75  1  0
 74 84  1  0
 75 78  1  0
 76 80  1  0
 76 75  1  0
 77 76  2  0
 80 79  1  0
 82 83  1  0
 82 80  1  0
 82 81  1  0
 84 87  1  1
 84 85  1  0
 86 84  1  0
M  ISO  4   8 100  16 100  46 101  47 101
M  END
>  <TORSDO>  (30) 
F 18

>  <SCORE>  (30) 
-16.198

>  <name>  (30) 
30

>  <ligand_id>  (30) 
30

>  <original_smiles>  (30) 
[H]c1c(C(=O)C([H])([H])Oc2c([H])c([H])c3c(c2[H])C([H])([H])N(C(=O)C([H])(N([H])C(=O)C([H])(N([H])C([H])([H])[H])C([H])([H])[H])C(C([H])([H])[H])(C([H])([H])[H])C([H])([H])[H])C([H])(C(=O)N([H])C2([H])c4c([H])c([H])c([H])c([H])c4C([H])([H])C([H])([H])C2([H])[H])C3([H])[H])sc(N([H])C(=O)N2C([H])([H])C([H])([H])C([H])([H])C([H])(n3nc(-c4c([H])c([H])c(Oc5c([H])c([H])c(F)c([H])c5F)c([H])c4[H])c(C(=O)N([H])[H])c3N([H])[H])C2([H])[H])c1[H]

>  <smiles>  (30) 
[H]c1c(C(=O)C([H])([H])Oc2c([H])c([H])c3c(c2[H])C([H])([H])N(C(=O)C([H])(N([H])C(=O)C([H])(N([H])C([H])([H])[H])C([H])([H])[H])C(C([H])([H])[H])(C([H])([H])[H])C([H])([H])[H])C([H])(C(=O)N([H])C2([H])c4c([H])c([H])c([H])c([H])c4C([H])([H])C([H])([H])C2([H])[H])C3([H])[H])sc(N([H])C(=O)N2C([H])([H])C([H])([H])C([H])([H])C([H])(n3nc(-c4c([H])c([H])c(Oc5c([H])c([H])c(F)c([H])c5F)c([H])c4[H])c(C(=O)N([H])[H])c3N([H])[H])C2([H])[H])c1[H]

$$$$
31:0:0
     RDKit          3D

 97105  0  0  1  0  0  0  0  0999 V2000
  -29.8200  -19.5810   21.5280 C   0  0  0  0  0  3  0  0  0  0  0  0
  -29.4500  -20.9440   21.3020 C   0  0  0  0  0  3  0  0  0  0  0  0
  -29.4590  -19.0740   19.2020 C   0  0  0  0  0  3  0  0  0  0  0  0
  -29.8520  -18.6110   20.4840 C   0  0  0  0  0  0  0  0  0  0  0  0
  -29.1180  -21.4200   20.0060 C   0  0  0  0  0  0  0  0  0  0  0  0
  -29.1280  -20.4440   18.9640 C   0  0  0  0  0  0  0  0  0  0  0  0
  -30.6870  -14.7290   20.2560 C   0  0  0  0  0  0  0  0  0  0  0  0
  -30.3890  -12.5070   19.1900 C   0  0  0  0  0  2  0  0  0  0  0  0
  -29.4380  -12.6220   17.9820 C   0  0  0  0  0  2  0  0  0  0  0  0
  -27.9770  -12.4530   18.4420 C   0  0  0  0  0  2  0  0  0  0  0  0
  -27.6260  -13.3320   19.6720 C   0  0  0  0  0  3  0  0  0  0  0  0
  -28.7020  -13.2330   20.7750 C   0  0  0  0  0  2  0  0  0  0  0  0
  -29.9900  -13.5540   20.1520 N   0  0  0  0  0  0  0  0  0  0  0  0
  -31.8900  -14.7800   19.9810 O   0  0  0  0  0  0  0  0  0  0  0  0
  -30.4990  -17.2540   20.6810 C   0  0  0  0  0  0  0  0  0  0  0  0
  -29.9580  -16.0100   20.4110 N   0  0  0  0  0  0  0  0  0  0  0  0
  -31.7470  -17.3340   21.1590 N   0  0  0  0  0  4  0  0  0  0  0  0
  -28.9550  -16.0460   20.3740 H   0  0  0  0  0  0  0  0  0  0  0  0
  -32.1630  -18.2360   21.3380 H   0  0  0  0  0  0  0  0  0  0  0  0
  -32.3390  -16.5140   21.1310 H   0  0  0  0  0  0  0  0  0  0  0  0
  -25.2450  -13.9120   20.4360 C   0  0  0  0  0  0  0  0  0  0  0  0
  -24.1900  -13.1330   20.8220 C   0  0  0  0  0  0  0  0  0  0  0  0
  -24.6610  -11.7850   20.7850 C   0  0  0  0  0  0  0  0  0  0  0  0
  -26.2910  -13.0380   20.1840 N   0  0  0  0  0  0  0  0  0  0  0  0
  -25.9460  -11.7550   20.4580 N   0  0  0  0  0  0  0  0  0  0  0  0
  -23.9420  -10.5180   20.9820 C   0  0  0  0  0  0  0  0  0  0  0  0
  -24.3780   -9.5630   21.9260 C   0  0  0  0  0  3  0  0  0  0  0  0
  -23.6620   -8.3610   22.1100 C   0  0  0  0  0  3  0  0  0  0  0  0
  -22.4960   -8.1060   21.3510 C   0  0  0  0  0  0  0  0  0  0  0  0
  -22.0790   -9.0500   20.3950 C   0  0  0  0  0  3  0  0  0  0  0  0
  -22.7970  -10.2440   20.2090 C   0  0  0  0  0  3  0  0  0  0  0  0
  -21.7500   -6.9560   21.4440 O   0  0  0  0  0  0  0  0  0  0  0  0
  -21.6910   -6.2290   22.6050 C   0  0  0  0  0  0  0  0  0  0  0  0
  -21.2080   -6.7870   23.8090 C   0  0  0  0  0  3  0  0  0  0  0  0
  -21.1000   -5.9840   24.9620 C   0  0  0  0  0  3  0  0  0  0  0  0
  -21.4640   -4.6250   24.9120 C   0  0  0  0  0  0  0  0  0  0  0  0
  -21.9390   -4.0670   23.7120 C   0  0  0  0  0  3  0  0  0  0  0  0
  -22.0490   -4.8660   22.5610 C   0  0  0  0  0  0  0  0  0  0  0  0
  -22.4880   -4.3190   21.4030 F   0  0  0  0  0  0  0  0  0  0  0  0
  -21.3530   -3.8510   26.0180 F   0  0  0  0  0  0  0  0  0  0  0  0
  -22.7940  -13.6020   21.1080 C   0  0  0  0  0  0  0  0  0  0  0  0
  -22.0710  -12.8950   21.9700 N   0  0  0  0  0  0  0  0  0  0  0  0
  -22.3510  -14.6330   20.6020 O   0  0  0  0  0  0  0  0  0  0  0  0
  -22.4410  -12.0620   22.4050 H   0  0  0  0  0  0  0  0  0  0  0  0
  -21.1340  -13.1950   22.2020 H   0  0  0  0  0  0  0  0  0  0  0  0
  -25.3940  -15.2850   20.2560 N   0  0  0  0  0  0  0  0  0  0  0  0
  -24.6070  -15.9160   20.3580 H   0  0  0  0  0  0  0  0  0  0  0  0
  -26.2010  -15.7280   19.8370 H   0  0  0  0  0  0  0  0  0  0  0  0
  -28.7210  -23.9880   20.3290 C   0  0  0  0  0  0  0  0  0  0  0  0
  -28.7940  -22.8030   19.6440 N   0  0  0  0  0  0  0  0  0  0  0  0
  -28.8490  -24.0560   21.5540 O   0  0  0  0  0  0  0  0  0  0  0  0
  -28.6000  -22.8920   18.6580 H   0  0  0  0  0  0  0  0  0  0  0  0
  -28.4670  -25.3070   19.4860 C   0  0  0  0  0  2  0  0  0  0  0  0
  -28.3330  -26.5840   20.2290 O   0  0  0  0  0  0  0  0  0  0  0  0
  -24.5750  -31.9510   23.2390 C   0  0  0  0  0  0  0  0  0  0  0  0
  -27.1820  -27.3890   20.1710 C   0  0  0  0  0  0  0  0  0  0  0  0
  -23.3630  -30.5400   21.6150 C   0  0  0  0  0  3  0  0  0  0  0  0
  -24.8050  -28.9910   20.1850 C   0  0  0  0  0  0  0  0  0  0  0  0
  -25.9000  -30.8680   21.4110 C   0  0  0  0  0  2  0  0  0  0  0  0
  -25.9760  -29.4870   20.7680 C   0  0  0  0  0  0  0  0  0  0  0  0
  -27.1620  -28.6950   20.7550 C   0  0  0  0  0  3  0  0  0  0  0  0
  -25.9760  -26.9390   19.5840 C   0  0  0  0  0  3  0  0  0  0  0  0
  -24.8060  -27.7210   19.5890 C   0  0  0  0  0  3  0  0  0  0  0  0
  -23.5680  -29.8600   20.2350 C   0  0  0  0  0  2  0  0  0  0  0  0
  -24.6320  -31.1370   22.1440 N   0  0  0  0  0  0  0  0  0  0  0  0
  -23.4940  -32.2280   23.7800 O   0  0  0  0  0  0  0  0  0  0  0  0
  -22.7140  -29.5250   22.5840 C   0  0  0  0  0  0  0  0  0  0  0  0
  -21.3900  -29.3330   22.4590 N   0  0  0  0  0  0  0  0  0  0  0  0
  -23.3990  -28.9130   23.4080 O   0  0  0  0  0  0  0  0  0  0  0  0
  -20.8970  -29.8790   21.7660 H   0  0  0  0  0  0  0  0  0  0  0  0
  -18.0210  -28.1200   22.9770 C   0  0  0  0  0  0  0  0  0  0  0  0
  -20.5780  -28.3970   23.2380 C   0  0  0  0  0  3  0  0  0  0  0  0
  -20.6860  -26.9630   22.6730 C   0  0  0  0  0  2  0  0  0  0  0  0
  -19.5840  -26.6250   21.6640 C   0  0  0  0  0  2  0  0  0  0  0  0
  -18.2030  -26.7680   22.3100 C   0  0  0  0  0  2  0  0  0  0  0  0
  -19.1370  -28.8920   23.3990 C   0  0  0  0  0  0  0  0  0  0  0  0
  -18.9120  -30.1570   23.9830 C   0  0  0  0  0  3  0  0  0  0  0  0
  -17.6050  -30.6520   24.1520 C   0  0  0  0  0  3  0  0  0  0  0  0
  -16.5050  -29.8780   23.7460 C   0  0  0  0  0  3  0  0  0  0  0  0
  -16.7120  -28.6150   23.1650 C   0  0  0  0  0  3  0  0  0  0  0  0
  -25.8600  -32.5910   23.8470 C   0  0  0  0  0  3  0  0  0  0  0  0
  -26.3780  -31.8370   25.1340 C   0  0  1  0  0  0  0  0  0  0  0  0
  -25.2850  -31.6120   26.2050 C   0  0  0  0  0  1  0  0  0  0  0  0
  -26.9650  -30.4570   24.7610 C   0  0  0  0  0  1  0  0  0  0  0  0
  -27.5250  -32.6440   25.7850 C   0  0  0  0  0  1  0  0  0  0  0  0
  -25.5520  -33.9940   24.1590 N   0  0  0  0  0  0  0  0  0  0  0  0
  -25.8900  -35.0380   23.3890 C   0  0  0  0  0  0  0  0  0  0  0  0
  -26.5650  -34.9190   22.3630 O   0  0  0  0  0  0  0  0  0  0  0  0
  -24.9540  -34.1590   24.9550 H   0  0  0  0  0  0  0  0  0  0  0  0
  -24.1820  -36.8400   22.9890 C   0  0  0  0  0  1  0  0  0  0  0  0
  -25.4040  -36.4330   23.8270 C   0  0  0  0  0  3  0  0  0  0  0  0
  -27.5250  -37.3130   24.6960 C   0  0  0  0  0  1  0  0  0  0  0  0
  -26.4460  -37.4780   23.7260 N   0  0  0  0  0  0  0  0  0  0  0  0
  -26.0420  -38.4020   23.8530 H   0  0  0  0  0  0  0  0  0  0  0  0
  -28.8580  -20.8450   17.6520 N   0  0  0  0  0  0  0  0  0  0  0  0
  -29.0230  -20.1440   16.9370 H   0  0  0  0  0  0  0  0  0  0  0  0
  -29.2690  -21.7270   17.3660 H   0  0  0  0  0  0  0  0  0  0  0  0
  2  1  1  0
  3  4  1  0
  4 15  1  0
  4  1  2  0
  5  2  2  0
  6  3  2  0
  6  5  1  0
  7 16  1  0
  8 13  1  0
  9 10  1  0
  9  8  1  0
 11 10  1  0
 11 24  1  0
 11 12  1  0
 13  7  1  0
 13 12  1  0
 14  7  2  0
 15 17  2  0
 16 15  1  0
 17 19  1  0
 18 16  1  0
 20 17  1  0
 21 22  2  0
 22 41  1  0
 23 22  1  0
 23 26  1  0
 24 21  1  0
 24 25  1  0
 25 23  2  0
 26 27  1  0
 27 28  2  0
 29 32  1  0
 29 28  1  0
 30 29  2  0
 31 30  1  0
 31 26  2  0
 32 33  1  0
 33 34  1  0
 34 35  2  0
 36 35  1  0
 36 40  1  0
 37 36  2  0
 38 33  2  0
 38 37  1  0
 39 38  1  0
 41 42  1  0
 42 45  1  0
 42 44  1  0
 43 41  2  0
 46 47  1  0
 46 21  1  0
 48 46  1  0
 49 51  2  0
 50  5  1  0
 50 49  1  0
 52 50  1  0
 53 54  1  0
 53 49  1  0
 55 66  2  0
 56 54  1  0
 56 61  1  0
 57 65  1  0
 57 67  1  0
 58 64  1  0
 58 60  1  0
 59 65  1  0
 60 59  1  0
 61 60  2  0
 62 63  1  0
 62 56  2  0
 63 58  2  0
 64 57  1  0
 65 55  1  0
 67 69  2  0
 68 67  1  0
 70 68  1  0
 71 80  2  0
 71 76  1  0
 72 68  1  0
 72 76  1  0
 73 72  1  0
 74 75  1  0
 74 73  1  0
 75 71  1  0
 76 77  2  0
 77 78  1  0
 79 78  2  0
 80 79  1  0
 81 55  1  0
 81 86  1  0
 81 82  1  0
 82 85  1  1
 82 83  1  0
 84 82  1  0
 86 89  1  0
 87 91  1  0
 87 86  1  0
 88 87  2  0
 91 90  1  0
 93 91  1  0
 93 94  1  0
 93 92  1  0
 95  6  1  0
 96 95  1  0
 97 95  1  0
M  ISO  4   7 100  16 100  53 101  54 101
M  END
>  <TORSDO>  (31) 
F 19

>  <SCORE>  (31) 
-14.364

>  <name>  (31) 
31

>  <ligand_id>  (31) 
31

>  <original_smiles>  (31) 
[H]c1c([H])c([H])c2c(c1[H])C([H])([H])C([H])([H])C([H])([H])C2([H])N([H])C(=O)C1([H])N(C(=O)C([H])(N([H])C(=O)C([H])(N([H])C([H])([H])[H])C([H])([H])[H])C(C([H])([H])[H])(C([H])([H])[H])C([H])([H])[H])C([H])([H])c2c([H])c(OC([H])([H])C(=O)N([H])c3c([H])c([H])c(C(N([H])C(=O)N4C([H])([H])C([H])([H])C([H])([H])C([H])(n5nc(-c6c([H])c([H])c(Oc7c([H])c([H])c(F)c([H])c7F)c([H])c6[H])c(C(=O)N([H])[H])c5N([H])[H])C4([H])[H])=[N+]([H])[H])c([H])c3N([H])[H])c([H])c([H])c2C1([H])[H]

>  <smiles>  (31) 
[H]c1c([H])c([H])c2c(c1[H])C([H])([H])C([H])([H])C([H])([H])C2([H])N([H])C(=O)C1([H])N(C(=O)C([H])(N([H])C(=O)C([H])(N([H])C([H])([H])[H])C([H])([H])[H])C(C([H])([H])[H])(C([H])([H])[H])C([H])([H])[H])C([H])([H])c2c([H])c(OC([H])([H])C(=O)N([H])c3c([H])c([H])c(C(N([H])C(=O)N4C([H])([H])C([H])([H])C([H])([H])C([H])(n5nc(-c6c([H])c([H])c(Oc7c([H])c([H])c(F)c([H])c7F)c([H])c6[H])c(C(=O)N([H])[H])c5N([H])[H])C4([H])[H])=[N+]([H])[H])c([H])c3N([H])[H])c([H])c([H])c2C1([H])[H]

$$$$
32:0:0
     RDKit          3D

 96105  0  0  1  0  0  0  0  0999 V2000
  -28.5440  -23.2240   17.8590 C   0  0  0  0  0  3  0  0  0  0  0  0
  -29.3780  -22.9220   19.8890 C   0  0  0  0  0  3  0  0  0  0  0  0
  -28.9350  -23.9470   19.0250 C   0  0  0  0  0  0  0  0  0  0  0  0
  -28.7910  -21.8910   18.0160 C   0  0  0  0  0  0  0  0  0  0  0  0
  -29.3140  -21.6250   19.2700 N   0  0  0  0  0  0  0  0  0  0  0  0
  -30.6610  -19.4780   19.0070 C   0  0  0  0  0  3  0  0  0  0  0  0
  -30.8580  -18.0680   19.2060 C   0  0  0  0  0  3  0  0  0  0  0  0
  -29.1310  -18.1030   20.8620 C   0  0  0  0  0  3  0  0  0  0  0  0
  -29.6730  -20.2500   19.6980 C   0  0  0  0  0  0  0  0  0  0  0  0
  -30.0700  -17.3180   20.1270 C   0  0  0  0  0  0  0  0  0  0  0  0
  -28.9280  -19.5100   20.6660 C   0  0  0  0  0  0  0  0  0  0  0  0
  -30.8490  -14.7980   19.8490 C   0  0  0  0  0  0  0  0  0  0  0  0
  -30.5790  -12.5390   18.8140 C   0  0  0  0  0  2  0  0  0  0  0  0
  -29.5420  -12.6660   17.6760 C   0  0  0  0  0  2  0  0  0  0  0  0
  -28.1060  -12.5040   18.2150 C   0  0  0  0  0  2  0  0  0  0  0  0
  -27.8480  -13.3530   19.4870 C   0  0  0  0  0  3  0  0  0  0  0  0
  -28.9950  -13.1960   20.5120 C   0  0  0  0  0  2  0  0  0  0  0  0
  -30.2500  -13.5570   19.8340 N   0  0  0  0  0  0  0  0  0  0  0  0
  -31.9650  -14.9610   19.3430 O   0  0  0  0  0  0  0  0  0  0  0  0
  -30.0890  -15.8470   20.3290 N   0  0  0  0  0  0  0  0  0  0  0  0
  -29.2840  -15.5010   20.8310 H   0  0  0  0  0  0  0  0  0  0  0  0
  -25.5390  -13.9520   20.4420 C   0  0  0  0  0  0  0  0  0  0  0  0
  -24.4910  -13.1820   20.8690 C   0  0  0  0  0  0  0  0  0  0  0  0
  -24.9170  -11.8260   20.7330 C   0  0  0  0  0  0  0  0  0  0  0  0
  -26.5410  -13.0670   20.0760 N   0  0  0  0  0  0  0  0  0  0  0  0
  -26.1760  -11.7800   20.3100 N   0  0  0  0  0  0  0  0  0  0  0  0
  -24.1800  -10.5700   20.9290 C   0  0  0  0  0  0  0  0  0  0  0  0
  -24.6050   -9.6020   21.8650 C   0  0  0  0  0  3  0  0  0  0  0  0
  -23.8690   -8.4110   22.0480 C   0  0  0  0  0  3  0  0  0  0  0  0
  -22.6940   -8.1790   21.2950 C   0  0  0  0  0  0  0  0  0  0  0  0
  -22.2880   -9.1360   20.3480 C   0  0  0  0  0  3  0  0  0  0  0  0
  -23.0240  -10.3180   20.1640 C   0  0  0  0  0  3  0  0  0  0  0  0
  -21.9300   -7.0410   21.3870 O   0  0  0  0  0  0  0  0  0  0  0  0
  -21.7800   -6.3670   22.5720 C   0  0  0  0  0  0  0  0  0  0  0  0
  -21.2330   -6.9880   23.7180 C   0  0  0  0  0  3  0  0  0  0  0  0
  -21.0370   -6.2400   24.8960 C   0  0  0  0  0  3  0  0  0  0  0  0
  -21.3700   -4.8730   24.9280 C   0  0  0  0  0  0  0  0  0  0  0  0
  -21.9080   -4.2530   23.7880 C   0  0  0  0  0  3  0  0  0  0  0  0
  -22.1100   -4.9970   22.6110 C   0  0  0  0  0  0  0  0  0  0  0  0
  -22.6090   -4.3900   21.5070 F   0  0  0  0  0  0  0  0  0  0  0  0
  -21.1730   -4.1510   26.0570 F   0  0  0  0  0  0  0  0  0  0  0  0
  -23.1340  -13.6730   21.2840 C   0  0  0  0  0  0  0  0  0  0  0  0
  -22.4690  -12.9570   22.1840 N   0  0  0  0  0  0  0  0  0  0  0  0
  -22.6740  -14.7260   20.8460 O   0  0  0  0  0  0  0  0  0  0  0  0
  -22.8540  -12.1050   22.5640 H   0  0  0  0  0  0  0  0  0  0  0  0
  -21.5620  -13.2690   22.4990 H   0  0  0  0  0  0  0  0  0  0  0  0
  -25.7190  -15.3260   20.3120 N   0  0  0  0  0  0  0  0  0  0  0  0
  -24.9750  -15.9870   20.5120 H   0  0  0  0  0  0  0  0  0  0  0  0
  -26.5340  -15.7600   19.8980 H   0  0  0  0  0  0  0  0  0  0  0  0
  -27.9380  -20.1480   21.4170 N   0  0  0  0  0  0  0  0  0  0  0  0
  -27.1880  -19.5750   21.7930 H   0  0  0  0  0  0  0  0  0  0  0  0
  -27.6120  -21.0390   21.0590 H   0  0  0  0  0  0  0  0  0  0  0  0
  -28.6050  -20.8950   17.1070 O   0  0  0  0  0  0  0  0  0  0  0  0
  -28.3980  -21.3000   16.2710 H   0  0  0  0  0  0  0  0  0  0  0  0
  -28.9380  -25.5470   18.9450 C   0  0  0  0  0  2  0  0  0  0  0  0
  -28.5570  -26.5150   19.9940 O   0  0  0  0  0  0  0  0  0  0  0  0
  -24.6210  -31.7240   23.0770 C   0  0  0  0  0  0  0  0  0  0  0  0
  -27.4210  -27.3440   19.8910 C   0  0  0  0  0  0  0  0  0  0  0  0
  -23.4760  -30.3240   21.3930 C   0  0  0  0  0  3  0  0  0  0  0  0
  -24.9900  -28.8710   19.9190 C   0  0  0  0  0  0  0  0  0  0  0  0
  -26.0000  -30.7400   21.2290 C   0  0  0  0  0  2  0  0  0  0  0  0
  -26.1340  -29.3800   20.5450 C   0  0  0  0  0  0  0  0  0  0  0  0
  -27.3430  -28.6220   20.5350 C   0  0  0  0  0  3  0  0  0  0  0  0
  -26.2550  -26.8860   19.2400 C   0  0  0  0  0  3  0  0  0  0  0  0
  -25.0550  -27.6300   19.2580 C   0  0  0  0  0  3  0  0  0  0  0  0
  -23.7160  -29.6900   19.9970 C   0  0  0  0  0  2  0  0  0  0  0  0
  -24.7180  -30.9480   21.9570 N   0  0  0  0  0  0  0  0  0  0  0  0
  -23.5270  -31.9460   23.6160 O   0  0  0  0  0  0  0  0  0  0  0  0
  -22.8470  -29.2620   22.3280 C   0  0  0  0  0  0  0  0  0  0  0  0
  -21.5230  -29.0610   22.2140 N   0  0  0  0  0  0  0  0  0  0  0  0
  -23.5500  -28.6230   23.1140 O   0  0  0  0  0  0  0  0  0  0  0  0
  -21.0130  -29.6340   21.5570 H   0  0  0  0  0  0  0  0  0  0  0  0
  -18.1750  -27.7930   22.7370 C   0  0  0  0  0  0  0  0  0  0  0  0
  -20.7350  -28.0780   22.9600 C   0  0  0  0  0  3  0  0  0  0  0  0
  -20.8430  -26.6760   22.3150 C   0  0  0  0  0  2  0  0  0  0  0  0
  -19.7220  -26.3850   21.3130 C   0  0  0  0  0  2  0  0  0  0  0  0
  -18.3540  -26.4810   21.9940 C   0  0  0  0  0  2  0  0  0  0  0  0
  -19.2940  -28.5510   23.1760 C   0  0  0  0  0  0  0  0  0  0  0  0
  -19.0710  -29.7830   23.8300 C   0  0  0  0  0  3  0  0  0  0  0  0
  -17.7620  -30.2550   24.0490 C   0  0  0  0  0  3  0  0  0  0  0  0
  -16.6590  -29.4920   23.6260 C   0  0  0  0  0  3  0  0  0  0  0  0
  -16.8670  -28.2630   22.9770 C   0  0  0  0  0  3  0  0  0  0  0  0
  -25.8780  -32.3870   23.7240 C   0  0  0  0  0  3  0  0  0  0  0  0
  -26.4280  -31.5930   24.9720 C   0  0  1  0  0  0  0  0  0  0  0  0
  -25.3490  -31.2740   26.0310 C   0  0  0  0  0  1  0  0  0  0  0  0
  -27.0630  -30.2550   24.5310 C   0  0  0  0  0  1  0  0  0  0  0  0
  -27.5500  -32.4070   25.6590 C   0  0  0  0  0  1  0  0  0  0  0  0
  -25.5120  -33.7590   24.1070 N   0  0  0  0  0  0  0  0  0  0  0  0
  -25.7810  -34.8510   23.3780 C   0  0  0  0  0  0  0  0  0  0  0  0
  -26.4330  -34.8130   22.3320 O   0  0  0  0  0  0  0  0  0  0  0  0
  -24.9270  -33.8610   24.9240 H   0  0  0  0  0  0  0  0  0  0  0  0
  -23.9620  -36.5710   23.1270 C   0  0  0  0  0  1  0  0  0  0  0  0
  -25.2420  -36.2000   23.8940 C   0  0  0  0  0  3  0  0  0  0  0  0
  -27.3490  -37.1630   24.7070 C   0  0  0  0  0  1  0  0  0  0  0  0
  -26.2210  -37.3030   23.7900 N   0  0  0  0  0  0  0  0  0  0  0  0
  -25.7750  -38.1990   23.9680 H   0  0  0  0  0  0  0  0  0  0  0  0
  1  4  2  0
  1  3  1  0
  3  2  2  0
  4  5  1  0
  5  9  1  0
  5  2  1  0
  6  7  2  0
  6  9  1  0
  7 10  1  0
  9 11  2  0
 10 20  1  0
 10  8  2  0
 11  8  1  0
 11 50  1  0
 12 20  1  0
 13 18  1  0
 14 15  1  0
 14 13  1  0
 16 15  1  0
 16 25  1  0
 16 17  1  0
 18 12  1  0
 18 17  1  0
 19 12  2  0
 20 21  1  0
 22 23  2  0
 23 42  1  0
 24 23  1  0
 24 27  1  0
 25 26  1  0
 25 22  1  0
 26 24  2  0
 27 28  1  0
 28 29  2  0
 30 33  1  0
 30 29  1  0
 31 30  2  0
 32 31  1  0
 32 27  2  0
 33 34  1  0
 34 39  2  0
 34 35  1  0
 35 36  2  0
 36 37  1  0
 37 41  1  0
 38 37  2  0
 39 38  1  0
 40 39  1  0
 42 43  1  0
 43 46  1  0
 43 45  1  0
 44 42  2  0
 47 22  1  0
 47 48  1  0
 49 47  1  0
 50 51  1  0
 52 50  1  0
 53  4  1  0
 54 53  1  0
 55  3  1  0
 55 56  1  0
 57 68  2  0
 58 56  1  0
 58 63  1  0
 59 67  1  0
 59 69  1  0
 60 66  1  0
 60 62  1  0
 61 67  1  0
 62 61  1  0
 63 62  2  0
 64 65  1  0
 64 58  2  0
 65 60  2  0
 66 59  1  0
 67 57  1  0
 69 71  2  0
 70 69  1  0
 72 70  1  0
 73 82  2  0
 73 78  1  0
 74 70  1  0
 74 78  1  0
 75 74  1  0
 76 77  1  0
 76 75  1  0
 77 73  1  0
 78 79  2  0
 79 80  1  0
 81 80  2  0
 82 81  1  0
 83 57  1  0
 83 88  1  0
 83 84  1  0
 84 87  1  1
 84 85  1  0
 86 84  1  0
 88 91  1  0
 89 93  1  0
 89 88  1  0
 90 89  2  0
 93 92  1  0
 95 93  1  0
 95 96  1  0
 95 94  1  0
M  ISO  4  12 100  20 100  55 101  56 101
M  END
>  <TORSDO>  (32) 
F 20

>  <SCORE>  (32) 
-13.314

>  <name>  (32) 
32

>  <ligand_id>  (32) 
32

>  <original_smiles>  (32) 
[H]Oc1c([H])c(C([H])([H])Oc2c([H])c([H])c3c(c2[H])C([H])([H])N(C(=O)C([H])(N([H])C(=O)C([H])(N([H])C([H])([H])[H])C([H])([H])[H])C(C([H])([H])[H])(C([H])([H])[H])C([H])([H])[H])C([H])(C(=O)N([H])C2([H])c4c([H])c([H])c([H])c([H])c4C([H])([H])C([H])([H])C2([H])[H])C3([H])[H])c([H])n1-c1c([H])c([H])c(N([H])C(=O)N2C([H])([H])C([H])([H])C([H])([H])C([H])(n3nc(-c4c([H])c([H])c(Oc5c([H])c([H])c(F)c([H])c5F)c([H])c4[H])c(C(=O)N([H])[H])c3N([H])[H])C2([H])[H])c([H])c1N([H])[H]

>  <smiles>  (32) 
[H]Oc1c([H])c(C([H])([H])Oc2c([H])c([H])c3c(c2[H])C([H])([H])N(C(=O)C([H])(N([H])C(=O)C([H])(N([H])C([H])([H])[H])C([H])([H])[H])C(C([H])([H])[H])(C([H])([H])[H])C([H])([H])[H])C([H])(C(=O)N([H])C2([H])c4c([H])c([H])c([H])c([H])c4C([H])([H])C([H])([H])C2([H])[H])C3([H])[H])c([H])n1-c1c([H])c([H])c(N([H])C(=O)N2C([H])([H])C([H])([H])C([H])([H])C([H])(n3nc(-c4c([H])c([H])c(Oc5c([H])c([H])c(F)c([H])c5F)c([H])c4[H])c(C(=O)N([H])[H])c3N([H])[H])C2([H])[H])c([H])c1N([H])[H]

$$$$
33:0:0
     RDKit          3D

 92100  0  0  1  0  0  0  0  0999 V2000
  -28.0250  -19.6120   20.0100 C   0  0  0  0  0  3  0  0  0  0  0  0
  -30.5500  -18.6720   20.6130 C   0  0  0  0  0  3  0  0  0  0  0  0
  -28.9590  -20.6730   20.2350 C   0  0  0  0  0  0  0  0  0  0  0  0
  -30.2600  -20.1150   20.5520 C   0  0  0  0  0  0  0  0  0  0  0  0
  -29.5730  -17.6270   20.3960 C   0  0  0  0  0  0  0  0  0  0  0  0
  -28.3000  -18.1970   20.0970 C   0  0  0  0  0  0  0  0  0  0  0  0
  -27.2750  -17.3370   19.8880 F   0  0  0  0  0  0  0  0  0  0  0  0
  -30.5020  -14.9970   20.3430 C   0  0  0  0  0  0  0  0  0  0  0  0
  -30.4060  -12.6570   19.3720 C   0  0  0  0  0  2  0  0  0  0  0  0
  -29.4550  -12.6440   18.1510 C   0  0  0  0  0  2  0  0  0  0  0  0
  -27.9920  -12.4290   18.5900 C   0  0  0  0  0  2  0  0  0  0  0  0
  -27.5970  -13.3260   19.7930 C   0  0  0  0  0  3  0  0  0  0  0  0
  -28.6660  -13.3010   20.9060 C   0  0  0  0  0  2  0  0  0  0  0  0
  -29.9390  -13.7230   20.2990 N   0  0  0  0  0  0  0  0  0  0  0  0
  -31.6950  -15.1160   20.0440 O   0  0  0  0  0  0  0  0  0  0  0  0
  -29.6370  -16.0980   20.5380 N   0  0  0  0  0  0  0  0  0  0  0  0
  -28.7090  -15.7390   20.7010 H   0  0  0  0  0  0  0  0  0  0  0  0
  -25.2130  -13.8850   20.5530 C   0  0  0  0  0  0  0  0  0  0  0  0
  -24.1550  -13.1030   20.9220 C   0  0  0  0  0  0  0  0  0  0  0  0
  -24.6250  -11.7550   20.8760 C   0  0  0  0  0  0  0  0  0  0  0  0
  -26.2610  -13.0160   20.2960 N   0  0  0  0  0  0  0  0  0  0  0  0
  -25.9140  -11.7270   20.5540 N   0  0  0  0  0  0  0  0  0  0  0  0
  -23.9030  -10.4880   21.0600 C   0  0  0  0  0  0  0  0  0  0  0  0
  -24.3370   -9.5180   21.9890 C   0  0  0  0  0  3  0  0  0  0  0  0
  -23.6160   -8.3170   22.1630 C   0  0  0  0  0  3  0  0  0  0  0  0
  -22.4440   -8.0780   21.4070 C   0  0  0  0  0  0  0  0  0  0  0  0
  -22.0260   -9.0380   20.4690 C   0  0  0  0  0  3  0  0  0  0  0  0
  -22.7480  -10.2310   20.2930 C   0  0  0  0  0  3  0  0  0  0  0  0
  -21.6940   -6.9290   21.4890 O   0  0  0  0  0  0  0  0  0  0  0  0
  -21.6380   -6.1880   22.6420 C   0  0  0  0  0  0  0  0  0  0  0  0
  -21.1640   -6.7310   23.8570 C   0  0  0  0  0  3  0  0  0  0  0  0
  -21.0570   -5.9140   25.0000 C   0  0  0  0  0  3  0  0  0  0  0  0
  -21.4150   -4.5540   24.9300 C   0  0  0  0  0  0  0  0  0  0  0  0
  -21.8810   -4.0100   23.7210 C   0  0  0  0  0  3  0  0  0  0  0  0
  -21.9890   -4.8250   22.5790 C   0  0  0  0  0  0  0  0  0  0  0  0
  -22.4210   -4.2910   21.4110 F   0  0  0  0  0  0  0  0  0  0  0  0
  -21.3050   -3.7670   26.0240 F   0  0  0  0  0  0  0  0  0  0  0  0
  -22.7570  -13.5730   21.2050 C   0  0  0  0  0  0  0  0  0  0  0  0
  -22.0320  -12.8680   22.0650 N   0  0  0  0  0  0  0  0  0  0  0  0
  -22.3140  -14.6040   20.6970 O   0  0  0  0  0  0  0  0  0  0  0  0
  -22.4020  -12.0380   22.5030 H   0  0  0  0  0  0  0  0  0  0  0  0
  -21.0940  -13.1690   22.2930 H   0  0  0  0  0  0  0  0  0  0  0  0
  -25.3600  -15.2590   20.3930 N   0  0  0  0  0  0  0  0  0  0  0  0
  -24.5790  -15.8900   20.5350 H   0  0  0  0  0  0  0  0  0  0  0  0
  -26.1910  -15.7460   20.0770 H   0  0  0  0  0  0  0  0  0  0  0  0
  -31.2920  -21.0110   20.8230 N   0  0  0  0  0  0  0  0  0  0  0  0
  -32.0130  -20.7050   21.4680 H   0  0  0  0  0  0  0  0  0  0  0  0
  -31.0190  -21.9710   20.9990 H   0  0  0  0  0  0  0  0  0  0  0  0
  -28.8330  -23.3540   20.3380 C   0  0  0  0  0  3  0  0  0  0  0  0
  -28.4570  -22.0850   20.0770 N   0  0  0  0  0  0  0  0  0  0  0  0
  -27.9330  -24.7180   19.9820 C   0  0  0  0  0  2  0  0  0  0  0  0
  -28.2190  -26.2030   20.3610 O   0  0  0  0  0  0  0  0  0  0  0  0
  -24.5810  -31.9220   23.2940 C   0  0  0  0  0  0  0  0  0  0  0  0
  -27.1720  -27.1980   20.2810 C   0  0  0  0  0  0  0  0  0  0  0  0
  -23.3890  -30.5300   21.6470 C   0  0  0  0  0  3  0  0  0  0  0  0
  -24.8460  -28.9540   20.2330 C   0  0  0  0  0  0  0  0  0  0  0  0
  -25.9460  -30.7830   21.5070 C   0  0  0  0  0  2  0  0  0  0  0  0
  -26.0210  -29.3900   20.8590 C   0  0  0  0  0  0  0  0  0  0  0  0
  -27.1810  -28.5260   20.8730 C   0  0  0  0  0  3  0  0  0  0  0  0
  -25.9700  -26.8720   19.6060 C   0  0  0  0  0  3  0  0  0  0  0  0
  -24.8350  -27.7080   19.5920 C   0  0  0  0  0  3  0  0  0  0  0  0
  -23.6190  -29.8540   20.2710 C   0  0  0  0  0  2  0  0  0  0  0  0
  -24.6590  -31.0990   22.2050 N   0  0  0  0  0  0  0  0  0  0  0  0
  -23.4910  -32.2120   23.8110 O   0  0  0  0  0  0  0  0  0  0  0  0
  -22.7000  -29.5240   22.6030 C   0  0  0  0  0  0  0  0  0  0  0  0
  -21.3720  -29.3550   22.4620 N   0  0  0  0  0  0  0  0  0  0  0  0
  -23.3620  -28.8980   23.4340 O   0  0  0  0  0  0  0  0  0  0  0  0
  -20.8950  -29.9130   21.7670 H   0  0  0  0  0  0  0  0  0  0  0  0
  -17.9800  -28.1840   22.9470 C   0  0  0  0  0  0  0  0  0  0  0  0
  -20.5400  -28.4240   23.2270 C   0  0  0  0  0  3  0  0  0  0  0  0
  -20.6320  -26.9920   22.6520 C   0  0  0  0  0  2  0  0  0  0  0  0
  -19.5320  -26.6800   21.6300 C   0  0  0  0  0  2  0  0  0  0  0  0
  -18.1490  -26.8360   22.2680 C   0  0  0  0  0  2  0  0  0  0  0  0
  -19.1030  -28.9380   23.3830 C   0  0  0  0  0  0  0  0  0  0  0  0
  -18.8890  -30.1990   23.9780 C   0  0  0  0  0  3  0  0  0  0  0  0
  -17.5880  -30.7100   24.1390 C   0  0  0  0  0  3  0  0  0  0  0  0
  -16.4790  -29.9540   23.7180 C   0  0  0  0  0  3  0  0  0  0  0  0
  -16.6770  -28.6920   23.1280 C   0  0  0  0  0  3  0  0  0  0  0  0
  -25.8550  -32.5540   23.9320 C   0  0  0  0  0  3  0  0  0  0  0  0
  -26.3330  -31.8030   25.2360 C   0  0  1  0  0  0  0  0  0  0  0  0
  -25.2130  -31.5970   26.2840 C   0  0  0  0  0  1  0  0  0  0  0  0
  -26.9080  -30.4110   24.8890 C   0  0  0  0  0  1  0  0  0  0  0  0
  -27.4770  -32.5970   25.9080 C   0  0  0  0  0  1  0  0  0  0  0  0
  -25.5540  -33.9620   24.2330 N   0  0  0  0  0  0  0  0  0  0  0  0
  -25.8950  -34.9990   23.4580 C   0  0  0  0  0  0  0  0  0  0  0  0
  -26.5650  -34.8720   22.4290 O   0  0  0  0  0  0  0  0  0  0  0  0
  -24.9570  -34.1350   25.0290 H   0  0  0  0  0  0  0  0  0  0  0  0
  -24.1820  -36.8030   23.0790 C   0  0  0  0  0  1  0  0  0  0  0  0
  -25.4220  -36.4020   23.8910 C   0  0  0  0  0  3  0  0  0  0  0  0
  -27.5640  -37.2920   24.7000 C   0  0  0  0  0  1  0  0  0  0  0  0
  -26.4640  -37.4440   23.7530 N   0  0  0  0  0  0  0  0  0  0  0  0
  -26.0650  -38.3710   23.8760 H   0  0  0  0  0  0  0  0  0  0  0  0
  1  6  2  0
  1  3  1  0
  3  4  2  0
  4  2  1  0
  4 46  1  0
  5 16  1  0
  5  2  2  0
  6  5  1  0
  7  6  1  0
  8 16  1  0
  9 14  1  0
 10 11  1  0
 10  9  1  0
 12 11  1  0
 12 21  1  0
 12 13  1  0
 14  8  1  0
 14 13  1  0
 15  8  2  0
 16 17  1  0
 18 19  2  0
 19 38  1  0
 20 19  1  0
 20 23  1  0
 21 18  1  0
 21 22  1  0
 22 20  2  0
 23 24  1  0
 24 25  2  0
 26 29  1  0
 26 25  1  0
 27 26  2  0
 28 27  1  0
 28 23  2  0
 29 30  1  0
 30 31  1  0
 31 32  2  0
 33 32  1  0
 33 37  1  0
 34 33  2  0
 35 30  2  0
 35 34  1  0
 36 35  1  0
 38 39  1  0
 39 42  1  0
 39 41  1  0
 40 38  2  0
 43 44  1  0
 43 18  1  0
 45 43  1  0
 46 48  1  0
 46 47  1  0
 50  3  1  0
 50 49  2  0
 51 49  1  0
 51 52  1  0
 53 64  2  0
 54 52  1  0
 54 59  1  0
 55 63  1  0
 55 65  1  0
 56 62  1  0
 56 58  1  0
 57 63  1  0
 58 59  2  0
 58 57  1  0
 60 54  2  0
 61 60  1  0
 61 56  2  0
 62 55  1  0
 63 53  1  0
 65 67  2  0
 66 65  1  0
 68 66  1  0
 69 78  2  0
 69 74  1  0
 70 66  1  0
 70 74  1  0
 71 70  1  0
 72 73  1  0
 72 71  1  0
 73 69  1  0
 74 75  2  0
 75 76  1  0
 77 76  2  0
 78 77  1  0
 79 53  1  0
 79 84  1  0
 79 80  1  0
 80 83  1  1
 80 81  1  0
 82 80  1  0
 84 87  1  0
 85 89  1  0
 85 84  1  0
 86 85  2  0
 89 88  1  0
 91 92  1  0
 91 89  1  0
 91 90  1  0
M  ISO  4   8 100  16 100  51 101  52 101
M  END
>  <TORSDO>  (33) 
F 19

>  <SCORE>  (33) 
-14.710

>  <name>  (33) 
33

>  <ligand_id>  (33) 
33

>  <original_smiles>  (33) 
[H]C(=Nc1c([H])c(F)c(N([H])C(=O)N2C([H])([H])C([H])([H])C([H])([H])C([H])(n3nc(-c4c([H])c([H])c(Oc5c([H])c([H])c(F)c([H])c5F)c([H])c4[H])c(C(=O)N([H])[H])c3N([H])[H])C2([H])[H])c([H])c1N([H])[H])C([H])([H])Oc1c([H])c([H])c2c(c1[H])C([H])([H])N(C(=O)C([H])(N([H])C(=O)C([H])(N([H])C([H])([H])[H])C([H])([H])[H])C(C([H])([H])[H])(C([H])([H])[H])C([H])([H])[H])C([H])(C(=O)N([H])C1([H])c3c([H])c([H])c([H])c([H])c3C([H])([H])C([H])([H])C1([H])[H])C2([H])[H]

>  <smiles>  (33) 
[H]C(=Nc1c([H])c(F)c(N([H])C(=O)N2C([H])([H])C([H])([H])C([H])([H])C([H])(n3nc(-c4c([H])c([H])c(Oc5c([H])c([H])c(F)c([H])c5F)c([H])c4[H])c(C(=O)N([H])[H])c3N([H])[H])C2([H])[H])c([H])c1N([H])[H])C([H])([H])Oc1c([H])c([H])c2c(c1[H])C([H])([H])N(C(=O)C([H])(N([H])C(=O)C([H])(N([H])C([H])([H])[H])C([H])([H])[H])C(C([H])([H])[H])(C([H])([H])[H])C([H])([H])[H])C([H])(C(=O)N([H])C1([H])c3c([H])c([H])c([H])c([H])c3C([H])([H])C([H])([H])C1([H])[H])C2([H])[H]

$$$$
34:0:0
     RDKit          3D

 96104  0  0  1  0  0  0  0  0999 V2000
  -30.1370  -19.1330   19.4230 C   0  0  0  0  0  3  0  0  0  0  0  0
  -29.7510  -20.4690   19.5690 C   0  0  0  0  0  3  0  0  0  0  0  0
  -30.3130  -18.9050   21.8500 C   0  0  0  0  0  3  0  0  0  0  0  0
  -30.4830  -18.3670   20.5560 C   0  0  0  0  0  0  0  0  0  0  0  0
  -29.9380  -20.2620   21.9910 C   0  0  0  0  0  0  0  0  0  0  0  0
  -29.7240  -21.0760   20.8480 C   0  0  0  0  0  0  0  0  0  0  0  0
  -31.2150  -14.6360   20.1020 C   0  0  0  0  0  0  0  0  0  0  0  0
  -30.6730  -12.5720   18.9110 C   0  0  0  0  0  2  0  0  0  0  0  0
  -29.7010  -12.8960   17.7610 C   0  0  0  0  0  2  0  0  0  0  0  0
  -28.2450  -12.8090   18.2580 C   0  0  0  0  0  2  0  0  0  0  0  0
  -28.0070  -13.5920   19.5780 C   0  0  0  0  0  3  0  0  0  0  0  0
  -29.1160  -13.3200   20.6240 C   0  0  0  0  0  2  0  0  0  0  0  0
  -30.4140  -13.5460   19.9830 N   0  0  0  0  0  0  0  0  0  0  0  0
  -32.3600  -14.6520   19.6410 O   0  0  0  0  0  0  0  0  0  0  0  0
  -31.1820  -17.1080   20.3160 C   0  0  0  0  0  0  0  0  0  0  0  0
  -30.6170  -15.8850   20.5120 N   0  0  0  0  0  0  0  0  0  0  0  0
  -32.4280  -17.2750   19.8440 N   0  0  0  0  0  4  0  0  0  0  0  0
  -29.6840  -15.9370   20.8780 H   0  0  0  0  0  0  0  0  0  0  0  0
  -32.8110  -18.1910   19.6730 H   0  0  0  0  0  0  0  0  0  0  0  0
  -32.9640  -16.4390   19.6250 H   0  0  0  0  0  0  0  0  0  0  0  0
  -25.6800  -14.2240   20.4780 C   0  0  0  0  0  0  0  0  0  0  0  0
  -24.6070  -13.4650   20.8550 C   0  0  0  0  0  0  0  0  0  0  0  0
  -25.0100  -12.1020   20.6940 C   0  0  0  0  0  0  0  0  0  0  0  0
  -26.6750  -13.3270   20.1180 N   0  0  0  0  0  0  0  0  0  0  0  0
  -26.2780  -12.0410   20.3050 N   0  0  0  0  0  0  0  0  0  0  0  0
  -24.2430  -10.8570   20.8310 C   0  0  0  0  0  0  0  0  0  0  0  0
  -24.6570   -9.8280   21.7050 C   0  0  0  0  0  3  0  0  0  0  0  0
  -23.8930   -8.6490   21.8340 C   0  0  0  0  0  3  0  0  0  0  0  0
  -22.7000   -8.4910   21.0890 C   0  0  0  0  0  0  0  0  0  0  0  0
  -22.3030   -9.5080   20.2050 C   0  0  0  0  0  3  0  0  0  0  0  0
  -23.0680  -10.6790   20.0740 C   0  0  0  0  0  3  0  0  0  0  0  0
  -21.9060   -7.3690   21.1320 O   0  0  0  0  0  0  0  0  0  0  0  0
  -21.7950   -6.6090   22.2670 C   0  0  0  0  0  0  0  0  0  0  0  0
  -21.3450   -7.1550   23.4890 C   0  0  0  0  0  3  0  0  0  0  0  0
  -21.1780   -6.3240   24.6130 C   0  0  0  0  0  3  0  0  0  0  0  0
  -21.4510   -4.9450   24.5180 C   0  0  0  0  0  0  0  0  0  0  0  0
  -21.8940   -4.3990   23.3000 C   0  0  0  0  0  3  0  0  0  0  0  0
  -22.0630   -5.2270   22.1790 C   0  0  0  0  0  0  0  0  0  0  0  0
  -22.4680   -4.6910   21.0020 F   0  0  0  0  0  0  0  0  0  0  0  0
  -21.2850   -4.1450   25.5960 F   0  0  0  0  0  0  0  0  0  0  0  0
  -23.2480  -13.9700   21.2460 C   0  0  0  0  0  0  0  0  0  0  0  0
  -22.5480  -13.2470   22.1110 N   0  0  0  0  0  0  0  0  0  0  0  0
  -22.8180  -15.0400   20.8150 O   0  0  0  0  0  0  0  0  0  0  0  0
  -22.9100  -12.3810   22.4780 H   0  0  0  0  0  0  0  0  0  0  0  0
  -21.6390  -13.5670   22.4110 H   0  0  0  0  0  0  0  0  0  0  0  0
  -25.8890  -15.5980   20.3890 N   0  0  0  0  0  0  0  0  0  0  0  0
  -25.1440  -16.2610   20.5740 H   0  0  0  0  0  0  0  0  0  0  0  0
  -26.7020  -16.0280   19.9730 H   0  0  0  0  0  0  0  0  0  0  0  0
  -29.8210  -20.8240   23.2630 N   0  0  0  0  0  0  0  0  0  0  0  0
  -29.3010  -21.6960   23.3030 H   0  0  0  0  0  0  0  0  0  0  0  0
  -29.6110  -20.2030   24.0380 H   0  0  0  0  0  0  0  0  0  0  0  0
  -29.5330  -22.4360   21.0220 O   0  0  0  0  0  0  0  0  0  0  0  0
  -29.7160  -23.2480   19.8610 C   0  0  0  0  0  2  0  0  0  0  0  0
  -29.7240  -24.7470   20.1920 C   0  0  0  0  0  2  0  0  0  0  0  0
  -28.6230  -25.4840   19.4240 C   0  0  0  0  0  2  0  0  0  0  0  0
  -28.6010  -26.8730   19.7580 O   0  0  0  0  0  0  0  0  0  0  0  0
  -24.6720  -31.7480   23.0800 C   0  0  0  0  0  0  0  0  0  0  0  0
  -27.3890  -27.5300   19.7720 C   0  0  0  0  0  0  0  0  0  0  0  0
  -23.4710  -30.3650   21.4200 C   0  0  0  0  0  3  0  0  0  0  0  0
  -24.9390  -28.9400   19.9040 C   0  0  0  0  0  0  0  0  0  0  0  0
  -25.9740  -30.8250   21.1720 C   0  0  0  0  0  2  0  0  0  0  0  0
  -26.0910  -29.4780   20.4900 C   0  0  0  0  0  0  0  0  0  0  0  0
  -27.3120  -28.7760   20.4340 C   0  0  0  0  0  3  0  0  0  0  0  0
  -26.2170  -27.0210   19.1580 C   0  0  0  0  0  3  0  0  0  0  0  0
  -24.9950  -27.7030   19.2450 C   0  0  0  0  0  3  0  0  0  0  0  0
  -23.6670  -29.7470   20.0110 C   0  0  0  0  0  2  0  0  0  0  0  0
  -24.7260  -30.9900   21.9510 N   0  0  0  0  0  0  0  0  0  0  0  0
  -23.5980  -31.9620   23.6590 O   0  0  0  0  0  0  0  0  0  0  0  0
  -22.8860  -29.2820   22.3560 C   0  0  0  0  0  0  0  0  0  0  0  0
  -21.5700  -29.0420   22.2450 N   0  0  0  0  0  0  0  0  0  0  0  0
  -23.6130  -28.6630   23.1390 O   0  0  0  0  0  0  0  0  0  0  0  0
  -21.0400  -29.6020   21.5940 H   0  0  0  0  0  0  0  0  0  0  0  0
  -18.2820  -27.6270   22.7000 C   0  0  0  0  0  0  0  0  0  0  0  0
  -20.8150  -28.0410   22.9970 C   0  0  0  0  0  3  0  0  0  0  0  0
  -21.0100  -26.6310   22.3950 C   0  0  0  0  0  2  0  0  0  0  0  0
  -19.9390  -26.2670   21.3630 C   0  0  0  0  0  2  0  0  0  0  0  0
  -18.5520  -26.3000   22.0080 C   0  0  0  0  0  2  0  0  0  0  0  0
  -19.3460  -28.4500   23.1510 C   0  0  0  0  0  0  0  0  0  0  0  0
  -19.0430  -29.6890   23.7580 C   0  0  0  0  0  3  0  0  0  0  0  0
  -17.7110  -30.1100   23.9100 C   0  0  0  0  0  3  0  0  0  0  0  0
  -16.6590  -29.2840   23.4760 C   0  0  0  0  0  3  0  0  0  0  0  0
  -16.9460  -28.0440   22.8810 C   0  0  0  0  0  3  0  0  0  0  0  0
  -25.9540  -32.4030   23.6850 C   0  0  0  0  0  3  0  0  0  0  0  0
  -25.6170  -33.7870   24.0390 N   0  0  0  0  0  0  0  0  0  0  0  0
  -25.9220  -34.8580   23.2980 C   0  0  0  0  0  0  0  0  0  0  0  0
  -26.5960  -34.7860   22.2660 O   0  0  0  0  0  0  0  0  0  0  0  0
  -25.0210  -33.9140   24.8440 H   0  0  0  0  0  0  0  0  0  0  0  0
  -24.1530  -36.6150   22.9700 C   0  0  0  0  0  1  0  0  0  0  0  0
  -25.4020  -36.2250   23.7760 C   0  0  0  0  0  3  0  0  0  0  0  0
  -27.5110  -37.1530   24.6260 C   0  0  0  0  0  1  0  0  0  0  0  0
  -26.4080  -37.3050   23.6810 N   0  0  0  0  0  0  0  0  0  0  0  0
  -25.9790  -38.2130   23.8410 H   0  0  0  0  0  0  0  0  0  0  0  0
  -26.5140  -31.6260   24.9390 C   0  0  1  0  0  0  0  0  0  0  0  0
  -25.4490  -31.3600   26.0270 C   0  0  0  0  0  1  0  0  0  0  0  0
  -27.1160  -30.2650   24.5160 C   0  0  0  0  0  1  0  0  0  0  0  0
  -27.6620  -32.4330   25.5900 C   0  0  0  0  0  1  0  0  0  0  0  0
  1  2  2  0
  1  4  1  0
  2  6  1  0
  3  5  1  0
  4  3  2  0
  5 49  1  0
  6 52  1  0
  6  5  2  0
  7 16  1  0
  8 13  1  0
  9 10  1  0
  9  8  1  0
 11 10  1  0
 11 24  1  0
 11 12  1  0
 13  7  1  0
 13 12  1  0
 14  7  2  0
 15 16  1  0
 15  4  1  0
 16 18  1  0
 17 15  2  0
 19 17  1  0
 20 17  1  0
 21 22  2  0
 22 41  1  0
 23 26  1  0
 23 22  1  0
 24 25  1  0
 24 21  1  0
 25 23  2  0
 26 27  1  0
 27 28  2  0
 29 32  1  0
 29 28  1  0
 30 29  2  0
 31 30  1  0
 31 26  2  0
 32 33  1  0
 33 34  1  0
 34 35  2  0
 36 35  1  0
 36 40  1  0
 37 36  2  0
 38 33  2  0
 38 37  1  0
 39 38  1  0
 41 42  1  0
 42 45  1  0
 42 44  1  0
 43 41  2  0
 46 21  1  0
 46 47  1  0
 48 46  1  0
 49 50  1  0
 49 51  1  0
 53 54  1  0
 53 52  1  0
 55 56  1  0
 55 54  1  0
 56 58  1  0
 57 68  2  0
 58 63  1  0
 59 67  1  0
 59 69  1  0
 60 66  1  0
 60 62  1  0
 61 67  1  0
 62 61  1  0
 63 62  2  0
 64 65  1  0
 64 58  2  0
 65 60  2  0
 66 59  1  0
 67 57  1  0
 69 71  2  0
 70 69  1  0
 72 70  1  0
 73 82  2  0
 73 78  1  0
 74 70  1  0
 74 78  1  0
 75 74  1  0
 76 77  1  0
 76 75  1  0
 77 73  1  0
 78 79  2  0
 79 80  1  0
 81 80  2  0
 82 81  1  0
 83 57  1  0
 83 84  1  0
 83 93  1  0
 84 87  1  0
 85 89  1  0
 85 84  1  0
 86 85  2  0
 89 88  1  0
 91 89  1  0
 91 92  1  0
 91 90  1  0
 93 96  1  1
 93 94  1  0
 95 93  1  0
M  ISO  4   7 100  16 100  55 101  56 101
M  END
>  <TORSDO>  (34) 
F 21

>  <SCORE>  (34) 
-12.221

>  <name>  (34) 
34

>  <ligand_id>  (34) 
34

>  <original_smiles>  (34) 
[H]c1c([H])c([H])c2c(c1[H])C([H])([H])C([H])([H])C([H])([H])C2([H])N([H])C(=O)C1([H])N(C(=O)C([H])(N([H])C(=O)C([H])(N([H])C([H])([H])[H])C([H])([H])[H])C(C([H])([H])[H])(C([H])([H])[H])C([H])([H])[H])C([H])([H])c2c([H])c(OC([H])([H])C([H])([H])C([H])([H])Oc3c([H])c([H])c(C(N([H])C(=O)N4C([H])([H])C([H])([H])C([H])([H])C([H])(n5nc(-c6c([H])c([H])c(Oc7c([H])c([H])c(F)c([H])c7F)c([H])c6[H])c(C(=O)N([H])[H])c5N([H])[H])C4([H])[H])=[N+]([H])[H])c([H])c3N([H])[H])c([H])c([H])c2C1([H])[H]

>  <smiles>  (34) 
[H]c1c([H])c([H])c2c(c1[H])C([H])([H])C([H])([H])C([H])([H])C2([H])N([H])C(=O)C1([H])N(C(=O)C([H])(N([H])C(=O)C([H])(N([H])C([H])([H])[H])C([H])([H])[H])C(C([H])([H])[H])(C([H])([H])[H])C([H])([H])[H])C([H])([H])c2c([H])c(OC([H])([H])C([H])([H])C([H])([H])Oc3c([H])c([H])c(C(N([H])C(=O)N4C([H])([H])C([H])([H])C([H])([H])C([H])(n5nc(-c6c([H])c([H])c(Oc7c([H])c([H])c(F)c([H])c7F)c([H])c6[H])c(C(=O)N([H])[H])c5N([H])[H])C4([H])[H])=[N+]([H])[H])c([H])c3N([H])[H])c([H])c([H])c2C1([H])[H]

$$$$
35:0:0
     RDKit          3D

 95103  0  0  1  0  0  0  0  0999 V2000
  -29.7310  -19.5600   20.9360 C   0  0  0  0  0  0  0  0  0  0  0  0
  -30.4110  -19.7820   22.1150 C   0  0  0  0  0  0  0  0  0  0  0  0
  -29.6030  -21.8880   21.0800 C   0  0  0  0  0  0  0  0  0  0  0  0
  -28.3440  -24.0100   20.2670 C   0  0  0  0  0  0  0  0  0  0  0  0
  -29.2440  -20.7890   20.3690 N   0  0  0  0  0  0  0  0  0  0  0  0
  -29.3520  -23.2900   20.8230 N   0  0  0  0  0  0  0  0  0  0  0  0
  -27.4750  -23.5350   19.5300 O   0  0  0  0  0  0  0  0  0  0  0  0
  -30.5660  -21.4780   22.4940 S   0  0  0  0  0  0  0  0  0  0  0  0
  -29.9700  -23.8870   21.3520 H   0  0  0  0  0  0  0  0  0  0  0  0
  -30.9250  -18.8520   23.0110 N   0  0  0  0  0  0  0  0  0  0  0  0
  -30.5450  -17.9090   23.0400 H   0  0  0  0  0  0  0  0  0  0  0  0
  -31.1270  -19.1720   23.9540 H   0  0  0  0  0  0  0  0  0  0  0  0
  -29.3980  -18.1550   20.3800 C   0  0  0  0  0  2  0  0  0  0  0  0
  -30.9690  -14.6470   20.1150 C   0  0  0  0  0  0  0  0  0  0  0  0
  -30.6580  -12.4770   18.9530 C   0  0  0  0  0  2  0  0  0  0  0  0
  -29.6740  -12.6900   17.7830 C   0  0  0  0  0  2  0  0  0  0  0  0
  -28.2100  -12.5600   18.2560 C   0  0  0  0  0  2  0  0  0  0  0  0
  -27.9200  -13.3650   19.5530 C   0  0  0  0  0  3  0  0  0  0  0  0
  -29.0140  -13.1240   20.6140 C   0  0  0  0  0  2  0  0  0  0  0  0
  -30.3070  -13.4550   19.9990 N   0  0  0  0  0  0  0  0  0  0  0  0
  -32.1450  -14.7420   19.7470 O   0  0  0  0  0  0  0  0  0  0  0  0
  -30.5310  -17.0660   20.4580 C   0  0  0  0  0  0  0  0  0  0  0  0
  -30.1900  -15.7350   20.4140 N   0  0  0  0  0  0  0  0  0  0  0  0
  -31.7030  -17.4570   20.5040 O   0  0  0  0  0  0  0  0  0  0  0  0
  -29.2120  -15.5370   20.5270 H   0  0  0  0  0  0  0  0  0  0  0  0
  -25.5570  -13.9830   20.3440 C   0  0  0  0  0  0  0  0  0  0  0  0
  -24.4930  -13.2220   20.7500 C   0  0  0  0  0  0  0  0  0  0  0  0
  -24.9430  -11.8660   20.7030 C   0  0  0  0  0  0  0  0  0  0  0  0
  -26.5850  -13.0960   20.0800 N   0  0  0  0  0  0  0  0  0  0  0  0
  -26.2230  -11.8170   20.3590 N   0  0  0  0  0  0  0  0  0  0  0  0
  -24.2070  -10.6120   20.9070 C   0  0  0  0  0  0  0  0  0  0  0  0
  -24.6000   -9.6800   21.8920 C   0  0  0  0  0  3  0  0  0  0  0  0
  -23.8650   -8.4910   22.0870 C   0  0  0  0  0  3  0  0  0  0  0  0
  -22.7290   -8.2200   21.2890 C   0  0  0  0  0  0  0  0  0  0  0  0
  -22.3550   -9.1410   20.2920 C   0  0  0  0  0  3  0  0  0  0  0  0
  -23.0900  -10.3230   20.0990 C   0  0  0  0  0  3  0  0  0  0  0  0
  -21.9760   -7.0750   21.3850 O   0  0  0  0  0  0  0  0  0  0  0  0
  -21.8000   -6.4290   22.5820 C   0  0  0  0  0  0  0  0  0  0  0  0
  -21.2080   -7.0670   23.6940 C   0  0  0  0  0  3  0  0  0  0  0  0
  -20.9850   -6.3470   24.8840 C   0  0  0  0  0  3  0  0  0  0  0  0
  -21.3370   -4.9870   24.9630 C   0  0  0  0  0  0  0  0  0  0  0  0
  -21.9170   -4.3470   23.8540 C   0  0  0  0  0  3  0  0  0  0  0  0
  -22.1500   -5.0660   22.6690 C   0  0  0  0  0  0  0  0  0  0  0  0
  -22.6940   -4.4380   21.5980 F   0  0  0  0  0  0  0  0  0  0  0  0
  -21.1150   -4.2920   26.1040 F   0  0  0  0  0  0  0  0  0  0  0  0
  -23.1100  -13.7140   21.0610 C   0  0  0  0  0  0  0  0  0  0  0  0
  -22.4070  -13.0450   21.9680 N   0  0  0  0  0  0  0  0  0  0  0  0
  -22.6610  -14.7310   20.5350 O   0  0  0  0  0  0  0  0  0  0  0  0
  -22.7780  -12.2260   22.4240 H   0  0  0  0  0  0  0  0  0  0  0  0
  -21.4840  -13.3680   22.2230 H   0  0  0  0  0  0  0  0  0  0  0  0
  -25.7230  -15.3530   20.1590 N   0  0  0  0  0  0  0  0  0  0  0  0
  -24.9520  -15.9980   20.2870 H   0  0  0  0  0  0  0  0  0  0  0  0
  -26.5380  -15.7860   19.7480 H   0  0  0  0  0  0  0  0  0  0  0  0
  -28.3470  -25.5370   20.6390 C   0  0  0  0  0  2  0  0  0  0  0  0
  -28.1490  -26.4790   19.5420 O   0  0  0  0  0  0  0  0  0  0  0  0
  -24.6470  -31.6350   23.1190 C   0  0  0  0  0  0  0  0  0  0  0  0
  -27.0380  -27.2980   19.6590 C   0  0  0  0  0  0  0  0  0  0  0  0
  -23.3360  -30.3420   21.4730 C   0  0  0  0  0  3  0  0  0  0  0  0
  -24.6860  -28.8700   19.8790 C   0  0  0  0  0  0  0  0  0  0  0  0
  -25.8540  -30.6750   21.1510 C   0  0  0  0  0  2  0  0  0  0  0  0
  -25.8870  -29.3370   20.4310 C   0  0  0  0  0  0  0  0  0  0  0  0
  -27.0700  -28.5590   20.3160 C   0  0  0  0  0  3  0  0  0  0  0  0
  -25.8200  -26.8620   19.1000 C   0  0  0  0  0  3  0  0  0  0  0  0
  -24.6470  -27.6360   19.2080 C   0  0  0  0  0  3  0  0  0  0  0  0
  -23.4610  -29.7450   20.0470 C   0  0  0  0  0  2  0  0  0  0  0  0
  -24.6360  -30.8950   21.9720 N   0  0  0  0  0  0  0  0  0  0  0  0
  -23.6000  -31.8890   23.7300 O   0  0  0  0  0  0  0  0  0  0  0  0
  -22.7220  -29.2750   22.4100 C   0  0  0  0  0  0  0  0  0  0  0  0
  -21.4020  -29.0510   22.2840 N   0  0  0  0  0  0  0  0  0  0  0  0
  -23.4290  -28.6520   23.2050 O   0  0  0  0  0  0  0  0  0  0  0  0
  -20.8920  -29.6130   21.6170 H   0  0  0  0  0  0  0  0  0  0  0  0
  -18.0920  -27.6530   22.6860 C   0  0  0  0  0  0  0  0  0  0  0  0
  -20.6210  -28.0640   23.0280 C   0  0  0  0  0  3  0  0  0  0  0  0
  -20.8240  -26.6440   22.4550 C   0  0  0  0  0  2  0  0  0  0  0  0
  -19.7730  -26.2570   21.4100 C   0  0  0  0  0  2  0  0  0  0  0  0
  -18.3680  -26.3170   22.0160 C   0  0  0  0  0  2  0  0  0  0  0  0
  -19.1510  -28.4800   23.1460 C   0  0  0  0  0  0  0  0  0  0  0  0
  -18.8400  -29.7270   23.7310 C   0  0  0  0  0  3  0  0  0  0  0  0
  -17.5050  -30.1500   23.8570 C   0  0  0  0  0  3  0  0  0  0  0  0
  -16.4590  -29.3200   23.4160 C   0  0  0  0  0  3  0  0  0  0  0  0
  -16.7540  -28.0730   22.8370 C   0  0  0  0  0  3  0  0  0  0  0  0
  -25.9740  -32.2190   23.7000 C   0  0  0  0  0  3  0  0  0  0  0  0
  -26.5540  -31.3700   24.8980 C   0  0  1  0  0  0  0  0  0  0  0  0
  -25.5240  -31.0970   26.0200 C   0  0  0  0  0  1  0  0  0  0  0  0
  -27.0810  -30.0070   24.3960 C   0  0  0  0  0  1  0  0  0  0  0  0
  -27.7610  -32.1070   25.5290 C   0  0  0  0  0  1  0  0  0  0  0  0
  -25.7050  -33.5990   24.1230 N   0  0  0  0  0  0  0  0  0  0  0  0
  -26.0500  -34.6900   23.4270 C   0  0  0  0  0  0  0  0  0  0  0  0
  -26.7030  -34.6370   22.3800 O   0  0  0  0  0  0  0  0  0  0  0  0
  -25.1310  -33.7150   24.9460 H   0  0  0  0  0  0  0  0  0  0  0  0
  -24.3680  -36.5440   23.2050 C   0  0  0  0  0  1  0  0  0  0  0  0
  -25.6030  -36.0570   23.9790 C   0  0  0  0  0  3  0  0  0  0  0  0
  -27.7590  -36.8330   24.8580 C   0  0  0  0  0  1  0  0  0  0  0  0
  -26.6620  -37.0880   23.9290 N   0  0  0  0  0  0  0  0  0  0  0  0
  -26.2790  -38.0070   24.1330 H   0  0  0  0  0  0  0  0  0  0  0  0
  1  2  2  0
  2  8  1  0
  2 10  1  0
  3  8  1  0
  4 54  1  0
  4  6  1  0
  5  1  1  0
  5  3  2  0
  6  3  1  0
  6  9  1  0
  7  4  2  0
 10 11  1  0
 10 12  1  0
 13 22  1  0
 13  1  1  0
 14 23  1  0
 15 20  1  0
 16 17  1  0
 16 15  1  0
 18 17  1  0
 18 29  1  0
 18 19  1  0
 20 14  1  0
 20 19  1  0
 21 14  2  0
 22 24  2  0
 23 22  1  0
 23 25  1  0
 26 27  2  0
 27 46  1  0
 28 27  1  0
 28 31  1  0
 29 26  1  0
 29 30  1  0
 30 28  2  0
 31 32  1  0
 32 33  2  0
 34 37  1  0
 34 33  1  0
 35 34  2  0
 36 35  1  0
 36 31  2  0
 37 38  1  0
 38 43  2  0
 38 39  1  0
 39 40  2  0
 40 41  1  0
 41 45  1  0
 42 41  2  0
 43 42  1  0
 44 43  1  0
 46 47  1  0
 47 50  1  0
 47 49  1  0
 48 46  2  0
 51 52  1  0
 51 26  1  0
 53 51  1  0
 55 57  1  0
 55 54  1  0
 56 67  2  0
 57 62  1  0
 58 66  1  0
 58 68  1  0
 59 65  1  0
 59 61  1  0
 60 66  1  0
 61 60  1  0
 62 61  2  0
 63 64  1  0
 63 57  2  0
 64 59  2  0
 65 58  1  0
 66 56  1  0
 68 70  2  0
 69 68  1  0
 71 69  1  0
 72 81  2  0
 72 77  1  0
 73 69  1  0
 73 77  1  0
 74 73  1  0
 75 76  1  0
 75 74  1  0
 76 72  1  0
 77 78  2  0
 78 79  1  0
 80 79  2  0
 81 80  1  0
 82 56  1  0
 82 87  1  0
 82 83  1  0
 83 86  1  1
 83 84  1  0
 85 83  1  0
 87 90  1  0
 88 92  1  0
 88 87  1  0
 89 88  2  0
 92 91  1  0
 94 92  1  0
 94 95  1  0
 94 93  1  0
M  ISO  4  14 100  23 100  54 101  55 101
M  END
>  <TORSDO>  (35) 
F 19

>  <SCORE>  (35) 
-13.665

>  <name>  (35) 
35

>  <ligand_id>  (35) 
35

>  <original_smiles>  (35) 
[H]c1c([H])c([H])c2c(c1[H])C([H])([H])C([H])([H])C([H])([H])C2([H])N([H])C(=O)C1([H])N(C(=O)C([H])(N([H])C(=O)C([H])(N([H])C([H])([H])[H])C([H])([H])[H])C(C([H])([H])[H])(C([H])([H])[H])C([H])([H])[H])C([H])([H])c2c([H])c(OC([H])([H])C(=O)N([H])c3nc(C([H])([H])C(=O)N([H])C(=O)N4C([H])([H])C([H])([H])C([H])([H])C([H])(n5nc(-c6c([H])c([H])c(Oc7c([H])c([H])c(F)c([H])c7F)c([H])c6[H])c(C(=O)N([H])[H])c5N([H])[H])C4([H])[H])c(N([H])[H])s3)c([H])c([H])c2C1([H])[H]

>  <smiles>  (35) 
[H]c1c([H])c([H])c2c(c1[H])C([H])([H])C([H])([H])C([H])([H])C2([H])N([H])C(=O)C1([H])N(C(=O)C([H])(N([H])C(=O)C([H])(N([H])C([H])([H])[H])C([H])([H])[H])C(C([H])([H])[H])(C([H])([H])[H])C([H])([H])[H])C([H])([H])c2c([H])c(OC([H])([H])C(=O)N([H])c3nc(C([H])([H])C(=O)N([H])C(=O)N4C([H])([H])C([H])([H])C([H])([H])C([H])(n5nc(-c6c([H])c([H])c(Oc7c([H])c([H])c(F)c([H])c7F)c([H])c6[H])c(C(=O)N([H])[H])c5N([H])[H])C4([H])[H])c(N([H])[H])s3)c([H])c([H])c2C1([H])[H]

$$$$
36:0:0
     RDKit          3D

 96104  0  0  1  0  0  0  0  0999 V2000
  -30.5850  -19.1070   21.6650 C   0  0  0  0  0  3  0  0  0  0  0  0
  -30.0630  -20.3960   21.4460 C   0  0  0  0  0  3  0  0  0  0  0  0
  -28.8640  -18.1470   20.2500 C   0  0  0  0  0  3  0  0  0  0  0  0
  -30.0160  -17.9650   21.0540 C   0  0  0  0  0  0  0  0  0  0  0  0
  -28.9590  -20.5900   20.5860 C   0  0  0  0  0  0  0  0  0  0  0  0
  -28.3450  -19.4440   20.0170 C   0  0  0  0  0  0  0  0  0  0  0  0
  -30.7610  -14.4520   20.2270 C   0  0  0  0  0  0  0  0  0  0  0  0
  -30.3640  -12.3010   19.0780 C   0  0  0  0  0  2  0  0  0  0  0  0
  -29.3920  -12.4920   17.9000 C   0  0  0  0  0  2  0  0  0  0  0  0
  -27.9310  -12.3840   18.3830 C   0  0  0  0  0  2  0  0  0  0  0  0
  -27.6450  -13.2550   19.6340 C   0  0  0  0  0  3  0  0  0  0  0  0
  -28.7250  -13.0430   20.7140 C   0  0  0  0  0  2  0  0  0  0  0  0
  -30.0280  -13.3140   20.0900 N   0  0  0  0  0  0  0  0  0  0  0  0
  -31.8890  -14.5560   19.7340 O   0  0  0  0  0  0  0  0  0  0  0  0
  -30.7190  -16.6310   21.2110 C   0  0  0  0  0  0  0  0  0  0  0  0
  -30.1150  -15.5110   20.7640 N   0  0  0  0  0  0  0  0  0  0  0  0
  -31.8480  -16.6170   21.7210 O   0  0  0  0  0  0  0  0  0  0  0  0
  -29.1100  -15.4930   20.7480 H   0  0  0  0  0  0  0  0  0  0  0  0
  -25.2940  -13.9190   20.4310 C   0  0  0  0  0  0  0  0  0  0  0  0
  -24.2180  -13.1730   20.8300 C   0  0  0  0  0  0  0  0  0  0  0  0
  -24.6410  -11.8100   20.7700 C   0  0  0  0  0  0  0  0  0  0  0  0
  -26.3040  -13.0130   20.1570 N   0  0  0  0  0  0  0  0  0  0  0  0
  -25.9190  -11.7370   20.4190 N   0  0  0  0  0  0  0  0  0  0  0  0
  -23.8900  -10.5650   20.9690 C   0  0  0  0  0  0  0  0  0  0  0  0
  -24.3250   -9.5760   21.8780 C   0  0  0  0  0  3  0  0  0  0  0  0
  -23.5750   -8.3950   22.0670 C   0  0  0  0  0  3  0  0  0  0  0  0
  -22.3740   -8.1970   21.3450 C   0  0  0  0  0  0  0  0  0  0  0  0
  -21.9570   -9.1740   20.4240 C   0  0  0  0  0  3  0  0  0  0  0  0
  -22.7080  -10.3460   20.2350 C   0  0  0  0  0  3  0  0  0  0  0  0
  -21.5940   -7.0700   21.4430 O   0  0  0  0  0  0  0  0  0  0  0  0
  -21.5610   -6.3140   22.5870 C   0  0  0  0  0  0  0  0  0  0  0  0
  -21.1730   -6.8590   23.8300 C   0  0  0  0  0  3  0  0  0  0  0  0
  -21.0870   -6.0320   24.9670 C   0  0  0  0  0  3  0  0  0  0  0  0
  -21.3810   -4.6590   24.8620 C   0  0  0  0  0  0  0  0  0  0  0  0
  -21.7620   -4.1120   23.6240 C   0  0  0  0  0  3  0  0  0  0  0  0
  -21.8490   -4.9380   22.4880 C   0  0  0  0  0  0  0  0  0  0  0  0
  -22.1970   -4.4020   21.2940 F   0  0  0  0  0  0  0  0  0  0  0  0
  -21.2920   -3.8600   25.9510 F   0  0  0  0  0  0  0  0  0  0  0  0
  -22.8460  -13.6850   21.1520 C   0  0  0  0  0  0  0  0  0  0  0  0
  -22.1320  -13.0070   22.0440 N   0  0  0  0  0  0  0  0  0  0  0  0
  -22.4140  -14.7210   20.6470 O   0  0  0  0  0  0  0  0  0  0  0  0
  -22.4920  -12.1680   22.4730 H   0  0  0  0  0  0  0  0  0  0  0  0
  -21.2120  -13.3350   22.3040 H   0  0  0  0  0  0  0  0  0  0  0  0
  -25.4940  -15.2850   20.2530 N   0  0  0  0  0  0  0  0  0  0  0  0
  -24.7460  -15.9610   20.3680 H   0  0  0  0  0  0  0  0  0  0  0  0
  -26.3200  -15.6790   19.8220 H   0  0  0  0  0  0  0  0  0  0  0  0
  -29.0990  -23.0640   20.2140 C   0  0  0  0  0  0  0  0  0  0  0  0
  -28.4330  -21.8910   20.2890 N   0  0  0  0  0  0  0  0  0  0  0  0
  -30.3130  -23.1610   20.4150 O   0  0  0  0  0  0  0  0  0  0  0  0
  -27.4610  -21.9020   20.0190 H   0  0  0  0  0  0  0  0  0  0  0  0
  -28.3160  -24.3340   19.8140 C   0  0  0  0  0  2  0  0  0  0  0  0
  -28.5270  -25.5390   20.7780 C   0  0  0  0  0  2  0  0  0  0  0  0
  -28.5620  -26.8330   20.1500 O   0  0  0  0  0  0  0  0  0  0  0  0
  -24.6130  -31.8910   23.2540 C   0  0  0  0  0  0  0  0  0  0  0  0
  -27.3840  -27.5440   20.1600 C   0  0  0  0  0  0  0  0  0  0  0  0
  -23.4650  -30.5060   21.5540 C   0  0  0  0  0  3  0  0  0  0  0  0
  -24.9720  -29.0140   20.1370 C   0  0  0  0  0  0  0  0  0  0  0  0
  -25.9890  -30.9040   21.4240 C   0  0  0  0  0  2  0  0  0  0  0  0
  -26.1090  -29.5470   20.7600 C   0  0  0  0  0  0  0  0  0  0  0  0
  -27.3220  -28.8220   20.7610 C   0  0  0  0  0  3  0  0  0  0  0  0
  -26.2330  -27.0210   19.5380 C   0  0  0  0  0  3  0  0  0  0  0  0
  -25.0290  -27.7510   19.5220 C   0  0  0  0  0  3  0  0  0  0  0  0
  -23.7170  -29.8570   20.1680 C   0  0  0  0  0  2  0  0  0  0  0  0
  -24.7060  -31.1160   22.1360 N   0  0  0  0  0  0  0  0  0  0  0  0
  -23.5160  -32.1360   23.7750 O   0  0  0  0  0  0  0  0  0  0  0  0
  -22.8080  -29.4570   22.4800 C   0  0  0  0  0  0  0  0  0  0  0  0
  -21.4820  -29.2850   22.3440 N   0  0  0  0  0  0  0  0  0  0  0  0
  -23.4860  -28.8030   23.2760 O   0  0  0  0  0  0  0  0  0  0  0  0
  -20.9960  -29.8650   21.6730 H   0  0  0  0  0  0  0  0  0  0  0  0
  -18.0920  -28.1380   22.8310 C   0  0  0  0  0  0  0  0  0  0  0  0
  -20.6570  -28.3290   23.0800 C   0  0  0  0  0  3  0  0  0  0  0  0
  -20.7240  -26.9260   22.4330 C   0  0  0  0  0  2  0  0  0  0  0  0
  -19.6030  -26.6770   21.4200 C   0  0  0  0  0  2  0  0  0  0  0  0
  -18.2320  -26.8190   22.0890 C   0  0  0  0  0  2  0  0  0  0  0  0
  -19.2320  -28.8550   23.2820 C   0  0  0  0  0  0  0  0  0  0  0  0
  -19.0490  -30.0940   23.9330 C   0  0  0  0  0  3  0  0  0  0  0  0
  -17.7580  -30.6110   24.1450 C   0  0  0  0  0  3  0  0  0  0  0  0
  -16.6330  -29.8900   23.7120 C   0  0  0  0  0  3  0  0  0  0  0  0
  -16.8000  -28.6550   23.0600 C   0  0  0  0  0  3  0  0  0  0  0  0
  -25.8770  -32.5280   23.9150 C   0  0  0  0  0  3  0  0  0  0  0  0
  -26.3450  -31.7680   25.2150 C   0  0  1  0  0  0  0  0  0  0  0  0
  -25.2130  -31.5420   26.2450 C   0  0  0  0  0  1  0  0  0  0  0  0
  -26.9410  -30.3870   24.8590 C   0  0  0  0  0  1  0  0  0  0  0  0
  -27.4710  -32.5660   25.9120 C   0  0  0  0  0  1  0  0  0  0  0  0
  -25.5580  -33.9300   24.2170 N   0  0  0  0  0  0  0  0  0  0  0  0
  -25.9100  -34.9730   23.4530 C   0  0  0  0  0  0  0  0  0  0  0  0
  -26.6080  -34.8560   22.4430 O   0  0  0  0  0  0  0  0  0  0  0  0
  -24.9430  -34.0950   25.0020 H   0  0  0  0  0  0  0  0  0  0  0  0
  -24.1850  -36.7530   23.0280 C   0  0  0  0  0  1  0  0  0  0  0  0
  -25.4080  -36.3660   23.8770 C   0  0  0  0  0  3  0  0  0  0  0  0
  -27.5160  -37.2740   24.7520 C   0  0  0  0  0  1  0  0  0  0  0  0
  -26.4420  -37.4210   23.7720 N   0  0  0  0  0  0  0  0  0  0  0  0
  -26.0300  -38.3420   23.8890 H   0  0  0  0  0  0  0  0  0  0  0  0
  -27.2440  -19.5920   19.1750 N   0  0  0  0  0  0  0  0  0  0  0  0
  -27.0260  -18.7990   18.5810 H   0  0  0  0  0  0  0  0  0  0  0  0
  -27.1910  -20.4570   18.6540 H   0  0  0  0  0  0  0  0  0  0  0  0
  2  1  1  0
  3  4  1  0
  4 15  1  0
  4  1  2  0
  5  2  2  0
  6  3  2  0
  6  5  1  0
  7 16  1  0
  8 13  1  0
  9 10  1  0
  9  8  1  0
 11 10  1  0
 11 22  1  0
 11 12  1  0
 13  7  1  0
 13 12  1  0
 14  7  2  0
 15 17  2  0
 16 15  1  0
 18 16  1  0
 19 20  2  0
 20 39  1  0
 21 20  1  0
 21 24  1  0
 22 23  1  0
 22 19  1  0
 23 21  2  0
 24 25  1  0
 25 26  2  0
 27 30  1  0
 27 26  1  0
 28 27  2  0
 29 28  1  0
 29 24  2  0
 30 31  1  0
 31 32  1  0
 32 33  2  0
 34 33  1  0
 34 38  1  0
 35 34  2  0
 36 31  2  0
 36 35  1  0
 37 36  1  0
 39 40  1  0
 40 43  1  0
 40 42  1  0
 41 39  2  0
 44 45  1  0
 44 19  1  0
 46 44  1  0
 47 48  1  0
 47 49  2  0
 48  5  1  0
 50 48  1  0
 51 47  1  0
 51 52  1  0
 53 55  1  0
 53 52  1  0
 54 65  2  0
 55 60  1  0
 56 64  1  0
 56 66  1  0
 57 63  1  0
 57 59  1  0
 58 64  1  0
 59 60  2  0
 59 58  1  0
 61 55  2  0
 62 61  1  0
 62 57  2  0
 63 56  1  0
 64 54  1  0
 66 68  2  0
 67 66  1  0
 69 67  1  0
 70 79  2  0
 70 75  1  0
 71 67  1  0
 71 75  1  0
 72 71  1  0
 73 74  1  0
 73 72  1  0
 74 70  1  0
 75 76  2  0
 76 77  1  0
 78 77  2  0
 79 78  1  0
 80 54  1  0
 80 85  1  0
 80 81  1  0
 81 84  1  1
 81 82  1  0
 83 81  1  0
 85 88  1  0
 86 90  1  0
 86 85  1  0
 87 86  2  0
 90 89  1  0
 92 90  1  0
 92 93  1  0
 92 91  1  0
 94  6  1  0
 95 94  1  0
 96 94  1  0
M  ISO  4   7 100  16 100  52 101  53 101
M  END
>  <TORSDO>  (36) 
F 20

>  <SCORE>  (36) 
-14.263

>  <name>  (36) 
36

>  <ligand_id>  (36) 
36

>  <original_smiles>  (36) 
[H]c1c([H])c([H])c2c(c1[H])C([H])([H])C([H])([H])C([H])([H])C2([H])N([H])C(=O)C1([H])N(C(=O)C([H])(N([H])C(=O)C([H])(N([H])C([H])([H])[H])C([H])([H])[H])C(C([H])([H])[H])(C([H])([H])[H])C([H])([H])[H])C([H])([H])c2c([H])c(OC([H])([H])C([H])([H])C(=O)N([H])c3c([H])c([H])c(C(=O)N([H])C(=O)N4C([H])([H])C([H])([H])C([H])([H])C([H])(n5nc(-c6c([H])c([H])c(Oc7c([H])c([H])c(F)c([H])c7F)c([H])c6[H])c(C(=O)N([H])[H])c5N([H])[H])C4([H])[H])c([H])c3N([H])[H])c([H])c([H])c2C1([H])[H]

>  <smiles>  (36) 
[H]c1c([H])c([H])c2c(c1[H])C([H])([H])C([H])([H])C([H])([H])C2([H])N([H])C(=O)C1([H])N(C(=O)C([H])(N([H])C(=O)C([H])(N([H])C([H])([H])[H])C([H])([H])[H])C(C([H])([H])[H])(C([H])([H])[H])C([H])([H])[H])C([H])([H])c2c([H])c(OC([H])([H])C([H])([H])C(=O)N([H])c3c([H])c([H])c(C(=O)N([H])C(=O)N4C([H])([H])C([H])([H])C([H])([H])C([H])(n5nc(-c6c([H])c([H])c(Oc7c([H])c([H])c(F)c([H])c7F)c([H])c6[H])c(C(=O)N([H])[H])c5N([H])[H])C4([H])[H])c([H])c3N([H])[H])c([H])c([H])c2C1([H])[H]

$$$$
37:0:0
     RDKit          3D

 97 96  0  0  1  0  0  0  0  0999 V2000
  -34.9690  -11.0510   11.1490 C   0  0  0  0  0  3  0  0  0  0  0  0
  -34.5720  -12.2590   11.8840 C   0  0  0  0  0  3  0  0  0  0  0  0
  -34.8950  -11.3460   13.1610 C   0  0  0  0  0  0  0  0  0  0  0  0
  -35.3740   -9.8420   11.8190 C   0  0  0  0  0  0  0  0  0  0  0  0
  -34.6970  -11.9210   14.5270 C   0  0  0  0  0  1  0  0  0  0  0  0
  -35.4250   -9.7570   13.2540 N   0  0  0  0  0  0  0  0  0  0  0  0
  -35.2890   -4.6470   15.7060 C   0  0  0  0  0 15  0  0  0  0  0  0
  -35.6700   -5.3310   17.8820 C   0  0  0  0  0 15  0  0  0  0  0  0
  -35.4650   -6.0940   13.9860 C   0  0  0  0  0 15  0  0  0  0  0  0
  -36.1470   -7.6320   18.0480 C   0  0  0  0  0  1  0  0  0  0  0  0
  -36.0230   -8.2620   14.2550 C   0  0  0  0  0  1  0  0  0  0  0  0
  -36.4550   -8.8610   16.2850 C   0  0  0  0  0  1  0  0  0  0  0  0
  -36.5850  -10.1910   16.5040 F   0  0  0  0  0  0  0  0  0  0  0  0
  -35.3490   -8.7790   18.9540 C   0  0  0  0  0  2  0  0  0  0  0  0
  -35.4180   -8.9770   20.6800 C   0  0  0  0  0  2  0  0  0  0  0  0
  -33.8500   -9.5190   23.0940 C   0  0  0  0  0  0  0  0  0  0  0  0
  -32.7040  -11.3800   22.2140 C   0  0  0  0  0  2  0  0  0  0  0  0
  -33.2800  -11.3910   20.8010 C   0  0  0  0  0  2  0  0  0  0  0  0
  -34.6050  -12.1290   20.9440 C   0  0  0  0  0  2  0  0  0  0  0  0
  -35.5850  -11.5770   22.1420 C   0  0  0  0  0  3  0  0  0  0  0  0
  -34.8440  -11.7350   23.3980 C   0  0  0  0  0  2  0  0  0  0  0  0
  -33.7330  -10.8570   23.1010 N   0  0  0  0  0  0  0  0  0  0  0  0
  -33.1580   -8.9180   23.9200 O   0  0  0  0  0  0  0  0  0  0  0  0
  -34.3380   -8.8910   21.8940 N   0  0  0  0  0  0  0  0  0  0  0  0
  -33.9940   -7.9420   21.9270 H   0  0  0  0  0  0  0  0  0  0  0  0
  -38.0570  -11.6230   22.0640 C   0  0  0  0  0  0  0  0  0  0  0  0
  -39.2980  -12.9320   21.6150 C   0  0  0  0  0  0  0  0  0  0  0  0
  -38.8390  -14.1370   21.3170 C   0  0  0  0  0  2  0  0  0  0  0  0
  -37.0990  -11.6700   22.4080 N   0  0  0  0  0  2  0  0  0  0  0  0
  -38.5570  -12.6750   21.7330 N   0  0  0  0  0  2  0  0  0  0  0  0
  -38.5420  -15.6750   21.8200 C   0  0  0  0  0  3  0  0  0  0  0  0
  -38.5340  -16.4230   23.0830 C   0  0  0  0  0  3  0  0  0  0  0  0
  -38.2060  -17.8290   23.1820 C   0  0  0  0  0  3  0  0  0  0  0  0
  -37.8780  -18.5720   22.0190 C   0  0  0  0  0  0  0  0  0  0  0  0
  -37.8180  -17.8510   20.8190 C   0  0  0  0  0  3  0  0  0  0  0  0
  -38.1190  -16.4730   20.7420 C   0  0  0  0  0  3  0  0  0  0  0  0
  -37.5300  -19.9140   21.9290 O   0  0  0  0  0  0  0  0  0  0  0  0
  -38.2580  -20.9600   22.4550 C   0  0  0  0  0  0  0  0  0  0  0  0
  -39.4290  -21.4610   21.8420 C   0  0  0  0  0  3  0  0  0  0  0  0
  -40.1000  -22.5730   22.3960 C   0  0  0  0  0  3  0  0  0  0  0  0
  -39.6040  -23.1960   23.5580 C   0  0  0  0  0  0  0  0  0  0  0  0
  -38.4220  -22.7220   24.1540 C   0  0  0  0  0  3  0  0  0  0  0  0
  -37.7480  -21.6190   23.5980 C   0  0  0  0  0  0  0  0  0  0  0  0
  -36.5930  -21.1950   24.1670 F   0  0  0  0  0  0  0  0  0  0  0  0
  -40.2590  -24.2500   24.1010 F   0  0  0  0  0  0  0  0  0  0  0  0
  -40.8850  -13.3180   21.6240 C   0  0  0  0  0  0  0  0  0  0  0  0
  -41.4600  -13.6140   22.8090 N   0  0  0  0  0  0  0  0  0  0  0  0
  -41.4840  -13.4650   20.5790 O   0  0  0  0  0  0  0  0  0  0  0  0
  -40.9490  -13.4960   23.6710 H   0  0  0  0  0  0  0  0  0  0  0  0
  -42.4260  -13.9070   22.8440 H   0  0  0  0  0  0  0  0  0  0  0  0
  -37.7730  -10.2070   22.3980 N   0  0  0  0  0  4  0  0  0  0  0  0
  -38.5780   -9.8160   22.8670 H   0  0  0  0  0  0  0  0  0  0  0  0
  -37.6380   -9.6450   21.5700 H   0  0  0  0  0  0  0  0  0  0  0  0
  -35.6840   -8.7150   11.1290 O   0  0  0  0  0  0  0  0  0  0  0  0
  -36.4600   -8.3230   11.5270 H   0  0  0  0  0  0  0  0  0  0  0  0
  -33.6870  -14.0160   11.0730 C   0  0  0  0  0 15  0  0  0  0  0  0
  -32.1780  -15.1860   10.6480 O   0  0  0  0  0  1  0  0  0  0  0  0
  -27.0860  -19.2040    6.0590 C   0  0  0  0  0  0  0  0  0  0  0  0
  -31.7290  -16.1220    9.3970 C   0  0  0  0  0  0  0  0  0  0  0  0
  -28.4920  -17.3420    5.3400 C   0  0  0  0  0  3  0  0  0  0  0  0
  -30.7030  -16.8860    6.6310 C   0  0  0  0  0  0  0  0  0  0  0  0
  -29.4520  -18.9520    7.1160 C   0  0  0  0  0  2  0  0  0  0  0  0
  -30.4010  -17.7810    7.6580 C   0  0  0  0  0  0  0  0  0  0  0  0
  -30.9430  -17.4210    9.0310 C   0  0  0  0  0  3  0  0  0  0  0  0
  -32.1670  -15.6030    8.1750 C   0  0  0  0  0  3  0  0  0  0  0  0
  -31.6510  -15.8940    6.8910 C   0  0  0  0  0  3  0  0  0  0  0  0
  -29.9970  -16.9650    5.2730 C   0  0  0  0  0  2  0  0  0  0  0  0
  -28.3010  -18.5600    6.1840 N   0  0  0  0  0  0  0  0  0  0  0  0
  -26.1770  -18.7580    5.3340 O   0  0  0  0  0  0  0  0  0  0  0  0
  -27.6420  -16.1440    5.8480 C   0  0  0  0  0  0  0  0  0  0  0  0
  -26.5190  -15.8290    5.1760 N   0  0  0  0  0  0  0  0  0  0  0  0
  -28.0090  -15.5090    6.8410 O   0  0  0  0  0  0  0  0  0  0  0  0
  -26.2630  -16.4010    4.3830 H   0  0  0  0  0  0  0  0  0  0  0  0
  -23.0540  -14.8320    5.6180 C   0  0  0  0  0  0  0  0  0  0  0  0
  -25.6350  -14.6970    5.4820 C   0  0  0  0  0  3  0  0  0  0  0  0
  -25.4150  -13.8110    4.2340 C   0  0  0  0  0  2  0  0  0  0  0  0
  -24.1650  -14.1950    3.4350 C   0  0  0  0  0  2  0  0  0  0  0  0
  -22.9130  -14.0760    4.3080 C   0  0  0  0  0  2  0  0  0  0  0  0
  -24.3300  -15.1380    6.1620 C   0  0  0  0  0  0  0  0  0  0  0  0
  -24.4030  -15.8670    7.3690 C   0  0  0  0  0  3  0  0  0  0  0  0
  -23.2320  -16.2890    8.0260 C   0  0  0  0  0  3  0  0  0  0  0  0
  -21.9720  -15.9740    7.4890 C   0  0  0  0  0  3  0  0  0  0  0  0
  -21.8840  -15.2440    6.2910 C   0  0  0  0  0  3  0  0  0  0  0  0
  -26.7700  -20.5340    6.8020 C   0  0  0  0  0  3  0  0  0  0  0  0
  -26.1520  -21.4700    5.8340 N   0  0  0  0  0  0  0  0  0  0  0  0
  -26.5750  -22.7130    5.5680 C   0  0  0  0  0  0  0  0  0  0  0  0
  -27.5280  -23.2250    6.1580 O   0  0  0  0  0  0  0  0  0  0  0  0
  -25.4030  -21.0950    5.2710 H   0  0  0  0  0  0  0  0  0  0  0  0
  -26.7710  -23.8110    3.3040 C   0  0  0  0  0  1  0  0  0  0  0  0
  -25.8270  -23.5180    4.4810 C   0  0  0  0  0  3  0  0  0  0  0  0
  -24.1950  -24.6050    5.9650 C   0  0  0  0  0  1  0  0  0  0  0  0
  -25.2530  -24.7910    4.9760 N   0  0  0  0  0  0  0  0  0  0  0  0
  -24.8750  -25.3380    4.2070 H   0  0  0  0  0  0  0  0  0  0  0  0
  -25.7960  -20.3380    8.0310 C   0  0  1  0  0  0  0  0  0  0  0  0
  -24.2990  -20.3030    7.6410 C   0  0  0  0  0  1  0  0  0  0  0  0
  -26.1010  -19.0300    8.7900 C   0  0  0  0  0  1  0  0  0  0  0  0
  -26.0010  -21.4850    9.0490 C   0  0  0  0  0  1  0  0  0  0  0  0
  1  4  2  0
  1  2  1  0
  2  3  2  0
  3  6  1  0
  3  5  1  0
  4  6  1  0
  6 11  1  0
 10 14  1  0
 12 13  1  0
 14 15  1  0
 15 24  1  0
 16 22  1  0
 16 23  2  0
 17 22  1  0
 18 19  1  0
 18 17  1  0
 19 20  1  0
 20 29  1  0
 20 21  1  0
 22 21  1  0
 24 25  1  0
 24 16  1  0
 26 51  2  0
 26 29  1  0
 27 46  1  0
 27 30  1  0
 28 27  2  0
 30 26  1  0
 31 32  1  0
 32 33  2  0
 34 33  1  0
 35 34  2  0
 36 35  1  0
 36 31  2  0
 37 34  1  0
 37 38  1  0
 38 43  1  0
 39 40  1  0
 39 38  2  0
 40 41  2  0
 41 45  1  0
 41 42  1  0
 43 42  2  0
 43 44  1  0
 46 47  1  0
 47 50  1  0
 47 49  1  0
 48 46  2  0
 51 52  1  0
 53 51  1  0
 54 55  1  0
 54  4  1  0
 58 68  1  0
 59 57  1  0
 60 70  1  0
 60 68  1  0
 61 66  2  0
 61 63  1  0
 62 63  1  0
 63 64  2  0
 64 59  1  0
 65 59  2  0
 66 65  1  0
 67 60  1  0
 67 61  1  0
 68 62  1  0
 69 58  2  0
 70 72  2  0
 71 70  1  0
 73 71  1  0
 74 79  2  0
 74 83  1  0
 75 71  1  0
 75 79  1  0
 76 75  1  0
 77 76  1  0
 77 78  1  0
 78 74  1  0
 79 80  1  0
 80 81  2  0
 82 81  1  0
 83 82  2  0
 84 58  1  0
 84 94  1  0
 85 84  1  0
 86 85  1  0
 86 87  2  0
 88 85  1  0
 90 89  1  0
 90 92  1  0
 90 86  1  0
 92 91  1  0
 93 92  1  0
 94 96  1  1
 94 97  1  0
 95 94  1  0
M  ISO  4  16 100  24 100  56 101  57 101
M  END
>  <TORSDO>  (37) 
F 21

>  <SCORE>  (37) 
-6.465

>  <name>  (37) 
37

>  <ligand_id>  (37) 
37

>  <original_smiles>  (37) 
[H]Oc1c([H])c(C([H])([H])Oc2c([H])c([H])c3c(c2[H])C([H])([H])N(C(=O)C([H])(N([H])C(=O)C([H])(N([H])C([H])([H])[H])C([H])([H])[H])C(C([H])([H])[H])(C([H])([H])[H])C([H])([H])[H])C([H])(C(=O)N([H])C2([H])c4c([H])c([H])c([H])c([H])c4C([H])([H])C([H])([H])C2([H])[H])C3([H])[H])c(C([H])([H])[H])n1-c1c([H])c([H])c([H])c(C([H])([H])C([H])([H])N([H])C(=O)N2C([H])([H])C([H])([H])C([H])([H])C([H])(n3nc(-c4c([H])c([H])c(Oc5c([H])c([H])c(F)c([H])c5F)c([H])c4[H])c(C(=O)N([H])[H])c3N([H])[H])C2([H])[H])c1F

>  <smiles>  (37) 
[H]Oc1c([H])c(C([H])([H])Oc2c([H])c([H])c3c(c2[H])C([H])([H])N(C(=O)C([H])(N([H])C(=O)C([H])(N([H])C([H])([H])[H])C([H])([H])[H])C(C([H])([H])[H])(C([H])([H])[H])C([H])([H])[H])C([H])(C(=O)N([H])C2([H])c4c([H])c([H])c([H])c([H])c4C([H])([H])C([H])([H])C2([H])[H])C3([H])[H])c(C([H])([H])[H])n1-c1c([H])c([H])c([H])c(C([H])([H])C([H])([H])N([H])C(=O)N2C([H])([H])C([H])([H])C([H])([H])C([H])(n3nc(-c4c([H])c([H])c(Oc5c([H])c([H])c(F)c([H])c5F)c([H])c4[H])c(C(=O)N([H])[H])c3N([H])[H])C2([H])[H])c1F

$$$$
38:0:0
     RDKit          3D

 86 95  0  0  1  0  0  0  0  0999 V2000
  -30.1890  -15.9060   20.2970 C   0  0  0  0  0  0  0  0  0  0  0  0
  -30.3680  -13.3140   19.4770 C   0  0  0  0  0  2  0  0  0  0  0  0
  -29.5060  -12.7950   18.2850 C   0  0  0  0  0  2  0  0  0  0  0  0
  -28.0970  -12.3930   18.7430 C   0  0  0  0  0  2  0  0  0  0  0  0
  -27.5420  -13.4070   19.7640 C   0  0  0  0  0  3  0  0  0  0  0  0
  -28.5560  -13.8140   20.8640 C   0  0  0  0  0  2  0  0  0  0  0  0
  -29.6890  -14.5070   20.1860 N   0  0  0  0  0  0  0  0  0  0  0  0
  -31.4380  -15.7980   20.2850 O   0  0  0  0  0  0  0  0  0  0  0  0
  -28.4350  -19.5490   19.2640 C   0  0  0  0  0  0  0  0  0  0  0  0
  -29.2580  -19.0680   20.2310 C   0  0  0  0  0  0  0  0  0  0  0  0
  -28.6820  -21.7740   20.2460 C   0  0  0  0  0  0  0  0  0  0  0  0
  -27.8960  -18.4710   18.4080 C   0  0  0  0  0  2  0  0  0  0  0  0
  -28.3540  -17.1090   19.0820 C   0  0  0  0  0  2  0  0  0  0  0  0
  -29.3350  -20.5390   20.8790 N   0  0  0  0  0  0  0  0  0  0  0  0
  -29.4060  -17.3090   20.1250 N   0  0  0  0  0  0  0  0  0  0  0  0
  -28.1080  -20.9870   19.2200 O   0  0  0  0  0  0  0  0  0  0  0  0
  -25.1720  -13.9100   20.5120 C   0  0  0  0  0  0  0  0  0  0  0  0
  -24.1140  -13.1230   20.8630 C   0  0  0  0  0  0  0  0  0  0  0  0
  -24.5990  -11.7780   20.8430 C   0  0  0  0  0  0  0  0  0  0  0  0
  -26.2290  -13.0500   20.2830 N   0  0  0  0  0  0  0  0  0  0  0  0
  -25.8980  -11.7590   20.5490 N   0  0  0  0  0  0  0  0  0  0  0  0
  -23.8770  -10.5110   21.0260 C   0  0  0  0  0  0  0  0  0  0  0  0
  -24.2950   -9.5520   21.9750 C   0  0  0  0  0  3  0  0  0  0  0  0
  -23.5670   -8.3550   22.1490 C   0  0  0  0  0  3  0  0  0  0  0  0
  -22.4090   -8.1070   21.3750 C   0  0  0  0  0  0  0  0  0  0  0  0
  -22.0100   -9.0560   20.4170 C   0  0  0  0  0  3  0  0  0  0  0  0
  -22.7390  -10.2440   20.2400 C   0  0  0  0  0  3  0  0  0  0  0  0
  -21.6560   -6.9610   21.4580 O   0  0  0  0  0  0  0  0  0  0  0  0
  -21.5810   -6.2310   22.6170 C   0  0  0  0  0  0  0  0  0  0  0  0
  -21.1200   -6.7960   23.8250 C   0  0  0  0  0  3  0  0  0  0  0  0
  -20.9930   -5.9920   24.9770 C   0  0  0  0  0  3  0  0  0  0  0  0
  -21.3170   -4.6240   24.9180 C   0  0  0  0  0  0  0  0  0  0  0  0
  -21.7720   -4.0580   23.7140 C   0  0  0  0  0  3  0  0  0  0  0  0
  -21.9000   -4.8590   22.5670 C   0  0  0  0  0  0  0  0  0  0  0  0
  -22.3180   -4.3030   21.4040 F   0  0  0  0  0  0  0  0  0  0  0  0
  -21.1890   -3.8500   26.0220 F   0  0  0  0  0  0  0  0  0  0  0  0
  -22.7090  -13.5890   21.1020 C   0  0  0  0  0  0  0  0  0  0  0  0
  -21.9730  -12.9000   21.9650 N   0  0  0  0  0  0  0  0  0  0  0  0
  -22.2750  -14.6060   20.5610 O   0  0  0  0  0  0  0  0  0  0  0  0
  -22.3390  -12.0800   22.4250 H   0  0  0  0  0  0  0  0  0  0  0  0
  -21.0290  -13.1970   22.1680 H   0  0  0  0  0  0  0  0  0  0  0  0
  -25.3150  -15.2820   20.3370 N   0  0  0  0  0  0  0  0  0  0  0  0
  -24.5370  -15.9240   20.4490 H   0  0  0  0  0  0  0  0  0  0  0  0
  -26.1690  -15.7380   20.0510 H   0  0  0  0  0  0  0  0  0  0  0  0
  -27.9450  -23.5540   20.6000 C   0  0  0  0  0  2  0  0  0  0  0  0
  -28.1870  -25.3430   20.3160 O   0  0  0  0  0  0  0  0  0  0  0  0
  -24.6840  -31.8610   23.1890 C   0  0  0  0  0  0  0  0  0  0  0  0
  -27.2300  -26.6220   20.3160 C   0  0  0  0  0  0  0  0  0  0  0  0
  -23.5120  -30.4320   21.5720 C   0  0  0  0  0  3  0  0  0  0  0  0
  -24.9700  -28.7370   20.2090 C   0  0  0  0  0  0  0  0  0  0  0  0
  -26.0980  -30.5390   21.4760 C   0  0  0  0  0  2  0  0  0  0  0  0
  -26.1680  -29.0800   20.8460 C   0  0  0  0  0  0  0  0  0  0  0  0
  -27.2790  -28.0580   20.8570 C   0  0  0  0  0  3  0  0  0  0  0  0
  -25.9910  -26.5240   19.6210 C   0  0  0  0  0  3  0  0  0  0  0  0
  -24.9280  -27.4850   19.5700 C   0  0  0  0  0  3  0  0  0  0  0  0
  -23.7670  -29.7030   20.2210 C   0  0  0  0  0  2  0  0  0  0  0  0
  -24.7900  -30.9810   22.1300 N   0  0  0  0  0  0  0  0  0  0  0  0
  -23.5850  -32.1730   23.6820 O   0  0  0  0  0  0  0  0  0  0  0  0
  -22.7800  -29.4800   22.5590 C   0  0  0  0  0  0  0  0  0  0  0  0
  -21.4460  -29.3340   22.4350 N   0  0  0  0  0  0  0  0  0  0  0  0
  -23.4280  -28.8690   23.4120 O   0  0  0  0  0  0  0  0  0  0  0  0
  -20.9710  -29.8760   21.7270 H   0  0  0  0  0  0  0  0  0  0  0  0
  -18.0510  -28.1380   22.9680 C   0  0  0  0  0  0  0  0  0  0  0  0
  -20.6130  -28.4120   23.2200 C   0  0  0  0  0  3  0  0  0  0  0  0
  -20.7110  -26.9690   22.6680 C   0  0  0  0  0  2  0  0  0  0  0  0
  -19.6090  -26.6340   21.6590 C   0  0  0  0  0  2  0  0  0  0  0  0
  -18.2280  -26.7830   22.3030 C   0  0  0  0  0  2  0  0  0  0  0  0
  -19.1700  -28.9090   23.3840 C   0  0  0  0  0  0  0  0  0  0  0  0
  -18.9460  -30.1730   23.9730 C   0  0  0  0  0  3  0  0  0  0  0  0
  -17.6400  -30.6670   24.1450 C   0  0  0  0  0  3  0  0  0  0  0  0
  -16.5370  -29.8950   23.7410 C   0  0  0  0  0  3  0  0  0  0  0  0
  -16.7440  -28.6320   23.1590 C   0  0  0  0  0  3  0  0  0  0  0  0
  -25.9360  -32.5320   23.8300 C   0  0  0  0  0  3  0  0  0  0  0  0
  -25.5980  -33.9330   24.1580 N   0  0  0  0  0  0  0  0  0  0  0  0
  -25.9210  -35.0020   23.4180 C   0  0  0  0  0  0  0  0  0  0  0  0
  -26.5900  -34.9150   22.3860 O   0  0  0  0  0  0  0  0  0  0  0  0
  -25.0010  -34.0720   24.9590 H   0  0  0  0  0  0  0  0  0  0  0  0
  -24.1770  -36.7970   23.1040 C   0  0  0  0  0  1  0  0  0  0  0  0
  -25.4320  -36.3880   23.8940 C   0  0  0  0  0  3  0  0  0  0  0  0
  -27.5690  -37.2920   24.7040 C   0  0  0  0  0  1  0  0  0  0  0  0
  -26.4540  -37.4520   23.7740 N   0  0  0  0  0  0  0  0  0  0  0  0
  -26.0420  -38.3680   23.9290 H   0  0  0  0  0  0  0  0  0  0  0  0
  -26.4340  -31.7890   25.1330 C   0  0  1  0  0  0  0  0  0  0  0  0
  -25.3260  -31.5720   26.1900 C   0  0  0  0  0  1  0  0  0  0  0  0
  -27.0260  -30.4040   24.7930 C   0  0  0  0  0  1  0  0  0  0  0  0
  -27.5730  -32.6000   25.7950 C   0  0  0  0  0  1  0  0  0  0  0  0
  2  7  1  0
  3  4  1  0
  3  2  1  0
  5  4  1  0
  5 20  1  0
  5  6  1  0
  7  1  1  0
  7  6  1  0
  8  1  2  0
  9 10  2  0
 10 14  1  0
 11 45  1  0
 11 14  2  0
 12 13  1  0
 12  9  1  0
 13 15  1  0
 15 10  1  0
 15  1  1  0
 16  9  1  0
 16 11  1  0
 17 18  2  0
 18 37  1  0
 19 18  1  0
 19 22  1  0
 20 17  1  0
 20 21  1  0
 21 19  2  0
 22 23  1  0
 23 24  2  0
 25 28  1  0
 25 24  1  0
 26 25  2  0
 27 26  1  0
 27 22  2  0
 28 29  1  0
 29 30  1  0
 30 31  2  0
 32 31  1  0
 32 36  1  0
 33 32  2  0
 34 29  2  0
 34 33  1  0
 35 34  1  0
 37 38  1  0
 38 41  1  0
 38 40  1  0
 39 37  2  0
 42 43  1  0
 42 17  1  0
 44 42  1  0
 46 48  1  0
 46 45  1  0
 47 58  2  0
 48 53  1  0
 49 57  1  0
 49 59  1  0
 50 56  1  0
 50 52  1  0
 51 57  1  0
 52 53  2  0
 52 51  1  0
 54 48  2  0
 55 54  1  0
 55 50  2  0
 56 49  1  0
 57 47  1  0
 59 61  2  0
 60 59  1  0
 62 60  1  0
 63 72  2  0
 63 68  1  0
 64 60  1  0
 64 68  1  0
 65 64  1  0
 66 67  1  0
 66 65  1  0
 67 63  1  0
 68 69  2  0
 69 70  1  0
 71 70  2  0
 72 71  1  0
 73 47  1  0
 73 74  1  0
 73 83  1  0
 74 77  1  0
 75 79  1  0
 75 74  1  0
 76 75  2  0
 79 78  1  0
 81 79  1  0
 81 82  1  0
 81 80  1  0
 83 86  1  1
 83 84  1  0
 85 83  1  0
M  ISO  4   1 100  15 100  45 101  46 101
M  END
>  <TORSDO>  (38) 
F 16

>  <SCORE>  (38) 
-16.729

>  <name>  (38) 
38

>  <ligand_id>  (38) 
38

>  <original_smiles>  (38) 
[H]c1c([H])c([H])c2c(c1[H])C([H])([H])C([H])([H])C([H])([H])C2([H])N([H])C(=O)C1([H])N(C(=O)C([H])(N([H])C(=O)C([H])(N([H])C([H])([H])[H])C([H])([H])[H])C(C([H])([H])[H])(C([H])([H])[H])C([H])([H])[H])C([H])([H])c2c([H])c(OC([H])([H])c3nc4c(o3)C([H])([H])C([H])([H])N4C(=O)N3C([H])([H])C([H])([H])C([H])([H])C([H])(n4nc(-c5c([H])c([H])c(Oc6c([H])c([H])c(F)c([H])c6F)c([H])c5[H])c(C(=O)N([H])[H])c4N([H])[H])C3([H])[H])c([H])c([H])c2C1([H])[H]

>  <smiles>  (38) 
[H]c1c([H])c([H])c2c(c1[H])C([H])([H])C([H])([H])C([H])([H])C2([H])N([H])C(=O)C1([H])N(C(=O)C([H])(N([H])C(=O)C([H])(N([H])C([H])([H])[H])C([H])([H])[H])C(C([H])([H])[H])(C([H])([H])[H])C([H])([H])[H])C([H])([H])c2c([H])c(OC([H])([H])c3nc4c(o3)C([H])([H])C([H])([H])N4C(=O)N3C([H])([H])C([H])([H])C([H])([H])C([H])(n4nc(-c5c([H])c([H])c(Oc6c([H])c([H])c(F)c([H])c6F)c([H])c5[H])c(C(=O)N([H])[H])c4N([H])[H])C3([H])[H])c([H])c([H])c2C1([H])[H]

$$$$
39:0:0
     RDKit          3D

 94103  0  0  1  0  0  0  0  0999 V2000
  -28.9800  -22.5390   20.1430 C   0  0  0  0  0  3  0  0  0  0  0  0
  -28.4840  -23.7940   19.8110 C   0  0  0  0  0  0  0  0  0  0  0  0
  -27.9070  -22.8240   17.5080 C   0  0  0  0  0  0  0  0  0  0  0  0
  -27.9730  -24.0710   18.4000 C   0  0  0  0  0  2  0  0  0  0  0  0
  -28.7920  -21.6070   17.8420 C   0  0  0  0  0  2  0  0  0  0  0  0
  -29.0850  -21.3960   19.2760 N   0  0  0  0  0  0  0  0  0  0  0  0
  -27.1740  -22.8170   16.5140 O   0  0  0  0  0  0  0  0  0  0  0  0
  -29.5750  -18.9640   18.6080 C   0  0  0  0  0  3  0  0  0  0  0  0
  -29.8580  -17.5920   18.9140 C   0  0  0  0  0  3  0  0  0  0  0  0
  -29.5660  -19.5160   20.9130 C   0  0  0  0  0  3  0  0  0  0  0  0
  -29.4070  -20.0000   19.5910 C   0  0  0  0  0  0  0  0  0  0  0  0
  -30.0090  -17.1110   20.2450 C   0  0  0  0  0  0  0  0  0  0  0  0
  -29.8550  -18.1480   21.2320 C   0  0  0  0  0  0  0  0  0  0  0  0
  -29.9870  -17.8760   22.5510 F   0  0  0  0  0  0  0  0  0  0  0  0
  -30.7200  -14.6790   19.7200 C   0  0  0  0  0  0  0  0  0  0  0  0
  -30.2620  -12.5300   18.5110 C   0  0  0  0  0  2  0  0  0  0  0  0
  -29.1820  -12.7660   17.4360 C   0  0  0  0  0  2  0  0  0  0  0  0
  -27.7720  -12.5890   18.0320 C   0  0  0  0  0  2  0  0  0  0  0  0
  -27.6000  -13.3590   19.3710 C   0  0  0  0  0  3  0  0  0  0  0  0
  -28.7850  -13.1240   20.3250 C   0  0  0  0  0  2  0  0  0  0  0  0
  -30.0190  -13.4940   19.6120 N   0  0  0  0  0  0  0  0  0  0  0  0
  -31.7380  -14.8560   19.0410 O   0  0  0  0  0  0  0  0  0  0  0  0
  -30.5360  -15.3230   21.9950 C   0  0  0  0  0  1  0  0  0  0  0  0
  -30.2780  -15.6700   20.5810 N   0  0  0  0  0  0  0  0  0  0  0  0
  -25.3470  -13.9320   20.4640 C   0  0  0  0  0  0  0  0  0  0  0  0
  -24.3160  -13.1490   20.9140 C   0  0  0  0  0  0  0  0  0  0  0  0
  -24.7280  -11.7960   20.6990 C   0  0  0  0  0  0  0  0  0  0  0  0
  -26.3210  -13.0570   20.0100 N   0  0  0  0  0  0  0  0  0  0  0  0
  -25.9630  -11.7610   20.2090 N   0  0  0  0  0  0  0  0  0  0  0  0
  -23.9940  -10.5370   20.8770 C   0  0  0  0  0  0  0  0  0  0  0  0
  -24.4930   -9.4970   21.6900 C   0  0  0  0  0  3  0  0  0  0  0  0
  -23.7560   -8.3040   21.8620 C   0  0  0  0  0  3  0  0  0  0  0  0
  -22.5030   -8.1460   21.2210 C   0  0  0  0  0  0  0  0  0  0  0  0
  -22.0220   -9.1750   20.3940 C   0  0  0  0  0  3  0  0  0  0  0  0
  -22.7590  -10.3590   20.2210 C   0  0  0  0  0  3  0  0  0  0  0  0
  -21.7300   -7.0140   21.3110 O   0  0  0  0  0  0  0  0  0  0  0  0
  -21.7480   -6.2150   22.4260 C   0  0  0  0  0  0  0  0  0  0  0  0
  -21.4430   -6.7180   23.7100 C   0  0  0  0  0  3  0  0  0  0  0  0
  -21.4070   -5.8470   24.8160 C   0  0  0  0  0  3  0  0  0  0  0  0
  -21.6680   -4.4750   24.6420 C   0  0  0  0  0  0  0  0  0  0  0  0
  -21.9610   -3.9710   23.3640 C   0  0  0  0  0  3  0  0  0  0  0  0
  -21.9980   -4.8380   22.2580 C   0  0  0  0  0  0  0  0  0  0  0  0
  -22.2590   -4.3440   21.0230 F   0  0  0  0  0  0  0  0  0  0  0  0
  -21.6300   -3.6360   25.7040 F   0  0  0  0  0  0  0  0  0  0  0  0
  -22.9850  -13.6250   21.4210 C   0  0  0  0  0  0  0  0  0  0  0  0
  -22.3690  -12.8760   22.3290 N   0  0  0  0  0  0  0  0  0  0  0  0
  -22.5000  -14.6930   21.0430 O   0  0  0  0  0  0  0  0  0  0  0  0
  -22.7680  -12.0060   22.6530 H   0  0  0  0  0  0  0  0  0  0  0  0
  -21.4800  -13.1690   22.7070 H   0  0  0  0  0  0  0  0  0  0  0  0
  -25.5340  -15.3090   20.3800 N   0  0  0  0  0  0  0  0  0  0  0  0
  -24.8440  -15.9840   20.6900 H   0  0  0  0  0  0  0  0  0  0  0  0
  -26.3640  -15.7460   19.9990 H   0  0  0  0  0  0  0  0  0  0  0  0
  -28.2660  -25.0030   20.8170 C   0  0  0  0  0  2  0  0  0  0  0  0
  -28.4800  -26.4290   20.4050 O   0  0  0  0  0  0  0  0  0  0  0  0
  -24.6580  -31.9050   23.3100 C   0  0  0  0  0  0  0  0  0  0  0  0
  -27.3690  -27.2950   20.3900 C   0  0  0  0  0  0  0  0  0  0  0  0
  -23.5030  -30.4700   21.6690 C   0  0  0  0  0  3  0  0  0  0  0  0
  -24.9940  -28.8960   20.3160 C   0  0  0  0  0  0  0  0  0  0  0  0
  -26.0490  -30.7950   21.5430 C   0  0  0  0  0  2  0  0  0  0  0  0
  -26.1530  -29.4030   20.9220 C   0  0  0  0  0  0  0  0  0  0  0  0
  -27.3450  -28.6130   20.9510 C   0  0  0  0  0  3  0  0  0  0  0  0
  -26.1870  -26.8470   19.7680 C   0  0  0  0  0  3  0  0  0  0  0  0
  -25.0120  -27.6180   19.7390 C   0  0  0  0  0  3  0  0  0  0  0  0
  -23.7550  -29.7680   20.3100 C   0  0  0  0  0  2  0  0  0  0  0  0
  -24.7560  -31.0770   22.2310 N   0  0  0  0  0  0  0  0  0  0  0  0
  -23.5590  -32.1850   23.8100 O   0  0  0  0  0  0  0  0  0  0  0  0
  -22.8210  -29.4670   22.6300 C   0  0  0  0  0  0  0  0  0  0  0  0
  -21.4990  -29.2780   22.4670 N   0  0  0  0  0  0  0  0  0  0  0  0
  -23.4790  -28.8630   23.4820 O   0  0  0  0  0  0  0  0  0  0  0  0
  -21.0290  -29.8160   21.7530 H   0  0  0  0  0  0  0  0  0  0  0  0
  -18.1180  -28.0560   22.9030 C   0  0  0  0  0  0  0  0  0  0  0  0
  -20.6660  -28.3450   23.2320 C   0  0  0  0  0  3  0  0  0  0  0  0
  -20.7980  -26.9030   22.6890 C   0  0  0  0  0  2  0  0  0  0  0  0
  -19.7250  -26.5520   21.6540 C   0  0  0  0  0  2  0  0  0  0  0  0
  -18.3260  -26.6960   22.2580 C   0  0  0  0  0  2  0  0  0  0  0  0
  -19.2180  -28.8370   23.3450 C   0  0  0  0  0  0  0  0  0  0  0  0
  -18.9720  -30.1110   23.9060 C   0  0  0  0  0  3  0  0  0  0  0  0
  -17.6590  -30.6010   24.0290 C   0  0  0  0  0  3  0  0  0  0  0  0
  -16.5730  -29.8160   23.6050 C   0  0  0  0  0  3  0  0  0  0  0  0
  -16.8030  -28.5450   23.0490 C   0  0  0  0  0  3  0  0  0  0  0  0
  -25.9210  -32.5580   23.9520 C   0  0  0  0  0  3  0  0  0  0  0  0
  -25.5940  -33.9630   24.2440 N   0  0  0  0  0  0  0  0  0  0  0  0
  -25.9270  -34.9990   23.4640 C   0  0  0  0  0  0  0  0  0  0  0  0
  -26.6120  -34.8770   22.4460 O   0  0  0  0  0  0  0  0  0  0  0  0
  -24.9960  -34.1320   25.0390 H   0  0  0  0  0  0  0  0  0  0  0  0
  -24.1860  -36.7660   23.0430 C   0  0  0  0  0  1  0  0  0  0  0  0
  -25.4190  -36.3940   23.8820 C   0  0  0  0  0  3  0  0  0  0  0  0
  -27.5320  -37.3160   24.7220 C   0  0  0  0  0  1  0  0  0  0  0  0
  -26.4430  -37.4560   23.7580 N   0  0  0  0  0  0  0  0  0  0  0  0
  -26.0270  -38.3740   23.8790 H   0  0  0  0  0  0  0  0  0  0  0  0
  -26.4070  -31.8210   25.2600 C   0  0  1  0  0  0  0  0  0  0  0  0
  -25.2870  -31.5880   26.3000 C   0  0  0  0  0  1  0  0  0  0  0  0
  -27.0260  -30.4450   24.9200 C   0  0  0  0  0  1  0  0  0  0  0  0
  -27.5300  -32.6460   25.9360 C   0  0  0  0  0  1  0  0  0  0  0  0
  2  1  2  0
  2 53  1  0
  3  5  1  0
  3  4  1  0
  4  2  1  0
  5  6  1  0
  6 11  1  0
  6  1  1  0
  7  3  2  0
  8  9  2  0
  8 11  1  0
  9 12  1  0
 10 13  1  0
 11 10  2  0
 12 24  1  0
 12 13  2  0
 13 14  1  0
 15 24  1  0
 16 21  1  0
 17 18  1  0
 17 16  1  0
 19 18  1  0
 19 28  1  0
 19 20  1  0
 21 15  1  0
 21 20  1  0
 22 15  2  0
 24 23  1  0
 25 26  2  0
 26 45  1  0
 27 30  1  0
 27 26  1  0
 28 29  1  0
 28 25  1  0
 29 27  2  0
 30 31  1  0
 31 32  2  0
 33 36  1  0
 33 32  1  0
 34 33  2  0
 35 34  1  0
 35 30  2  0
 36 37  1  0
 37 38  1  0
 38 39  2  0
 40 39  1  0
 40 44  1  0
 41 40  2  0
 42 37  2  0
 42 41  1  0
 43 42  1  0
 45 46  1  0
 46 48  1  0
 46 49  1  0
 47 45  2  0
 50 25  1  0
 50 51  1  0
 52 50  1  0
 54 53  1  0
 55 66  2  0
 56 54  1  0
 56 61  1  0
 57 65  1  0
 57 67  1  0
 58 60  1  0
 59 65  1  0
 60 61  2  0
 60 59  1  0
 62 56  2  0
 63 62  1  0
 63 58  2  0
 64 58  1  0
 64 57  1  0
 65 55  1  0
 67 69  2  0
 68 67  1  0
 70 68  1  0
 71 80  2  0
 71 76  1  0
 72 68  1  0
 72 76  1  0
 73 72  1  0
 74 75  1  0
 74 73  1  0
 75 71  1  0
 76 77  2  0
 77 78  1  0
 79 78  2  0
 80 79  1  0
 81 55  1  0
 81 82  1  0
 81 91  1  0
 82 85  1  0
 83 87  1  0
 83 82  1  0
 84 83  2  0
 87 86  1  0
 89 90  1  0
 89 87  1  0
 89 88  1  0
 91 94  1  1
 91 92  1  0
 93 91  1  0
M  ISO  4  15 100  24 100  53 101  54 101
M  END
>  <TORSDO>  (39) 
F 18

>  <SCORE>  (39) 
-12.212

>  <name>  (39) 
39

>  <ligand_id>  (39) 
39

>  <original_smiles>  (39) 
[H]C1=C(C([H])([H])Oc2c([H])c([H])c3c(c2[H])C([H])([H])N(C(=O)C([H])(N([H])C(=O)C([H])(N([H])C([H])([H])[H])C([H])([H])[H])C(C([H])([H])[H])(C([H])([H])[H])C([H])([H])[H])C([H])(C(=O)N([H])C2([H])c4c([H])c([H])c([H])c([H])c4C([H])([H])C([H])([H])C2([H])[H])C3([H])[H])C([H])([H])C(=O)C([H])([H])N1c1c([H])c([H])c(N(C(=O)N2C([H])([H])C([H])([H])C([H])([H])C([H])(n3nc(-c4c([H])c([H])c(Oc5c([H])c([H])c(F)c([H])c5F)c([H])c4[H])c(C(=O)N([H])[H])c3N([H])[H])C2([H])[H])C([H])([H])[H])c(F)c1[H]

>  <smiles>  (39) 
[H]C1=C(C([H])([H])Oc2c([H])c([H])c3c(c2[H])C([H])([H])N(C(=O)C([H])(N([H])C(=O)C([H])(N([H])C([H])([H])[H])C([H])([H])[H])C(C([H])([H])[H])(C([H])([H])[H])C([H])([H])[H])C([H])(C(=O)N([H])C2([H])c4c([H])c([H])c([H])c([H])c4C([H])([H])C([H])([H])C2([H])[H])C3([H])[H])C([H])([H])C(=O)C([H])([H])N1c1c([H])c([H])c(N(C(=O)N2C([H])([H])C([H])([H])C([H])([H])C([H])(n3nc(-c4c([H])c([H])c(Oc5c([H])c([H])c(F)c([H])c5F)c([H])c4[H])c(C(=O)N([H])[H])c3N([H])[H])C2([H])[H])C([H])([H])[H])c(F)c1[H]

$$$$
40:0:0
     RDKit          3D

 96104  0  0  1  0  0  0  0  0999 V2000
  -29.0780  -19.4390   21.4750 C   0  0  0  0  0  3  0  0  0  0  0  0
  -28.8360  -20.8260   21.2080 C   0  0  0  0  0  3  0  0  0  0  0  0
  -30.4420  -19.2730   19.5090 C   0  0  0  0  0  3  0  0  0  0  0  0
  -29.8790  -18.6100   20.6330 C   0  0  0  0  0  0  0  0  0  0  0  0
  -29.3990  -21.4780   20.0790 C   0  0  0  0  0  0  0  0  0  0  0  0
  -30.2090  -20.6570   19.2400 C   0  0  0  0  0  0  0  0  0  0  0  0
  -30.7980  -14.8690   20.3440 C   0  0  0  0  0  0  0  0  0  0  0  0
  -30.5590  -12.5910   19.3680 C   0  0  0  0  0  2  0  0  0  0  0  0
  -29.6200  -12.6470   18.1460 C   0  0  0  0  0  2  0  0  0  0  0  0
  -28.1500  -12.4860   18.5840 C   0  0  0  0  0  2  0  0  0  0  0  0
  -27.7760  -13.3830   19.7930 C   0  0  0  0  0  3  0  0  0  0  0  0
  -28.8440  -13.3430   20.9070 C   0  0  0  0  0  2  0  0  0  0  0  0
  -30.1340  -13.6650   20.2860 N   0  0  0  0  0  0  0  0  0  0  0  0
  -32.0160  -14.9030   20.1530 O   0  0  0  0  0  0  0  0  0  0  0  0
  -30.2220  -17.1400   21.0300 C   0  0  0  0  0  0  0  0  0  0  0  0
  -30.0600  -16.0410   20.1910 N   0  0  0  0  0  0  0  0  0  0  0  0
  -30.6220  -16.9870   22.1900 O   0  0  0  0  0  0  0  0  0  0  0  0
  -25.3980  -13.9910   20.5360 C   0  0  0  0  0  0  0  0  0  0  0  0
  -24.3280  -13.2220   20.8980 C   0  0  0  0  0  0  0  0  0  0  0  0
  -24.7840  -11.8690   20.8580 C   0  0  0  0  0  0  0  0  0  0  0  0
  -26.4350  -13.1050   20.2920 N   0  0  0  0  0  0  0  0  0  0  0  0
  -26.0730  -11.8240   20.5510 N   0  0  0  0  0  0  0  0  0  0  0  0
  -24.0520  -10.6090   21.0350 C   0  0  0  0  0  0  0  0  0  0  0  0
  -24.4660   -9.6440   21.9790 C   0  0  0  0  0  3  0  0  0  0  0  0
  -23.7360   -8.4480   22.1450 C   0  0  0  0  0  3  0  0  0  0  0  0
  -22.5790   -8.2090   21.3670 C   0  0  0  0  0  0  0  0  0  0  0  0
  -22.1840   -9.1640   20.4130 C   0  0  0  0  0  3  0  0  0  0  0  0
  -22.9150  -10.3510   20.2440 C   0  0  0  0  0  3  0  0  0  0  0  0
  -21.8210   -7.0660   21.4420 O   0  0  0  0  0  0  0  0  0  0  0  0
  -21.7280   -6.3410   22.6040 C   0  0  0  0  0  0  0  0  0  0  0  0
  -21.2220   -6.9030   23.7960 C   0  0  0  0  0  3  0  0  0  0  0  0
  -21.0790   -6.1020   24.9460 C   0  0  0  0  0  3  0  0  0  0  0  0
  -21.4330   -4.7390   24.9050 C   0  0  0  0  0  0  0  0  0  0  0  0
  -21.9320   -4.1770   23.7170 C   0  0  0  0  0  3  0  0  0  0  0  0
  -22.0760   -4.9750   22.5690 C   0  0  0  0  0  0  0  0  0  0  0  0
  -22.5380   -4.4230   21.4210 F   0  0  0  0  0  0  0  0  0  0  0  0
  -21.2890   -3.9680   26.0080 F   0  0  0  0  0  0  0  0  0  0  0  0
  -22.9330  -13.7050   21.1700 C   0  0  0  0  0  0  0  0  0  0  0  0
  -22.2000  -13.0050   22.0280 N   0  0  0  0  0  0  0  0  0  0  0  0
  -22.5010  -14.7370   20.6580 O   0  0  0  0  0  0  0  0  0  0  0  0
  -22.5620  -12.1700   22.4650 H   0  0  0  0  0  0  0  0  0  0  0  0
  -21.2640  -13.3110   22.2550 H   0  0  0  0  0  0  0  0  0  0  0  0
  -25.5730  -15.3610   20.3660 N   0  0  0  0  0  0  0  0  0  0  0  0
  -24.8120  -16.0240   20.4720 H   0  0  0  0  0  0  0  0  0  0  0  0
  -26.4250  -15.7820   20.0230 H   0  0  0  0  0  0  0  0  0  0  0  0
  -28.3200  -16.7840   18.6200 C   0  0  0  0  0  2  0  0  0  0  0  0
  -29.5160  -16.2290   18.9050 C   0  0  0  0  0  3  0  0  0  0  0  0
  -28.7030  -24.0020   20.3280 C   0  0  0  0  0  0  0  0  0  0  0  0
  -29.1880  -22.8830   19.6920 N   0  0  0  0  0  0  0  0  0  0  0  0
  -28.3200  -23.9790   21.5000 O   0  0  0  0  0  0  0  0  0  0  0  0
  -29.4860  -23.0590   18.7420 H   0  0  0  0  0  0  0  0  0  0  0  0
  -28.6470  -25.3660   19.5100 C   0  0  0  0  0  2  0  0  0  0  0  0
  -28.4640  -26.6340   20.2670 O   0  0  0  0  0  0  0  0  0  0  0  0
  -24.5740  -31.9350   23.2370 C   0  0  0  0  0  0  0  0  0  0  0  0
  -27.3070  -27.4300   20.1860 C   0  0  0  0  0  0  0  0  0  0  0  0
  -23.4160  -30.5260   21.5730 C   0  0  0  0  0  3  0  0  0  0  0  0
  -24.9110  -29.0040   20.1600 C   0  0  0  0  0  0  0  0  0  0  0  0
  -25.9530  -30.8840   21.4290 C   0  0  0  0  0  2  0  0  0  0  0  0
  -26.0620  -29.5090   20.7760 C   0  0  0  0  0  0  0  0  0  0  0  0
  -27.2580  -28.7310   20.7820 C   0  0  0  0  0  3  0  0  0  0  0  0
  -26.1230  -26.9710   19.5650 C   0  0  0  0  0  3  0  0  0  0  0  0
  -24.9430  -27.7410   19.5500 C   0  0  0  0  0  3  0  0  0  0  0  0
  -23.6600  -29.8590   20.1920 C   0  0  0  0  0  2  0  0  0  0  0  0
  -24.6650  -31.1330   22.1350 N   0  0  0  0  0  0  0  0  0  0  0  0
  -23.4780  -32.1950   23.7560 O   0  0  0  0  0  0  0  0  0  0  0  0
  -22.7540  -29.4970   22.5190 C   0  0  0  0  0  0  0  0  0  0  0  0
  -21.4300  -29.3140   22.3830 N   0  0  0  0  0  0  0  0  0  0  0  0
  -23.4320  -28.8650   23.3340 O   0  0  0  0  0  0  0  0  0  0  0  0
  -20.9430  -29.8760   21.6980 H   0  0  0  0  0  0  0  0  0  0  0  0
  -18.0510  -28.1190   22.8730 C   0  0  0  0  0  0  0  0  0  0  0  0
  -20.6110  -28.3650   23.1370 C   0  0  0  0  0  3  0  0  0  0  0  0
  -20.7060  -26.9440   22.5340 C   0  0  0  0  0  2  0  0  0  0  0  0
  -19.5990  -26.6450   21.5180 C   0  0  0  0  0  2  0  0  0  0  0  0
  -18.2210  -26.7830   22.1700 C   0  0  0  0  0  2  0  0  0  0  0  0
  -19.1740  -28.8690   23.3130 C   0  0  0  0  0  0  0  0  0  0  0  0
  -18.9610  -30.1200   23.9310 C   0  0  0  0  0  3  0  0  0  0  0  0
  -17.6590  -30.6230   24.1110 C   0  0  0  0  0  3  0  0  0  0  0  0
  -16.5500  -29.8700   23.6870 C   0  0  0  0  0  3  0  0  0  0  0  0
  -16.7470  -28.6190   23.0730 C   0  0  0  0  0  3  0  0  0  0  0  0
  -25.8370  -32.5830   23.8830 C   0  0  0  0  0  3  0  0  0  0  0  0
  -26.3270  -31.8320   25.1810 C   0  0  1  0  0  0  0  0  0  0  0  0
  -25.2080  -31.5930   26.2220 C   0  0  0  0  0  1  0  0  0  0  0  0
  -26.9350  -30.4560   24.8200 C   0  0  0  0  0  1  0  0  0  0  0  0
  -27.4510  -32.6440   25.8650 C   0  0  0  0  0  1  0  0  0  0  0  0
  -25.5100  -33.9840   24.1890 N   0  0  0  0  0  0  0  0  0  0  0  0
  -25.8650  -35.0330   23.4350 C   0  0  0  0  0  0  0  0  0  0  0  0
  -26.5700  -34.9230   22.4280 O   0  0  0  0  0  0  0  0  0  0  0  0
  -24.8880  -34.1420   24.9680 H   0  0  0  0  0  0  0  0  0  0  0  0
  -24.1570  -36.8260   22.9930 C   0  0  0  0  0  1  0  0  0  0  0  0
  -25.3580  -36.4230   23.8650 C   0  0  0  0  0  3  0  0  0  0  0  0
  -27.4470  -37.3130   24.7980 C   0  0  0  0  0  1  0  0  0  0  0  0
  -26.3950  -37.4740   23.7980 N   0  0  0  0  0  0  0  0  0  0  0  0
  -25.9830  -38.3960   23.9150 H   0  0  0  0  0  0  0  0  0  0  0  0
  -30.8180  -21.2280   18.1220 N   0  0  0  0  0  0  0  0  0  0  0  0
  -31.5190  -20.6630   17.6560 H   0  0  0  0  0  0  0  0  0  0  0  0
  -31.1460  -22.1820   18.2230 H   0  0  0  0  0  0  0  0  0  0  0  0
  2  1  1  0
  3  4  1  0
  4 15  1  0
  4  1  2  0
  5  2  2  0
  6  3  2  0
  6  5  1  0
  8 13  1  0
  9 10  1  0
  9  8  1  0
 11 10  1  0
 11 21  1  0
 11 12  1  0
 13  7  1  0
 13 12  1  0
 14  7  2  0
 15 17  2  0
 16  7  1  0
 16 15  1  0
 18 19  2  0
 19 38  1  0
 20 19  1  0
 20 23  1  0
 21 18  1  0
 21 22  1  0
 22 20  2  0
 23 24  1  0
 24 25  2  0
 26 29  1  0
 26 25  1  0
 27 26  2  0
 28 27  1  0
 28 23  2  0
 29 30  1  0
 30 31  1  0
 31 32  2  0
 33 32  1  0
 33 37  1  0
 34 33  2  0
 35 30  2  0
 35 34  1  0
 36 35  1  0
 38 39  1  0
 39 42  1  0
 39 41  1  0
 40 38  2  0
 43 44  1  0
 43 18  1  0
 45 43  1  0
 46 47  2  0
 47 16  1  0
 48 50  2  0
 49  5  1  0
 49 48  1  0
 51 49  1  0
 52 53  1  0
 52 48  1  0
 54 65  2  0
 55 53  1  0
 55 60  1  0
 56 64  1  0
 56 66  1  0
 57 63  1  0
 57 59  1  0
 58 64  1  0
 59 60  2  0
 59 58  1  0
 61 55  2  0
 62 61  1  0
 62 57  2  0
 63 56  1  0
 64 54  1  0
 66 68  2  0
 67 66  1  0
 69 67  1  0
 70 79  2  0
 70 75  1  0
 71 67  1  0
 71 75  1  0
 72 71  1  0
 73 74  1  0
 73 72  1  0
 74 70  1  0
 75 76  2  0
 76 77  1  0
 78 77  2  0
 79 78  1  0
 80 54  1  0
 80 85  1  0
 80 81  1  0
 81 84  1  1
 81 82  1  0
 83 81  1  0
 85 88  1  0
 86 90  1  0
 86 85  1  0
 87 86  2  0
 90 89  1  0
 92 90  1  0
 92 93  1  0
 92 91  1  0
 94 96  1  0
 94  6  1  0
 95 94  1  0
M  ISO  4   7 100  16 100  52 101  53 101
M  END
>  <TORSDO>  (40) 
F 20

>  <SCORE>  (40) 
-13.577

>  <name>  (40) 
40

>  <ligand_id>  (40) 
40

>  <original_smiles>  (40) 
[H]C([H])=C([H])N(C(=O)c1c([H])c([H])c(N([H])C(=O)C([H])([H])Oc2c([H])c([H])c3c(c2[H])C([H])([H])N(C(=O)C([H])(N([H])C(=O)C([H])(N([H])C([H])([H])[H])C([H])([H])[H])C(C([H])([H])[H])(C([H])([H])[H])C([H])([H])[H])C([H])(C(=O)N([H])C2([H])c4c([H])c([H])c([H])c([H])c4C([H])([H])C([H])([H])C2([H])[H])C3([H])[H])c(N([H])[H])c1[H])C(=O)N1C([H])([H])C([H])([H])C([H])([H])C([H])(n2nc(-c3c([H])c([H])c(Oc4c([H])c([H])c(F)c([H])c4F)c([H])c3[H])c(C(=O)N([H])[H])c2N([H])[H])C1([H])[H]

>  <smiles>  (40) 
[H]C([H])=C([H])N(C(=O)c1c([H])c([H])c(N([H])C(=O)C([H])([H])Oc2c([H])c([H])c3c(c2[H])C([H])([H])N(C(=O)C([H])(N([H])C(=O)C([H])(N([H])C([H])([H])[H])C([H])([H])[H])C(C([H])([H])[H])(C([H])([H])[H])C([H])([H])[H])C([H])(C(=O)N([H])C2([H])c4c([H])c([H])c([H])c([H])c4C([H])([H])C([H])([H])C2([H])[H])C3([H])[H])c(N([H])[H])c1[H])C(=O)N1C([H])([H])C([H])([H])C([H])([H])C([H])(n2nc(-c3c([H])c([H])c(Oc4c([H])c([H])c(F)c([H])c4F)c([H])c3[H])c(C(=O)N([H])[H])c2N([H])[H])C1([H])[H]

$$$$
41:0:0
     RDKit          3D

 95104  0  0  1  0  0  0  0  0999 V2000
  -28.3320  -22.1750   21.6040 C   0  0  0  0  0  0  0  0  0  0  0  0
  -27.9830  -23.6090   21.9770 C   0  0  0  0  0  2  0  0  0  0  0  0
  -29.5490  -23.5500   20.2210 C   0  0  0  0  0  2  0  0  0  0  0  0
  -28.3350  -24.3790   20.6900 C   0  0  1  0  0  0  0  0  0  0  0  0
  -27.1920  -24.1850   19.6640 C   0  0  0  0  0  1  0  0  0  0  0  0
  -29.2380  -22.1660   20.6120 N   0  0  0  0  0  0  0  0  0  0  0  0
  -27.7460  -21.2050   22.0880 O   0  0  0  0  0  0  0  0  0  0  0  0
  -29.3990  -21.1130   19.5950 C   0  0  0  0  0  2  0  0  0  0  0  0
  -30.2090  -19.2700   21.2620 C   0  0  0  0  0  3  0  0  0  0  0  0
  -30.4410  -17.9040   21.5450 C   0  0  0  0  0  3  0  0  0  0  0  0
  -29.8810  -17.3340   19.2490 C   0  0  0  0  0  3  0  0  0  0  0  0
  -29.7710  -19.6730   19.9780 C   0  0  0  0  0  0  0  0  0  0  0  0
  -30.2730  -16.9230   20.5430 C   0  0  0  0  0  0  0  0  0  0  0  0
  -29.6400  -18.6920   18.9720 C   0  0  0  0  0  0  0  0  0  0  0  0
  -29.2600  -19.0560   17.7230 F   0  0  0  0  0  0  0  0  0  0  0  0
  -31.0180  -14.6210   20.0990 C   0  0  0  0  0  0  0  0  0  0  0  0
  -30.6840  -12.4840   18.9250 C   0  0  0  0  0  2  0  0  0  0  0  0
  -29.6810  -12.7110   17.7720 C   0  0  0  0  0  2  0  0  0  0  0  0
  -28.2260  -12.5790   18.2640 C   0  0  0  0  0  2  0  0  0  0  0  0
  -27.9570  -13.4000   19.5520 C   0  0  0  0  0  3  0  0  0  0  0  0
  -29.0560  -13.1220   20.6020 C   0  0  0  0  0  2  0  0  0  0  0  0
  -30.3650  -13.4330   20.0000 N   0  0  0  0  0  0  0  0  0  0  0  0
  -32.0640  -14.8770   19.4920 O   0  0  0  0  0  0  0  0  0  0  0  0
  -30.4140  -15.5430   20.8710 N   0  0  0  0  0  0  0  0  0  0  0  0
  -29.7370  -15.1760   21.5240 H   0  0  0  0  0  0  0  0  0  0  0  0
  -25.6010  -14.0290   20.3880 C   0  0  0  0  0  0  0  0  0  0  0  0
  -24.5400  -13.2630   20.7880 C   0  0  0  0  0  0  0  0  0  0  0  0
  -24.9770  -11.9060   20.6990 C   0  0  0  0  0  0  0  0  0  0  0  0
  -26.6210  -13.1390   20.0850 N   0  0  0  0  0  0  0  0  0  0  0  0
  -26.2490  -11.8540   20.3240 N   0  0  0  0  0  0  0  0  0  0  0  0
  -24.2430  -10.6480   20.8900 C   0  0  0  0  0  0  0  0  0  0  0  0
  -24.6450   -9.7010   21.8570 C   0  0  0  0  0  3  0  0  0  0  0  0
  -23.9130   -8.5080   22.0380 C   0  0  0  0  0  3  0  0  0  0  0  0
  -22.7660   -8.2530   21.2510 C   0  0  0  0  0  0  0  0  0  0  0  0
  -22.3820   -9.1890   20.2750 C   0  0  0  0  0  3  0  0  0  0  0  0
  -23.1150  -10.3740   20.0930 C   0  0  0  0  0  3  0  0  0  0  0  0
  -22.0080   -7.1090   21.3370 O   0  0  0  0  0  0  0  0  0  0  0  0
  -21.8340   -6.4500   22.5270 C   0  0  0  0  0  0  0  0  0  0  0  0
  -21.2480   -7.0790   23.6480 C   0  0  0  0  0  3  0  0  0  0  0  0
  -21.0260   -6.3440   24.8290 C   0  0  0  0  0  3  0  0  0  0  0  0
  -21.3760   -4.9820   24.8890 C   0  0  0  0  0  0  0  0  0  0  0  0
  -21.9550   -4.3540   23.7710 C   0  0  0  0  0  3  0  0  0  0  0  0
  -22.1780   -5.0860   22.5930 C   0  0  0  0  0  0  0  0  0  0  0  0
  -22.7160   -4.4710   21.5120 F   0  0  0  0  0  0  0  0  0  0  0  0
  -21.1540   -4.2730   26.0200 F   0  0  0  0  0  0  0  0  0  0  0  0
  -23.1660  -13.7520   21.1460 C   0  0  0  0  0  0  0  0  0  0  0  0
  -22.4750  -13.0440   22.0300 N   0  0  0  0  0  0  0  0  0  0  0  0
  -22.7130  -14.7930   20.6710 O   0  0  0  0  0  0  0  0  0  0  0  0
  -22.8520  -12.2000   22.4320 H   0  0  0  0  0  0  0  0  0  0  0  0
  -21.5580  -13.3550   22.3130 H   0  0  0  0  0  0  0  0  0  0  0  0
  -25.7810  -15.4020   20.2430 N   0  0  0  0  0  0  0  0  0  0  0  0
  -25.0390  -16.0710   20.4200 H   0  0  0  0  0  0  0  0  0  0  0  0
  -26.6340  -15.8380   19.9120 H   0  0  0  0  0  0  0  0  0  0  0  0
  -28.6200  -25.8930   20.9920 C   0  0  0  0  0  2  0  0  0  0  0  0
  -28.5380  -26.8270   19.8940 O   0  0  0  0  0  0  0  0  0  0  0  0
  -24.7540  -31.8700   23.2520 C   0  0  0  0  0  0  0  0  0  0  0  0
  -27.4080  -27.6170   19.9190 C   0  0  0  0  0  0  0  0  0  0  0  0
  -23.5470  -30.5360   21.5580 C   0  0  0  0  0  3  0  0  0  0  0  0
  -25.0030  -29.1000   20.0410 C   0  0  0  0  0  0  0  0  0  0  0  0
  -26.0690  -30.9320   21.3560 C   0  0  0  0  0  2  0  0  0  0  0  0
  -26.1630  -29.5970   20.6490 C   0  0  0  0  0  0  0  0  0  0  0  0
  -27.3690  -28.8590   20.5980 C   0  0  0  0  0  3  0  0  0  0  0  0
  -26.2460  -27.1790   19.2510 C   0  0  0  0  0  3  0  0  0  0  0  0
  -25.0380  -27.8850   19.3410 C   0  0  0  0  0  3  0  0  0  0  0  0
  -23.7500  -29.9320   20.1460 C   0  0  0  0  0  2  0  0  0  0  0  0
  -24.8100  -31.1250   22.1150 N   0  0  0  0  0  0  0  0  0  0  0  0
  -23.6760  -32.1020   23.8140 O   0  0  0  0  0  0  0  0  0  0  0  0
  -22.9160  -29.4580   22.4720 C   0  0  0  0  0  0  0  0  0  0  0  0
  -21.5970  -29.2460   22.3270 N   0  0  0  0  0  0  0  0  0  0  0  0
  -23.6100  -28.8170   23.2660 O   0  0  0  0  0  0  0  0  0  0  0  0
  -21.0980  -29.8050   21.6480 H   0  0  0  0  0  0  0  0  0  0  0  0
  -18.2560  -27.9560   22.7820 C   0  0  0  0  0  0  0  0  0  0  0  0
  -20.8060  -28.2610   23.0610 C   0  0  0  0  0  3  0  0  0  0  0  0
  -20.9440  -26.8530   22.4350 C   0  0  0  0  0  2  0  0  0  0  0  0
  -19.8470  -26.5300   21.4150 C   0  0  0  0  0  2  0  0  0  0  0  0
  -18.4590  -26.6380   22.0560 C   0  0  0  0  0  2  0  0  0  0  0  0
  -19.3570  -28.7240   23.2430 C   0  0  0  0  0  0  0  0  0  0  0  0
  -19.1120  -29.9580   23.8840 C   0  0  0  0  0  3  0  0  0  0  0  0
  -17.7990  -30.4250   24.0670 C   0  0  0  0  0  3  0  0  0  0  0  0
  -16.7110  -29.6550   23.6190 C   0  0  0  0  0  3  0  0  0  0  0  0
  -16.9380  -28.4210   22.9830 C   0  0  0  0  0  3  0  0  0  0  0  0
  -26.0410  -32.4870   23.8830 C   0  0  0  0  0  3  0  0  0  0  0  0
  -26.5630  -31.6850   25.1390 C   0  0  1  0  0  0  0  0  0  0  0  0
  -25.4720  -31.4150   26.1990 C   0  0  0  0  0  1  0  0  0  0  0  0
  -27.1520  -30.3200   24.7100 C   0  0  0  0  0  1  0  0  0  0  0  0
  -27.7100  -32.4690   25.8200 C   0  0  0  0  0  1  0  0  0  0  0  0
  -25.7280  -33.8760   24.2430 N   0  0  0  0  0  0  0  0  0  0  0  0
  -26.0530  -34.9450   23.5030 C   0  0  0  0  0  0  0  0  0  0  0  0
  -26.7190  -34.8650   22.4680 O   0  0  0  0  0  0  0  0  0  0  0  0
  -25.1350  -34.0140   25.0490 H   0  0  0  0  0  0  0  0  0  0  0  0
  -24.3140  -36.7360   23.1980 C   0  0  0  0  0  1  0  0  0  0  0  0
  -25.5620  -36.3210   23.9930 C   0  0  0  0  0  3  0  0  0  0  0  0
  -27.6950  -37.2030   24.8290 C   0  0  0  0  0  1  0  0  0  0  0  0
  -26.5900  -37.3800   23.8920 N   0  0  0  0  0  0  0  0  0  0  0  0
  -26.1780  -38.2960   24.0550 H   0  0  0  0  0  0  0  0  0  0  0  0
  1  2  1  0
  1  7  2  0
  3  6  1  0
  3  4  1  0
  4  5  1  6
  4 54  1  0
  4  2  1  0
  6  1  1  0
  8 12  1  0
  8  6  1  0
  9 10  1  0
 11 13  1  0
 12  9  2  0
 13 24  1  0
 13 10  2  0
 14 11  2  0
 14 12  1  0
 15 14  1  0
 16 24  1  0
 17 22  1  0
 18 19  1  0
 18 17  1  0
 20 19  1  0
 20 29  1  0
 20 21  1  0
 22 16  1  0
 22 21  1  0
 23 16  2  0
 24 25  1  0
 26 27  2  0
 27 46  1  0
 28 27  1  0
 28 31  1  0
 29 30  1  0
 29 26  1  0
 30 28  2  0
 31 32  1  0
 32 33  2  0
 34 37  1  0
 34 33  1  0
 35 34  2  0
 36 35  1  0
 36 31  2  0
 37 38  1  0
 38 43  2  0
 38 39  1  0
 39 40  2  0
 40 41  1  0
 41 45  1  0
 42 41  2  0
 43 42  1  0
 44 43  1  0
 46 47  1  0
 47 50  1  0
 47 49  1  0
 48 46  2  0
 51 26  1  0
 51 52  1  0
 53 51  1  0
 55 57  1  0
 55 54  1  0
 56 67  2  0
 57 62  1  0
 58 66  1  0
 58 68  1  0
 59 65  1  0
 59 61  1  0
 60 66  1  0
 61 60  1  0
 62 61  2  0
 63 64  1  0
 63 57  2  0
 64 59  2  0
 65 58  1  0
 66 56  1  0
 68 70  2  0
 69 68  1  0
 71 69  1  0
 72 81  2  0
 72 77  1  0
 73 69  1  0
 73 77  1  0
 74 73  1  0
 75 76  1  0
 75 74  1  0
 76 72  1  0
 77 78  2  0
 78 79  1  0
 80 79  2  0
 81 80  1  0
 82 56  1  0
 82 87  1  0
 82 83  1  0
 83 86  1  1
 83 84  1  0
 85 83  1  0
 87 90  1  0
 88 92  1  0
 88 87  1  0
 89 88  2  0
 92 91  1  0
 94 92  1  0
 94 95  1  0
 94 93  1  0
M  ISO  4  16 100  24 100  54 101  55 101
M  END
>  <TORSDO>  (41) 
F 19

>  <SCORE>  (41) 
-13.247

>  <name>  (41) 
41

>  <ligand_id>  (41) 
41

>  <original_smiles>  (41) 
[H]c1c([H])c([H])c2c(c1[H])C([H])([H])C([H])([H])C([H])([H])C2([H])N([H])C(=O)C1([H])N(C(=O)C([H])(N([H])C(=O)C([H])(N([H])C([H])([H])[H])C([H])([H])[H])C(C([H])([H])[H])(C([H])([H])[H])C([H])([H])[H])C([H])([H])c2c([H])c(OC([H])([H])C3(C([H])([H])[H])C([H])([H])C(=O)N(C([H])([H])c4c([H])c([H])c(N([H])C(=O)N5C([H])([H])C([H])([H])C([H])([H])C([H])(n6nc(-c7c([H])c([H])c(Oc8c([H])c([H])c(F)c([H])c8F)c([H])c7[H])c(C(=O)N([H])[H])c6N([H])[H])C5([H])[H])c([H])c4F)C3([H])[H])c([H])c([H])c2C1([H])[H]

>  <smiles>  (41) 
[H]c1c([H])c([H])c2c(c1[H])C([H])([H])C([H])([H])C([H])([H])C2([H])N([H])C(=O)C1([H])N(C(=O)C([H])(N([H])C(=O)C([H])(N([H])C([H])([H])[H])C([H])([H])[H])C(C([H])([H])[H])(C([H])([H])[H])C([H])([H])[H])C([H])([H])c2c([H])c(OC([H])([H])C3(C([H])([H])[H])C([H])([H])C(=O)N(C([H])([H])c4c([H])c([H])c(N([H])C(=O)N5C([H])([H])C([H])([H])C([H])([H])C([H])(n6nc(-c7c([H])c([H])c(Oc8c([H])c([H])c(F)c([H])c8F)c([H])c7[H])c(C(=O)N([H])[H])c6N([H])[H])C5([H])[H])c([H])c4F)C3([H])[H])c([H])c([H])c2C1([H])[H]

$$$$
42:0:0
     RDKit          3D

 93102  0  0  1  0  0  0  0  0999 V2000
  -28.9310  -24.2880   20.8590 C   0  0  0  0  0  0  0  0  0  0  0  0
  -28.3860  -25.5390   20.9580 C   0  0  0  0  0  3  0  0  0  0  0  0
  -29.6920  -23.6940   19.6690 C   0  0  0  0  0  2  0  0  0  0  0  0
  -28.9180  -23.3480   22.0600 C   0  0  0  0  0  2  0  0  0  0  0  0
  -29.4760  -22.1520   19.4360 C   0  0  0  0  0  2  0  0  0  0  0  0
  -28.6010  -21.8770   21.7120 C   0  0  0  0  0  2  0  0  0  0  0  0
  -29.4850  -21.3450   20.6700 N   0  0  0  0  0  0  0  0  0  0  0  0
  -28.6270  -19.0440   21.0840 C   0  0  0  0  0  3  0  0  0  0  0  0
  -28.7870  -17.6380   21.0930 C   0  0  0  0  0  3  0  0  0  0  0  0
  -30.9650  -17.8650   20.0880 C   0  0  0  0  0  3  0  0  0  0  0  0
  -29.6330  -19.9160   20.5910 C   0  0  0  0  0  0  0  0  0  0  0  0
  -29.9590  -17.0110   20.6110 C   0  0  0  0  0  0  0  0  0  0  0  0
  -30.8060  -19.2840   20.0740 C   0  0  0  0  0  0  0  0  0  0  0  0
  -31.8200  -20.0420   19.5880 F   0  0  0  0  0  0  0  0  0  0  0  0
  -30.7700  -14.6130   20.0910 C   0  0  0  0  0  0  0  0  0  0  0  0
  -30.5120  -12.4380   18.9240 C   0  0  0  0  0  2  0  0  0  0  0  0
  -29.5000  -12.6350   17.7730 C   0  0  0  0  0  2  0  0  0  0  0  0
  -28.0480  -12.4720   18.2700 C   0  0  0  0  0  2  0  0  0  0  0  0
  -27.7660  -13.2750   19.5670 C   0  0  0  0  0  3  0  0  0  0  0  0
  -28.8780  -13.0250   20.6120 C   0  0  0  0  0  2  0  0  0  0  0  0
  -30.1650  -13.3910   19.9940 N   0  0  0  0  0  0  0  0  0  0  0  0
  -31.8710  -14.8460   19.5840 O   0  0  0  0  0  0  0  0  0  0  0  0
  -30.0040  -15.5640   20.6890 N   0  0  0  0  0  0  0  0  0  0  0  0
  -29.2020  -15.1530   21.1410 H   0  0  0  0  0  0  0  0  0  0  0  0
  -25.4060  -13.8630   20.4080 C   0  0  0  0  0  0  0  0  0  0  0  0
  -24.3560  -13.0810   20.8080 C   0  0  0  0  0  0  0  0  0  0  0  0
  -24.8140  -11.7300   20.7190 C   0  0  0  0  0  0  0  0  0  0  0  0
  -26.4380  -12.9880   20.1030 N   0  0  0  0  0  0  0  0  0  0  0  0
  -26.0860  -11.6990   20.3450 N   0  0  0  0  0  0  0  0  0  0  0  0
  -24.0970  -10.4640   20.9120 C   0  0  0  0  0  0  0  0  0  0  0  0
  -24.5200   -9.5150   21.8680 C   0  0  0  0  0  3  0  0  0  0  0  0
  -23.8040   -8.3110   22.0470 C   0  0  0  0  0  3  0  0  0  0  0  0
  -22.6510   -8.0490   21.2690 C   0  0  0  0  0  0  0  0  0  0  0  0
  -22.2460   -8.9870   20.3040 C   0  0  0  0  0  3  0  0  0  0  0  0
  -22.9640  -10.1810   20.1220 C   0  0  0  0  0  3  0  0  0  0  0  0
  -21.9080   -6.8960   21.3570 O   0  0  0  0  0  0  0  0  0  0  0  0
  -21.7630   -6.2210   22.5430 C   0  0  0  0  0  0  0  0  0  0  0  0
  -21.2170   -6.8370   23.6890 C   0  0  0  0  0  3  0  0  0  0  0  0
  -21.0210   -6.0870   24.8660 C   0  0  0  0  0  3  0  0  0  0  0  0
  -21.3620   -4.7220   24.8960 C   0  0  0  0  0  0  0  0  0  0  0  0
  -21.9000   -4.1050   23.7540 C   0  0  0  0  0  3  0  0  0  0  0  0
  -22.0980   -4.8520   22.5790 C   0  0  0  0  0  0  0  0  0  0  0  0
  -22.5990   -4.2470   21.4750 F   0  0  0  0  0  0  0  0  0  0  0  0
  -21.1660   -4.0000   26.0240 F   0  0  0  0  0  0  0  0  0  0  0  0
  -22.9740  -13.5500   21.1610 C   0  0  0  0  0  0  0  0  0  0  0  0
  -22.2930  -12.8360   22.0510 N   0  0  0  0  0  0  0  0  0  0  0  0
  -22.5090  -14.5840   20.6850 O   0  0  0  0  0  0  0  0  0  0  0  0
  -22.6820  -11.9990   22.4580 H   0  0  0  0  0  0  0  0  0  0  0  0
  -21.3680  -13.1320   22.3290 H   0  0  0  0  0  0  0  0  0  0  0  0
  -25.5610  -15.2380   20.2610 N   0  0  0  0  0  0  0  0  0  0  0  0
  -24.7940  -15.8810   20.4210 H   0  0  0  0  0  0  0  0  0  0  0  0
  -26.3800  -15.6880   19.8720 H   0  0  0  0  0  0  0  0  0  0  0  0
  -28.4150  -26.5830   20.0420 O   0  0  0  0  0  0  0  0  0  0  0  0
  -24.5970  -31.8430   23.1110 C   0  0  0  0  0  0  0  0  0  0  0  0
  -27.2930  -27.3970   20.0330 C   0  0  0  0  0  0  0  0  0  0  0  0
  -23.4120  -30.4230   21.4710 C   0  0  0  0  0  3  0  0  0  0  0  0
  -24.8860  -28.9060   20.0410 C   0  0  0  0  0  0  0  0  0  0  0  0
  -25.9360  -30.8090   21.2730 C   0  0  0  0  0  2  0  0  0  0  0  0
  -26.0430  -29.4360   20.6300 C   0  0  0  0  0  0  0  0  0  0  0  0
  -27.2520  -28.6900   20.6210 C   0  0  0  0  0  3  0  0  0  0  0  0
  -26.1190  -26.8950   19.4360 C   0  0  0  0  0  3  0  0  0  0  0  0
  -24.9220  -27.6360   19.4390 C   0  0  0  0  0  3  0  0  0  0  0  0
  -23.6310  -29.7500   20.0910 C   0  0  0  0  0  2  0  0  0  0  0  0
  -24.6670  -31.0420   22.0090 N   0  0  0  0  0  0  0  0  0  0  0  0
  -23.5110  -32.1010   23.6490 O   0  0  0  0  0  0  0  0  0  0  0  0
  -22.7730  -29.3940   22.4330 C   0  0  0  0  0  0  0  0  0  0  0  0
  -21.4460  -29.2130   22.3260 N   0  0  0  0  0  0  0  0  0  0  0  0
  -23.4690  -28.7630   23.2320 O   0  0  0  0  0  0  0  0  0  0  0  0
  -20.9450  -29.7750   21.6500 H   0  0  0  0  0  0  0  0  0  0  0  0
  -18.0790  -28.0190   22.8770 C   0  0  0  0  0  0  0  0  0  0  0  0
  -20.6410  -28.2680   23.1010 C   0  0  0  0  0  3  0  0  0  0  0  0
  -20.7280  -26.8440   22.5030 C   0  0  0  0  0  2  0  0  0  0  0  0
  -19.6040  -26.5380   21.5080 C   0  0  0  0  0  2  0  0  0  0  0  0
  -18.2370  -26.6780   22.1810 C   0  0  0  0  0  2  0  0  0  0  0  0
  -19.2070  -28.7730   23.2950 C   0  0  0  0  0  0  0  0  0  0  0  0
  -19.0020  -30.0290   23.9060 C   0  0  0  0  0  3  0  0  0  0  0  0
  -17.7020  -30.5300   24.1040 C   0  0  0  0  0  3  0  0  0  0  0  0
  -16.5880  -29.7730   23.7020 C   0  0  0  0  0  3  0  0  0  0  0  0
  -16.7770  -28.5190   23.0940 C   0  0  0  0  0  3  0  0  0  0  0  0
  -25.8720  -32.4930   23.7310 C   0  0  0  0  0  3  0  0  0  0  0  0
  -25.5360  -33.8790   24.0850 N   0  0  0  0  0  0  0  0  0  0  0  0
  -25.8410  -34.9490   23.3390 C   0  0  0  0  0  0  0  0  0  0  0  0
  -26.5060  -34.8750   22.3010 O   0  0  0  0  0  0  0  0  0  0  0  0
  -24.9390  -34.0080   24.8880 H   0  0  0  0  0  0  0  0  0  0  0  0
  -24.0760  -36.7120   23.0190 C   0  0  0  0  0  1  0  0  0  0  0  0
  -25.3280  -36.3200   23.8200 C   0  0  0  0  0  3  0  0  0  0  0  0
  -27.4470  -37.2340   24.6600 C   0  0  0  0  0  1  0  0  0  0  0  0
  -26.3390  -37.3950   23.7220 N   0  0  0  0  0  0  0  0  0  0  0  0
  -25.9140  -38.3040   23.8860 H   0  0  0  0  0  0  0  0  0  0  0  0
  -26.4190  -31.7140   24.9900 C   0  0  1  0  0  0  0  0  0  0  0  0
  -25.3430  -31.4370   26.0670 C   0  0  0  0  0  1  0  0  0  0  0  0
  -27.0270  -30.3550   24.5710 C   0  0  0  0  0  1  0  0  0  0  0  0
  -27.5610  -32.5220   25.6510 C   0  0  0  0  0  1  0  0  0  0  0  0
  1  2  2  0
  1  4  1  0
  3  1  1  0
  5  3  1  0
  5  7  1  0
  6  4  1  0
  7  6  1  0
  8  9  1  0
 10 12  1  0
 11  7  1  0
 11  8  2  0
 12 23  1  0
 12  9  2  0
 13 10  2  0
 13 11  1  0
 14 13  1  0
 15 23  1  0
 16 21  1  0
 17 18  1  0
 17 16  1  0
 19 18  1  0
 19 28  1  0
 19 20  1  0
 21 15  1  0
 21 20  1  0
 22 15  2  0
 23 24  1  0
 25 26  2  0
 26 45  1  0
 27 26  1  0
 27 30  1  0
 28 29  1  0
 28 25  1  0
 29 27  2  0
 30 31  1  0
 31 32  2  0
 33 36  1  0
 33 32  1  0
 34 33  2  0
 35 34  1  0
 35 30  2  0
 36 37  1  0
 37 42  2  0
 37 38  1  0
 38 39  2  0
 39 40  1  0
 40 44  1  0
 41 40  2  0
 42 41  1  0
 43 42  1  0
 45 46  1  0
 46 49  1  0
 46 48  1  0
 47 45  2  0
 50 25  1  0
 50 51  1  0
 52 50  1  0
 53  2  1  0
 54 65  2  0
 55 53  1  0
 55 60  1  0
 56 64  1  0
 56 66  1  0
 57 63  1  0
 57 59  1  0
 58 64  1  0
 59 58  1  0
 60 59  2  0
 61 62  1  0
 61 55  2  0
 62 57  2  0
 63 56  1  0
 64 54  1  0
 66 68  2  0
 67 66  1  0
 69 67  1  0
 70 79  2  0
 70 75  1  0
 71 67  1  0
 71 75  1  0
 72 71  1  0
 73 74  1  0
 73 72  1  0
 74 70  1  0
 75 76  2  0
 76 77  1  0
 78 77  2  0
 79 78  1  0
 80 54  1  0
 80 81  1  0
 80 90  1  0
 81 84  1  0
 82 86  1  0
 82 81  1  0
 83 82  2  0
 86 85  1  0
 88 86  1  0
 88 89  1  0
 88 87  1  0
 90 93  1  1
 90 91  1  0
 92 90  1  0
M  ISO  4   2 101  15 100  23 100  53 101
M  END
>  <TORSDO>  (42) 
F 17

>  <SCORE>  (42) 
-14.333

>  <name>  (42) 
42

>  <ligand_id>  (42) 
42

>  <original_smiles>  (42) 
[H]C(Oc1c([H])c([H])c2c(c1[H])C([H])([H])N(C(=O)C([H])(N([H])C(=O)C([H])(N([H])C([H])([H])[H])C([H])([H])[H])C(C([H])([H])[H])(C([H])([H])[H])C([H])([H])[H])C([H])(C(=O)N([H])C1([H])c3c([H])c([H])c([H])c([H])c3C([H])([H])C([H])([H])C1([H])[H])C2([H])[H])=C1C([H])([H])C([H])([H])N(c2c([H])c([H])c(N([H])C(=O)N3C([H])([H])C([H])([H])C([H])([H])C([H])(n4nc(-c5c([H])c([H])c(Oc6c([H])c([H])c(F)c([H])c6F)c([H])c5[H])c(C(=O)N([H])[H])c4N([H])[H])C3([H])[H])c([H])c2F)C([H])([H])C1([H])[H]

>  <smiles>  (42) 
[H]C(Oc1c([H])c([H])c2c(c1[H])C([H])([H])N(C(=O)C([H])(N([H])C(=O)C([H])(N([H])C([H])([H])[H])C([H])([H])[H])C(C([H])([H])[H])(C([H])([H])[H])C([H])([H])[H])C([H])(C(=O)N([H])C1([H])c3c([H])c([H])c([H])c([H])c3C([H])([H])C([H])([H])C1([H])[H])C2([H])[H])=C1C([H])([H])C([H])([H])N(c2c([H])c([H])c(N([H])C(=O)N3C([H])([H])C([H])([H])C([H])([H])C([H])(n4nc(-c5c([H])c([H])c(Oc6c([H])c([H])c(F)c([H])c6F)c([H])c5[H])c(C(=O)N([H])[H])c4N([H])[H])C3([H])[H])c([H])c2F)C([H])([H])C1([H])[H]

$$$$
43:0:0
     RDKit          3D

 94102  0  0  1  0  0  0  0  0999 V2000
  -28.7840  -20.2570   18.8590 C   0  0  0  0  0  3  0  0  0  0  0  0
  -29.4160  -20.8060   21.1040 C   0  0  0  0  0  3  0  0  0  0  0  0
  -29.8130  -18.4720   20.2620 C   0  0  0  0  0  0  0  0  0  0  0  0
  -29.2480  -18.9120   19.0210 C   0  0  0  0  0  0  0  0  0  0  0  0
  -28.8950  -21.2520   19.8670 C   0  0  0  0  0  0  0  0  0  0  0  0
  -29.8540  -19.4590   21.2980 C   0  0  0  0  0  0  0  0  0  0  0  0
  -29.1980  -17.9970   17.8050 C   0  0  0  0  0  1  0  0  0  0  0  0
  -30.3670  -19.1320   22.5110 F   0  0  0  0  0  0  0  0  0  0  0  0
  -30.8210  -14.7250   20.0030 C   0  0  0  0  0  0  0  0  0  0  0  0
  -30.4800  -12.5040   18.9390 C   0  0  0  0  0  2  0  0  0  0  0  0
  -29.4800  -12.6440   17.7730 C   0  0  0  0  0  2  0  0  0  0  0  0
  -28.0320  -12.4960   18.2820 C   0  0  0  0  0  2  0  0  0  0  0  0
  -27.7470  -13.3480   19.5500 C   0  0  0  0  0  3  0  0  0  0  0  0
  -28.8690  -13.2180   20.6010 C   0  0  0  0  0  2  0  0  0  0  0  0
  -30.1290  -13.5440   19.9260 N   0  0  0  0  0  0  0  0  0  0  0  0
  -32.0070  -14.7450   19.6610 O   0  0  0  0  0  0  0  0  0  0  0  0
  -30.6200  -17.1570   20.4180 C   0  0  0  0  0  0  0  0  0  0  0  0
  -30.1050  -15.8930   20.1990 N   0  0  0  0  0  0  0  0  0  0  0  0
  -31.8000  -17.3140   20.7510 O   0  0  0  0  0  0  0  0  0  0  0  0
  -29.1030  -15.8270   20.1470 H   0  0  0  0  0  0  0  0  0  0  0  0
  -25.4210  -13.9380   20.4540 C   0  0  0  0  0  0  0  0  0  0  0  0
  -24.3730  -13.1610   20.8660 C   0  0  0  0  0  0  0  0  0  0  0  0
  -24.8180  -11.8090   20.7620 C   0  0  0  0  0  0  0  0  0  0  0  0
  -26.4360  -13.0580   20.1190 N   0  0  0  0  0  0  0  0  0  0  0  0
  -26.0860  -11.7690   20.3680 N   0  0  0  0  0  0  0  0  0  0  0  0
  -24.0900  -10.5470   20.9530 C   0  0  0  0  0  0  0  0  0  0  0  0
  -24.5420   -9.5650   21.8620 C   0  0  0  0  0  3  0  0  0  0  0  0
  -23.8150   -8.3690   22.0430 C   0  0  0  0  0  3  0  0  0  0  0  0
  -22.6210   -8.1480   21.3150 C   0  0  0  0  0  0  0  0  0  0  0  0
  -22.1880   -9.1180   20.3940 C   0  0  0  0  0  3  0  0  0  0  0  0
  -22.9170  -10.3050   20.2110 C   0  0  0  0  0  3  0  0  0  0  0  0
  -21.8610   -7.0070   21.4090 O   0  0  0  0  0  0  0  0  0  0  0  0
  -21.7970   -6.2770   22.5690 C   0  0  0  0  0  0  0  0  0  0  0  0
  -21.3400   -6.8420   23.7800 C   0  0  0  0  0  3  0  0  0  0  0  0
  -21.2240   -6.0380   24.9310 C   0  0  0  0  0  3  0  0  0  0  0  0
  -21.5530   -4.6700   24.8730 C   0  0  0  0  0  0  0  0  0  0  0  0
  -22.0010   -4.1040   23.6660 C   0  0  0  0  0  3  0  0  0  0  0  0
  -22.1190   -4.9060   22.5170 C   0  0  0  0  0  0  0  0  0  0  0  0
  -22.5330   -4.3520   21.3520 F   0  0  0  0  0  0  0  0  0  0  0  0
  -21.4330   -3.8960   25.9760 F   0  0  0  0  0  0  0  0  0  0  0  0
  -23.0010  -13.6430   21.2380 C   0  0  0  0  0  0  0  0  0  0  0  0
  -22.3260  -12.9290   22.1310 N   0  0  0  0  0  0  0  0  0  0  0  0
  -22.5440  -14.6850   20.7720 O   0  0  0  0  0  0  0  0  0  0  0  0
  -22.7140  -12.0850   22.5250 H   0  0  0  0  0  0  0  0  0  0  0  0
  -21.4070  -13.2260   22.4240 H   0  0  0  0  0  0  0  0  0  0  0  0
  -25.5870  -15.3120   20.3120 N   0  0  0  0  0  0  0  0  0  0  0  0
  -24.8240  -15.9590   20.4870 H   0  0  0  0  0  0  0  0  0  0  0  0
  -26.3950  -15.7600   19.9060 H   0  0  0  0  0  0  0  0  0  0  0  0
  -28.4720  -22.5950   19.5900 N   0  0  0  0  0  0  0  0  0  0  0  0
  -27.9510  -22.7360   18.7280 H   0  0  0  0  0  0  0  0  0  0  0  0
  -28.8630  -23.8650   20.2870 C   0  0  0  0  0  2  0  0  0  0  0  0
  -29.6430  -25.3680   18.3460 C   0  0  0  0  0  1  0  0  0  0  0  0
  -28.5800  -25.1870   19.4340 C   0  0  0  0  0  3  0  0  0  0  0  0
  -28.5130  -26.5100   20.1150 O   0  0  0  0  0  0  0  0  0  0  0  0
  -24.6640  -31.8190   23.1520 C   0  0  0  0  0  0  0  0  0  0  0  0
  -27.3800  -27.3430   20.0510 C   0  0  0  0  0  0  0  0  0  0  0  0
  -23.5130  -30.4370   21.4640 C   0  0  0  0  0  3  0  0  0  0  0  0
  -25.0070  -28.9430   20.0400 C   0  0  0  0  0  0  0  0  0  0  0  0
  -26.0530  -30.7910   21.3380 C   0  0  0  0  0  2  0  0  0  0  0  0
  -26.1610  -29.4270   20.6670 C   0  0  0  0  0  0  0  0  0  0  0  0
  -27.3490  -28.6360   20.6670 C   0  0  0  0  0  3  0  0  0  0  0  0
  -26.1890  -26.9220   19.4130 C   0  0  0  0  0  3  0  0  0  0  0  0
  -25.0220  -27.6980   19.4100 C   0  0  0  0  0  3  0  0  0  0  0  0
  -23.7630  -29.8020   20.0760 C   0  0  0  0  0  2  0  0  0  0  0  0
  -24.7610  -31.0320   22.0420 N   0  0  0  0  0  0  0  0  0  0  0  0
  -23.5660  -32.0720   23.6690 O   0  0  0  0  0  0  0  0  0  0  0  0
  -22.8510  -29.3870   22.3900 C   0  0  0  0  0  0  0  0  0  0  0  0
  -21.5270  -29.2050   22.2470 N   0  0  0  0  0  0  0  0  0  0  0  0
  -23.5270  -28.7430   23.1970 O   0  0  0  0  0  0  0  0  0  0  0  0
  -21.0380  -29.7790   21.5740 H   0  0  0  0  0  0  0  0  0  0  0  0
  -18.1480  -27.9970   22.7110 C   0  0  0  0  0  0  0  0  0  0  0  0
  -20.7070  -28.2440   22.9880 C   0  0  0  0  0  3  0  0  0  0  0  0
  -20.8070  -26.8290   22.3720 C   0  0  0  0  0  2  0  0  0  0  0  0
  -19.7040  -26.5380   21.3500 C   0  0  0  0  0  2  0  0  0  0  0  0
  -18.3220  -26.6690   21.9940 C   0  0  0  0  0  2  0  0  0  0  0  0
  -19.2690  -28.7440   23.1640 C   0  0  0  0  0  0  0  0  0  0  0  0
  -19.0530  -29.9880   23.7950 C   0  0  0  0  0  3  0  0  0  0  0  0
  -17.7500  -30.4880   23.9760 C   0  0  0  0  0  3  0  0  0  0  0  0
  -16.6440  -29.7380   23.5400 C   0  0  0  0  0  3  0  0  0  0  0  0
  -16.8440  -28.4940   22.9130 C   0  0  0  0  0  3  0  0  0  0  0  0
  -25.9240  -32.4630   23.8090 C   0  0  0  0  0  3  0  0  0  0  0  0
  -26.4200  -31.6840   25.0890 C   0  0  1  0  0  0  0  0  0  0  0  0
  -25.3060  -31.4230   26.1280 C   0  0  0  0  0  1  0  0  0  0  0  0
  -27.0290  -30.3170   24.7000 C   0  0  0  0  0  1  0  0  0  0  0  0
  -27.5430  -32.4880   25.7850 C   0  0  0  0  0  1  0  0  0  0  0  0
  -25.5860  -33.8520   24.1490 N   0  0  0  0  0  0  0  0  0  0  0  0
  -25.9040  -34.9210   23.4040 C   0  0  0  0  0  0  0  0  0  0  0  0
  -26.5870  -34.8410   22.3800 O   0  0  0  0  0  0  0  0  0  0  0  0
  -24.9900  -33.9910   24.9510 H   0  0  0  0  0  0  0  0  0  0  0  0
  -24.1510  -36.6890   23.0440 C   0  0  0  0  0  1  0  0  0  0  0  0
  -25.3850  -36.2950   23.8710 C   0  0  0  0  0  3  0  0  0  0  0  0
  -27.4850  -37.2080   24.7470 C   0  0  0  0  0  1  0  0  0  0  0  0
  -26.3950  -37.3690   23.7890 N   0  0  0  0  0  0  0  0  0  0  0  0
  -25.9690  -38.2770   23.9500 H   0  0  0  0  0  0  0  0  0  0  0  0
  1  4  2  0
  1  5  1  0
  2  6  1  0
  3 17  1  0
  3  6  2  0
  4  3  1  0
  5  2  2  0
  6  8  1  0
  7  4  1  0
  9 18  1  0
 10 15  1  0
 11 12  1  0
 11 10  1  0
 13 12  1  0
 13 24  1  0
 13 14  1  0
 15  9  1  0
 15 14  1  0
 16  9  2  0
 17 19  2  0
 18 17  1  0
 20 18  1  0
 21 22  2  0
 22 41  1  0
 23 22  1  0
 23 26  1  0
 24 25  1  0
 24 21  1  0
 25 23  2  0
 26 27  1  0
 27 28  2  0
 29 32  1  0
 29 28  1  0
 30 29  2  0
 31 30  1  0
 31 26  2  0
 32 33  1  0
 33 34  1  0
 34 35  2  0
 36 35  1  0
 36 40  1  0
 37 36  2  0
 38 33  2  0
 38 37  1  0
 39 38  1  0
 41 42  1  0
 42 45  1  0
 42 44  1  0
 43 41  2  0
 46 21  1  0
 46 47  1  0
 48 46  1  0
 49  5  1  0
 49 51  1  0
 50 49  1  0
 53 52  1  0
 53 54  1  0
 53 51  1  0
 55 66  2  0
 56 54  1  0
 56 61  1  0
 57 65  1  0
 57 67  1  0
 58 64  1  0
 58 60  1  0
 59 65  1  0
 60 61  2  0
 60 59  1  0
 62 56  2  0
 63 62  1  0
 63 58  2  0
 64 57  1  0
 65 55  1  0
 67 69  2  0
 68 67  1  0
 70 68  1  0
 71 80  2  0
 71 76  1  0
 72 68  1  0
 72 76  1  0
 73 72  1  0
 74 75  1  0
 74 73  1  0
 75 71  1  0
 76 77  2  0
 77 78  1  0
 79 78  2  0
 80 79  1  0
 81 55  1  0
 81 86  1  0
 81 82  1  0
 82 85  1  1
 82 83  1  0
 84 82  1  0
 86 89  1  0
 87 91  1  0
 87 86  1  0
 88 87  2  0
 91 90  1  0
 93 91  1  0
 93 94  1  0
 93 92  1  0
M  ISO  4   9 100  18 100  53 101  54 101
M  END
>  <TORSDO>  (43) 
F 19

>  <SCORE>  (43) 
-13.859

>  <name>  (43) 
43

>  <ligand_id>  (43) 
43

>  <original_smiles>  (43) 
[H]c1c([H])c([H])c2c(c1[H])C([H])([H])C([H])([H])C([H])([H])C2([H])N([H])C(=O)C1([H])N(C(=O)C([H])(N([H])C(=O)C([H])(N([H])C([H])([H])[H])C([H])([H])[H])C(C([H])([H])[H])(C([H])([H])[H])C([H])([H])[H])C([H])([H])c2c([H])c(OC([H])(C([H])([H])[H])C([H])([H])N([H])c3c([H])c(F)c(C(=O)N([H])C(=O)N4C([H])([H])C([H])([H])C([H])([H])C([H])(n5nc(-c6c([H])c([H])c(Oc7c([H])c([H])c(F)c([H])c7F)c([H])c6[H])c(C(=O)N([H])[H])c5N([H])[H])C4([H])[H])c(C([H])([H])[H])c3[H])c([H])c([H])c2C1([H])[H]

>  <smiles>  (43) 
[H]c1c([H])c([H])c2c(c1[H])C([H])([H])C([H])([H])C([H])([H])C2([H])N([H])C(=O)C1([H])N(C(=O)C([H])(N([H])C(=O)C([H])(N([H])C([H])([H])[H])C([H])([H])[H])C(C([H])([H])[H])(C([H])([H])[H])C([H])([H])[H])C([H])([H])c2c([H])c(OC([H])(C([H])([H])[H])C([H])([H])N([H])c3c([H])c(F)c(C(=O)N([H])C(=O)N4C([H])([H])C([H])([H])C([H])([H])C([H])(n5nc(-c6c([H])c([H])c(Oc7c([H])c([H])c(F)c([H])c7F)c([H])c6[H])c(C(=O)N([H])[H])c5N([H])[H])C4([H])[H])c(C([H])([H])[H])c3[H])c([H])c([H])c2C1([H])[H]

$$$$
44:0:0
     RDKit          3D

 95104  0  0  1  0  0  0  0  0999 V2000
  -30.9560  -18.1430   20.5620 C   0  0  0  0  0  3  0  0  0  0  0  0
  -28.5740  -18.0140   20.3840 C   0  0  0  0  0  3  0  0  0  0  0  0
  -29.6090  -20.2880   20.5400 C   0  0  0  0  0  0  0  0  0  0  0  0
  -29.8060  -17.3020   20.4870 C   0  0  0  0  0  0  0  0  0  0  0  0
  -30.8560  -19.5830   20.5970 C   0  0  0  0  0  0  0  0  0  0  0  0
  -28.4680  -19.4430   20.4020 C   0  0  0  0  0  0  0  0  0  0  0  0
  -27.2320  -19.9990   20.3500 F   0  0  0  0  0  0  0  0  0  0  0  0
  -30.6240  -14.7630   20.3200 C   0  0  0  0  0  0  0  0  0  0  0  0
  -30.4660  -12.4790   19.3080 C   0  0  0  0  0  2  0  0  0  0  0  0
  -29.5340  -12.5560   18.0750 C   0  0  0  0  0  2  0  0  0  0  0  0
  -28.0550  -12.4040   18.4850 C   0  0  0  0  0  2  0  0  0  0  0  0
  -27.6770  -13.2990   19.6930 C   0  0  0  0  0  3  0  0  0  0  0  0
  -28.7180  -13.1730   20.8290 C   0  0  0  0  0  2  0  0  0  0  0  0
  -30.0310  -13.5210   20.2630 N   0  0  0  0  0  0  0  0  0  0  0  0
  -31.8040  -14.9140   19.9860 O   0  0  0  0  0  0  0  0  0  0  0  0
  -29.7650  -15.8180   20.5710 N   0  0  0  0  0  0  0  0  0  0  0  0
  -28.8450  -15.4610   20.7820 H   0  0  0  0  0  0  0  0  0  0  0  0
  -25.2810  -13.9370   20.3590 C   0  0  0  0  0  0  0  0  0  0  0  0
  -24.2010  -13.1840   20.7310 C   0  0  0  0  0  0  0  0  0  0  0  0
  -24.6480  -11.8280   20.7380 C   0  0  0  0  0  0  0  0  0  0  0  0
  -26.3190  -13.0400   20.1620 N   0  0  0  0  0  0  0  0  0  0  0  0
  -25.9440  -11.7680   20.4520 N   0  0  0  0  0  0  0  0  0  0  0  0
  -23.9060  -10.5780   20.9420 C   0  0  0  0  0  0  0  0  0  0  0  0
  -24.3210   -9.6190   21.8930 C   0  0  0  0  0  3  0  0  0  0  0  0
  -23.5800   -8.4340   22.0840 C   0  0  0  0  0  3  0  0  0  0  0  0
  -22.4090   -8.1980   21.3240 C   0  0  0  0  0  0  0  0  0  0  0  0
  -22.0140   -9.1440   20.3640 C   0  0  0  0  0  3  0  0  0  0  0  0
  -22.7550  -10.3220   20.1700 C   0  0  0  0  0  3  0  0  0  0  0  0
  -21.6410   -7.0630   21.4250 O   0  0  0  0  0  0  0  0  0  0  0  0
  -21.5880   -6.3290   22.5830 C   0  0  0  0  0  0  0  0  0  0  0  0
  -21.1840   -6.9020   23.8090 C   0  0  0  0  0  3  0  0  0  0  0  0
  -21.0770   -6.0950   24.9600 C   0  0  0  0  0  3  0  0  0  0  0  0
  -21.3640   -4.7190   24.8860 C   0  0  0  0  0  0  0  0  0  0  0  0
  -21.7600   -4.1470   23.6650 C   0  0  0  0  0  3  0  0  0  0  0  0
  -21.8690   -4.9500   22.5150 C   0  0  0  0  0  0  0  0  0  0  0  0
  -22.2310   -4.3890   21.3360 F   0  0  0  0  0  0  0  0  0  0  0  0
  -21.2530   -3.9430   25.9890 F   0  0  0  0  0  0  0  0  0  0  0  0
  -22.8030  -13.6820   20.9660 C   0  0  0  0  0  0  0  0  0  0  0  0
  -22.0530  -13.0150   21.8370 N   0  0  0  0  0  0  0  0  0  0  0  0
  -22.3840  -14.6970   20.4110 O   0  0  0  0  0  0  0  0  0  0  0  0
  -22.4040  -12.1950   22.3090 H   0  0  0  0  0  0  0  0  0  0  0  0
  -21.1150  -13.3320   22.0370 H   0  0  0  0  0  0  0  0  0  0  0  0
  -25.4600  -15.3010   20.1460 N   0  0  0  0  0  0  0  0  0  0  0  0
  -24.6810  -15.9490   20.1940 H   0  0  0  0  0  0  0  0  0  0  0  0
  -26.2760  -15.6980   19.7020 H   0  0  0  0  0  0  0  0  0  0  0  0
  -28.7490  -24.0850   21.0140 C   0  0  0  0  0  0  0  0  0  0  0  0
  -28.4450  -25.4430   20.9320 C   0  0  0  0  0  3  0  0  0  0  0  0
  -28.8430  -23.4590   22.3900 C   0  0  0  0  0  2  0  0  0  0  0  0
  -29.0840  -22.9000   20.0370 C   0  0  0  0  0  2  0  0  0  0  0  0
  -29.0640  -21.9490   22.2170 C   0  0  0  0  0  2  0  0  0  0  0  0
  -29.5290  -21.7130   20.8550 N   0  0  0  0  0  0  0  0  0  0  0  0
  -28.3630  -26.4020   19.9050 O   0  0  0  0  0  0  0  0  0  0  0  0
  -24.5710  -31.7750   23.0420 C   0  0  0  0  0  0  0  0  0  0  0  0
  -27.2720  -27.2930   19.9300 C   0  0  0  0  0  0  0  0  0  0  0  0
  -23.3990  -30.3820   21.3740 C   0  0  0  0  0  3  0  0  0  0  0  0
  -24.8840  -28.8730   19.9330 C   0  0  0  0  0  0  0  0  0  0  0  0
  -25.9350  -30.7410   21.2100 C   0  0  0  0  0  2  0  0  0  0  0  0
  -26.0440  -29.3700   20.5460 C   0  0  0  0  0  0  0  0  0  0  0  0
  -27.2450  -28.5900   20.5380 C   0  0  0  0  0  3  0  0  0  0  0  0
  -26.0930  -26.8530   19.3000 C   0  0  0  0  0  3  0  0  0  0  0  0
  -24.9120  -27.6200   19.3010 C   0  0  0  0  0  3  0  0  0  0  0  0
  -23.6330  -29.7290   19.9860 C   0  0  0  0  0  2  0  0  0  0  0  0
  -24.6530  -30.9840   21.9320 N   0  0  0  0  0  0  0  0  0  0  0  0
  -23.4810  -32.0260   23.5760 O   0  0  0  0  0  0  0  0  0  0  0  0
  -22.7470  -29.3410   22.3180 C   0  0  0  0  0  0  0  0  0  0  0  0
  -21.4200  -29.1640   22.2020 N   0  0  0  0  0  0  0  0  0  0  0  0
  -23.4360  -28.6960   23.1130 O   0  0  0  0  0  0  0  0  0  0  0  0
  -20.9220  -29.7370   21.5350 H   0  0  0  0  0  0  0  0  0  0  0  0
  -18.0480  -27.9620   22.7260 C   0  0  0  0  0  0  0  0  0  0  0  0
  -20.6110  -28.2070   22.9580 C   0  0  0  0  0  3  0  0  0  0  0  0
  -20.6990  -26.7920   22.3380 C   0  0  0  0  0  2  0  0  0  0  0  0
  -19.5770  -26.5040   21.3340 C   0  0  0  0  0  2  0  0  0  0  0  0
  -18.2080  -26.6330   22.0060 C   0  0  0  0  0  2  0  0  0  0  0  0
  -19.1760  -28.7070   23.1590 C   0  0  0  0  0  0  0  0  0  0  0  0
  -18.9720  -29.9520   23.7940 C   0  0  0  0  0  3  0  0  0  0  0  0
  -17.6710  -30.4500   24.0000 C   0  0  0  0  0  3  0  0  0  0  0  0
  -16.5580  -29.7000   23.5820 C   0  0  0  0  0  3  0  0  0  0  0  0
  -16.7470  -28.4580   22.9520 C   0  0  0  0  0  3  0  0  0  0  0  0
  -25.8400  -32.4200   23.6800 C   0  0  0  0  0  3  0  0  0  0  0  0
  -25.4960  -33.7980   24.0570 N   0  0  0  0  0  0  0  0  0  0  0  0
  -25.8030  -34.8850   23.3350 C   0  0  0  0  0  0  0  0  0  0  0  0
  -26.4730  -34.8330   22.3000 O   0  0  0  0  0  0  0  0  0  0  0  0
  -24.8990  -33.9110   24.8630 H   0  0  0  0  0  0  0  0  0  0  0  0
  -24.0360  -36.6520   23.0420 C   0  0  0  0  0  1  0  0  0  0  0  0
  -25.2850  -36.2450   23.8410 C   0  0  0  0  0  3  0  0  0  0  0  0
  -27.3980  -37.1470   24.7080 C   0  0  0  0  0  1  0  0  0  0  0  0
  -26.2940  -37.3240   23.7680 N   0  0  0  0  0  0  0  0  0  0  0  0
  -25.8670  -38.2300   23.9460 H   0  0  0  0  0  0  0  0  0  0  0  0
  -26.3810  -31.6210   24.9290 C   0  0  1  0  0  0  0  0  0  0  0  0
  -25.2990  -31.3270   25.9950 C   0  0  0  0  0  1  0  0  0  0  0  0
  -26.9920  -30.2700   24.4940 C   0  0  0  0  0  1  0  0  0  0  0  0
  -27.5170  -32.4200   25.6100 C   0  0  0  0  0  1  0  0  0  0  0  0
  -32.0170  -20.3440   20.7530 N   0  0  0  0  0  0  0  0  0  0  0  0
  -32.7580  -19.9440   21.3170 H   0  0  0  0  0  0  0  0  0  0  0  0
  -31.8050  -21.3040   21.0160 H   0  0  0  0  0  0  0  0  0  0  0  0
  1  5  1  0
  2  6  2  0
  2  4  1  0
  3  5  2  0
  3 51  1  0
  4  1  2  0
  4 16  1  0
  5 93  1  0
  6  3  1  0
  7  6  1  0
  8 16  1  0
  9 14  1  0
 10 11  1  0
 10  9  1  0
 12 11  1  0
 12 21  1  0
 12 13  1  0
 14  8  1  0
 14 13  1  0
 15  8  2  0
 16 17  1  0
 18 19  2  0
 19 20  1  0
 19 38  1  0
 20 23  1  0
 21 18  1  0
 21 22  1  0
 22 20  2  0
 23 24  1  0
 24 25  2  0
 26 29  1  0
 26 25  1  0
 27 26  2  0
 28 27  1  0
 28 23  2  0
 29 30  1  0
 30 31  1  0
 31 32  2  0
 33 32  1  0
 33 37  1  0
 34 33  2  0
 35 30  2  0
 35 34  1  0
 36 35  1  0
 38 39  1  0
 39 42  1  0
 39 41  1  0
 40 38  2  0
 43 44  1  0
 43 18  1  0
 45 43  1  0
 46 48  1  0
 47 46  2  0
 49 51  1  0
 49 46  1  0
 50 48  1  0
 51 50  1  0
 52 54  1  0
 52 47  1  0
 53 64  2  0
 54 59  1  0
 55 63  1  0
 55 65  1  0
 56 62  1  0
 56 58  1  0
 57 63  1  0
 58 57  1  0
 59 58  2  0
 60 61  1  0
 60 54  2  0
 61 56  2  0
 62 55  1  0
 63 53  1  0
 65 67  2  0
 66 65  1  0
 68 66  1  0
 69 78  2  0
 69 74  1  0
 70 66  1  0
 70 74  1  0
 71 70  1  0
 72 73  1  0
 72 71  1  0
 73 69  1  0
 74 75  2  0
 75 76  1  0
 77 76  2  0
 78 77  1  0
 79 53  1  0
 79 80  1  0
 79 89  1  0
 80 83  1  0
 81 85  1  0
 81 80  1  0
 82 81  2  0
 85 84  1  0
 87 85  1  0
 87 88  1  0
 87 86  1  0
 89 92  1  1
 89 90  1  0
 91 89  1  0
 93 95  1  0
 93 94  1  0
M  ISO  4   8 100  16 100  47 101  52 101
M  END
>  <TORSDO>  (44) 
F 18

>  <SCORE>  (44) 
-14.818

>  <name>  (44) 
44

>  <ligand_id>  (44) 
44

>  <original_smiles>  (44) 
[H]C(Oc1c([H])c([H])c2c(c1[H])C([H])([H])N(C(=O)C([H])(N([H])C(=O)C([H])(N([H])C([H])([H])[H])C([H])([H])[H])C(C([H])([H])[H])(C([H])([H])[H])C([H])([H])[H])C([H])(C(=O)N([H])C1([H])c3c([H])c([H])c([H])c([H])c3C([H])([H])C([H])([H])C1([H])[H])C2([H])[H])=C1C([H])([H])N(c2c(F)c([H])c(N([H])C(=O)N3C([H])([H])C([H])([H])C([H])([H])C([H])(n4nc(-c5c([H])c([H])c(Oc6c([H])c([H])c(F)c([H])c6F)c([H])c5[H])c(C(=O)N([H])[H])c4N([H])[H])C3([H])[H])c([H])c2N([H])[H])C([H])([H])C1([H])[H]

>  <smiles>  (44) 
[H]C(Oc1c([H])c([H])c2c(c1[H])C([H])([H])N(C(=O)C([H])(N([H])C(=O)C([H])(N([H])C([H])([H])[H])C([H])([H])[H])C(C([H])([H])[H])(C([H])([H])[H])C([H])([H])[H])C([H])(C(=O)N([H])C1([H])c3c([H])c([H])c([H])c([H])c3C([H])([H])C([H])([H])C1([H])[H])C2([H])[H])=C1C([H])([H])N(c2c(F)c([H])c(N([H])C(=O)N3C([H])([H])C([H])([H])C([H])([H])C([H])(n4nc(-c5c([H])c([H])c(Oc6c([H])c([H])c(F)c([H])c6F)c([H])c5[H])c(C(=O)N([H])[H])c4N([H])[H])C3([H])[H])c([H])c2N([H])[H])C([H])([H])C1([H])[H]

$$$$
45:0:0
     RDKit          3D

 95104  0  0  1  0  0  0  0  0999 V2000
  -28.8640  -22.6440   19.6490 C   0  0  0  0  0  0  0  0  0  0  0  0
  -28.1260  -20.5190   18.5250 C   0  0  0  0  0  0  0  0  0  0  0  0
  -27.3980  -24.1040   18.4580 C   0  0  0  0  0  2  0  0  0  0  0  0
  -27.4660  -22.7390   17.8170 C   0  0  0  0  0  2  0  0  0  0  0  0
  -28.5910  -24.1640   19.4020 C   0  0  0  0  0  3  0  0  0  0  0  0
  -28.1940  -21.8720   18.7530 N   0  0  0  0  0  0  0  0  0  0  0  0
  -29.6260  -22.2530   20.5370 O   0  0  0  0  0  0  0  0  0  0  0  0
  -27.2990  -20.1100   17.6970 O   0  0  0  0  0  0  0  0  0  0  0  0
  -29.2630  -18.3100   18.2120 C   0  0  0  0  0  3  0  0  0  0  0  0
  -29.7620  -17.0730   18.6810 C   0  0  0  0  0  3  0  0  0  0  0  0
  -29.3550  -19.2380   20.4480 C   0  0  0  0  0  3  0  0  0  0  0  0
  -29.0080  -19.4030   19.0820 C   0  0  0  0  0  0  0  0  0  0  0  0
  -29.8540  -17.9880   20.9250 C   0  0  0  0  0  0  0  0  0  0  0  0
  -30.0150  -16.8730   20.0560 C   0  0  0  0  0  0  0  0  0  0  0  0
  -30.1970  -17.8390   22.3980 C   0  0  0  0  0  1  0  0  0  0  0  0
  -30.8990  -14.5290   19.9750 C   0  0  0  0  0  0  0  0  0  0  0  0
  -30.5560  -12.3350   18.9140 C   0  0  0  0  0  2  0  0  0  0  0  0
  -29.5290  -12.5170   17.7730 C   0  0  0  0  0  2  0  0  0  0  0  0
  -28.0830  -12.3980   18.2940 C   0  0  0  0  0  2  0  0  0  0  0  0
  -27.8290  -13.2470   19.5660 C   0  0  0  0  0  3  0  0  0  0  0  0
  -28.9530  -13.0420   20.6050 C   0  0  0  0  0  2  0  0  0  0  0  0
  -30.2460  -13.3310   19.9530 N   0  0  0  0  0  0  0  0  0  0  0  0
  -31.9720  -14.7050   19.3890 O   0  0  0  0  0  0  0  0  0  0  0  0
  -30.2680  -15.5550   20.5860 N   0  0  0  0  0  0  0  0  0  0  0  0
  -29.6460  -15.2730   21.3320 H   0  0  0  0  0  0  0  0  0  0  0  0
  -25.4880  -13.8590   20.4320 C   0  0  0  0  0  0  0  0  0  0  0  0
  -24.4310  -13.0930   20.8450 C   0  0  0  0  0  0  0  0  0  0  0  0
  -24.8640  -11.7350   20.7410 C   0  0  0  0  0  0  0  0  0  0  0  0
  -26.5060  -12.9720   20.1210 N   0  0  0  0  0  0  0  0  0  0  0  0
  -26.1350  -11.6850   20.3560 N   0  0  0  0  0  0  0  0  0  0  0  0
  -24.1350  -10.4770   20.9410 C   0  0  0  0  0  0  0  0  0  0  0  0
  -24.5720   -9.5030   21.8680 C   0  0  0  0  0  3  0  0  0  0  0  0
  -23.8360   -8.3130   22.0580 C   0  0  0  0  0  3  0  0  0  0  0  0
  -22.6520   -8.0830   21.3150 C   0  0  0  0  0  0  0  0  0  0  0  0
  -22.2320   -9.0460   20.3800 C   0  0  0  0  0  3  0  0  0  0  0  0
  -22.9680  -10.2290   20.1890 C   0  0  0  0  0  3  0  0  0  0  0  0
  -21.8950   -6.9400   21.4100 O   0  0  0  0  0  0  0  0  0  0  0  0
  -21.7880   -6.2400   22.5840 C   0  0  0  0  0  0  0  0  0  0  0  0
  -21.3070   -6.8400   23.7700 C   0  0  0  0  0  3  0  0  0  0  0  0
  -21.1450   -6.0670   24.9370 C   0  0  0  0  0  3  0  0  0  0  0  0
  -21.4580   -4.6940   24.9220 C   0  0  0  0  0  0  0  0  0  0  0  0
  -21.9390   -4.0960   23.7440 C   0  0  0  0  0  3  0  0  0  0  0  0
  -22.0990   -4.8640   22.5790 C   0  0  0  0  0  0  0  0  0  0  0  0
  -22.5390   -4.2770   21.4410 F   0  0  0  0  0  0  0  0  0  0  0  0
  -21.3020   -3.9500   26.0420 F   0  0  0  0  0  0  0  0  0  0  0  0
  -23.0600  -13.5850   21.2170 C   0  0  0  0  0  0  0  0  0  0  0  0
  -22.3690  -12.8950   22.1200 N   0  0  0  0  0  0  0  0  0  0  0  0
  -22.6090  -14.6190   20.7320 O   0  0  0  0  0  0  0  0  0  0  0  0
  -22.7480  -12.0790   22.5710 H   0  0  0  0  0  0  0  0  0  0  0  0
  -21.4520  -13.2240   22.3950 H   0  0  0  0  0  0  0  0  0  0  0  0
  -25.6710  -15.2310   20.2710 N   0  0  0  0  0  0  0  0  0  0  0  0
  -26.5200  -15.6510   19.9130 H   0  0  0  0  0  0  0  0  0  0  0  0
  -24.9510  -15.9150   20.4720 H   0  0  0  0  0  0  0  0  0  0  0  0
  -28.3180  -25.1190   20.6160 C   0  0  0  0  0  2  0  0  0  0  0  0
  -28.4560  -26.5510   20.3370 O   0  0  0  0  0  0  0  0  0  0  0  0
  -24.6040  -31.8370   23.2660 C   0  0  0  0  0  0  0  0  0  0  0  0
  -27.3070  -27.3330   20.2990 C   0  0  0  0  0  0  0  0  0  0  0  0
  -23.4410  -30.4320   21.6010 C   0  0  0  0  0  3  0  0  0  0  0  0
  -24.9300  -28.8950   20.2240 C   0  0  0  0  0  0  0  0  0  0  0  0
  -25.9800  -30.7770   21.4760 C   0  0  0  0  0  2  0  0  0  0  0  0
  -26.0810  -29.4030   20.8400 C   0  0  0  0  0  0  0  0  0  0  0  0
  -27.2750  -28.6350   20.8670 C   0  0  0  0  0  3  0  0  0  0  0  0
  -26.1350  -26.8710   19.6680 C   0  0  0  0  0  3  0  0  0  0  0  0
  -24.9570  -27.6310   19.6280 C   0  0  0  0  0  3  0  0  0  0  0  0
  -23.6900  -29.7600   20.2270 C   0  0  0  0  0  2  0  0  0  0  0  0
  -24.6910  -31.0330   22.1700 N   0  0  0  0  0  0  0  0  0  0  0  0
  -23.5090  -32.1110   23.7770 O   0  0  0  0  0  0  0  0  0  0  0  0
  -22.7660  -29.4090   22.5430 C   0  0  0  0  0  0  0  0  0  0  0  0
  -21.4450  -29.2220   22.3790 N   0  0  0  0  0  0  0  0  0  0  0  0
  -23.4270  -28.7890   23.3790 O   0  0  0  0  0  0  0  0  0  0  0  0
  -20.9710  -29.7750   21.6780 H   0  0  0  0  0  0  0  0  0  0  0  0
  -18.0600  -28.0130   22.7800 C   0  0  0  0  0  0  0  0  0  0  0  0
  -20.6070  -28.2880   23.1340 C   0  0  0  0  0  3  0  0  0  0  0  0
  -20.7350  -26.8510   22.5770 C   0  0  0  0  0  2  0  0  0  0  0  0
  -19.6680  -26.5120   21.5310 C   0  0  0  0  0  2  0  0  0  0  0  0
  -18.2650  -26.6560   22.1270 C   0  0  0  0  0  2  0  0  0  0  0  0
  -19.1610  -28.7850   23.2380 C   0  0  0  0  0  0  0  0  0  0  0  0
  -18.9160  -30.0540   23.8060 C   0  0  0  0  0  3  0  0  0  0  0  0
  -17.6040  -30.5500   23.9210 C   0  0  0  0  0  3  0  0  0  0  0  0
  -16.5180  -29.7750   23.4780 C   0  0  0  0  0  3  0  0  0  0  0  0
  -16.7480  -28.5080   22.9130 C   0  0  0  0  0  3  0  0  0  0  0  0
  -25.8730  -32.4700   23.9160 C   0  0  0  0  0  3  0  0  0  0  0  0
  -25.5540  -33.8690   24.2300 N   0  0  0  0  0  0  0  0  0  0  0  0
  -25.8910  -34.9160   23.4630 C   0  0  0  0  0  0  0  0  0  0  0  0
  -26.5760  -34.8040   22.4420 O   0  0  0  0  0  0  0  0  0  0  0  0
  -24.9430  -34.0290   25.0170 H   0  0  0  0  0  0  0  0  0  0  0  0
  -24.1590  -36.6950   23.0670 C   0  0  0  0  0  1  0  0  0  0  0  0
  -25.3920  -36.3070   23.8970 C   0  0  0  0  0  3  0  0  0  0  0  0
  -27.5140  -37.2130   24.7360 C   0  0  0  0  0  1  0  0  0  0  0  0
  -26.4200  -37.3640   23.7810 N   0  0  0  0  0  0  0  0  0  0  0  0
  -26.0080  -38.2830   23.9120 H   0  0  0  0  0  0  0  0  0  0  0  0
  -26.3570  -31.7020   25.2090 C   0  0  1  0  0  0  0  0  0  0  0  0
  -25.2350  -31.4660   26.2460 C   0  0  0  0  0  1  0  0  0  0  0  0
  -26.9520  -30.3230   24.8390 C   0  0  0  0  0  1  0  0  0  0  0  0
  -27.4880  -32.5000   25.8960 C   0  0  0  0  0  1  0  0  0  0  0  0
  1  7  2  0
  2  6  1  0
  2 12  1  0
  3  5  1  0
  4  3  1  0
  4  6  1  0
  5  1  1  0
  5 54  1  0
  6  1  1  0
  8  2  2  0
  9 10  2  0
  9 12  1  0
 10 14  1  0
 11 13  1  0
 12 11  2  0
 13 15  1  0
 14 24  1  0
 14 13  2  0
 16 24  1  0
 17 22  1  0
 18 19  1  0
 18 17  1  0
 20 19  1  0
 20 29  1  0
 20 21  1  0
 22 16  1  0
 22 21  1  0
 23 16  2  0
 24 25  1  0
 26 27  2  0
 27 46  1  0
 28 27  1  0
 28 31  1  0
 29 30  1  0
 29 26  1  0
 30 28  2  0
 31 32  1  0
 32 33  2  0
 34 37  1  0
 34 33  1  0
 35 34  2  0
 36 35  1  0
 36 31  2  0
 37 38  1  0
 38 39  1  0
 39 40  2  0
 41 40  1  0
 41 45  1  0
 42 41  2  0
 43 38  2  0
 43 42  1  0
 44 43  1  0
 46 47  1  0
 47 50  1  0
 47 49  1  0
 48 46  2  0
 51 26  1  0
 51 53  1  0
 52 51  1  0
 55 54  1  0
 56 67  2  0
 57 55  1  0
 57 62  1  0
 58 66  1  0
 58 68  1  0
 59 65  1  0
 59 61  1  0
 60 66  1  0
 61 62  2  0
 61 60  1  0
 63 57  2  0
 64 63  1  0
 64 59  2  0
 65 58  1  0
 66 56  1  0
 68 70  2  0
 69 68  1  0
 71 69  1  0
 72 81  2  0
 72 77  1  0
 73 69  1  0
 73 77  1  0
 74 73  1  0
 75 76  1  0
 75 74  1  0
 76 72  1  0
 77 78  2  0
 78 79  1  0
 80 79  2  0
 81 80  1  0
 82 56  1  0
 82 83  1  0
 82 92  1  0
 83 86  1  0
 84 88  1  0
 84 83  1  0
 85 84  2  0
 88 87  1  0
 90 88  1  0
 90 91  1  0
 90 89  1  0
 92 95  1  1
 92 93  1  0
 94 92  1  0
M  ISO  4  16 100  24 100  54 101  55 101
M  END
>  <TORSDO>  (45) 
F 18

>  <SCORE>  (45) 
-14.314

>  <name>  (45) 
45

>  <ligand_id>  (45) 
45

>  <original_smiles>  (45) 
[H]c1c([H])c([H])c2c(c1[H])C([H])([H])C([H])([H])C([H])([H])C2([H])N([H])C(=O)C1([H])N(C(=O)C([H])(N([H])C(=O)C([H])(N([H])C([H])([H])[H])C([H])([H])[H])C(C([H])([H])[H])(C([H])([H])[H])C([H])([H])[H])C([H])([H])c2c([H])c(OC([H])([H])C3([H])C(=O)N(C(=O)c4c([H])c([H])c(N([H])C(=O)N5C([H])([H])C([H])([H])C([H])([H])C([H])(n6nc(-c7c([H])c([H])c(Oc8c([H])c([H])c(F)c([H])c8F)c([H])c7[H])c(C(=O)N([H])[H])c6N([H])[H])C5([H])[H])c(C([H])([H])[H])c4[H])C([H])([H])C3([H])[H])c([H])c([H])c2C1([H])[H]

>  <smiles>  (45) 
[H]c1c([H])c([H])c2c(c1[H])C([H])([H])C([H])([H])C([H])([H])C2([H])N([H])C(=O)C1([H])N(C(=O)C([H])(N([H])C(=O)C([H])(N([H])C([H])([H])[H])C([H])([H])[H])C(C([H])([H])[H])(C([H])([H])[H])C([H])([H])[H])C([H])([H])c2c([H])c(OC([H])([H])C3([H])C(=O)N(C(=O)c4c([H])c([H])c(N([H])C(=O)N5C([H])([H])C([H])([H])C([H])([H])C([H])(n6nc(-c7c([H])c([H])c(Oc8c([H])c([H])c(F)c([H])c8F)c([H])c7[H])c(C(=O)N([H])[H])c6N([H])[H])C5([H])[H])c(C([H])([H])[H])c4[H])C([H])([H])C3([H])[H])c([H])c([H])c2C1([H])[H]

$$$$
46:0:0
     RDKit          3D

 91 99  0  0  1  0  0  0  0  0999 V2000
  -28.9980  -23.3320   20.5970 C   0  0  0  0  0  0  0  0  0  0  0  0
  -28.9770  -21.9760   20.1230 N   0  0  0  0  0  0  0  0  0  0  0  0
  -29.6990  -23.6010   21.5770 O   0  0  0  0  0  0  0  0  0  0  0  0
  -28.4550  -21.9350   19.2580 H   0  0  0  0  0  0  0  0  0  0  0  0
  -29.9020  -20.0750   21.7080 C   0  0  0  0  0  3  0  0  0  0  0  0
  -30.1970  -18.6090   21.7450 C   0  0  0  0  0  3  0  0  0  0  0  0
  -29.4670  -20.6560   20.5150 C   0  0  0  0  0  0  0  0  0  0  0  0
  -30.0320  -17.8490   20.5830 C   0  0  0  0  0  0  0  0  0  0  0  0
  -29.5630  -19.2130   19.4120 S   0  0  0  0  0  0  0  0  0  0  0  0
  -30.7740  -15.2470   20.8640 C   0  0  0  0  0  0  0  0  0  0  0  0
  -30.8330  -12.7830   20.1410 C   0  0  0  0  0  2  0  0  0  0  0  0
  -30.0200  -12.4820   18.8590 C   0  0  0  0  0  2  0  0  0  0  0  0
  -28.5250  -12.2800   19.1750 C   0  0  0  0  0  2  0  0  0  0  0  0
  -27.9710  -13.3030   20.1990 C   0  0  0  0  0  3  0  0  0  0  0  0
  -28.9220  -13.5210   21.3920 C   0  0  0  0  0  2  0  0  0  0  0  0
  -30.2100  -13.9550   20.8220 N   0  0  0  0  0  0  0  0  0  0  0  0
  -32.0030  -15.2670   21.0040 O   0  0  0  0  0  0  0  0  0  0  0  0
  -29.6390  -16.1580   19.0170 C   0  0  0  0  0  0  0  0  0  0  0  0
  -28.2280  -16.6000   18.6040 C   0  0  0  0  0  1  0  0  0  0  0  0
  -30.0960  -16.4050   20.2750 N   0  0  0  0  0  0  0  0  0  0  0  0
  -30.3570  -15.6900   18.1270 O   0  0  0  0  0  0  0  0  0  0  0  0
  -25.5340  -13.9100   20.6870 C   0  0  0  0  0  0  0  0  0  0  0  0
  -24.4380  -13.1440   20.9640 C   0  0  0  0  0  0  0  0  0  0  0  0
  -24.9080  -11.7960   21.0300 C   0  0  0  0  0  0  0  0  0  0  0  0
  -26.5980  -13.0270   20.5890 N   0  0  0  0  0  0  0  0  0  0  0  0
  -26.2240  -11.7540   20.8650 N   0  0  0  0  0  0  0  0  0  0  0  0
  -24.1720  -10.5370   21.1830 C   0  0  0  0  0  0  0  0  0  0  0  0
  -24.5430   -9.5820   22.1540 C   0  0  0  0  0  3  0  0  0  0  0  0
  -23.8080   -8.3860   22.2960 C   0  0  0  0  0  3  0  0  0  0  0  0
  -22.6890   -8.1380   21.4650 C   0  0  0  0  0  0  0  0  0  0  0  0
  -22.3400   -9.0830   20.4830 C   0  0  0  0  0  3  0  0  0  0  0  0
  -23.0760  -10.2700   20.3390 C   0  0  0  0  0  3  0  0  0  0  0  0
  -21.9320   -6.9940   21.5150 O   0  0  0  0  0  0  0  0  0  0  0  0
  -21.8320   -6.2480   22.6620 C   0  0  0  0  0  0  0  0  0  0  0  0
  -21.3540   -6.8010   23.8710 C   0  0  0  0  0  3  0  0  0  0  0  0
  -21.2010   -5.9820   25.0070 C   0  0  0  0  0  3  0  0  0  0  0  0
  -21.5140   -4.6110   24.9350 C   0  0  0  0  0  0  0  0  0  0  0  0
  -21.9860   -4.0580   23.7310 C   0  0  0  0  0  3  0  0  0  0  0  0
  -22.1410   -4.8750   22.5970 C   0  0  0  0  0  0  0  0  0  0  0  0
  -22.5760   -4.3340   21.4330 F   0  0  0  0  0  0  0  0  0  0  0  0
  -21.3590   -3.8210   26.0230 F   0  0  0  0  0  0  0  0  0  0  0  0
  -23.0190  -13.6210   21.0630 C   0  0  0  0  0  0  0  0  0  0  0  0
  -22.2060  -12.9560   21.8750 N   0  0  0  0  0  0  0  0  0  0  0  0
  -22.6360  -14.6210   20.4560 O   0  0  0  0  0  0  0  0  0  0  0  0
  -22.5270  -12.1500   22.3900 H   0  0  0  0  0  0  0  0  0  0  0  0
  -21.2490  -13.2610   21.9880 H   0  0  0  0  0  0  0  0  0  0  0  0
  -25.7090  -15.2750   20.4860 N   0  0  0  0  0  0  0  0  0  0  0  0
  -24.9280  -15.9240   20.5080 H   0  0  0  0  0  0  0  0  0  0  0  0
  -26.5920  -15.7250   20.2940 H   0  0  0  0  0  0  0  0  0  0  0  0
  -28.1140  -24.5970   19.9230 C   0  0  0  0  0  2  0  0  0  0  0  0
  -28.3610  -26.1420   20.1510 O   0  0  0  0  0  0  0  0  0  0  0  0
  -24.6650  -31.8820   23.0410 C   0  0  0  0  0  0  0  0  0  0  0  0
  -27.3070  -27.1440   20.0470 C   0  0  0  0  0  0  0  0  0  0  0  0
  -23.4850  -30.4610   21.4110 C   0  0  0  0  0  3  0  0  0  0  0  0
  -24.9570  -28.8890   19.9950 C   0  0  0  0  0  0  0  0  0  0  0  0
  -26.0390  -30.7430   21.2530 C   0  0  0  0  0  2  0  0  0  0  0  0
  -26.1310  -29.3450   20.6090 C   0  0  0  0  0  0  0  0  0  0  0  0
  -27.3020  -28.4870   20.6190 C   0  0  0  0  0  3  0  0  0  0  0  0
  -26.1070  -26.8100   19.3780 C   0  0  0  0  0  3  0  0  0  0  0  0
  -24.9600  -27.6370   19.3640 C   0  0  0  0  0  3  0  0  0  0  0  0
  -23.7180  -29.7740   20.0380 C   0  0  0  0  0  2  0  0  0  0  0  0
  -24.7490  -31.0530   21.9560 N   0  0  0  0  0  0  0  0  0  0  0  0
  -23.5750  -32.1580   23.5650 O   0  0  0  0  0  0  0  0  0  0  0  0
  -22.8140  -29.4550   22.3800 C   0  0  0  0  0  0  0  0  0  0  0  0
  -21.4810  -29.3070   22.2880 N   0  0  0  0  0  0  0  0  0  0  0  0
  -23.4970  -28.8090   23.1810 O   0  0  0  0  0  0  0  0  0  0  0  0
  -20.9850  -29.8780   21.6180 H   0  0  0  0  0  0  0  0  0  0  0  0
  -18.0920  -28.1670   22.8900 C   0  0  0  0  0  0  0  0  0  0  0  0
  -20.6650  -28.3730   23.0710 C   0  0  0  0  0  3  0  0  0  0  0  0
  -20.7160  -26.9500   22.4700 C   0  0  0  0  0  2  0  0  0  0  0  0
  -19.5730  -26.6670   21.4890 C   0  0  0  0  0  2  0  0  0  0  0  0
  -18.2180  -26.8270   22.1830 C   0  0  0  0  0  2  0  0  0  0  0  0
  -19.2400  -28.8990   23.2920 C   0  0  0  0  0  0  0  0  0  0  0  0
  -19.0660  -30.1530   23.9180 C   0  0  0  0  0  3  0  0  0  0  0  0
  -17.7780  -30.6740   24.1410 C   0  0  0  0  0  3  0  0  0  0  0  0
  -16.6450  -29.9380   23.7510 C   0  0  0  0  0  3  0  0  0  0  0  0
  -16.8040  -28.6860   23.1320 C   0  0  0  0  0  3  0  0  0  0  0  0
  -25.9330  -32.5390   23.6660 C   0  0  0  0  0  3  0  0  0  0  0  0
  -25.5820  -33.9150   24.0560 N   0  0  0  0  0  0  0  0  0  0  0  0
  -25.9120  -35.0140   23.3650 C   0  0  0  0  0  0  0  0  0  0  0  0
  -26.6090  -34.9780   22.3480 O   0  0  0  0  0  0  0  0  0  0  0  0
  -24.9630  -34.0140   24.8470 H   0  0  0  0  0  0  0  0  0  0  0  0
  -24.1670  -36.8030   23.0530 C   0  0  0  0  0  1  0  0  0  0  0  0
  -25.3870  -36.3690   23.8820 C   0  0  0  0  0  3  0  0  0  0  0  0
  -27.4780  -37.2380   24.8340 C   0  0  0  0  0  1  0  0  0  0  0  0
  -26.4060  -37.4420   23.8630 N   0  0  0  0  0  0  0  0  0  0  0  0
  -25.9810  -38.3470   24.0450 H   0  0  0  0  0  0  0  0  0  0  0  0
  -26.4930  -31.7440   24.9100 C   0  0  1  0  0  0  0  0  0  0  0  0
  -25.4270  -31.4520   25.9930 C   0  0  0  0  0  1  0  0  0  0  0  0
  -27.1010  -30.3920   24.4740 C   0  0  0  0  0  1  0  0  0  0  0  0
  -27.6390  -32.5470   25.5710 C   0  0  0  0  0  1  0  0  0  0  0  0
  1  3  2  0
  2  7  1  0
  2  1  1  0
  4  2  1  0
  5  6  1  0
  7  5  2  0
  8  6  2  0
  9  7  1  0
  9  8  1  0
 10 17  2  0
 11 16  1  0
 12 13  1  0
 12 11  1  0
 14 13  1  0
 14 25  1  0
 14 15  1  0
 16 10  1  0
 16 15  1  0
 18 20  1  0
 19 18  1  0
 20  8  1  0
 20 10  1  0
 21 18  2  0
 22 23  2  0
 23 24  1  0
 23 42  1  0
 24 27  1  0
 25 22  1  0
 25 26  1  0
 26 24  2  0
 27 28  1  0
 28 29  2  0
 30 33  1  0
 30 29  1  0
 31 30  2  0
 32 31  1  0
 32 27  2  0
 33 34  1  0
 34 35  1  0
 35 36  2  0
 37 36  1  0
 37 41  1  0
 38 37  2  0
 39 34  2  0
 39 38  1  0
 40 39  1  0
 42 43  1  0
 43 46  1  0
 43 45  1  0
 44 42  2  0
 47 48  1  0
 47 22  1  0
 49 47  1  0
 50 51  1  0
 50  1  1  0
 52 63  2  0
 53 51  1  0
 53 58  1  0
 54 62  1  0
 54 64  1  0
 55 61  1  0
 55 57  1  0
 56 62  1  0
 57 58  2  0
 57 56  1  0
 59 53  2  0
 60 59  1  0
 60 55  2  0
 61 54  1  0
 62 52  1  0
 64 66  2  0
 65 64  1  0
 67 65  1  0
 68 77  2  0
 68 73  1  0
 69 65  1  0
 69 73  1  0
 70 69  1  0
 71 72  1  0
 71 70  1  0
 72 68  1  0
 73 74  2  0
 74 75  1  0
 76 75  2  0
 77 76  1  0
 78 52  1  0
 78 79  1  0
 78 88  1  0
 79 82  1  0
 80 84  1  0
 80 79  1  0
 81 80  2  0
 84 83  1  0
 86 84  1  0
 86 87  1  0
 86 85  1  0
 88 91  1  1
 88 89  1  0
 90 88  1  0
M  ISO  4  10 100  20 100  50 101  51 101
M  END
>  <TORSDO>  (46) 
F 18

>  <SCORE>  (46) 
-13.221

>  <name>  (46) 
46

>  <ligand_id>  (46) 
46

>  <original_smiles>  (46) 
[H]c1c(N([H])C(=O)C([H])([H])Oc2c([H])c([H])c3c(c2[H])C([H])([H])N(C(=O)C([H])(N([H])C(=O)C([H])(N([H])C([H])([H])[H])C([H])([H])[H])C(C([H])([H])[H])(C([H])([H])[H])C([H])([H])[H])C([H])(C(=O)N([H])C2([H])c4c([H])c([H])c([H])c([H])c4C([H])([H])C([H])([H])C2([H])[H])C3([H])[H])sc(N(C(=O)N2C([H])([H])C([H])([H])C([H])([H])C([H])(n3nc(-c4c([H])c([H])c(Oc5c([H])c([H])c(F)c([H])c5F)c([H])c4[H])c(C(=O)N([H])[H])c3N([H])[H])C2([H])[H])C(=O)C([H])([H])[H])c1[H]

>  <smiles>  (46) 
[H]c1c(N([H])C(=O)C([H])([H])Oc2c([H])c([H])c3c(c2[H])C([H])([H])N(C(=O)C([H])(N([H])C(=O)C([H])(N([H])C([H])([H])[H])C([H])([H])[H])C(C([H])([H])[H])(C([H])([H])[H])C([H])([H])[H])C([H])(C(=O)N([H])C2([H])c4c([H])c([H])c([H])c([H])c4C([H])([H])C([H])([H])C2([H])[H])C3([H])[H])sc(N(C(=O)N2C([H])([H])C([H])([H])C([H])([H])C([H])(n3nc(-c4c([H])c([H])c(Oc5c([H])c([H])c(F)c([H])c5F)c([H])c4[H])c(C(=O)N([H])[H])c3N([H])[H])C2([H])[H])C(=O)C([H])([H])[H])c1[H]

$$$$
47:0:0
     RDKit          3D

 98 99  0  0  1  0  0  0  0  0999 V2000
  -24.0470  -14.9370   20.2800 C   0  0  0  0  0  1  0  0  0  0  0  0
  -26.1300  -12.2080   22.5400 C   0  0  0  0  0 15  0  0  0  0  0  0
  -26.1020  -15.0700   20.3890 C   0  0  0  0  0  1  0  0  0  0  0  0
  -23.0150  -13.4530   21.3010 C   0  0  0  0  0  1  0  0  0  0  0  0
  -27.1770  -13.6670   21.5230 C   0  0  0  0  0  1  0  0  0  0  0  0
  -24.0670  -12.0770   22.4190 C   0  0  0  0  0  1  0  0  0  0  0  0
  -30.3360  -13.2050   21.7760 C   0  0  0  0  0  0  0  0  0  0  0  0
  -31.7280  -11.0570   21.1600 C   0  0  0  0  0  2  0  0  0  0  0  0
  -31.4900  -10.7190   19.6470 C   0  0  0  0  0  2  0  0  0  0  0  0
  -30.0380  -10.2890   19.3650 C   0  0  0  0  0  2  0  0  0  0  0  0
  -29.1460  -11.2100   20.1490 C   0  0  0  0  0  3  0  0  0  0  0  0
  -29.4260  -11.0790   21.6480 C   0  0  0  0  0  2  0  0  0  0  0  0
  -30.5730  -11.8500   21.7370 N   0  0  0  0  0  0  0  0  0  0  0  0
  -31.4840  -13.7680   21.7570 O   0  0  0  0  0  0  0  0  0  0  0  0
  -28.8920  -13.8150   21.6860 N   0  0  0  0  0  0  0  0  0  0  0  0
  -29.0850  -14.8040   21.6080 H   0  0  0  0  0  0  0  0  0  0  0  0
  -27.0550  -11.8350   19.1210 C   0  0  0  0  0  3  0  0  0  0  0  0
  -25.8420  -11.6530   19.5980 C   0  0  0  0  0  3  0  0  0  0  0  0
  -25.8360  -10.4300   20.4090 C   0  0  0  0  0  3  0  0  0  0  0  0
  -27.7910  -11.0440   19.9280 N   0  0  0  0  0  0  0  0  0  0  0  0
  -27.1000  -10.1460   20.6550 N   0  0  0  0  0  2  0  0  0  0  0  0
  -24.8870   -9.4050   20.9140 C   0  0  0  0  0  0  0  0  0  0  0  0
  -24.9260   -8.9020   22.2430 C   0  0  0  0  0  3  0  0  0  0  0  0
  -24.1110   -7.8140   22.6390 C   0  0  0  0  0  3  0  0  0  0  0  0
  -23.2550   -7.1910   21.6990 C   0  0  0  0  0  0  0  0  0  0  0  0
  -23.2510   -7.6620   20.3730 C   0  0  0  0  0  3  0  0  0  0  0  0
  -24.0510   -8.7540   19.9860 C   0  0  0  0  0  3  0  0  0  0  0  0
  -22.4590   -6.0990   21.9680 O   0  0  0  0  0  0  0  0  0  0  0  0
  -21.6380   -6.0450   23.0680 C   0  0  0  0  0  0  0  0  0  0  0  0
  -20.6270   -7.0060   23.2920 C   0  0  0  0  0  3  0  0  0  0  0  0
  -19.7620   -6.8750   24.3970 C   0  0  0  0  0  3  0  0  0  0  0  0
  -19.8960   -5.7820   25.2740 C   0  0  0  0  0  0  0  0  0  0  0  0
  -20.8950   -4.8180   25.0480 C   0  0  0  0  0  3  0  0  0  0  0  0
  -21.7580   -4.9460   23.9440 C   0  0  0  0  0  0  0  0  0  0  0  0
  -22.6990   -3.9980   23.7190 F   0  0  0  0  0  0  0  0  0  0  0  0
  -19.0660   -5.6580   26.3350 F   0  0  0  0  0  0  0  0  0  0  0  0
  -25.1830  -12.9990   19.6300 C   0  0  0  0  0  2  0  0  0  0  0  0
  -24.9840  -14.4090   21.1590 N   0  0  0  0  0  1  0  0  0  0  0  0
  -24.6210  -12.9310   18.4890 O   0  0  0  0  0  1  0  0  0  0  0  0
  -25.4240  -14.2600   22.0580 H   0  0  0  0  0  0  0  0  0  0  0  0
  -24.4530  -15.2510   20.9770 H   0  0  0  0  0  0  0  0  0  0  0  0
  -27.5640  -12.8490   18.2950 N   0  0  0  0  0  0  0  0  0  0  0  0
  -26.9690  -13.3640   17.6580 H   0  0  0  0  0  0  0  0  0  0  0  0
  -28.5460  -12.9390   18.0670 H   0  0  0  0  0  0  0  0  0  0  0  0
  -26.5610  -16.7170   19.9320 C   0  0  0  0  0  0  0  0  0  0  0  0
  -25.6170  -17.6170   20.7180 C   0  0  0  0  0  1  0  0  0  0  0  0
  -27.4830  -17.5130   19.1940 N   0  0  0  0  0  0  0  0  0  0  0  0
  -27.3240  -19.1370   18.9310 O   0  0  0  0  0  0  0  0  0  0  0  0
  -29.6900  -19.8670   18.9720 C   0  0  0  0  0  1  0  0  0  0  0  0
  -28.4040  -20.1820   18.2110 C   0  0  0  0  0  3  0  0  0  0  0  0
  -28.4010  -22.0070   17.9590 C   0  0  0  0  0  2  0  0  0  0  0  0
  -29.4580  -23.3110   17.7370 O   0  0  0  0  0  0  0  0  0  0  0  0
  -27.6750  -28.7900   22.4790 C   0  0  0  0  0  0  0  0  0  0  0  0
  -29.0630  -24.7180   17.9890 C   0  0  0  0  0  0  0  0  0  0  0  0
  -26.2990  -28.2980   20.5100 C   0  0  0  0  0  3  0  0  0  0  0  0
  -27.4400  -27.0650   18.5690 C   0  0  0  0  0  0  0  0  0  0  0  0
  -28.8590  -27.9920   20.3730 C   0  0  0  0  0  2  0  0  0  0  0  0
  -28.6380  -26.9110   19.2780 C   0  0  0  0  0  0  0  0  0  0  0  0
  -29.4720  -25.7440   18.9770 C   0  0  0  0  0  3  0  0  0  0  0  0
  -27.9890  -25.1270   17.1920 C   0  0  0  0  0  3  0  0  0  0  0  0
  -27.1620  -26.2150   17.4990 C   0  0  0  0  0  3  0  0  0  0  0  0
  -26.4520  -28.1440   18.9770 C   0  0  0  0  0  2  0  0  0  0  0  0
  -27.6380  -28.3670   21.1770 N   0  0  0  0  0  0  0  0  0  0  0  0
  -26.6410  -29.0940   23.0960 O   0  0  0  0  0  0  0  0  0  0  0  0
  -25.4020  -27.1650   21.0760 C   0  0  0  0  0  0  0  0  0  0  0  0
  -24.0710  -27.2840   20.9110 N   0  0  0  0  0  0  0  0  0  0  0  0
  -25.9110  -26.1950   21.6450 O   0  0  0  0  0  0  0  0  0  0  0  0
  -23.7260  -28.1140   20.4470 H   0  0  0  0  0  0  0  0  0  0  0  0
  -20.5100  -26.6170   21.0460 C   0  0  0  0  0  0  0  0  0  0  0  0
  -23.0620  -26.3130   21.3440 C   0  0  0  0  0  3  0  0  0  0  0  0
  -22.9350  -25.1530   20.3290 C   0  0  0  0  0  2  0  0  0  0  0  0
  -21.8410  -25.3840   19.2820 C   0  0  0  0  0  2  0  0  0  0  0  0
  -20.4780  -25.5590   19.9590 C   0  0  0  0  0  2  0  0  0  0  0  0
  -21.7260  -26.9820   21.6860 C   0  0  0  0  0  0  0  0  0  0  0  0
  -21.7020  -27.9940   22.6710 C   0  0  0  0  0  3  0  0  0  0  0  0
  -20.4970  -28.6350   23.0170 C   0  0  0  0  0  3  0  0  0  0  0  0
  -19.2960  -28.2600   22.3900 C   0  0  0  0  0  3  0  0  0  0  0  0
  -19.3040  -27.2510   21.4100 C   0  0  0  0  0  3  0  0  0  0  0  0
  -29.0190  -28.9320   23.2500 C   0  0  0  0  0  3  0  0  0  0  0  0
  -28.8820  -30.0650   24.1830 N   0  0  0  0  0  0  0  0  0  0  0  0
  -29.4350  -31.2730   24.0140 C   0  0  0  0  0  0  0  0  0  0  0  0
  -30.1790  -31.5380   23.0660 O   0  0  0  0  0  0  0  0  0  0  0  0
  -28.2390  -29.9370   24.9510 H   0  0  0  0  0  0  0  0  0  0  0  0
  -28.0500  -33.3180   24.5070 C   0  0  0  0  0  1  0  0  0  0  0  0
  -29.1160  -32.3590   25.0620 C   0  0  0  0  0  3  0  0  0  0  0  0
  -31.2320  -32.3580   26.3090 C   0  0  0  0  0  1  0  0  0  0  0  0
  -30.3020  -33.1330   25.4920 N   0  0  0  0  0  0  0  0  0  0  0  0
  -30.0230  -33.9550   26.0220 H   0  0  0  0  0  0  0  0  0  0  0  0
  -29.4190  -27.6260   24.0400 C   0  0  1  0  0  0  0  0  0  0  0  0
  -28.3030  -27.0950   24.9710 C   0  0  0  0  0  1  0  0  0  0  0  0
  -29.7990  -26.4830   23.0720 C   0  0  0  0  0  1  0  0  0  0  0  0
  -30.6730  -27.9020   24.9020 C   0  0  0  0  0  1  0  0  0  0  0  0
  -21.6280  -13.3800   21.3000 N   0  0  0  0  0  0  0  0  0  0  0  0
  -21.1440  -14.2700   21.2590 H   0  0  0  0  0  0  0  0  0  0  0  0
  -21.2450  -12.7850   22.0290 H   0  0  0  0  0  0  0  0  0  0  0  0
  -23.3540  -11.1240   23.1440 N   0  0  0  0  0  0  0  0  0  0  0  0
  -23.8280  -10.2860   23.4620 H   0  0  0  0  0  0  0  0  0  0  0  0
  -22.3790  -10.9760   22.9180 H   0  0  0  0  0  0  0  0  0  0  0  0
  1 41  1  0
  5 15  1  0
  6 96  1  0
  8 13  1  0
  9  8  1  0
 10  9  1  0
 11 10  1  0
 11 12  1  0
 12 13  1  0
 13  7  1  0
 14  7  2  0
 15  7  1  0
 16 15  1  0
 17 42  1  0
 17 18  1  0
 17 20  1  0
 18 37  1  0
 18 19  1  0
 19 21  1  0
 19 22  1  0
 20 11  1  0
 20 21  1  0
 22 23  1  0
 23 24  2  0
 25 28  1  0
 25 24  1  0
 26 25  2  0
 27 26  1  0
 27 22  2  0
 28 29  1  0
 29 30  2  0
 29 34  1  0
 30 31  1  0
 31 32  2  0
 32 36  1  0
 33 32  1  0
 34 33  2  0
 35 34  1  0
 38 40  1  0
 39 37  1  0
 43 42  1  0
 44 42  1  0
 45  3  1  0
 45 46  1  0
 47 45  2  0
 48 47  1  0
 50 48  1  0
 50 49  1  0
 51 50  1  0
 52 51  1  0
 52 54  1  0
 53 64  2  0
 54 59  1  0
 55 65  1  0
 55 63  1  0
 56 62  1  0
 56 58  1  0
 57 63  1  0
 58 57  1  0
 59 58  2  0
 60 61  1  0
 60 54  2  0
 61 56  2  0
 62 55  1  0
 63 53  1  0
 65 67  2  0
 66 65  1  0
 68 66  1  0
 69 78  2  0
 69 74  1  0
 70 66  1  0
 70 74  1  0
 71 70  1  0
 72 73  1  0
 72 71  1  0
 73 69  1  0
 74 75  2  0
 75 76  1  0
 77 76  2  0
 78 77  1  0
 79 53  1  0
 79 89  1  0
 79 80  1  0
 80 83  1  0
 81 80  1  0
 81 85  1  0
 82 81  2  0
 85 84  1  0
 85 87  1  0
 87 88  1  0
 87 86  1  0
 89 92  1  1
 89 90  1  0
 91 89  1  0
 93  4  1  0
 93 95  1  0
 94 93  1  0
 96 97  1  0
 98 96  1  0
M  ISO  4   7 100  15 100  51 101  52 101
M  END
>  <TORSDO>  (47) 
F 22

>  <SCORE>  (47) 
1.252

>  <name>  (47) 
47

>  <ligand_id>  (47) 
47

>  <original_smiles>  (47) 
[H]c1c([H])c([H])c2c(c1[H])C([H])([H])C([H])([H])C([H])([H])C2([H])N([H])C(=O)C1([H])N(C(=O)C([H])(N([H])C(=O)C([H])(N([H])C([H])([H])[H])C([H])([H])[H])C(C([H])([H])[H])(C([H])([H])[H])C([H])([H])[H])C([H])([H])c2c([H])c(OC([H])([H])C([H])(ON=C(c3c([H])c(N([H])[H])c(N([H])[H])c([H])c3N([H])C(=O)N3C([H])([H])C([H])([H])C([H])([H])C([H])(n4nc(-c5c([H])c([H])c(Oc6c([H])c([H])c(F)c([H])c6F)c([H])c5[H])c(C(=O)N([H])[H])c4N([H])[H])C3([H])[H])C([H])([H])[H])C([H])([H])[H])c([H])c([H])c2C1([H])[H]

>  <smiles>  (47) 
[H]c1c([H])c([H])c2c(c1[H])C([H])([H])C([H])([H])C([H])([H])C2([H])N([H])C(=O)C1([H])N(C(=O)C([H])(N([H])C(=O)C([H])(N([H])C([H])([H])[H])C([H])([H])[H])C(C([H])([H])[H])(C([H])([H])[H])C([H])([H])[H])C([H])([H])c2c([H])c(OC([H])([H])C([H])(ON=C(c3c([H])c(N([H])[H])c(N([H])[H])c([H])c3N([H])C(=O)N3C([H])([H])C([H])([H])C([H])([H])C([H])(n4nc(-c5c([H])c([H])c(Oc6c([H])c([H])c(F)c([H])c6F)c([H])c5[H])c(C(=O)N([H])[H])c4N([H])[H])C3([H])[H])C([H])([H])[H])C([H])([H])[H])c([H])c([H])c2C1([H])[H]

$$$$
48:0:0
     RDKit          3D

 94103  0  0  1  0  0  0  0  0999 V2000
  -29.0990  -23.3640   20.5900 C   0  0  0  0  0  3  0  0  0  0  0  0
  -28.3220  -24.4810   20.4900 C   0  0  0  0  0  0  0  0  0  0  0  0
  -26.3600  -22.9740   20.0560 C   0  0  0  0  0  0  0  0  0  0  0  0
  -26.9150  -24.3810   19.9100 C   0  0  0  0  0  2  0  0  0  0  0  0
  -27.3270  -21.8720   19.6400 C   0  0  0  0  0  2  0  0  0  0  0  0
  -28.6790  -22.0750   20.1910 N   0  0  0  0  0  0  0  0  0  0  0  0
  -25.2160  -22.7480   20.4620 O   0  0  0  0  0  0  0  0  0  0  0  0
  -29.5140  -18.3910   20.1070 C   0  0  0  0  0  3  0  0  0  0  0  0
  -30.7630  -19.4410   21.8970 C   0  0  0  0  0  3  0  0  0  0  0  0
  -28.9850  -19.6540   19.7560 C   0  0  0  0  0  3  0  0  0  0  0  0
  -30.2350  -20.7060   21.5420 C   0  0  0  0  0  3  0  0  0  0  0  0
  -30.3970  -18.2660   21.2000 C   0  0  0  0  0  0  0  0  0  0  0  0
  -29.3130  -20.8350   20.4790 C   0  0  0  0  0  0  0  0  0  0  0  0
  -30.9850  -16.9150   21.6380 C   0  0  0  0  0  2  0  0  0  0  0  0
  -30.8650  -14.7680   20.3430 C   0  0  0  0  0  0  0  0  0  0  0  0
  -30.4910  -12.6590   19.1060 C   0  0  0  0  0  2  0  0  0  0  0  0
  -29.5170  -12.8820   17.9330 C   0  0  0  0  0  2  0  0  0  0  0  0
  -28.0560  -12.7350   18.4030 C   0  0  0  0  0  2  0  0  0  0  0  0
  -27.7570  -13.5510   19.6880 C   0  0  0  0  0  3  0  0  0  0  0  0
  -28.8400  -13.3090   20.7620 C   0  0  0  0  0  2  0  0  0  0  0  0
  -30.1510  -13.6200   20.1670 N   0  0  0  0  0  0  0  0  0  0  0  0
  -31.9360  -14.9770   19.7690 O   0  0  0  0  0  0  0  0  0  0  0  0
  -30.3190  -15.6940   21.1530 N   0  0  0  0  0  0  0  0  0  0  0  0
  -29.4230  -15.4690   21.5610 H   0  0  0  0  0  0  0  0  0  0  0  0
  -25.3930  -14.1530   20.5080 C   0  0  0  0  0  0  0  0  0  0  0  0
  -24.3240  -13.3790   20.8720 C   0  0  0  0  0  0  0  0  0  0  0  0
  -24.7620  -12.0240   20.7540 C   0  0  0  0  0  0  0  0  0  0  0  0
  -26.4150  -13.2710   20.1960 N   0  0  0  0  0  0  0  0  0  0  0  0
  -26.0400  -11.9820   20.4000 N   0  0  0  0  0  0  0  0  0  0  0  0
  -24.0200  -10.7640   20.9020 C   0  0  0  0  0  0  0  0  0  0  0  0
  -24.4150   -9.7810   21.8360 C   0  0  0  0  0  3  0  0  0  0  0  0
  -23.6760   -8.5860   21.9730 C   0  0  0  0  0  3  0  0  0  0  0  0
  -22.5280   -8.3670   21.1750 C   0  0  0  0  0  0  0  0  0  0  0  0
  -22.1530   -9.3390   20.2310 C   0  0  0  0  0  3  0  0  0  0  0  0
  -22.8920  -10.5260   20.0920 C   0  0  0  0  0  3  0  0  0  0  0  0
  -21.7640   -7.2250   21.2210 O   0  0  0  0  0  0  0  0  0  0  0  0
  -21.6190   -6.5030   22.3780 C   0  0  0  0  0  0  0  0  0  0  0  0
  -21.0420   -7.0630   23.5390 C   0  0  0  0  0  3  0  0  0  0  0  0
  -20.8490   -6.2640   24.6850 C   0  0  0  0  0  3  0  0  0  0  0  0
  -21.2220   -4.9060   24.6680 C   0  0  0  0  0  0  0  0  0  0  0  0
  -21.7900   -4.3460   23.5100 C   0  0  0  0  0  3  0  0  0  0  0  0
  -21.9860   -5.1420   22.3680 C   0  0  0  0  0  0  0  0  0  0  0  0
  -22.5150   -4.5920   21.2490 F   0  0  0  0  0  0  0  0  0  0  0  0
  -21.0280   -4.1370   25.7640 F   0  0  0  0  0  0  0  0  0  0  0  0
  -22.9450  -13.8630   21.2160 C   0  0  0  0  0  0  0  0  0  0  0  0
  -22.2370  -13.1350   22.0740 N   0  0  0  0  0  0  0  0  0  0  0  0
  -22.5060  -14.9170   20.7620 O   0  0  0  0  0  0  0  0  0  0  0  0
  -22.6050  -12.2800   22.4620 H   0  0  0  0  0  0  0  0  0  0  0  0
  -21.3120  -13.4390   22.3450 H   0  0  0  0  0  0  0  0  0  0  0  0
  -25.5750  -15.5290   20.3980 N   0  0  0  0  0  0  0  0  0  0  0  0
  -24.8260  -16.1900   20.5740 H   0  0  0  0  0  0  0  0  0  0  0  0
  -26.4250  -15.9720   20.0720 H   0  0  0  0  0  0  0  0  0  0  0  0
  -28.7360  -25.8880   20.9920 C   0  0  0  0  0  2  0  0  0  0  0  0
  -28.6290  -26.9830   20.0440 O   0  0  0  0  0  0  0  0  0  0  0  0
  -24.6650  -32.0080   23.2990 C   0  0  0  0  0  0  0  0  0  0  0  0
  -27.4730  -27.7430   20.0910 C   0  0  0  0  0  0  0  0  0  0  0  0
  -23.5300  -30.6440   21.5800 C   0  0  0  0  0  3  0  0  0  0  0  0
  -25.0500  -29.2130   20.1180 C   0  0  0  0  0  0  0  0  0  0  0  0
  -26.0520  -31.0650   21.4550 C   0  0  0  0  0  2  0  0  0  0  0  0
  -26.1840  -29.7210   20.7670 C   0  0  0  0  0  0  0  0  0  0  0  0
  -27.3980  -28.9870   20.7650 C   0  0  0  0  0  3  0  0  0  0  0  0
  -26.3400  -27.2980   19.3840 C   0  0  0  0  0  3  0  0  0  0  0  0
  -25.1240  -27.9980   19.4240 C   0  0  0  0  0  3  0  0  0  0  0  0
  -23.7830  -30.0360   20.1770 C   0  0  0  0  0  2  0  0  0  0  0  0
  -24.7660  -31.2530   22.1690 N   0  0  0  0  0  0  0  0  0  0  0  0
  -23.5670  -32.2290   23.8280 O   0  0  0  0  0  0  0  0  0  0  0  0
  -22.8910  -29.5630   22.4830 C   0  0  0  0  0  0  0  0  0  0  0  0
  -21.5700  -29.3610   22.3350 N   0  0  0  0  0  0  0  0  0  0  0  0
  -23.5790  -28.9130   23.2740 O   0  0  0  0  0  0  0  0  0  0  0  0
  -21.0740  -29.9410   21.6740 H   0  0  0  0  0  0  0  0  0  0  0  0
  -18.2040  -28.1350   22.8110 C   0  0  0  0  0  0  0  0  0  0  0  0
  -20.7660  -28.3720   23.0530 C   0  0  0  0  0  3  0  0  0  0  0  0
  -20.8560  -26.9840   22.3770 C   0  0  0  0  0  2  0  0  0  0  0  0
  -19.7350  -26.7340   21.3620 C   0  0  0  0  0  2  0  0  0  0  0  0
  -18.3660  -26.8350   22.0400 C   0  0  0  0  0  2  0  0  0  0  0  0
  -19.3320  -28.8650   23.2730 C   0  0  0  0  0  0  0  0  0  0  0  0
  -19.1270  -30.0840   23.9540 C   0  0  0  0  0  3  0  0  0  0  0  0
  -17.8260  -30.5750   24.1770 C   0  0  0  0  0  3  0  0  0  0  0  0
  -16.7140  -29.8420   23.7310 C   0  0  0  0  0  3  0  0  0  0  0  0
  -16.9030  -28.6230   23.0550 C   0  0  0  0  0  3  0  0  0  0  0  0
  -25.9230  -32.6480   23.9660 C   0  0  0  0  0  3  0  0  0  0  0  0
  -26.3990  -31.8800   25.2600 C   0  0  1  0  0  0  0  0  0  0  0  0
  -25.2640  -31.6080   26.2740 C   0  0  0  0  0  1  0  0  0  0  0  0
  -27.0320  -30.5180   24.8870 C   0  0  0  0  0  1  0  0  0  0  0  0
  -27.4980  -32.6960   25.9790 C   0  0  0  0  0  1  0  0  0  0  0  0
  -25.5920  -34.0440   24.2820 N   0  0  0  0  0  0  0  0  0  0  0  0
  -25.9230  -35.0950   23.5190 C   0  0  0  0  0  0  0  0  0  0  0  0
  -26.6100  -34.9920   22.4980 O   0  0  0  0  0  0  0  0  0  0  0  0
  -24.9840  -34.1970   25.0720 H   0  0  0  0  0  0  0  0  0  0  0  0
  -24.1670  -36.8540   23.1340 C   0  0  0  0  0  1  0  0  0  0  0  0
  -25.4090  -36.4790   23.9580 C   0  0  0  0  0  3  0  0  0  0  0  0
  -27.5160  -37.4150   24.8050 C   0  0  0  0  0  1  0  0  0  0  0  0
  -26.4260  -37.5480   23.8410 N   0  0  0  0  0  0  0  0  0  0  0  0
  -26.0020  -38.4620   23.9630 H   0  0  0  0  0  0  0  0  0  0  0  0
  2  1  2  0
  2 53  1  0
  3  7  2  0
  4  3  1  0
  4  2  1  0
  5  3  1  0
  5  6  1  0
  6 13  1  0
  6  1  1  0
  8 12  1  0
 10  8  2  0
 10 13  1  0
 11  9  1  0
 12 14  1  0
 12  9  2  0
 13 11  2  0
 15 23  1  0
 16 21  1  0
 17 18  1  0
 17 16  1  0
 19 18  1  0
 19 28  1  0
 19 20  1  0
 21 15  1  0
 21 20  1  0
 22 15  2  0
 23 24  1  0
 23 14  1  0
 25 26  2  0
 26 45  1  0
 27 26  1  0
 27 30  1  0
 28 29  1  0
 28 25  1  0
 29 27  2  0
 30 31  1  0
 31 32  2  0
 33 36  1  0
 33 32  1  0
 34 33  2  0
 35 34  1  0
 35 30  2  0
 36 37  1  0
 37 38  1  0
 38 39  2  0
 40 39  1  0
 40 44  1  0
 41 40  2  0
 42 37  2  0
 42 41  1  0
 43 42  1  0
 45 46  1  0
 46 49  1  0
 46 48  1  0
 47 45  2  0
 50 25  1  0
 50 51  1  0
 52 50  1  0
 54 56  1  0
 54 53  1  0
 55 66  2  0
 56 61  1  0
 57 65  1  0
 57 67  1  0
 58 64  1  0
 58 60  1  0
 59 65  1  0
 60 59  1  0
 61 60  2  0
 62 63  1  0
 62 56  2  0
 63 58  2  0
 64 57  1  0
 65 55  1  0
 67 69  2  0
 68 67  1  0
 70 68  1  0
 71 80  2  0
 71 76  1  0
 72 68  1  0
 72 76  1  0
 73 72  1  0
 74 75  1  0
 74 73  1  0
 75 71  1  0
 76 77  2  0
 77 78  1  0
 79 78  2  0
 80 79  1  0
 81 55  1  0
 81 86  1  0
 81 82  1  0
 82 85  1  1
 82 83  1  0
 84 82  1  0
 86 89  1  0
 87 91  1  0
 87 86  1  0
 88 87  2  0
 91 90  1  0
 93 91  1  0
 93 94  1  0
 93 92  1  0
M  ISO  4  15 100  23 100  53 101  54 101
M  END
>  <TORSDO>  (48) 
F 19

>  <SCORE>  (48) 
-13.996

>  <name>  (48) 
48

>  <ligand_id>  (48) 
48

>  <original_smiles>  (48) 
[H]C1=C(C([H])([H])Oc2c([H])c([H])c3c(c2[H])C([H])([H])N(C(=O)C([H])(N([H])C(=O)C([H])(N([H])C([H])([H])[H])C([H])([H])[H])C(C([H])([H])[H])(C([H])([H])[H])C([H])([H])[H])C([H])(C(=O)N([H])C2([H])c4c([H])c([H])c([H])c([H])c4C([H])([H])C([H])([H])C2([H])[H])C3([H])[H])C([H])([H])C(=O)C([H])([H])N1c1c([H])c([H])c(C([H])([H])N([H])C(=O)N2C([H])([H])C([H])([H])C([H])([H])C([H])(n3nc(-c4c([H])c([H])c(Oc5c([H])c([H])c(F)c([H])c5F)c([H])c4[H])c(C(=O)N([H])[H])c3N([H])[H])C2([H])[H])c([H])c1[H]

>  <smiles>  (48) 
[H]C1=C(C([H])([H])Oc2c([H])c([H])c3c(c2[H])C([H])([H])N(C(=O)C([H])(N([H])C(=O)C([H])(N([H])C([H])([H])[H])C([H])([H])[H])C(C([H])([H])[H])(C([H])([H])[H])C([H])([H])[H])C([H])(C(=O)N([H])C2([H])c4c([H])c([H])c([H])c([H])c4C([H])([H])C([H])([H])C2([H])[H])C3([H])[H])C([H])([H])C(=O)C([H])([H])N1c1c([H])c([H])c(C([H])([H])N([H])C(=O)N2C([H])([H])C([H])([H])C([H])([H])C([H])(n3nc(-c4c([H])c([H])c(Oc5c([H])c([H])c(F)c([H])c5F)c([H])c4[H])c(C(=O)N([H])[H])c3N([H])[H])C2([H])[H])c([H])c1[H]

$$$$
49:0:0
     RDKit          3D

 94103  0  0  1  0  0  0  0  0999 V2000
  -28.8700  -23.8480   20.5260 C   0  0  0  0  0  0  0  0  0  0  0  0
  -29.6480  -23.7770   21.6130 C   0  0  0  0  0  0  0  0  0  0  0  0
  -28.7770  -22.4740   19.9930 C   0  0  0  0  0  0  0  0  0  0  0  0
  -30.1170  -22.3560   21.8620 C   0  0  0  0  0  2  0  0  0  0  0  0
  -29.9830  -24.8730   22.6050 C   0  0  0  0  0  1  0  0  0  0  0  0
  -29.4420  -21.5850   20.8100 N   0  0  0  0  0  0  0  0  0  0  0  0
  -28.1830  -22.1740   18.9520 O   0  0  0  0  0  0  0  0  0  0  0  0
  -28.7640  -19.3460   19.8010 C   0  0  0  0  0  3  0  0  0  0  0  0
  -28.9040  -17.9420   19.6730 C   0  0  0  0  0  3  0  0  0  0  0  0
  -30.4160  -19.3290   21.5340 C   0  0  0  0  0  3  0  0  0  0  0  0
  -29.5430  -20.1090   20.7120 C   0  0  0  0  0  0  0  0  0  0  0  0
  -29.8400  -17.1730   20.4190 C   0  0  0  0  0  0  0  0  0  0  0  0
  -30.5690  -17.9070   21.4010 C   0  0  0  0  0  0  0  0  0  0  0  0
  -31.4600  -17.2690   22.1940 F   0  0  0  0  0  0  0  0  0  0  0  0
  -30.6980  -14.7320   20.6720 C   0  0  0  0  0  0  0  0  0  0  0  0
  -30.5040  -12.4150   19.7790 C   0  0  0  0  0  2  0  0  0  0  0  0
  -29.6280  -12.3690   18.5040 C   0  0  0  0  0  2  0  0  0  0  0  0
  -28.1310  -12.2990   18.8520 C   0  0  0  0  0  2  0  0  0  0  0  0
  -27.6990  -13.2550   19.9990 C   0  0  0  0  0  3  0  0  0  0  0  0
  -28.7010  -13.2380   21.1750 C   0  0  0  0  0  2  0  0  0  0  0  0
  -30.0280  -13.5320   20.6210 N   0  0  0  0  0  0  0  0  0  0  0  0
  -31.9300  -14.7480   20.6630 O   0  0  0  0  0  0  0  0  0  0  0  0
  -30.2260  -15.6780   18.5420 C   0  0  0  0  0  1  0  0  0  0  0  0
  -30.0660  -15.7720   20.0100 N   0  0  0  0  0  0  0  0  0  0  0  0
  -25.2710  -13.8660   20.5740 C   0  0  0  0  0  0  0  0  0  0  0  0
  -24.1830  -13.1000   20.8920 C   0  0  0  0  0  0  0  0  0  0  0  0
  -24.6460  -11.7500   20.9290 C   0  0  0  0  0  0  0  0  0  0  0  0
  -26.3290  -12.9830   20.4300 N   0  0  0  0  0  0  0  0  0  0  0  0
  -25.9560  -11.7070   20.7120 N   0  0  0  0  0  0  0  0  0  0  0  0
  -23.9100  -10.4890   21.1030 C   0  0  0  0  0  0  0  0  0  0  0  0
  -24.3020   -9.5300   22.0620 C   0  0  0  0  0  3  0  0  0  0  0  0
  -23.5650   -8.3370   22.2230 C   0  0  0  0  0  3  0  0  0  0  0  0
  -22.4210   -8.0960   21.4260 C   0  0  0  0  0  0  0  0  0  0  0  0
  -22.0500   -9.0440   20.4550 C   0  0  0  0  0  3  0  0  0  0  0  0
  -22.7880  -10.2270   20.2930 C   0  0  0  0  0  3  0  0  0  0  0  0
  -21.6600   -6.9550   21.4960 O   0  0  0  0  0  0  0  0  0  0  0  0
  -21.5820   -6.2090   22.6450 C   0  0  0  0  0  0  0  0  0  0  0  0
  -21.1540   -6.7690   23.8690 C   0  0  0  0  0  3  0  0  0  0  0  0
  -21.0250   -5.9520   25.0100 C   0  0  0  0  0  3  0  0  0  0  0  0
  -21.3120   -4.5760   24.9290 C   0  0  0  0  0  0  0  0  0  0  0  0
  -21.7310   -4.0160   23.7090 C   0  0  0  0  0  3  0  0  0  0  0  0
  -21.8640   -4.8300   22.5700 C   0  0  0  0  0  0  0  0  0  0  0  0
  -22.2490   -4.2810   21.3930 F   0  0  0  0  0  0  0  0  0  0  0  0
  -21.1790   -3.7890   26.0220 F   0  0  0  0  0  0  0  0  0  0  0  0
  -22.7700  -13.5800   21.0560 C   0  0  0  0  0  0  0  0  0  0  0  0
  -21.9860  -12.9070   21.8900 N   0  0  0  0  0  0  0  0  0  0  0  0
  -22.3670  -14.5900   20.4790 O   0  0  0  0  0  0  0  0  0  0  0  0
  -22.3200  -12.0900   22.3800 H   0  0  0  0  0  0  0  0  0  0  0  0
  -21.0370  -13.2150   22.0450 H   0  0  0  0  0  0  0  0  0  0  0  0
  -25.4460  -15.2310   20.3680 N   0  0  0  0  0  0  0  0  0  0  0  0
  -24.6790  -15.8920   20.4170 H   0  0  0  0  0  0  0  0  0  0  0  0
  -26.3270  -15.6620   20.1140 H   0  0  0  0  0  0  0  0  0  0  0  0
  -28.0030  -25.0180   19.9470 C   0  0  0  0  0  2  0  0  0  0  0  0
  -28.2880  -26.4550   20.1790 O   0  0  0  0  0  0  0  0  0  0  0  0
  -24.5750  -31.8670   23.1410 C   0  0  0  0  0  0  0  0  0  0  0  0
  -27.1830  -27.3250   20.0800 C   0  0  0  0  0  0  0  0  0  0  0  0
  -23.3630  -30.4610   21.5150 C   0  0  0  0  0  3  0  0  0  0  0  0
  -24.8110  -28.9310   20.0720 C   0  0  0  0  0  0  0  0  0  0  0  0
  -25.9000  -30.7980   21.3070 C   0  0  0  0  0  2  0  0  0  0  0  0
  -25.9810  -29.4220   20.6630 C   0  0  0  0  0  0  0  0  0  0  0  0
  -27.1690  -28.6290   20.6640 C   0  0  0  0  0  3  0  0  0  0  0  0
  -25.9930  -26.9070   19.4320 C   0  0  0  0  0  3  0  0  0  0  0  0
  -24.8200  -27.6790   19.4440 C   0  0  0  0  0  3  0  0  0  0  0  0
  -23.5660  -29.7890   20.1320 C   0  0  0  0  0  2  0  0  0  0  0  0
  -24.6320  -31.0580   22.0440 N   0  0  0  0  0  0  0  0  0  0  0  0
  -23.4960  -32.1370   23.6880 O   0  0  0  0  0  0  0  0  0  0  0  0
  -22.7180  -29.4370   22.4800 C   0  0  0  0  0  0  0  0  0  0  0  0
  -21.3890  -29.2620   22.3790 N   0  0  0  0  0  0  0  0  0  0  0  0
  -23.4120  -28.8050   23.2820 O   0  0  0  0  0  0  0  0  0  0  0  0
  -20.8900  -29.8270   21.7050 H   0  0  0  0  0  0  0  0  0  0  0  0
  -18.0180  -28.0800   22.9440 C   0  0  0  0  0  0  0  0  0  0  0  0
  -20.5820  -28.3250   23.1640 C   0  0  0  0  0  3  0  0  0  0  0  0
  -20.6630  -26.8940   22.5820 C   0  0  0  0  0  2  0  0  0  0  0  0
  -19.5390  -26.5810   21.5900 C   0  0  0  0  0  2  0  0  0  0  0  0
  -18.1710  -26.7320   22.2600 C   0  0  0  0  0  2  0  0  0  0  0  0
  -19.1490  -28.8340   23.3540 C   0  0  0  0  0  0  0  0  0  0  0  0
  -18.9480  -30.0950   23.9550 C   0  0  0  0  0  3  0  0  0  0  0  0
  -17.6490  -30.6030   24.1470 C   0  0  0  0  0  3  0  0  0  0  0  0
  -16.5330  -29.8460   23.7530 C   0  0  0  0  0  3  0  0  0  0  0  0
  -16.7190  -28.5850   23.1580 C   0  0  0  0  0  3  0  0  0  0  0  0
  -25.8610  -32.5070   23.7480 C   0  0  0  0  0  3  0  0  0  0  0  0
  -25.5340  -33.8920   24.1160 N   0  0  0  0  0  0  0  0  0  0  0  0
  -25.8380  -34.9670   23.3750 C   0  0  0  0  0  0  0  0  0  0  0  0
  -26.4920  -34.8950   22.3310 O   0  0  0  0  0  0  0  0  0  0  0  0
  -24.9510  -34.0200   24.9290 H   0  0  0  0  0  0  0  0  0  0  0  0
  -24.0780  -36.7390   23.0830 C   0  0  0  0  0  1  0  0  0  0  0  0
  -25.3350  -36.3370   23.8700 C   0  0  0  0  0  3  0  0  0  0  0  0
  -27.4740  -37.2260   24.6860 C   0  0  0  0  0  1  0  0  0  0  0  0
  -26.3490  -37.4090   23.7720 N   0  0  0  0  0  0  0  0  0  0  0  0
  -25.9320  -38.3170   23.9590 H   0  0  0  0  0  0  0  0  0  0  0  0
  -26.4170  -31.7180   24.9980 C   0  0  1  0  0  0  0  0  0  0  0  0
  -25.3500  -31.4430   26.0840 C   0  0  0  0  0  1  0  0  0  0  0  0
  -27.0100  -30.3560   24.5650 C   0  0  0  0  0  1  0  0  0  0  0  0
  -27.5700  -32.5150   25.6470 C   0  0  0  0  0  1  0  0  0  0  0  0
  1  2  2  0
  2  4  1  0
  2  5  1  0
  3  1  1  0
  3  6  1  0
  6  4  1  0
  7  3  2  0
  8 11  1  0
  9  8  2  0
  9 12  1  0
 11  6  1  0
 11 10  2  0
 12 13  2  0
 13 10  1  0
 13 14  1  0
 16 21  1  0
 17 18  1  0
 17 16  1  0
 19 18  1  0
 19 28  1  0
 19 20  1  0
 21 15  1  0
 21 20  1  0
 22 15  2  0
 23 24  1  0
 24 12  1  0
 24 15  1  0
 25 26  2  0
 26 27  1  0
 26 45  1  0
 27 30  1  0
 28 25  1  0
 28 29  1  0
 29 27  2  0
 30 31  1  0
 31 32  2  0
 33 36  1  0
 33 32  1  0
 34 33  2  0
 35 34  1  0
 35 30  2  0
 36 37  1  0
 37 38  1  0
 38 39  2  0
 40 39  1  0
 40 44  1  0
 41 40  2  0
 42 37  2  0
 42 41  1  0
 43 42  1  0
 45 46  1  0
 46 49  1  0
 46 48  1  0
 47 45  2  0
 50 51  1  0
 50 25  1  0
 52 50  1  0
 53 54  1  0
 53  1  1  0
 55 66  2  0
 56 54  1  0
 56 61  1  0
 57 65  1  0
 57 67  1  0
 58 64  1  0
 58 60  1  0
 59 65  1  0
 60 61  2  0
 60 59  1  0
 62 63  1  0
 62 56  2  0
 63 58  2  0
 64 57  1  0
 65 55  1  0
 67 69  2  0
 68 67  1  0
 70 68  1  0
 71 80  2  0
 71 76  1  0
 72 68  1  0
 72 76  1  0
 73 72  1  0
 74 75  1  0
 74 73  1  0
 75 71  1  0
 76 77  2  0
 77 78  1  0
 79 78  2  0
 80 79  1  0
 81 55  1  0
 81 82  1  0
 81 91  1  0
 82 85  1  0
 83 87  1  0
 83 82  1  0
 84 83  2  0
 87 86  1  0
 89 87  1  0
 89 90  1  0
 89 88  1  0
 91 94  1  1
 91 92  1  0
 93 91  1  0
M  ISO  4  15 100  24 100  53 101  54 101
M  END
>  <TORSDO>  (49) 
F 18

>  <SCORE>  (49) 
-14.384

>  <name>  (49) 
49

>  <ligand_id>  (49) 
49

>  <original_smiles>  (49) 
[H]c1c([H])c([H])c2c(c1[H])C([H])([H])C([H])([H])C([H])([H])C2([H])N([H])C(=O)C1([H])N(C(=O)C([H])(N([H])C(=O)C([H])(N([H])C([H])([H])[H])C([H])([H])[H])C(C([H])([H])[H])(C([H])([H])[H])C([H])([H])[H])C([H])([H])c2c([H])c(OC([H])([H])C3=C(C([H])([H])[H])C([H])([H])N(c4c([H])c([H])c(N(C(=O)N5C([H])([H])C([H])([H])C([H])([H])C([H])(n6nc(-c7c([H])c([H])c(Oc8c([H])c([H])c(F)c([H])c8F)c([H])c7[H])c(C(=O)N([H])[H])c6N([H])[H])C5([H])[H])C([H])([H])[H])c(F)c4[H])C3=O)c([H])c([H])c2C1([H])[H]

>  <smiles>  (49) 
[H]c1c([H])c([H])c2c(c1[H])C([H])([H])C([H])([H])C([H])([H])C2([H])N([H])C(=O)C1([H])N(C(=O)C([H])(N([H])C(=O)C([H])(N([H])C([H])([H])[H])C([H])([H])[H])C(C([H])([H])[H])(C([H])([H])[H])C([H])([H])[H])C([H])([H])c2c([H])c(OC([H])([H])C3=C(C([H])([H])[H])C([H])([H])N(c4c([H])c([H])c(N(C(=O)N5C([H])([H])C([H])([H])C([H])([H])C([H])(n6nc(-c7c([H])c([H])c(Oc8c([H])c([H])c(F)c([H])c8F)c([H])c7[H])c(C(=O)N([H])[H])c6N([H])[H])C5([H])[H])C([H])([H])[H])c(F)c4[H])C3=O)c([H])c([H])c2C1([H])[H]

$$$$
50:0:0
     RDKit          3D

 94102  0  0  1  0  0  0  0  0999 V2000
  -30.5080  -19.0760   22.0310 C   0  0  0  0  0  3  0  0  0  0  0  0
  -29.9730  -20.3740   21.8770 C   0  0  0  0  0  3  0  0  0  0  0  0
  -28.4240  -19.5120   20.2230 C   0  0  0  0  0  3  0  0  0  0  0  0
  -30.0310  -17.9760   21.2690 C   0  0  0  0  0  0  0  0  0  0  0  0
  -28.9410  -20.6120   20.9410 C   0  0  0  0  0  0  0  0  0  0  0  0
  -28.9550  -18.2100   20.3780 C   0  0  0  0  0  0  0  0  0  0  0  0
  -28.4240  -17.2050   19.6330 F   0  0  0  0  0  0  0  0  0  0  0  0
  -30.7720  -14.5070   20.2710 C   0  0  0  0  0  0  0  0  0  0  0  0
  -30.3630  -12.4080   19.0360 C   0  0  0  0  0  2  0  0  0  0  0  0
  -29.3880  -12.6330   17.8670 C   0  0  0  0  0  2  0  0  0  0  0  0
  -27.9290  -12.4960   18.3400 C   0  0  0  0  0  2  0  0  0  0  0  0
  -27.6370  -13.3160   19.6270 C   0  0  0  0  0  3  0  0  0  0  0  0
  -28.7250  -13.0830   20.6990 C   0  0  0  0  0  2  0  0  0  0  0  0
  -30.0260  -13.3830   20.0840 N   0  0  0  0  0  0  0  0  0  0  0  0
  -31.8890  -14.6310   19.7580 O   0  0  0  0  0  0  0  0  0  0  0  0
  -30.7760  -16.6540   21.3280 C   0  0  0  0  0  0  0  0  0  0  0  0
  -30.1600  -15.5350   20.8910 N   0  0  0  0  0  0  0  0  0  0  0  0
  -31.9270  -16.6450   21.7830 O   0  0  0  0  0  0  0  0  0  0  0  0
  -29.1540  -15.5470   20.8570 H   0  0  0  0  0  0  0  0  0  0  0  0
  -25.2590  -13.9210   20.3920 C   0  0  0  0  0  0  0  0  0  0  0  0
  -24.1980  -13.1460   20.7850 C   0  0  0  0  0  0  0  0  0  0  0  0
  -24.6630  -11.7950   20.7520 C   0  0  0  0  0  0  0  0  0  0  0  0
  -26.2990  -13.0390   20.1410 N   0  0  0  0  0  0  0  0  0  0  0  0
  -25.9470  -11.7560   20.4150 N   0  0  0  0  0  0  0  0  0  0  0  0
  -23.9450  -10.5310   20.9650 C   0  0  0  0  0  0  0  0  0  0  0  0
  -24.3990   -9.5720   21.8980 C   0  0  0  0  0  3  0  0  0  0  0  0
  -23.6820   -8.3730   22.0970 C   0  0  0  0  0  3  0  0  0  0  0  0
  -22.4980   -8.1230   21.3650 C   0  0  0  0  0  0  0  0  0  0  0  0
  -22.0640   -9.0690   20.4200 C   0  0  0  0  0  3  0  0  0  0  0  0
  -22.7810  -10.2610   20.2180 C   0  0  0  0  0  3  0  0  0  0  0  0
  -21.7500   -6.9750   21.4730 O   0  0  0  0  0  0  0  0  0  0  0  0
  -21.7250   -6.2400   22.6310 C   0  0  0  0  0  0  0  0  0  0  0  0
  -21.3170   -6.8010   23.8610 C   0  0  0  0  0  3  0  0  0  0  0  0
  -21.2400   -5.9910   25.0130 C   0  0  0  0  0  3  0  0  0  0  0  0
  -21.5610   -4.6220   24.9330 C   0  0  0  0  0  0  0  0  0  0  0  0
  -21.9610   -4.0610   23.7080 C   0  0  0  0  0  3  0  0  0  0  0  0
  -22.0390   -4.8690   22.5590 C   0  0  0  0  0  0  0  0  0  0  0  0
  -22.4050   -4.3190   21.3750 F   0  0  0  0  0  0  0  0  0  0  0  0
  -21.4790   -3.8400   26.0360 F   0  0  0  0  0  0  0  0  0  0  0  0
  -22.8050  -13.6210   21.0800 C   0  0  0  0  0  0  0  0  0  0  0  0
  -22.0950  -12.9250   21.9610 N   0  0  0  0  0  0  0  0  0  0  0  0
  -22.3540  -14.6430   20.5640 O   0  0  0  0  0  0  0  0  0  0  0  0
  -22.4710  -12.0980   22.4000 H   0  0  0  0  0  0  0  0  0  0  0  0
  -21.1600  -13.2230   22.1970 H   0  0  0  0  0  0  0  0  0  0  0  0
  -25.4260  -15.2910   20.2080 N   0  0  0  0  0  0  0  0  0  0  0  0
  -24.6910  -15.9640   20.3890 H   0  0  0  0  0  0  0  0  0  0  0  0
  -26.2770  -15.7210   19.8640 H   0  0  0  0  0  0  0  0  0  0  0  0
  -28.4080  -21.8900   20.6840 N   0  0  0  0  0  0  0  0  0  0  0  0
  -27.8270  -22.0180   19.8580 H   0  0  0  0  0  0  0  0  0  0  0  0
  -28.9980  -23.1310   21.2090 C   0  0  0  0  0  2  0  0  0  0  0  0
  -28.5740  -24.3810   20.4050 C   0  0  0  0  0  0  0  0  0  0  0  0
  -28.1700  -24.2670   19.2390 O   0  0  0  0  0  0  0  0  0  0  0  0
  -28.6680  -25.7570   21.1030 C   0  0  0  0  0  2  0  0  0  0  0  0
  -28.5240  -26.8570   20.1850 O   0  0  0  0  0  0  0  0  0  0  0  0
  -24.6210  -31.9490   23.3130 C   0  0  0  0  0  0  0  0  0  0  0  0
  -27.3370  -27.5480   20.2490 C   0  0  0  0  0  0  0  0  0  0  0  0
  -23.4380  -30.5390   21.6580 C   0  0  0  0  0  3  0  0  0  0  0  0
  -24.9170  -29.0130   20.2480 C   0  0  0  0  0  0  0  0  0  0  0  0
  -25.9570  -30.9320   21.4680 C   0  0  0  0  0  2  0  0  0  0  0  0
  -26.0650  -29.5560   20.8410 C   0  0  0  0  0  0  0  0  0  0  0  0
  -27.2780  -28.8320   20.8370 C   0  0  0  0  0  3  0  0  0  0  0  0
  -26.1730  -27.0100   19.6610 C   0  0  0  0  0  3  0  0  0  0  0  0
  -24.9660  -27.7370   19.6580 C   0  0  0  0  0  3  0  0  0  0  0  0
  -23.6620  -29.8570   20.2820 C   0  0  0  0  0  2  0  0  0  0  0  0
  -24.6900  -31.1550   22.2060 N   0  0  0  0  0  0  0  0  0  0  0  0
  -23.5330  -32.2070   23.8500 O   0  0  0  0  0  0  0  0  0  0  0  0
  -22.7910  -29.5130   22.6170 C   0  0  0  0  0  0  0  0  0  0  0  0
  -21.4680  -29.3170   22.4810 N   0  0  0  0  0  0  0  0  0  0  0  0
  -23.4740  -28.8890   23.4340 O   0  0  0  0  0  0  0  0  0  0  0  0
  -20.9770  -29.8690   21.7910 H   0  0  0  0  0  0  0  0  0  0  0  0
  -18.1020  -28.0990   22.9630 C   0  0  0  0  0  0  0  0  0  0  0  0
  -20.6550  -28.3710   23.2440 C   0  0  0  0  0  3  0  0  0  0  0  0
  -20.7710  -26.9430   22.6610 C   0  0  0  0  0  2  0  0  0  0  0  0
  -19.6740  -26.6200   21.6430 C   0  0  0  0  0  2  0  0  0  0  0  0
  -18.2890  -26.7560   22.2810 C   0  0  0  0  0  2  0  0  0  0  0  0
  -19.2140  -28.8660   23.4010 C   0  0  0  0  0  0  0  0  0  0  0  0
  -18.9870  -30.1250   23.9970 C   0  0  0  0  0  3  0  0  0  0  0  0
  -17.6790  -30.6170   24.1610 C   0  0  0  0  0  3  0  0  0  0  0  0
  -16.5790  -29.8490   23.7390 C   0  0  0  0  0  3  0  0  0  0  0  0
  -16.7920  -28.5910   23.1440 C   0  0  0  0  0  3  0  0  0  0  0  0
  -25.8970  -32.5920   23.9410 C   0  0  0  0  0  3  0  0  0  0  0  0
  -26.3950  -31.8410   25.2370 C   0  0  1  0  0  0  0  0  0  0  0  0
  -25.2850  -31.6190   26.2920 C   0  0  0  0  0  1  0  0  0  0  0  0
  -26.9820  -30.4590   24.8710 C   0  0  0  0  0  1  0  0  0  0  0  0
  -27.5370  -32.6430   25.9050 C   0  0  0  0  0  1  0  0  0  0  0  0
  -25.5840  -33.9950   24.2410 N   0  0  0  0  0  0  0  0  0  0  0  0
  -25.9270  -35.0330   23.4670 C   0  0  0  0  0  0  0  0  0  0  0  0
  -26.6140  -34.9100   22.4490 O   0  0  0  0  0  0  0  0  0  0  0  0
  -24.9790  -34.1660   25.0320 H   0  0  0  0  0  0  0  0  0  0  0  0
  -24.2070  -36.8160   23.0450 C   0  0  0  0  0  1  0  0  0  0  0  0
  -25.4330  -36.4290   23.8880 C   0  0  0  0  0  3  0  0  0  0  0  0
  -27.5570  -37.3250   24.7340 C   0  0  0  0  0  1  0  0  0  0  0  0
  -26.4650  -37.4840   23.7760 N   0  0  0  0  0  0  0  0  0  0  0  0
  -26.0560  -38.4040   23.9130 H   0  0  0  0  0  0  0  0  0  0  0  0
  2  1  1  0
  3  6  2  0
  3  5  1  0
  4 16  1  0
  4  1  2  0
  5  2  2  0
  6  4  1  0
  7  6  1  0
  8 17  1  0
  9 14  1  0
 10 11  1  0
 10  9  1  0
 12 11  1  0
 12 23  1  0
 12 13  1  0
 14  8  1  0
 14 13  1  0
 15  8  2  0
 16 18  2  0
 17 16  1  0
 19 17  1  0
 20 21  2  0
 21 40  1  0
 22 21  1  0
 22 25  1  0
 23 20  1  0
 23 24  1  0
 24 22  2  0
 25 26  1  0
 26 27  2  0
 28 31  1  0
 28 27  1  0
 29 28  2  0
 30 29  1  0
 30 25  2  0
 31 32  1  0
 32 33  1  0
 33 34  2  0
 35 34  1  0
 35 39  1  0
 36 35  2  0
 37 32  2  0
 37 36  1  0
 38 37  1  0
 40 41  1  0
 41 44  1  0
 41 43  1  0
 42 40  2  0
 45 46  1  0
 45 20  1  0
 47 45  1  0
 48  5  1  0
 48 50  1  0
 49 48  1  0
 51 53  1  0
 51 50  1  0
 52 51  2  0
 54 56  1  0
 54 53  1  0
 55 66  2  0
 56 61  1  0
 57 65  1  0
 57 67  1  0
 58 64  1  0
 58 60  1  0
 59 65  1  0
 60 59  1  0
 61 60  2  0
 62 56  2  0
 63 62  1  0
 63 58  2  0
 64 57  1  0
 65 55  1  0
 67 69  2  0
 68 67  1  0
 70 68  1  0
 71 80  2  0
 71 76  1  0
 72 68  1  0
 72 76  1  0
 73 72  1  0
 74 75  1  0
 74 73  1  0
 75 71  1  0
 76 77  2  0
 77 78  1  0
 79 78  2  0
 80 79  1  0
 81 55  1  0
 81 86  1  0
 81 82  1  0
 82 85  1  1
 82 83  1  0
 84 82  1  0
 86 89  1  0
 87 91  1  0
 87 86  1  0
 88 87  2  0
 91 90  1  0
 93 91  1  0
 93 94  1  0
 93 92  1  0
M  ISO  4   8 100  17 100  53 101  54 101
M  END
>  <TORSDO>  (50) 
F 20

>  <SCORE>  (50) 
-13.609

>  <name>  (50) 
50

>  <ligand_id>  (50) 
50

>  <original_smiles>  (50) 
[H]c1c([H])c([H])c2c(c1[H])C([H])([H])C([H])([H])C([H])([H])C2([H])N([H])C(=O)C1([H])N(C(=O)C([H])(N([H])C(=O)C([H])(N([H])C([H])([H])[H])C([H])([H])[H])C(C([H])([H])[H])(C([H])([H])[H])C([H])([H])[H])C([H])([H])c2c([H])c(OC([H])([H])C(=O)C([H])([H])N([H])c3c([H])c([H])c(C(=O)N([H])C(=O)N4C([H])([H])C([H])([H])C([H])([H])C([H])(n5nc(-c6c([H])c([H])c(Oc7c([H])c([H])c(F)c([H])c7F)c([H])c6[H])c(C(=O)N([H])[H])c5N([H])[H])C4([H])[H])c(F)c3[H])c([H])c([H])c2C1([H])[H]

>  <smiles>  (50) 
[H]c1c([H])c([H])c2c(c1[H])C([H])([H])C([H])([H])C([H])([H])C2([H])N([H])C(=O)C1([H])N(C(=O)C([H])(N([H])C(=O)C([H])(N([H])C([H])([H])[H])C([H])([H])[H])C(C([H])([H])[H])(C([H])([H])[H])C([H])([H])[H])C([H])([H])c2c([H])c(OC([H])([H])C(=O)C([H])([H])N([H])c3c([H])c([H])c(C(=O)N([H])C(=O)N4C([H])([H])C([H])([H])C([H])([H])C([H])(n5nc(-c6c([H])c([H])c(Oc7c([H])c([H])c(F)c([H])c7F)c([H])c6[H])c(C(=O)N([H])[H])c5N([H])[H])C4([H])[H])c(F)c3[H])c([H])c([H])c2C1([H])[H]

$$$$
51:0:0
     RDKit          3D

 95104  0  0  1  0  0  0  0  0999 V2000
  -30.0380  -23.8420   21.3210 C   0  0  0  0  0  3  0  0  0  0  0  0
  -28.8440  -22.5110   20.0100 C   0  0  0  0  0  3  0  0  0  0  0  0
  -28.9850  -23.8540   20.3610 C   0  0  0  0  0  0  0  0  0  0  0  0
  -30.4400  -22.5420   21.5220 C   0  0  0  0  0  0  0  0  0  0  0  0
  -29.7190  -21.6560   20.7170 N   0  0  0  0  0  0  0  0  0  0  0  0
  -30.9590  -19.4310   21.0340 C   0  0  0  0  0  3  0  0  0  0  0  0
  -30.9860  -17.9990   21.0510 C   0  0  0  0  0  3  0  0  0  0  0  0
  -28.7030  -19.3960   20.2260 C   0  0  0  0  0  3  0  0  0  0  0  0
  -29.8040  -20.1820   20.6540 C   0  0  0  0  0  0  0  0  0  0  0  0
  -29.8590  -17.2290   20.6630 C   0  0  0  0  0  0  0  0  0  0  0  0
  -28.7250  -17.9600   20.2080 C   0  0  0  0  0  0  0  0  0  0  0  0
  -30.5850  -14.7160   20.5680 C   0  0  0  0  0  0  0  0  0  0  0  0
  -30.4140  -12.4560   19.5400 C   0  0  0  0  0  2  0  0  0  0  0  0
  -29.4970  -12.5560   18.3000 C   0  0  0  0  0  2  0  0  0  0  0  0
  -28.0140  -12.3990   18.6940 C   0  0  0  0  0  2  0  0  0  0  0  0
  -27.6220  -13.2810   19.9090 C   0  0  0  0  0  3  0  0  0  0  0  0
  -28.6550  -13.1510   21.0510 C   0  0  0  0  0  2  0  0  0  0  0  0
  -29.9770  -13.4880   20.4970 N   0  0  0  0  0  0  0  0  0  0  0  0
  -31.7710  -14.8670   20.2570 O   0  0  0  0  0  0  0  0  0  0  0  0
  -29.7390  -15.7730   20.7800 N   0  0  0  0  0  0  0  0  0  0  0  0
  -28.7830  -15.4680   20.8830 H   0  0  0  0  0  0  0  0  0  0  0  0
  -25.2140  -13.8900   20.5680 C   0  0  0  0  0  0  0  0  0  0  0  0
  -24.1340  -13.1230   20.9100 C   0  0  0  0  0  0  0  0  0  0  0  0
  -24.5920  -11.7700   20.9000 C   0  0  0  0  0  0  0  0  0  0  0  0
  -26.2610  -13.0060   20.3640 N   0  0  0  0  0  0  0  0  0  0  0  0
  -25.8920  -11.7260   20.6250 N   0  0  0  0  0  0  0  0  0  0  0  0
  -23.8570  -10.5130   21.0810 C   0  0  0  0  0  0  0  0  0  0  0  0
  -24.2700   -9.5450   22.0240 C   0  0  0  0  0  3  0  0  0  0  0  0
  -23.5350   -8.3520   22.1920 C   0  0  0  0  0  3  0  0  0  0  0  0
  -22.3740   -8.1180   21.4180 C   0  0  0  0  0  0  0  0  0  0  0  0
  -21.9800   -9.0760   20.4670 C   0  0  0  0  0  3  0  0  0  0  0  0
  -22.7150  -10.2600   20.2960 C   0  0  0  0  0  3  0  0  0  0  0  0
  -21.6120   -6.9770   21.4960 O   0  0  0  0  0  0  0  0  0  0  0  0
  -21.5480   -6.2320   22.6450 C   0  0  0  0  0  0  0  0  0  0  0  0
  -21.1020   -6.7830   23.8660 C   0  0  0  0  0  3  0  0  0  0  0  0
  -20.9860   -5.9640   25.0080 C   0  0  0  0  0  3  0  0  0  0  0  0
  -21.3050   -4.5950   24.9280 C   0  0  0  0  0  0  0  0  0  0  0  0
  -21.7440   -4.0440   23.7110 C   0  0  0  0  0  3  0  0  0  0  0  0
  -21.8620   -4.8600   22.5720 C   0  0  0  0  0  0  0  0  0  0  0  0
  -22.2650   -4.3190   21.3970 F   0  0  0  0  0  0  0  0  0  0  0  0
  -21.1850   -3.8060   26.0200 F   0  0  0  0  0  0  0  0  0  0  0  0
  -22.7310  -13.6080   21.1400 C   0  0  0  0  0  0  0  0  0  0  0  0
  -21.9800  -12.9230   21.9950 N   0  0  0  0  0  0  0  0  0  0  0  0
  -22.3090  -14.6290   20.5970 O   0  0  0  0  0  0  0  0  0  0  0  0
  -22.3340  -12.0990   22.4570 H   0  0  0  0  0  0  0  0  0  0  0  0
  -21.0380  -13.2300   22.1920 H   0  0  0  0  0  0  0  0  0  0  0  0
  -25.3840  -15.2580   20.3970 N   0  0  0  0  0  0  0  0  0  0  0  0
  -24.6170  -15.9100   20.5130 H   0  0  0  0  0  0  0  0  0  0  0  0
  -26.2500  -15.7130   20.1300 H   0  0  0  0  0  0  0  0  0  0  0  0
  -26.7180  -17.8640   18.9060 C   0  0  0  0  0  1  0  0  0  0  0  0
  -27.6580  -17.2100   19.7560 O   0  0  0  0  0  0  0  0  0  0  0  0
  -31.3770  -22.0970   22.4020 O   0  0  0  0  0  0  0  0  0  0  0  0
  -31.7290  -22.8530   22.8600 H   0  0  0  0  0  0  0  0  0  0  0  0
  -28.1080  -25.0520   19.8470 C   0  0  0  0  0  2  0  0  0  0  0  0
  -28.3350  -26.4690   20.2470 O   0  0  0  0  0  0  0  0  0  0  0  0
  -24.6150  -31.8940   23.2670 C   0  0  0  0  0  0  0  0  0  0  0  0
  -27.2300  -27.3470   20.1710 C   0  0  0  0  0  0  0  0  0  0  0  0
  -23.4090  -30.5020   21.6250 C   0  0  0  0  0  3  0  0  0  0  0  0
  -24.8600  -28.9700   20.1820 C   0  0  0  0  0  0  0  0  0  0  0  0
  -25.9500  -30.8210   21.4400 C   0  0  0  0  0  2  0  0  0  0  0  0
  -26.0300  -29.4480   20.7830 C   0  0  0  0  0  0  0  0  0  0  0  0
  -27.2160  -28.6460   20.7740 C   0  0  0  0  0  3  0  0  0  0  0  0
  -26.0340  -26.9470   19.5210 C   0  0  0  0  0  3  0  0  0  0  0  0
  -24.8650  -27.7230   19.5430 C   0  0  0  0  0  3  0  0  0  0  0  0
  -23.6210  -29.8390   20.2400 C   0  0  0  0  0  2  0  0  0  0  0  0
  -24.6770  -31.0890   22.1670 N   0  0  0  0  0  0  0  0  0  0  0  0
  -23.5320  -32.1670   23.8050 O   0  0  0  0  0  0  0  0  0  0  0  0
  -22.7510  -29.4780   22.5800 C   0  0  0  0  0  0  0  0  0  0  0  0
  -21.4250  -29.2950   22.4510 N   0  0  0  0  0  0  0  0  0  0  0  0
  -23.4320  -28.8510   23.3970 O   0  0  0  0  0  0  0  0  0  0  0  0
  -20.9360  -29.8500   21.7640 H   0  0  0  0  0  0  0  0  0  0  0  0
  -18.0520  -28.0840   22.9480 C   0  0  0  0  0  0  0  0  0  0  0  0
  -20.6090  -28.3520   23.2190 C   0  0  0  0  0  3  0  0  0  0  0  0
  -20.7170  -26.9230   22.6400 C   0  0  0  0  0  2  0  0  0  0  0  0
  -19.6160  -26.5970   21.6260 C   0  0  0  0  0  2  0  0  0  0  0  0
  -18.2340  -26.7370   22.2700 C   0  0  0  0  0  2  0  0  0  0  0  0
  -19.1680  -28.8490   23.3800 C   0  0  0  0  0  0  0  0  0  0  0  0
  -18.9450  -30.1100   23.9750 C   0  0  0  0  0  3  0  0  0  0  0  0
  -17.6380  -30.6060   24.1430 C   0  0  0  0  0  3  0  0  0  0  0  0
  -16.5370  -29.8380   23.7270 C   0  0  0  0  0  3  0  0  0  0  0  0
  -16.7450  -28.5790   23.1350 C   0  0  0  0  0  3  0  0  0  0  0  0
  -25.8980  -32.5250   23.8890 C   0  0  0  0  0  3  0  0  0  0  0  0
  -26.4080  -31.7580   25.1710 C   0  0  1  0  0  0  0  0  0  0  0  0
  -25.3120  -31.5310   26.2380 C   0  0  0  0  0  1  0  0  0  0  0  0
  -26.9870  -30.3760   24.7900 C   0  0  0  0  0  1  0  0  0  0  0  0
  -27.5620  -32.5510   25.8310 C   0  0  0  0  0  1  0  0  0  0  0  0
  -25.5920  -33.9250   24.2120 N   0  0  0  0  0  0  0  0  0  0  0  0
  -25.9170  -34.9740   23.4440 C   0  0  0  0  0  0  0  0  0  0  0  0
  -26.5790  -34.8630   22.4080 O   0  0  0  0  0  0  0  0  0  0  0  0
  -25.0020  -34.0850   25.0160 H   0  0  0  0  0  0  0  0  0  0  0  0
  -24.1880  -36.7650   23.0920 C   0  0  0  0  0  1  0  0  0  0  0  0
  -25.4350  -36.3650   23.8970 C   0  0  0  0  0  3  0  0  0  0  0  0
  -27.5750  -37.2550   24.7090 C   0  0  0  0  0  1  0  0  0  0  0  0
  -26.4670  -37.4160   23.7700 N   0  0  0  0  0  0  0  0  0  0  0  0
  -26.0630  -38.3380   23.9120 H   0  0  0  0  0  0  0  0  0  0  0  0
  1  4  2  0
  2  3  2  0
  2  5  1  0
  3  1  1  0
  4 52  1  0
  5  4  1  0
  6  7  1  0
  8  9  1  0
  9  5  1  0
  9  6  2  0
 10 20  1  0
 10  7  2  0
 11  8  2  0
 11 10  1  0
 12 20  1  0
 13 18  1  0
 14 15  1  0
 14 13  1  0
 16 15  1  0
 16 25  1  0
 16 17  1  0
 18 12  1  0
 18 17  1  0
 19 12  2  0
 20 21  1  0
 22 23  2  0
 23 42  1  0
 24 23  1  0
 24 27  1  0
 25 22  1  0
 25 26  1  0
 26 24  2  0
 27 28  1  0
 28 29  2  0
 30 33  1  0
 30 29  1  0
 31 30  2  0
 32 31  1  0
 32 27  2  0
 33 34  1  0
 34 35  1  0
 35 36  2  0
 37 36  1  0
 37 41  1  0
 38 37  2  0
 39 34  2  0
 39 38  1  0
 40 39  1  0
 42 43  1  0
 43 46  1  0
 43 45  1  0
 44 42  2  0
 47 48  1  0
 47 22  1  0
 49 47  1  0
 50 51  1  0
 51 11  1  0
 52 53  1  0
 54 55  1  0
 54  3  1  0
 56 67  2  0
 57 55  1  0
 57 62  1  0
 58 66  1  0
 58 68  1  0
 59 65  1  0
 59 61  1  0
 60 66  1  0
 61 60  1  0
 62 61  2  0
 63 64  1  0
 63 57  2  0
 64 59  2  0
 65 58  1  0
 66 56  1  0
 68 70  2  0
 69 68  1  0
 71 69  1  0
 72 81  2  0
 72 77  1  0
 73 69  1  0
 73 77  1  0
 74 73  1  0
 75 76  1  0
 75 74  1  0
 76 72  1  0
 77 78  2  0
 78 79  1  0
 80 79  2  0
 81 80  1  0
 82 56  1  0
 82 87  1  0
 82 83  1  0
 83 86  1  1
 83 84  1  0
 85 83  1  0
 87 90  1  0
 88 92  1  0
 88 87  1  0
 89 88  2  0
 92 91  1  0
 94 92  1  0
 94 95  1  0
 94 93  1  0
M  ISO  4  12 100  20 100  54 101  55 101
M  END
>  <TORSDO>  (51) 
F 20

>  <SCORE>  (51) 
-14.430

>  <name>  (51) 
51

>  <ligand_id>  (51) 
51

>  <original_smiles>  (51) 
[H]Oc1c([H])c(C([H])([H])Oc2c([H])c([H])c3c(c2[H])C([H])([H])N(C(=O)C([H])(N([H])C(=O)C([H])(N([H])C([H])([H])[H])C([H])([H])[H])C(C([H])([H])[H])(C([H])([H])[H])C([H])([H])[H])C([H])(C(=O)N([H])C2([H])c4c([H])c([H])c([H])c([H])c4C([H])([H])C([H])([H])C2([H])[H])C3([H])[H])c([H])n1-c1c([H])c([H])c(N([H])C(=O)N2C([H])([H])C([H])([H])C([H])([H])C([H])(n3nc(-c4c([H])c([H])c(Oc5c([H])c([H])c(F)c([H])c5F)c([H])c4[H])c(C(=O)N([H])[H])c3N([H])[H])C2([H])[H])c(OC([H])([H])[H])c1[H]

>  <smiles>  (51) 
[H]Oc1c([H])c(C([H])([H])Oc2c([H])c([H])c3c(c2[H])C([H])([H])N(C(=O)C([H])(N([H])C(=O)C([H])(N([H])C([H])([H])[H])C([H])([H])[H])C(C([H])([H])[H])(C([H])([H])[H])C([H])([H])[H])C([H])(C(=O)N([H])C2([H])c4c([H])c([H])c([H])c([H])c4C([H])([H])C([H])([H])C2([H])[H])C3([H])[H])c([H])n1-c1c([H])c([H])c(N([H])C(=O)N2C([H])([H])C([H])([H])C([H])([H])C([H])(n3nc(-c4c([H])c([H])c(Oc5c([H])c([H])c(F)c([H])c5F)c([H])c4[H])c(C(=O)N([H])[H])c3N([H])[H])C2([H])[H])c(OC([H])([H])[H])c1[H]

$$$$
52:0:0
     RDKit          3D

 91 99  0  0  1  0  0  0  0  0999 V2000
  -30.7530  -19.6690   19.8490 C   0  0  0  0  0  3  0  0  0  0  0  0
  -30.2200  -20.9940   19.8930 C   0  0  0  0  0  3  0  0  0  0  0  0
  -28.0730  -20.0560   20.3910 C   0  0  0  0  0  3  0  0  0  0  0  0
  -29.9810  -18.4900   20.0960 C   0  0  0  0  0  0  0  0  0  0  0  0
  -28.8570  -21.2350   20.1970 C   0  0  0  0  0  0  0  0  0  0  0  0
  -28.6050  -18.7240   20.3500 C   0  0  0  0  0  0  0  0  0  0  0  0
  -27.7820  -17.6750   20.5970 F   0  0  0  0  0  0  0  0  0  0  0  0
  -30.7350  -14.6620   20.0380 C   0  0  0  0  0  0  0  0  0  0  0  0
  -30.3650  -12.3860   19.1050 C   0  0  0  0  0  2  0  0  0  0  0  0
  -29.3960  -12.4510   17.9080 C   0  0  0  0  0  2  0  0  0  0  0  0
  -27.9420  -12.3250   18.3980 C   0  0  0  0  0  2  0  0  0  0  0  0
  -27.6280  -13.2640   19.5930 C   0  0  0  0  0  3  0  0  0  0  0  0
  -28.7280  -13.2220   20.6780 C   0  0  0  0  0  2  0  0  0  0  0  0
  -30.0060  -13.4980   20.0150 N   0  0  0  0  0  0  0  0  0  0  0  0
  -31.9160  -14.6090   19.6850 O   0  0  0  0  0  0  0  0  0  0  0  0
  -30.7060  -17.1240   20.2460 C   0  0  0  0  0  0  0  0  0  0  0  0
  -30.0950  -15.8810   20.2130 N   0  0  0  0  0  0  0  0  0  0  0  0
  -31.9330  -17.2290   20.3730 O   0  0  0  0  0  0  0  0  0  0  0  0
  -29.0910  -15.8740   20.2730 H   0  0  0  0  0  0  0  0  0  0  0  0
  -25.2970  -13.9120   20.4430 C   0  0  0  0  0  0  0  0  0  0  0  0
  -24.2250  -13.1630   20.8460 C   0  0  0  0  0  0  0  0  0  0  0  0
  -24.6460  -11.7990   20.7730 C   0  0  0  0  0  0  0  0  0  0  0  0
  -26.3020  -13.0070   20.1460 N   0  0  0  0  0  0  0  0  0  0  0  0
  -25.9200  -11.7290   20.4080 N   0  0  0  0  0  0  0  0  0  0  0  0
  -23.8890  -10.5560   20.9740 C   0  0  0  0  0  0  0  0  0  0  0  0
  -24.3260   -9.5620   21.8780 C   0  0  0  0  0  3  0  0  0  0  0  0
  -23.5710   -8.3850   22.0670 C   0  0  0  0  0  3  0  0  0  0  0  0
  -22.3640   -8.1930   21.3540 C   0  0  0  0  0  0  0  0  0  0  0  0
  -21.9450   -9.1740   20.4400 C   0  0  0  0  0  3  0  0  0  0  0  0
  -22.7000  -10.3440   20.2480 C   0  0  0  0  0  3  0  0  0  0  0  0
  -21.5780   -7.0700   21.4560 O   0  0  0  0  0  0  0  0  0  0  0  0
  -21.5570   -6.3070   22.5960 C   0  0  0  0  0  0  0  0  0  0  0  0
  -21.1920   -6.8470   23.8480 C   0  0  0  0  0  3  0  0  0  0  0  0
  -21.1160   -6.0120   24.9800 C   0  0  0  0  0  3  0  0  0  0  0  0
  -21.3950   -4.6380   24.8620 C   0  0  0  0  0  0  0  0  0  0  0  0
  -21.7550   -4.0970   23.6150 C   0  0  0  0  0  3  0  0  0  0  0  0
  -21.8320   -4.9290   22.4840 C   0  0  0  0  0  0  0  0  0  0  0  0
  -22.1580   -4.3990   21.2810 F   0  0  0  0  0  0  0  0  0  0  0  0
  -21.3160   -3.8330   25.9480 F   0  0  0  0  0  0  0  0  0  0  0  0
  -22.8560  -13.6760   21.1840 C   0  0  0  0  0  0  0  0  0  0  0  0
  -22.1490  -12.9940   22.0770 N   0  0  0  0  0  0  0  0  0  0  0  0
  -22.4260  -14.7190   20.6930 O   0  0  0  0  0  0  0  0  0  0  0  0
  -22.5120  -12.1500   22.4970 H   0  0  0  0  0  0  0  0  0  0  0  0
  -21.2320  -13.3190   22.3470 H   0  0  0  0  0  0  0  0  0  0  0  0
  -25.4940  -15.2800   20.2830 N   0  0  0  0  0  0  0  0  0  0  0  0
  -24.7590  -15.9550   20.4600 H   0  0  0  0  0  0  0  0  0  0  0  0
  -26.3520  -15.7080   19.9590 H   0  0  0  0  0  0  0  0  0  0  0  0
  -28.7190  -23.7330   20.1860 C   0  0  0  0  0  3  0  0  0  0  0  0
  -28.2390  -22.5300   20.3760 N   0  0  0  0  0  0  0  0  0  0  0  0
  -27.9150  -25.0360   20.6020 C   0  0  0  0  0  2  0  0  0  0  0  0
  -28.2620  -26.3890   20.0790 O   0  0  0  0  0  0  0  0  0  0  0  0
  -24.5960  -31.8080   23.1660 C   0  0  0  0  0  0  0  0  0  0  0  0
  -27.1910  -27.2940   20.0400 C   0  0  0  0  0  0  0  0  0  0  0  0
  -23.3930  -30.4460   21.4960 C   0  0  0  0  0  3  0  0  0  0  0  0
  -24.8420  -28.9210   20.0420 C   0  0  0  0  0  0  0  0  0  0  0  0
  -25.9340  -30.7570   21.3270 C   0  0  0  0  0  2  0  0  0  0  0  0
  -26.0110  -29.3920   20.6550 C   0  0  0  0  0  0  0  0  0  0  0  0
  -27.1940  -28.5890   20.6460 C   0  0  0  0  0  3  0  0  0  0  0  0
  -26.0090  -26.8900   19.3840 C   0  0  0  0  0  3  0  0  0  0  0  0
  -24.8440  -27.6760   19.3950 C   0  0  0  0  0  3  0  0  0  0  0  0
  -23.6080  -29.7980   20.1030 C   0  0  0  0  0  2  0  0  0  0  0  0
  -24.6590  -31.0190   22.0530 N   0  0  0  0  0  0  0  0  0  0  0  0
  -23.5110  -32.0790   23.7020 O   0  0  0  0  0  0  0  0  0  0  0  0
  -22.7230  -29.4130   22.4340 C   0  0  0  0  0  0  0  0  0  0  0  0
  -21.3920  -29.2630   22.3190 N   0  0  0  0  0  0  0  0  0  0  0  0
  -23.3990  -28.7500   23.2240 O   0  0  0  0  0  0  0  0  0  0  0  0
  -20.9050  -29.8480   21.6550 H   0  0  0  0  0  0  0  0  0  0  0  0
  -17.9950  -28.1450   22.8590 C   0  0  0  0  0  0  0  0  0  0  0  0
  -20.5650  -28.3190   23.0740 C   0  0  0  0  0  3  0  0  0  0  0  0
  -20.6110  -26.9090   22.4400 C   0  0  0  0  0  2  0  0  0  0  0  0
  -19.4750  -26.6600   21.4430 C   0  0  0  0  0  2  0  0  0  0  0  0
  -18.1140  -26.8190   22.1270 C   0  0  0  0  0  2  0  0  0  0  0  0
  -19.1450  -28.8570   23.2890 C   0  0  0  0  0  0  0  0  0  0  0  0
  -18.9790  -30.1010   23.9360 C   0  0  0  0  0  3  0  0  0  0  0  0
  -17.6930  -30.6330   24.1530 C   0  0  0  0  0  3  0  0  0  0  0  0
  -16.5570  -29.9170   23.7380 C   0  0  0  0  0  3  0  0  0  0  0  0
  -16.7090  -28.6740   23.0970 C   0  0  0  0  0  3  0  0  0  0  0  0
  -25.8780  -32.4240   23.8040 C   0  0  0  0  0  3  0  0  0  0  0  0
  -25.5740  -33.8200   24.1530 N   0  0  0  0  0  0  0  0  0  0  0  0
  -25.9120  -34.8820   23.4100 C   0  0  0  0  0  0  0  0  0  0  0  0
  -26.5820  -34.7910   22.3790 O   0  0  0  0  0  0  0  0  0  0  0  0
  -24.9810  -33.9650   24.9570 H   0  0  0  0  0  0  0  0  0  0  0  0
  -24.1910  -36.6870   23.0830 C   0  0  0  0  0  1  0  0  0  0  0  0
  -25.4300  -36.2660   23.8880 C   0  0  0  0  0  3  0  0  0  0  0  0
  -27.5660  -37.1340   24.7340 C   0  0  0  0  0  1  0  0  0  0  0  0
  -26.4680  -37.3170   23.7890 N   0  0  0  0  0  0  0  0  0  0  0  0
  -26.0640  -38.2360   23.9460 H   0  0  0  0  0  0  0  0  0  0  0  0
  -26.3830  -31.6310   25.0720 C   0  0  1  0  0  0  0  0  0  0  0  0
  -25.2820  -31.3860   26.1290 C   0  0  0  0  0  1  0  0  0  0  0  0
  -26.9610  -30.2580   24.6640 C   0  0  0  0  0  1  0  0  0  0  0  0
  -27.5340  -32.4110   25.7510 C   0  0  0  0  0  1  0  0  0  0  0  0
  1  2  2  0
  1  4  1  0
  2  5  1  0
  4 16  1  0
  4  6  2  0
  5 49  1  0
  5  3  2  0
  6  3  1  0
  6  7  1  0
  8 17  1  0
  9 14  1  0
 10 11  1  0
 10  9  1  0
 12 11  1  0
 12 23  1  0
 12 13  1  0
 14  8  1  0
 14 13  1  0
 15  8  2  0
 16 18  2  0
 17 16  1  0
 17 19  1  0
 20 21  2  0
 21 40  1  0
 22 21  1  0
 22 25  1  0
 23 24  1  0
 23 20  1  0
 24 22  2  0
 25 26  1  0
 26 27  2  0
 28 31  1  0
 28 27  1  0
 29 28  2  0
 30 29  1  0
 30 25  2  0
 31 32  1  0
 32 33  1  0
 33 34  2  0
 35 34  1  0
 35 39  1  0
 36 35  2  0
 37 32  2  0
 37 36  1  0
 38 37  1  0
 40 41  1  0
 41 44  1  0
 41 43  1  0
 42 40  2  0
 45 20  1  0
 45 46  1  0
 47 45  1  0
 48 49  2  0
 48 50  1  0
 51 50  1  0
 52 63  2  0
 53 51  1  0
 53 58  1  0
 54 62  1  0
 54 64  1  0
 55 61  1  0
 55 57  1  0
 56 62  1  0
 57 56  1  0
 58 57  2  0
 59 60  1  0
 59 53  2  0
 60 55  2  0
 61 54  1  0
 62 52  1  0
 64 66  2  0
 65 64  1  0
 67 65  1  0
 68 77  2  0
 68 73  1  0
 69 65  1  0
 69 73  1  0
 70 69  1  0
 71 72  1  0
 71 70  1  0
 72 68  1  0
 73 74  2  0
 74 75  1  0
 76 75  2  0
 77 76  1  0
 78 52  1  0
 78 79  1  0
 78 88  1  0
 79 82  1  0
 80 84  1  0
 80 79  1  0
 81 80  2  0
 84 83  1  0
 86 84  1  0
 86 87  1  0
 86 85  1  0
 88 91  1  1
 88 89  1  0
 90 88  1  0
M  ISO  4   8 100  17 100  50 101  51 101
M  END
>  <TORSDO>  (52) 
F 18

>  <SCORE>  (52) 
-14.738

>  <name>  (52) 
52

>  <ligand_id>  (52) 
52

>  <original_smiles>  (52) 
[H]C(=Nc1c([H])c([H])c(C(=O)N([H])C(=O)N2C([H])([H])C([H])([H])C([H])([H])C([H])(n3nc(-c4c([H])c([H])c(Oc5c([H])c([H])c(F)c([H])c5F)c([H])c4[H])c(C(=O)N([H])[H])c3N([H])[H])C2([H])[H])c(F)c1[H])C([H])([H])Oc1c([H])c([H])c2c(c1[H])C([H])([H])N(C(=O)C([H])(N([H])C(=O)C([H])(N([H])C([H])([H])[H])C([H])([H])[H])C(C([H])([H])[H])(C([H])([H])[H])C([H])([H])[H])C([H])(C(=O)N([H])C1([H])c3c([H])c([H])c([H])c([H])c3C([H])([H])C([H])([H])C1([H])[H])C2([H])[H]

>  <smiles>  (52) 
[H]C(=Nc1c([H])c([H])c(C(=O)N([H])C(=O)N2C([H])([H])C([H])([H])C([H])([H])C([H])(n3nc(-c4c([H])c([H])c(Oc5c([H])c([H])c(F)c([H])c5F)c([H])c4[H])c(C(=O)N([H])[H])c3N([H])[H])C2([H])[H])c(F)c1[H])C([H])([H])Oc1c([H])c([H])c2c(c1[H])C([H])([H])N(C(=O)C([H])(N([H])C(=O)C([H])(N([H])C([H])([H])[H])C([H])([H])[H])C(C([H])([H])[H])(C([H])([H])[H])C([H])([H])[H])C([H])(C(=O)N([H])C1([H])c3c([H])c([H])c([H])c([H])c3C([H])([H])C([H])([H])C1([H])[H])C2([H])[H]

$$$$
53:0:0
     RDKit          3D

 94102  0  0  1  0  0  0  0  0999 V2000
  -28.6490  -22.6250   20.1870 C   0  0  0  0  0  0  0  0  0  0  0  0
  -29.4060  -21.6770   20.8430 N   0  0  0  0  0  0  0  0  0  0  0  0
  -27.8760  -22.2930   19.2860 O   0  0  0  0  0  0  0  0  0  0  0  0
  -30.1110  -22.0510   21.4610 H   0  0  0  0  0  0  0  0  0  0  0  0
  -28.6660  -17.9780   19.9510 C   0  0  0  0  0  3  0  0  0  0  0  0
  -28.5070  -19.3910   20.0700 C   0  0  0  0  0  3  0  0  0  0  0  0
  -30.7230  -18.0680   21.1800 C   0  0  0  0  0  3  0  0  0  0  0  0
  -29.7940  -17.2650   20.4600 C   0  0  0  0  0  0  0  0  0  0  0  0
  -29.4720  -20.2050   20.7200 C   0  0  0  0  0  0  0  0  0  0  0  0
  -30.5620  -19.4900   21.3020 C   0  0  0  0  0  0  0  0  0  0  0  0
  -31.5070  -20.1970   21.9690 F   0  0  0  0  0  0  0  0  0  0  0  0
  -30.7130  -14.8140   20.6110 C   0  0  0  0  0  0  0  0  0  0  0  0
  -30.5720  -12.4840   19.7370 C   0  0  0  0  0  2  0  0  0  0  0  0
  -29.6920  -12.4270   18.4670 C   0  0  0  0  0  2  0  0  0  0  0  0
  -28.1940  -12.3390   18.8220 C   0  0  0  0  0  2  0  0  0  0  0  0
  -27.7560  -13.2880   19.9720 C   0  0  0  0  0  3  0  0  0  0  0  0
  -28.7620  -13.2790   21.1420 C   0  0  0  0  0  2  0  0  0  0  0  0
  -30.0810  -13.5920   20.5800 N   0  0  0  0  0  0  0  0  0  0  0  0
  -31.9450  -14.8690   20.5840 O   0  0  0  0  0  0  0  0  0  0  0  0
  -30.0170  -15.7970   18.5500 C   0  0  0  0  0  1  0  0  0  0  0  0
  -30.0080  -15.8650   20.0270 N   0  0  0  0  0  0  0  0  0  0  0  0
  -25.3340  -13.8950   20.5640 C   0  0  0  0  0  0  0  0  0  0  0  0
  -24.2500  -13.1250   20.8860 C   0  0  0  0  0  0  0  0  0  0  0  0
  -24.7170  -11.7750   20.9150 C   0  0  0  0  0  0  0  0  0  0  0  0
  -26.3920  -13.0120   20.4080 N   0  0  0  0  0  0  0  0  0  0  0  0
  -26.0240  -11.7360   20.6870 N   0  0  0  0  0  0  0  0  0  0  0  0
  -23.9860  -10.5140   21.0890 C   0  0  0  0  0  0  0  0  0  0  0  0
  -24.3830   -9.5570   22.0480 C   0  0  0  0  0  3  0  0  0  0  0  0
  -23.6520   -8.3600   22.2100 C   0  0  0  0  0  3  0  0  0  0  0  0
  -22.5100   -8.1130   21.4110 C   0  0  0  0  0  0  0  0  0  0  0  0
  -22.1340   -9.0590   20.4410 C   0  0  0  0  0  3  0  0  0  0  0  0
  -22.8650  -10.2460   20.2780 C   0  0  0  0  0  3  0  0  0  0  0  0
  -21.7530   -6.9680   21.4810 O   0  0  0  0  0  0  0  0  0  0  0  0
  -21.6680   -6.2320   22.6360 C   0  0  0  0  0  0  0  0  0  0  0  0
  -21.2080   -6.7940   23.8460 C   0  0  0  0  0  3  0  0  0  0  0  0
  -21.0710   -5.9840   24.9910 C   0  0  0  0  0  3  0  0  0  0  0  0
  -21.3830   -4.6130   24.9260 C   0  0  0  0  0  0  0  0  0  0  0  0
  -21.8360   -4.0500   23.7200 C   0  0  0  0  0  3  0  0  0  0  0  0
  -21.9750   -4.8570   22.5770 C   0  0  0  0  0  0  0  0  0  0  0  0
  -22.3920   -4.3060   21.4120 F   0  0  0  0  0  0  0  0  0  0  0  0
  -21.2440   -3.8330   26.0230 F   0  0  0  0  0  0  0  0  0  0  0  0
  -22.8380  -13.6020   21.0630 C   0  0  0  0  0  0  0  0  0  0  0  0
  -22.0620  -12.9230   21.8990 N   0  0  0  0  0  0  0  0  0  0  0  0
  -22.4290  -14.6140   20.4950 O   0  0  0  0  0  0  0  0  0  0  0  0
  -22.4050  -12.1050   22.3820 H   0  0  0  0  0  0  0  0  0  0  0  0
  -21.1120  -13.2240   22.0610 H   0  0  0  0  0  0  0  0  0  0  0  0
  -25.5070  -15.2620   20.3660 N   0  0  0  0  0  0  0  0  0  0  0  0
  -24.7400  -15.9210   20.4300 H   0  0  0  0  0  0  0  0  0  0  0  0
  -26.3860  -15.6960   20.1170 H   0  0  0  0  0  0  0  0  0  0  0  0
  -28.2620  -25.1080   19.8900 C   0  0  0  0  0  3  0  0  0  0  0  0
  -28.8140  -24.0650   20.6090 C   0  0  0  0  0  0  0  0  0  0  0  0
  -29.4910  -24.3390   21.7330 O   0  0  0  0  0  0  0  0  0  0  0  0
  -29.5520  -23.5360   22.2340 H   0  0  0  0  0  0  0  0  0  0  0  0
  -28.3320  -26.4970   20.1740 O   0  0  0  0  0  0  0  0  0  0  0  0
  -24.5500  -31.8890   23.1510 C   0  0  0  0  0  0  0  0  0  0  0  0
  -27.1990  -27.3340   20.1040 C   0  0  0  0  0  0  0  0  0  0  0  0
  -23.3570  -30.4780   21.5140 C   0  0  0  0  0  3  0  0  0  0  0  0
  -24.8190  -28.9380   20.0890 C   0  0  0  0  0  0  0  0  0  0  0  0
  -25.8950  -30.8130   21.3310 C   0  0  0  0  0  2  0  0  0  0  0  0
  -25.9840  -29.4340   20.6860 C   0  0  0  0  0  0  0  0  0  0  0  0
  -27.1730  -28.6420   20.6870 C   0  0  0  0  0  3  0  0  0  0  0  0
  -26.0030  -26.8950   19.4840 C   0  0  0  0  0  3  0  0  0  0  0  0
  -24.8310  -27.6750   19.4800 C   0  0  0  0  0  3  0  0  0  0  0  0
  -23.5760  -29.8030   20.1350 C   0  0  0  0  0  2  0  0  0  0  0  0
  -24.6190  -31.0790   22.0550 N   0  0  0  0  0  0  0  0  0  0  0  0
  -23.4650  -32.1590   23.6860 O   0  0  0  0  0  0  0  0  0  0  0  0
  -22.7030  -29.4580   22.4770 C   0  0  0  0  0  0  0  0  0  0  0  0
  -21.3730  -29.2910   22.3710 N   0  0  0  0  0  0  0  0  0  0  0  0
  -23.3900  -28.8200   23.2790 O   0  0  0  0  0  0  0  0  0  0  0  0
  -20.8790  -29.8580   21.6960 H   0  0  0  0  0  0  0  0  0  0  0  0
  -17.9940  -28.1260   22.9250 C   0  0  0  0  0  0  0  0  0  0  0  0
  -20.5600  -28.3540   23.1470 C   0  0  0  0  0  3  0  0  0  0  0  0
  -20.6350  -26.9280   22.5540 C   0  0  0  0  0  2  0  0  0  0  0  0
  -19.5090  -26.6280   21.5580 C   0  0  0  0  0  2  0  0  0  0  0  0
  -18.1420  -26.7820   22.2320 C   0  0  0  0  0  2  0  0  0  0  0  0
  -19.1290  -28.8710   23.3410 C   0  0  0  0  0  0  0  0  0  0  0  0
  -18.9350  -30.1300   23.9520 C   0  0  0  0  0  3  0  0  0  0  0  0
  -17.6400  -30.6430   24.1480 C   0  0  0  0  0  3  0  0  0  0  0  0
  -16.5190  -29.8950   23.7480 C   0  0  0  0  0  3  0  0  0  0  0  0
  -16.6970  -28.6370   23.1420 C   0  0  0  0  0  3  0  0  0  0  0  0
  -25.8280  -32.5340   23.7720 C   0  0  0  0  0  3  0  0  0  0  0  0
  -26.3620  -31.7580   25.0370 C   0  0  1  0  0  0  0  0  0  0  0  0
  -25.2790  -31.4970   26.1110 C   0  0  0  0  0  1  0  0  0  0  0  0
  -26.9600  -30.3910   24.6310 C   0  0  0  0  0  1  0  0  0  0  0  0
  -27.5070  -32.5590   25.7000 C   0  0  0  0  0  1  0  0  0  0  0  0
  -25.5010  -33.9240   24.1180 N   0  0  0  0  0  0  0  0  0  0  0  0
  -25.8310  -34.9920   23.3790 C   0  0  0  0  0  0  0  0  0  0  0  0
  -26.5120  -34.9100   22.3540 O   0  0  0  0  0  0  0  0  0  0  0  0
  -24.8950  -34.0600   24.9140 H   0  0  0  0  0  0  0  0  0  0  0  0
  -24.1050  -36.7850   23.0170 C   0  0  0  0  0  1  0  0  0  0  0  0
  -25.3260  -36.3690   23.8530 C   0  0  0  0  0  3  0  0  0  0  0  0
  -27.4350  -37.2440   24.7570 C   0  0  0  0  0  1  0  0  0  0  0  0
  -26.3560  -37.4270   23.7880 N   0  0  0  0  0  0  0  0  0  0  0  0
  -25.9430  -38.3430   23.9430 H   0  0  0  0  0  0  0  0  0  0  0  0
  1 51  1  0
  1  2  1  0
  2  4  1  0
  3  1  2  0
  5  6  2  0
  5  8  1  0
  6  9  1  0
  7 10  1  0
  8  7  2  0
  9  2  1  0
  9 10  2  0
 10 11  1  0
 13 18  1  0
 14 15  1  0
 14 13  1  0
 16 15  1  0
 16 25  1  0
 16 17  1  0
 18 12  1  0
 18 17  1  0
 19 12  2  0
 20 21  1  0
 21  8  1  0
 21 12  1  0
 22 23  2  0
 23 24  1  0
 23 42  1  0
 24 27  1  0
 25 22  1  0
 25 26  1  0
 26 24  2  0
 27 28  1  0
 28 29  2  0
 30 33  1  0
 30 29  1  0
 31 30  2  0
 32 31  1  0
 32 27  2  0
 33 34  1  0
 34 35  1  0
 35 36  2  0
 37 36  1  0
 37 41  1  0
 38 37  2  0
 39 34  2  0
 39 38  1  0
 40 39  1  0
 42 43  1  0
 43 46  1  0
 43 45  1  0
 44 42  2  0
 47 48  1  0
 47 22  1  0
 49 47  1  0
 50 54  1  0
 50 51  2  0
 51 52  1  0
 52 53  1  0
 55 66  2  0
 56 54  1  0
 56 61  1  0
 57 65  1  0
 57 67  1  0
 58 64  1  0
 58 60  1  0
 59 65  1  0
 60 61  2  0
 60 59  1  0
 62 56  2  0
 63 62  1  0
 63 58  2  0
 64 57  1  0
 65 55  1  0
 67 69  2  0
 68 67  1  0
 70 68  1  0
 71 80  2  0
 71 76  1  0
 72 68  1  0
 72 76  1  0
 73 72  1  0
 74 75  1  0
 74 73  1  0
 75 71  1  0
 76 77  2  0
 77 78  1  0
 79 78  2  0
 80 79  1  0
 81 55  1  0
 81 86  1  0
 81 82  1  0
 82 85  1  1
 82 83  1  0
 84 82  1  0
 86 89  1  0
 87 91  1  0
 87 86  1  0
 88 87  2  0
 91 90  1  0
 93 91  1  0
 93 94  1  0
 93 92  1  0
M  ISO  4  12 100  21 100  50 101  54 101
M  END
>  <TORSDO>  (53) 
F 19

>  <SCORE>  (53) 
-14.436

>  <name>  (53) 
53

>  <ligand_id>  (53) 
53

>  <original_smiles>  (53) 
[H]OC(C(=O)N([H])c1c([H])c([H])c(N(C(=O)N2C([H])([H])C([H])([H])C([H])([H])C([H])(n3nc(-c4c([H])c([H])c(Oc5c([H])c([H])c(F)c([H])c5F)c([H])c4[H])c(C(=O)N([H])[H])c3N([H])[H])C2([H])[H])C([H])([H])[H])c([H])c1F)=C([H])Oc1c([H])c([H])c2c(c1[H])C([H])([H])N(C(=O)C([H])(N([H])C(=O)C([H])(N([H])C([H])([H])[H])C([H])([H])[H])C(C([H])([H])[H])(C([H])([H])[H])C([H])([H])[H])C([H])(C(=O)N([H])C1([H])c3c([H])c([H])c([H])c([H])c3C([H])([H])C([H])([H])C1([H])[H])C2([H])[H]

>  <smiles>  (53) 
[H]OC(C(=O)N([H])c1c([H])c([H])c(N(C(=O)N2C([H])([H])C([H])([H])C([H])([H])C([H])(n3nc(-c4c([H])c([H])c(Oc5c([H])c([H])c(F)c([H])c5F)c([H])c4[H])c(C(=O)N([H])[H])c3N([H])[H])C2([H])[H])C([H])([H])[H])c([H])c1F)=C([H])Oc1c([H])c([H])c2c(c1[H])C([H])([H])N(C(=O)C([H])(N([H])C(=O)C([H])(N([H])C([H])([H])[H])C([H])([H])[H])C(C([H])([H])[H])(C([H])([H])[H])C([H])([H])[H])C([H])(C(=O)N([H])C1([H])c3c([H])c([H])c([H])c([H])c3C([H])([H])C([H])([H])C1([H])[H])C2([H])[H]

$$$$
54:0:0
     RDKit          3D

 95103  0  0  1  0  0  0  0  0999 V2000
  -29.6200  -20.7310   20.4790 C   0  0  0  0  0  0  0  0  0  0  0  0
  -29.4300  -21.7710   21.3270 N   0  0  0  0  0  0  0  0  0  0  0  0
  -29.5570  -20.8460   19.2550 O   0  0  0  0  0  0  0  0  0  0  0  0
  -29.3500  -21.4960   22.2960 H   0  0  0  0  0  0  0  0  0  0  0  0
  -30.7630  -19.3730   22.2960 C   0  0  0  0  0  3  0  0  0  0  0  0
  -31.2140  -18.1590   22.8530 C   0  0  0  0  0  3  0  0  0  0  0  0
  -29.7040  -18.1360   20.4850 C   0  0  0  0  0  3  0  0  0  0  0  0
  -29.9970  -19.3910   21.1080 C   0  0  0  0  0  0  0  0  0  0  0  0
  -30.1730  -16.9020   21.0370 C   0  0  0  0  0  0  0  0  0  0  0  0
  -30.9210  -16.9320   22.2320 C   0  0  0  0  0  0  0  0  0  0  0  0
  -31.3340  -15.7780   22.8100 F   0  0  0  0  0  0  0  0  0  0  0  0
  -30.5850  -14.5940   20.1250 C   0  0  0  0  0  0  0  0  0  0  0  0
  -30.2800  -12.4390   18.9390 C   0  0  0  0  0  2  0  0  0  0  0  0
  -29.2740  -12.6410   17.7850 C   0  0  0  0  0  2  0  0  0  0  0  0
  -27.8200  -12.4920   18.2880 C   0  0  0  0  0  2  0  0  0  0  0  0
  -27.5410  -13.3080   19.5780 C   0  0  0  0  0  3  0  0  0  0  0  0
  -28.6490  -13.0710   20.6270 C   0  0  0  0  0  2  0  0  0  0  0  0
  -29.9350  -13.4030   19.9950 N   0  0  0  0  0  0  0  0  0  0  0  0
  -31.7280  -14.7760   19.6920 O   0  0  0  0  0  0  0  0  0  0  0  0
  -29.7900  -15.6290   20.4920 N   0  0  0  0  0  0  0  0  0  0  0  0
  -28.8180  -15.3890   20.6030 H   0  0  0  0  0  0  0  0  0  0  0  0
  -25.1910  -13.9190   20.4230 C   0  0  0  0  0  0  0  0  0  0  0  0
  -24.1380  -13.1480   20.8340 C   0  0  0  0  0  0  0  0  0  0  0  0
  -24.5870  -11.7940   20.7580 C   0  0  0  0  0  0  0  0  0  0  0  0
  -26.2140  -13.0350   20.1200 N   0  0  0  0  0  0  0  0  0  0  0  0
  -25.8590  -11.7510   20.3820 N   0  0  0  0  0  0  0  0  0  0  0  0
  -23.8640  -10.5340   20.9670 C   0  0  0  0  0  0  0  0  0  0  0  0
  -24.3250   -9.5650   21.8840 C   0  0  0  0  0  3  0  0  0  0  0  0
  -23.6040   -8.3660   22.0790 C   0  0  0  0  0  3  0  0  0  0  0  0
  -22.4100   -8.1300   21.3570 C   0  0  0  0  0  0  0  0  0  0  0  0
  -21.9680   -9.0900   20.4300 C   0  0  0  0  0  3  0  0  0  0  0  0
  -22.6870  -10.2810   20.2330 C   0  0  0  0  0  3  0  0  0  0  0  0
  -21.6580   -6.9850   21.4620 O   0  0  0  0  0  0  0  0  0  0  0  0
  -21.6280   -6.2480   22.6190 C   0  0  0  0  0  0  0  0  0  0  0  0
  -21.2240   -6.8100   23.8490 C   0  0  0  0  0  3  0  0  0  0  0  0
  -21.1400   -5.9980   24.9980 C   0  0  0  0  0  3  0  0  0  0  0  0
  -21.4490   -4.6260   24.9190 C   0  0  0  0  0  0  0  0  0  0  0  0
  -21.8470   -4.0660   23.6920 C   0  0  0  0  0  3  0  0  0  0  0  0
  -21.9340   -4.8740   22.5460 C   0  0  0  0  0  0  0  0  0  0  0  0
  -22.2970   -4.3230   21.3620 F   0  0  0  0  0  0  0  0  0  0  0  0
  -21.3610   -3.8470   26.0210 F   0  0  0  0  0  0  0  0  0  0  0  0
  -22.7600  -13.6310   21.1810 C   0  0  0  0  0  0  0  0  0  0  0  0
  -22.0680  -12.9270   22.0690 N   0  0  0  0  0  0  0  0  0  0  0  0
  -22.3050  -14.6670   20.6990 O   0  0  0  0  0  0  0  0  0  0  0  0
  -22.4510  -12.0920   22.4880 H   0  0  0  0  0  0  0  0  0  0  0  0
  -21.1450  -13.2350   22.3410 H   0  0  0  0  0  0  0  0  0  0  0  0
  -25.3550  -15.2910   20.2560 N   0  0  0  0  0  0  0  0  0  0  0  0
  -24.5880  -15.9380   20.4010 H   0  0  0  0  0  0  0  0  0  0  0  0
  -26.1650  -15.7290   19.8380 H   0  0  0  0  0  0  0  0  0  0  0  0
  -31.0380  -23.5050   20.4320 C   0  0  0  0  0  1  0  0  0  0  0  0
  -29.6980  -23.2280   21.1400 C   0  0  0  0  0  3  0  0  0  0  0  0
  -28.5390  -24.1470   20.6300 C   0  0  0  0  0  0  0  0  0  0  0  0
  -27.6980  -23.7620   19.8130 O   0  0  0  0  0  0  0  0  0  0  0  0
  -28.4690  -25.5990   21.2000 C   0  0  0  0  0  2  0  0  0  0  0  0
  -28.4160  -26.6390   20.1910 O   0  0  0  0  0  0  0  0  0  0  0  0
  -24.6000  -31.8890   23.2230 C   0  0  0  0  0  0  0  0  0  0  0  0
  -27.2740  -27.4140   20.2010 C   0  0  0  0  0  0  0  0  0  0  0  0
  -23.4120  -30.4780   21.5760 C   0  0  0  0  0  3  0  0  0  0  0  0
  -24.8860  -28.9360   20.1700 C   0  0  0  0  0  0  0  0  0  0  0  0
  -25.9410  -30.8380   21.4000 C   0  0  0  0  0  2  0  0  0  0  0  0
  -26.0380  -29.4610   20.7690 C   0  0  0  0  0  0  0  0  0  0  0  0
  -27.2400  -28.7080   20.7780 C   0  0  0  0  0  3  0  0  0  0  0  0
  -26.1070  -26.9110   19.5930 C   0  0  0  0  0  3  0  0  0  0  0  0
  -24.9160  -27.6630   19.5760 C   0  0  0  0  0  3  0  0  0  0  0  0
  -23.6390  -29.7950   20.2010 C   0  0  0  0  0  2  0  0  0  0  0  0
  -24.6680  -31.0840   22.1260 N   0  0  0  0  0  0  0  0  0  0  0  0
  -23.5130  -32.1590   23.7540 O   0  0  0  0  0  0  0  0  0  0  0  0
  -22.7560  -29.4580   22.5350 C   0  0  0  0  0  0  0  0  0  0  0  0
  -21.4320  -29.2720   22.4010 N   0  0  0  0  0  0  0  0  0  0  0  0
  -23.4350  -28.8360   23.3580 O   0  0  0  0  0  0  0  0  0  0  0  0
  -20.9440  -29.8230   21.7080 H   0  0  0  0  0  0  0  0  0  0  0  0
  -18.0550  -28.0810   22.8920 C   0  0  0  0  0  0  0  0  0  0  0  0
  -20.6120  -28.3340   23.1700 C   0  0  0  0  0  3  0  0  0  0  0  0
  -20.7160  -26.9040   22.5910 C   0  0  0  0  0  2  0  0  0  0  0  0
  -19.6150  -26.5850   21.5750 C   0  0  0  0  0  2  0  0  0  0  0  0
  -18.2320  -26.7310   22.2160 C   0  0  0  0  0  2  0  0  0  0  0  0
  -19.1740  -28.8410   23.3260 C   0  0  0  0  0  0  0  0  0  0  0  0
  -18.9560  -30.1020   23.9190 C   0  0  0  0  0  3  0  0  0  0  0  0
  -17.6520  -30.6070   24.0800 C   0  0  0  0  0  3  0  0  0  0  0  0
  -16.5470  -29.8450   23.6620 C   0  0  0  0  0  3  0  0  0  0  0  0
  -16.7500  -28.5830   23.0750 C   0  0  0  0  0  3  0  0  0  0  0  0
  -25.8780  -32.5290   23.8490 C   0  0  0  0  0  3  0  0  0  0  0  0
  -26.3950  -31.7610   25.1280 C   0  0  1  0  0  0  0  0  0  0  0  0
  -25.2990  -31.5200   26.1920 C   0  0  0  0  0  1  0  0  0  0  0  0
  -26.9860  -30.3860   24.7390 C   0  0  0  0  0  1  0  0  0  0  0  0
  -27.5390  -32.5620   25.7920 C   0  0  0  0  0  1  0  0  0  0  0  0
  -25.5600  -33.9260   24.1770 N   0  0  0  0  0  0  0  0  0  0  0  0
  -25.8960  -34.9780   23.4200 C   0  0  0  0  0  0  0  0  0  0  0  0
  -26.5760  -34.8780   22.3960 O   0  0  0  0  0  0  0  0  0  0  0  0
  -24.9550  -34.0770   24.9700 H   0  0  0  0  0  0  0  0  0  0  0  0
  -24.1650  -36.7650   23.0440 C   0  0  0  0  0  1  0  0  0  0  0  0
  -25.3960  -36.3640   23.8730 C   0  0  0  0  0  3  0  0  0  0  0  0
  -27.5170  -37.2530   24.7330 C   0  0  0  0  0  1  0  0  0  0  0  0
  -26.4270  -37.4210   23.7750 N   0  0  0  0  0  0  0  0  0  0  0  0
  -26.0160  -38.3390   23.9220 H   0  0  0  0  0  0  0  0  0  0  0  0
  1  8  1  0
  1  2  1  0
  2  4  1  0
  3  1  2  0
  5  6  1  0
  7  9  2  0
  7  8  1  0
  8  5  2  0
  9 10  1  0
 10 11  1  0
 10  6  2  0
 12 20  1  0
 13 18  1  0
 14 15  1  0
 14 13  1  0
 16 15  1  0
 16 25  1  0
 16 17  1  0
 18 12  1  0
 18 17  1  0
 19 12  2  0
 20 21  1  0
 20  9  1  0
 22 23  2  0
 23 42  1  0
 24 23  1  0
 24 27  1  0
 25 26  1  0
 25 22  1  0
 26 24  2  0
 27 28  1  0
 28 29  2  0
 30 33  1  0
 30 29  1  0
 31 30  2  0
 32 31  1  0
 32 27  2  0
 33 34  1  0
 34 35  1  0
 35 36  2  0
 37 36  1  0
 37 41  1  0
 38 37  2  0
 39 34  2  0
 39 38  1  0
 40 39  1  0
 42 43  1  0
 43 46  1  0
 43 45  1  0
 44 42  2  0
 47 48  1  0
 47 22  1  0
 49 47  1  0
 51 50  1  0
 51  2  1  0
 52 51  1  0
 52 54  1  0
 53 52  2  0
 55 57  1  0
 55 54  1  0
 56 67  2  0
 57 62  1  0
 58 66  1  0
 58 68  1  0
 59 65  1  0
 59 61  1  0
 60 66  1  0
 61 62  2  0
 61 60  1  0
 63 57  2  0
 64 63  1  0
 64 59  2  0
 65 58  1  0
 66 56  1  0
 68 70  2  0
 69 68  1  0
 71 69  1  0
 72 81  2  0
 72 77  1  0
 73 69  1  0
 73 77  1  0
 74 73  1  0
 75 76  1  0
 75 74  1  0
 76 72  1  0
 77 78  2  0
 78 79  1  0
 80 79  2  0
 81 80  1  0
 82 56  1  0
 82 87  1  0
 82 83  1  0
 83 86  1  1
 83 84  1  0
 85 83  1  0
 87 90  1  0
 88 92  1  0
 88 87  1  0
 89 88  2  0
 92 91  1  0
 94 92  1  0
 94 95  1  0
 94 93  1  0
M  ISO  4  12 100  20 100  54 101  55 101
M  END
>  <TORSDO>  (54) 
F 20

>  <SCORE>  (54) 
-13.523

>  <name>  (54) 
54

>  <ligand_id>  (54) 
54

>  <original_smiles>  (54) 
[H]c1c([H])c([H])c2c(c1[H])C([H])([H])C([H])([H])C([H])([H])C2([H])N([H])C(=O)C1([H])N(C(=O)C([H])(N([H])C(=O)C([H])(N([H])C([H])([H])[H])C([H])([H])[H])C(C([H])([H])[H])(C([H])([H])[H])C([H])([H])[H])C([H])([H])c2c([H])c(OC([H])([H])C(=O)C([H])(N([H])C(=O)c3c([H])c([H])c(F)c(N([H])C(=O)N4C([H])([H])C([H])([H])C([H])([H])C([H])(n5nc(-c6c([H])c([H])c(Oc7c([H])c([H])c(F)c([H])c7F)c([H])c6[H])c(C(=O)N([H])[H])c5N([H])[H])C4([H])[H])c3[H])C([H])([H])[H])c([H])c([H])c2C1([H])[H]

>  <smiles>  (54) 
[H]c1c([H])c([H])c2c(c1[H])C([H])([H])C([H])([H])C([H])([H])C2([H])N([H])C(=O)C1([H])N(C(=O)C([H])(N([H])C(=O)C([H])(N([H])C([H])([H])[H])C([H])([H])[H])C(C([H])([H])[H])(C([H])([H])[H])C([H])([H])[H])C([H])([H])c2c([H])c(OC([H])([H])C(=O)C([H])(N([H])C(=O)c3c([H])c([H])c(F)c(N([H])C(=O)N4C([H])([H])C([H])([H])C([H])([H])C([H])(n5nc(-c6c([H])c([H])c(Oc7c([H])c([H])c(F)c([H])c7F)c([H])c6[H])c(C(=O)N([H])[H])c5N([H])[H])C4([H])[H])c3[H])C([H])([H])[H])c([H])c([H])c2C1([H])[H]

$$$$
55:0:0
     RDKit          3D

 94102  0  0  1  0  0  0  0  0999 V2000
  -28.6650  -19.1680   20.9400 C   0  0  0  0  0  3  0  0  0  0  0  0
  -30.9860  -19.7650   20.9000 C   0  0  0  0  0  3  0  0  0  0  0  0
  -28.3160  -20.5490   20.8790 C   0  0  0  0  0  3  0  0  0  0  0  0
  -30.6370  -21.1570   20.8310 C   0  0  0  0  0  3  0  0  0  0  0  0
  -30.0110  -18.7210   20.9520 C   0  0  0  0  0  0  0  0  0  0  0  0
  -29.2820  -21.5910   20.8330 C   0  0  0  0  0  0  0  0  0  0  0  0
  -31.3410  -15.1280   20.4500 C   0  0  0  0  0  0  0  0  0  0  0  0
  -31.0930  -12.8560   19.4720 C   0  0  0  0  0  2  0  0  0  0  0  0
  -30.1880  -12.8900   18.2240 C   0  0  0  0  0  2  0  0  0  0  0  0
  -28.7050  -12.7670   18.6170 C   0  0  0  0  0  2  0  0  0  0  0  0
  -28.3040  -13.6680   19.8190 C   0  0  0  0  0  3  0  0  0  0  0  0
  -29.3420  -13.6250   20.9580 C   0  0  0  0  0  2  0  0  0  0  0  0
  -30.6430  -13.9460   20.3610 N   0  0  0  0  0  0  0  0  0  0  0  0
  -32.5700  -15.1000   20.3520 O   0  0  0  0  0  0  0  0  0  0  0  0
  -30.3450  -17.2140   21.1870 C   0  0  0  0  0  0  0  0  0  0  0  0
  -30.6910  -16.3320   20.1700 N   0  0  0  0  0  0  0  0  0  0  0  0
  -30.2580  -16.8350   22.3600 O   0  0  0  0  0  0  0  0  0  0  0  0
  -25.9070  -14.2680   20.4940 C   0  0  0  0  0  0  0  0  0  0  0  0
  -24.8260  -13.4950   20.8180 C   0  0  0  0  0  0  0  0  0  0  0  0
  -25.2820  -12.1410   20.7810 C   0  0  0  0  0  0  0  0  0  0  0  0
  -26.9510  -13.3850   20.2780 N   0  0  0  0  0  0  0  0  0  0  0  0
  -26.5820  -12.1000   20.5170 N   0  0  0  0  0  0  0  0  0  0  0  0
  -24.5440  -10.8800   20.9250 C   0  0  0  0  0  0  0  0  0  0  0  0
  -24.8990   -9.9260   21.9030 C   0  0  0  0  0  3  0  0  0  0  0  0
  -24.1610   -8.7300   22.0360 C   0  0  0  0  0  3  0  0  0  0  0  0
  -23.0570   -8.4790   21.1880 C   0  0  0  0  0  0  0  0  0  0  0  0
  -22.7240   -9.4210   20.1990 C   0  0  0  0  0  3  0  0  0  0  0  0
  -23.4620  -10.6090   20.0650 C   0  0  0  0  0  3  0  0  0  0  0  0
  -22.2990   -7.3340   21.2280 O   0  0  0  0  0  0  0  0  0  0  0  0
  -22.0490   -6.6770   22.4070 C   0  0  0  0  0  0  0  0  0  0  0  0
  -21.3400   -7.2870   23.4640 C   0  0  0  0  0  3  0  0  0  0  0  0
  -21.0460   -6.5520   24.6300 C   0  0  0  0  0  3  0  0  0  0  0  0
  -21.4500   -5.2080   24.7370 C   0  0  0  0  0  0  0  0  0  0  0  0
  -22.1510   -4.5970   23.6820 C   0  0  0  0  0  3  0  0  0  0  0  0
  -22.4470   -5.3300   22.5190 C   0  0  0  0  0  0  0  0  0  0  0  0
  -23.1040   -4.7300   21.4970 F   0  0  0  0  0  0  0  0  0  0  0  0
  -21.1620   -4.4990   25.8530 F   0  0  0  0  0  0  0  0  0  0  0  0
  -23.4240  -13.9750   21.0520 C   0  0  0  0  0  0  0  0  0  0  0  0
  -22.6700  -13.2790   21.8940 N   0  0  0  0  0  0  0  0  0  0  0  0
  -23.0040  -15.0050   20.5220 O   0  0  0  0  0  0  0  0  0  0  0  0
  -23.0210  -12.4470   22.3440 H   0  0  0  0  0  0  0  0  0  0  0  0
  -21.7280  -13.5830   22.0940 H   0  0  0  0  0  0  0  0  0  0  0  0
  -26.0840  -15.6390   20.3390 N   0  0  0  0  0  0  0  0  0  0  0  0
  -25.3130  -16.2940   20.4250 H   0  0  0  0  0  0  0  0  0  0  0  0
  -26.9390  -16.0750   20.0200 H   0  0  0  0  0  0  0  0  0  0  0  0
  -31.6900  -16.1880   17.7600 C   0  0  0  0  0  1  0  0  0  0  0  0
  -29.3170  -17.0210   18.1620 C   0  0  0  0  0  1  0  0  0  0  0  0
  -30.7270  -16.8720   18.7630 C   0  0  0  0  0  3  0  0  0  0  0  0
  -29.3160  -24.2170   20.5800 C   0  0  0  0  0  0  0  0  0  0  0  0
  -28.7920  -22.9770   20.8630 N   0  0  0  0  0  0  0  0  0  0  0  0
  -30.4420  -24.3730   20.1020 O   0  0  0  0  0  0  0  0  0  0  0  0
  -27.8360  -23.0510   21.1830 H   0  0  0  0  0  0  0  0  0  0  0  0
  -28.4000  -25.4740   20.9090 C   0  0  0  0  0  2  0  0  0  0  0  0
  -28.6570  -26.7700   20.2220 O   0  0  0  0  0  0  0  0  0  0  0  0
  -24.7090  -31.9690   23.3250 C   0  0  0  0  0  0  0  0  0  0  0  0
  -27.5490  -27.6290   20.1700 C   0  0  0  0  0  0  0  0  0  0  0  0
  -23.5980  -30.5990   21.5970 C   0  0  0  0  0  3  0  0  0  0  0  0
  -25.1390  -29.1630   20.1470 C   0  0  0  0  0  0  0  0  0  0  0  0
  -26.1280  -31.0110   21.4970 C   0  0  0  0  0  2  0  0  0  0  0  0
  -26.2740  -29.6650   20.7980 C   0  0  0  0  0  0  0  0  0  0  0  0
  -27.4860  -28.9100   20.8020 C   0  0  0  0  0  3  0  0  0  0  0  0
  -26.4010  -27.1920   19.4770 C   0  0  0  0  0  3  0  0  0  0  0  0
  -25.2050  -27.9330   19.4730 C   0  0  0  0  0  3  0  0  0  0  0  0
  -23.8710  -29.9910   20.1970 C   0  0  0  0  0  2  0  0  0  0  0  0
  -24.8280  -31.2080   22.1970 N   0  0  0  0  0  0  0  0  0  0  0  0
  -23.6030  -32.1870   23.8400 O   0  0  0  0  0  0  0  0  0  0  0  0
  -22.9460  -29.5210   22.4970 C   0  0  0  0  0  0  0  0  0  0  0  0
  -21.6310  -29.3090   22.3290 N   0  0  0  0  0  0  0  0  0  0  0  0
  -23.6250  -28.8820   23.3050 O   0  0  0  0  0  0  0  0  0  0  0  0
  -21.1410  -29.8780   21.6540 H   0  0  0  0  0  0  0  0  0  0  0  0
  -18.2670  -28.0450   22.7560 C   0  0  0  0  0  0  0  0  0  0  0  0
  -20.8230  -28.3150   23.0400 C   0  0  0  0  0  3  0  0  0  0  0  0
  -20.9400  -26.9240   22.3760 C   0  0  0  0  0  2  0  0  0  0  0  0
  -19.8400  -26.6540   21.3440 C   0  0  0  0  0  2  0  0  0  0  0  0
  -18.4580  -26.7420   21.9960 C   0  0  0  0  0  2  0  0  0  0  0  0
  -19.3780  -28.7910   23.2320 C   0  0  0  0  0  0  0  0  0  0  0  0
  -19.1450  -30.0110   23.9030 C   0  0  0  0  0  3  0  0  0  0  0  0
  -17.8350  -30.4860   24.1010 C   0  0  0  0  0  3  0  0  0  0  0  0
  -16.7390  -29.7360   23.6390 C   0  0  0  0  0  3  0  0  0  0  0  0
  -16.9550  -28.5180   22.9730 C   0  0  0  0  0  3  0  0  0  0  0  0
  -25.9520  -32.6170   24.0070 C   0  0  0  0  0  3  0  0  0  0  0  0
  -26.4200  -31.8500   25.3050 C   0  0  1  0  0  0  0  0  0  0  0  0
  -25.2730  -31.5510   26.2980 C   0  0  0  0  0  1  0  0  0  0  0  0
  -27.0860  -30.5040   24.9360 C   0  0  0  0  0  1  0  0  0  0  0  0
  -27.4900  -32.6840   26.0480 C   0  0  0  0  0  1  0  0  0  0  0  0
  -25.6090  -34.0100   24.3250 N   0  0  0  0  0  0  0  0  0  0  0  0
  -25.9500  -35.0690   23.5790 C   0  0  0  0  0  0  0  0  0  0  0  0
  -26.6570  -34.9770   22.5710 O   0  0  0  0  0  0  0  0  0  0  0  0
  -24.9840  -34.1550   25.1050 H   0  0  0  0  0  0  0  0  0  0  0  0
  -24.2040  -36.8330   23.1660 C   0  0  0  0  0  1  0  0  0  0  0  0
  -25.4240  -36.4500   24.0190 C   0  0  0  0  0  3  0  0  0  0  0  0
  -27.5040  -37.3800   24.9340 C   0  0  0  0  0  1  0  0  0  0  0  0
  -26.4420  -37.5190   23.9400 N   0  0  0  0  0  0  0  0  0  0  0  0
  -26.0140  -38.4330   24.0580 H   0  0  0  0  0  0  0  0  0  0  0  0
  1  5  1  0
  2  5  2  0
  3  1  2  0
  4  6  2  0
  4  2  1  0
  5 15  1  0
  6 50  1  0
  6  3  1  0
  8 13  1  0
  9 10  1  0
  9  8  1  0
 11 10  1  0
 11 21  1  0
 11 12  1  0
 13  7  1  0
 13 12  1  0
 14  7  2  0
 15 17  2  0
 16  7  1  0
 16 15  1  0
 18 19  2  0
 19 38  1  0
 20 19  1  0
 20 23  1  0
 21 18  1  0
 21 22  1  0
 22 20  2  0
 23 24  1  0
 24 25  2  0
 26 29  1  0
 26 25  1  0
 27 26  2  0
 28 27  1  0
 28 23  2  0
 29 30  1  0
 30 35  2  0
 30 31  1  0
 31 32  2  0
 32 33  1  0
 33 37  1  0
 34 33  2  0
 35 34  1  0
 36 35  1  0
 38 39  1  0
 39 42  1  0
 39 41  1  0
 40 38  2  0
 43 44  1  0
 43 18  1  0
 45 43  1  0
 46 48  1  0
 47 48  1  0
 48 16  1  0
 49 50  1  0
 49 53  1  0
 50 52  1  0
 51 49  2  0
 54 53  1  0
 55 66  2  0
 56 54  1  0
 56 61  1  0
 57 65  1  0
 57 67  1  0
 58 64  1  0
 58 60  1  0
 59 65  1  0
 60 61  2  0
 60 59  1  0
 62 56  2  0
 63 62  1  0
 63 58  2  0
 64 57  1  0
 65 55  1  0
 67 69  2  0
 68 67  1  0
 70 68  1  0
 71 80  2  0
 71 76  1  0
 72 68  1  0
 72 76  1  0
 73 72  1  0
 74 75  1  0
 74 73  1  0
 75 71  1  0
 76 77  2  0
 77 78  1  0
 79 78  2  0
 80 79  1  0
 81 55  1  0
 81 86  1  0
 81 82  1  0
 82 85  1  1
 82 83  1  0
 84 82  1  0
 86 89  1  0
 87 91  1  0
 87 86  1  0
 88 87  2  0
 91 90  1  0
 93 91  1  0
 93 94  1  0
 93 92  1  0
M  ISO  4   7 100  16 100  53 101  54 101
M  END
>  <TORSDO>  (55) 
F 19

>  <SCORE>  (55) 
-13.176

>  <name>  (55) 
55

>  <ligand_id>  (55) 
55

>  <original_smiles>  (55) 
[H]c1c([H])c([H])c2c(c1[H])C([H])([H])C([H])([H])C([H])([H])C2([H])N([H])C(=O)C1([H])N(C(=O)C([H])(N([H])C(=O)C([H])(N([H])C([H])([H])[H])C([H])([H])[H])C(C([H])([H])[H])(C([H])([H])[H])C([H])([H])[H])C([H])([H])c2c([H])c(OC([H])([H])C(=O)N([H])c3c([H])c([H])c(C(=O)N(C(=O)N4C([H])([H])C([H])([H])C([H])([H])C([H])(n5nc(-c6c([H])c([H])c(Oc7c([H])c([H])c(F)c([H])c7F)c([H])c6[H])c(C(=O)N([H])[H])c5N([H])[H])C4([H])[H])C([H])(C([H])([H])[H])C([H])([H])[H])c([H])c3[H])c([H])c([H])c2C1([H])[H]

>  <smiles>  (55) 
[H]c1c([H])c([H])c2c(c1[H])C([H])([H])C([H])([H])C([H])([H])C2([H])N([H])C(=O)C1([H])N(C(=O)C([H])(N([H])C(=O)C([H])(N([H])C([H])([H])[H])C([H])([H])[H])C(C([H])([H])[H])(C([H])([H])[H])C([H])([H])[H])C([H])([H])c2c([H])c(OC([H])([H])C(=O)N([H])c3c([H])c([H])c(C(=O)N(C(=O)N4C([H])([H])C([H])([H])C([H])([H])C([H])(n5nc(-c6c([H])c([H])c(Oc7c([H])c([H])c(F)c([H])c7F)c([H])c6[H])c(C(=O)N([H])[H])c5N([H])[H])C4([H])[H])C([H])(C([H])([H])[H])C([H])([H])[H])c([H])c3[H])c([H])c([H])c2C1([H])[H]

$$$$
56:0:0
     RDKit          3D

 96105  0  0  1  0  0  0  0  0999 V2000
  -30.2850  -20.0500   18.2790 C   0  0  0  0  0  3  0  0  0  0  0  0
  -30.7480  -17.6270   18.3760 C   0  0  0  0  0  3  0  0  0  0  0  0
  -29.7160  -20.0670   19.5700 C   0  0  0  0  0  0  0  0  0  0  0  0
  -30.7770  -18.8630   17.6920 C   0  0  0  0  0  0  0  0  0  0  0  0
  -30.2420  -17.4980   19.6920 C   0  0  0  0  0  0  0  0  0  0  0  0
  -29.7050  -18.7590   20.2550 C   0  0  0  0  0  0  0  0  0  0  0  0
  -29.1530  -18.7270   21.4910 F   0  0  0  0  0  0  0  0  0  0  0  0
  -30.9210  -14.9530   19.8850 C   0  0  0  0  0  0  0  0  0  0  0  0
  -30.6380  -12.6630   18.8710 C   0  0  0  0  0  2  0  0  0  0  0  0
  -29.6270  -12.6980   17.7040 C   0  0  0  0  0  2  0  0  0  0  0  0
  -28.1880  -12.5150   18.2220 C   0  0  0  0  0  2  0  0  0  0  0  0
  -27.8860  -13.4120   19.4490 C   0  0  0  0  0  3  0  0  0  0  0  0
  -29.0070  -13.3340   20.5010 C   0  0  0  0  0  2  0  0  0  0  0  0
  -30.2610  -13.7290   19.8390 N   0  0  0  0  0  0  0  0  0  0  0  0
  -32.0490  -15.0160   19.3870 O   0  0  0  0  0  0  0  0  0  0  0  0
  -30.0460  -16.1230   21.8080 C   0  0  0  0  0  1  0  0  0  0  0  0
  -30.2910  -16.1280   20.3600 N   0  0  0  0  0  0  0  0  0  0  0  0
  -25.5720  -14.0140   20.3700 C   0  0  0  0  0  0  0  0  0  0  0  0
  -24.5210  -13.2460   20.7910 C   0  0  0  0  0  0  0  0  0  0  0  0
  -24.9560  -11.8900   20.6870 C   0  0  0  0  0  0  0  0  0  0  0  0
  -26.5770  -13.1260   20.0280 N   0  0  0  0  0  0  0  0  0  0  0  0
  -26.2190  -11.8410   20.2820 N   0  0  0  0  0  0  0  0  0  0  0  0
  -24.2220  -10.6350   20.8910 C   0  0  0  0  0  0  0  0  0  0  0  0
  -24.6620   -9.6610   21.8150 C   0  0  0  0  0  3  0  0  0  0  0  0
  -23.9270   -8.4720   22.0060 C   0  0  0  0  0  3  0  0  0  0  0  0
  -22.7380   -8.2460   21.2740 C   0  0  0  0  0  0  0  0  0  0  0  0
  -22.3160   -9.2070   20.3390 C   0  0  0  0  0  3  0  0  0  0  0  0
  -23.0510  -10.3880   20.1450 C   0  0  0  0  0  3  0  0  0  0  0  0
  -21.9730   -7.1080   21.3750 O   0  0  0  0  0  0  0  0  0  0  0  0
  -21.8790   -6.4070   22.5500 C   0  0  0  0  0  0  0  0  0  0  0  0
  -21.3900   -6.9990   23.7350 C   0  0  0  0  0  3  0  0  0  0  0  0
  -21.2440   -6.2230   24.9020 C   0  0  0  0  0  3  0  0  0  0  0  0
  -21.5770   -4.8560   24.8860 C   0  0  0  0  0  0  0  0  0  0  0  0
  -22.0590   -4.2630   23.7050 C   0  0  0  0  0  3  0  0  0  0  0  0
  -22.2070   -5.0360   22.5400 C   0  0  0  0  0  0  0  0  0  0  0  0
  -22.6520   -4.4550   21.4000 F   0  0  0  0  0  0  0  0  0  0  0  0
  -21.4300   -4.1080   26.0040 F   0  0  0  0  0  0  0  0  0  0  0  0
  -23.1560  -13.7380   21.1780 C   0  0  0  0  0  0  0  0  0  0  0  0
  -22.4830  -13.0340   22.0810 N   0  0  0  0  0  0  0  0  0  0  0  0
  -22.6970  -14.7810   20.7130 O   0  0  0  0  0  0  0  0  0  0  0  0
  -22.8690  -12.1890   22.4770 H   0  0  0  0  0  0  0  0  0  0  0  0
  -21.5700  -13.3440   22.3810 H   0  0  0  0  0  0  0  0  0  0  0  0
  -25.7500  -15.3880   20.2270 N   0  0  0  0  0  0  0  0  0  0  0  0
  -25.0120  -16.0540   20.4250 H   0  0  0  0  0  0  0  0  0  0  0  0
  -26.5940  -15.8220   19.8770 H   0  0  0  0  0  0  0  0  0  0  0  0
  -28.4100  -23.7810   20.3550 C   0  0  0  0  0  0  0  0  0  0  0  0
  -27.9480  -22.8950   21.4470 C   0  0  0  0  0  0  0  0  0  0  0  0
  -28.0470  -25.1430   20.4070 C   0  0  0  0  0  3  0  0  0  0  0  0
  -29.2140  -22.7610   19.4490 C   0  0  0  0  0  2  0  0  0  0  0  0
  -28.4360  -21.4430   21.3020 C   0  0  0  0  0  2  0  0  0  0  0  0
  -29.2060  -21.3600   20.0670 N   0  0  0  0  0  0  0  0  0  0  0  0
  -27.2430  -23.2320   22.4040 O   0  0  0  0  0  0  0  0  0  0  0  0
  -28.2610  -26.3430   19.6530 O   0  0  0  0  0  0  0  0  0  0  0  0
  -24.6190  -31.7530   22.9770 C   0  0  0  0  0  0  0  0  0  0  0  0
  -27.2130  -27.3030   19.6780 C   0  0  0  0  0  0  0  0  0  0  0  0
  -23.4070  -30.4230   21.2900 C   0  0  0  0  0  3  0  0  0  0  0  0
  -24.8530  -28.9500   19.7680 C   0  0  0  0  0  0  0  0  0  0  0  0
  -25.9470  -30.7530   21.0930 C   0  0  0  0  0  2  0  0  0  0  0  0
  -26.0320  -29.4020   20.3780 C   0  0  0  0  0  0  0  0  0  0  0  0
  -27.2190  -28.5910   20.3230 C   0  0  0  0  0  3  0  0  0  0  0  0
  -26.0130  -26.9290   19.0420 C   0  0  0  0  0  3  0  0  0  0  0  0
  -24.8500  -27.7230   19.0880 C   0  0  0  0  0  3  0  0  0  0  0  0
  -23.6120  -29.8170   19.8760 C   0  0  0  0  0  2  0  0  0  0  0  0
  -24.6780  -30.9920   21.8440 N   0  0  0  0  0  0  0  0  0  0  0  0
  -23.5390  -31.9970   23.5370 O   0  0  0  0  0  0  0  0  0  0  0  0
  -22.7600  -29.3590   22.2100 C   0  0  0  0  0  0  0  0  0  0  0  0
  -21.4310  -29.1870   22.1030 N   0  0  0  0  0  0  0  0  0  0  0  0
  -23.4550  -28.6940   22.9830 O   0  0  0  0  0  0  0  0  0  0  0  0
  -20.9280  -29.7770   21.4560 H   0  0  0  0  0  0  0  0  0  0  0  0
  -18.0610  -27.9830   22.6510 C   0  0  0  0  0  0  0  0  0  0  0  0
  -20.6300  -28.2080   22.8420 C   0  0  0  0  0  3  0  0  0  0  0  0
  -20.6970  -26.8150   22.1740 C   0  0  0  0  0  2  0  0  0  0  0  0
  -19.5570  -26.5650   21.1820 C   0  0  0  0  0  2  0  0  0  0  0  0
  -18.2000  -26.6790   21.8830 C   0  0  0  0  0  2  0  0  0  0  0  0
  -19.2010  -28.7080   23.0870 C   0  0  0  0  0  0  0  0  0  0  0  0
  -19.0150  -29.9310   23.7680 C   0  0  0  0  0  3  0  0  0  0  0  0
  -17.7210  -30.4280   24.0150 C   0  0  0  0  0  3  0  0  0  0  0  0
  -16.5960  -29.6990   23.5930 C   0  0  0  0  0  3  0  0  0  0  0  0
  -16.7670  -28.4770   22.9180 C   0  0  0  0  0  3  0  0  0  0  0  0
  -25.9020  -32.3700   23.6130 C   0  0  0  0  0  3  0  0  0  0  0  0
  -25.5830  -33.7490   24.0130 N   0  0  0  0  0  0  0  0  0  0  0  0
  -25.9020  -34.8410   23.3050 C   0  0  0  0  0  0  0  0  0  0  0  0
  -26.5640  -34.7930   22.2660 O   0  0  0  0  0  0  0  0  0  0  0  0
  -24.9930  -33.8590   24.8250 H   0  0  0  0  0  0  0  0  0  0  0  0
  -24.1580  -36.6370   23.0590 C   0  0  0  0  0  1  0  0  0  0  0  0
  -25.4100  -36.2020   23.8360 C   0  0  0  0  0  3  0  0  0  0  0  0
  -27.5430  -37.0660   24.6930 C   0  0  0  0  0  1  0  0  0  0  0  0
  -26.4350  -37.2670   23.7650 N   0  0  0  0  0  0  0  0  0  0  0  0
  -26.0220  -38.1760   23.9550 H   0  0  0  0  0  0  0  0  0  0  0  0
  -26.4390  -31.5470   24.8480 C   0  0  1  0  0  0  0  0  0  0  0  0
  -25.3610  -31.2570   25.9200 C   0  0  0  0  0  1  0  0  0  0  0  0
  -27.0240  -30.1910   24.3930 C   0  0  0  0  0  1  0  0  0  0  0  0
  -27.5930  -32.3190   25.5290 C   0  0  0  0  0  1  0  0  0  0  0  0
  -31.3110  -18.9120   16.4040 N   0  0  0  0  0  0  0  0  0  0  0  0
  -31.1330  -19.7190   15.8120 H   0  0  0  0  0  0  0  0  0  0  0  0
  -31.4520  -18.0530   15.8790 H   0  0  0  0  0  0  0  0  0  0  0  0
  1  3  1  0
  2  5  2  0
  3 51  1  0
  3  6  2  0
  4  1  2  0
  4  2  1  0
  5  6  1  0
  5 17  1  0
  6  7  1  0
  8 17  1  0
  9 14  1  0
 10 11  1  0
 10  9  1  0
 12 11  1  0
 12 21  1  0
 12 13  1  0
 14  8  1  0
 14 13  1  0
 15  8  2  0
 17 16  1  0
 18 19  2  0
 19 38  1  0
 20 19  1  0
 20 23  1  0
 21 22  1  0
 21 18  1  0
 22 20  2  0
 23 24  1  0
 24 25  2  0
 26 29  1  0
 26 25  1  0
 27 26  2  0
 28 27  1  0
 28 23  2  0
 29 30  1  0
 30 31  1  0
 31 32  2  0
 33 32  1  0
 33 37  1  0
 34 33  2  0
 35 30  2  0
 35 34  1  0
 36 35  1  0
 38 39  1  0
 39 42  1  0
 39 41  1  0
 40 38  2  0
 43 18  1  0
 43 44  1  0
 45 43  1  0
 46 48  2  0
 46 47  1  0
 47 52  2  0
 49 51  1  0
 49 46  1  0
 50 47  1  0
 51 50  1  0
 53 55  1  0
 53 48  1  0
 54 65  2  0
 55 60  1  0
 56 64  1  0
 56 66  1  0
 57 63  1  0
 57 59  1  0
 58 64  1  0
 59 58  1  0
 60 59  2  0
 61 62  1  0
 61 55  2  0
 62 57  2  0
 63 56  1  0
 64 54  1  0
 66 68  2  0
 67 66  1  0
 69 67  1  0
 70 79  2  0
 70 75  1  0
 71 67  1  0
 71 75  1  0
 72 71  1  0
 73 74  1  0
 73 72  1  0
 74 70  1  0
 75 76  2  0
 76 77  1  0
 78 77  2  0
 79 78  1  0
 80 54  1  0
 80 81  1  0
 80 90  1  0
 81 84  1  0
 82 86  1  0
 82 81  1  0
 83 82  2  0
 86 85  1  0
 88 86  1  0
 88 89  1  0
 88 87  1  0
 90 93  1  1
 90 91  1  0
 92 90  1  0
 94  4  1  0
 95 94  1  0
 96 94  1  0
M  ISO  4   8 100  17 100  48 101  53 101
M  END
>  <TORSDO>  (56) 
F 18

>  <SCORE>  (56) 
-13.875

>  <name>  (56) 
56

>  <ligand_id>  (56) 
56

>  <original_smiles>  (56) 
[H]C(Oc1c([H])c([H])c2c(c1[H])C([H])([H])N(C(=O)C([H])(N([H])C(=O)C([H])(N([H])C([H])([H])[H])C([H])([H])[H])C(C([H])([H])[H])(C([H])([H])[H])C([H])([H])[H])C([H])(C(=O)N([H])C1([H])c3c([H])c([H])c([H])c([H])c3C([H])([H])C([H])([H])C1([H])[H])C2([H])[H])=C1C(=O)C([H])([H])N(c2c([H])c(N([H])[H])c([H])c(N(C(=O)N3C([H])([H])C([H])([H])C([H])([H])C([H])(n4nc(-c5c([H])c([H])c(Oc6c([H])c([H])c(F)c([H])c6F)c([H])c5[H])c(C(=O)N([H])[H])c4N([H])[H])C3([H])[H])C([H])([H])[H])c2F)C1([H])[H]

>  <smiles>  (56) 
[H]C(Oc1c([H])c([H])c2c(c1[H])C([H])([H])N(C(=O)C([H])(N([H])C(=O)C([H])(N([H])C([H])([H])[H])C([H])([H])[H])C(C([H])([H])[H])(C([H])([H])[H])C([H])([H])[H])C([H])(C(=O)N([H])C1([H])c3c([H])c([H])c([H])c([H])c3C([H])([H])C([H])([H])C1([H])[H])C2([H])[H])=C1C(=O)C([H])([H])N(c2c([H])c(N([H])[H])c([H])c(N(C(=O)N3C([H])([H])C([H])([H])C([H])([H])C([H])(n4nc(-c5c([H])c([H])c(Oc6c([H])c([H])c(F)c([H])c6F)c([H])c5[H])c(C(=O)N([H])[H])c4N([H])[H])C3([H])[H])C([H])([H])[H])c2F)C1([H])[H]

$$$$
57:0:0
     RDKit          3D

 86 94  0  0  1  0  0  0  0  0999 V2000
  -30.6520  -20.7350   20.3570 C   0  0  0  0  0  2  0  0  0  0  0  0
  -30.8530  -19.2660   20.3430 C   0  0  0  0  0  3  0  0  0  0  0  0
  -29.3430  -21.2280   20.2990 C   0  0  0  0  0  0  0  0  0  0  0  0
  -29.6750  -18.5550   20.2690 C   0  0  0  0  0  0  0  0  0  0  0  0
  -28.7200  -19.8060   20.2400 O   0  0  0  0  0  0  0  0  0  0  0  0
  -30.2640  -15.6630   20.1960 C   0  0  0  0  0  0  0  0  0  0  0  0
  -30.3590  -13.1460   19.3230 C   0  0  0  0  0  2  0  0  0  0  0  0
  -29.4350  -12.7560   18.1350 C   0  0  0  0  0  2  0  0  0  0  0  0
  -28.0230  -12.3850   18.6180 C   0  0  0  0  0  2  0  0  0  0  0  0
  -27.5320  -13.3630   19.7050 C   0  0  0  0  0  3  0  0  0  0  0  0
  -28.5970  -13.6380   20.7960 C   0  0  0  0  0  2  0  0  0  0  0  0
  -29.7430  -14.2970   20.1160 N   0  0  0  0  0  0  0  0  0  0  0  0
  -31.5000  -15.6100   20.0470 O   0  0  0  0  0  0  0  0  0  0  0  0
  -28.0400  -16.7920   20.0840 C   0  0  0  0  0  1  0  0  0  0  0  0
  -29.4730  -17.0110   20.2200 N   0  0  0  0  0  0  0  0  0  0  0  0
  -25.1660  -13.8870   20.4920 C   0  0  0  0  0  0  0  0  0  0  0  0
  -24.1210  -13.0980   20.8740 C   0  0  0  0  0  0  0  0  0  0  0  0
  -24.6070  -11.7560   20.8310 C   0  0  0  0  0  0  0  0  0  0  0  0
  -26.2210  -13.0260   20.2420 N   0  0  0  0  0  0  0  0  0  0  0  0
  -25.8970  -11.7370   20.5090 N   0  0  0  0  0  0  0  0  0  0  0  0
  -23.8950  -10.4870   21.0170 C   0  0  0  0  0  0  0  0  0  0  0  0
  -24.3350   -9.5240   21.9490 C   0  0  0  0  0  3  0  0  0  0  0  0
  -23.6200   -8.3200   22.1260 C   0  0  0  0  0  3  0  0  0  0  0  0
  -22.4500   -8.0730   21.3700 C   0  0  0  0  0  0  0  0  0  0  0  0
  -22.0270   -9.0260   20.4270 C   0  0  0  0  0  3  0  0  0  0  0  0
  -22.7430  -10.2210   20.2480 C   0  0  0  0  0  3  0  0  0  0  0  0
  -21.7040   -6.9230   21.4580 O   0  0  0  0  0  0  0  0  0  0  0  0
  -21.6490   -6.1880   22.6160 C   0  0  0  0  0  0  0  0  0  0  0  0
  -21.1820   -6.7430   23.8280 C   0  0  0  0  0  3  0  0  0  0  0  0
  -21.0790   -5.9340   24.9770 C   0  0  0  0  0  3  0  0  0  0  0  0
  -21.4300   -4.5720   24.9140 C   0  0  0  0  0  0  0  0  0  0  0  0
  -21.8900   -4.0170   23.7070 C   0  0  0  0  0  3  0  0  0  0  0  0
  -21.9970   -4.8240   22.5600 C   0  0  0  0  0  0  0  0  0  0  0  0
  -22.4200   -4.2800   21.3940 F   0  0  0  0  0  0  0  0  0  0  0  0
  -21.3220   -3.7930   26.0160 F   0  0  0  0  0  0  0  0  0  0  0  0
  -22.7210  -13.5600   21.1530 C   0  0  0  0  0  0  0  0  0  0  0  0
  -22.0110  -12.8620   22.0300 N   0  0  0  0  0  0  0  0  0  0  0  0
  -22.2690  -14.5800   20.6320 O   0  0  0  0  0  0  0  0  0  0  0  0
  -22.3920  -12.0390   22.4740 H   0  0  0  0  0  0  0  0  0  0  0  0
  -21.0720  -13.1520   22.2620 H   0  0  0  0  0  0  0  0  0  0  0  0
  -25.2860  -15.2560   20.3020 N   0  0  0  0  0  0  0  0  0  0  0  0
  -24.4960  -15.8830   20.4160 H   0  0  0  0  0  0  0  0  0  0  0  0
  -26.1110  -15.7170   19.9400 H   0  0  0  0  0  0  0  0  0  0  0  0
  -28.9250  -22.8880   20.3100 C   0  0  0  0  0  0  0  0  0  0  0  0
  -28.0180  -24.1070   20.2820 C   0  0  0  0  0  3  0  0  0  0  0  0
  -28.1880  -25.6900   20.3350 O   0  0  0  0  0  0  0  0  0  0  0  0
  -24.6780  -31.9080   23.2710 C   0  0  0  0  0  0  0  0  0  0  0  0
  -27.1910  -26.8590   20.3030 C   0  0  0  0  0  0  0  0  0  0  0  0
  -23.4830  -30.5130   21.6350 C   0  0  0  0  0  3  0  0  0  0  0  0
  -24.9230  -28.8580   20.2360 C   0  0  0  0  0  0  0  0  0  0  0  0
  -26.0600  -30.6540   21.5170 C   0  0  0  0  0  2  0  0  0  0  0  0
  -26.1160  -29.2240   20.8710 C   0  0  0  0  0  0  0  0  0  0  0  0
  -27.2340  -28.2480   20.8800 C   0  0  0  0  0  3  0  0  0  0  0  0
  -25.9690  -26.6900   19.6070 C   0  0  0  0  0  3  0  0  0  0  0  0
  -24.8830  -27.6140   19.5820 C   0  0  0  0  0  3  0  0  0  0  0  0
  -23.7200  -29.8120   20.2680 C   0  0  0  0  0  2  0  0  0  0  0  0
  -24.7630  -31.0560   22.1930 N   0  0  0  0  0  0  0  0  0  0  0  0
  -23.5870  -32.2160   23.7800 O   0  0  0  0  0  0  0  0  0  0  0  0
  -22.7620  -29.5400   22.6070 C   0  0  0  0  0  0  0  0  0  0  0  0
  -21.4300  -29.3890   22.4740 N   0  0  0  0  0  0  0  0  0  0  0  0
  -23.4120  -28.9190   23.4520 O   0  0  0  0  0  0  0  0  0  0  0  0
  -20.9570  -29.9370   21.7690 H   0  0  0  0  0  0  0  0  0  0  0  0
  -18.0370  -28.1950   22.9680 C   0  0  0  0  0  0  0  0  0  0  0  0
  -20.5950  -28.4630   23.2480 C   0  0  0  0  0  3  0  0  0  0  0  0
  -20.6990  -27.0240   22.6910 C   0  0  0  0  0  2  0  0  0  0  0  0
  -19.6060  -26.6910   21.6710 C   0  0  0  0  0  2  0  0  0  0  0  0
  -18.2190  -26.8410   22.3020 C   0  0  0  0  0  2  0  0  0  0  0  0
  -19.1520  -28.9620   23.3980 C   0  0  0  0  0  0  0  0  0  0  0  0
  -18.9260  -30.2260   23.9850 C   0  0  0  0  0  3  0  0  0  0  0  0
  -17.6180  -30.7240   24.1440 C   0  0  0  0  0  3  0  0  0  0  0  0
  -16.5180  -29.9550   23.7290 C   0  0  0  0  0  3  0  0  0  0  0  0
  -16.7280  -28.6920   23.1450 C   0  0  0  0  0  3  0  0  0  0  0  0
  -25.9470  -32.5490   23.9090 C   0  0  0  0  0  3  0  0  0  0  0  0
  -25.6340  -33.9520   24.2380 N   0  0  0  0  0  0  0  0  0  0  0  0
  -25.9510  -35.0120   23.4810 C   0  0  0  0  0  0  0  0  0  0  0  0
  -26.5950  -34.9100   22.4340 O   0  0  0  0  0  0  0  0  0  0  0  0
  -25.0560  -34.1040   25.0530 H   0  0  0  0  0  0  0  0  0  0  0  0
  -24.2050  -36.8100   23.2020 C   0  0  0  0  0  1  0  0  0  0  0  0
  -25.4820  -36.4030   23.9570 C   0  0  0  0  0  3  0  0  0  0  0  0
  -27.6430  -37.3070   24.6960 C   0  0  0  0  0  1  0  0  0  0  0  0
  -26.5050  -37.4600   23.7940 N   0  0  0  0  0  0  0  0  0  0  0  0
  -26.1000  -38.3790   23.9470 H   0  0  0  0  0  0  0  0  0  0  0  0
  -26.4360  -31.7900   25.2050 C   0  0  1  0  0  0  0  0  0  0  0  0
  -25.3280  -31.5790   26.2620 C   0  0  0  0  0  1  0  0  0  0  0  0
  -27.0130  -30.4000   24.8500 C   0  0  0  0  0  1  0  0  0  0  0  0
  -27.5840  -32.5830   25.8750 C   0  0  0  0  0  1  0  0  0  0  0  0
  2  1  1  0
  3 44  2  0
  3  1  1  0
  4  2  2  0
  5  4  1  0
  5  3  1  0
  6 15  1  0
  7 12  1  0
  8  9  1  0
  8  7  1  0
 10  9  1  0
 10 19  1  0
 10 11  1  0
 12  6  1  0
 12 11  1  0
 13  6  2  0
 14 15  1  0
 15  4  1  0
 16 17  2  0
 17 36  1  0
 18 17  1  0
 18 21  1  0
 19 16  1  0
 19 20  1  0
 20 18  2  0
 21 22  1  0
 22 23  2  0
 24 27  1  0
 24 23  1  0
 25 24  2  0
 26 25  1  0
 26 21  2  0
 27 28  1  0
 28 29  1  0
 29 30  2  0
 31 30  1  0
 31 35  1  0
 32 31  2  0
 33 28  2  0
 33 32  1  0
 34 33  1  0
 36 37  1  0
 37 40  1  0
 37 39  1  0
 38 36  2  0
 41 42  1  0
 41 16  1  0
 43 41  1  0
 45 44  2  0
 45 46  1  0
 47 58  2  0
 48 46  1  0
 48 53  1  0
 49 57  1  0
 49 59  1  0
 50 56  1  0
 50 52  1  0
 51 57  1  0
 52 53  2  0
 52 51  1  0
 54 48  2  0
 55 54  1  0
 55 50  2  0
 56 49  1  0
 57 47  1  0
 59 61  2  0
 60 59  1  0
 62 60  1  0
 63 72  2  0
 63 68  1  0
 64 60  1  0
 64 68  1  0
 65 64  1  0
 66 67  1  0
 66 65  1  0
 67 63  1  0
 68 69  2  0
 69 70  1  0
 71 70  2  0
 72 71  1  0
 73 47  1  0
 73 74  1  0
 73 83  1  0
 74 77  1  0
 75 79  1  0
 75 74  1  0
 76 75  2  0
 79 78  1  0
 81 82  1  0
 81 79  1  0
 81 80  1  0
 83 86  1  1
 83 84  1  0
 85 83  1  0
M  ISO  4   6 100  15 100  45 101  46 101
M  END
>  <TORSDO>  (57) 
F 17

>  <SCORE>  (57) 
-15.401

>  <name>  (57) 
57

>  <ligand_id>  (57) 
57

>  <original_smiles>  (57) 
[H]C(Oc1c([H])c([H])c2c(c1[H])C([H])([H])N(C(=O)C([H])(N([H])C(=O)C([H])(N([H])C([H])([H])[H])C([H])([H])[H])C(C([H])([H])[H])(C([H])([H])[H])C([H])([H])[H])C([H])(C(=O)N([H])C1([H])c3c([H])c([H])c([H])c([H])c3C([H])([H])C([H])([H])C1([H])[H])C2([H])[H])=C([H])c1oc(N(C(=O)N2C([H])([H])C([H])([H])C([H])([H])C([H])(n3nc(-c4c([H])c([H])c(Oc5c([H])c([H])c(F)c([H])c5F)c([H])c4[H])c(C(=O)N([H])[H])c3N([H])[H])C2([H])[H])C([H])([H])[H])c([H])c1[H]

>  <smiles>  (57) 
[H]C(Oc1c([H])c([H])c2c(c1[H])C([H])([H])N(C(=O)C([H])(N([H])C(=O)C([H])(N([H])C([H])([H])[H])C([H])([H])[H])C(C([H])([H])[H])(C([H])([H])[H])C([H])([H])[H])C([H])(C(=O)N([H])C1([H])c3c([H])c([H])c([H])c([H])c3C([H])([H])C([H])([H])C1([H])[H])C2([H])[H])=C([H])c1oc(N(C(=O)N2C([H])([H])C([H])([H])C([H])([H])C([H])(n3nc(-c4c([H])c([H])c(Oc5c([H])c([H])c(F)c([H])c5F)c([H])c4[H])c(C(=O)N([H])[H])c3N([H])[H])C2([H])[H])C([H])([H])[H])c([H])c1[H]

$$$$
58:0:0
     RDKit          3D

 95103  0  0  1  0  0  0  0  0999 V2000
  -28.7030  -22.5480   20.2290 C   0  0  0  0  0  0  0  0  0  0  0  0
  -29.6020  -21.5960   19.7910 N   0  0  0  0  0  0  0  0  0  0  0  0
  -27.6760  -22.2100   20.8200 O   0  0  0  0  0  0  0  0  0  0  0  0
  -30.3750  -22.0000   19.2750 H   0  0  0  0  0  0  0  0  0  0  0  0
  -28.9350  -17.9010   20.8200 C   0  0  0  0  0  3  0  0  0  0  0  0
  -28.7540  -19.3110   20.6550 C   0  0  0  0  0  3  0  0  0  0  0  0
  -30.9260  -17.9760   19.5060 C   0  0  0  0  0  3  0  0  0  0  0  0
  -30.0390  -17.1790   20.2810 C   0  0  0  0  0  0  0  0  0  0  0  0
  -29.6770  -20.1190   19.9350 C   0  0  0  0  0  0  0  0  0  0  0  0
  -30.7600  -19.4030   19.3340 C   0  0  0  0  0  0  0  0  0  0  0  0
  -30.8010  -14.7240   19.8830 C   0  0  0  0  0  0  0  0  0  0  0  0
  -30.4330  -12.5310   18.7230 C   0  0  0  0  0  2  0  0  0  0  0  0
  -29.3930  -12.6900   17.5940 C   0  0  0  0  0  2  0  0  0  0  0  0
  -27.9640  -12.5150   18.1400 C   0  0  0  0  0  2  0  0  0  0  0  0
  -27.7160  -13.3420   19.4270 C   0  0  0  0  0  3  0  0  0  0  0  0
  -28.8600  -13.1520   20.4420 C   0  0  0  0  0  2  0  0  0  0  0  0
  -30.1220  -13.5270   19.7800 N   0  0  0  0  0  0  0  0  0  0  0  0
  -31.8600  -14.8820   19.2680 O   0  0  0  0  0  0  0  0  0  0  0  0
  -30.3060  -15.5290   22.0980 C   0  0  0  0  0  1  0  0  0  0  0  0
  -30.2610  -15.7530   20.6450 N   0  0  0  0  0  0  0  0  0  0  0  0
  -25.4050  -13.9310   20.3790 C   0  0  0  0  0  0  0  0  0  0  0  0
  -24.3650  -13.1530   20.8090 C   0  0  0  0  0  0  0  0  0  0  0  0
  -24.8060  -11.8000   20.6870 C   0  0  0  0  0  0  0  0  0  0  0  0
  -26.4130  -13.0510   20.0180 N   0  0  0  0  0  0  0  0  0  0  0  0
  -26.0640  -11.7620   20.2650 N   0  0  0  0  0  0  0  0  0  0  0  0
  -24.0840  -10.5380   20.8940 C   0  0  0  0  0  0  0  0  0  0  0  0
  -24.5160   -9.5850   21.8420 C   0  0  0  0  0  3  0  0  0  0  0  0
  -23.7940   -8.3870   22.0340 C   0  0  0  0  0  3  0  0  0  0  0  0
  -22.6250   -8.1340   21.2770 C   0  0  0  0  0  0  0  0  0  0  0  0
  -22.2120   -9.0760   20.3190 C   0  0  0  0  0  3  0  0  0  0  0  0
  -22.9340  -10.2660   20.1260 C   0  0  0  0  0  3  0  0  0  0  0  0
  -21.8740   -6.9880   21.3790 O   0  0  0  0  0  0  0  0  0  0  0  0
  -21.7390   -6.3190   22.5690 C   0  0  0  0  0  0  0  0  0  0  0  0
  -21.2140   -6.9430   23.7210 C   0  0  0  0  0  3  0  0  0  0  0  0
  -21.0290   -6.1990   24.9030 C   0  0  0  0  0  3  0  0  0  0  0  0
  -21.3570   -4.8300   24.9330 C   0  0  0  0  0  0  0  0  0  0  0  0
  -21.8740   -4.2060   23.7840 C   0  0  0  0  0  3  0  0  0  0  0  0
  -22.0620   -4.9470   22.6050 C   0  0  0  0  0  0  0  0  0  0  0  0
  -22.5410   -4.3340   21.4950 F   0  0  0  0  0  0  0  0  0  0  0  0
  -21.1730   -4.1130   26.0650 F   0  0  0  0  0  0  0  0  0  0  0  0
  -23.0030  -13.6310   21.2220 C   0  0  0  0  0  0  0  0  0  0  0  0
  -22.3520  -12.9170   22.1340 N   0  0  0  0  0  0  0  0  0  0  0  0
  -22.5270  -14.6720   20.7700 O   0  0  0  0  0  0  0  0  0  0  0  0
  -22.7510  -12.0740   22.5200 H   0  0  0  0  0  0  0  0  0  0  0  0
  -21.4440  -13.2190   22.4540 H   0  0  0  0  0  0  0  0  0  0  0  0
  -25.5720  -15.3060   20.2410 N   0  0  0  0  0  0  0  0  0  0  0  0
  -24.8330  -15.9700   20.4460 H   0  0  0  0  0  0  0  0  0  0  0  0
  -26.4080  -15.7460   19.8780 H   0  0  0  0  0  0  0  0  0  0  0  0
  -32.6420  -19.4790   17.8450 C   0  0  0  0  0  1  0  0  0  0  0  0
  -31.6480  -20.1640   18.5980 O   0  0  0  0  0  0  0  0  0  0  0  0
  -28.1940  -25.0410   20.3060 C   0  0  0  0  0  3  0  0  0  0  0  0
  -29.0280  -23.9980   19.9420 C   0  0  0  0  0  0  0  0  0  0  0  0
  -30.1770  -24.2800   19.3090 O   0  0  0  0  0  0  0  0  0  0  0  0
  -30.2110  -25.2230   19.2150 H   0  0  0  0  0  0  0  0  0  0  0  0
  -28.3840  -26.4420   20.1140 O   0  0  0  0  0  0  0  0  0  0  0  0
  -24.5900  -31.8470   23.1780 C   0  0  0  0  0  0  0  0  0  0  0  0
  -27.2660  -27.3030   20.1150 C   0  0  0  0  0  0  0  0  0  0  0  0
  -23.4060  -30.4230   21.5480 C   0  0  0  0  0  3  0  0  0  0  0  0
  -24.8770  -28.8920   20.1180 C   0  0  0  0  0  0  0  0  0  0  0  0
  -25.9420  -30.7760   21.3570 C   0  0  0  0  0  2  0  0  0  0  0  0
  -26.0410  -29.3950   20.7120 C   0  0  0  0  0  0  0  0  0  0  0  0
  -27.2400  -28.6110   20.7010 C   0  0  0  0  0  3  0  0  0  0  0  0
  -26.0760  -26.8610   19.4940 C   0  0  0  0  0  3  0  0  0  0  0  0
  -24.8970  -27.6320   19.5000 C   0  0  0  0  0  3  0  0  0  0  0  0
  -23.6260  -29.7480   20.1690 C   0  0  0  0  0  2  0  0  0  0  0  0
  -24.6650  -31.0340   22.0840 N   0  0  0  0  0  0  0  0  0  0  0  0
  -23.5030  -32.1080   23.7160 O   0  0  0  0  0  0  0  0  0  0  0  0
  -22.7600  -29.3990   22.5120 C   0  0  0  0  0  0  0  0  0  0  0  0
  -21.4340  -29.2050   22.3960 N   0  0  0  0  0  0  0  0  0  0  0  0
  -23.4520  -28.7830   23.3270 O   0  0  0  0  0  0  0  0  0  0  0  0
  -20.9320  -29.7550   21.7130 H   0  0  0  0  0  0  0  0  0  0  0  0
  -18.0780  -27.9640   22.9290 C   0  0  0  0  0  0  0  0  0  0  0  0
  -20.6360  -28.2570   23.1750 C   0  0  0  0  0  3  0  0  0  0  0  0
  -20.7500  -26.8260   22.6000 C   0  0  0  0  0  2  0  0  0  0  0  0
  -19.6430  -26.4910   21.5950 C   0  0  0  0  0  2  0  0  0  0  0  0
  -18.2650  -26.6180   22.2500 C   0  0  0  0  0  2  0  0  0  0  0  0
  -19.1910  -28.7400   23.3490 C   0  0  0  0  0  0  0  0  0  0  0  0
  -18.9590  -30.0000   23.9450 C   0  0  0  0  0  3  0  0  0  0  0  0
  -17.6500  -30.4840   24.1250 C   0  0  0  0  0  3  0  0  0  0  0  0
  -16.5520  -29.7050   23.7190 C   0  0  0  0  0  3  0  0  0  0  0  0
  -16.7670  -28.4460   23.1280 C   0  0  0  0  0  3  0  0  0  0  0  0
  -25.8630  -32.5060   23.7940 C   0  0  0  0  0  3  0  0  0  0  0  0
  -26.4040  -31.7410   25.0640 C   0  0  1  0  0  0  0  0  0  0  0  0
  -25.3220  -31.4710   26.1370 C   0  0  0  0  0  1  0  0  0  0  0  0
  -27.0180  -30.3800   24.6640 C   0  0  0  0  0  1  0  0  0  0  0  0
  -27.5400  -32.5580   25.7240 C   0  0  0  0  0  1  0  0  0  0  0  0
  -25.5240  -33.8950   24.1350 N   0  0  0  0  0  0  0  0  0  0  0  0
  -25.8450  -34.9620   23.3910 C   0  0  0  0  0  0  0  0  0  0  0  0
  -26.5240  -34.8810   22.3650 O   0  0  0  0  0  0  0  0  0  0  0  0
  -24.9210  -34.0320   24.9330 H   0  0  0  0  0  0  0  0  0  0  0  0
  -24.0990  -36.7400   23.0320 C   0  0  0  0  0  1  0  0  0  0  0  0
  -25.3300  -36.3380   23.8590 C   0  0  0  0  0  3  0  0  0  0  0  0
  -27.4390  -37.2350   24.7440 C   0  0  0  0  0  1  0  0  0  0  0  0
  -26.3520  -37.4060   23.7840 N   0  0  0  0  0  0  0  0  0  0  0  0
  -25.9310  -38.3170   23.9470 H   0  0  0  0  0  0  0  0  0  0  0  0
  1  3  2  0
  2  9  1  0
  2  1  1  0
  4  2  1  0
  6  5  1  0
  7  8  1  0
  8 20  1  0
  8  5  2  0
  9  6  2  0
 10  7  2  0
 10  9  1  0
 11 20  1  0
 12 17  1  0
 13 14  1  0
 13 12  1  0
 15 14  1  0
 15 24  1  0
 15 16  1  0
 17 11  1  0
 17 16  1  0
 18 11  2  0
 20 19  1  0
 21 22  2  0
 22 41  1  0
 23 22  1  0
 23 26  1  0
 24 25  1  0
 24 21  1  0
 25 23  2  0
 26 27  1  0
 27 28  2  0
 29 32  1  0
 29 28  1  0
 30 29  2  0
 31 30  1  0
 31 26  2  0
 32 33  1  0
 33 38  2  0
 33 34  1  0
 34 35  2  0
 35 36  1  0
 36 40  1  0
 37 36  2  0
 38 37  1  0
 39 38  1  0
 41 42  1  0
 42 45  1  0
 42 44  1  0
 43 41  2  0
 46 21  1  0
 46 47  1  0
 48 46  1  0
 49 50  1  0
 50 10  1  0
 52  1  1  0
 52 51  2  0
 53 52  1  0
 54 53  1  0
 55 57  1  0
 55 51  1  0
 56 67  2  0
 57 62  1  0
 58 66  1  0
 58 68  1  0
 59 65  1  0
 59 61  1  0
 60 66  1  0
 61 60  1  0
 62 61  2  0
 63 64  1  0
 63 57  2  0
 64 59  2  0
 65 58  1  0
 66 56  1  0
 68 70  2  0
 69 68  1  0
 71 69  1  0
 72 81  2  0
 72 77  1  0
 73 69  1  0
 73 77  1  0
 74 73  1  0
 75 76  1  0
 75 74  1  0
 76 72  1  0
 77 78  2  0
 78 79  1  0
 80 79  2  0
 81 80  1  0
 82 56  1  0
 82 87  1  0
 82 83  1  0
 83 86  1  1
 83 84  1  0
 85 83  1  0
 87 90  1  0
 88 92  1  0
 88 87  1  0
 89 88  2  0
 92 91  1  0
 94 92  1  0
 94 95  1  0
 94 93  1  0
M  ISO  4  11 100  20 100  51 101  55 101
M  END
>  <TORSDO>  (58) 
F 20

>  <SCORE>  (58) 
-13.233

>  <name>  (58) 
58

>  <ligand_id>  (58) 
58

>  <original_smiles>  (58) 
[H]OC(C(=O)N([H])c1c([H])c([H])c(N(C(=O)N2C([H])([H])C([H])([H])C([H])([H])C([H])(n3nc(-c4c([H])c([H])c(Oc5c([H])c([H])c(F)c([H])c5F)c([H])c4[H])c(C(=O)N([H])[H])c3N([H])[H])C2([H])[H])C([H])([H])[H])c([H])c1OC([H])([H])[H])=C([H])Oc1c([H])c([H])c2c(c1[H])C([H])([H])N(C(=O)C([H])(N([H])C(=O)C([H])(N([H])C([H])([H])[H])C([H])([H])[H])C(C([H])([H])[H])(C([H])([H])[H])C([H])([H])[H])C([H])(C(=O)N([H])C1([H])c3c([H])c([H])c([H])c([H])c3C([H])([H])C([H])([H])C1([H])[H])C2([H])[H]

>  <smiles>  (58) 
[H]OC(C(=O)N([H])c1c([H])c([H])c(N(C(=O)N2C([H])([H])C([H])([H])C([H])([H])C([H])(n3nc(-c4c([H])c([H])c(Oc5c([H])c([H])c(F)c([H])c5F)c([H])c4[H])c(C(=O)N([H])[H])c3N([H])[H])C2([H])[H])C([H])([H])[H])c([H])c1OC([H])([H])[H])=C([H])Oc1c([H])c([H])c2c(c1[H])C([H])([H])N(C(=O)C([H])(N([H])C(=O)C([H])(N([H])C([H])([H])[H])C([H])([H])[H])C(C([H])([H])[H])(C([H])([H])[H])C([H])([H])[H])C([H])(C(=O)N([H])C1([H])c3c([H])c([H])c([H])c([H])c3C([H])([H])C([H])([H])C1([H])[H])C2([H])[H]

$$$$
59:0:0
     RDKit          3D

 96104  0  0  1  0  0  0  0  0999 V2000
  -30.6480  -19.1730   21.7330 C   0  0  0  0  0  3  0  0  0  0  0  0
  -30.0990  -20.4700   21.8350 C   0  0  0  0  0  3  0  0  0  0  0  0
  -30.3020  -19.2410   19.3320 C   0  0  0  0  0  3  0  0  0  0  0  0
  -30.7430  -18.5360   20.4780 C   0  0  0  0  0  0  0  0  0  0  0  0
  -29.6440  -21.1600   20.6890 C   0  0  0  0  0  0  0  0  0  0  0  0
  -29.7570  -20.5460   19.4180 C   0  0  0  0  0  0  0  0  0  0  0  0
  -32.3800  -17.1490   19.1990 C   0  0  0  0  0  1  0  0  0  0  0  0
  -31.3330  -17.1080   20.3510 C   0  0  0  0  0  3  0  0  0  0  0  0
  -30.8180  -14.6530   20.3730 C   0  0  0  0  0  0  0  0  0  0  0  0
  -30.3960  -12.4600   19.3330 C   0  0  0  0  0  2  0  0  0  0  0  0
  -29.4450  -12.5500   18.1290 C   0  0  0  0  0  2  0  0  0  0  0  0
  -27.9850  -12.3780   18.5970 C   0  0  0  0  0  2  0  0  0  0  0  0
  -27.6220  -13.2790   19.8070 C   0  0  0  0  0  3  0  0  0  0  0  0
  -28.7240  -13.2550   20.8990 C   0  0  0  0  0  2  0  0  0  0  0  0
  -30.0090  -13.5500   20.2430 N   0  0  0  0  0  0  0  0  0  0  0  0
  -32.0300  -14.4890   20.3280 O   0  0  0  0  0  0  0  0  0  0  0  0
  -29.1760  -16.2450   19.6700 C   0  0  0  0  0  0  0  0  0  0  0  0
  -28.0720  -16.8510   20.5360 C   0  0  0  0  0  1  0  0  0  0  0  0
  -30.3510  -15.9520   20.2570 N   0  0  0  0  0  0  0  0  0  0  0  0
  -28.9730  -16.0800   18.4630 O   0  0  0  0  0  0  0  0  0  0  0  0
  -25.2430  -13.8720   20.5750 C   0  0  0  0  0  0  0  0  0  0  0  0
  -24.1840  -13.0970   20.9490 C   0  0  0  0  0  0  0  0  0  0  0  0
  -24.6530  -11.7500   20.9080 C   0  0  0  0  0  0  0  0  0  0  0  0
  -26.2920  -12.9960   20.3320 N   0  0  0  0  0  0  0  0  0  0  0  0
  -25.9430  -11.7150   20.5990 N   0  0  0  0  0  0  0  0  0  0  0  0
  -23.9320  -10.4870   21.0870 C   0  0  0  0  0  0  0  0  0  0  0  0
  -24.3760   -9.5110   22.0060 C   0  0  0  0  0  3  0  0  0  0  0  0
  -23.6540   -8.3110   22.1750 C   0  0  0  0  0  3  0  0  0  0  0  0
  -22.4750   -8.0800   21.4260 C   0  0  0  0  0  0  0  0  0  0  0  0
  -22.0520   -9.0440   20.4970 C   0  0  0  0  0  3  0  0  0  0  0  0
  -22.7760  -10.2370   20.3220 C   0  0  0  0  0  3  0  0  0  0  0  0
  -21.7240   -6.9330   21.5070 O   0  0  0  0  0  0  0  0  0  0  0  0
  -21.6850   -6.1800   22.6520 C   0  0  0  0  0  0  0  0  0  0  0  0
  -21.2520   -6.7210   23.8840 C   0  0  0  0  0  3  0  0  0  0  0  0
  -21.1600   -5.8940   25.0210 C   0  0  0  0  0  3  0  0  0  0  0  0
  -21.4920   -4.5290   24.9280 C   0  0  0  0  0  0  0  0  0  0  0  0
  -21.9190   -3.9890   23.7020 C   0  0  0  0  0  3  0  0  0  0  0  0
  -22.0120   -4.8130   22.5670 C   0  0  0  0  0  0  0  0  0  0  0  0
  -22.4050   -4.2840   21.3830 F   0  0  0  0  0  0  0  0  0  0  0  0
  -21.3970   -3.7320   26.0190 F   0  0  0  0  0  0  0  0  0  0  0  0
  -22.7870  -13.5720   21.2270 C   0  0  0  0  0  0  0  0  0  0  0  0
  -22.0630  -12.8750   22.0940 N   0  0  0  0  0  0  0  0  0  0  0  0
  -22.3470  -14.5990   20.7120 O   0  0  0  0  0  0  0  0  0  0  0  0
  -22.4300  -12.0450   22.5360 H   0  0  0  0  0  0  0  0  0  0  0  0
  -21.1270  -13.1780   22.3230 H   0  0  0  0  0  0  0  0  0  0  0  0
  -25.3770  -15.2410   20.3970 N   0  0  0  0  0  0  0  0  0  0  0  0
  -24.5980  -15.8780   20.5220 H   0  0  0  0  0  0  0  0  0  0  0  0
  -26.2070  -15.6980   20.0500 H   0  0  0  0  0  0  0  0  0  0  0  0
  -29.5910  -20.7360   17.0250 C   0  0  0  0  0  1  0  0  0  0  0  0
  -29.3150  -21.2560   18.3200 O   0  0  0  0  0  0  0  0  0  0  0  0
  -29.0320  -22.5560   20.8270 C   0  0  0  0  0  2  0  0  0  0  0  0
  -29.7920  -24.7950   20.5290 C   0  0  0  0  0  0  0  0  0  0  0  0
  -30.9230  -25.8000   20.4670 C   0  0  0  0  0  1  0  0  0  0  0  0
  -30.0710  -23.5710   20.7740 N   0  0  0  0  0  0  0  0  0  0  0  0
  -28.3950  -25.3880   20.2720 C   0  0  0  0  0  2  0  0  0  0  0  0
  -28.4230  -26.8220   20.2620 O   0  0  0  0  0  0  0  0  0  0  0  0
  -24.5780  -31.9700   23.2780 C   0  0  0  0  0  0  0  0  0  0  0  0
  -27.2280  -27.5050   20.2480 C   0  0  0  0  0  0  0  0  0  0  0  0
  -23.3730  -30.5610   21.6390 C   0  0  0  0  0  3  0  0  0  0  0  0
  -24.8290  -29.0060   20.2330 C   0  0  0  0  0  0  0  0  0  0  0  0
  -25.8980  -30.9170   21.4440 C   0  0  0  0  0  2  0  0  0  0  0  0
  -25.9830  -29.5390   20.8190 C   0  0  0  0  0  0  0  0  0  0  0  0
  -27.1840  -28.7970   20.8200 C   0  0  0  0  0  3  0  0  0  0  0  0
  -26.0530  -26.9790   19.6660 C   0  0  0  0  0  3  0  0  0  0  0  0
  -24.8570  -27.7250   19.6540 C   0  0  0  0  0  3  0  0  0  0  0  0
  -23.5860  -29.8690   20.2650 C   0  0  0  0  0  2  0  0  0  0  0  0
  -24.6350  -31.1640   22.1800 N   0  0  0  0  0  0  0  0  0  0  0  0
  -23.4960  -32.2480   23.8120 O   0  0  0  0  0  0  0  0  0  0  0  0
  -22.7160  -29.5480   22.6030 C   0  0  0  0  0  0  0  0  0  0  0  0
  -21.3920  -29.3700   22.4690 N   0  0  0  0  0  0  0  0  0  0  0  0
  -23.3930  -28.9250   23.4250 O   0  0  0  0  0  0  0  0  0  0  0  0
  -20.9050  -29.9260   21.7800 H   0  0  0  0  0  0  0  0  0  0  0  0
  -18.0090  -28.2070   22.9680 C   0  0  0  0  0  0  0  0  0  0  0  0
  -20.5690  -28.4400   23.2400 C   0  0  0  0  0  3  0  0  0  0  0  0
  -20.6590  -27.0080   22.6640 C   0  0  0  0  0  2  0  0  0  0  0  0
  -19.5540  -26.6960   21.6490 C   0  0  0  0  0  2  0  0  0  0  0  0
  -18.1740  -26.8560   22.2940 C   0  0  0  0  0  2  0  0  0  0  0  0
  -19.1350  -28.9580   23.3990 C   0  0  0  0  0  0  0  0  0  0  0  0
  -18.9300  -30.2240   23.9880 C   0  0  0  0  0  3  0  0  0  0  0  0
  -17.6300  -30.7400   24.1510 C   0  0  0  0  0  3  0  0  0  0  0  0
  -16.5180  -29.9860   23.7360 C   0  0  0  0  0  3  0  0  0  0  0  0
  -16.7080  -28.7210   23.1530 C   0  0  0  0  0  3  0  0  0  0  0  0
  -25.8650  -32.5990   23.9000 C   0  0  0  0  0  3  0  0  0  0  0  0
  -25.5590  -33.9990   24.2230 N   0  0  0  0  0  0  0  0  0  0  0  0
  -25.8870  -35.0450   23.4530 C   0  0  0  0  0  0  0  0  0  0  0  0
  -26.5520  -34.9340   22.4190 O   0  0  0  0  0  0  0  0  0  0  0  0
  -24.9670  -34.1590   25.0240 H   0  0  0  0  0  0  0  0  0  0  0  0
  -24.1540  -36.8330   23.0980 C   0  0  0  0  0  1  0  0  0  0  0  0
  -25.4020  -36.4370   23.9020 C   0  0  0  0  0  3  0  0  0  0  0  0
  -27.5440  -37.3310   24.7040 C   0  0  0  0  0  1  0  0  0  0  0  0
  -26.4320  -37.4900   23.7710 N   0  0  0  0  0  0  0  0  0  0  0  0
  -26.0270  -38.4100   23.9160 H   0  0  0  0  0  0  0  0  0  0  0  0
  -26.3780  -31.8310   25.1790 C   0  0  1  0  0  0  0  0  0  0  0  0
  -25.2810  -31.6000   26.2450 C   0  0  0  0  0  1  0  0  0  0  0  0
  -26.9570  -30.4500   24.7890 C   0  0  0  0  0  1  0  0  0  0  0  0
  -27.5280  -32.6230   25.8410 C   0  0  0  0  0  1  0  0  0  0  0  0
  1  2  1  0
  3  6  2  0
  3  4  1  0
  4  1  2  0
  5 51  1  0
  5  2  2  0
  6  5  1  0
  8  7  1  0
  8  4  1  0
 10 15  1  0
 11 12  1  0
 11 10  1  0
 13 12  1  0
 13 24  1  0
 13 14  1  0
 15  9  1  0
 15 14  1  0
 16  9  2  0
 17 19  1  0
 17 18  1  0
 19  8  1  0
 19  9  1  0
 20 17  2  0
 21 22  2  0
 22 41  1  0
 23 22  1  0
 23 26  1  0
 24 21  1  0
 24 25  1  0
 25 23  2  0
 26 27  1  0
 27 28  2  0
 29 32  1  0
 29 28  1  0
 30 29  2  0
 31 30  1  0
 31 26  2  0
 32 33  1  0
 33 34  1  0
 34 35  2  0
 36 35  1  0
 36 40  1  0
 37 36  2  0
 38 33  2  0
 38 37  1  0
 39 38  1  0
 41 42  1  0
 42 45  1  0
 42 44  1  0
 43 41  2  0
 46 47  1  0
 46 21  1  0
 48 46  1  0
 49 50  1  0
 50  6  1  0
 52 54  2  0
 53 52  1  0
 54 51  1  0
 55 52  1  0
 56 55  1  0
 57 68  2  0
 58 56  1  0
 58 63  1  0
 59 67  1  0
 59 69  1  0
 60 66  1  0
 60 62  1  0
 61 67  1  0
 62 63  2  0
 62 61  1  0
 64 58  2  0
 65 64  1  0
 65 60  2  0
 66 59  1  0
 67 57  1  0
 69 71  2  0
 70 69  1  0
 72 70  1  0
 73 82  2  0
 73 78  1  0
 74 70  1  0
 74 78  1  0
 75 74  1  0
 76 77  1  0
 76 75  1  0
 77 73  1  0
 78 79  2  0
 79 80  1  0
 81 80  2  0
 82 81  1  0
 83 57  1  0
 83 84  1  0
 83 93  1  0
 84 87  1  0
 85 89  1  0
 85 84  1  0
 86 85  2  0
 89 88  1  0
 91 89  1  0
 91 92  1  0
 91 90  1  0
 93 96  1  1
 93 94  1  0
 95 93  1  0
M  ISO  4   9 100  19 100  55 101  56 101
M  END
>  <TORSDO>  (59) 
F 21

>  <SCORE>  (59) 
-13.444

>  <name>  (59) 
59

>  <ligand_id>  (59) 
59

>  <original_smiles>  (59) 
[H]c1c([H])c([H])c2c(c1[H])C([H])([H])C([H])([H])C([H])([H])C2([H])N([H])C(=O)C1([H])N(C(=O)C([H])(N([H])C(=O)C([H])(N([H])C([H])([H])[H])C([H])([H])[H])C(C([H])([H])[H])(C([H])([H])[H])C([H])([H])[H])C([H])([H])c2c([H])c(OC([H])([H])C(=NC([H])([H])c3c([H])c([H])c(C([H])(N(C(=O)N4C([H])([H])C([H])([H])C([H])([H])C([H])(n5nc(-c6c([H])c([H])c(Oc7c([H])c([H])c(F)c([H])c7F)c([H])c6[H])c(C(=O)N([H])[H])c5N([H])[H])C4([H])[H])C(=O)C([H])([H])[H])C([H])([H])[H])c([H])c3OC([H])([H])[H])C([H])([H])[H])c([H])c([H])c2C1([H])[H]

>  <smiles>  (59) 
[H]c1c([H])c([H])c2c(c1[H])C([H])([H])C([H])([H])C([H])([H])C2([H])N([H])C(=O)C1([H])N(C(=O)C([H])(N([H])C(=O)C([H])(N([H])C([H])([H])[H])C([H])([H])[H])C(C([H])([H])[H])(C([H])([H])[H])C([H])([H])[H])C([H])([H])c2c([H])c(OC([H])([H])C(=NC([H])([H])c3c([H])c([H])c(C([H])(N(C(=O)N4C([H])([H])C([H])([H])C([H])([H])C([H])(n5nc(-c6c([H])c([H])c(Oc7c([H])c([H])c(F)c([H])c7F)c([H])c6[H])c(C(=O)N([H])[H])c5N([H])[H])C4([H])[H])C(=O)C([H])([H])[H])C([H])([H])[H])c([H])c3OC([H])([H])[H])C([H])([H])[H])c([H])c([H])c2C1([H])[H]

$$$$
60:0:0
     RDKit          3D

 95104  0  0  1  0  0  0  0  0999 V2000
  -28.8510  -22.4740   19.9920 C   0  0  0  0  0  3  0  0  0  0  0  0
  -28.7260  -23.8090   19.6410 C   0  0  0  0  0  0  0  0  0  0  0  0
  -29.0940  -23.0920   17.2480 C   0  0  0  0  0  0  0  0  0  0  0  0
  -29.1250  -24.2600   18.2430 C   0  0  0  0  0  2  0  0  0  0  0  0
  -29.5940  -21.7200   17.7380 C   0  0  0  0  0  2  0  0  0  0  0  0
  -29.2830  -21.3930   19.1450 N   0  0  0  0  0  0  0  0  0  0  0  0
  -28.7030  -23.2520   16.0870 O   0  0  0  0  0  0  0  0  0  0  0  0
  -29.8360  -18.9650   18.5160 C   0  0  0  0  0  3  0  0  0  0  0  0
  -30.0400  -17.5850   18.8460 C   0  0  0  0  0  3  0  0  0  0  0  0
  -29.3430  -19.4650   20.7820 C   0  0  0  0  0  3  0  0  0  0  0  0
  -29.4830  -19.9800   19.4680 C   0  0  0  0  0  0  0  0  0  0  0  0
  -29.9310  -17.0770   20.1740 C   0  0  0  0  0  0  0  0  0  0  0  0
  -29.5530  -18.0920   21.1230 C   0  0  0  0  0  0  0  0  0  0  0  0
  -29.3710  -17.7930   22.4300 F   0  0  0  0  0  0  0  0  0  0  0  0
  -30.6240  -14.6400   19.6860 C   0  0  0  0  0  0  0  0  0  0  0  0
  -30.1650  -12.4990   18.4820 C   0  0  0  0  0  2  0  0  0  0  0  0
  -29.1030  -12.7200   17.3870 C   0  0  0  0  0  2  0  0  0  0  0  0
  -27.6840  -12.5530   17.9630 C   0  0  0  0  0  2  0  0  0  0  0  0
  -27.4870  -13.3470   19.2820 C   0  0  0  0  0  3  0  0  0  0  0  0
  -28.6500  -13.1140   20.2610 C   0  0  0  0  0  2  0  0  0  0  0  0
  -29.9050  -13.4680   19.5720 N   0  0  0  0  0  0  0  0  0  0  0  0
  -31.6560  -14.7970   19.0250 O   0  0  0  0  0  0  0  0  0  0  0  0
  -30.1800  -15.6390   20.5370 N   0  0  0  0  0  0  0  0  0  0  0  0
  -25.2120  -13.9470   20.3100 C   0  0  0  0  0  0  0  0  0  0  0  0
  -24.1750  -13.1750   20.7600 C   0  0  0  0  0  0  0  0  0  0  0  0
  -24.5920  -11.8180   20.5980 C   0  0  0  0  0  0  0  0  0  0  0  0
  -26.1970  -13.0610   19.9030 N   0  0  0  0  0  0  0  0  0  0  0  0
  -25.8370  -11.7720   20.1360 N   0  0  0  0  0  0  0  0  0  0  0  0
  -23.8560  -10.5640   20.7950 C   0  0  0  0  0  0  0  0  0  0  0  0
  -24.3620   -9.5320   21.6150 C   0  0  0  0  0  3  0  0  0  0  0  0
  -23.6240   -8.3450   21.8090 C   0  0  0  0  0  3  0  0  0  0  0  0
  -22.3660   -8.1790   21.1790 C   0  0  0  0  0  0  0  0  0  0  0  0
  -21.8780   -9.2010   20.3440 C   0  0  0  0  0  3  0  0  0  0  0  0
  -22.6160  -10.3790   20.1500 C   0  0  0  0  0  3  0  0  0  0  0  0
  -21.5930   -7.0480   21.2880 O   0  0  0  0  0  0  0  0  0  0  0  0
  -21.6530   -6.2370   22.3930 C   0  0  0  0  0  0  0  0  0  0  0  0
  -21.4120   -6.7300   23.6940 C   0  0  0  0  0  3  0  0  0  0  0  0
  -21.4150   -5.8480   24.7940 C   0  0  0  0  0  3  0  0  0  0  0  0
  -21.6480   -4.4750   24.5950 C   0  0  0  0  0  0  0  0  0  0  0  0
  -21.8820   -3.9800   23.3000 C   0  0  0  0  0  3  0  0  0  0  0  0
  -21.8800   -4.8590   22.2020 C   0  0  0  0  0  0  0  0  0  0  0  0
  -22.0810   -4.3730   20.9530 F   0  0  0  0  0  0  0  0  0  0  0  0
  -21.6460   -3.6260   25.6490 F   0  0  0  0  0  0  0  0  0  0  0  0
  -22.8310  -13.6660   21.2180 C   0  0  0  0  0  0  0  0  0  0  0  0
  -22.1910  -12.9460   22.1330 N   0  0  0  0  0  0  0  0  0  0  0  0
  -22.3580  -14.7220   20.8000 O   0  0  0  0  0  0  0  0  0  0  0  0
  -22.5830  -12.0920   22.4980 H   0  0  0  0  0  0  0  0  0  0  0  0
  -21.2940  -13.2570   22.4770 H   0  0  0  0  0  0  0  0  0  0  0  0
  -25.3940  -15.3220   20.1920 N   0  0  0  0  0  0  0  0  0  0  0  0
  -24.6710  -15.9880   20.4460 H   0  0  0  0  0  0  0  0  0  0  0  0
  -26.2230  -15.7610   19.8130 H   0  0  0  0  0  0  0  0  0  0  0  0
  -31.6830  -15.8170   22.5630 C   0  0  0  0  0  1  0  0  0  0  0  0
  -30.3690  -15.2760   21.9640 C   0  0  0  0  0  2  0  0  0  0  0  0
  -28.1500  -24.9520   20.5780 C   0  0  0  0  0  2  0  0  0  0  0  0
  -28.4050  -26.4020   20.2950 O   0  0  0  0  0  0  0  0  0  0  0  0
  -24.6320  -31.8880   23.2640 C   0  0  0  0  0  0  0  0  0  0  0  0
  -27.3000  -27.2770   20.2840 C   0  0  0  0  0  0  0  0  0  0  0  0
  -23.4600  -30.4590   21.6280 C   0  0  0  0  0  3  0  0  0  0  0  0
  -24.9340  -28.8970   20.2440 C   0  0  0  0  0  0  0  0  0  0  0  0
  -26.0030  -30.7810   21.4790 C   0  0  0  0  0  2  0  0  0  0  0  0
  -26.0980  -29.3930   20.8460 C   0  0  0  0  0  0  0  0  0  0  0  0
  -27.2870  -28.5930   20.8540 C   0  0  0  0  0  3  0  0  0  0  0  0
  -26.1140  -26.8460   19.6560 C   0  0  0  0  0  3  0  0  0  0  0  0
  -24.9460  -27.6290   19.6420 C   0  0  0  0  0  3  0  0  0  0  0  0
  -23.6960  -29.7680   20.2610 C   0  0  0  0  0  2  0  0  0  0  0  0
  -24.7170  -31.0610   22.1790 N   0  0  0  0  0  0  0  0  0  0  0  0
  -23.5390  -32.1700   23.7770 O   0  0  0  0  0  0  0  0  0  0  0  0
  -22.7860  -29.4540   22.5940 C   0  0  0  0  0  0  0  0  0  0  0  0
  -21.4620  -29.2680   22.4510 N   0  0  0  0  0  0  0  0  0  0  0  0
  -23.4560  -28.8440   23.4320 O   0  0  0  0  0  0  0  0  0  0  0  0
  -20.9820  -29.8140   21.7470 H   0  0  0  0  0  0  0  0  0  0  0  0
  -18.0870  -28.0470   22.9070 C   0  0  0  0  0  0  0  0  0  0  0  0
  -20.6360  -28.3390   23.2230 C   0  0  0  0  0  3  0  0  0  0  0  0
  -20.7630  -26.8970   22.6800 C   0  0  0  0  0  2  0  0  0  0  0  0
  -19.6860  -26.5420   21.6500 C   0  0  0  0  0  2  0  0  0  0  0  0
  -18.2910  -26.6860   22.2630 C   0  0  0  0  0  2  0  0  0  0  0  0
  -19.1880  -28.8290   23.3430 C   0  0  0  0  0  0  0  0  0  0  0  0
  -18.9450  -30.1020   23.9040 C   0  0  0  0  0  3  0  0  0  0  0  0
  -17.6320  -30.5920   24.0330 C   0  0  0  0  0  3  0  0  0  0  0  0
  -16.5440  -29.8070   23.6120 C   0  0  0  0  0  3  0  0  0  0  0  0
  -16.7720  -28.5360   23.0560 C   0  0  0  0  0  3  0  0  0  0  0  0
  -25.9030  -32.5390   23.8940 C   0  0  0  0  0  3  0  0  0  0  0  0
  -26.4010  -31.7930   25.1920 C   0  0  1  0  0  0  0  0  0  0  0  0
  -25.2920  -31.5680   26.2470 C   0  0  0  0  0  1  0  0  0  0  0  0
  -26.9980  -30.4120   24.8360 C   0  0  0  0  0  1  0  0  0  0  0  0
  -27.5380  -32.6030   25.8560 C   0  0  0  0  0  1  0  0  0  0  0  0
  -25.5810  -33.9420   24.1960 N   0  0  0  0  0  0  0  0  0  0  0  0
  -25.9130  -34.9820   23.4190 C   0  0  0  0  0  0  0  0  0  0  0  0
  -26.5920  -34.8630   22.3960 O   0  0  0  0  0  0  0  0  0  0  0  0
  -24.9800  -34.1090   24.9890 H   0  0  0  0  0  0  0  0  0  0  0  0
  -24.1740  -36.7550   23.0210 C   0  0  0  0  0  1  0  0  0  0  0  0
  -25.4130  -36.3770   23.8470 C   0  0  0  0  0  3  0  0  0  0  0  0
  -27.5410  -37.2860   24.6670 C   0  0  0  0  0  1  0  0  0  0  0  0
  -26.4390  -37.4340   23.7220 N   0  0  0  0  0  0  0  0  0  0  0  0
  -26.0250  -38.3530   23.8590 H   0  0  0  0  0  0  0  0  0  0  0  0
  2  1  2  0
  2 54  1  0
  3  5  1  0
  3  4  1  0
  4  2  1  0
  5  6  1  0
  6 11  1  0
  6  1  1  0
  7  3  2  0
  8  9  2  0
  8 11  1  0
  9 12  1  0
 10 13  1  0
 11 10  2  0
 12 23  1  0
 12 13  2  0
 13 14  1  0
 15 23  1  0
 16 21  1  0
 17 18  1  0
 17 16  1  0
 19 18  1  0
 19 27  1  0
 19 20  1  0
 21 15  1  0
 21 20  1  0
 22 15  2  0
 23 53  1  0
 24 25  2  0
 25 44  1  0
 26 25  1  0
 26 29  1  0
 27 28  1  0
 27 24  1  0
 28 26  2  0
 29 30  1  0
 30 31  2  0
 32 35  1  0
 32 31  1  0
 33 32  2  0
 34 33  1  0
 34 29  2  0
 35 36  1  0
 36 37  1  0
 37 38  2  0
 39 38  1  0
 39 43  1  0
 40 39  2  0
 41 36  2  0
 41 40  1  0
 42 41  1  0
 44 45  1  0
 45 48  1  0
 45 47  1  0
 46 44  2  0
 49 24  1  0
 49 50  1  0
 51 49  1  0
 53 52  1  0
 55 54  1  0
 56 67  2  0
 57 55  1  0
 57 62  1  0
 58 66  1  0
 58 68  1  0
 59 65  1  0
 59 61  1  0
 60 66  1  0
 61 62  2  0
 61 60  1  0
 63 57  2  0
 64 63  1  0
 64 59  2  0
 65 58  1  0
 66 56  1  0
 68 70  2  0
 69 68  1  0
 71 69  1  0
 72 81  2  0
 72 77  1  0
 73 69  1  0
 73 77  1  0
 74 73  1  0
 75 76  1  0
 75 74  1  0
 76 72  1  0
 77 78  2  0
 78 79  1  0
 80 79  2  0
 81 80  1  0
 82 56  1  0
 82 87  1  0
 82 83  1  0
 83 86  1  1
 83 84  1  0
 85 83  1  0
 87 90  1  0
 88 92  1  0
 88 87  1  0
 89 88  2  0
 92 91  1  0
 94 92  1  0
 94 95  1  0
 94 93  1  0
M  ISO  4  15 100  23 100  54 101  55 101
M  END
>  <TORSDO>  (60) 
F 19

>  <SCORE>  (60) 
-10.949

>  <name>  (60) 
60

>  <ligand_id>  (60) 
60

>  <original_smiles>  (60) 
[H]C1=C(C([H])([H])Oc2c([H])c([H])c3c(c2[H])C([H])([H])N(C(=O)C([H])(N([H])C(=O)C([H])(N([H])C([H])([H])[H])C([H])([H])[H])C(C([H])([H])[H])(C([H])([H])[H])C([H])([H])[H])C([H])(C(=O)N([H])C2([H])c4c([H])c([H])c([H])c([H])c4C([H])([H])C([H])([H])C2([H])[H])C3([H])[H])C([H])([H])C(=O)C([H])([H])N1c1c([H])c([H])c(N(C(=O)N2C([H])([H])C([H])([H])C([H])([H])C([H])(n3nc(-c4c([H])c([H])c(Oc5c([H])c([H])c(F)c([H])c5F)c([H])c4[H])c(C(=O)N([H])[H])c3N([H])[H])C2([H])[H])C([H])([H])C([H])([H])[H])c(F)c1[H]

>  <smiles>  (60) 
[H]C1=C(C([H])([H])Oc2c([H])c([H])c3c(c2[H])C([H])([H])N(C(=O)C([H])(N([H])C(=O)C([H])(N([H])C([H])([H])[H])C([H])([H])[H])C(C([H])([H])[H])(C([H])([H])[H])C([H])([H])[H])C([H])(C(=O)N([H])C2([H])c4c([H])c([H])c([H])c([H])c4C([H])([H])C([H])([H])C2([H])[H])C3([H])[H])C([H])([H])C(=O)C([H])([H])N1c1c([H])c([H])c(N(C(=O)N2C([H])([H])C([H])([H])C([H])([H])C([H])(n3nc(-c4c([H])c([H])c(Oc5c([H])c([H])c(F)c([H])c5F)c([H])c4[H])c(C(=O)N([H])[H])c3N([H])[H])C2([H])[H])C([H])([H])C([H])([H])[H])c(F)c1[H]

$$$$
61:0:0
     RDKit          3D

 96105  0  0  1  0  0  0  0  0999 V2000
  -28.2890  -24.8840   22.4960 C   0  0  0  0  0  3  0  0  0  0  0  0
  -28.9280  -25.1970   21.3520 C   0  0  0  0  0  0  0  0  0  0  0  0
  -28.0400  -23.5040   23.0700 C   0  0  0  0  0  2  0  0  0  0  0  0
  -29.4850  -24.1850   20.3410 C   0  0  0  0  0  2  0  0  0  0  0  0
  -29.2090  -22.5370   22.8540 C   0  0  0  0  0  2  0  0  0  0  0  0
  -28.8630  -22.7680   20.3490 C   0  0  0  0  0  2  0  0  0  0  0  0
  -29.2420  -21.9610   21.5110 N   0  0  0  0  0  0  0  0  0  0  0  0
  -31.4230  -18.9770   22.0610 C   0  0  0  0  0  3  0  0  0  0  0  0
  -30.8800  -20.2660   22.1690 C   0  0  0  0  0  3  0  0  0  0  0  0
  -29.3090  -19.7420   20.4000 C   0  0  0  0  0  3  0  0  0  0  0  0
  -30.9210  -18.0430   21.1330 C   0  0  0  0  0  0  0  0  0  0  0  0
  -29.8060  -20.6720   21.3510 C   0  0  0  0  0  0  0  0  0  0  0  0
  -29.8600  -18.4320   20.2720 C   0  0  0  0  0  0  0  0  0  0  0  0
  -28.4510  -17.9300   18.3790 C   0  0  0  0  0  1  0  0  0  0  0  0
  -29.4100  -17.5170   19.3410 O   0  0  0  0  0  0  0  0  0  0  0  0
  -31.6330  -16.6830   21.1040 C   0  0  0  0  0  2  0  0  0  0  0  0
  -31.2820  -14.5660   19.8380 C   0  0  0  0  0  0  0  0  0  0  0  0
  -30.8360  -12.3520   18.8390 C   0  0  0  0  0  2  0  0  0  0  0  0
  -29.8480  -12.4620   17.6620 C   0  0  0  0  0  2  0  0  0  0  0  0
  -28.3950  -12.3990   18.1650 C   0  0  0  0  0  2  0  0  0  0  0  0
  -28.1320  -13.3690   19.3470 C   0  0  0  0  0  3  0  0  0  0  0  0
  -29.2220  -13.2300   20.4310 C   0  0  0  0  0  2  0  0  0  0  0  0
  -30.5350  -13.4310   19.7920 N   0  0  0  0  0  0  0  0  0  0  0  0
  -32.2990  -14.7270   19.1570 O   0  0  0  0  0  0  0  0  0  0  0  0
  -30.8730  -15.4940   20.7160 N   0  0  0  0  0  0  0  0  0  0  0  0
  -30.0240  -15.3050   21.2220 H   0  0  0  0  0  0  0  0  0  0  0  0
  -25.8240  -14.1290   20.2000 C   0  0  0  0  0  0  0  0  0  0  0  0
  -24.7310  -13.4260   20.6280 C   0  0  0  0  0  0  0  0  0  0  0  0
  -25.0960  -12.0460   20.5610 C   0  0  0  0  0  0  0  0  0  0  0  0
  -26.7920  -13.1830   19.9030 N   0  0  0  0  0  0  0  0  0  0  0  0
  -26.3600  -11.9240   20.1730 N   0  0  0  0  0  0  0  0  0  0  0  0
  -24.2990  -10.8320   20.7870 C   0  0  0  0  0  0  0  0  0  0  0  0
  -24.6820   -9.8640   21.7400 C   0  0  0  0  0  3  0  0  0  0  0  0
  -23.8890   -8.7150   21.9510 C   0  0  0  0  0  3  0  0  0  0  0  0
  -22.6980   -8.5290   21.2080 C   0  0  0  0  0  0  0  0  0  0  0  0
  -22.3330   -9.4850   20.2440 C   0  0  0  0  0  3  0  0  0  0  0  0
  -23.1280  -10.6230   20.0310 C   0  0  0  0  0  3  0  0  0  0  0  0
  -21.8790   -7.4320   21.3290 O   0  0  0  0  0  0  0  0  0  0  0  0
  -21.7390   -6.7640   22.5190 C   0  0  0  0  0  0  0  0  0  0  0  0
  -21.2930   -7.4140   23.6900 C   0  0  0  0  0  3  0  0  0  0  0  0
  -21.0970   -6.6760   24.8740 C   0  0  0  0  0  3  0  0  0  0  0  0
  -21.3370   -5.2880   24.8880 C   0  0  0  0  0  0  0  0  0  0  0  0
  -21.7770   -4.6380   23.7210 C   0  0  0  0  0  3  0  0  0  0  0  0
  -21.9750   -5.3750   22.5390 C   0  0  0  0  0  0  0  0  0  0  0  0
  -22.3800   -4.7390   21.4130 F   0  0  0  0  0  0  0  0  0  0  0  0
  -21.1410   -4.5780   26.0220 F   0  0  0  0  0  0  0  0  0  0  0  0
  -23.3890  -13.9920   20.9900 C   0  0  0  0  0  0  0  0  0  0  0  0
  -22.6720  -13.3410   21.8980 N   0  0  0  0  0  0  0  0  0  0  0  0
  -22.9870  -15.0460   20.4980 O   0  0  0  0  0  0  0  0  0  0  0  0
  -23.0070  -12.4860   22.3180 H   0  0  0  0  0  0  0  0  0  0  0  0
  -21.7700  -13.7010   22.1750 H   0  0  0  0  0  0  0  0  0  0  0  0
  -26.0730  -15.4870   20.0270 N   0  0  0  0  0  0  0  0  0  0  0  0
  -25.3610  -16.1920   20.1880 H   0  0  0  0  0  0  0  0  0  0  0  0
  -26.9500  -15.8740   19.7040 H   0  0  0  0  0  0  0  0  0  0  0  0
  -29.1730  -26.6600   21.0010 C   0  0  0  0  0  2  0  0  0  0  0  0
  -28.4760  -27.0210   19.8150 O   0  0  0  0  0  0  0  0  0  0  0  0
  -24.5040  -31.9160   23.2210 C   0  0  0  0  0  0  0  0  0  0  0  0
  -27.2940  -27.7050   19.9610 C   0  0  0  0  0  0  0  0  0  0  0  0
  -23.3350  -30.5260   21.5390 C   0  0  0  0  0  3  0  0  0  0  0  0
  -24.8360  -29.0910   20.0570 C   0  0  0  0  0  0  0  0  0  0  0  0
  -25.8390  -30.9920   21.3340 C   0  0  0  0  0  2  0  0  0  0  0  0
  -25.9740  -29.6440   20.6590 C   0  0  0  0  0  0  0  0  0  0  0  0
  -27.2050  -28.9550   20.6180 C   0  0  0  0  0  3  0  0  0  0  0  0
  -26.1430  -27.1640   19.3580 C   0  0  0  0  0  3  0  0  0  0  0  0
  -24.9110  -27.8460   19.4090 C   0  0  0  0  0  3  0  0  0  0  0  0
  -23.5600  -29.9010   20.1370 C   0  0  0  0  0  2  0  0  0  0  0  0
  -24.5770  -31.1570   22.0910 N   0  0  0  0  0  0  0  0  0  0  0  0
  -23.4200  -32.1310   23.7800 O   0  0  0  0  0  0  0  0  0  0  0  0
  -22.7290  -29.4520   22.4680 C   0  0  0  0  0  0  0  0  0  0  0  0
  -21.4180  -29.2010   22.3160 N   0  0  0  0  0  0  0  0  0  0  0  0
  -23.4330  -28.8440   23.2770 O   0  0  0  0  0  0  0  0  0  0  0  0
  -20.9100  -29.7470   21.6360 H   0  0  0  0  0  0  0  0  0  0  0  0
  -18.1160  -27.7890   22.7060 C   0  0  0  0  0  0  0  0  0  0  0  0
  -20.6430  -28.2040   23.0540 C   0  0  0  0  0  3  0  0  0  0  0  0
  -20.8530  -26.7900   22.4640 C   0  0  0  0  0  2  0  0  0  0  0  0
  -19.8030  -26.4110   21.4140 C   0  0  0  0  0  2  0  0  0  0  0  0
  -18.3970  -26.4620   22.0210 C   0  0  0  0  0  2  0  0  0  0  0  0
  -19.1710  -28.6140   23.1770 C   0  0  0  0  0  0  0  0  0  0  0  0
  -18.8600  -29.8530   23.7750 C   0  0  0  0  0  3  0  0  0  0  0  0
  -17.5230  -30.2730   23.9060 C   0  0  0  0  0  3  0  0  0  0  0  0
  -16.4810  -29.4460   23.4530 C   0  0  0  0  0  3  0  0  0  0  0  0
  -16.7770  -28.2050   22.8610 C   0  0  0  0  0  3  0  0  0  0  0  0
  -25.7750  -32.5690   23.8520 C   0  0  0  0  0  3  0  0  0  0  0  0
  -26.3070  -31.7910   25.1190 C   0  0  1  0  0  0  0  0  0  0  0  0
  -25.2140  -31.5020   26.1740 C   0  0  0  0  0  1  0  0  0  0  0  0
  -26.9350  -30.4410   24.7050 C   0  0  0  0  0  1  0  0  0  0  0  0
  -27.4260  -32.6100   25.8040 C   0  0  0  0  0  1  0  0  0  0  0  0
  -25.4360  -33.9550   24.1940 N   0  0  0  0  0  0  0  0  0  0  0  0
  -25.7560  -35.0210   23.4480 C   0  0  0  0  0  0  0  0  0  0  0  0
  -26.4420  -34.9410   22.4250 O   0  0  0  0  0  0  0  0  0  0  0  0
  -24.8280  -34.0900   24.9890 H   0  0  0  0  0  0  0  0  0  0  0  0
  -23.9980  -36.7790   23.0840 C   0  0  0  0  0  1  0  0  0  0  0  0
  -25.2340  -36.3940   23.9120 C   0  0  0  0  0  3  0  0  0  0  0  0
  -27.3390  -37.3120   24.7820 C   0  0  0  0  0  1  0  0  0  0  0  0
  -26.2470  -37.4670   23.8240 N   0  0  0  0  0  0  0  0  0  0  0  0
  -25.8220  -38.3780   23.9750 H   0  0  0  0  0  0  0  0  0  0  0  0
  1  3  1  0
  2  1  2  0
  4  6  1  0
  4  2  1  0
  5  3  1  0
  6  7  1  0
  7  5  1  0
  8  9  1  0
 10 12  1  0
 11  8  2  0
 12  7  1  0
 12  9  2  0
 13 10  2  0
 13 11  1  0
 14 15  1  0
 15 13  1  0
 16 11  1  0
 17 25  1  0
 18 23  1  0
 19 20  1  0
 19 18  1  0
 21 20  1  0
 21 30  1  0
 21 22  1  0
 23 17  1  0
 23 22  1  0
 24 17  2  0
 25 16  1  0
 25 26  1  0
 27 28  2  0
 28 47  1  0
 29 28  1  0
 29 32  1  0
 30 31  1  0
 30 27  1  0
 31 29  2  0
 32 33  1  0
 33 34  2  0
 35 38  1  0
 35 34  1  0
 36 35  2  0
 37 36  1  0
 37 32  2  0
 38 39  1  0
 39 44  2  0
 39 40  1  0
 40 41  2  0
 41 42  1  0
 42 46  1  0
 43 42  2  0
 44 43  1  0
 45 44  1  0
 47 48  1  0
 48 51  1  0
 48 50  1  0
 49 47  2  0
 52 53  1  0
 52 27  1  0
 54 52  1  0
 55  2  1  0
 56 58  1  0
 56 55  1  0
 57 68  2  0
 58 63  1  0
 59 67  1  0
 59 69  1  0
 60 66  1  0
 60 62  1  0
 61 67  1  0
 62 61  1  0
 63 62  2  0
 64 65  1  0
 64 58  2  0
 65 60  2  0
 66 59  1  0
 67 57  1  0
 69 71  2  0
 70 69  1  0
 72 70  1  0
 73 82  2  0
 73 78  1  0
 74 70  1  0
 74 78  1  0
 75 74  1  0
 76 77  1  0
 76 75  1  0
 77 73  1  0
 78 79  2  0
 79 80  1  0
 81 80  2  0
 82 81  1  0
 83 57  1  0
 83 88  1  0
 83 84  1  0
 84 87  1  1
 84 85  1  0
 86 84  1  0
 88 91  1  0
 89 93  1  0
 89 88  1  0
 90 89  2  0
 93 92  1  0
 95 93  1  0
 95 96  1  0
 95 94  1  0
M  ISO  4  17 100  25 100  55 101  56 101
M  END
>  <TORSDO>  (61) 
F 20

>  <SCORE>  (61) 
-12.558

>  <name>  (61) 
61

>  <ligand_id>  (61) 
61

>  <original_smiles>  (61) 
[H]C1=C(C([H])([H])Oc2c([H])c([H])c3c(c2[H])C([H])([H])N(C(=O)C([H])(N([H])C(=O)C([H])(N([H])C([H])([H])[H])C([H])([H])[H])C(C([H])([H])[H])(C([H])([H])[H])C([H])([H])[H])C([H])(C(=O)N([H])C2([H])c4c([H])c([H])c([H])c([H])c4C([H])([H])C([H])([H])C2([H])[H])C3([H])[H])C([H])([H])C([H])([H])N(c2c([H])c([H])c(C([H])([H])N([H])C(=O)N3C([H])([H])C([H])([H])C([H])([H])C([H])(n4nc(-c5c([H])c([H])c(Oc6c([H])c([H])c(F)c([H])c6F)c([H])c5[H])c(C(=O)N([H])[H])c4N([H])[H])C3([H])[H])c(OC([H])([H])[H])c2[H])C([H])([H])C1([H])[H]

>  <smiles>  (61) 
[H]C1=C(C([H])([H])Oc2c([H])c([H])c3c(c2[H])C([H])([H])N(C(=O)C([H])(N([H])C(=O)C([H])(N([H])C([H])([H])[H])C([H])([H])[H])C(C([H])([H])[H])(C([H])([H])[H])C([H])([H])[H])C([H])(C(=O)N([H])C2([H])c4c([H])c([H])c([H])c([H])c4C([H])([H])C([H])([H])C2([H])[H])C3([H])[H])C([H])([H])C([H])([H])N(c2c([H])c([H])c(C([H])([H])N([H])C(=O)N3C([H])([H])C([H])([H])C([H])([H])C([H])(n4nc(-c5c([H])c([H])c(Oc6c([H])c([H])c(F)c([H])c6F)c([H])c5[H])c(C(=O)N([H])[H])c4N([H])[H])C3([H])[H])c(OC([H])([H])[H])c2[H])C([H])([H])C1([H])[H]

$$$$
62:0:0
     RDKit          3D

 95103  0  0  1  0  0  0  0  0999 V2000
  -31.0790  -19.6260   20.4510 C   0  0  0  0  0  3  0  0  0  0  0  0
  -30.6020  -20.9640   20.3400 C   0  0  0  0  0  3  0  0  0  0  0  0
  -28.8800  -18.7490   20.0400 C   0  0  0  0  0  3  0  0  0  0  0  0
  -30.2460  -18.4750   20.3050 C   0  0  0  0  0  0  0  0  0  0  0  0
  -29.2410  -21.2350   20.0720 C   0  0  0  0  0  0  0  0  0  0  0  0
  -28.3960  -20.0930   19.9300 C   0  0  0  0  0  0  0  0  0  0  0  0
  -30.8070  -14.6580   20.0800 C   0  0  0  0  0  0  0  0  0  0  0  0
  -30.4120  -12.4020   19.1020 C   0  0  0  0  0  2  0  0  0  0  0  0
  -29.4490  -12.4790   17.9020 C   0  0  0  0  0  2  0  0  0  0  0  0
  -27.9920  -12.3610   18.3870 C   0  0  0  0  0  2  0  0  0  0  0  0
  -27.6780  -13.3000   19.5820 C   0  0  0  0  0  3  0  0  0  0  0  0
  -28.7710  -13.2420   20.6730 C   0  0  0  0  0  2  0  0  0  0  0  0
  -30.0560  -13.5090   20.0190 N   0  0  0  0  0  0  0  0  0  0  0  0
  -31.9820  -14.6110   19.7100 O   0  0  0  0  0  0  0  0  0  0  0  0
  -30.8490  -17.0670   20.5490 C   0  0  0  0  0  0  0  0  0  0  0  0
  -30.1920  -15.8760   20.3120 N   0  0  0  0  0  0  0  0  0  0  0  0
  -32.0170  -17.0740   20.9580 O   0  0  0  0  0  0  0  0  0  0  0  0
  -29.1900  -15.9080   20.2450 H   0  0  0  0  0  0  0  0  0  0  0  0
  -25.3390  -13.9620   20.4000 C   0  0  0  0  0  0  0  0  0  0  0  0
  -24.2630  -13.2210   20.8030 C   0  0  0  0  0  0  0  0  0  0  0  0
  -24.6810  -11.8560   20.7520 C   0  0  0  0  0  0  0  0  0  0  0  0
  -26.3460  -13.0510   20.1240 N   0  0  0  0  0  0  0  0  0  0  0  0
  -25.9580  -11.7790   20.3990 N   0  0  0  0  0  0  0  0  0  0  0  0
  -23.9200  -10.6170   20.9600 C   0  0  0  0  0  0  0  0  0  0  0  0
  -24.3440   -9.6360   21.8840 C   0  0  0  0  0  3  0  0  0  0  0  0
  -23.5840   -8.4630   22.0820 C   0  0  0  0  0  3  0  0  0  0  0  0
  -22.3860   -8.2620   21.3540 C   0  0  0  0  0  0  0  0  0  0  0  0
  -21.9810   -9.2300   20.4200 C   0  0  0  0  0  3  0  0  0  0  0  0
  -22.7420  -10.3950   20.2200 C   0  0  0  0  0  3  0  0  0  0  0  0
  -21.5970   -7.1420   21.4620 O   0  0  0  0  0  0  0  0  0  0  0  0
  -21.5530   -6.4000   22.6160 C   0  0  0  0  0  0  0  0  0  0  0  0
  -21.1500   -6.9610   23.8470 C   0  0  0  0  0  3  0  0  0  0  0  0
  -21.0530   -6.1470   24.9930 C   0  0  0  0  0  3  0  0  0  0  0  0
  -21.3480   -4.7730   24.9090 C   0  0  0  0  0  0  0  0  0  0  0  0
  -21.7460   -4.2120   23.6820 C   0  0  0  0  0  3  0  0  0  0  0  0
  -21.8440   -5.0230   22.5390 C   0  0  0  0  0  0  0  0  0  0  0  0
  -22.2070   -4.4730   21.3550 F   0  0  0  0  0  0  0  0  0  0  0  0
  -21.2480   -3.9890   26.0080 F   0  0  0  0  0  0  0  0  0  0  0  0
  -22.8920  -13.7420   21.1230 C   0  0  0  0  0  0  0  0  0  0  0  0
  -22.1720  -13.0680   22.0120 N   0  0  0  0  0  0  0  0  0  0  0  0
  -22.4700  -14.7810   20.6170 O   0  0  0  0  0  0  0  0  0  0  0  0
  -22.5270  -12.2270   22.4420 H   0  0  0  0  0  0  0  0  0  0  0  0
  -21.2530  -13.4000   22.2690 H   0  0  0  0  0  0  0  0  0  0  0  0
  -25.5410  -15.3280   20.2180 N   0  0  0  0  0  0  0  0  0  0  0  0
  -24.7930  -16.0020   20.3450 H   0  0  0  0  0  0  0  0  0  0  0  0
  -26.3760  -15.7350   19.8180 H   0  0  0  0  0  0  0  0  0  0  0  0
  -29.1100  -23.8540   20.0990 C   0  0  0  0  0  0  0  0  0  0  0  0
  -28.6760  -22.5710   19.8640 N   0  0  0  0  0  0  0  0  0  0  0  0
  -30.1690  -24.1140   20.6770 O   0  0  0  0  0  0  0  0  0  0  0  0
  -27.7650  -22.5290   19.4290 H   0  0  0  0  0  0  0  0  0  0  0  0
  -28.1750  -25.0200   19.5820 C   0  0  0  0  0  2  0  0  0  0  0  0
  -28.4270  -26.4320   19.9910 O   0  0  0  0  0  0  0  0  0  0  0  0
  -24.4820  -31.6390   23.1030 C   0  0  0  0  0  0  0  0  0  0  0  0
  -27.3100  -27.2930   19.9230 C   0  0  0  0  0  0  0  0  0  0  0  0
  -23.3670  -30.2760   21.3770 C   0  0  0  0  0  3  0  0  0  0  0  0
  -24.9020  -28.8480   19.9190 C   0  0  0  0  0  0  0  0  0  0  0  0
  -25.9010  -30.6810   21.2740 C   0  0  0  0  0  2  0  0  0  0  0  0
  -26.0420  -29.3360   20.5710 C   0  0  0  0  0  0  0  0  0  0  0  0
  -27.2500  -28.5710   20.5680 C   0  0  0  0  0  3  0  0  0  0  0  0
  -26.1450  -26.8810   19.2290 C   0  0  0  0  0  3  0  0  0  0  0  0
  -24.9570  -27.6270   19.2390 C   0  0  0  0  0  3  0  0  0  0  0  0
  -23.6360  -29.6750   19.9740 C   0  0  0  0  0  2  0  0  0  0  0  0
  -24.6010  -30.8800   21.9760 N   0  0  0  0  0  0  0  0  0  0  0  0
  -23.3780  -31.8590   23.6200 O   0  0  0  0  0  0  0  0  0  0  0  0
  -22.7160  -29.1940   22.2730 C   0  0  0  0  0  0  0  0  0  0  0  0
  -21.3920  -29.0120   22.1360 N   0  0  0  0  0  0  0  0  0  0  0  0
  -23.4020  -28.5270   23.0510 O   0  0  0  0  0  0  0  0  0  0  0  0
  -20.8970  -29.6040   21.4830 H   0  0  0  0  0  0  0  0  0  0  0  0
  -18.0150  -27.8070   22.6190 C   0  0  0  0  0  0  0  0  0  0  0  0
  -20.5810  -28.0240   22.8490 C   0  0  0  0  0  3  0  0  0  0  0  0
  -20.6570  -26.6410   22.1630 C   0  0  0  0  0  2  0  0  0  0  0  0
  -19.5290  -26.4060   21.1530 C   0  0  0  0  0  2  0  0  0  0  0  0
  -18.1640  -26.5120   21.8370 C   0  0  0  0  0  2  0  0  0  0  0  0
  -19.1510  -28.5250   23.0800 C   0  0  0  0  0  0  0  0  0  0  0  0
  -18.9570  -29.7400   23.7720 C   0  0  0  0  0  3  0  0  0  0  0  0
  -17.6610  -30.2370   24.0050 C   0  0  0  0  0  3  0  0  0  0  0  0
  -16.5400  -29.5150   23.5610 C   0  0  0  0  0  3  0  0  0  0  0  0
  -16.7180  -28.3000   22.8730 C   0  0  0  0  0  3  0  0  0  0  0  0
  -25.7270  -32.2860   23.7840 C   0  0  0  0  0  3  0  0  0  0  0  0
  -26.2090  -31.5040   25.0660 C   0  0  1  0  0  0  0  0  0  0  0  0
  -25.0790  -31.2240   26.0850 C   0  0  0  0  0  1  0  0  0  0  0  0
  -26.8370  -30.1460   24.6770 C   0  0  0  0  0  1  0  0  0  0  0  0
  -27.3160  -32.3100   25.7870 C   0  0  0  0  0  1  0  0  0  0  0  0
  -25.3770  -33.6720   24.1240 N   0  0  0  0  0  0  0  0  0  0  0  0
  -25.6960  -34.7420   23.3840 C   0  0  0  0  0  0  0  0  0  0  0  0
  -26.3890  -34.6680   22.3650 O   0  0  0  0  0  0  0  0  0  0  0  0
  -24.7640  -33.8020   24.9160 H   0  0  0  0  0  0  0  0  0  0  0  0
  -23.9210  -36.4880   23.0310 C   0  0  0  0  0  1  0  0  0  0  0  0
  -25.1660  -36.1120   23.8490 C   0  0  0  0  0  3  0  0  0  0  0  0
  -27.2620  -37.0560   24.7120 C   0  0  0  0  0  1  0  0  0  0  0  0
  -26.1680  -37.1960   23.7540 N   0  0  0  0  0  0  0  0  0  0  0  0
  -25.7330  -38.1030   23.8990 H   0  0  0  0  0  0  0  0  0  0  0  0
  -27.0360  -20.2950   19.6920 N   0  0  0  0  0  0  0  0  0  0  0  0
  -26.4380  -19.4850   19.8160 H   0  0  0  0  0  0  0  0  0  0  0  0
  -26.6240  -21.1110   20.1300 H   0  0  0  0  0  0  0  0  0  0  0  0
  2  1  1  0
  3  4  1  0
  4  1  2  0
  4 15  1  0
  5  2  2  0
  6  3  2  0
  6  5  1  0
  7 16  1  0
  8 13  1  0
  9 10  1  0
  9  8  1  0
 11 10  1  0
 11 22  1  0
 11 12  1  0
 13  7  1  0
 13 12  1  0
 14  7  2  0
 15 17  2  0
 16 15  1  0
 18 16  1  0
 19 20  2  0
 20 39  1  0
 21 20  1  0
 21 24  1  0
 22 23  1  0
 22 19  1  0
 23 21  2  0
 24 25  1  0
 25 26  2  0
 27 30  1  0
 27 26  1  0
 28 27  2  0
 29 28  1  0
 29 24  2  0
 30 31  1  0
 31 32  1  0
 32 33  2  0
 34 33  1  0
 34 38  1  0
 35 34  2  0
 36 31  2  0
 36 35  1  0
 37 36  1  0
 39 40  1  0
 40 43  1  0
 40 42  1  0
 41 39  2  0
 44 45  1  0
 44 19  1  0
 46 44  1  0
 47 49  2  0
 48  5  1  0
 48 47  1  0
 50 48  1  0
 51 52  1  0
 51 47  1  0
 53 64  2  0
 54 52  1  0
 54 59  1  0
 55 63  1  0
 55 65  1  0
 56 62  1  0
 56 58  1  0
 57 63  1  0
 58 57  1  0
 59 58  2  0
 60 61  1  0
 60 54  2  0
 61 56  2  0
 62 55  1  0
 63 53  1  0
 65 67  2  0
 66 65  1  0
 68 66  1  0
 69 78  2  0
 69 74  1  0
 70 66  1  0
 70 74  1  0
 71 70  1  0
 72 73  1  0
 72 71  1  0
 73 69  1  0
 74 75  2  0
 75 76  1  0
 77 76  2  0
 78 77  1  0
 79 53  1  0
 79 84  1  0
 79 80  1  0
 80 83  1  1
 80 81  1  0
 82 80  1  0
 84 87  1  0
 85 89  1  0
 85 84  1  0
 86 85  2  0
 89 88  1  0
 91 89  1  0
 91 92  1  0
 91 90  1  0
 93 94  1  0
 93  6  1  0
 93 95  1  0
M  ISO  4   7 100  16 100  51 101  52 101
M  END
>  <TORSDO>  (62) 
F 19

>  <SCORE>  (62) 
-14.333

>  <name>  (62) 
62

>  <ligand_id>  (62) 
62

>  <original_smiles>  (62) 
[H]c1c([H])c([H])c2c(c1[H])C([H])([H])C([H])([H])C([H])([H])C2([H])N([H])C(=O)C1([H])N(C(=O)C([H])(N([H])C(=O)C([H])(N([H])C([H])([H])[H])C([H])([H])[H])C(C([H])([H])[H])(C([H])([H])[H])C([H])([H])[H])C([H])([H])c2c([H])c(OC([H])([H])C(=O)N([H])c3c([H])c([H])c(C(=O)N([H])C(=O)N4C([H])([H])C([H])([H])C([H])([H])C([H])(n5nc(-c6c([H])c([H])c(Oc7c([H])c([H])c(F)c([H])c7F)c([H])c6[H])c(C(=O)N([H])[H])c5N([H])[H])C4([H])[H])c([H])c3N([H])[H])c([H])c([H])c2C1([H])[H]

>  <smiles>  (62) 
[H]c1c([H])c([H])c2c(c1[H])C([H])([H])C([H])([H])C([H])([H])C2([H])N([H])C(=O)C1([H])N(C(=O)C([H])(N([H])C(=O)C([H])(N([H])C([H])([H])[H])C([H])([H])[H])C(C([H])([H])[H])(C([H])([H])[H])C([H])([H])[H])C([H])([H])c2c([H])c(OC([H])([H])C(=O)N([H])c3c([H])c([H])c(C(=O)N([H])C(=O)N4C([H])([H])C([H])([H])C([H])([H])C([H])(n5nc(-c6c([H])c([H])c(Oc7c([H])c([H])c(F)c([H])c7F)c([H])c6[H])c(C(=O)N([H])[H])c5N([H])[H])C4([H])[H])c([H])c3N([H])[H])c([H])c([H])c2C1([H])[H]

$$$$
63:0:0
     RDKit          3D

 92100  0  0  1  0  0  0  0  0999 V2000
  -31.0430  -19.3700   22.1780 C   0  0  0  0  0  3  0  0  0  0  0  0
  -30.4710  -20.5780   21.7080 C   0  0  0  0  0  3  0  0  0  0  0  0
  -30.7750  -18.1010   21.6120 C   0  0  0  0  0  3  0  0  0  0  0  0
  -29.6000  -20.6220   20.5940 C   0  0  0  0  0  0  0  0  0  0  0  0
  -29.9450  -17.9350   20.4830 C   0  0  0  0  0  0  0  0  0  0  0  0
  -29.4130  -19.2670   19.9760 C   0  0  0  0  0  0  0  0  0  0  0  0
  -28.7220  -19.2920   18.8130 F   0  0  0  0  0  0  0  0  0  0  0  0
  -30.4990  -15.2240   20.2140 C   0  0  0  0  0  0  0  0  0  0  0  0
  -30.4530  -12.8230   19.3130 C   0  0  0  0  0  2  0  0  0  0  0  0
  -29.4880  -12.5980   18.1220 C   0  0  0  0  0  2  0  0  0  0  0  0
  -28.0340  -12.3820   18.5870 C   0  0  0  0  0  2  0  0  0  0  0  0
  -27.6250  -13.3090   19.7540 C   0  0  0  0  0  3  0  0  0  0  0  0
  -28.7160  -13.4500   20.8370 C   0  0  0  0  0  2  0  0  0  0  0  0
  -29.9240  -13.9390   20.1540 N   0  0  0  0  0  0  0  0  0  0  0  0
  -31.7350  -15.2380   20.1520 O   0  0  0  0  0  0  0  0  0  0  0  0
  -29.7260  -16.4530   19.9970 N   0  0  0  0  0  0  0  0  0  0  0  0
  -25.2770  -13.8900   20.5530 C   0  0  0  0  0  0  0  0  0  0  0  0
  -24.2160  -13.1120   20.9220 C   0  0  0  0  0  0  0  0  0  0  0  0
  -24.6870  -11.7670   20.8780 C   0  0  0  0  0  0  0  0  0  0  0  0
  -26.3150  -13.0100   20.2970 N   0  0  0  0  0  0  0  0  0  0  0  0
  -25.9750  -11.7280   20.5620 N   0  0  0  0  0  0  0  0  0  0  0  0
  -23.9700  -10.5020   21.0600 C   0  0  0  0  0  0  0  0  0  0  0  0
  -24.4090   -9.5330   21.9890 C   0  0  0  0  0  3  0  0  0  0  0  0
  -23.6920   -8.3300   22.1580 C   0  0  0  0  0  3  0  0  0  0  0  0
  -22.5230   -8.0900   21.3980 C   0  0  0  0  0  0  0  0  0  0  0  0
  -22.1060   -9.0470   20.4560 C   0  0  0  0  0  3  0  0  0  0  0  0
  -22.8230  -10.2420   20.2860 C   0  0  0  0  0  3  0  0  0  0  0  0
  -21.7740   -6.9420   21.4800 O   0  0  0  0  0  0  0  0  0  0  0  0
  -21.7170   -6.2030   22.6330 C   0  0  0  0  0  0  0  0  0  0  0  0
  -21.2490   -6.7500   23.8470 C   0  0  0  0  0  3  0  0  0  0  0  0
  -21.1510   -5.9380   24.9950 C   0  0  0  0  0  3  0  0  0  0  0  0
  -21.5030   -4.5770   24.9250 C   0  0  0  0  0  0  0  0  0  0  0  0
  -21.9600   -4.0280   23.7150 C   0  0  0  0  0  3  0  0  0  0  0  0
  -22.0680   -4.8400   22.5720 C   0  0  0  0  0  0  0  0  0  0  0  0
  -22.4950   -4.3030   21.4030 F   0  0  0  0  0  0  0  0  0  0  0  0
  -21.3960   -3.7930   26.0230 F   0  0  0  0  0  0  0  0  0  0  0  0
  -22.8210  -13.5850   21.1990 C   0  0  0  0  0  0  0  0  0  0  0  0
  -22.1020  -12.8790   22.0670 N   0  0  0  0  0  0  0  0  0  0  0  0
  -22.3770  -14.6100   20.6870 O   0  0  0  0  0  0  0  0  0  0  0  0
  -22.4700  -12.0410   22.4900 H   0  0  0  0  0  0  0  0  0  0  0  0
  -21.1720  -13.1850   22.3120 H   0  0  0  0  0  0  0  0  0  0  0  0
  -25.4380  -15.2570   20.3850 N   0  0  0  0  0  0  0  0  0  0  0  0
  -24.6860  -15.9240   20.4900 H   0  0  0  0  0  0  0  0  0  0  0  0
  -26.2930  -15.6730   20.0280 H   0  0  0  0  0  0  0  0  0  0  0  0
  -27.5010  -16.9010   19.0040 C   0  0  0  0  0  2  0  0  0  0  0  0
  -28.7130  -16.3130   19.0280 C   0  0  0  0  0  3  0  0  0  0  0  0
  -29.0410  -23.3620   20.6010 C   0  0  0  0  0  0  0  0  0  0  0  0
  -28.9560  -21.9850   20.1710 N   0  0  0  0  0  0  0  0  0  0  0  0
  -29.8610  -23.6590   21.4730 O   0  0  0  0  0  0  0  0  0  0  0  0
  -28.2820  -21.8760   19.4270 H   0  0  0  0  0  0  0  0  0  0  0  0
  -28.1040  -24.6460   20.0370 C   0  0  0  0  0  2  0  0  0  0  0  0
  -28.3190  -26.1720   20.3970 O   0  0  0  0  0  0  0  0  0  0  0  0
  -24.6510  -31.9450   23.2730 C   0  0  0  0  0  0  0  0  0  0  0  0
  -27.2690  -27.1820   20.2880 C   0  0  0  0  0  0  0  0  0  0  0  0
  -23.4710  -30.5420   21.6230 C   0  0  0  0  0  3  0  0  0  0  0  0
  -24.9380  -28.9550   20.2190 C   0  0  0  0  0  0  0  0  0  0  0  0
  -26.0290  -30.7930   21.4920 C   0  0  0  0  0  2  0  0  0  0  0  0
  -26.1120  -29.3950   20.8440 C   0  0  0  0  0  0  0  0  0  0  0  0
  -27.2720  -28.5250   20.8610 C   0  0  0  0  0  3  0  0  0  0  0  0
  -26.0690  -26.8580   19.6150 C   0  0  0  0  0  3  0  0  0  0  0  0
  -24.9330  -27.7020   19.5870 C   0  0  0  0  0  3  0  0  0  0  0  0
  -23.7090  -29.8550   20.2530 C   0  0  0  0  0  2  0  0  0  0  0  0
  -24.7370  -31.1170   22.1850 N   0  0  0  0  0  0  0  0  0  0  0  0
  -23.5570  -32.2340   23.7840 O   0  0  0  0  0  0  0  0  0  0  0  0
  -22.7740  -29.5430   22.5830 C   0  0  0  0  0  0  0  0  0  0  0  0
  -21.4470  -29.3760   22.4410 N   0  0  0  0  0  0  0  0  0  0  0  0
  -23.4320  -28.9190   23.4180 O   0  0  0  0  0  0  0  0  0  0  0  0
  -20.9730  -29.9310   21.7420 H   0  0  0  0  0  0  0  0  0  0  0  0
  -18.0550  -28.1890   22.9260 C   0  0  0  0  0  0  0  0  0  0  0  0
  -20.6150  -28.4420   23.2040 C   0  0  0  0  0  3  0  0  0  0  0  0
  -20.7140  -27.0100   22.6280 C   0  0  0  0  0  2  0  0  0  0  0  0
  -19.6170  -26.6930   21.6070 C   0  0  0  0  0  2  0  0  0  0  0  0
  -18.2310  -26.8400   22.2450 C   0  0  0  0  0  2  0  0  0  0  0  0
  -19.1750  -28.9470   23.3610 C   0  0  0  0  0  0  0  0  0  0  0  0
  -18.9580  -30.2070   23.9610 C   0  0  0  0  0  3  0  0  0  0  0  0
  -17.6540  -30.7110   24.1230 C   0  0  0  0  0  3  0  0  0  0  0  0
  -16.5500  -29.9510   23.7040 C   0  0  0  0  0  3  0  0  0  0  0  0
  -16.7500  -28.6910   23.1130 C   0  0  0  0  0  3  0  0  0  0  0  0
  -25.9180  -32.5840   23.9160 C   0  0  0  0  0  3  0  0  0  0  0  0
  -26.4060  -31.8280   25.2130 C   0  0  1  0  0  0  0  0  0  0  0  0
  -25.2900  -31.6090   26.2630 C   0  0  0  0  0  1  0  0  0  0  0  0
  -26.9890  -30.4410   24.8560 C   0  0  0  0  0  1  0  0  0  0  0  0
  -27.5530  -32.6220   25.8810 C   0  0  0  0  0  1  0  0  0  0  0  0
  -25.6050  -33.9870   24.2330 N   0  0  0  0  0  0  0  0  0  0  0  0
  -25.9290  -35.0370   23.4670 C   0  0  0  0  0  0  0  0  0  0  0  0
  -26.5890  -34.9260   22.4290 O   0  0  0  0  0  0  0  0  0  0  0  0
  -25.0210  -34.1490   25.0420 H   0  0  0  0  0  0  0  0  0  0  0  0
  -24.1860  -36.8200   23.1310 C   0  0  0  0  0  1  0  0  0  0  0  0
  -25.4480  -36.4300   23.9190 C   0  0  0  0  0  3  0  0  0  0  0  0
  -27.5950  -37.3350   24.6930 C   0  0  0  0  0  1  0  0  0  0  0  0
  -26.4740  -37.4860   23.7690 N   0  0  0  0  0  0  0  0  0  0  0  0
  -26.0700  -38.4060   23.9110 H   0  0  0  0  0  0  0  0  0  0  0  0
  2  1  1  0
  3  1  2  0
  4  2  2  0
  5  3  1  0
  6  5  2  0
  6  4  1  0
  7  6  1  0
  9 14  1  0
 10 11  1  0
 10  9  1  0
 12 11  1  0
 12 20  1  0
 12 13  1  0
 14  8  1  0
 14 13  1  0
 15  8  2  0
 16  8  1  0
 16  5  1  0
 17 18  2  0
 18 37  1  0
 19 18  1  0
 19 22  1  0
 20 17  1  0
 20 21  1  0
 21 19  2  0
 22 23  1  0
 23 24  2  0
 25 28  1  0
 25 24  1  0
 26 25  2  0
 27 26  1  0
 27 22  2  0
 28 29  1  0
 29 30  1  0
 30 31  2  0
 32 31  1  0
 32 36  1  0
 33 32  2  0
 34 29  2  0
 34 33  1  0
 35 34  1  0
 37 38  1  0
 38 41  1  0
 38 40  1  0
 39 37  2  0
 42 43  1  0
 42 17  1  0
 44 42  1  0
 45 46  2  0
 46 16  1  0
 47 49  2  0
 48  4  1  0
 48 47  1  0
 50 48  1  0
 51 52  1  0
 51 47  1  0
 53 64  2  0
 54 52  1  0
 54 59  1  0
 55 63  1  0
 55 65  1  0
 56 62  1  0
 56 58  1  0
 57 63  1  0
 58 59  2  0
 58 57  1  0
 60 54  2  0
 61 60  1  0
 61 56  2  0
 62 55  1  0
 63 53  1  0
 65 67  2  0
 66 65  1  0
 68 66  1  0
 69 78  2  0
 69 74  1  0
 70 66  1  0
 70 74  1  0
 71 70  1  0
 72 73  1  0
 72 71  1  0
 73 69  1  0
 74 75  2  0
 75 76  1  0
 77 76  2  0
 78 77  1  0
 79 53  1  0
 79 84  1  0
 79 80  1  0
 80 83  1  1
 80 81  1  0
 82 80  1  0
 84 87  1  0
 85 89  1  0
 85 84  1  0
 86 85  2  0
 89 88  1  0
 91 92  1  0
 91 89  1  0
 91 90  1  0
M  ISO  4   8 100  16 100  51 101  52 101
M  END
>  <TORSDO>  (63) 
F 19

>  <SCORE>  (63) 
-14.600

>  <name>  (63) 
63

>  <ligand_id>  (63) 
63

>  <original_smiles>  (63) 
[H]C([H])=C([H])N(C(=O)N1C([H])([H])C([H])([H])C([H])([H])C([H])(n2nc(-c3c([H])c([H])c(Oc4c([H])c([H])c(F)c([H])c4F)c([H])c3[H])c(C(=O)N([H])[H])c2N([H])[H])C1([H])[H])c1c([H])c([H])c([H])c(N([H])C(=O)C([H])([H])Oc2c([H])c([H])c3c(c2[H])C([H])([H])N(C(=O)C([H])(N([H])C(=O)C([H])(N([H])C([H])([H])[H])C([H])([H])[H])C(C([H])([H])[H])(C([H])([H])[H])C([H])([H])[H])C([H])(C(=O)N([H])C2([H])c4c([H])c([H])c([H])c([H])c4C([H])([H])C([H])([H])C2([H])[H])C3([H])[H])c1F

>  <smiles>  (63) 
[H]C([H])=C([H])N(C(=O)N1C([H])([H])C([H])([H])C([H])([H])C([H])(n2nc(-c3c([H])c([H])c(Oc4c([H])c([H])c(F)c([H])c4F)c([H])c3[H])c(C(=O)N([H])[H])c2N([H])[H])C1([H])[H])c1c([H])c([H])c([H])c(N([H])C(=O)C([H])([H])Oc2c([H])c([H])c3c(c2[H])C([H])([H])N(C(=O)C([H])(N([H])C(=O)C([H])(N([H])C([H])([H])[H])C([H])([H])[H])C(C([H])([H])[H])(C([H])([H])[H])C([H])([H])[H])C([H])(C(=O)N([H])C2([H])c4c([H])c([H])c([H])c([H])c4C([H])([H])C([H])([H])C2([H])[H])C3([H])[H])c1F

$$$$
64:0:0
     RDKit          3D

 95103  0  0  1  0  0  0  0  0999 V2000
  -28.9620  -23.6030   20.7280 C   0  0  0  0  0  0  0  0  0  0  0  0
  -28.8250  -22.3820   21.3180 N   0  0  0  0  0  0  0  0  0  0  0  0
  -29.2510  -23.7390   19.5390 O   0  0  0  0  0  0  0  0  0  0  0  0
  -28.4600  -22.4540   22.2600 H   0  0  0  0  0  0  0  0  0  0  0  0
  -30.7260  -19.4700   19.8280 C   0  0  0  0  0  3  0  0  0  0  0  0
  -28.6670  -18.6200   20.7750 C   0  0  0  0  0  3  0  0  0  0  0  0
  -30.3810  -20.7900   20.2000 C   0  0  0  0  0  3  0  0  0  0  0  0
  -28.3270  -19.9480   21.1650 C   0  0  0  0  0  3  0  0  0  0  0  0
  -29.8810  -18.3580   20.0920 C   0  0  0  0  0  0  0  0  0  0  0  0
  -29.1630  -21.0570   20.8610 C   0  0  0  0  0  0  0  0  0  0  0  0
  -30.7170  -14.6650   19.9400 C   0  0  0  0  0  0  0  0  0  0  0  0
  -30.3360  -12.4540   18.9460 C   0  0  0  0  0  2  0  0  0  0  0  0
  -29.3420  -12.6410   17.7810 C   0  0  0  0  0  2  0  0  0  0  0  0
  -27.8970  -12.4980   18.2880 C   0  0  0  0  0  2  0  0  0  0  0  0
  -27.6240  -13.3450   19.5620 C   0  0  0  0  0  3  0  0  0  0  0  0
  -28.7480  -13.2030   20.6140 C   0  0  0  0  0  2  0  0  0  0  0  0
  -30.0260  -13.4870   19.9540 N   0  0  0  0  0  0  0  0  0  0  0  0
  -31.8780  -14.6940   19.5250 O   0  0  0  0  0  0  0  0  0  0  0  0
  -30.2910  -16.9950   19.5330 C   0  0  0  0  0  0  0  0  0  0  0  0
  -30.0280  -15.8200   20.1780 N   0  0  0  0  0  0  0  0  0  0  0  0
  -30.9030  -17.0290   18.4560 O   0  0  0  0  0  0  0  0  0  0  0  0
  -29.2600  -15.7970   20.8270 H   0  0  0  0  0  0  0  0  0  0  0  0
  -25.2850  -13.9200   20.4550 C   0  0  0  0  0  0  0  0  0  0  0  0
  -24.2450  -13.1330   20.8680 C   0  0  0  0  0  0  0  0  0  0  0  0
  -24.7010  -11.7840   20.7650 C   0  0  0  0  0  0  0  0  0  0  0  0
  -26.3100  -13.0490   20.1270 N   0  0  0  0  0  0  0  0  0  0  0  0
  -25.9690  -11.7570   20.3710 N   0  0  0  0  0  0  0  0  0  0  0  0
  -23.9880  -10.5150   20.9640 C   0  0  0  0  0  0  0  0  0  0  0  0
  -24.4490   -9.5430   21.8780 C   0  0  0  0  0  3  0  0  0  0  0  0
  -23.7340   -8.3410   22.0660 C   0  0  0  0  0  3  0  0  0  0  0  0
  -22.5440   -8.1010   21.3390 C   0  0  0  0  0  0  0  0  0  0  0  0
  -22.1030   -9.0630   20.4130 C   0  0  0  0  0  3  0  0  0  0  0  0
  -22.8180  -10.2560   20.2240 C   0  0  0  0  0  3  0  0  0  0  0  0
  -21.7970   -6.9520   21.4360 O   0  0  0  0  0  0  0  0  0  0  0  0
  -21.7390   -6.2270   22.5990 C   0  0  0  0  0  0  0  0  0  0  0  0
  -21.2740   -6.7920   23.8060 C   0  0  0  0  0  3  0  0  0  0  0  0
  -21.1650   -5.9940   24.9620 C   0  0  0  0  0  3  0  0  0  0  0  0
  -21.5110   -4.6310   24.9110 C   0  0  0  0  0  0  0  0  0  0  0  0
  -21.9690   -4.0640   23.7090 C   0  0  0  0  0  3  0  0  0  0  0  0
  -22.0800   -4.8590   22.5560 C   0  0  0  0  0  0  0  0  0  0  0  0
  -22.5010   -4.3030   21.3940 F   0  0  0  0  0  0  0  0  0  0  0  0
  -21.4000   -3.8600   26.0190 F   0  0  0  0  0  0  0  0  0  0  0  0
  -22.8680  -13.6000   21.2480 C   0  0  0  0  0  0  0  0  0  0  0  0
  -22.2030  -12.8760   22.1400 N   0  0  0  0  0  0  0  0  0  0  0  0
  -22.3970  -14.6380   20.7890 O   0  0  0  0  0  0  0  0  0  0  0  0
  -22.5970  -12.0310   22.5280 H   0  0  0  0  0  0  0  0  0  0  0  0
  -21.2830  -13.1690   22.4400 H   0  0  0  0  0  0  0  0  0  0  0  0
  -25.4380  -15.2950   20.3080 N   0  0  0  0  0  0  0  0  0  0  0  0
  -24.6820  -15.9460   20.4890 H   0  0  0  0  0  0  0  0  0  0  0  0
  -26.2610  -15.7460   19.9280 H   0  0  0  0  0  0  0  0  0  0  0  0
  -28.5450  -26.0260   21.3870 C   0  0  0  0  0  3  0  0  0  0  0  0
  -28.7140  -24.7040   21.6860 C   0  0  0  0  0  0  0  0  0  0  0  0
  -28.6450  -24.3730   22.9900 O   0  0  0  0  0  0  0  0  0  0  0  0
  -28.4810  -25.1660   23.4820 H   0  0  0  0  0  0  0  0  0  0  0  0
  -28.4960  -26.6870   20.1700 O   0  0  0  0  0  0  0  0  0  0  0  0
  -24.6210  -31.8510   23.1830 C   0  0  0  0  0  0  0  0  0  0  0  0
  -27.3950  -27.5160   20.0610 C   0  0  0  0  0  0  0  0  0  0  0  0
  -23.4640  -30.4440   21.5110 C   0  0  0  0  0  3  0  0  0  0  0  0
  -24.9690  -28.9820   20.0530 C   0  0  0  0  0  0  0  0  0  0  0  0
  -25.9760  -30.8860   21.3220 C   0  0  0  0  0  2  0  0  0  0  0  0
  -26.1100  -29.5250   20.6610 C   0  0  0  0  0  0  0  0  0  0  0  0
  -27.3270  -28.8000   20.6630 C   0  0  0  0  0  3  0  0  0  0  0  0
  -26.2450  -27.0060   19.4250 C   0  0  0  0  0  3  0  0  0  0  0  0
  -25.0350  -27.7290   19.4220 C   0  0  0  0  0  3  0  0  0  0  0  0
  -23.6970  -29.8000   20.1180 C   0  0  0  0  0  2  0  0  0  0  0  0
  -24.7060  -31.0750   22.0660 N   0  0  0  0  0  0  0  0  0  0  0  0
  -23.5320  -32.0780   23.7290 O   0  0  0  0  0  0  0  0  0  0  0  0
  -22.8390  -29.3870   22.4520 C   0  0  0  0  0  0  0  0  0  0  0  0
  -21.5240  -29.1550   22.3070 N   0  0  0  0  0  0  0  0  0  0  0  0
  -23.5370  -28.7760   23.2660 O   0  0  0  0  0  0  0  0  0  0  0  0
  -21.0200  -29.6990   21.6210 H   0  0  0  0  0  0  0  0  0  0  0  0
  -18.1960  -27.8070   22.7180 C   0  0  0  0  0  0  0  0  0  0  0  0
  -20.7330  -28.1780   23.0540 C   0  0  0  0  0  3  0  0  0  0  0  0
  -20.9140  -26.7560   22.4720 C   0  0  0  0  0  2  0  0  0  0  0  0
  -19.8520  -26.3930   21.4300 C   0  0  0  0  0  2  0  0  0  0  0  0
  -18.4490  -26.4720   22.0390 C   0  0  0  0  0  2  0  0  0  0  0  0
  -19.2690  -28.6160   23.1800 C   0  0  0  0  0  0  0  0  0  0  0  0
  -18.9790  -29.8670   23.7680 C   0  0  0  0  0  3  0  0  0  0  0  0
  -17.6500  -30.3070   23.9050 C   0  0  0  0  0  3  0  0  0  0  0  0
  -16.5910  -29.4930   23.4630 C   0  0  0  0  0  3  0  0  0  0  0  0
  -16.8650  -28.2470   22.8730 C   0  0  0  0  0  3  0  0  0  0  0  0
  -25.8850  -32.5080   23.8220 C   0  0  0  0  0  3  0  0  0  0  0  0
  -26.4090  -31.7390   25.0960 C   0  0  1  0  0  0  0  0  0  0  0  0
  -25.3130  -31.4630   26.1520 C   0  0  0  0  0  1  0  0  0  0  0  0
  -27.0270  -30.3790   24.6950 C   0  0  0  0  0  1  0  0  0  0  0  0
  -27.5330  -32.5530   25.7790 C   0  0  0  0  0  1  0  0  0  0  0  0
  -25.5410  -33.8960   24.1570 N   0  0  0  0  0  0  0  0  0  0  0  0
  -25.8490  -34.9590   23.4010 C   0  0  0  0  0  0  0  0  0  0  0  0
  -26.5250  -34.8760   22.3730 O   0  0  0  0  0  0  0  0  0  0  0  0
  -24.9450  -34.0330   24.9610 H   0  0  0  0  0  0  0  0  0  0  0  0
  -24.0780  -36.7080   23.0420 C   0  0  0  0  0  1  0  0  0  0  0  0
  -25.3250  -36.3350   23.8610 C   0  0  0  0  0  3  0  0  0  0  0  0
  -27.4290  -37.2740   24.7060 C   0  0  0  0  0  1  0  0  0  0  0  0
  -26.3290  -37.4150   23.7560 N   0  0  0  0  0  0  0  0  0  0  0  0
  -25.8980  -38.3220   23.9050 H   0  0  0  0  0  0  0  0  0  0  0  0
  1  2  1  0
  1 52  1  0
  2  4  1  0
  3  1  2  0
  5  9  2  0
  5  7  1  0
  6  8  2  0
  7 10  2  0
  9  6  1  0
 10  8  1  0
 10  2  1  0
 11 17  1  0
 11 20  1  0
 12 17  1  0
 13 14  1  0
 13 12  1  0
 15 14  1  0
 15 26  1  0
 15 16  1  0
 17 16  1  0
 18 11  2  0
 19  9  1  0
 19 20  1  0
 20 22  1  0
 21 19  2  0
 23 24  2  0
 24 43  1  0
 25 24  1  0
 25 28  1  0
 26 27  1  0
 26 23  1  0
 27 25  2  0
 28 29  1  0
 29 30  2  0
 31 34  1  0
 31 30  1  0
 32 31  2  0
 33 32  1  0
 33 28  2  0
 34 35  1  0
 35 36  1  0
 36 37  2  0
 38 37  1  0
 38 42  1  0
 39 38  2  0
 40 35  2  0
 40 39  1  0
 41 40  1  0
 43 44  1  0
 44 47  1  0
 44 46  1  0
 45 43  2  0
 48 23  1  0
 48 49  1  0
 50 48  1  0
 51 52  2  0
 52 53  1  0
 53 54  1  0
 55 51  1  0
 56 67  2  0
 57 55  1  0
 57 62  1  0
 58 66  1  0
 58 68  1  0
 59 65  1  0
 59 61  1  0
 60 66  1  0
 61 62  2  0
 61 60  1  0
 63 57  2  0
 64 63  1  0
 64 59  2  0
 65 58  1  0
 66 56  1  0
 68 70  2  0
 69 68  1  0
 71 69  1  0
 72 81  2  0
 72 77  1  0
 73 69  1  0
 73 77  1  0
 74 73  1  0
 75 76  1  0
 75 74  1  0
 76 72  1  0
 77 78  2  0
 78 79  1  0
 80 79  2  0
 81 80  1  0
 82 56  1  0
 82 87  1  0
 82 83  1  0
 83 86  1  1
 83 84  1  0
 85 83  1  0
 87 90  1  0
 88 92  1  0
 88 87  1  0
 89 88  2  0
 92 91  1  0
 94 92  1  0
 94 95  1  0
 94 93  1  0
M  ISO  4  11 100  20 100  51 101  55 101
M  END
>  <TORSDO>  (64) 
F 19

>  <SCORE>  (64) 
-13.968

>  <name>  (64) 
64

>  <ligand_id>  (64) 
64

>  <original_smiles>  (64) 
[H]OC(C(=O)N([H])c1c([H])c([H])c(C(=O)N([H])C(=O)N2C([H])([H])C([H])([H])C([H])([H])C([H])(n3nc(-c4c([H])c([H])c(Oc5c([H])c([H])c(F)c([H])c5F)c([H])c4[H])c(C(=O)N([H])[H])c3N([H])[H])C2([H])[H])c([H])c1[H])=C([H])Oc1c([H])c([H])c2c(c1[H])C([H])([H])N(C(=O)C([H])(N([H])C(=O)C([H])(N([H])C([H])([H])[H])C([H])([H])[H])C(C([H])([H])[H])(C([H])([H])[H])C([H])([H])[H])C([H])(C(=O)N([H])C1([H])c3c([H])c([H])c([H])c([H])c3C([H])([H])C([H])([H])C1([H])[H])C2([H])[H]

>  <smiles>  (64) 
[H]OC(C(=O)N([H])c1c([H])c([H])c(C(=O)N([H])C(=O)N2C([H])([H])C([H])([H])C([H])([H])C([H])(n3nc(-c4c([H])c([H])c(Oc5c([H])c([H])c(F)c([H])c5F)c([H])c4[H])c(C(=O)N([H])[H])c3N([H])[H])C2([H])[H])c([H])c1[H])=C([H])Oc1c([H])c([H])c2c(c1[H])C([H])([H])N(C(=O)C([H])(N([H])C(=O)C([H])(N([H])C([H])([H])[H])C([H])([H])[H])C(C([H])([H])[H])(C([H])([H])[H])C([H])([H])[H])C([H])(C(=O)N([H])C1([H])c3c([H])c([H])c([H])c([H])c3C([H])([H])C([H])([H])C1([H])[H])C2([H])[H]

$$$$
65:0:0
     RDKit          3D

100109  0  0  1  0  0  0  0  0999 V2000
  -28.0730  -24.3970   21.4550 C   0  0  0  0  0  3  0  0  0  0  0  0
  -28.4960  -24.4920   20.0930 C   0  0  0  0  0  0  0  0  0  0  0  0
  -28.1380  -23.0770   21.8180 C   0  0  0  0  0  0  0  0  0  0  0  0
  -28.7260  -23.2020   19.6920 C   0  0  0  0  0  0  0  0  0  0  0  0
  -28.5960  -22.3210   20.7520 N   0  0  0  0  0  0  0  0  0  0  0  0
  -30.9360  -19.4600   20.7300 C   0  0  0  0  0  3  0  0  0  0  0  0
  -30.3990  -20.7460   20.9070 C   0  0  0  0  0  3  0  0  0  0  0  0
  -28.1680  -19.8850   20.4340 C   0  0  0  0  0  3  0  0  0  0  0  0
  -30.1080  -18.3680   20.3600 C   0  0  0  0  0  0  0  0  0  0  0  0
  -29.0190  -20.9720   20.7360 C   0  0  0  0  0  0  0  0  0  0  0  0
  -28.7130  -18.5870   20.2440 C   0  0  0  0  0  0  0  0  0  0  0  0
  -27.8910  -17.5610   19.9040 F   0  0  0  0  0  0  0  0  0  0  0  0
  -30.9050  -14.5760   19.9680 C   0  0  0  0  0  0  0  0  0  0  0  0
  -30.4780  -12.3930   18.9480 C   0  0  0  0  0  2  0  0  0  0  0  0
  -29.4900  -12.5720   17.7820 C   0  0  0  0  0  2  0  0  0  0  0  0
  -28.0470  -12.4220   18.2850 C   0  0  0  0  0  2  0  0  0  0  0  0
  -27.7600  -13.2820   19.5510 C   0  0  0  0  0  3  0  0  0  0  0  0
  -28.8830  -13.1750   20.6060 C   0  0  0  0  0  2  0  0  0  0  0  0
  -30.1670  -13.4350   19.9420 N   0  0  0  0  0  0  0  0  0  0  0  0
  -32.0520  -14.6040   19.5080 O   0  0  0  0  0  0  0  0  0  0  0  0
  -30.7580  -17.0880   19.9800 C   0  0  0  0  0  0  0  0  0  0  0  0
  -30.2650  -15.8460   20.2780 N   0  0  0  0  0  0  0  0  0  0  0  0
  -31.8910  -17.2310   19.2710 N   0  0  0  0  0  4  0  0  0  0  0  0
  -29.3310  -15.8900   20.6530 H   0  0  0  0  0  0  0  0  0  0  0  0
  -32.2220  -18.1340   18.9730 H   0  0  0  0  0  0  0  0  0  0  0  0
  -32.4060  -16.3890   19.0340 H   0  0  0  0  0  0  0  0  0  0  0  0
  -25.4210  -13.8430   20.4470 C   0  0  0  0  0  0  0  0  0  0  0  0
  -24.3800  -13.0530   20.8580 C   0  0  0  0  0  0  0  0  0  0  0  0
  -24.8460  -11.7060   20.7570 C   0  0  0  0  0  0  0  0  0  0  0  0
  -26.4520  -12.9750   20.1190 N   0  0  0  0  0  0  0  0  0  0  0  0
  -26.1150  -11.6800   20.3610 N   0  0  0  0  0  0  0  0  0  0  0  0
  -24.1370  -10.4340   20.9480 C   0  0  0  0  0  0  0  0  0  0  0  0
  -24.5730   -9.4720   21.8890 C   0  0  0  0  0  3  0  0  0  0  0  0
  -23.8570   -8.2700   22.0750 C   0  0  0  0  0  3  0  0  0  0  0  0
  -22.6910   -8.0200   21.3120 C   0  0  0  0  0  0  0  0  0  0  0  0
  -22.2740   -8.9620   20.3570 C   0  0  0  0  0  3  0  0  0  0  0  0
  -22.9920  -10.1560   20.1710 C   0  0  0  0  0  3  0  0  0  0  0  0
  -21.9510   -6.8660   21.4030 O   0  0  0  0  0  0  0  0  0  0  0  0
  -21.8280   -6.1810   22.5860 C   0  0  0  0  0  0  0  0  0  0  0  0
  -21.2840   -6.7790   23.7430 C   0  0  0  0  0  3  0  0  0  0  0  0
  -21.1140   -6.0170   24.9170 C   0  0  0  0  0  3  0  0  0  0  0  0
  -21.4670   -4.6570   24.9280 C   0  0  0  0  0  0  0  0  0  0  0  0
  -21.9980   -4.0550   23.7750 C   0  0  0  0  0  3  0  0  0  0  0  0
  -22.1710   -4.8140   22.6050 C   0  0  0  0  0  0  0  0  0  0  0  0
  -22.6650   -4.2240   21.4880 F   0  0  0  0  0  0  0  0  0  0  0  0
  -21.2940   -3.9210   26.0530 F   0  0  0  0  0  0  0  0  0  0  0  0
  -23.0010  -13.5180   21.2260 C   0  0  0  0  0  0  0  0  0  0  0  0
  -22.3310  -12.7920   22.1150 N   0  0  0  0  0  0  0  0  0  0  0  0
  -22.5330  -14.5640   20.7810 O   0  0  0  0  0  0  0  0  0  0  0  0
  -22.7230  -11.9470   22.4990 H   0  0  0  0  0  0  0  0  0  0  0  0
  -21.4060  -13.0810   22.4050 H   0  0  0  0  0  0  0  0  0  0  0  0
  -25.5700  -15.2190   20.3120 N   0  0  0  0  0  0  0  0  0  0  0  0
  -24.8100  -15.8620   20.5010 H   0  0  0  0  0  0  0  0  0  0  0  0
  -26.3980  -15.6840   19.9710 H   0  0  0  0  0  0  0  0  0  0  0  0
  -27.8730  -22.5010   23.0240 O   0  0  0  0  0  0  0  0  0  0  0  0
  -27.6320  -23.2010   23.6250 H   0  0  0  0  0  0  0  0  0  0  0  0
  -29.1310  -22.7590   18.4730 O   0  0  0  0  0  0  0  0  0  0  0  0
  -28.9550  -23.4450   17.8410 H   0  0  0  0  0  0  0  0  0  0  0  0
  -28.7460  -25.7260   19.2490 C   0  0  0  0  0  2  0  0  0  0  0  0
  -28.5660  -26.9460   19.9450 O   0  0  0  0  0  0  0  0  0  0  0  0
  -24.6440  -31.8530   23.1560 C   0  0  0  0  0  0  0  0  0  0  0  0
  -27.3350  -27.5590   19.9580 C   0  0  0  0  0  0  0  0  0  0  0  0
  -23.4430  -30.4660   21.4910 C   0  0  0  0  0  3  0  0  0  0  0  0
  -24.9060  -28.9870   20.0230 C   0  0  0  0  0  0  0  0  0  0  0  0
  -25.9530  -30.8830   21.2770 C   0  0  0  0  0  2  0  0  0  0  0  0
  -26.0540  -29.5290   20.6180 C   0  0  0  0  0  0  0  0  0  0  0  0
  -27.2670  -28.8190   20.5850 C   0  0  0  0  0  3  0  0  0  0  0  0
  -26.1670  -27.0090   19.3770 C   0  0  0  0  0  3  0  0  0  0  0  0
  -24.9550  -27.7250   19.4010 C   0  0  0  0  0  3  0  0  0  0  0  0
  -23.6440  -29.8130   20.0960 C   0  0  0  0  0  2  0  0  0  0  0  0
  -24.6980  -31.0780   22.0360 N   0  0  0  0  0  0  0  0  0  0  0  0
  -23.5620  -32.0960   23.7100 O   0  0  0  0  0  0  0  0  0  0  0  0
  -22.8180  -29.4180   22.4350 C   0  0  0  0  0  0  0  0  0  0  0  0
  -21.5000  -29.2000   22.2990 N   0  0  0  0  0  0  0  0  0  0  0  0
  -23.5130  -28.7960   23.2430 O   0  0  0  0  0  0  0  0  0  0  0  0
  -21.0020  -29.7550   21.6170 H   0  0  0  0  0  0  0  0  0  0  0  0
  -18.1590  -27.9050   22.7280 C   0  0  0  0  0  0  0  0  0  0  0  0
  -20.7000  -28.2280   23.0430 C   0  0  0  0  0  3  0  0  0  0  0  0
  -20.8540  -26.8100   22.4530 C   0  0  0  0  0  2  0  0  0  0  0  0
  -19.7790  -26.4720   21.4200 C   0  0  0  0  0  2  0  0  0  0  0  0
  -18.3840  -26.5710   22.0350 C   0  0  0  0  0  2  0  0  0  0  0  0
  -19.2480  -28.6950   23.1820 C   0  0  0  0  0  0  0  0  0  0  0  0
  -18.9850  -29.9470   23.7800 C   0  0  0  0  0  3  0  0  0  0  0  0
  -17.6640  -30.4090   23.9320 C   0  0  0  0  0  3  0  0  0  0  0  0
  -16.5890  -29.6150   23.4990 C   0  0  0  0  0  3  0  0  0  0  0  0
  -16.8360  -28.3670   22.9000 C   0  0  0  0  0  3  0  0  0  0  0  0
  -25.9300  -32.4840   23.7840 C   0  0  0  0  0  3  0  0  0  0  0  0
  -26.4610  -31.6950   25.0410 C   0  0  1  0  0  0  0  0  0  0  0  0
  -25.3790  -31.4380   26.1120 C   0  0  0  0  0  1  0  0  0  0  0  0
  -27.0430  -30.3270   24.6230 C   0  0  0  0  0  1  0  0  0  0  0  0
  -27.6090  -32.4840   25.7070 C   0  0  0  0  0  1  0  0  0  0  0  0
  -25.6080  -33.8760   24.1350 N   0  0  0  0  0  0  0  0  0  0  0  0
  -25.9350  -34.9400   23.3900 C   0  0  0  0  0  0  0  0  0  0  0  0
  -26.6100  -34.8540   22.3610 O   0  0  0  0  0  0  0  0  0  0  0  0
  -25.0120  -34.0180   24.9390 H   0  0  0  0  0  0  0  0  0  0  0  0
  -24.1960  -36.7220   23.0510 C   0  0  0  0  0  1  0  0  0  0  0  0
  -25.4360  -36.3150   23.8660 C   0  0  0  0  0  3  0  0  0  0  0  0
  -27.5590  -37.2000   24.7290 C   0  0  0  0  0  1  0  0  0  0  0  0
  -26.4610  -37.3780   23.7830 N   0  0  0  0  0  0  0  0  0  0  0  0
  -26.0470  -38.2900   23.9470 H   0  0  0  0  0  0  0  0  0  0  0  0
  1  3  2  0
  2  1  1  0
  3 55  1  0
  4  2  2  0
  4  5  1  0
  5  3  1  0
  6  7  1  0
  8 10  1  0
  9  6  2  0
 10  5  1  0
 10  7  2  0
 11  9  1  0
 11  8  2  0
 12 11  1  0
 13 22  1  0
 14 19  1  0
 15 16  1  0
 15 14  1  0
 17 16  1  0
 17 30  1  0
 17 18  1  0
 19 13  1  0
 19 18  1  0
 20 13  2  0
 21 22  1  0
 21  9  1  0
 22 24  1  0
 23 21  2  0
 25 23  1  0
 26 23  1  0
 27 28  2  0
 28 47  1  0
 29 28  1  0
 29 32  1  0
 30 31  1  0
 30 27  1  0
 31 29  2  0
 32 33  1  0
 33 34  2  0
 35 38  1  0
 35 34  1  0
 36 35  2  0
 37 36  1  0
 37 32  2  0
 38 39  1  0
 39 44  2  0
 39 40  1  0
 40 41  2  0
 41 42  1  0
 42 46  1  0
 43 42  2  0
 44 43  1  0
 45 44  1  0
 47 48  1  0
 48 51  1  0
 48 50  1  0
 49 47  2  0
 52 27  1  0
 52 53  1  0
 54 52  1  0
 55 56  1  0
 57  4  1  0
 58 57  1  0
 59 60  1  0
 59  2  1  0
 60 62  1  0
 61 72  2  0
 62 67  1  0
 63 71  1  0
 63 73  1  0
 64 70  1  0
 64 66  1  0
 65 71  1  0
 66 65  1  0
 67 66  2  0
 68 69  1  0
 68 62  2  0
 69 64  2  0
 70 63  1  0
 71 61  1  0
 73 75  2  0
 74 73  1  0
 76 74  1  0
 77 86  2  0
 77 82  1  0
 78 74  1  0
 78 82  1  0
 79 78  1  0
 80 81  1  0
 80 79  1  0
 81 77  1  0
 82 83  2  0
 83 84  1  0
 85 84  2  0
 86 85  1  0
 87 61  1  0
 87 92  1  0
 87 88  1  0
 88 91  1  1
 88 89  1  0
 90 88  1  0
 92 95  1  0
 93 97  1  0
 93 92  1  0
 94 93  2  0
 97 96  1  0
 99 97  1  0
 99100  1  0
 99 98  1  0
M  ISO  4  13 100  22 100  59 101  60 101
M  END
>  <TORSDO>  (65) 
F 20

>  <SCORE>  (65) 
-13.469

>  <name>  (65) 
65

>  <ligand_id>  (65) 
65

>  <original_smiles>  (65) 
[H]Oc1c([H])c(C([H])([H])Oc2c([H])c([H])c3c(c2[H])C([H])([H])N(C(=O)C([H])(N([H])C(=O)C([H])(N([H])C([H])([H])[H])C([H])([H])[H])C(C([H])([H])[H])(C([H])([H])[H])C([H])([H])[H])C([H])(C(=O)N([H])C2([H])c4c([H])c([H])c([H])c([H])c4C([H])([H])C([H])([H])C2([H])[H])C3([H])[H])c(O[H])n1-c1c([H])c([H])c(C(N([H])C(=O)N2C([H])([H])C([H])([H])C([H])([H])C([H])(n3nc(-c4c([H])c([H])c(Oc5c([H])c([H])c(F)c([H])c5F)c([H])c4[H])c(C(=O)N([H])[H])c3N([H])[H])C2([H])[H])=[N+]([H])[H])c(F)c1[H]

>  <smiles>  (65) 
[H]Oc1c([H])c(C([H])([H])Oc2c([H])c([H])c3c(c2[H])C([H])([H])N(C(=O)C([H])(N([H])C(=O)C([H])(N([H])C([H])([H])[H])C([H])([H])[H])C(C([H])([H])[H])(C([H])([H])[H])C([H])([H])[H])C([H])(C(=O)N([H])C2([H])c4c([H])c([H])c([H])c([H])c4C([H])([H])C([H])([H])C2([H])[H])C3([H])[H])c(O[H])n1-c1c([H])c([H])c(C(N([H])C(=O)N2C([H])([H])C([H])([H])C([H])([H])C([H])(n3nc(-c4c([H])c([H])c(Oc5c([H])c([H])c(F)c([H])c5F)c([H])c4[H])c(C(=O)N([H])[H])c3N([H])[H])C2([H])[H])=[N+]([H])[H])c(F)c1[H]

$$$$
66:0:0
     RDKit          3D

 96105  0  0  1  0  0  0  0  0999 V2000
  -29.8640  -23.7410   19.2790 C   0  0  0  0  0  3  0  0  0  0  0  0
  -28.8570  -23.8520   20.2850 C   0  0  0  0  0  0  0  0  0  0  0  0
  -30.2400  -22.4230   19.1580 C   0  0  0  0  0  0  0  0  0  0  0  0
  -28.7050  -22.5340   20.7270 C   0  0  0  0  0  0  0  0  0  0  0  0
  -29.5410  -21.6080   20.0520 N   0  0  0  0  0  0  0  0  0  0  0  0
  -30.9060  -19.4490   20.1990 C   0  0  0  0  0  3  0  0  0  0  0  0
  -31.0110  -18.0210   20.2870 C   0  0  0  0  0  3  0  0  0  0  0  0
  -28.5160  -19.3030   20.3110 C   0  0  0  0  0  3  0  0  0  0  0  0
  -29.6560  -20.1420   20.1980 C   0  0  0  0  0  0  0  0  0  0  0  0
  -29.8580  -17.1970   20.3890 C   0  0  0  0  0  0  0  0  0  0  0  0
  -28.6160  -17.8840   20.4060 C   0  0  0  0  0  0  0  0  0  0  0  0
  -27.4810  -17.1520   20.5050 F   0  0  0  0  0  0  0  0  0  0  0  0
  -30.6120  -14.7080   20.0650 C   0  0  0  0  0  0  0  0  0  0  0  0
  -30.3540  -12.4970   18.9470 C   0  0  0  0  0  2  0  0  0  0  0  0
  -29.3400  -12.6560   17.7920 C   0  0  0  0  0  2  0  0  0  0  0  0
  -27.8930  -12.4810   18.2990 C   0  0  0  0  0  2  0  0  0  0  0  0
  -27.6060  -13.3050   19.5830 C   0  0  0  0  0  3  0  0  0  0  0  0
  -28.7260  -13.1120   20.6300 C   0  0  0  0  0  2  0  0  0  0  0  0
  -30.0010  -13.4800   19.9910 N   0  0  0  0  0  0  0  0  0  0  0  0
  -31.7490  -14.8860   19.6190 O   0  0  0  0  0  0  0  0  0  0  0  0
  -29.8160  -15.7350   20.5060 N   0  0  0  0  0  0  0  0  0  0  0  0
  -28.9230  -15.4020   20.8360 H   0  0  0  0  0  0  0  0  0  0  0  0
  -25.2500  -13.8810   20.4380 C   0  0  0  0  0  0  0  0  0  0  0  0
  -24.2070  -13.0980   20.8460 C   0  0  0  0  0  0  0  0  0  0  0  0
  -24.6690  -11.7490   20.7640 C   0  0  0  0  0  0  0  0  0  0  0  0
  -26.2850  -13.0100   20.1340 N   0  0  0  0  0  0  0  0  0  0  0  0
  -25.9430  -11.7210   20.3880 N   0  0  0  0  0  0  0  0  0  0  0  0
  -23.9560  -10.4820   20.9670 C   0  0  0  0  0  0  0  0  0  0  0  0
  -24.4120   -9.5180   21.8930 C   0  0  0  0  0  3  0  0  0  0  0  0
  -23.6980   -8.3150   22.0830 C   0  0  0  0  0  3  0  0  0  0  0  0
  -22.5140   -8.0690   21.3480 C   0  0  0  0  0  0  0  0  0  0  0  0
  -22.0770   -9.0230   20.4120 C   0  0  0  0  0  3  0  0  0  0  0  0
  -22.7910  -10.2170   20.2190 C   0  0  0  0  0  3  0  0  0  0  0  0
  -21.7700   -6.9180   21.4480 O   0  0  0  0  0  0  0  0  0  0  0  0
  -21.7140   -6.1950   22.6120 C   0  0  0  0  0  0  0  0  0  0  0  0
  -21.2380   -6.7570   23.8160 C   0  0  0  0  0  3  0  0  0  0  0  0
  -21.1320   -5.9600   24.9720 C   0  0  0  0  0  3  0  0  0  0  0  0
  -21.4930   -4.6000   24.9270 C   0  0  0  0  0  0  0  0  0  0  0  0
  -21.9640   -4.0370   23.7270 C   0  0  0  0  0  3  0  0  0  0  0  0
  -22.0710   -4.8320   22.5720 C   0  0  0  0  0  0  0  0  0  0  0  0
  -22.5050   -4.2790   21.4140 F   0  0  0  0  0  0  0  0  0  0  0  0
  -21.3850   -3.8310   26.0350 F   0  0  0  0  0  0  0  0  0  0  0  0
  -22.8260  -13.5670   21.2040 C   0  0  0  0  0  0  0  0  0  0  0  0
  -22.1470  -12.8510   22.0950 N   0  0  0  0  0  0  0  0  0  0  0  0
  -22.3600  -14.6030   20.7330 O   0  0  0  0  0  0  0  0  0  0  0  0
  -22.5380  -12.0150   22.5000 H   0  0  0  0  0  0  0  0  0  0  0  0
  -21.2230  -13.1480   22.3760 H   0  0  0  0  0  0  0  0  0  0  0  0
  -25.3960  -15.2550   20.2870 N   0  0  0  0  0  0  0  0  0  0  0  0
  -24.6380  -15.8960   20.4900 H   0  0  0  0  0  0  0  0  0  0  0  0
  -26.2590  -15.7400   20.0660 H   0  0  0  0  0  0  0  0  0  0  0  0
  -31.1480  -21.8940   18.2910 O   0  0  0  0  0  0  0  0  0  0  0  0
  -31.4910  -22.6050   17.7580 H   0  0  0  0  0  0  0  0  0  0  0  0
  -27.8660  -22.0770   21.6990 O   0  0  0  0  0  0  0  0  0  0  0  0
  -27.3890  -22.8180   22.0570 H   0  0  0  0  0  0  0  0  0  0  0  0
  -28.0960  -25.1440   20.7680 C   0  0  0  0  0  2  0  0  0  0  0  0
  -28.3600  -26.4820   20.1800 O   0  0  0  0  0  0  0  0  0  0  0  0
  -24.6040  -31.8680   23.2280 C   0  0  0  0  0  0  0  0  0  0  0  0
  -27.2600  -27.3550   20.1530 C   0  0  0  0  0  0  0  0  0  0  0  0
  -23.4220  -30.4870   21.5570 C   0  0  0  0  0  3  0  0  0  0  0  0
  -24.8930  -28.9580   20.1290 C   0  0  0  0  0  0  0  0  0  0  0  0
  -25.9610  -30.8140   21.4070 C   0  0  0  0  0  2  0  0  0  0  0  0
  -26.0540  -29.4440   20.7460 C   0  0  0  0  0  0  0  0  0  0  0  0
  -27.2440  -28.6550   20.7480 C   0  0  0  0  0  3  0  0  0  0  0  0
  -26.0830  -26.9280   19.5030 C   0  0  0  0  0  3  0  0  0  0  0  0
  -24.9090  -27.7050   19.4980 C   0  0  0  0  0  3  0  0  0  0  0  0
  -23.6530  -29.8280   20.1720 C   0  0  0  0  0  2  0  0  0  0  0  0
  -24.6800  -31.0730   22.1220 N   0  0  0  0  0  0  0  0  0  0  0  0
  -23.5150  -32.1380   23.7540 O   0  0  0  0  0  0  0  0  0  0  0  0
  -22.7490  -29.4590   22.4970 C   0  0  0  0  0  0  0  0  0  0  0  0
  -21.4200  -29.3020   22.3700 N   0  0  0  0  0  0  0  0  0  0  0  0
  -23.4220  -28.8050   23.3000 O   0  0  0  0  0  0  0  0  0  0  0  0
  -20.9370  -29.8800   21.6970 H   0  0  0  0  0  0  0  0  0  0  0  0
  -18.0240  -28.1660   22.8800 C   0  0  0  0  0  0  0  0  0  0  0  0
  -20.5910  -28.3600   23.1240 C   0  0  0  0  0  3  0  0  0  0  0  0
  -20.6540  -26.9440   22.5040 C   0  0  0  0  0  2  0  0  0  0  0  0
  -19.5310  -26.6770   21.4950 C   0  0  0  0  0  2  0  0  0  0  0  0
  -18.1610  -26.8340   22.1630 C   0  0  0  0  0  2  0  0  0  0  0  0
  -19.1650  -28.8900   23.3180 C   0  0  0  0  0  0  0  0  0  0  0  0
  -18.9820  -30.1380   23.9510 C   0  0  0  0  0  3  0  0  0  0  0  0
  -17.6910  -30.6620   24.1500 C   0  0  0  0  0  3  0  0  0  0  0  0
  -16.5640  -29.9350   23.7280 C   0  0  0  0  0  3  0  0  0  0  0  0
  -16.7320  -28.6880   23.0990 C   0  0  0  0  0  3  0  0  0  0  0  0
  -25.8800  -32.4940   23.8730 C   0  0  0  0  0  3  0  0  0  0  0  0
  -26.3780  -31.7110   25.1490 C   0  0  1  0  0  0  0  0  0  0  0  0
  -25.2700  -31.4650   26.2000 C   0  0  0  0  0  1  0  0  0  0  0  0
  -26.9650  -30.3350   24.7530 C   0  0  0  0  0  1  0  0  0  0  0  0
  -27.5200  -32.4980   25.8330 C   0  0  0  0  0  1  0  0  0  0  0  0
  -25.5670  -33.8900   24.2120 N   0  0  0  0  0  0  0  0  0  0  0  0
  -25.9090  -34.9490   23.4680 C   0  0  0  0  0  0  0  0  0  0  0  0
  -26.5910  -34.8550   22.4440 O   0  0  0  0  0  0  0  0  0  0  0  0
  -24.9620  -34.0370   25.0070 H   0  0  0  0  0  0  0  0  0  0  0  0
  -24.1940  -36.7540   23.1030 C   0  0  0  0  0  1  0  0  0  0  0  0
  -25.4180  -36.3340   23.9320 C   0  0  0  0  0  3  0  0  0  0  0  0
  -27.5360  -37.2030   24.8180 C   0  0  0  0  0  1  0  0  0  0  0  0
  -26.4560  -37.3850   23.8520 N   0  0  0  0  0  0  0  0  0  0  0  0
  -26.0500  -38.3040   24.0010 H   0  0  0  0  0  0  0  0  0  0  0  0
  1  2  1  0
  2  4  2  0
  2 55  1  0
  3  1  2  0
  3  5  1  0
  4 53  1  0
  5  9  1  0
  5  4  1  0
  6  7  1  0
  7 10  2  0
  8 11  2  0
  9  6  2  0
  9  8  1  0
 10 11  1  0
 10 21  1  0
 11 12  1  0
 13 21  1  0
 14 19  1  0
 15 16  1  0
 15 14  1  0
 17 16  1  0
 17 26  1  0
 17 18  1  0
 19 13  1  0
 19 18  1  0
 20 13  2  0
 21 22  1  0
 23 24  2  0
 24 43  1  0
 25 24  1  0
 25 28  1  0
 26 27  1  0
 26 23  1  0
 27 25  2  0
 28 29  1  0
 29 30  2  0
 31 34  1  0
 31 30  1  0
 32 31  2  0
 33 32  1  0
 33 28  2  0
 34 35  1  0
 35 36  1  0
 36 37  2  0
 38 37  1  0
 38 42  1  0
 39 38  2  0
 40 35  2  0
 40 39  1  0
 41 40  1  0
 43 44  1  0
 44 47  1  0
 44 46  1  0
 45 43  2  0
 48 23  1  0
 48 49  1  0
 50 48  1  0
 51  3  1  0
 52 51  1  0
 53 54  1  0
 56 55  1  0
 57 68  2  0
 58 56  1  0
 58 63  1  0
 59 67  1  0
 59 69  1  0
 60 66  1  0
 60 62  1  0
 61 67  1  0
 62 63  2  0
 62 61  1  0
 64 58  2  0
 65 64  1  0
 65 60  2  0
 66 59  1  0
 67 57  1  0
 69 71  2  0
 70 69  1  0
 72 70  1  0
 73 82  2  0
 73 78  1  0
 74 70  1  0
 74 78  1  0
 75 74  1  0
 76 77  1  0
 76 75  1  0
 77 73  1  0
 78 79  2  0
 79 80  1  0
 81 80  2  0
 82 81  1  0
 83 57  1  0
 83 88  1  0
 83 84  1  0
 84 87  1  1
 84 85  1  0
 86 84  1  0
 88 91  1  0
 89 93  1  0
 89 88  1  0
 90 89  2  0
 93 92  1  0
 95 93  1  0
 95 96  1  0
 95 94  1  0
M  ISO  4  13 100  21 100  55 101  56 101
M  END
>  <TORSDO>  (66) 
F 20

>  <SCORE>  (66) 
-14.683

>  <name>  (66) 
66

>  <ligand_id>  (66) 
66

>  <original_smiles>  (66) 
[H]Oc1c([H])c(C([H])([H])Oc2c([H])c([H])c3c(c2[H])C([H])([H])N(C(=O)C([H])(N([H])C(=O)C([H])(N([H])C([H])([H])[H])C([H])([H])[H])C(C([H])([H])[H])(C([H])([H])[H])C([H])([H])[H])C([H])(C(=O)N([H])C2([H])c4c([H])c([H])c([H])c([H])c4C([H])([H])C([H])([H])C2([H])[H])C3([H])[H])c(O[H])n1-c1c([H])c([H])c(N([H])C(=O)N2C([H])([H])C([H])([H])C([H])([H])C([H])(n3nc(-c4c([H])c([H])c(Oc5c([H])c([H])c(F)c([H])c5F)c([H])c4[H])c(C(=O)N([H])[H])c3N([H])[H])C2([H])[H])c(F)c1[H]

>  <smiles>  (66) 
[H]Oc1c([H])c(C([H])([H])Oc2c([H])c([H])c3c(c2[H])C([H])([H])N(C(=O)C([H])(N([H])C(=O)C([H])(N([H])C([H])([H])[H])C([H])([H])[H])C(C([H])([H])[H])(C([H])([H])[H])C([H])([H])[H])C([H])(C(=O)N([H])C2([H])c4c([H])c([H])c([H])c([H])c4C([H])([H])C([H])([H])C2([H])[H])C3([H])[H])c(O[H])n1-c1c([H])c([H])c(N([H])C(=O)N2C([H])([H])C([H])([H])C([H])([H])C([H])(n3nc(-c4c([H])c([H])c(Oc5c([H])c([H])c(F)c([H])c5F)c([H])c4[H])c(C(=O)N([H])[H])c3N([H])[H])C2([H])[H])c(F)c1[H]

$$$$
67:0:0
     RDKit          3D

101110  0  0  1  0  0  0  0  0999 V2000
  -30.7470  -22.3880   21.5090 O   0  0  0  0  0  0  0  0  0  0  0  0
  -31.7040  -21.6600   19.2560 O   0  0  0  0  0  0  0  0  0  0  0  0
  -30.5600  -22.0800   20.0810 S   0  0  2  0  0  0  0  0  0  0  0  0
  -28.5750  -25.6590   17.9850 C   0  0  0  0  0  3  0  0  0  0  0  0
  -29.5150  -23.4070   17.8790 C   0  0  0  0  0  3  0  0  0  0  0  0
  -29.2950  -24.5490   20.0320 C   0  0  0  0  0  3  0  0  0  0  0  0
  -28.9510  -24.5260   17.2320 C   0  0  0  0  0  0  0  0  0  0  0  0
  -28.7330  -25.6690   19.3890 C   0  0  0  0  0  0  0  0  0  0  0  0
  -29.7000  -23.4320   19.2750 C   0  0  0  0  0  0  0  0  0  0  0  0
  -28.7870  -24.5290   15.8480 N   0  0  0  0  0  0  0  0  0  0  0  0
  -28.6640  -25.4170   15.3690 H   0  0  0  0  0  0  0  0  0  0  0  0
  -29.2810  -23.8420   15.2860 H   0  0  0  0  0  0  0  0  0  0  0  0
  -28.4580  -26.7830   20.1410 O   0  0  0  0  0  0  0  0  0  0  0  0
  -24.4990  -31.8190   23.1530 C   0  0  0  0  0  0  0  0  0  0  0  0
  -27.2470  -27.4390   20.0960 C   0  0  0  0  0  0  0  0  0  0  0  0
  -23.3330  -30.4140   21.4790 C   0  0  0  0  0  3  0  0  0  0  0  0
  -24.8250  -28.8940   20.0790 C   0  0  0  0  0  0  0  0  0  0  0  0
  -25.8560  -30.8020   21.3290 C   0  0  0  0  0  2  0  0  0  0  0  0
  -25.9640  -29.4380   20.6850 C   0  0  0  0  0  0  0  0  0  0  0  0
  -27.1750  -28.7140   20.6920 C   0  0  0  0  0  3  0  0  0  0  0  0
  -26.0820  -26.8890   19.5110 C   0  0  0  0  0  3  0  0  0  0  0  0
  -24.8760  -27.6170   19.4930 C   0  0  0  0  0  3  0  0  0  0  0  0
  -23.5730  -29.7400   20.1020 C   0  0  0  0  0  2  0  0  0  0  0  0
  -24.5800  -31.0260   22.0470 N   0  0  0  0  0  0  0  0  0  0  0  0
  -23.4060  -32.0790   23.6740 O   0  0  0  0  0  0  0  0  0  0  0  0
  -22.6750  -29.3840   22.4250 C   0  0  0  0  0  0  0  0  0  0  0  0
  -21.3470  -29.2330   22.3090 N   0  0  0  0  0  0  0  0  0  0  0  0
  -23.3560  -28.7220   23.2130 O   0  0  0  0  0  0  0  0  0  0  0  0
  -20.8600  -29.8160   21.6420 H   0  0  0  0  0  0  0  0  0  0  0  0
  -17.9450  -28.1580   22.8770 C   0  0  0  0  0  0  0  0  0  0  0  0
  -20.5190  -28.2950   23.0670 C   0  0  0  0  0  3  0  0  0  0  0  0
  -20.5410  -26.8890   22.4230 C   0  0  0  0  0  2  0  0  0  0  0  0
  -19.3910  -26.6610   21.4360 C   0  0  0  0  0  2  0  0  0  0  0  0
  -18.0390  -26.8350   22.1370 C   0  0  0  0  0  2  0  0  0  0  0  0
  -19.1110  -28.8510   23.3000 C   0  0  0  0  0  0  0  0  0  0  0  0
  -18.9690  -30.0950   23.9540 C   0  0  0  0  0  3  0  0  0  0  0  0
  -17.6940  -30.6430   24.1890 C   0  0  0  0  0  3  0  0  0  0  0  0
  -16.5430  -29.9450   23.7820 C   0  0  0  0  0  3  0  0  0  0  0  0
  -16.6700  -28.7050   23.1320 C   0  0  0  0  0  3  0  0  0  0  0  0
  -25.7700  -32.4540   23.7980 C   0  0  0  0  0  3  0  0  0  0  0  0
  -25.4390  -33.8420   24.1470 N   0  0  0  0  0  0  0  0  0  0  0  0
  -25.7940  -34.9120   23.4240 C   0  0  0  0  0  0  0  0  0  0  0  0
  -26.5050  -34.8350   22.4170 O   0  0  0  0  0  0  0  0  0  0  0  0
  -24.8150  -33.9770   24.9280 H   0  0  0  0  0  0  0  0  0  0  0  0
  -24.0950  -36.7180   23.0080 C   0  0  0  0  0  1  0  0  0  0  0  0
  -25.2780  -36.2870   23.8890 C   0  0  0  0  0  3  0  0  0  0  0  0
  -27.3510  -37.1410   24.8890 C   0  0  0  0  0  1  0  0  0  0  0  0
  -26.3180  -37.3400   23.8780 N   0  0  0  0  0  0  0  0  0  0  0  0
  -25.9040  -38.2570   24.0220 H   0  0  0  0  0  0  0  0  0  0  0  0
  -26.2850  -31.6680   25.0670 C   0  0  1  0  0  0  0  0  0  0  0  0
  -25.1830  -31.3930   26.1160 C   0  0  0  0  0  1  0  0  0  0  0  0
  -26.8950  -30.3080   24.6540 C   0  0  0  0  0  1  0  0  0  0  0  0
  -27.4150  -32.4680   25.7560 C   0  0  0  0  0  1  0  0  0  0  0  0
  -29.4670  -20.7520   20.0390 N   0  0  0  0  0  0  0  0  0  0  0  0
  -28.7770  -20.8280   19.3010 H   0  0  0  0  0  0  0  0  0  0  0  0
  -30.9540  -17.7550   21.7010 C   0  0  0  0  0  3  0  0  0  0  0  0
  -30.6680  -19.1030   21.4040 C   0  0  0  0  0  3  0  0  0  0  0  0
  -29.4430  -17.0440   19.9360 C   0  0  0  0  0  3  0  0  0  0  0  0
  -30.3520  -16.7060   20.9680 C   0  0  0  0  0  0  0  0  0  0  0  0
  -29.7590  -19.4270   20.3750 C   0  0  0  0  0  0  0  0  0  0  0  0
  -29.1430  -18.3890   19.6510 C   0  0  0  0  0  0  0  0  0  0  0  0
  -28.2600  -18.6960   18.6680 F   0  0  0  0  0  0  0  0  0  0  0  0
  -30.6340  -15.2880   21.3250 C   0  0  0  0  0  0  0  0  0  0  0  0
  -30.6090  -14.8990   22.5340 N   0  0  0  0  0  0  0  0  0  0  0  0
  -30.3400  -15.6510   23.1560 H   0  0  0  0  0  0  0  0  0  0  0  0
  -31.0200  -14.3820   20.1600 C   0  0  0  0  0  0  0  0  0  0  0  0
  -30.5480  -12.3510   18.8400 C   0  0  0  0  0  2  0  0  0  0  0  0
  -29.5350  -12.6510   17.7200 C   0  0  0  0  0  2  0  0  0  0  0  0
  -28.0880  -12.5090   18.2340 C   0  0  0  0  0  2  0  0  0  0  0  0
  -27.8580  -13.2790   19.5580 C   0  0  0  0  0  3  0  0  0  0  0  0
  -28.9650  -12.9400   20.5770 C   0  0  0  0  0  2  0  0  0  0  0  0
  -30.2740  -13.2550   19.9690 N   0  0  0  0  0  0  0  0  0  0  0  0
  -31.9930  -14.6790   19.4540 O   0  0  0  0  0  0  0  0  0  0  0  0
  -25.5330  -13.9210   20.4660 C   0  0  0  0  0  0  0  0  0  0  0  0
  -24.4690  -13.1590   20.8710 C   0  0  0  0  0  0  0  0  0  0  0  0
  -24.8820  -11.8000   20.7290 C   0  0  0  0  0  0  0  0  0  0  0  0
  -26.5290  -13.0230   20.1100 N   0  0  0  0  0  0  0  0  0  0  0  0
  -26.1430  -11.7400   20.3230 N   0  0  0  0  0  0  0  0  0  0  0  0
  -24.1310  -10.5500   20.9000 C   0  0  0  0  0  0  0  0  0  0  0  0
  -24.6030   -9.5140   21.7350 C   0  0  0  0  0  3  0  0  0  0  0  0
  -23.8570   -8.3260   21.8950 C   0  0  0  0  0  3  0  0  0  0  0  0
  -22.6230   -8.1670   21.2190 C   0  0  0  0  0  0  0  0  0  0  0  0
  -22.1700   -9.1910   20.3680 C   0  0  0  0  0  3  0  0  0  0  0  0
  -22.9170  -10.3700   20.2070 C   0  0  0  0  0  3  0  0  0  0  0  0
  -21.8400   -7.0410   21.2980 O   0  0  0  0  0  0  0  0  0  0  0  0
  -21.8690   -6.2200   22.3950 C   0  0  0  0  0  0  0  0  0  0  0  0
  -21.5780   -6.6970   23.6920 C   0  0  0  0  0  3  0  0  0  0  0  0
  -21.5500   -5.8030   24.7810 C   0  0  0  0  0  3  0  0  0  0  0  0
  -21.8040   -4.4340   24.5760 C   0  0  0  0  0  0  0  0  0  0  0  0
  -22.0900   -3.9560   23.2860 C   0  0  0  0  0  3  0  0  0  0  0  0
  -22.1210   -4.8470   22.1980 C   0  0  0  0  0  0  0  0  0  0  0  0
  -22.3750   -4.3780   20.9520 F   0  0  0  0  0  0  0  0  0  0  0  0
  -21.7710   -3.5730   25.6200 F   0  0  0  0  0  0  0  0  0  0  0  0
  -23.1110  -13.6590   21.2730 C   0  0  0  0  0  0  0  0  0  0  0  0
  -22.4290  -12.9420   22.1600 N   0  0  0  0  0  0  0  0  0  0  0  0
  -22.6650  -14.7180   20.8350 O   0  0  0  0  0  0  0  0  0  0  0  0
  -22.7990  -12.0820   22.5360 H   0  0  0  0  0  0  0  0  0  0  0  0
  -21.5190  -13.2560   22.4670 H   0  0  0  0  0  0  0  0  0  0  0  0
  -25.7250  -15.2940   20.3500 N   0  0  0  0  0  0  0  0  0  0  0  0
  -24.9820  -15.9560   20.5440 H   0  0  0  0  0  0  0  0  0  0  0  0
  -26.5530  -15.7310   19.9660 H   0  0  0  0  0  0  0  0  0  0  0  0
  2  3  2  0
  3  1  2  0
  4  8  1  0
  5  9  2  0
  7  5  1  0
  7  4  2  0
  8  6  2  0
  8 13  1  0
  9  6  1  0
  9  3  1  0
 10  7  1  0
 11 10  1  0
 12 10  1  0
 14 25  2  0
 15 13  1  0
 15 20  1  0
 16 24  1  0
 16 26  1  0
 17 23  1  0
 17 19  1  0
 18 24  1  0
 19 20  2  0
 19 18  1  0
 21 15  2  0
 22 21  1  0
 22 17  2  0
 23 16  1  0
 24 14  1  0
 26 28  2  0
 27 26  1  0
 29 27  1  0
 30 39  2  0
 30 35  1  0
 31 27  1  0
 31 35  1  0
 32 31  1  0
 33 34  1  0
 33 32  1  0
 34 30  1  0
 35 36  2  0
 36 37  1  0
 38 37  2  0
 39 38  1  0
 40 14  1  0
 40 41  1  0
 40 50  1  0
 41 44  1  0
 42 46  1  0
 42 41  1  0
 43 42  2  0
 46 45  1  0
 48 46  1  0
 48 49  1  0
 48 47  1  0
 50 53  1  1
 50 51  1  0
 52 50  1  0
  3 54  1  1
 54 60  1  0
 55 54  1  0
 57 56  1  0
 58 59  1  0
 59 63  1  0
 59 56  2  0
 60 57  2  0
 61 58  2  0
 61 60  1  0
 62 61  1  0
 63 64  2  0
 64 65  1  0
 66 63  1  0
 67 72  1  0
 68 69  1  0
 68 67  1  0
 70 69  1  0
 70 77  1  0
 70 71  1  0
 72 66  1  0
 72 71  1  0
 73 66  2  0
 74 75  2  0
 75 94  1  0
 76 75  1  0
 76 79  1  0
 77 78  1  0
 77 74  1  0
 78 76  2  0
 79 80  1  0
 80 81  2  0
 82 85  1  0
 82 81  1  0
 83 82  2  0
 84 83  1  0
 84 79  2  0
 85 86  1  0
 86 87  1  0
 87 88  2  0
 89 88  1  0
 89 93  1  0
 90 89  2  0
 91 86  2  0
 91 90  1  0
 92 91  1  0
 94 95  1  0
 95 98  1  0
 95 97  1  0
 96 94  2  0
 99 74  1  0
 99100  1  0
101 99  1  0
M  ISO  4   8 101  13 101  63 100  66 100
M  END
>  <TORSDO>  (67) 
F 21

>  <SCORE>  (67) 
-12.861

>  <name>  (67) 
67

>  <ligand_id>  (67) 
67

>  <original_smiles>  (67) 
[H]N=C(C(=O)N1C([H])([H])C([H])([H])C([H])([H])C([H])(n2nc(-c3c([H])c([H])c(Oc4c([H])c([H])c(F)c([H])c4F)c([H])c3[H])c(C(=O)N([H])[H])c2N([H])[H])C1([H])[H])c1c([H])c([H])c(N([H])S(=O)(=O)c2c([H])c(Oc3c([H])c([H])c4c(c3[H])C([H])([H])N(C(=O)C([H])(N([H])C(=O)C([H])(N([H])C([H])([H])[H])C([H])([H])[H])C(C([H])([H])[H])(C([H])([H])[H])C([H])([H])[H])C([H])(C(=O)N([H])C3([H])c5c([H])c([H])c([H])c([H])c5C([H])([H])C([H])([H])C3([H])[H])C4([H])[H])c([H])c(N([H])[H])c2[H])c(F)c1[H]

>  <smiles>  (67) 
[H]N=C(C(=O)N1C([H])([H])C([H])([H])C([H])([H])C([H])(n2nc(-c3c([H])c([H])c(Oc4c([H])c([H])c(F)c([H])c4F)c([H])c3[H])c(C(=O)N([H])[H])c2N([H])[H])C1([H])[H])c1c([H])c([H])c(N([H])S(=O)(=O)c2c([H])c(Oc3c([H])c([H])c4c(c3[H])C([H])([H])N(C(=O)C([H])(N([H])C(=O)C([H])(N([H])C([H])([H])[H])C([H])([H])[H])C(C([H])([H])[H])(C([H])([H])[H])C([H])([H])[H])C([H])(C(=O)N([H])C3([H])c5c([H])c([H])c([H])c([H])c5C([H])([H])C([H])([H])C3([H])[H])C4([H])[H])c([H])c(N([H])[H])c2[H])c(F)c1[H]

$$$$
68:0:0
     RDKit          3D

102111  0  0  1  0  0  0  0  0999 V2000
  -29.4410  -18.4820   19.2200 C   0  0  0  0  0  3  0  0  0  0  0  0
  -30.2560  -18.4820   21.5040 C   0  0  0  0  0  3  0  0  0  0  0  0
  -30.0710  -17.7960   20.2840 C   0  0  0  0  0  0  0  0  0  0  0  0
  -29.0440  -19.8250   19.3160 C   0  0  0  0  0  0  0  0  0  0  0  0
  -29.8440  -19.8240   21.6330 C   0  0  0  0  0  0  0  0  0  0  0  0
  -29.2220  -20.4930   20.5590 C   0  0  0  0  0  0  0  0  0  0  0  0
  -30.0580  -20.5300   22.8170 N   0  0  0  0  0  0  0  0  0  0  0  0
  -30.7520  -20.1440   23.4450 H   0  0  0  0  0  0  0  0  0  0  0  0
  -30.2500  -21.5110   22.6340 H   0  0  0  0  0  0  0  0  0  0  0  0
  -28.7830  -21.7860   20.8510 N   0  0  0  0  0  0  0  0  0  0  0  0
  -27.8110  -21.9180   20.6140 H   0  0  0  0  0  0  0  0  0  0  0  0
  -28.8550  -21.9320   21.8510 H   0  0  0  0  0  0  0  0  0  0  0  0
  -28.4630  -20.3870   18.0090 C   0  0  0  0  0  2  0  0  0  0  0  0
  -26.3400  -21.4920   17.9340 C   0  0  0  0  0  0  0  0  0  0  0  0
  -28.2980  -22.7990   18.4330 C   0  0  0  0  0  0  0  0  0  0  0  0
  -25.4410  -22.5880   18.4680 C   0  0  0  0  0  2  0  0  0  0  0  0
  -26.0290  -23.9180   18.0590 C   0  0  0  0  0  2  0  0  0  0  0  0
  -27.5160  -24.1450   18.4760 C   0  0  0  0  0  3  0  0  0  0  0  0
  -27.6790  -21.6260   18.1010 N   0  0  0  0  0  0  0  0  0  0  0  0
  -25.8050  -20.4840   17.4600 O   0  0  0  0  0  0  0  0  0  0  0  0
  -29.5110  -22.8340   18.6880 O   0  0  0  0  0  0  0  0  0  0  0  0
  -28.2760  -25.3020   17.6990 C   0  0  0  0  0  2  0  0  0  0  0  0
  -28.3470  -26.6410   18.2770 O   0  0  0  0  0  0  0  0  0  0  0  0
  -24.4970  -30.7440   22.6760 C   0  0  0  0  0  0  0  0  0  0  0  0
  -27.1780  -27.3500   18.4780 C   0  0  0  0  0  0  0  0  0  0  0  0
  -23.2650  -29.6050   20.8660 C   0  0  0  0  0  3  0  0  0  0  0  0
  -24.6990  -28.5980   19.0240 C   0  0  0  0  0  0  0  0  0  0  0  0
  -25.7310  -30.2440   20.5760 C   0  0  0  0  0  2  0  0  0  0  0  0
  -25.8650  -29.0600   19.6450 C   0  0  0  0  0  0  0  0  0  0  0  0
  -27.1070  -28.4200   19.4020 C   0  0  0  0  0  3  0  0  0  0  0  0
  -26.0130  -27.0300   17.7600 C   0  0  0  0  0  3  0  0  0  0  0  0
  -24.7660  -27.5650   18.0880 C   0  0  0  0  0  3  0  0  0  0  0  0
  -23.3950  -29.2790   19.3570 C   0  0  0  0  0  2  0  0  0  0  0  0
  -24.5180  -30.2060   21.4280 N   0  0  0  0  0  0  0  0  0  0  0  0
  -23.4500  -30.7850   23.3410 O   0  0  0  0  0  0  0  0  0  0  0  0
  -22.8080  -28.3310   21.6140 C   0  0  0  0  0  0  0  0  0  0  0  0
  -21.5170  -27.9880   21.4870 N   0  0  0  0  0  0  0  0  0  0  0  0
  -23.6110  -27.6600   22.2680 O   0  0  0  0  0  0  0  0  0  0  0  0
  -20.9160  -28.6010   20.9560 H   0  0  0  0  0  0  0  0  0  0  0  0
  -18.3840  -26.2120   21.7590 C   0  0  0  0  0  0  0  0  0  0  0  0
  -20.8800  -26.8100   22.0730 C   0  0  0  0  0  3  0  0  0  0  0  0
  -21.1840  -25.5350   21.2510 C   0  0  0  0  0  2  0  0  0  0  0  0
  -20.1150  -25.2290   20.1950 C   0  0  0  0  0  2  0  0  0  0  0  0
  -18.7420  -25.0450   20.8530 C   0  0  0  0  0  2  0  0  0  0  0  0
  -19.3860  -27.0490   22.3170 C   0  0  0  0  0  0  0  0  0  0  0  0
  -18.9970  -28.1460   23.1180 C   0  0  0  0  0  3  0  0  0  0  0  0
  -17.6350  -28.4080   23.3620 C   0  0  0  0  0  3  0  0  0  0  0  0
  -16.6480  -27.5670   22.8220 C   0  0  0  0  0  3  0  0  0  0  0  0
  -17.0240  -26.4710   22.0250 C   0  0  0  0  0  3  0  0  0  0  0  0
  -25.7770  -31.3700   23.3130 C   0  0  0  0  0  3  0  0  0  0  0  0
  -25.4100  -32.6950   23.8290 N   0  0  0  0  0  0  0  0  0  0  0  0
  -25.6910  -33.8530   23.2150 C   0  0  0  0  0  0  0  0  0  0  0  0
  -26.3660  -33.9160   22.1840 O   0  0  0  0  0  0  0  0  0  0  0  0
  -24.8100  -32.7160   24.6420 H   0  0  0  0  0  0  0  0  0  0  0  0
  -23.8970  -35.6090   23.0770 C   0  0  0  0  0  1  0  0  0  0  0  0
  -25.1400  -35.1420   23.8520 C   0  0  0  0  0  3  0  0  0  0  0  0
  -27.2240  -35.9820   24.8460 C   0  0  0  0  0  1  0  0  0  0  0  0
  -26.1330  -36.2370   23.9090 N   0  0  0  0  0  0  0  0  0  0  0  0
  -25.6850  -37.1120   24.1680 H   0  0  0  0  0  0  0  0  0  0  0  0
  -26.3960  -30.4770   24.4570 C   0  0  1  0  0  0  0  0  0  0  0  0
  -25.3710  -30.0560   25.5350 C   0  0  0  0  0  1  0  0  0  0  0  0
  -27.0280  -29.1920   23.8730 C   0  0  0  0  0  1  0  0  0  0  0  0
  -27.5360  -31.2460   25.1650 C   0  0  0  0  0  1  0  0  0  0  0  0
  -30.5520  -16.3360   20.1600 C   0  0  0  0  0  2  0  0  0  0  0  0
  -32.0780  -14.5740   19.2320 C   0  0  0  0  0  0  0  0  0  0  0  0
  -31.4900  -12.2600   18.6440 C   0  0  0  0  0  2  0  0  0  0  0  0
  -30.4250  -12.2340   17.5310 C   0  0  0  0  0  2  0  0  0  0  0  0
  -29.0030  -12.2930   18.1250 C   0  0  0  0  0  2  0  0  0  0  0  0
  -28.8480  -13.4090   19.1930 C   0  0  0  0  0  3  0  0  0  0  0  0
  -30.0220  -13.3770   20.1990 C   0  0  0  0  0  2  0  0  0  0  0  0
  -31.2700  -13.4900   19.4250 N   0  0  0  0  0  0  0  0  0  0  0  0
  -33.2050  -14.4250   18.7540 O   0  0  0  0  0  0  0  0  0  0  0  0
  -32.1170  -16.7880   18.1970 C   0  0  0  0  0  1  0  0  0  0  0  0
  -31.5140  -15.8150   19.1550 N   0  0  0  0  0  0  0  0  0  0  0  0
  -26.7730  -14.3520   20.3880 C   0  0  0  0  0  0  0  0  0  0  0  0
  -25.6250  -13.7570   20.8280 C   0  0  0  0  0  0  0  0  0  0  0  0
  -25.7670  -12.3640   20.5410 C   0  0  0  0  0  0  0  0  0  0  0  0
  -27.5540  -13.3320   19.8630 N   0  0  0  0  0  0  0  0  0  0  0  0
  -26.9590  -12.1210   20.0140 N   0  0  0  0  0  0  0  0  0  0  0  0
  -24.8140  -11.2570   20.6840 C   0  0  0  0  0  0  0  0  0  0  0  0
  -25.1470  -10.0850   21.3980 C   0  0  0  0  0  3  0  0  0  0  0  0
  -24.2100   -9.0400   21.5390 C   0  0  0  0  0  3  0  0  0  0  0  0
  -22.9220   -9.1630   20.9650 C   0  0  0  0  0  0  0  0  0  0  0  0
  -22.6020  -10.3240   20.2360 C   0  0  0  0  0  3  0  0  0  0  0  0
  -23.5380  -11.3600   20.0950 C   0  0  0  0  0  3  0  0  0  0  0  0
  -21.9540   -8.1910   21.0270 O   0  0  0  0  0  0  0  0  0  0  0  0
  -21.8990   -7.2930   22.0640 C   0  0  0  0  0  0  0  0  0  0  0  0
  -21.7580   -7.7130   23.4050 C   0  0  0  0  0  3  0  0  0  0  0  0
  -21.6370   -6.7570   24.4330 C   0  0  0  0  0  3  0  0  0  0  0  0
  -21.6490   -5.3840   24.1220 C   0  0  0  0  0  0  0  0  0  0  0  0
  -21.7860   -4.9640   22.7870 C   0  0  0  0  0  3  0  0  0  0  0  0
  -21.9090   -5.9160   21.7600 C   0  0  0  0  0  0  0  0  0  0  0  0
  -22.0180   -5.5080   20.4740 F   0  0  0  0  0  0  0  0  0  0  0  0
  -21.5250   -4.4650   25.1080 F   0  0  0  0  0  0  0  0  0  0  0  0
  -24.4190  -14.4490   21.3960 C   0  0  0  0  0  0  0  0  0  0  0  0
  -23.6840  -13.7850   22.2790 N   0  0  0  0  0  0  0  0  0  0  0  0
  -24.1450  -15.6090   21.0910 O   0  0  0  0  0  0  0  0  0  0  0  0
  -23.9180  -12.8420   22.5520 H   0  0  0  0  0  0  0  0  0  0  0  0
  -22.8780  -14.2290   22.6940 H   0  0  0  0  0  0  0  0  0  0  0  0
  -27.2040  -15.6780   20.3680 N   0  0  0  0  0  0  0  0  0  0  0  0
  -26.6250  -16.4290   20.7320 H   0  0  0  0  0  0  0  0  0  0  0  0
  -28.0910  -16.0000   20.0100 H   0  0  0  0  0  0  0  0  0  0  0  0
  1  4  2  0
  1  3  1  0
  2  5  1  0
  3  2  2  0
  4  6  1  0
  5  7  1  0
  6 10  1  0
  6  5  2  0
  7  8  1  0
  9  7  1  0
 10 12  1  0
 11 10  1  0
 13 19  1  0
 13  4  1  0
 14 19  1  0
 14 16  1  0
 15 18  1  0
 15 21  2  0
 17 16  1  0
 17 18  1  0
 18 22  1  0
 19 15  1  0
 20 14  2  0
 22 23  1  0
 23 25  1  0
 24 35  2  0
 25 30  1  0
 26 34  1  0
 26 36  1  0
 27 33  1  0
 27 29  1  0
 28 34  1  0
 29 28  1  0
 30 29  2  0
 31 32  1  0
 31 25  2  0
 32 27  2  0
 33 26  1  0
 34 24  1  0
 36 38  2  0
 37 36  1  0
 39 37  1  0
 40 49  2  0
 40 45  1  0
 41 37  1  0
 41 45  1  0
 42 41  1  0
 43 44  1  0
 43 42  1  0
 44 40  1  0
 45 46  2  0
 46 47  1  0
 48 47  2  0
 49 48  1  0
 50 24  1  0
 50 51  1  0
 50 60  1  0
 51 54  1  0
 52 51  1  0
 52 56  1  0
 53 52  2  0
 56 55  1  0
 56 58  1  0
 58 59  1  0
 58 57  1  0
 60 63  1  1
 60 61  1  0
 62 60  1  0
 64  3  1  0
 65 71  1  0
 66 71  1  0
 67 68  1  0
 67 66  1  0
 69 68  1  0
 69 78  1  0
 69 70  1  0
 71 70  1  0
 72 65  2  0
 73 74  1  0
 74 65  1  0
 74 64  1  0
 75 76  2  0
 76 95  1  0
 77 80  1  0
 77 76  1  0
 78 79  1  0
 78 75  1  0
 79 77  2  0
 80 81  1  0
 81 82  2  0
 83 86  1  0
 83 82  1  0
 84 83  2  0
 85 84  1  0
 85 80  2  0
 86 87  1  0
 87 88  1  0
 88 89  2  0
 90 89  1  0
 90 94  1  0
 91 90  2  0
 92 87  2  0
 92 91  1  0
 93 92  1  0
 95 96  1  0
 96 98  1  0
 96 99  1  0
 97 95  2  0
100 75  1  0
100101  1  0
102100  1  0
M  ISO  4  22 101  23 101  65 100  74 100
M  END
>  <TORSDO>  (68) 
F 22

>  <SCORE>  (68) 
-9.282

>  <name>  (68) 
68

>  <ligand_id>  (68) 
68

>  <original_smiles>  (68) 
[H]c1c([H])c([H])c2c(c1[H])C([H])([H])C([H])([H])C([H])([H])C2([H])N([H])C(=O)C1([H])N(C(=O)C([H])(N([H])C(=O)C([H])(N([H])C([H])([H])[H])C([H])([H])[H])C(C([H])([H])[H])(C([H])([H])[H])C([H])([H])[H])C([H])([H])c2c([H])c(OC([H])([H])C3([H])C(=O)N(C([H])([H])c4c([H])c(C([H])([H])N(C(=O)N5C([H])([H])C([H])([H])C([H])([H])C([H])(n6nc(-c7c([H])c([H])c(Oc8c([H])c([H])c(F)c([H])c8F)c([H])c7[H])c(C(=O)N([H])[H])c6N([H])[H])C5([H])[H])C([H])([H])[H])c([H])c(N([H])[H])c4N([H])[H])C(=O)C([H])([H])C3([H])[H])c([H])c([H])c2C1([H])[H]

>  <smiles>  (68) 
[H]c1c([H])c([H])c2c(c1[H])C([H])([H])C([H])([H])C([H])([H])C2([H])N([H])C(=O)C1([H])N(C(=O)C([H])(N([H])C(=O)C([H])(N([H])C([H])([H])[H])C([H])([H])[H])C(C([H])([H])[H])(C([H])([H])[H])C([H])([H])[H])C([H])([H])c2c([H])c(OC([H])([H])C3([H])C(=O)N(C([H])([H])c4c([H])c(C([H])([H])N(C(=O)N5C([H])([H])C([H])([H])C([H])([H])C([H])(n6nc(-c7c([H])c([H])c(Oc8c([H])c([H])c(F)c([H])c8F)c([H])c7[H])c(C(=O)N([H])[H])c6N([H])[H])C5([H])[H])C([H])([H])[H])c([H])c(N([H])[H])c4N([H])[H])C(=O)C([H])([H])C3([H])[H])c([H])c([H])c2C1([H])[H]

$$$$
69:0:0
     RDKit          3D

 99104  0  0  1  0  0  0  0  0999 V2000
  -30.1940  -22.2580   19.5430 C   0  0  0  0  0  3  0  0  0  0  0  0
  -28.8300  -22.6980   19.3600 C   0  0  0  0  0  0  0  0  0  0  0  0
  -30.3940  -20.9010   19.2520 C   0  0  0  0  0  0  0  0  0  0  0  0
  -28.3310  -21.3750   18.9440 C   0  0  0  0  0  0  0  0  0  0  0  0
  -29.2550  -20.1970   18.8430 N   0  0  0  0  0  0  0  0  0  0  0  0
  -30.3300  -17.7860   17.9470 C   0  0  0  0  0  3  0  0  0  0  0  0
  -28.3140  -16.1550   18.6260 C   0  0  0  0  0  3  0  0  0  0  0  0
  -29.2440  -18.6080   18.4910 C   0  0  0  0  0  0  0  0  0  0  0  0
  -30.4500  -16.2910   17.9310 C   0  0  0  0  0  0  0  0  0  0  0  0
  -29.5400  -15.3390   18.5800 C   0  0  0  0  0  0  0  0  0  0  0  0
  -28.1750  -17.6430   18.6840 C   0  0  0  0  0  0  0  0  0  0  0  0
  -26.9520  -18.1630   18.9800 F   0  0  0  0  0  0  0  0  0  0  0  0
  -30.6270  -13.4240   20.8450 C   0  0  2  0  0  0  0  0  0  0  0  0
  -31.9890  -13.8160   20.3500 C   0  0  0  0  0  1  0  0  0  0  0  0
  -31.0770  -15.5930   20.6290 C   0  0  0  0  0 15  0  0  0  0  0  0
  -29.1660  -15.3550   21.1870 C   0  0  0  0  0  1  0  0  0  0  0  0
  -28.3630  -13.7700   21.4600 C   0  0  0  0  0  2  0  0  0  0  0  0
  -29.4400  -12.3740   21.3630 C   0  0  0  0  0  1  0  0  0  0  0  0
  -31.0370  -12.4720   20.8280 N   0  0  0  0  0  1  0  0  0  0  0  0
  -30.9050  -13.8700   22.1960 O   0  0  0  0  0  1  0  0  0  0  0  0
  -29.7790  -12.7520   18.3400 C   0  0  0  0  0  1  0  0  0  0  0  0
  -29.9120  -13.8430   19.3290 N   0  0  0  0  0  2  0  0  0  0  0  0
  -25.8910  -14.1740   20.8290 C   0  0  0  0  0  0  0  0  0  0  0  0
  -24.7970  -13.3580   20.8980 C   0  0  0  0  0  0  0  0  0  0  0  0
  -25.2820  -12.0330   21.0860 C   0  0  0  0  0  0  0  0  0  0  0  0
  -27.0040  -13.3850   21.0130 N   0  0  0  0  0  0  0  0  0  0  0  0
  -26.6110  -12.0760   21.1610 N   0  0  0  0  0  0  0  0  0  0  0  0
  -24.5420  -10.7570   21.2010 C   0  0  0  0  0  0  0  0  0  0  0  0
  -24.8060   -9.8200   22.2300 C   0  0  0  0  0  3  0  0  0  0  0  0
  -24.0470   -8.6320   22.3370 C   0  0  0  0  0  3  0  0  0  0  0  0
  -23.0070   -8.3660   21.4160 C   0  0  0  0  0  0  0  0  0  0  0  0
  -22.7550   -9.2900   20.3860 C   0  0  0  0  0  3  0  0  0  0  0  0
  -23.5120  -10.4720   20.2780 C   0  0  0  0  0  3  0  0  0  0  0  0
  -22.2370   -7.2250   21.4190 O   0  0  0  0  0  0  0  0  0  0  0  0
  -22.0370   -6.4840   22.5580 C   0  0  0  0  0  0  0  0  0  0  0  0
  -21.4250   -7.0340   23.7050 C   0  0  0  0  0  3  0  0  0  0  0  0
  -21.1730   -6.2190   24.8270 C   0  0  0  0  0  3  0  0  0  0  0  0
  -21.5230   -4.8570   24.8040 C   0  0  0  0  0  0  0  0  0  0  0  0
  -22.1230   -4.3060   23.6580 C   0  0  0  0  0  3  0  0  0  0  0  0
  -22.3760   -5.1150   22.5370 C   0  0  0  0  0  0  0  0  0  0  0  0
  -22.9350   -4.5710   21.4290 F   0  0  0  0  0  0  0  0  0  0  0  0
  -21.2760   -4.0740   25.8800 F   0  0  0  0  0  0  0  0  0  0  0  0
  -23.3740  -13.8090   20.7890 C   0  0  0  0  0  0  0  0  0  0  0  0
  -22.4770  -13.1890   21.5440 N   0  0  0  0  0  0  0  0  0  0  0  0
  -23.0690  -14.7700   20.0860 O   0  0  0  0  0  0  0  0  0  0  0  0
  -22.7510  -12.4350   22.1560 H   0  0  0  0  0  0  0  0  0  0  0  0
  -21.5100  -13.4850   21.5090 H   0  0  0  0  0  0  0  0  0  0  0  0
  -26.0090  -15.5420   20.7040 N   0  0  0  0  0  0  0  0  0  0  0  0
  -25.1980  -16.1200   20.5380 H   0  0  0  0  0  0  0  0  0  0  0  0
  -26.8710  -16.0670   20.7530 H   0  0  0  0  0  0  0  0  0  0  0  0
  -31.5770  -15.7200   17.3490 N   0  0  0  0  0  0  0  0  0  0  0  0
  -31.8490  -16.1100   16.4580 H   0  0  0  0  0  0  0  0  0  0  0  0
  -31.5630  -14.6980   17.3040 H   0  0  0  0  0  0  0  0  0  0  0  0
  -31.5610  -20.2170   19.3660 O   0  0  0  0  0  0  0  0  0  0  0  0
  -31.3580  -19.2880   19.3440 H   0  0  0  0  0  0  0  0  0  0  0  0
  -27.0380  -21.1030   18.6100 O   0  0  0  0  0  0  0  0  0  0  0  0
  -26.9680  -20.1700   18.4280 H   0  0  0  0  0  0  0  0  0  0  0  0
  -28.0960  -24.3160   19.5520 C   0  0  0  0  0  2  0  0  0  0  0  0
  -28.5460  -25.8930   19.8990 O   0  0  0  0  0  0  0  0  0  0  0  0
  -24.6260  -31.7060   23.1810 C   0  0  0  0  0  0  0  0  0  0  0  0
  -27.5530  -27.0090   20.0280 C   0  0  0  0  0  0  0  0  0  0  0  0
  -23.5990  -30.2510   21.5080 C   0  0  0  0  0  3  0  0  0  0  0  0
  -25.1790  -28.7790   20.1060 C   0  0  0  0  0  0  0  0  0  0  0  0
  -26.1660  -30.5990   21.4590 C   0  0  0  0  0  2  0  0  0  0  0  0
  -26.3400  -29.2110   20.7560 C   0  0  0  0  0  0  0  0  0  0  0  0
  -27.5340  -28.3410   20.7030 C   0  0  0  0  0  3  0  0  0  0  0  0
  -26.3300  -26.7430   19.3940 C   0  0  0  0  0  3  0  0  0  0  0  0
  -25.1960  -27.5640   19.4260 C   0  0  0  0  0  3  0  0  0  0  0  0
  -23.9130  -29.6240   20.1330 C   0  0  0  0  0  2  0  0  0  0  0  0
  -24.8210  -30.8800   22.1010 N   0  0  0  0  0  0  0  0  0  0  0  0
  -23.4960  -31.9150   23.6550 O   0  0  0  0  0  0  0  0  0  0  0  0
  -22.9460  -29.1860   22.4300 C   0  0  0  0  0  0  0  0  0  0  0  0
  -21.6310  -28.9420   22.2690 N   0  0  0  0  0  0  0  0  0  0  0  0
  -23.6290  -28.5850   23.2620 O   0  0  0  0  0  0  0  0  0  0  0  0
  -21.1330  -29.4840   21.5770 H   0  0  0  0  0  0  0  0  0  0  0  0
  -18.3240  -27.4980   22.6500 C   0  0  0  0  0  0  0  0  0  0  0  0
  -20.8480  -27.9450   23.0040 C   0  0  0  0  0  3  0  0  0  0  0  0
  -21.0710  -26.5280   22.4260 C   0  0  0  0  0  2  0  0  0  0  0  0
  -20.0310  -26.1350   21.3730 C   0  0  0  0  0  2  0  0  0  0  0  0
  -18.6210  -26.1720   21.9690 C   0  0  0  0  0  2  0  0  0  0  0  0
  -19.3690  -28.3380   23.1210 C   0  0  0  0  0  0  0  0  0  0  0  0
  -19.0360  -29.5720   23.7190 C   0  0  0  0  0  3  0  0  0  0  0  0
  -17.6920  -29.9710   23.8490 C   0  0  0  0  0  3  0  0  0  0  0  0
  -16.6620  -29.1300   23.3920 C   0  0  0  0  0  3  0  0  0  0  0  0
  -16.9780  -27.8950   22.8000 C   0  0  0  0  0  3  0  0  0  0  0  0
  -25.8120  -32.4440   23.8680 C   0  0  0  0  0  3  0  0  0  0  0  0
  -25.3980  -33.8380   24.1120 N   0  0  0  0  0  0  0  0  0  0  0  0
  -25.8950  -34.9110   23.4850 C   0  0  0  0  0  0  0  0  0  0  0  0
  -26.8110  -34.8350   22.6620 O   0  0  0  0  0  0  0  0  0  0  0  0
  -24.6100  -33.9680   24.7290 H   0  0  0  0  0  0  0  0  0  0  0  0
  -24.2930  -36.7030   22.7260 C   0  0  0  0  0  1  0  0  0  0  0  0
  -25.2850  -36.2880   23.8250 C   0  0  0  0  0  3  0  0  0  0  0  0
  -27.1280  -37.1710   25.1870 C   0  0  0  0  0  1  0  0  0  0  0  0
  -26.2940  -37.3550   24.0030 N   0  0  0  0  0  0  0  0  0  0  0  0
  -25.8490  -38.2670   24.0680 H   0  0  0  0  0  0  0  0  0  0  0  0
  -26.2510  -31.7690   25.2280 C   0  0  1  0  0  0  0  0  0  0  0  0
  -25.0840  -31.5400   26.2170 C   0  0  0  0  0  1  0  0  0  0  0  0
  -26.9230  -30.4000   24.9750 C   0  0  0  0  0  1  0  0  0  0  0  0
  -27.3080  -32.6540   25.9320 C   0  0  0  0  0  1  0  0  0  0  0  0
  2  1  1  0
  2 58  1  0
  3 54  1  0
  3  1  2  0
  4  2  2  0
  5  4  1  0
  5  3  1  0
  6  8  1  0
  7 11  1  0
  8 11  2  0
  8  5  1  0
  9  6  2  0
  9 10  1  0
 10  7  2  0
 10 22  1  0
 11 12  1  0
 13 18  1  1
 13 20  1  0
 14 13  1  0
 16 17  1  0
 19 13  1  0
 21 22  1  0
 23 24  2  0
 23 26  1  0
 24 25  1  0
 25 27  2  0
 25 28  1  0
 26 27  1  0
 26 17  1  0
 28 29  1  0
 29 30  2  0
 31 34  1  0
 31 30  1  0
 32 31  2  0
 33 32  1  0
 33 28  2  0
 34 35  1  0
 35 36  1  0
 36 37  2  0
 38 37  1  0
 38 42  1  0
 39 38  2  0
 40 35  2  0
 40 39  1  0
 41 40  1  0
 43 24  1  0
 43 44  1  0
 44 46  1  0
 45 43  2  0
 47 44  1  0
 48 50  1  0
 48 23  1  0
 49 48  1  0
 51  9  1  0
 52 51  1  0
 53 51  1  0
 55 54  1  0
 56  4  1  0
 57 56  1  0
 58 59  1  0
 59 61  1  0
 60 71  2  0
 61 66  1  0
 62 70  1  0
 62 72  1  0
 63 69  1  0
 63 65  1  0
 64 70  1  0
 65 64  1  0
 66 65  2  0
 67 68  1  0
 67 61  2  0
 68 63  2  0
 69 62  1  0
 70 60  1  0
 72 74  2  0
 73 72  1  0
 75 73  1  0
 76 85  2  0
 76 81  1  0
 77 73  1  0
 77 81  1  0
 78 77  1  0
 79 80  1  0
 79 78  1  0
 80 76  1  0
 81 82  2  0
 82 83  1  0
 84 83  2  0
 85 84  1  0
 86 60  1  0
 86 87  1  0
 86 96  1  0
 87 90  1  0
 88 92  1  0
 88 87  1  0
 89 88  2  0
 92 91  1  0
 92 94  1  0
 94 95  1  0
 94 93  1  0
 96 99  1  1
 96 97  1  0
 98 96  1  0
M  ISO  4  13 100  22 100  58 101  59 101
M  END
>  <TORSDO>  (69) 
F 21

>  <SCORE>  (69) 
-12.353

>  <name>  (69) 
69

>  <ligand_id>  (69) 
69

>  <original_smiles>  (69) 
[H]Oc1c([H])c(C([H])([H])Oc2c([H])c([H])c3c(c2[H])C([H])([H])N(C(=O)C([H])(N([H])C(=O)C([H])(N([H])C([H])([H])[H])C([H])([H])[H])C(C([H])([H])[H])(C([H])([H])[H])C([H])([H])[H])C([H])(C(=O)N([H])C2([H])c4c([H])c([H])c([H])c([H])c4C([H])([H])C([H])([H])C2([H])[H])C3([H])[H])c(O[H])n1-c1c([H])c(N([H])[H])c(N(C(=O)N2C([H])([H])C([H])([H])C([H])([H])C([H])(n3nc(-c4c([H])c([H])c(Oc5c([H])c([H])c(F)c([H])c5F)c([H])c4[H])c(C(=O)N([H])[H])c3N([H])[H])C2([H])[H])C([H])([H])[H])c([H])c1F

>  <smiles>  (69) 
[H]Oc1c([H])c(C([H])([H])Oc2c([H])c([H])c3c(c2[H])C([H])([H])N(C(=O)C([H])(N([H])C(=O)C([H])(N([H])C([H])([H])[H])C([H])([H])[H])C(C([H])([H])[H])(C([H])([H])[H])C([H])([H])[H])C([H])(C(=O)N([H])C2([H])c4c([H])c([H])c([H])c([H])c4C([H])([H])C([H])([H])C2([H])[H])C3([H])[H])c(O[H])n1-c1c([H])c(N([H])[H])c(N(C(=O)N2C([H])([H])C([H])([H])C([H])([H])C([H])(n3nc(-c4c([H])c([H])c(Oc5c([H])c([H])c(F)c([H])c5F)c([H])c4[H])c(C(=O)N([H])[H])c3N([H])[H])C2([H])[H])C([H])([H])[H])c([H])c1F

$$$$
70:0:0
     RDKit          3D

 98107  0  0  1  0  0  0  0  0999 V2000
  -27.2890  -23.9560   20.3380 C   0  0  0  0  0  3  0  0  0  0  0  0
  -28.4480  -24.3740   19.6150 C   0  0  0  0  0  0  0  0  0  0  0  0
  -27.4100  -22.6200   20.6110 C   0  0  0  0  0  0  0  0  0  0  0  0
  -29.2450  -23.2520   19.5480 C   0  0  0  0  0  0  0  0  0  0  0  0
  -28.6230  -22.1470   20.1350 N   0  0  0  0  0  0  0  0  0  0  0  0
  -30.1770  -18.8900   19.0760 C   0  0  0  0  0  3  0  0  0  0  0  0
  -29.5890  -20.1720   19.0220 C   0  0  0  0  0  3  0  0  0  0  0  0
  -29.1810  -20.0840   21.4160 C   0  0  0  0  0  3  0  0  0  0  0  0
  -30.3020  -18.2030   20.3060 C   0  0  0  0  0  0  0  0  0  0  0  0
  -29.1190  -20.8020   20.1970 C   0  0  0  0  0  0  0  0  0  0  0  0
  -29.7740  -18.8010   21.4740 C   0  0  0  0  0  0  0  0  0  0  0  0
  -29.8800  -18.1710   22.6700 F   0  0  0  0  0  0  0  0  0  0  0  0
  -31.1620  -14.6920   19.5880 C   0  0  0  0  0  0  0  0  0  0  0  0
  -30.6600  -12.5450   18.4790 C   0  0  0  0  0  2  0  0  0  0  0  0
  -29.5580  -12.7290   17.4200 C   0  0  0  0  0  2  0  0  0  0  0  0
  -28.1690  -12.5610   18.0680 C   0  0  0  0  0  2  0  0  0  0  0  0
  -28.0020  -13.3990   19.3650 C   0  0  0  0  0  3  0  0  0  0  0  0
  -29.2180  -13.2380   20.3080 C   0  0  0  0  0  2  0  0  0  0  0  0
  -30.4300  -13.5440   19.5360 N   0  0  0  0  0  0  0  0  0  0  0  0
  -32.2260  -14.7940   18.9690 O   0  0  0  0  0  0  0  0  0  0  0  0
  -31.1650  -16.9680   20.3580 C   0  0  0  0  0  0  0  0  0  0  0  0
  -30.5750  -15.7660   20.1710 N   0  0  0  0  0  0  0  0  0  0  0  0
  -32.3840  -17.1330   20.5020 O   0  0  0  0  0  0  0  0  0  0  0  0
  -29.5940  -15.6960   20.3760 H   0  0  0  0  0  0  0  0  0  0  0  0
  -25.8000  -13.9520   20.5690 C   0  0  0  0  0  0  0  0  0  0  0  0
  -24.7790  -13.1620   21.0200 C   0  0  0  0  0  0  0  0  0  0  0  0
  -25.1640  -11.8170   20.7340 C   0  0  0  0  0  0  0  0  0  0  0  0
  -26.7460  -13.0880   20.0410 N   0  0  0  0  0  0  0  0  0  0  0  0
  -26.3770  -11.7900   20.1980 N   0  0  0  0  0  0  0  0  0  0  0  0
  -24.4230  -10.5560   20.8840 C   0  0  0  0  0  0  0  0  0  0  0  0
  -24.8590   -9.5400   21.7630 C   0  0  0  0  0  3  0  0  0  0  0  0
  -24.1150   -8.3480   21.9040 C   0  0  0  0  0  3  0  0  0  0  0  0
  -22.9220   -8.1640   21.1660 C   0  0  0  0  0  0  0  0  0  0  0  0
  -22.5050   -9.1680   20.2750 C   0  0  0  0  0  3  0  0  0  0  0  0
  -23.2500  -10.3510   20.1300 C   0  0  0  0  0  3  0  0  0  0  0  0
  -22.1510   -7.0270   21.2190 O   0  0  0  0  0  0  0  0  0  0  0  0
  -21.9720   -6.3320   22.3890 C   0  0  0  0  0  0  0  0  0  0  0  0
  -21.4150   -6.9380   23.5370 C   0  0  0  0  0  3  0  0  0  0  0  0
  -21.1830   -6.1700   24.6940 C   0  0  0  0  0  3  0  0  0  0  0  0
  -21.5010   -4.7980   24.7060 C   0  0  0  0  0  0  0  0  0  0  0  0
  -22.0510   -4.1940   23.5620 C   0  0  0  0  0  3  0  0  0  0  0  0
  -22.2830   -4.9580   22.4070 C   0  0  0  0  0  0  0  0  0  0  0  0
  -22.7940   -4.3650   21.3000 F   0  0  0  0  0  0  0  0  0  0  0  0
  -21.2710   -4.0590   25.8160 F   0  0  0  0  0  0  0  0  0  0  0  0
  -23.4720  -13.6300   21.5940 C   0  0  0  0  0  0  0  0  0  0  0  0
  -22.8930  -12.8610   22.5080 N   0  0  0  0  0  0  0  0  0  0  0  0
  -22.9850  -14.7120   21.2680 O   0  0  0  0  0  0  0  0  0  0  0  0
  -23.3040  -11.9820   22.7880 H   0  0  0  0  0  0  0  0  0  0  0  0
  -22.0260  -13.1550   22.9340 H   0  0  0  0  0  0  0  0  0  0  0  0
  -25.9970  -15.3290   20.5420 N   0  0  0  0  0  0  0  0  0  0  0  0
  -25.2940  -15.9790   20.8740 H   0  0  0  0  0  0  0  0  0  0  0  0
  -26.7850  -15.7880   20.1070 H   0  0  0  0  0  0  0  0  0  0  0  0
  -26.5100  -21.7920   21.2120 O   0  0  0  0  0  0  0  0  0  0  0  0
  -25.7000  -22.2780   21.3320 H   0  0  0  0  0  0  0  0  0  0  0  0
  -30.4810  -23.1250   18.9830 O   0  0  0  0  0  0  0  0  0  0  0  0
  -30.7340  -23.9700   18.6290 H   0  0  0  0  0  0  0  0  0  0  0  0
  -28.7230  -25.7370   18.9720 C   0  0  0  0  0  2  0  0  0  0  0  0
  -28.5590  -26.8910   19.8100 O   0  0  0  0  0  0  0  0  0  0  0  0
  -24.7240  -31.8650   23.1400 C   0  0  0  0  0  0  0  0  0  0  0  0
  -27.3660  -27.5880   19.8190 C   0  0  0  0  0  0  0  0  0  0  0  0
  -23.5110  -30.5260   21.4490 C   0  0  0  0  0  3  0  0  0  0  0  0
  -24.9610  -29.0730   19.9380 C   0  0  0  0  0  0  0  0  0  0  0  0
  -26.0340  -30.9140   21.2460 C   0  0  0  0  0  2  0  0  0  0  0  0
  -26.1200  -29.5760   20.5400 C   0  0  0  0  0  0  0  0  0  0  0  0
  -27.3220  -28.8360   20.4840 C   0  0  0  0  0  3  0  0  0  0  0  0
  -26.1860  -27.1050   19.2090 C   0  0  0  0  0  3  0  0  0  0  0  0
  -24.9870  -27.8370   19.2730 C   0  0  0  0  0  3  0  0  0  0  0  0
  -23.7110  -29.9150   20.0370 C   0  0  0  0  0  2  0  0  0  0  0  0
  -24.7740  -31.1160   22.0020 N   0  0  0  0  0  0  0  0  0  0  0  0
  -23.6480  -32.1010   23.7060 O   0  0  0  0  0  0  0  0  0  0  0  0
  -22.8840  -29.4550   22.3690 C   0  0  0  0  0  0  0  0  0  0  0  0
  -21.5630  -29.2470   22.2370 N   0  0  0  0  0  0  0  0  0  0  0  0
  -23.5830  -28.8090   23.1540 O   0  0  0  0  0  0  0  0  0  0  0  0
  -21.0580  -29.8210   21.5770 H   0  0  0  0  0  0  0  0  0  0  0  0
  -18.2220  -27.9420   22.6760 C   0  0  0  0  0  0  0  0  0  0  0  0
  -20.7690  -28.2620   22.9710 C   0  0  0  0  0  3  0  0  0  0  0  0
  -20.9130  -26.8540   22.3510 C   0  0  0  0  0  2  0  0  0  0  0  0
  -19.8280  -26.5350   21.3160 C   0  0  0  0  0  2  0  0  0  0  0  0
  -18.4400  -26.6210   21.9570 C   0  0  0  0  0  2  0  0  0  0  0  0
  -19.3180  -28.7210   23.1370 C   0  0  0  0  0  0  0  0  0  0  0  0
  -19.0620  -29.9590   23.7660 C   0  0  0  0  0  3  0  0  0  0  0  0
  -17.7430  -30.4210   23.9340 C   0  0  0  0  0  3  0  0  0  0  0  0
  -16.6620  -29.6410   23.4880 C   0  0  0  0  0  3  0  0  0  0  0  0
  -16.9020  -28.4020   22.8690 C   0  0  0  0  0  3  0  0  0  0  0  0
  -26.0120  -32.4800   23.7700 C   0  0  0  0  0  3  0  0  0  0  0  0
  -26.5610  -31.6570   25.0000 C   0  0  1  0  0  0  0  0  0  0  0  0
  -25.4910  -31.3540   26.0740 C   0  0  0  0  0  1  0  0  0  0  0  0
  -27.1610  -30.3070   24.5350 C   0  0  0  0  0  1  0  0  0  0  0  0
  -27.7080  -32.4370   25.6850 C   0  0  0  0  0  1  0  0  0  0  0  0
  -25.6940  -33.8580   24.1690 N   0  0  0  0  0  0  0  0  0  0  0  0
  -26.0080  -34.9490   23.4540 C   0  0  0  0  0  0  0  0  0  0  0  0
  -26.6700  -34.8980   22.4130 O   0  0  0  0  0  0  0  0  0  0  0  0
  -25.1090  -33.9730   24.9830 H   0  0  0  0  0  0  0  0  0  0  0  0
  -24.2770  -36.7490   23.1700 C   0  0  0  0  0  1  0  0  0  0  0  0
  -25.5080  -36.3070   23.9760 C   0  0  0  0  0  3  0  0  0  0  0  0
  -27.6290  -37.1560   24.8800 C   0  0  0  0  0  1  0  0  0  0  0  0
  -26.5370  -37.3680   23.9330 N   0  0  0  0  0  0  0  0  0  0  0  0
  -26.1220  -38.2760   24.1250 H   0  0  0  0  0  0  0  0  0  0  0  0
  1  3  2  0
  2  1  1  0
  3 53  1  0
  4  2  2  0
  4  5  1  0
  5 10  1  0
  5  3  1  0
  6  9  1  0
  7  6  2  0
  7 10  1  0
  8 11  1  0
  9 21  1  0
  9 11  2  0
 10  8  2  0
 11 12  1  0
 13 22  1  0
 14 19  1  0
 15 16  1  0
 15 14  1  0
 17 16  1  0
 17 28  1  0
 17 18  1  0
 19 13  1  0
 19 18  1  0
 20 13  2  0
 21 23  2  0
 22 21  1  0
 22 24  1  0
 25 26  2  0
 26 45  1  0
 27 30  1  0
 27 26  1  0
 28 29  1  0
 28 25  1  0
 29 27  2  0
 30 31  1  0
 31 32  2  0
 33 36  1  0
 33 32  1  0
 34 33  2  0
 35 34  1  0
 35 30  2  0
 36 37  1  0
 37 42  2  0
 37 38  1  0
 38 39  2  0
 39 40  1  0
 40 44  1  0
 41 40  2  0
 42 41  1  0
 43 42  1  0
 45 46  1  0
 46 48  1  0
 46 49  1  0
 47 45  2  0
 50 25  1  0
 50 51  1  0
 52 50  1  0
 53 54  1  0
 55  4  1  0
 56 55  1  0
 57  2  1  0
 57 58  1  0
 58 60  1  0
 59 70  2  0
 60 65  1  0
 61 69  1  0
 61 71  1  0
 62 68  1  0
 62 64  1  0
 63 69  1  0
 64 63  1  0
 65 64  2  0
 66 67  1  0
 66 60  2  0
 67 62  2  0
 68 61  1  0
 69 59  1  0
 71 73  2  0
 72 71  1  0
 74 72  1  0
 75 84  2  0
 75 80  1  0
 76 72  1  0
 76 80  1  0
 77 76  1  0
 78 79  1  0
 78 77  1  0
 79 75  1  0
 80 81  2  0
 81 82  1  0
 83 82  2  0
 84 83  1  0
 85 59  1  0
 85 90  1  0
 85 86  1  0
 86 89  1  1
 86 87  1  0
 88 86  1  0
 90 93  1  0
 91 95  1  0
 91 90  1  0
 92 91  2  0
 95 94  1  0
 97 95  1  0
 97 98  1  0
 97 96  1  0
M  ISO  4  13 100  22 100  57 101  58 101
M  END
>  <TORSDO>  (70) 
F 20

>  <SCORE>  (70) 
-11.122

>  <name>  (70) 
70

>  <ligand_id>  (70) 
70

>  <original_smiles>  (70) 
[H]Oc1c([H])c(C([H])([H])Oc2c([H])c([H])c3c(c2[H])C([H])([H])N(C(=O)C([H])(N([H])C(=O)C([H])(N([H])C([H])([H])[H])C([H])([H])[H])C(C([H])([H])[H])(C([H])([H])[H])C([H])([H])[H])C([H])(C(=O)N([H])C2([H])c4c([H])c([H])c([H])c([H])c4C([H])([H])C([H])([H])C2([H])[H])C3([H])[H])c(O[H])n1-c1c([H])c([H])c(C(=O)N([H])C(=O)N2C([H])([H])C([H])([H])C([H])([H])C([H])(n3nc(-c4c([H])c([H])c(Oc5c([H])c([H])c(F)c([H])c5F)c([H])c4[H])c(C(=O)N([H])[H])c3N([H])[H])C2([H])[H])c(F)c1[H]

>  <smiles>  (70) 
[H]Oc1c([H])c(C([H])([H])Oc2c([H])c([H])c3c(c2[H])C([H])([H])N(C(=O)C([H])(N([H])C(=O)C([H])(N([H])C([H])([H])[H])C([H])([H])[H])C(C([H])([H])[H])(C([H])([H])[H])C([H])([H])[H])C([H])(C(=O)N([H])C2([H])c4c([H])c([H])c([H])c([H])c4C([H])([H])C([H])([H])C2([H])[H])C3([H])[H])c(O[H])n1-c1c([H])c([H])c(C(=O)N([H])C(=O)N2C([H])([H])C([H])([H])C([H])([H])C([H])(n3nc(-c4c([H])c([H])c(Oc5c([H])c([H])c(F)c([H])c5F)c([H])c4[H])c(C(=O)N([H])[H])c3N([H])[H])C2([H])[H])c(F)c1[H]

$$$$
71:0:0
     RDKit          3D

 97106  0  0  1  0  0  0  0  0999 V2000
  -29.5350  -23.3760   18.8060 C   0  0  0  0  0  3  0  0  0  0  0  0
  -28.6700  -23.5730   19.9300 C   0  0  0  0  0  0  0  0  0  0  0  0
  -29.8750  -22.0400   18.7090 C   0  0  0  0  0  0  0  0  0  0  0  0
  -28.5830  -22.2810   20.4610 C   0  0  0  0  0  0  0  0  0  0  0  0
  -29.2860  -21.2890   19.7220 N   0  0  0  0  0  0  0  0  0  0  0  0
  -28.2090  -19.0760   20.0620 C   0  0  0  0  0  3  0  0  0  0  0  0
  -28.3950  -17.6650   20.3120 C   0  0  0  0  0  0  0  0  0  0  0  0
  -29.7100  -17.2190   20.3010 C   0  0  0  0  0  0  0  0  0  0  0  0
  -29.3590  -19.8210   19.9210 C   0  0  0  0  0  0  0  0  0  0  0  0
  -30.7350  -18.6570   19.9810 S   0  0  0  0  0  0  0  0  0  0  0  0
  -27.2480  -16.9000   20.5950 N   0  0  0  0  0  0  0  0  0  0  0  0
  -26.4250  -17.4250   20.8790 H   0  0  0  0  0  0  0  0  0  0  0  0
  -27.3810  -16.1020   21.2100 H   0  0  0  0  0  0  0  0  0  0  0  0
  -30.2170  -15.8400   20.7540 C   0  0  0  0  0  0  0  0  0  0  0  0
  -30.1510  -15.6210   21.9720 O   0  0  0  0  0  0  0  0  0  0  0  0
  -30.8190  -14.6100   19.8710 C   0  0  0  0  0  0  0  0  0  0  0  0
  -30.5720  -12.2900   18.9570 C   0  0  0  0  0  2  0  0  0  0  0  0
  -29.5730  -12.3030   17.7780 C   0  0  0  0  0  2  0  0  0  0  0  0
  -28.1240  -12.1460   18.2870 C   0  0  0  0  0  2  0  0  0  0  0  0
  -27.8060  -13.1030   19.4660 C   0  0  0  0  0  3  0  0  0  0  0  0
  -28.9160  -13.0390   20.5410 C   0  0  0  0  0  2  0  0  0  0  0  0
  -30.1930  -13.3790   19.8910 N   0  0  0  0  0  0  0  0  0  0  0  0
  -31.8780  -14.7580   19.2510 O   0  0  0  0  0  0  0  0  0  0  0  0
  -25.4780  -13.7570   20.3380 C   0  0  0  0  0  0  0  0  0  0  0  0
  -24.4120  -13.0080   20.7580 C   0  0  0  0  0  0  0  0  0  0  0  0
  -24.8290  -11.6440   20.6720 C   0  0  0  0  0  0  0  0  0  0  0  0
  -26.4800  -12.8510   20.0280 N   0  0  0  0  0  0  0  0  0  0  0  0
  -26.0970  -11.5740   20.2880 N   0  0  0  0  0  0  0  0  0  0  0  0
  -24.0740  -10.4010   20.8820 C   0  0  0  0  0  0  0  0  0  0  0  0
  -24.4810   -9.4410   21.8330 C   0  0  0  0  0  3  0  0  0  0  0  0
  -23.7280   -8.2640   22.0320 C   0  0  0  0  0  3  0  0  0  0  0  0
  -22.5520   -8.0370   21.2780 C   0  0  0  0  0  0  0  0  0  0  0  0
  -22.1630   -8.9860   20.3170 C   0  0  0  0  0  3  0  0  0  0  0  0
  -22.9180  -10.1540   20.1170 C   0  0  0  0  0  3  0  0  0  0  0  0
  -21.7710   -6.9110   21.3860 O   0  0  0  0  0  0  0  0  0  0  0  0
  -21.6580   -6.2210   22.5660 C   0  0  0  0  0  0  0  0  0  0  0  0
  -21.1740   -6.8330   23.7420 C   0  0  0  0  0  3  0  0  0  0  0  0
  -21.0060   -6.0720   24.9160 C   0  0  0  0  0  3  0  0  0  0  0  0
  -21.3150   -4.7000   24.9150 C   0  0  0  0  0  0  0  0  0  0  0  0
  -21.7920   -4.0850   23.7440 C   0  0  0  0  0  3  0  0  0  0  0  0
  -21.9600   -4.8440   22.5730 C   0  0  0  0  0  0  0  0  0  0  0  0
  -22.4000   -4.2430   21.4410 F   0  0  0  0  0  0  0  0  0  0  0  0
  -21.1480   -3.9650   26.0410 F   0  0  0  0  0  0  0  0  0  0  0  0
  -23.0510  -13.5210   21.1350 C   0  0  0  0  0  0  0  0  0  0  0  0
  -22.3630  -12.8350   22.0420 N   0  0  0  0  0  0  0  0  0  0  0  0
  -22.6100  -14.5660   20.6580 O   0  0  0  0  0  0  0  0  0  0  0  0
  -22.7340  -11.9880   22.4480 H   0  0  0  0  0  0  0  0  0  0  0  0
  -21.4520  -13.1580   22.3340 H   0  0  0  0  0  0  0  0  0  0  0  0
  -25.6680  -15.1250   20.1740 N   0  0  0  0  0  0  0  0  0  0  0  0
  -24.9590  -15.8070   20.4260 H   0  0  0  0  0  0  0  0  0  0  0  0
  -26.5680  -15.5620   20.0080 H   0  0  0  0  0  0  0  0  0  0  0  0
  -30.6470  -21.4390   17.7610 O   0  0  0  0  0  0  0  0  0  0  0  0
  -31.0040  -22.1230   17.2020 H   0  0  0  0  0  0  0  0  0  0  0  0
  -27.8940  -21.9050   21.5750 O   0  0  0  0  0  0  0  0  0  0  0  0
  -27.6450  -22.6910   22.0470 H   0  0  0  0  0  0  0  0  0  0  0  0
  -27.8950  -24.8780   20.4190 C   0  0  0  0  0  2  0  0  0  0  0  0
  -28.2570  -26.2890   20.0650 O   0  0  0  0  0  0  0  0  0  0  0  0
  -24.5090  -31.7750   23.0730 C   0  0  0  0  0  0  0  0  0  0  0  0
  -27.1790  -27.2010   20.0330 C   0  0  0  0  0  0  0  0  0  0  0  0
  -23.3360  -30.3630   21.4220 C   0  0  0  0  0  3  0  0  0  0  0  0
  -24.8160  -28.8260   20.0010 C   0  0  0  0  0  0  0  0  0  0  0  0
  -25.8780  -30.6830   21.2770 C   0  0  0  0  0  2  0  0  0  0  0  0
  -25.9760  -29.3050   20.6280 C   0  0  0  0  0  0  0  0  0  0  0  0
  -27.1620  -28.5000   20.6430 C   0  0  0  0  0  3  0  0  0  0  0  0
  -26.0140  -26.8070   19.3500 C   0  0  0  0  0  3  0  0  0  0  0  0
  -24.8420  -27.5850   19.3460 C   0  0  0  0  0  3  0  0  0  0  0  0
  -23.5680  -29.6840   20.0470 C   0  0  0  0  0  2  0  0  0  0  0  0
  -24.5920  -30.9610   21.9770 N   0  0  0  0  0  0  0  0  0  0  0  0
  -23.4190  -32.0470   23.5930 O   0  0  0  0  0  0  0  0  0  0  0  0
  -22.6700  -29.3440   22.3810 C   0  0  0  0  0  0  0  0  0  0  0  0
  -21.3400  -29.1860   22.2710 N   0  0  0  0  0  0  0  0  0  0  0  0
  -23.3510  -28.6980   23.1830 O   0  0  0  0  0  0  0  0  0  0  0  0
  -20.8510  -29.7590   21.5980 H   0  0  0  0  0  0  0  0  0  0  0  0
  -17.9510  -28.0470   22.8260 C   0  0  0  0  0  0  0  0  0  0  0  0
  -20.5200  -28.2490   23.0410 C   0  0  0  0  0  3  0  0  0  0  0  0
  -20.5820  -26.8300   22.4300 C   0  0  0  0  0  2  0  0  0  0  0  0
  -19.4490  -26.5500   21.4370 C   0  0  0  0  0  2  0  0  0  0  0  0
  -18.0850  -26.7100   22.1160 C   0  0  0  0  0  2  0  0  0  0  0  0
  -19.0950  -28.7770   23.2460 C   0  0  0  0  0  0  0  0  0  0  0  0
  -18.9190  -30.0310   23.8690 C   0  0  0  0  0  3  0  0  0  0  0  0
  -17.6280  -30.5530   24.0790 C   0  0  0  0  0  3  0  0  0  0  0  0
  -16.4990  -29.8180   23.6790 C   0  0  0  0  0  3  0  0  0  0  0  0
  -16.6620  -28.5680   23.0590 C   0  0  0  0  0  3  0  0  0  0  0  0
  -25.7800  -32.4230   23.7060 C   0  0  0  0  0  3  0  0  0  0  0  0
  -25.4350  -33.8050   24.0750 N   0  0  0  0  0  0  0  0  0  0  0  0
  -25.7440  -34.8890   23.3500 C   0  0  0  0  0  0  0  0  0  0  0  0
  -26.4110  -34.8340   22.3160 O   0  0  0  0  0  0  0  0  0  0  0  0
  -24.8390  -33.9190   24.8820 H   0  0  0  0  0  0  0  0  0  0  0  0
  -23.9670  -36.6520   23.0810 C   0  0  0  0  0  1  0  0  0  0  0  0
  -25.2300  -36.2490   23.8590 C   0  0  0  0  0  3  0  0  0  0  0  0
  -27.3540  -37.1590   24.6860 C   0  0  0  0  0  1  0  0  0  0  0  0
  -26.2330  -37.3330   23.7670 N   0  0  0  0  0  0  0  0  0  0  0  0
  -25.8050  -38.2330   23.9630 H   0  0  0  0  0  0  0  0  0  0  0  0
  -26.3200  -31.6370   24.9650 C   0  0  1  0  0  0  0  0  0  0  0  0
  -25.2310  -31.3440   26.0240 C   0  0  0  0  0  1  0  0  0  0  0  0
  -26.9450  -30.2880   24.5400 C   0  0  0  0  0  1  0  0  0  0  0  0
  -27.4450  -32.4520   25.6400 C   0  0  0  0  0  1  0  0  0  0  0  0
  1  2  1  0
  2 56  1  0
  2  4  2  0
  3  1  2  0
  3  5  1  0
  4 54  1  0
  5  9  1  0
  5  4  1  0
  6  7  1  0
  7 11  1  0
  8  7  2  0
  8 14  1  0
  9 10  1  0
  9  6  2  0
 10  8  1  0
 11 12  1  0
 11 13  1  0
 14 15  2  0
 16 22  1  0
 16 14  1  0
 17 22  1  0
 18 19  1  0
 18 17  1  0
 20 19  1  0
 20 27  1  0
 20 21  1  0
 22 21  1  0
 23 16  2  0
 24 25  2  0
 25 44  1  0
 26 25  1  0
 26 29  1  0
 27 28  1  0
 27 24  1  0
 28 26  2  0
 29 30  1  0
 30 31  2  0
 32 35  1  0
 32 31  1  0
 33 32  2  0
 34 33  1  0
 34 29  2  0
 35 36  1  0
 36 41  2  0
 36 37  1  0
 37 38  2  0
 39 38  1  0
 39 43  1  0
 40 39  2  0
 41 40  1  0
 42 41  1  0
 44 45  1  0
 45 48  1  0
 45 47  1  0
 46 44  2  0
 49 24  1  0
 49 50  1  0
 51 49  1  0
 52  3  1  0
 53 52  1  0
 54 55  1  0
 57 56  1  0
 58 69  2  0
 59 57  1  0
 59 64  1  0
 60 68  1  0
 60 70  1  0
 61 67  1  0
 61 63  1  0
 62 68  1  0
 63 64  2  0
 63 62  1  0
 65 59  2  0
 66 65  1  0
 66 61  2  0
 67 60  1  0
 68 58  1  0
 70 72  2  0
 71 70  1  0
 73 71  1  0
 74 83  2  0
 74 79  1  0
 75 71  1  0
 75 79  1  0
 76 75  1  0
 77 78  1  0
 77 76  1  0
 78 74  1  0
 79 80  2  0
 80 81  1  0
 82 81  2  0
 83 82  1  0
 84 58  1  0
 84 85  1  0
 84 94  1  0
 85 88  1  0
 86 90  1  0
 86 85  1  0
 87 86  2  0
 90 89  1  0
 92 90  1  0
 92 93  1  0
 92 91  1  0
 94 97  1  1
 94 95  1  0
 96 94  1  0
M  ISO  4  14 100  16 100  56 101  57 101
M  END
>  <TORSDO>  (71) 
F 22

>  <SCORE>  (71) 
-13.711

>  <name>  (71) 
71

>  <ligand_id>  (71) 
71

>  <original_smiles>  (71) 
[H]Oc1c([H])c(C([H])([H])Oc2c([H])c([H])c3c(c2[H])C([H])([H])N(C(=O)C([H])(N([H])C(=O)C([H])(N([H])C([H])([H])[H])C([H])([H])[H])C(C([H])([H])[H])(C([H])([H])[H])C([H])([H])[H])C([H])(C(=O)N([H])C2([H])c4c([H])c([H])c([H])c([H])c4C([H])([H])C([H])([H])C2([H])[H])C3([H])[H])c(O[H])n1-c1sc(C(=O)C(=O)N2C([H])([H])C([H])([H])C([H])([H])C([H])(n3nc(-c4c([H])c([H])c(Oc5c([H])c([H])c(F)c([H])c5F)c([H])c4[H])c(C(=O)N([H])[H])c3N([H])[H])C2([H])[H])c(N([H])[H])c1[H]

>  <smiles>  (71) 
[H]Oc1c([H])c(C([H])([H])Oc2c([H])c([H])c3c(c2[H])C([H])([H])N(C(=O)C([H])(N([H])C(=O)C([H])(N([H])C([H])([H])[H])C([H])([H])[H])C(C([H])([H])[H])(C([H])([H])[H])C([H])([H])[H])C([H])(C(=O)N([H])C2([H])c4c([H])c([H])c([H])c([H])c4C([H])([H])C([H])([H])C2([H])[H])C3([H])[H])c(O[H])n1-c1sc(C(=O)C(=O)N2C([H])([H])C([H])([H])C([H])([H])C([H])(n3nc(-c4c([H])c([H])c(Oc5c([H])c([H])c(F)c([H])c5F)c([H])c4[H])c(C(=O)N([H])[H])c3N([H])[H])C2([H])[H])c(N([H])[H])c1[H]

$$$$
72:0:0
     RDKit          3D

 97106  0  0  1  0  0  0  0  0999 V2000
  -30.5730  -25.1930   22.2950 C   0  0  0  0  0  3  0  0  0  0  0  0
  -29.5240  -25.4620   21.3660 C   0  0  0  0  0  0  0  0  0  0  0  0
  -30.7460  -23.8360   22.3460 C   0  0  0  0  0  0  0  0  0  0  0  0
  -29.0760  -24.2430   20.9430 C   0  0  0  0  0  0  0  0  0  0  0  0
  -29.8400  -23.2220   21.4940 N   0  0  0  0  0  0  0  0  0  0  0  0
  -29.3430  -20.1710   19.4590 C   0  0  0  0  0  3  0  0  0  0  0  0
  -29.5760  -19.4810   21.7860 C   0  0  0  0  0  3  0  0  0  0  0  0
  -29.5520  -21.5030   19.8240 C   0  0  0  0  0  3  0  0  0  0  0  0
  -29.7510  -20.8330   22.1600 C   0  0  0  0  0  3  0  0  0  0  0  0
  -29.3280  -19.1570   20.4340 C   0  0  0  0  0  0  0  0  0  0  0  0
  -29.7220  -21.8500   21.1770 C   0  0  0  0  0  0  0  0  0  0  0  0
  -29.1610  -17.8100   19.9070 C   0  0  0  0  0  3  0  0  0  0  0  0
  -29.6640  -16.6470   20.3640 C   0  0  0  0  0  3  0  0  0  0  0  0
  -30.3770  -14.4140   19.9450 C   0  0  0  0  0  0  0  0  0  0  0  0
  -30.0490  -12.2020   18.9600 C   0  0  0  0  0  2  0  0  0  0  0  0
  -28.9970  -12.2700   17.8290 C   0  0  0  0  0  2  0  0  0  0  0  0
  -27.5630  -12.1860   18.3850 C   0  0  0  0  0  2  0  0  0  0  0  0
  -27.3050  -13.0700   19.6360 C   0  0  0  0  0  3  0  0  0  0  0  0
  -28.4590  -12.9580   20.6570 C   0  0  0  0  0  2  0  0  0  0  0  0
  -29.7190  -13.2300   19.9520 N   0  0  0  0  0  0  0  0  0  0  0  0
  -31.5830  -14.5300   19.7160 O   0  0  0  0  0  0  0  0  0  0  0  0
  -29.3720  -15.6260   18.1550 C   0  0  0  0  0  1  0  0  0  0  0  0
  -29.5860  -15.4580   19.6150 N   0  0  0  0  0  0  0  0  0  0  0  0
  -24.9660  -13.6230   20.5540 C   0  0  0  0  0  0  0  0  0  0  0  0
  -23.9450  -12.8200   20.9900 C   0  0  0  0  0  0  0  0  0  0  0  0
  -24.4340  -11.4800   20.9070 C   0  0  0  0  0  0  0  0  0  0  0  0
  -26.0090  -12.7670   20.2350 N   0  0  0  0  0  0  0  0  0  0  0  0
  -25.6980  -11.4750   20.5110 N   0  0  0  0  0  0  0  0  0  0  0  0
  -23.7560  -10.1980   21.1280 C   0  0  0  0  0  0  0  0  0  0  0  0
  -24.2520   -9.2530   22.0530 C   0  0  0  0  0  3  0  0  0  0  0  0
  -23.5730   -8.0340   22.2640 C   0  0  0  0  0  3  0  0  0  0  0  0
  -22.3850   -7.7510   21.5480 C   0  0  0  0  0  0  0  0  0  0  0  0
  -21.9100   -8.6850   20.6110 C   0  0  0  0  0  3  0  0  0  0  0  0
  -22.5880   -9.8960   20.4000 C   0  0  0  0  0  3  0  0  0  0  0  0
  -21.6710   -6.5830   21.6700 O   0  0  0  0  0  0  0  0  0  0  0  0
  -21.6600   -5.8660   22.8400 C   0  0  0  0  0  0  0  0  0  0  0  0
  -21.1890   -6.4210   24.0500 C   0  0  0  0  0  3  0  0  0  0  0  0
  -21.1310   -5.6260   25.2120 C   0  0  0  0  0  3  0  0  0  0  0  0
  -21.5310   -4.2780   25.1650 C   0  0  0  0  0  0  0  0  0  0  0  0
  -21.9930   -3.7220   23.9590 C   0  0  0  0  0  3  0  0  0  0  0  0
  -22.0550   -4.5140   22.7990 C   0  0  0  0  0  0  0  0  0  0  0  0
  -22.4810   -3.9680   21.6350 F   0  0  0  0  0  0  0  0  0  0  0  0
  -21.4670   -3.5110   26.2790 F   0  0  0  0  0  0  0  0  0  0  0  0
  -22.5600  -13.2580   21.3700 C   0  0  0  0  0  0  0  0  0  0  0  0
  -21.9180  -12.5330   22.2790 N   0  0  0  0  0  0  0  0  0  0  0  0
  -22.0590  -14.2760   20.8950 O   0  0  0  0  0  0  0  0  0  0  0  0
  -22.3390  -11.7110   22.6850 H   0  0  0  0  0  0  0  0  0  0  0  0
  -20.9920  -12.8080   22.5760 H   0  0  0  0  0  0  0  0  0  0  0  0
  -25.0880  -14.9990   20.3820 N   0  0  0  0  0  0  0  0  0  0  0  0
  -24.3260  -15.6430   20.5600 H   0  0  0  0  0  0  0  0  0  0  0  0
  -25.9220  -15.4570   20.0330 H   0  0  0  0  0  0  0  0  0  0  0  0
  -31.6540  -23.1160   23.0610 O   0  0  0  0  0  0  0  0  0  0  0  0
  -32.1800  -23.7300   23.5650 H   0  0  0  0  0  0  0  0  0  0  0  0
  -28.0460  -23.9780   20.0900 O   0  0  0  0  0  0  0  0  0  0  0  0
  -27.7370  -24.8220   19.7680 H   0  0  0  0  0  0  0  0  0  0  0  0
  -28.9780  -26.8040   20.9570 C   0  0  0  0  0  2  0  0  0  0  0  0
  -28.1120  -26.6800   19.8220 O   0  0  0  0  0  0  0  0  0  0  0  0
  -24.3090  -31.7070   23.0720 C   0  0  0  0  0  0  0  0  0  0  0  0
  -26.9580  -27.4230   19.8550 C   0  0  0  0  0  0  0  0  0  0  0  0
  -23.0810  -30.3340   21.4140 C   0  0  0  0  0  3  0  0  0  0  0  0
  -24.5270  -28.8520   19.9250 C   0  0  0  0  0  0  0  0  0  0  0  0
  -25.5880  -30.7490   21.1700 C   0  0  0  0  0  2  0  0  0  0  0  0
  -25.6800  -29.3960   20.5020 C   0  0  0  0  0  0  0  0  0  0  0  0
  -26.8950  -28.6940   20.4650 C   0  0  0  0  0  3  0  0  0  0  0  0
  -25.7980  -26.8860   19.2610 C   0  0  0  0  0  3  0  0  0  0  0  0
  -24.5780  -27.5920   19.2990 C   0  0  0  0  0  3  0  0  0  0  0  0
  -23.2710  -29.6870   20.0130 C   0  0  0  0  0  2  0  0  0  0  0  0
  -24.3450  -30.9410   21.9470 N   0  0  0  0  0  0  0  0  0  0  0  0
  -23.2370  -31.9530   23.6430 O   0  0  0  0  0  0  0  0  0  0  0  0
  -22.4630  -29.2820   22.3610 C   0  0  0  0  0  0  0  0  0  0  0  0
  -21.1370  -29.0930   22.2580 N   0  0  0  0  0  0  0  0  0  0  0  0
  -23.1690  -28.6410   23.1440 O   0  0  0  0  0  0  0  0  0  0  0  0
  -20.6280  -29.6650   21.5990 H   0  0  0  0  0  0  0  0  0  0  0  0
  -17.7810  -27.8820   22.8010 C   0  0  0  0  0  0  0  0  0  0  0  0
  -20.3430  -28.1300   23.0200 C   0  0  0  0  0  3  0  0  0  0  0  0
  -20.4310  -26.7190   22.3970 C   0  0  0  0  0  2  0  0  0  0  0  0
  -19.3050  -26.4270   21.4000 C   0  0  0  0  0  2  0  0  0  0  0  0
  -17.9400  -26.5530   22.0820 C   0  0  0  0  0  2  0  0  0  0  0  0
  -18.9090  -28.6290   23.2280 C   0  0  0  0  0  0  0  0  0  0  0  0
  -18.7060  -29.8750   23.8610 C   0  0  0  0  0  3  0  0  0  0  0  0
  -17.4070  -30.3720   24.0720 C   0  0  0  0  0  3  0  0  0  0  0  0
  -16.2920  -29.6200   23.6630 C   0  0  0  0  0  3  0  0  0  0  0  0
  -16.4800  -28.3770   23.0320 C   0  0  0  0  0  3  0  0  0  0  0  0
  -25.6040  -32.3310   23.6820 C   0  0  0  0  0  3  0  0  0  0  0  0
  -25.3000  -33.7240   24.0340 N   0  0  0  0  0  0  0  0  0  0  0  0
  -25.6470  -34.7860   23.2950 C   0  0  0  0  0  0  0  0  0  0  0  0
  -26.3290  -34.6960   22.2710 O   0  0  0  0  0  0  0  0  0  0  0  0
  -24.6980  -33.8670   24.8310 H   0  0  0  0  0  0  0  0  0  0  0  0
  -23.9380  -36.5950   22.9370 C   0  0  0  0  0  1  0  0  0  0  0  0
  -25.1580  -36.1680   23.7680 C   0  0  0  0  0  3  0  0  0  0  0  0
  -27.2750  -37.0260   24.6690 C   0  0  0  0  0  1  0  0  0  0  0  0
  -26.2000  -37.2160   23.6980 N   0  0  0  0  0  0  0  0  0  0  0  0
  -25.7960  -38.1360   23.8480 H   0  0  0  0  0  0  0  0  0  0  0  0
  -26.1460  -31.5400   24.9340 C   0  0  1  0  0  0  0  0  0  0  0  0
  -25.0740  -31.2740   26.0160 C   0  0  0  0  0  1  0  0  0  0  0  0
  -26.7320  -30.1750   24.5040 C   0  0  0  0  0  1  0  0  0  0  0  0
  -27.3020  -32.3310   25.5940 C   0  0  0  0  0  1  0  0  0  0  0  0
  1  3  2  0
  2  1  1  0
  3 52  1  0
  4  2  2  0
  4  5  1  0
  5  3  1  0
  6  8  2  0
  6 10  1  0
  7  9  1  0
  8 11  1  0
 10  7  2  0
 11  5  1  0
 11  9  2  0
 12 13  2  0
 12 10  1  0
 14 20  1  0
 15 20  1  0
 16 17  1  0
 16 15  1  0
 18 17  1  0
 18 27  1  0
 18 19  1  0
 20 19  1  0
 21 14  2  0
 22 23  1  0
 23 14  1  0
 23 13  1  0
 24 25  2  0
 25 44  1  0
 26 25  1  0
 26 29  1  0
 27 28  1  0
 27 24  1  0
 28 26  2  0
 29 30  1  0
 30 31  2  0
 32 35  1  0
 32 31  1  0
 33 32  2  0
 34 33  1  0
 34 29  2  0
 35 36  1  0
 36 37  1  0
 37 38  2  0
 39 38  1  0
 39 43  1  0
 40 39  2  0
 41 36  2  0
 41 40  1  0
 42 41  1  0
 44 45  1  0
 45 48  1  0
 45 47  1  0
 46 44  2  0
 49 24  1  0
 49 50  1  0
 51 49  1  0
 52 53  1  0
 54  4  1  0
 55 54  1  0
 56  2  1  0
 57 59  1  0
 57 56  1  0
 58 69  2  0
 59 64  1  0
 60 68  1  0
 60 70  1  0
 61 67  1  0
 61 63  1  0
 62 68  1  0
 63 62  1  0
 64 63  2  0
 65 66  1  0
 65 59  2  0
 66 61  2  0
 67 60  1  0
 68 58  1  0
 70 72  2  0
 71 70  1  0
 73 71  1  0
 74 83  2  0
 74 79  1  0
 75 71  1  0
 75 79  1  0
 76 75  1  0
 77 78  1  0
 77 76  1  0
 78 74  1  0
 79 80  2  0
 80 81  1  0
 82 81  2  0
 83 82  1  0
 84 58  1  0
 84 85  1  0
 84 94  1  0
 85 88  1  0
 86 90  1  0
 86 85  1  0
 87 86  2  0
 90 89  1  0
 92 90  1  0
 92 93  1  0
 92 91  1  0
 94 97  1  1
 94 95  1  0
 96 94  1  0
M  ISO  4  14 100  23 100  56 101  57 101
M  END
>  <TORSDO>  (72) 
F 21

>  <SCORE>  (72) 
-9.715

>  <name>  (72) 
72

>  <ligand_id>  (72) 
72

>  <original_smiles>  (72) 
[H]Oc1c([H])c(C([H])([H])Oc2c([H])c([H])c3c(c2[H])C([H])([H])N(C(=O)C([H])(N([H])C(=O)C([H])(N([H])C([H])([H])[H])C([H])([H])[H])C(C([H])([H])[H])(C([H])([H])[H])C([H])([H])[H])C([H])(C(=O)N([H])C2([H])c4c([H])c([H])c([H])c([H])c4C([H])([H])C([H])([H])C2([H])[H])C3([H])[H])c(O[H])n1-c1c([H])c([H])c(C([H])=C([H])N(C(=O)N2C([H])([H])C([H])([H])C([H])([H])C([H])(n3nc(-c4c([H])c([H])c(Oc5c([H])c([H])c(F)c([H])c5F)c([H])c4[H])c(C(=O)N([H])[H])c3N([H])[H])C2([H])[H])C([H])([H])[H])c([H])c1[H]

>  <smiles>  (72) 
[H]Oc1c([H])c(C([H])([H])Oc2c([H])c([H])c3c(c2[H])C([H])([H])N(C(=O)C([H])(N([H])C(=O)C([H])(N([H])C([H])([H])[H])C([H])([H])[H])C(C([H])([H])[H])(C([H])([H])[H])C([H])([H])[H])C([H])(C(=O)N([H])C2([H])c4c([H])c([H])c([H])c([H])c4C([H])([H])C([H])([H])C2([H])[H])C3([H])[H])c(O[H])n1-c1c([H])c([H])c(C([H])=C([H])N(C(=O)N2C([H])([H])C([H])([H])C([H])([H])C([H])(n3nc(-c4c([H])c([H])c(Oc5c([H])c([H])c(F)c([H])c5F)c([H])c4[H])c(C(=O)N([H])[H])c3N([H])[H])C2([H])[H])C([H])([H])[H])c([H])c1[H]

$$$$
73:0:0
     RDKit          3D

 97105  0  0  1  0  0  0  0  0999 V2000
  -27.0730  -29.4140   18.6220 C   0  0  0  0  0  0  0  0  0  0  0  0
  -27.3290  -26.9930   17.9050 C   0  0  0  0  0  0  0  0  0  0  0  0
  -28.3790  -28.6820   18.0650 C   0  0  0  0  0  2  0  0  0  0  0  0
  -25.8570  -28.3840   18.6480 C   0  0  0  0  0  2  0  0  0  0  0  0
  -28.7290  -27.1590   18.6200 C   0  0  0  0  0  0  0  0  0  0  0  0
  -29.2230  -27.6550   20.0160 C   0  0  0  0  0  1  0  0  0  0  0  0
  -26.2510  -26.8680   18.8280 N   0  0  0  0  0  2  0  0  0  0  0  0
  -27.0060  -30.6020   18.9400 O   0  0  0  0  0  0  0  0  0  0  0  0
  -27.2110  -26.8300   16.6730 O   0  0  0  0  0  0  0  0  0  0  0  0
  -27.2360  -21.6400   21.0880 C   0  0  0  0  0  2  0  0  0  0  0  0
  -26.6680  -23.2090   21.0890 C   0  0  0  0  0  3  0  0  0  0  0  0
  -25.3120  -22.7740   19.8290 C   0  0  0  0  0  3  0  0  0  0  0  0
  -26.9600  -20.2450   20.3630 C   0  0  0  0  0  3  0  0  0  0  0  0
  -25.6120  -24.2950   20.4050 C   0  0  0  0  0  2  0  0  0  0  0  0
  -25.8110  -21.1870   19.7680 C   0  0  0  0  0  0  0  0  0  0  0  0
  -24.9980  -20.4820   18.9450 F   0  0  0  0  0  0  0  0  0  0  0  0
  -29.2240  -15.1930   19.9820 C   0  0  0  0  0  0  0  0  0  0  0  0
  -29.7650  -12.4700   19.1480 C   0  0  0  0  0  2  0  0  0  0  0  0
  -29.0070  -11.5580   18.0950 C   0  0  0  0  0  2  0  0  0  0  0  0
  -27.7470  -10.9280   18.6880 C   0  0  0  0  0  2  0  0  0  0  0  0
  -27.1110  -11.9570   19.6320 C   0  0  0  0  0  3  0  0  0  0  0  0
  -28.0710  -12.6670   20.6370 C   0  0  0  0  0  2  0  0  0  0  0  0
  -28.9210  -13.6460   19.8630 N   0  0  0  0  0  0  0  0  0  0  0  0
  -30.4770  -15.0230   19.7920 O   0  0  0  0  0  0  0  0  0  0  0  0
  -27.4290  -18.2390   20.2700 C   0  0  0  0  0  2  0  0  0  0  0  0
  -28.5080  -16.8350   20.1230 N   0  0  0  0  0  0  0  0  0  0  0  0
  -26.3170  -17.7100   20.3270 O   0  0  0  0  0  1  0  0  0  0  0  0
  -27.6300  -16.3380   20.1860 H   0  0  0  0  0  0  0  0  0  0  0  0
  -24.8130  -12.3380   20.5370 C   0  0  0  0  0  0  0  0  0  0  0  0
  -23.8360  -11.5160   21.0070 C   0  0  0  0  0  0  0  0  0  0  0  0
  -24.3830  -10.1940   20.9910 C   0  0  0  0  0  0  0  0  0  0  0  0
  -25.8840  -11.5200   20.2560 N   0  0  0  0  0  0  0  0  0  0  0  0
  -25.6520  -10.2210   20.5860 N   0  0  0  0  0  0  0  0  0  0  0  0
  -23.7390   -8.9060   21.2790 C   0  0  0  0  0  0  0  0  0  0  0  0
  -24.2450   -8.0250   22.2590 C   0  0  0  0  0  3  0  0  0  0  0  0
  -23.5850   -6.8080   22.5350 C   0  0  0  0  0  3  0  0  0  0  0  0
  -22.4080   -6.4620   21.8320 C   0  0  0  0  0  0  0  0  0  0  0  0
  -21.9210   -7.3320   20.8400 C   0  0  0  0  0  3  0  0  0  0  0  0
  -22.5810   -8.5410   20.5630 C   0  0  0  0  0  3  0  0  0  0  0  0
  -21.7140   -5.2900   22.0160 O   0  0  0  0  0  0  0  0  0  0  0  0
  -21.6710   -4.6630   23.2350 C   0  0  0  0  0  0  0  0  0  0  0  0
  -21.1510   -5.3000   24.3830 C   0  0  0  0  0  3  0  0  0  0  0  0
  -21.0610   -4.5950   25.6000 C   0  0  0  0  0  3  0  0  0  0  0  0
  -21.4800   -3.2530   25.6680 C   0  0  0  0  0  0  0  0  0  0  0  0
  -21.9930   -2.6150   24.5250 C   0  0  0  0  0  3  0  0  0  0  0  0
  -22.0840   -3.3180   23.3110 C   0  0  0  0  0  0  0  0  0  0  0  0
  -22.5590   -2.6920   22.2070 F   0  0  0  0  0  0  0  0  0  0  0  0
  -21.3860   -2.5730   26.8340 F   0  0  0  0  0  0  0  0  0  0  0  0
  -22.4380  -11.9320   21.3430 C   0  0  0  0  0  0  0  0  0  0  0  0
  -21.8020  -11.2410   22.2790 N   0  0  0  0  0  0  0  0  0  0  0  0
  -21.9240  -12.9160   20.8120 O   0  0  0  0  0  0  0  0  0  0  0  0
  -22.2350  -10.4480   22.7300 H   0  0  0  0  0  0  0  0  0  0  0  0
  -20.8660  -11.5070   22.5500 H   0  0  0  0  0  0  0  0  0  0  0  0
  -24.8810  -13.7070   20.2900 N   0  0  0  0  0  0  0  0  0  0  0  0
  -24.0840  -14.3210   20.4200 H   0  0  0  0  0  0  0  0  0  0  0  0
  -25.6680  -14.1680   19.8550 H   0  0  0  0  0  0  0  0  0  0  0  0
  -28.6070  -25.6510   18.8990 O   0  0  0  0  0  0  0  0  0  0  0  0
  -24.4410  -30.0440   23.3850 C   0  0  0  0  0  0  0  0  0  0  0  0
  -27.4980  -25.1520   19.5150 C   0  0  0  0  0  0  0  0  0  0  0  0
  -23.2090  -28.7760   21.5890 C   0  0  0  0  0  3  0  0  0  0  0  0
  -24.3530  -26.5700   20.2560 C   0  0  0  0  0  0  0  0  0  0  0  0
  -25.6920  -28.3490   21.9120 C   0  0  0  0  0  2  0  0  0  0  0  0
  -25.6210  -26.8450   21.2510 C   0  0  0  0  0  0  0  0  0  0  0  0
  -27.1050  -26.0900   20.9910 C   0  0  0  0  0  3  0  0  0  0  0  0
  -26.0530  -24.8450   18.3250 C   0  0  0  0  0  3  0  0  0  0  0  0
  -24.4790  -25.5910   18.8480 C   0  0  0  0  0  3  0  0  0  0  0  0
  -23.3190  -27.8030   20.3070 C   0  0  0  0  0  2  0  0  0  0  0  0
  -24.4780  -29.1520   22.3040 N   0  0  0  0  0  0  0  0  0  0  0  0
  -23.3670  -30.4950   23.8200 O   0  0  0  0  0  0  0  0  0  0  0  0
  -22.3200  -27.9900   22.5390 C   0  0  0  0  0  0  0  0  0  0  0  0
  -21.0010  -28.0160   22.3130 N   0  0  0  0  0  0  0  0  0  0  0  0
  -22.8450  -27.2740   23.3910 O   0  0  0  0  0  0  0  0  0  0  0  0
  -20.6390  -28.6300   21.5970 H   0  0  0  0  0  0  0  0  0  0  0  0
  -17.5460  -26.9870   22.4040 C   0  0  0  0  0  0  0  0  0  0  0  0
  -20.0650  -27.0810   22.9250 C   0  0  0  0  0  3  0  0  0  0  0  0
  -20.1590  -25.6950   22.2400 C   0  0  0  0  0  2  0  0  0  0  0  0
  -19.1460  -25.5150   21.1090 C   0  0  0  0  0  2  0  0  0  0  0  0
  -17.7210  -25.6830   21.6430 C   0  0  0  0  0  2  0  0  0  0  0  0
  -18.6530  -27.6550   22.9860 C   0  0  0  0  0  0  0  0  0  0  0  0
  -18.4480  -28.8840   23.6500 C   0  0  0  0  0  3  0  0  0  0  0  0
  -17.1600  -29.4410   23.7430 C   0  0  0  0  0  3  0  0  0  0  0  0
  -16.0610  -28.7660   23.1830 C   0  0  0  0  0  3  0  0  0  0  0  0
  -16.2550  -27.5420   22.5200 C   0  0  0  0  0  3  0  0  0  0  0  0
  -25.7250  -30.5440   24.1570 C   0  0  0  0  0  3  0  0  0  0  0  0
  -25.5420  -31.9790   24.5210 N   0  0  0  0  0  0  0  0  0  0  0  0
  -26.0850  -33.0500   23.9190 C   0  0  0  0  0  0  0  0  0  0  0  0
  -26.8330  -32.9450   22.9440 O   0  0  0  0  0  0  0  0  0  0  0  0
  -24.8870  -32.1560   25.2690 H   0  0  0  0  0  0  0  0  0  0  0  0
  -24.6070  -35.0870   23.6490 C   0  0  0  0  0  1  0  0  0  0  0  0
  -25.7460  -34.4580   24.4700 C   0  0  0  0  0  3  0  0  0  0  0  0
  -27.9120  -35.0480   25.4810 C   0  0  0  0  0  1  0  0  0  0  0  0
  -26.8980  -35.3910   24.4880 N   0  0  0  0  0  0  0  0  0  0  0  0
  -26.5870  -36.3420   24.6700 H   0  0  0  0  0  0  0  0  0  0  0  0
  -26.0430  -29.7490   25.4980 C   0  0  1  0  0  0  0  0  0  0  0  0
  -24.8300  -29.6660   26.4520 C   0  0  0  0  0  1  0  0  0  0  0  0
  -26.5130  -28.2980   25.2900 C   0  0  0  0  0  1  0  0  0  0  0  0
  -27.2180  -30.4220   26.2510 C   0  0  0  0  0  1  0  0  0  0  0  0
  1  4  1  0
  1  8  2  0
  2  5  1  0
  2  7  1  0
  3  5  1  0
  3  1  1  0
  4  7  1  0
  5 57  1  0
  5  6  1  0
  9  2  2  0
 10 11  1  0
 11 14  1  0
 12 14  1  0
 12 11  1  0
 13 10  1  0
 15 12  1  0
 15 13  2  0
 16 15  1  0
 17 26  1  0
 18 23  1  0
 19 20  1  0
 19 18  1  0
 21 20  1  0
 21 32  1  0
 21 22  1  0
 23 17  1  0
 23 22  1  0
 24 17  2  0
 25 27  1  0
 26 28  1  0
 26 25  1  0
 29 30  2  0
 30 49  1  0
 31 30  1  0
 31 34  1  0
 32 29  1  0
 32 33  1  0
 33 31  2  0
 34 35  1  0
 35 36  2  0
 37 40  1  0
 37 36  1  0
 38 37  2  0
 39 38  1  0
 39 34  2  0
 40 41  1  0
 41 46  2  0
 41 42  1  0
 42 43  2  0
 43 44  1  0
 44 48  1  0
 45 44  2  0
 46 45  1  0
 47 46  1  0
 49 50  1  0
 50 53  1  0
 50 52  1  0
 51 49  2  0
 54 55  1  0
 54 29  1  0
 56 54  1  0
 57 59  1  0
 58 69  2  0
 59 64  1  0
 60 68  1  0
 60 70  1  0
 61 67  1  0
 61 63  1  0
 62 68  1  0
 63 62  1  0
 64 63  2  0
 65 66  1  0
 65 59  2  0
 66 61  2  0
 67 60  1  0
 68 58  1  0
 70 72  2  0
 71 70  1  0
 73 71  1  0
 74 83  2  0
 74 79  1  0
 75 71  1  0
 75 79  1  0
 76 75  1  0
 77 78  1  0
 77 76  1  0
 78 74  1  0
 79 80  2  0
 80 81  1  0
 82 81  2  0
 83 82  1  0
 84 58  1  0
 84 85  1  0
 84 94  1  0
 85 88  1  0
 86 90  1  0
 86 85  1  0
 87 86  2  0
 90 89  1  0
 90 92  1  0
 92 93  1  0
 92 91  1  0
 94 97  1  1
 94 95  1  0
 96 94  1  0
M  ISO  4   5 101  17 100  26 100  57 101
M  END
>  <TORSDO>  (73) 
F 17

>  <SCORE>  (73) 
4.461

>  <name>  (73) 
73

>  <ligand_id>  (73) 
73

>  <original_smiles>  (73) 
[H]c1c([H])c([H])c2c(c1[H])C([H])([H])C([H])([H])C([H])([H])C2([H])N([H])C(=O)C1([H])N(C(=O)C([H])(N([H])C(=O)C([H])(N([H])C([H])([H])[H])C([H])([H])[H])C(C([H])([H])[H])(C([H])([H])[H])C([H])([H])[H])C([H])([H])c2c([H])c(OC3(C([H])([H])[H])C(=O)N(c4c([H])c([H])c(C(=O)N([H])C(=O)N5C([H])([H])C([H])([H])C([H])([H])C([H])(n6nc(-c7c([H])c([H])c(Oc8c([H])c([H])c(F)c([H])c8F)c([H])c7[H])c(C(=O)N([H])[H])c6N([H])[H])C5([H])[H])c(F)c4[H])C([H])([H])C(=O)C3([H])[H])c([H])c([H])c2C1([H])[H]

>  <smiles>  (73) 
[H]c1c([H])c([H])c2c(c1[H])C([H])([H])C([H])([H])C([H])([H])C2([H])N([H])C(=O)C1([H])N(C(=O)C([H])(N([H])C(=O)C([H])(N([H])C([H])([H])[H])C([H])([H])[H])C(C([H])([H])[H])(C([H])([H])[H])C([H])([H])[H])C([H])([H])c2c([H])c(OC3(C([H])([H])[H])C(=O)N(c4c([H])c([H])c(C(=O)N([H])C(=O)N5C([H])([H])C([H])([H])C([H])([H])C([H])(n6nc(-c7c([H])c([H])c(Oc8c([H])c([H])c(F)c([H])c8F)c([H])c7[H])c(C(=O)N([H])[H])c6N([H])[H])C5([H])[H])c(F)c4[H])C([H])([H])C(=O)C3([H])[H])c([H])c([H])c2C1([H])[H]

$$$$
74:0:0
     RDKit          3D

 92101  0  0  1  0  0  0  0  0999 V2000
  -30.7030  -14.7150   20.3690 C   0  0  0  0  0  0  0  0  0  0  0  0
  -30.4350  -12.4480   19.3730 C   0  0  0  0  0  2  0  0  0  0  0  0
  -29.5230  -12.5390   18.1320 C   0  0  0  0  0  2  0  0  0  0  0  0
  -28.0440  -12.4040   18.5410 C   0  0  0  0  0  2  0  0  0  0  0  0
  -27.6690  -13.3110   19.7450 C   0  0  0  0  0  3  0  0  0  0  0  0
  -28.7090  -13.2230   20.8830 C   0  0  0  0  0  2  0  0  0  0  0  0
  -30.0190  -13.5250   20.2970 N   0  0  0  0  0  0  0  0  0  0  0  0
  -31.9020  -14.7450   20.0720 O   0  0  0  0  0  0  0  0  0  0  0  0
  -30.0400  -19.2040   18.2580 C   0  0  0  0  0  2  0  0  0  0  0  0
  -29.8170  -20.6020   18.3210 C   0  0  0  0  0  3  0  0  0  0  0  0
  -29.1430  -20.4050   20.6260 C   0  0  0  0  0  3  0  0  0  0  0  0
  -29.8190  -18.3610   19.3700 C   0  0  0  0  0  0  0  0  0  0  0  0
  -29.3730  -18.9720   20.5590 C   0  0  0  0  0  0  0  0  0  0  0  0
  -29.3580  -21.2610   19.4890 C   0  0  0  0  0  0  0  0  0  0  0  0
  -29.1170  -18.0060   21.7180 C   0  0  0  0  0  3  0  0  0  0  0  0
  -30.0440  -16.8190   19.2320 C   0  0  0  0  0  3  0  0  0  0  0  0
  -29.9670  -16.6800   21.6940 C   0  0  0  0  0  3  0  0  0  0  0  0
  -29.9860  -15.9080   20.4260 N   0  0  0  0  0  0  0  0  0  0  0  0
  -25.2790  -13.9420   20.4230 C   0  0  0  0  0  0  0  0  0  0  0  0
  -24.1970  -13.1860   20.7860 C   0  0  0  0  0  0  0  0  0  0  0  0
  -24.6440  -11.8300   20.7870 C   0  0  0  0  0  0  0  0  0  0  0  0
  -26.3150  -13.0460   20.2200 N   0  0  0  0  0  0  0  0  0  0  0  0
  -25.9400  -11.7720   20.5030 N   0  0  0  0  0  0  0  0  0  0  0  0
  -23.8990  -10.5790   20.9850 C   0  0  0  0  0  0  0  0  0  0  0  0
  -24.3100   -9.6150   21.9330 C   0  0  0  0  0  3  0  0  0  0  0  0
  -23.5650   -8.4310   22.1180 C   0  0  0  0  0  3  0  0  0  0  0  0
  -22.3960   -8.2010   21.3550 C   0  0  0  0  0  0  0  0  0  0  0  0
  -22.0040   -9.1530   20.3980 C   0  0  0  0  0  3  0  0  0  0  0  0
  -22.7490  -10.3290   20.2100 C   0  0  0  0  0  3  0  0  0  0  0  0
  -21.6230   -7.0680   21.4500 O   0  0  0  0  0  0  0  0  0  0  0  0
  -21.5580   -6.3360   22.6080 C   0  0  0  0  0  0  0  0  0  0  0  0
  -21.1430   -6.9100   23.8300 C   0  0  0  0  0  3  0  0  0  0  0  0
  -21.0220   -6.1060   24.9810 C   0  0  0  0  0  3  0  0  0  0  0  0
  -21.3060   -4.7290   24.9120 C   0  0  0  0  0  0  0  0  0  0  0  0
  -21.7150   -4.1550   23.6950 C   0  0  0  0  0  3  0  0  0  0  0  0
  -21.8370   -4.9560   22.5460 C   0  0  0  0  0  0  0  0  0  0  0  0
  -22.2100   -4.3930   21.3710 F   0  0  0  0  0  0  0  0  0  0  0  0
  -21.1840   -3.9540   26.0150 F   0  0  0  0  0  0  0  0  0  0  0  0
  -22.8010  -13.6850   21.0230 C   0  0  0  0  0  0  0  0  0  0  0  0
  -22.0500  -13.0140   21.8890 N   0  0  0  0  0  0  0  0  0  0  0  0
  -22.3850  -14.7040   20.4740 O   0  0  0  0  0  0  0  0  0  0  0  0
  -22.4000  -12.1900   22.3550 H   0  0  0  0  0  0  0  0  0  0  0  0
  -21.1130  -13.3310   22.0910 H   0  0  0  0  0  0  0  0  0  0  0  0
  -25.4650  -15.3080   20.2280 N   0  0  0  0  0  0  0  0  0  0  0  0
  -24.7090  -15.9770   20.3220 H   0  0  0  0  0  0  0  0  0  0  0  0
  -26.3360  -15.7320   19.9330 H   0  0  0  0  0  0  0  0  0  0  0  0
  -28.8020  -23.8100   20.0810 C   0  0  0  0  0  0  0  0  0  0  0  0
  -29.1540  -22.7160   19.3220 N   0  0  0  0  0  0  0  0  0  0  0  0
  -28.5510  -23.7320   21.2870 O   0  0  0  0  0  0  0  0  0  0  0  0
  -29.3340  -23.0120   18.3720 H   0  0  0  0  0  0  0  0  0  0  0  0
  -28.7300  -25.2160   19.3150 C   0  0  0  0  0  2  0  0  0  0  0  0
  -28.5460  -26.4830   20.0850 O   0  0  0  0  0  0  0  0  0  0  0  0
  -24.5650  -31.7360   23.0580 C   0  0  0  0  0  0  0  0  0  0  0  0
  -27.3910  -27.2880   19.9920 C   0  0  0  0  0  0  0  0  0  0  0  0
  -23.4430  -30.3170   21.3800 C   0  0  0  0  0  3  0  0  0  0  0  0
  -24.9710  -28.8340   19.9600 C   0  0  0  0  0  0  0  0  0  0  0  0
  -25.9740  -30.7190   21.2500 C   0  0  0  0  0  2  0  0  0  0  0  0
  -26.1130  -29.3510   20.5870 C   0  0  0  0  0  0  0  0  0  0  0  0
  -27.3200  -28.5870   20.5950 C   0  0  0  0  0  3  0  0  0  0  0  0
  -26.2160  -26.8230   19.3580 C   0  0  0  0  0  3  0  0  0  0  0  0
  -25.0260  -27.5780   19.3400 C   0  0  0  0  0  3  0  0  0  0  0  0
  -23.7050  -29.6680   19.9960 C   0  0  0  0  0  2  0  0  0  0  0  0
  -24.6790  -30.9420   21.9530 N   0  0  0  0  0  0  0  0  0  0  0  0
  -23.4630  -31.9700   23.5740 O   0  0  0  0  0  0  0  0  0  0  0  0
  -22.7980  -29.2660   22.3150 C   0  0  0  0  0  0  0  0  0  0  0  0
  -21.4740  -29.0740   22.1880 N   0  0  0  0  0  0  0  0  0  0  0  0
  -23.4880  -28.6290   23.1150 O   0  0  0  0  0  0  0  0  0  0  0  0
  -20.9750  -29.6410   21.5170 H   0  0  0  0  0  0  0  0  0  0  0  0
  -18.1090  -27.8440   22.6960 C   0  0  0  0  0  0  0  0  0  0  0  0
  -20.6700  -28.1060   22.9380 C   0  0  0  0  0  3  0  0  0  0  0  0
  -20.7700  -26.6960   22.3110 C   0  0  0  0  0  2  0  0  0  0  0  0
  -19.6550  -26.4040   21.3020 C   0  0  0  0  0  2  0  0  0  0  0  0
  -18.2820  -26.5190   21.9690 C   0  0  0  0  0  2  0  0  0  0  0  0
  -19.2300  -28.5960   23.1360 C   0  0  0  0  0  0  0  0  0  0  0  0
  -19.0140  -29.8360   23.7760 C   0  0  0  0  0  3  0  0  0  0  0  0
  -17.7090  -30.3240   23.9770 C   0  0  0  0  0  3  0  0  0  0  0  0
  -16.6020  -29.5680   23.5520 C   0  0  0  0  0  3  0  0  0  0  0  0
  -16.8040  -28.3290   22.9170 C   0  0  0  0  0  3  0  0  0  0  0  0
  -25.8130  -32.4060   23.7120 C   0  0  0  0  0  3  0  0  0  0  0  0
  -25.4370  -33.7790   24.0820 N   0  0  0  0  0  0  0  0  0  0  0  0
  -25.7240  -34.8680   23.3560 C   0  0  0  0  0  0  0  0  0  0  0  0
  -26.4000  -34.8270   22.3250 O   0  0  0  0  0  0  0  0  0  0  0  0
  -24.8330  -33.8820   24.8840 H   0  0  0  0  0  0  0  0  0  0  0  0
  -23.9120  -36.5870   23.0550 C   0  0  0  0  0  1  0  0  0  0  0  0
  -25.1720  -36.2190   23.8540 C   0  0  0  0  0  3  0  0  0  0  0  0
  -27.2650  -37.1790   24.7060 C   0  0  0  0  0  1  0  0  0  0  0  0
  -26.1540  -37.3230   23.7700 N   0  0  0  0  0  0  0  0  0  0  0  0
  -25.7050  -38.2180   23.9470 H   0  0  0  0  0  0  0  0  0  0  0  0
  -26.3500  -31.6210   24.9720 C   0  0  1  0  0  0  0  0  0  0  0  0
  -25.2580  -31.3090   26.0230 C   0  0  0  0  0  1  0  0  0  0  0  0
  -26.9920  -30.2800   24.5490 C   0  0  0  0  0  1  0  0  0  0  0  0
  -27.4610  -32.4430   25.6660 C   0  0  0  0  0  1  0  0  0  0  0  0
  1 18  1  0
  2  7  1  0
  3  4  1  0
  3  2  1  0
  5  4  1  0
  5 22  1  0
  5  6  1  0
  7  1  1  0
  7  6  1  0
  8  1  2  0
  9 10  1  0
  9 12  1  0
 10 14  2  0
 12 13  1  0
 13 11  2  0
 13 15  1  0
 14 11  1  0
 16 12  2  0
 16 18  1  0
 17 15  2  0
 18 17  1  0
 19 20  2  0
 20 21  1  0
 20 39  1  0
 21 24  1  0
 22 19  1  0
 22 23  1  0
 23 21  2  0
 24 25  1  0
 25 26  2  0
 27 30  1  0
 27 26  1  0
 28 27  2  0
 29 28  1  0
 29 24  2  0
 30 31  1  0
 31 32  1  0
 32 33  2  0
 34 33  1  0
 34 38  1  0
 35 34  2  0
 36 31  2  0
 36 35  1  0
 37 36  1  0
 39 40  1  0
 40 43  1  0
 40 42  1  0
 41 39  2  0
 44 45  1  0
 44 19  1  0
 46 44  1  0
 47 49  2  0
 48 14  1  0
 48 47  1  0
 50 48  1  0
 51 47  1  0
 51 52  1  0
 53 64  2  0
 54 52  1  0
 54 59  1  0
 55 63  1  0
 55 65  1  0
 56 62  1  0
 56 58  1  0
 57 63  1  0
 58 59  2  0
 58 57  1  0
 60 54  2  0
 61 60  1  0
 61 56  2  0
 62 55  1  0
 63 53  1  0
 65 67  2  0
 66 65  1  0
 68 66  1  0
 69 78  2  0
 69 74  1  0
 70 66  1  0
 70 74  1  0
 71 70  1  0
 72 73  1  0
 72 71  1  0
 73 69  1  0
 74 75  2  0
 75 76  1  0
 77 76  2  0
 78 77  1  0
 79 53  1  0
 79 80  1  0
 79 89  1  0
 80 83  1  0
 81 85  1  0
 81 80  1  0
 82 81  2  0
 85 84  1  0
 87 85  1  0
 87 88  1  0
 87 86  1  0
 89 92  1  1
 89 90  1  0
 91 89  1  0
M  ISO  4   1 100  18 100  51 101  52 101
M  END
>  <TORSDO>  (74) 
F 17

>  <SCORE>  (74) 
-14.054

>  <name>  (74) 
74

>  <ligand_id>  (74) 
74

>  <original_smiles>  (74) 
[H]c1c([H])c([H])c2c(c1[H])C([H])([H])C([H])([H])C([H])([H])C2([H])N([H])C(=O)C1([H])N(C(=O)C([H])(N([H])C(=O)C([H])(N([H])C([H])([H])[H])C([H])([H])[H])C(C([H])([H])[H])(C([H])([H])[H])C([H])([H])[H])C([H])([H])c2c([H])c(OC([H])([H])C(=O)N([H])c3c([H])c([H])c4c(c3[H])C([H])([H])C([H])([H])N(C(=O)N3C([H])([H])C([H])([H])C([H])([H])C([H])(n5nc(-c6c([H])c([H])c(Oc7c([H])c([H])c(F)c([H])c7F)c([H])c6[H])c(C(=O)N([H])[H])c5N([H])[H])C3([H])[H])C4([H])[H])c([H])c([H])c2C1([H])[H]

>  <smiles>  (74) 
[H]c1c([H])c([H])c2c(c1[H])C([H])([H])C([H])([H])C([H])([H])C2([H])N([H])C(=O)C1([H])N(C(=O)C([H])(N([H])C(=O)C([H])(N([H])C([H])([H])[H])C([H])([H])[H])C(C([H])([H])[H])(C([H])([H])[H])C([H])([H])[H])C([H])([H])c2c([H])c(OC([H])([H])C(=O)N([H])c3c([H])c([H])c4c(c3[H])C([H])([H])C([H])([H])N(C(=O)N3C([H])([H])C([H])([H])C([H])([H])C([H])(n5nc(-c6c([H])c([H])c(Oc7c([H])c([H])c(F)c([H])c7F)c([H])c6[H])c(C(=O)N([H])[H])c5N([H])[H])C3([H])[H])C4([H])[H])c([H])c([H])c2C1([H])[H]

$$$$
75:0:0
     RDKit          3D

 99108  0  0  1  0  0  0  0  0999 V2000
  -28.4680  -18.3120   20.7690 C   0  0  0  0  0  3  0  0  0  0  0  0
  -28.2540  -19.6810   20.5160 C   0  0  0  0  0  3  0  0  0  0  0  0
  -30.7280  -18.8100   21.5070 C   0  0  0  0  0  3  0  0  0  0  0  0
  -29.7430  -17.8560   21.1740 C   0  0  0  0  0  0  0  0  0  0  0  0
  -29.2890  -20.6260   20.7080 C   0  0  0  0  0  0  0  0  0  0  0  0
  -30.5130  -20.1820   21.2710 C   0  0  0  0  0  0  0  0  0  0  0  0
  -31.5230  -21.0550   21.5080 F   0  0  0  0  0  0  0  0  0  0  0  0
  -30.9550  -14.6050   19.9190 C   0  0  0  0  0  0  0  0  0  0  0  0
  -30.5780  -12.4220   18.8540 C   0  0  0  0  0  2  0  0  0  0  0  0
  -29.5600  -12.5810   17.7060 C   0  0  0  0  0  2  0  0  0  0  0  0
  -28.1160  -12.4690   18.2350 C   0  0  0  0  0  2  0  0  0  0  0  0
  -27.8570  -13.3340   19.4980 C   0  0  0  0  0  3  0  0  0  0  0  0
  -28.9850  -13.1550   20.5380 C   0  0  0  0  0  2  0  0  0  0  0  0
  -30.2600  -13.4360   19.8690 N   0  0  0  0  0  0  0  0  0  0  0  0
  -32.1040  -14.6970   19.4850 O   0  0  0  0  0  0  0  0  0  0  0  0
  -30.1060  -16.3920   21.2030 C   0  0  0  0  0  0  0  0  0  0  0  0
  -30.1960  -15.7260   20.0130 N   0  0  0  0  0  0  0  0  0  0  0  0
  -30.3820  -15.8910   22.2990 O   0  0  0  0  0  0  0  0  0  0  0  0
  -25.5320  -13.9400   20.4150 C   0  0  0  0  0  0  0  0  0  0  0  0
  -24.4850  -13.1640   20.8350 C   0  0  0  0  0  0  0  0  0  0  0  0
  -24.9260  -11.8110   20.7170 C   0  0  0  0  0  0  0  0  0  0  0  0
  -26.5440  -13.0590   20.0730 N   0  0  0  0  0  0  0  0  0  0  0  0
  -26.1890  -11.7710   20.3170 N   0  0  0  0  0  0  0  0  0  0  0  0
  -24.2020  -10.5480   20.9110 C   0  0  0  0  0  0  0  0  0  0  0  0
  -24.6320   -9.5850   21.8490 C   0  0  0  0  0  3  0  0  0  0  0  0
  -23.9070   -8.3860   22.0290 C   0  0  0  0  0  3  0  0  0  0  0  0
  -22.7360   -8.1460   21.2710 C   0  0  0  0  0  0  0  0  0  0  0  0
  -22.3240   -9.0990   20.3220 C   0  0  0  0  0  3  0  0  0  0  0  0
  -23.0500  -10.2870   20.1410 C   0  0  0  0  0  3  0  0  0  0  0  0
  -21.9800   -7.0020   21.3630 O   0  0  0  0  0  0  0  0  0  0  0  0
  -21.8400   -6.3260   22.5470 C   0  0  0  0  0  0  0  0  0  0  0  0
  -21.2930   -6.9400   23.6950 C   0  0  0  0  0  3  0  0  0  0  0  0
  -21.1010   -6.1890   24.8720 C   0  0  0  0  0  3  0  0  0  0  0  0
  -21.4450   -4.8240   24.9000 C   0  0  0  0  0  0  0  0  0  0  0  0
  -21.9850   -4.2090   23.7580 C   0  0  0  0  0  3  0  0  0  0  0  0
  -22.1790   -4.9580   22.5830 C   0  0  0  0  0  0  0  0  0  0  0  0
  -22.6790   -4.3550   21.4780 F   0  0  0  0  0  0  0  0  0  0  0  0
  -21.2520   -4.1020   26.0280 F   0  0  0  0  0  0  0  0  0  0  0  0
  -23.1180  -13.6450   21.2260 C   0  0  0  0  0  0  0  0  0  0  0  0
  -22.4480  -12.9250   22.1190 N   0  0  0  0  0  0  0  0  0  0  0  0
  -22.6550  -14.6920   20.7730 O   0  0  0  0  0  0  0  0  0  0  0  0
  -22.8390  -12.0770   22.5040 H   0  0  0  0  0  0  0  0  0  0  0  0
  -21.5330  -13.2230   22.4230 H   0  0  0  0  0  0  0  0  0  0  0  0
  -25.6990  -15.3140   20.2720 N   0  0  0  0  0  0  0  0  0  0  0  0
  -24.9230  -15.9510   20.4180 H   0  0  0  0  0  0  0  0  0  0  0  0
  -26.4770  -15.7450   19.7910 H   0  0  0  0  0  0  0  0  0  0  0  0
  -29.9080  -16.3630   18.6930 C   0  0  0  0  0  2  0  0  0  0  0  0
  -31.0270  -17.2730   18.1530 C   0  0  0  0  0  0  0  0  0  0  0  0
  -31.9820  -17.5780   18.8720 O   0  0  0  0  0  0  0  0  0  0  0  0
  -31.8940  -18.3740   16.1310 C   0  0  0  0  0  2  0  0  0  0  0  0
  -30.8890  -17.7450   16.7650 C   0  0  0  0  0  3  0  0  0  0  0  0
  -29.1010  -24.6150   19.2090 C   0  0  0  0  0  0  0  0  0  0  0  0
  -28.5500  -25.7760   18.8130 C   0  0  0  0  0  3  0  0  0  0  0  0
  -29.1500  -23.4110   18.2900 C   0  0  0  0  0  2  0  0  0  0  0  0
  -29.6790  -24.3660   20.5990 C   0  0  0  0  0  2  0  0  0  0  0  0
  -28.5150  -22.1910   18.9700 C   0  0  0  0  0  2  0  0  0  0  0  0
  -29.1560  -23.0600   21.2380 C   0  0  0  0  0  2  0  0  0  0  0  0
  -29.1320  -21.9590   20.2740 N   0  0  0  0  0  0  0  0  0  0  0  0
  -28.4130  -26.8590   19.6360 O   0  0  0  0  0  0  0  0  0  0  0  0
  -24.4820  -31.6930   23.0170 C   0  0  0  0  0  0  0  0  0  0  0  0
  -27.2010  -27.5160   19.6670 C   0  0  0  0  0  0  0  0  0  0  0  0
  -23.2820  -30.3380   21.3290 C   0  0  0  0  0  3  0  0  0  0  0  0
  -24.7520  -28.9190   19.8070 C   0  0  0  0  0  0  0  0  0  0  0  0
  -25.7860  -30.7940   21.0970 C   0  0  0  0  0  2  0  0  0  0  0  0
  -25.9030  -29.4580   20.3940 C   0  0  0  0  0  0  0  0  0  0  0  0
  -27.1290  -28.7620   20.3240 C   0  0  0  0  0  3  0  0  0  0  0  0
  -26.0230  -26.9730   19.0980 C   0  0  0  0  0  3  0  0  0  0  0  0
  -24.8050  -27.6720   19.1610 C   0  0  0  0  0  3  0  0  0  0  0  0
  -23.4840  -29.7330   19.9150 C   0  0  0  0  0  2  0  0  0  0  0  0
  -24.5360  -30.9510   21.8760 N   0  0  0  0  0  0  0  0  0  0  0  0
  -23.4060  -31.9050   23.5920 O   0  0  0  0  0  0  0  0  0  0  0  0
  -22.6830  -29.2510   22.2490 C   0  0  0  0  0  0  0  0  0  0  0  0
  -21.3600  -29.0430   22.1450 N   0  0  0  0  0  0  0  0  0  0  0  0
  -23.4020  -28.5980   23.0120 O   0  0  0  0  0  0  0  0  0  0  0  0
  -20.8370  -29.6290   21.5070 H   0  0  0  0  0  0  0  0  0  0  0  0
  -18.0270  -27.7590   22.6770 C   0  0  0  0  0  0  0  0  0  0  0  0
  -20.5870  -28.0460   22.8840 C   0  0  0  0  0  3  0  0  0  0  0  0
  -20.6950  -26.6540   22.2220 C   0  0  0  0  0  2  0  0  0  0  0  0
  -19.5670  -26.3700   21.2250 C   0  0  0  0  0  2  0  0  0  0  0  0
  -18.2040  -26.4540   21.9180 C   0  0  0  0  0  2  0  0  0  0  0  0
  -19.1460  -28.5130   23.1150 C   0  0  0  0  0  0  0  0  0  0  0  0
  -18.9270  -29.7390   23.7830 C   0  0  0  0  0  3  0  0  0  0  0  0
  -17.6210  -30.2060   24.0180 C   0  0  0  0  0  3  0  0  0  0  0  0
  -16.5160  -29.4490   23.5920 C   0  0  0  0  0  3  0  0  0  0  0  0
  -16.7210  -28.2260   22.9280 C   0  0  0  0  0  3  0  0  0  0  0  0
  -25.7630  -32.3310   23.6430 C   0  0  0  0  0  3  0  0  0  0  0  0
  -26.3280  -31.5150   24.8690 C   0  0  1  0  0  0  0  0  0  0  0  0
  -25.2670  -31.1970   25.9480 C   0  0  0  0  0  1  0  0  0  0  0  0
  -26.9370  -30.1740   24.3950 C   0  0  0  0  0  1  0  0  0  0  0  0
  -27.4740  -32.3060   25.5430 C   0  0  0  0  0  1  0  0  0  0  0  0
  -25.4230  -33.7020   24.0410 N   0  0  0  0  0  0  0  0  0  0  0  0
  -25.7130  -34.7940   23.3220 C   0  0  0  0  0  0  0  0  0  0  0  0
  -26.3650  -34.7560   22.2760 O   0  0  0  0  0  0  0  0  0  0  0  0
  -24.8390  -33.8060   24.8580 H   0  0  0  0  0  0  0  0  0  0  0  0
  -23.9300  -36.5520   23.0730 C   0  0  0  0  0  1  0  0  0  0  0  0
  -25.1940  -36.1460   23.8480 C   0  0  0  0  0  3  0  0  0  0  0  0
  -27.3130  -37.0520   24.6950 C   0  0  0  0  0  1  0  0  0  0  0  0
  -26.1960  -37.2330   23.7730 N   0  0  0  0  0  0  0  0  0  0  0  0
  -25.7650  -38.1320   23.9740 H   0  0  0  0  0  0  0  0  0  0  0  0
  1  4  1  0
  2  5  1  0
  2  1  2  0
  4 16  1  0
  4  3  2  0
  5  6  2  0
  6  3  1  0
  6  7  1  0
  8 17  1  0
  9 14  1  0
 10 11  1  0
 10  9  1  0
 12 11  1  0
 12 22  1  0
 12 13  1  0
 14  8  1  0
 14 13  1  0
 15  8  2  0
 16 18  2  0
 17 16  1  0
 19 20  2  0
 20 39  1  0
 21 20  1  0
 21 24  1  0
 22 23  1  0
 22 19  1  0
 23 21  2  0
 24 25  1  0
 25 26  2  0
 27 30  1  0
 27 26  1  0
 28 27  2  0
 29 28  1  0
 29 24  2  0
 30 31  1  0
 31 36  2  0
 31 32  1  0
 32 33  2  0
 33 34  1  0
 34 38  1  0
 35 34  2  0
 36 35  1  0
 37 36  1  0
 39 40  1  0
 40 43  1  0
 40 42  1  0
 41 39  2  0
 44 19  1  0
 44 45  1  0
 46 44  1  0
 47 17  1  0
 48 47  1  0
 48 49  2  0
 50 51  2  0
 51 48  1  0
 52 55  1  0
 53 52  2  0
 53 59  1  0
 54 56  1  0
 54 52  1  0
 55 57  1  0
 56 58  1  0
 58  5  1  0
 58 57  1  0
 59 61  1  0
 60 71  2  0
 61 66  1  0
 62 70  1  0
 62 72  1  0
 63 69  1  0
 63 65  1  0
 64 70  1  0
 65 64  1  0
 66 65  2  0
 67 68  1  0
 67 61  2  0
 68 63  2  0
 69 62  1  0
 70 60  1  0
 72 74  2  0
 73 72  1  0
 75 73  1  0
 76 85  2  0
 76 81  1  0
 77 73  1  0
 77 81  1  0
 78 77  1  0
 79 80  1  0
 79 78  1  0
 80 76  1  0
 81 82  2  0
 82 83  1  0
 84 83  2  0
 85 84  1  0
 86 60  1  0
 86 91  1  0
 86 87  1  0
 87 90  1  1
 87 88  1  0
 89 87  1  0
 91 94  1  0
 92 96  1  0
 92 91  1  0
 93 92  2  0
 96 95  1  0
 98 96  1  0
 98 99  1  0
 98 97  1  0
M  ISO  4   8 100  17 100  53 101  59 101
M  END
>  <TORSDO>  (75) 
F 20

>  <SCORE>  (75) 
-13.380

>  <name>  (75) 
75

>  <ligand_id>  (75) 
75

>  <original_smiles>  (75) 
[H]C([H])=C([H])C(=O)C([H])([H])N(C(=O)c1c([H])c([H])c(N2C([H])([H])C([H])([H])C(=C([H])Oc3c([H])c([H])c4c(c3[H])C([H])([H])N(C(=O)C([H])(N([H])C(=O)C([H])(N([H])C([H])([H])[H])C([H])([H])[H])C(C([H])([H])[H])(C([H])([H])[H])C([H])([H])[H])C([H])(C(=O)N([H])C3([H])c5c([H])c([H])c([H])c([H])c5C([H])([H])C([H])([H])C3([H])[H])C4([H])[H])C([H])([H])C2([H])[H])c(F)c1[H])C(=O)N1C([H])([H])C([H])([H])C([H])([H])C([H])(n2nc(-c3c([H])c([H])c(Oc4c([H])c([H])c(F)c([H])c4F)c([H])c3[H])c(C(=O)N([H])[H])c2N([H])[H])C1([H])[H]

>  <smiles>  (75) 
[H]C([H])=C([H])C(=O)C([H])([H])N(C(=O)c1c([H])c([H])c(N2C([H])([H])C([H])([H])C(=C([H])Oc3c([H])c([H])c4c(c3[H])C([H])([H])N(C(=O)C([H])(N([H])C(=O)C([H])(N([H])C([H])([H])[H])C([H])([H])[H])C(C([H])([H])[H])(C([H])([H])[H])C([H])([H])[H])C([H])(C(=O)N([H])C3([H])c5c([H])c([H])c([H])c([H])c5C([H])([H])C([H])([H])C3([H])[H])C4([H])[H])C([H])([H])C2([H])[H])c(F)c1[H])C(=O)N1C([H])([H])C([H])([H])C([H])([H])C([H])(n2nc(-c3c([H])c([H])c(Oc4c([H])c([H])c(F)c([H])c4F)c([H])c3[H])c(C(=O)N([H])[H])c2N([H])[H])C1([H])[H]

$$$$
76:0:0
     RDKit          3D

 93101  0  0  1  0  0  0  0  0999 V2000
  -30.2130  -21.7350   20.6030 C   0  0  0  0  0  0  0  0  0  0  0  0
  -29.3320  -24.0610   20.4060 C   0  0  0  0  0  0  0  0  0  0  0  0
  -29.2590  -22.6780   20.2690 N   0  0  0  0  0  0  0  0  0  0  0  0
  -31.3090  -22.0670   21.0690 O   0  0  0  0  0  0  0  0  0  0  0  0
  -30.3110  -24.6320   20.9050 O   0  0  0  0  0  0  0  0  0  0  0  0
  -28.4120  -22.3150   19.8590 H   0  0  0  0  0  0  0  0  0  0  0  0
  -31.2050  -19.3810   20.2340 C   0  0  0  0  0  3  0  0  0  0  0  0
  -31.1690  -17.9520   20.2370 C   0  0  0  0  0  3  0  0  0  0  0  0
  -28.8280  -19.4870   20.5360 C   0  0  0  0  0  3  0  0  0  0  0  0
  -30.0470  -20.2030   20.3970 C   0  0  0  0  0  0  0  0  0  0  0  0
  -29.9540  -17.2420   20.4100 C   0  0  0  0  0  0  0  0  0  0  0  0
  -28.7900  -18.0540   20.5400 C   0  0  0  0  0  0  0  0  0  0  0  0
  -27.5940  -17.4350   20.6950 F   0  0  0  0  0  0  0  0  0  0  0  0
  -30.5890  -14.7180   20.0730 C   0  0  0  0  0  0  0  0  0  0  0  0
  -30.3050  -12.5060   18.9620 C   0  0  0  0  0  2  0  0  0  0  0  0
  -29.2960  -12.6740   17.8040 C   0  0  0  0  0  2  0  0  0  0  0  0
  -27.8470  -12.5120   18.3080 C   0  0  0  0  0  2  0  0  0  0  0  0
  -27.5660  -13.3410   19.5900 C   0  0  0  0  0  3  0  0  0  0  0  0
  -28.6830  -13.1470   20.6400 C   0  0  0  0  0  2  0  0  0  0  0  0
  -29.9600  -13.5000   20.0000 N   0  0  0  0  0  0  0  0  0  0  0  0
  -31.7360  -14.8630   19.6410 O   0  0  0  0  0  0  0  0  0  0  0  0
  -29.8100  -15.7780   20.4750 N   0  0  0  0  0  0  0  0  0  0  0  0
  -28.9030  -15.4890   20.8100 H   0  0  0  0  0  0  0  0  0  0  0  0
  -25.2170  -13.9390   20.4420 C   0  0  0  0  0  0  0  0  0  0  0  0
  -24.1640  -13.1650   20.8490 C   0  0  0  0  0  0  0  0  0  0  0  0
  -24.6160  -11.8130   20.7720 C   0  0  0  0  0  0  0  0  0  0  0  0
  -26.2430  -13.0570   20.1400 N   0  0  0  0  0  0  0  0  0  0  0  0
  -25.8890  -11.7720   20.3980 N   0  0  0  0  0  0  0  0  0  0  0  0
  -23.8910  -10.5510   20.9760 C   0  0  0  0  0  0  0  0  0  0  0  0
  -24.3500   -9.5750   21.8860 C   0  0  0  0  0  3  0  0  0  0  0  0
  -23.6250   -8.3780   22.0780 C   0  0  0  0  0  3  0  0  0  0  0  0
  -22.4260   -8.1510   21.3600 C   0  0  0  0  0  0  0  0  0  0  0  0
  -21.9870   -9.1170   20.4390 C   0  0  0  0  0  3  0  0  0  0  0  0
  -22.7120  -10.3040   20.2440 C   0  0  0  0  0  3  0  0  0  0  0  0
  -21.6710   -7.0090   21.4630 O   0  0  0  0  0  0  0  0  0  0  0  0
  -21.6380   -6.2690   22.6180 C   0  0  0  0  0  0  0  0  0  0  0  0
  -21.2300   -6.8260   23.8490 C   0  0  0  0  0  3  0  0  0  0  0  0
  -21.1450   -6.0120   24.9960 C   0  0  0  0  0  3  0  0  0  0  0  0
  -21.4580   -4.6420   24.9140 C   0  0  0  0  0  0  0  0  0  0  0  0
  -21.8600   -4.0850   23.6880 C   0  0  0  0  0  3  0  0  0  0  0  0
  -21.9470   -4.8950   22.5420 C   0  0  0  0  0  0  0  0  0  0  0  0
  -22.3140   -4.3480   21.3580 F   0  0  0  0  0  0  0  0  0  0  0  0
  -21.3690   -3.8580   26.0140 F   0  0  0  0  0  0  0  0  0  0  0  0
  -22.7870  -13.6460   21.2020 C   0  0  0  0  0  0  0  0  0  0  0  0
  -22.1010  -12.9410   22.0940 N   0  0  0  0  0  0  0  0  0  0  0  0
  -22.3290  -14.6830   20.7210 O   0  0  0  0  0  0  0  0  0  0  0  0
  -22.4850  -12.1030   22.5040 H   0  0  0  0  0  0  0  0  0  0  0  0
  -21.1780  -13.2450   22.3730 H   0  0  0  0  0  0  0  0  0  0  0  0
  -25.3800  -15.3120   20.2870 N   0  0  0  0  0  0  0  0  0  0  0  0
  -24.6310  -15.9660   20.4830 H   0  0  0  0  0  0  0  0  0  0  0  0
  -26.2360  -15.7730   20.0040 H   0  0  0  0  0  0  0  0  0  0  0  0
  -28.1590  -25.0130   19.9320 C   0  0  0  0  0  2  0  0  0  0  0  0
  -28.3660  -26.4780   20.1590 O   0  0  0  0  0  0  0  0  0  0  0  0
  -24.6280  -31.8680   23.2030 C   0  0  0  0  0  0  0  0  0  0  0  0
  -27.2470  -27.3310   20.1090 C   0  0  0  0  0  0  0  0  0  0  0  0
  -23.4260  -30.4810   21.5540 C   0  0  0  0  0  3  0  0  0  0  0  0
  -24.8780  -28.9450   20.1130 C   0  0  0  0  0  0  0  0  0  0  0  0
  -25.9660  -30.8040   21.3700 C   0  0  0  0  0  2  0  0  0  0  0  0
  -26.0480  -29.4300   20.7120 C   0  0  0  0  0  0  0  0  0  0  0  0
  -27.2350  -28.6350   20.6990 C   0  0  0  0  0  3  0  0  0  0  0  0
  -26.0520  -26.9040   19.4830 C   0  0  0  0  0  3  0  0  0  0  0  0
  -24.8830  -27.6890   19.4890 C   0  0  0  0  0  3  0  0  0  0  0  0
  -23.6390  -29.8170   20.1690 C   0  0  0  0  0  2  0  0  0  0  0  0
  -24.6920  -31.0680   22.0990 N   0  0  0  0  0  0  0  0  0  0  0  0
  -23.5450  -32.1400   23.7410 O   0  0  0  0  0  0  0  0  0  0  0  0
  -22.7650  -29.4550   22.5070 C   0  0  0  0  0  0  0  0  0  0  0  0
  -21.4370  -29.2860   22.3890 N   0  0  0  0  0  0  0  0  0  0  0  0
  -23.4480  -28.8160   23.3120 O   0  0  0  0  0  0  0  0  0  0  0  0
  -20.9460  -29.8540   21.7120 H   0  0  0  0  0  0  0  0  0  0  0  0
  -18.0560  -28.1140   22.9130 C   0  0  0  0  0  0  0  0  0  0  0  0
  -20.6200  -28.3440   23.1550 C   0  0  0  0  0  3  0  0  0  0  0  0
  -20.7010  -26.9210   22.5550 C   0  0  0  0  0  2  0  0  0  0  0  0
  -19.5820  -26.6250   21.5500 C   0  0  0  0  0  2  0  0  0  0  0  0
  -18.2100  -26.7740   22.2140 C   0  0  0  0  0  2  0  0  0  0  0  0
  -19.1870  -28.8580   23.3410 C   0  0  0  0  0  0  0  0  0  0  0  0
  -18.9870  -30.1130   23.9560 C   0  0  0  0  0  3  0  0  0  0  0  0
  -17.6900  -30.6240   24.1460 C   0  0  0  0  0  3  0  0  0  0  0  0
  -16.5730  -29.8760   23.7340 C   0  0  0  0  0  3  0  0  0  0  0  0
  -16.7560  -28.6220   23.1230 C   0  0  0  0  0  3  0  0  0  0  0  0
  -25.9110  -32.4980   23.8300 C   0  0  0  0  0  3  0  0  0  0  0  0
  -25.5990  -33.8940   24.1690 N   0  0  0  0  0  0  0  0  0  0  0  0
  -25.9180  -34.9520   23.4120 C   0  0  0  0  0  0  0  0  0  0  0  0
  -26.5750  -34.8570   22.3730 O   0  0  0  0  0  0  0  0  0  0  0  0
  -25.0130  -34.0420   24.9780 H   0  0  0  0  0  0  0  0  0  0  0  0
  -24.1740  -36.7370   23.0950 C   0  0  0  0  0  1  0  0  0  0  0  0
  -25.4320  -36.3370   23.8830 C   0  0  0  0  0  3  0  0  0  0  0  0
  -27.5730  -37.2340   24.6810 C   0  0  0  0  0  1  0  0  0  0  0  0
  -26.4560  -37.3950   23.7540 N   0  0  0  0  0  0  0  0  0  0  0  0
  -26.0470  -38.3140   23.9070 H   0  0  0  0  0  0  0  0  0  0  0  0
  -26.4280  -31.7200   25.1010 C   0  0  1  0  0  0  0  0  0  0  0  0
  -25.3340  -31.4730   26.1670 C   0  0  0  0  0  1  0  0  0  0  0  0
  -27.0130  -30.3460   24.7020 C   0  0  0  0  0  1  0  0  0  0  0  0
  -27.5750  -32.5130   25.7700 C   0  0  0  0  0  1  0  0  0  0  0  0
  1  4  2  0
  2  5  2  0
  3  2  1  0
  3  1  1  0
  6  3  1  0
  7  8  2  0
  7 10  1  0
  8 11  1  0
  9 12  1  0
 10  9  2  0
 10  1  1  0
 11 22  1  0
 11 12  2  0
 12 13  1  0
 14 22  1  0
 15 20  1  0
 16 17  1  0
 16 15  1  0
 18 17  1  0
 18 27  1  0
 18 19  1  0
 20 14  1  0
 20 19  1  0
 21 14  2  0
 22 23  1  0
 24 25  2  0
 25 44  1  0
 26 25  1  0
 26 29  1  0
 27 28  1  0
 27 24  1  0
 28 26  2  0
 29 30  1  0
 30 31  2  0
 32 35  1  0
 32 31  1  0
 33 32  2  0
 34 33  1  0
 34 29  2  0
 35 36  1  0
 36 37  1  0
 37 38  2  0
 39 38  1  0
 39 43  1  0
 40 39  2  0
 41 36  2  0
 41 40  1  0
 42 41  1  0
 44 45  1  0
 45 48  1  0
 45 47  1  0
 46 44  2  0
 49 24  1  0
 49 50  1  0
 51 49  1  0
 52 53  1  0
 52  2  1  0
 54 65  2  0
 55 53  1  0
 55 60  1  0
 56 64  1  0
 56 66  1  0
 57 63  1  0
 57 59  1  0
 58 64  1  0
 59 58  1  0
 60 59  2  0
 61 62  1  0
 61 55  2  0
 62 57  2  0
 63 56  1  0
 64 54  1  0
 66 68  2  0
 67 66  1  0
 69 67  1  0
 70 79  2  0
 70 75  1  0
 71 67  1  0
 71 75  1  0
 72 71  1  0
 73 74  1  0
 73 72  1  0
 74 70  1  0
 75 76  2  0
 76 77  1  0
 78 77  2  0
 79 78  1  0
 80 54  1  0
 80 81  1  0
 80 90  1  0
 81 84  1  0
 82 86  1  0
 82 81  1  0
 83 82  2  0
 86 85  1  0
 88 86  1  0
 88 89  1  0
 88 87  1  0
 90 93  1  1
 90 91  1  0
 92 90  1  0
M  ISO  4  14 100  22 100  52 101  53 101
M  END
>  <TORSDO>  (76) 
F 18

>  <SCORE>  (76) 
-14.869

>  <name>  (76) 
76

>  <ligand_id>  (76) 
76

>  <original_smiles>  (76) 
[H]c1c([H])c([H])c2c(c1[H])C([H])([H])C([H])([H])C([H])([H])C2([H])N([H])C(=O)C1([H])N(C(=O)C([H])(N([H])C(=O)C([H])(N([H])C([H])([H])[H])C([H])([H])[H])C(C([H])([H])[H])(C([H])([H])[H])C([H])([H])[H])C([H])([H])c2c([H])c(OC([H])([H])C(=O)N([H])C(=O)c3c([H])c([H])c(N([H])C(=O)N4C([H])([H])C([H])([H])C([H])([H])C([H])(n5nc(-c6c([H])c([H])c(Oc7c([H])c([H])c(F)c([H])c7F)c([H])c6[H])c(C(=O)N([H])[H])c5N([H])[H])C4([H])[H])c(F)c3[H])c([H])c([H])c2C1([H])[H]

>  <smiles>  (76) 
[H]c1c([H])c([H])c2c(c1[H])C([H])([H])C([H])([H])C([H])([H])C2([H])N([H])C(=O)C1([H])N(C(=O)C([H])(N([H])C(=O)C([H])(N([H])C([H])([H])[H])C([H])([H])[H])C(C([H])([H])[H])(C([H])([H])[H])C([H])([H])[H])C([H])([H])c2c([H])c(OC([H])([H])C(=O)N([H])C(=O)c3c([H])c([H])c(N([H])C(=O)N4C([H])([H])C([H])([H])C([H])([H])C([H])(n5nc(-c6c([H])c([H])c(Oc7c([H])c([H])c(F)c([H])c7F)c([H])c6[H])c(C(=O)N([H])[H])c5N([H])[H])C4([H])[H])c(F)c3[H])c([H])c([H])c2C1([H])[H]

$$$$
77:0:0
     RDKit          3D

 95103  0  0  1  0  0  0  0  0999 V2000
  -30.3920  -19.2510   22.0810 C   0  0  0  0  0  3  0  0  0  0  0  0
  -29.7770  -20.5230   22.1110 C   0  0  0  0  0  3  0  0  0  0  0  0
  -30.1280  -18.3220   21.0430 C   0  0  0  0  0  0  0  0  0  0  0  0
  -28.6420  -20.0300   20.0300 C   0  0  0  0  0  0  0  0  0  0  0  0
  -28.8990  -20.9510   21.0910 C   0  0  0  0  0  0  0  0  0  0  0  0
  -29.2600  -18.7460   20.0080 C   0  0  0  0  0  0  0  0  0  0  0  0
  -29.0160  -17.9230   18.9560 F   0  0  0  0  0  0  0  0  0  0  0  0
  -30.8870  -14.7450   20.0680 C   0  0  0  0  0  0  0  0  0  0  0  0
  -30.4570  -12.5650   18.9440 C   0  0  0  0  0  2  0  0  0  0  0  0
  -29.4380  -12.6910   17.7950 C   0  0  0  0  0  2  0  0  0  0  0  0
  -28.0020  -12.5500   18.3380 C   0  0  0  0  0  2  0  0  0  0  0  0
  -27.7410  -13.4270   19.5910 C   0  0  0  0  0  3  0  0  0  0  0  0
  -28.8770  -13.3160   20.6300 C   0  0  0  0  0  2  0  0  0  0  0  0
  -30.1400  -13.6080   19.9400 N   0  0  0  0  0  0  0  0  0  0  0  0
  -32.0250  -14.8000   19.5920 O   0  0  0  0  0  0  0  0  0  0  0  0
  -30.8790  -16.9930   21.0030 C   0  0  0  0  0  0  0  0  0  0  0  0
  -30.2670  -15.8630   20.5460 N   0  0  0  0  0  0  0  0  0  0  0  0
  -32.0220  -16.9790   21.4730 O   0  0  0  0  0  0  0  0  0  0  0  0
  -29.2630  -15.8890   20.4760 H   0  0  0  0  0  0  0  0  0  0  0  0
  -25.4380  -14.0340   20.5500 C   0  0  0  0  0  0  0  0  0  0  0  0
  -24.3900  -13.2650   20.9720 C   0  0  0  0  0  0  0  0  0  0  0  0
  -24.8120  -11.9070   20.8320 C   0  0  0  0  0  0  0  0  0  0  0  0
  -26.4360  -13.1460   20.1840 N   0  0  0  0  0  0  0  0  0  0  0  0
  -26.0700  -11.8560   20.4130 N   0  0  0  0  0  0  0  0  0  0  0  0
  -24.0730  -10.6510   21.0180 C   0  0  0  0  0  0  0  0  0  0  0  0
  -24.5110   -9.6630   21.9280 C   0  0  0  0  0  3  0  0  0  0  0  0
  -23.7720   -8.4730   22.1020 C   0  0  0  0  0  3  0  0  0  0  0  0
  -22.5820   -8.2610   21.3660 C   0  0  0  0  0  0  0  0  0  0  0  0
  -22.1650   -9.2370   20.4420 C   0  0  0  0  0  3  0  0  0  0  0  0
  -22.9040  -10.4190   20.2680 C   0  0  0  0  0  3  0  0  0  0  0  0
  -21.8140   -7.1250   21.4500 O   0  0  0  0  0  0  0  0  0  0  0  0
  -21.7310   -6.3960   22.6110 C   0  0  0  0  0  0  0  0  0  0  0  0
  -21.2170   -6.9490   23.8040 C   0  0  0  0  0  3  0  0  0  0  0  0
  -21.0910   -6.1450   24.9540 C   0  0  0  0  0  3  0  0  0  0  0  0
  -21.4600   -4.7870   24.9100 C   0  0  0  0  0  0  0  0  0  0  0  0
  -21.9630   -4.2340   23.7210 C   0  0  0  0  0  3  0  0  0  0  0  0
  -22.0950   -5.0350   22.5740 C   0  0  0  0  0  0  0  0  0  0  0  0
  -22.5620   -4.4900   21.4230 F   0  0  0  0  0  0  0  0  0  0  0  0
  -21.3300   -4.0130   26.0130 F   0  0  0  0  0  0  0  0  0  0  0  0
  -23.0320  -13.7520   21.3900 C   0  0  0  0  0  0  0  0  0  0  0  0
  -22.3640  -13.0210   22.2730 N   0  0  0  0  0  0  0  0  0  0  0  0
  -22.5740  -14.8110   20.9600 O   0  0  0  0  0  0  0  0  0  0  0  0
  -22.7490  -12.1650   22.6420 H   0  0  0  0  0  0  0  0  0  0  0  0
  -21.4530  -13.3210   22.5900 H   0  0  0  0  0  0  0  0  0  0  0  0
  -25.6230  -15.4090   20.4200 N   0  0  0  0  0  0  0  0  0  0  0  0
  -24.8790  -16.0740   20.6080 H   0  0  0  0  0  0  0  0  0  0  0  0
  -26.4350  -15.8450   19.9990 H   0  0  0  0  0  0  0  0  0  0  0  0
  -27.7620  -20.3240   18.9870 N   0  0  0  0  0  0  0  0  0  0  0  0
  -27.6390  -21.2910   18.7170 H   0  0  0  0  0  0  0  0  0  0  0  0
  -27.7750  -19.6830   18.2010 H   0  0  0  0  0  0  0  0  0  0  0  0
  -28.3620  -22.2250   21.2730 O   0  0  0  0  0  0  0  0  0  0  0  0
  -27.9030  -23.0410   20.1840 C   0  0  0  0  0  2  0  0  0  0  0  0
  -27.8100  -24.5360   20.6170 C   0  0  0  0  0  2  0  0  0  0  0  0
  -28.6270  -25.5290   19.7360 C   0  0  0  0  0  2  0  0  0  0  0  0
  -28.6020  -26.9110   20.1520 O   0  0  0  0  0  0  0  0  0  0  0  0
  -24.6500  -31.9010   23.3250 C   0  0  0  0  0  0  0  0  0  0  0  0
  -27.4240  -27.6340   20.1050 C   0  0  0  0  0  0  0  0  0  0  0  0
  -23.5040  -30.5590   21.5950 C   0  0  0  0  0  3  0  0  0  0  0  0
  -25.0100  -29.1170   20.1280 C   0  0  0  0  0  0  0  0  0  0  0  0
  -26.0260  -30.9670   21.4650 C   0  0  0  0  0  2  0  0  0  0  0  0
  -26.1460  -29.6260   20.7680 C   0  0  0  0  0  0  0  0  0  0  0  0
  -27.3540  -28.8890   20.7560 C   0  0  0  0  0  3  0  0  0  0  0  0
  -26.2720  -27.1610   19.4310 C   0  0  0  0  0  3  0  0  0  0  0  0
  -25.0690  -27.8880   19.4530 C   0  0  0  0  0  3  0  0  0  0  0  0
  -23.7540  -29.9550   20.1880 C   0  0  0  0  0  2  0  0  0  0  0  0
  -24.7450  -31.1570   22.1860 N   0  0  0  0  0  0  0  0  0  0  0  0
  -23.5550  -32.1270   23.8560 O   0  0  0  0  0  0  0  0  0  0  0  0
  -22.8500  -29.4810   22.4920 C   0  0  0  0  0  0  0  0  0  0  0  0
  -21.5300  -29.2860   22.3320 N   0  0  0  0  0  0  0  0  0  0  0  0
  -23.5290  -28.8280   23.2880 O   0  0  0  0  0  0  0  0  0  0  0  0
  -21.0430  -29.8730   21.6700 H   0  0  0  0  0  0  0  0  0  0  0  0
  -18.1620  -28.0390   22.7310 C   0  0  0  0  0  0  0  0  0  0  0  0
  -20.7160  -28.3000   23.0400 C   0  0  0  0  0  3  0  0  0  0  0  0
  -20.8340  -26.9040   22.3870 C   0  0  0  0  0  2  0  0  0  0  0  0
  -19.7440  -26.6300   21.3460 C   0  0  0  0  0  2  0  0  0  0  0  0
  -18.3550  -26.7290   21.9840 C   0  0  0  0  0  2  0  0  0  0  0  0
  -19.2720  -28.7830   23.2140 C   0  0  0  0  0  0  0  0  0  0  0  0
  -19.0390  -30.0100   23.8700 C   0  0  0  0  0  3  0  0  0  0  0  0
  -17.7310  -30.4960   24.0500 C   0  0  0  0  0  3  0  0  0  0  0  0
  -16.6350  -29.7490   23.5830 C   0  0  0  0  0  3  0  0  0  0  0  0
  -16.8510  -28.5220   22.9290 C   0  0  0  0  0  3  0  0  0  0  0  0
  -25.9110  -32.5260   23.9990 C   0  0  0  0  0  3  0  0  0  0  0  0
  -25.5900  -33.9240   24.3240 N   0  0  0  0  0  0  0  0  0  0  0  0
  -25.9500  -34.9800   23.5830 C   0  0  0  0  0  0  0  0  0  0  0  0
  -26.6580  -34.8830   22.5780 O   0  0  0  0  0  0  0  0  0  0  0  0
  -24.9700  -34.0730   25.1060 H   0  0  0  0  0  0  0  0  0  0  0  0
  -24.2450  -36.7820   23.1630 C   0  0  0  0  0  1  0  0  0  0  0  0
  -25.4430  -36.3660   24.0300 C   0  0  0  0  0  3  0  0  0  0  0  0
  -27.5340  -37.2420   24.9760 C   0  0  0  0  0  1  0  0  0  0  0  0
  -26.4800  -37.4190   23.9800 N   0  0  0  0  0  0  0  0  0  0  0  0
  -26.0650  -38.3370   24.1140 H   0  0  0  0  0  0  0  0  0  0  0  0
  -26.3760  -31.7440   25.2880 C   0  0  1  0  0  0  0  0  0  0  0  0
  -25.2430  -31.4780   26.3040 C   0  0  0  0  0  1  0  0  0  0  0  0
  -26.9920  -30.3780   24.9020 C   0  0  0  0  0  1  0  0  0  0  0  0
  -27.4820  -32.5440   26.0150 C   0  0  0  0  0  1  0  0  0  0  0  0
  1  2  1  0
  3  1  2  0
  4  5  1  0
  5 51  1  0
  5  2  2  0
  6  4  2  0
  6  3  1  0
  7  6  1  0
  8 17  1  0
  9 14  1  0
 10 11  1  0
 10  9  1  0
 12 11  1  0
 12 23  1  0
 12 13  1  0
 14  8  1  0
 14 13  1  0
 15  8  2  0
 16  3  1  0
 16 18  2  0
 17 16  1  0
 19 17  1  0
 20 21  2  0
 21 40  1  0
 22 21  1  0
 22 25  1  0
 23 24  1  0
 23 20  1  0
 24 22  2  0
 25 26  1  0
 26 27  2  0
 28 31  1  0
 28 27  1  0
 29 28  2  0
 30 29  1  0
 30 25  2  0
 31 32  1  0
 32 33  1  0
 33 34  2  0
 35 34  1  0
 35 39  1  0
 36 35  2  0
 37 32  2  0
 37 36  1  0
 38 37  1  0
 40 41  1  0
 41 44  1  0
 41 43  1  0
 42 40  2  0
 45 20  1  0
 45 46  1  0
 47 45  1  0
 48  4  1  0
 49 48  1  0
 50 48  1  0
 52 53  1  0
 52 51  1  0
 54 55  1  0
 54 53  1  0
 56 67  2  0
 57 55  1  0
 57 62  1  0
 58 66  1  0
 58 68  1  0
 59 65  1  0
 59 61  1  0
 60 66  1  0
 61 60  1  0
 62 61  2  0
 63 64  1  0
 63 57  2  0
 64 59  2  0
 65 58  1  0
 66 56  1  0
 68 70  2  0
 69 68  1  0
 71 69  1  0
 72 81  2  0
 72 77  1  0
 73 69  1  0
 73 77  1  0
 74 73  1  0
 75 76  1  0
 75 74  1  0
 76 72  1  0
 77 78  2  0
 78 79  1  0
 80 79  2  0
 81 80  1  0
 82 56  1  0
 82 83  1  0
 82 92  1  0
 83 86  1  0
 84 88  1  0
 84 83  1  0
 85 84  2  0
 88 87  1  0
 90 88  1  0
 90 91  1  0
 90 89  1  0
 92 95  1  1
 92 93  1  0
 94 92  1  0
M  ISO  4   8 100  17 100  54 101  55 101
M  END
>  <TORSDO>  (77) 
F 21

>  <SCORE>  (77) 
-13.056

>  <name>  (77) 
77

>  <ligand_id>  (77) 
77

>  <original_smiles>  (77) 
[H]c1c([H])c([H])c2c(c1[H])C([H])([H])C([H])([H])C([H])([H])C2([H])N([H])C(=O)C1([H])N(C(=O)C([H])(N([H])C(=O)C([H])(N([H])C([H])([H])[H])C([H])([H])[H])C(C([H])([H])[H])(C([H])([H])[H])C([H])([H])[H])C([H])([H])c2c([H])c(OC([H])([H])C([H])([H])C([H])([H])Oc3c([H])c([H])c(C(=O)N([H])C(=O)N4C([H])([H])C([H])([H])C([H])([H])C([H])(n5nc(-c6c([H])c([H])c(Oc7c([H])c([H])c(F)c([H])c7F)c([H])c6[H])c(C(=O)N([H])[H])c5N([H])[H])C4([H])[H])c(F)c3N([H])[H])c([H])c([H])c2C1([H])[H]

>  <smiles>  (77) 
[H]c1c([H])c([H])c2c(c1[H])C([H])([H])C([H])([H])C([H])([H])C2([H])N([H])C(=O)C1([H])N(C(=O)C([H])(N([H])C(=O)C([H])(N([H])C([H])([H])[H])C([H])([H])[H])C(C([H])([H])[H])(C([H])([H])[H])C([H])([H])[H])C([H])([H])c2c([H])c(OC([H])([H])C([H])([H])C([H])([H])Oc3c([H])c([H])c(C(=O)N([H])C(=O)N4C([H])([H])C([H])([H])C([H])([H])C([H])(n5nc(-c6c([H])c([H])c(Oc7c([H])c([H])c(F)c([H])c7F)c([H])c6[H])c(C(=O)N([H])[H])c5N([H])[H])C4([H])[H])c(F)c3N([H])[H])c([H])c([H])c2C1([H])[H]

$$$$
78:0:0
     RDKit          3D

 95103  0  0  1  0  0  0  0  0999 V2000
  -28.6940  -19.3950   20.0250 C   0  0  0  0  0  3  0  0  0  0  0  0
  -28.7860  -17.9910   19.8120 C   0  0  0  0  0  3  0  0  0  0  0  0
  -29.5820  -20.0650   20.8960 C   0  0  0  0  0  0  0  0  0  0  0  0
  -29.7730  -17.1670   20.4340 C   0  0  0  0  0  0  0  0  0  0  0  0
  -30.5090  -19.2400   21.5990 C   0  0  0  0  0  0  0  0  0  0  0  0
  -30.6030  -17.8230   21.3860 C   0  0  0  0  0  0  0  0  0  0  0  0
  -31.5320  -17.1220   22.0800 F   0  0  0  0  0  0  0  0  0  0  0  0
  -30.6530  -14.7330   20.5020 C   0  0  0  0  0  0  0  0  0  0  0  0
  -30.4570  -12.4290   19.5910 C   0  0  0  0  0  2  0  0  0  0  0  0
  -29.5540  -12.4070   18.3360 C   0  0  0  0  0  2  0  0  0  0  0  0
  -28.0630  -12.3330   18.7170 C   0  0  0  0  0  2  0  0  0  0  0  0
  -27.6560  -13.2690   19.8880 C   0  0  0  0  0  3  0  0  0  0  0  0
  -28.6820  -13.2320   21.0410 C   0  0  0  0  0  2  0  0  0  0  0  0
  -29.9990  -13.5270   20.4640 N   0  0  0  0  0  0  0  0  0  0  0  0
  -31.8840  -14.7710   20.4230 O   0  0  0  0  0  0  0  0  0  0  0  0
  -29.9640  -15.7520   18.4620 C   0  0  0  0  0  1  0  0  0  0  0  0
  -29.9520  -15.7890   19.9420 N   0  0  0  0  0  0  0  0  0  0  0  0
  -25.2430  -13.8770   20.5180 C   0  0  0  0  0  0  0  0  0  0  0  0
  -24.1630  -13.1080   20.8550 C   0  0  0  0  0  0  0  0  0  0  0  0
  -24.6290  -11.7580   20.8710 C   0  0  0  0  0  0  0  0  0  0  0  0
  -26.2970  -12.9960   20.3430 N   0  0  0  0  0  0  0  0  0  0  0  0
  -25.9320  -11.7180   20.6220 N   0  0  0  0  0  0  0  0  0  0  0  0
  -23.8990  -10.4960   21.0510 C   0  0  0  0  0  0  0  0  0  0  0  0
  -24.3040   -9.5390   22.0070 C   0  0  0  0  0  3  0  0  0  0  0  0
  -23.5740   -8.3430   22.1760 C   0  0  0  0  0  3  0  0  0  0  0  0
  -22.4260   -8.0950   21.3860 C   0  0  0  0  0  0  0  0  0  0  0  0
  -22.0420   -9.0390   20.4190 C   0  0  0  0  0  3  0  0  0  0  0  0
  -22.7710  -10.2280   20.2490 C   0  0  0  0  0  3  0  0  0  0  0  0
  -21.6700   -6.9500   21.4630 O   0  0  0  0  0  0  0  0  0  0  0  0
  -21.5900   -6.2160   22.6200 C   0  0  0  0  0  0  0  0  0  0  0  0
  -21.1280   -6.7810   23.8290 C   0  0  0  0  0  3  0  0  0  0  0  0
  -20.9950   -5.9750   24.9770 C   0  0  0  0  0  3  0  0  0  0  0  0
  -21.3140   -4.6060   24.9170 C   0  0  0  0  0  0  0  0  0  0  0  0
  -21.7690   -4.0410   23.7130 C   0  0  0  0  0  3  0  0  0  0  0  0
  -21.9040   -4.8430   22.5660 C   0  0  0  0  0  0  0  0  0  0  0  0
  -22.3220   -4.2900   21.4030 F   0  0  0  0  0  0  0  0  0  0  0  0
  -21.1790   -3.8280   26.0170 F   0  0  0  0  0  0  0  0  0  0  0  0
  -22.7540  -13.5850   21.0570 C   0  0  0  0  0  0  0  0  0  0  0  0
  -21.9900  -12.9010   21.9010 N   0  0  0  0  0  0  0  0  0  0  0  0
  -22.3370  -14.6000   20.5010 O   0  0  0  0  0  0  0  0  0  0  0  0
  -22.3400  -12.0790   22.3730 H   0  0  0  0  0  0  0  0  0  0  0  0
  -21.0430  -13.2020   22.0800 H   0  0  0  0  0  0  0  0  0  0  0  0
  -25.4130  -15.2450   20.3220 N   0  0  0  0  0  0  0  0  0  0  0  0
  -24.6470  -15.9040   20.3960 H   0  0  0  0  0  0  0  0  0  0  0  0
  -26.2860  -15.6800   20.0510 H   0  0  0  0  0  0  0  0  0  0  0  0
  -31.3630  -19.8500   22.5240 N   0  0  0  0  0  0  0  0  0  0  0  0
  -30.9450  -20.6260   23.0220 H   0  0  0  0  0  0  0  0  0  0  0  0
  -31.8150  -19.2000   23.1580 H   0  0  0  0  0  0  0  0  0  0  0  0
  -29.5930  -21.4870   21.0890 N   0  0  0  0  0  0  0  0  0  0  0  0
  -30.4310  -21.8600   21.5300 H   0  0  0  0  0  0  0  0  0  0  0  0
  -28.7830  -22.4800   20.3150 C   0  0  0  0  0  2  0  0  0  0  0  0
  -29.0370  -24.0160   20.5980 C   0  0  0  0  0  0  0  0  0  0  0  0
  -30.0010  -24.3680   21.2880 O   0  0  0  0  0  0  0  0  0  0  0  0
  -28.0380  -25.0680   19.9890 C   0  0  0  0  0  2  0  0  0  0  0  0
  -28.2920  -26.5060   20.2430 O   0  0  0  0  0  0  0  0  0  0  0  0
  -24.5810  -31.8980   23.2510 C   0  0  0  0  0  0  0  0  0  0  0  0
  -27.1800  -27.3610   20.1720 C   0  0  0  0  0  0  0  0  0  0  0  0
  -23.3680  -30.5020   21.6170 C   0  0  0  0  0  3  0  0  0  0  0  0
  -24.8110  -28.9640   20.1750 C   0  0  0  0  0  0  0  0  0  0  0  0
  -25.9060  -30.8280   21.4170 C   0  0  0  0  0  2  0  0  0  0  0  0
  -25.9830  -29.4530   20.7680 C   0  0  0  0  0  0  0  0  0  0  0  0
  -27.1690  -28.6610   20.7600 C   0  0  0  0  0  3  0  0  0  0  0  0
  -25.9860  -26.9340   19.5380 C   0  0  0  0  0  3  0  0  0  0  0  0
  -24.8150  -27.7100   19.5500 C   0  0  0  0  0  3  0  0  0  0  0  0
  -23.5730  -29.8330   20.2340 C   0  0  0  0  0  2  0  0  0  0  0  0
  -24.6370  -31.0930   22.1520 N   0  0  0  0  0  0  0  0  0  0  0  0
  -23.5020  -32.1740   23.7930 O   0  0  0  0  0  0  0  0  0  0  0  0
  -22.7160  -29.4800   22.5790 C   0  0  0  0  0  0  0  0  0  0  0  0
  -21.3910  -29.2940   22.4540 N   0  0  0  0  0  0  0  0  0  0  0  0
  -23.4000  -28.8590   23.3960 O   0  0  0  0  0  0  0  0  0  0  0  0
  -20.8980  -29.8480   21.7680 H   0  0  0  0  0  0  0  0  0  0  0  0
  -18.0220  -28.0760   22.9550 C   0  0  0  0  0  0  0  0  0  0  0  0
  -20.5780  -28.3550   23.2280 C   0  0  0  0  0  3  0  0  0  0  0  0
  -20.6910  -26.9210   22.6600 C   0  0  0  0  0  2  0  0  0  0  0  0
  -19.5920  -26.5850   21.6460 C   0  0  0  0  0  2  0  0  0  0  0  0
  -18.2090  -26.7250   22.2880 C   0  0  0  0  0  2  0  0  0  0  0  0
  -19.1350  -28.8480   23.3830 C   0  0  0  0  0  0  0  0  0  0  0  0
  -18.9050  -30.1130   23.9680 C   0  0  0  0  0  3  0  0  0  0  0  0
  -17.5970  -30.6060   24.1290 C   0  0  0  0  0  3  0  0  0  0  0  0
  -16.4990  -29.8310   23.7170 C   0  0  0  0  0  3  0  0  0  0  0  0
  -16.7120  -28.5680   23.1360 C   0  0  0  0  0  3  0  0  0  0  0  0
  -25.8690  -32.5320   23.8640 C   0  0  0  0  0  3  0  0  0  0  0  0
  -25.5620  -33.9320   24.1900 N   0  0  0  0  0  0  0  0  0  0  0  0
  -25.8990  -34.9820   23.4290 C   0  0  0  0  0  0  0  0  0  0  0  0
  -26.5700  -34.8740   22.3990 O   0  0  0  0  0  0  0  0  0  0  0  0
  -24.9670  -34.0900   24.9900 H   0  0  0  0  0  0  0  0  0  0  0  0
  -24.1850  -36.7850   23.0580 C   0  0  0  0  0  1  0  0  0  0  0  0
  -25.4140  -36.3720   23.8820 C   0  0  0  0  0  3  0  0  0  0  0  0
  -27.5430  -37.2460   24.7390 C   0  0  0  0  0  1  0  0  0  0  0  0
  -26.4540  -37.4190   23.7820 N   0  0  0  0  0  0  0  0  0  0  0  0
  -26.0520  -38.3420   23.9230 H   0  0  0  0  0  0  0  0  0  0  0  0
  -26.3890  -31.7640   25.1410 C   0  0  1  0  0  0  0  0  0  0  0  0
  -25.3000  -31.5330   26.2150 C   0  0  0  0  0  1  0  0  0  0  0  0
  -26.9680  -30.3840   24.7530 C   0  0  0  0  0  1  0  0  0  0  0  0
  -27.5430  -32.5600   25.7950 C   0  0  0  0  0  1  0  0  0  0  0  0
  1  3  1  0
  2  1  2  0
  2  4  1  0
  3 49  1  0
  3  5  2  0
  4  6  2  0
  5 46  1  0
  6  5  1  0
  6  7  1  0
  9 14  1  0
 10 11  1  0
 10  9  1  0
 12 11  1  0
 12 21  1  0
 12 13  1  0
 14  8  1  0
 14 13  1  0
 15  8  2  0
 16 17  1  0
 17  4  1  0
 17  8  1  0
 18 19  2  0
 19 20  1  0
 19 38  1  0
 20 23  1  0
 21 18  1  0
 21 22  1  0
 22 20  2  0
 23 24  1  0
 24 25  2  0
 26 29  1  0
 26 25  1  0
 27 26  2  0
 28 27  1  0
 28 23  2  0
 29 30  1  0
 30 31  1  0
 31 32  2  0
 33 32  1  0
 33 37  1  0
 34 33  2  0
 35 30  2  0
 35 34  1  0
 36 35  1  0
 38 39  1  0
 39 42  1  0
 39 41  1  0
 40 38  2  0
 43 44  1  0
 43 18  1  0
 45 43  1  0
 46 47  1  0
 46 48  1  0
 49 50  1  0
 51 52  1  0
 51 49  1  0
 52 53  2  0
 54 55  1  0
 54 52  1  0
 56 67  2  0
 57 55  1  0
 57 62  1  0
 58 66  1  0
 58 68  1  0
 59 65  1  0
 59 61  1  0
 60 66  1  0
 61 60  1  0
 62 61  2  0
 63 64  1  0
 63 57  2  0
 64 59  2  0
 65 58  1  0
 66 56  1  0
 68 70  2  0
 69 68  1  0
 71 69  1  0
 72 81  2  0
 72 77  1  0
 73 69  1  0
 73 77  1  0
 74 73  1  0
 75 76  1  0
 75 74  1  0
 76 72  1  0
 77 78  2  0
 78 79  1  0
 80 79  2  0
 81 80  1  0
 82 56  1  0
 82 83  1  0
 82 92  1  0
 83 86  1  0
 84 88  1  0
 84 83  1  0
 85 84  2  0
 88 87  1  0
 90 88  1  0
 90 91  1  0
 90 89  1  0
 92 95  1  1
 92 93  1  0
 94 92  1  0
M  ISO  4   8 100  17 100  54 101  55 101
M  END
>  <TORSDO>  (78) 
F 21

>  <SCORE>  (78) 
-13.433

>  <name>  (78) 
78

>  <ligand_id>  (78) 
78

>  <original_smiles>  (78) 
[H]c1c([H])c([H])c2c(c1[H])C([H])([H])C([H])([H])C([H])([H])C2([H])N([H])C(=O)C1([H])N(C(=O)C([H])(N([H])C(=O)C([H])(N([H])C([H])([H])[H])C([H])([H])[H])C(C([H])([H])[H])(C([H])([H])[H])C([H])([H])[H])C([H])([H])c2c([H])c(OC([H])([H])C(=O)C([H])([H])N([H])c3c([H])c([H])c(N(C(=O)N4C([H])([H])C([H])([H])C([H])([H])C([H])(n5nc(-c6c([H])c([H])c(Oc7c([H])c([H])c(F)c([H])c7F)c([H])c6[H])c(C(=O)N([H])[H])c5N([H])[H])C4([H])[H])C([H])([H])[H])c(F)c3N([H])[H])c([H])c([H])c2C1([H])[H]

>  <smiles>  (78) 
[H]c1c([H])c([H])c2c(c1[H])C([H])([H])C([H])([H])C([H])([H])C2([H])N([H])C(=O)C1([H])N(C(=O)C([H])(N([H])C(=O)C([H])(N([H])C([H])([H])[H])C([H])([H])[H])C(C([H])([H])[H])(C([H])([H])[H])C([H])([H])[H])C([H])([H])c2c([H])c(OC([H])([H])C(=O)C([H])([H])N([H])c3c([H])c([H])c(N(C(=O)N4C([H])([H])C([H])([H])C([H])([H])C([H])(n5nc(-c6c([H])c([H])c(Oc7c([H])c([H])c(F)c([H])c7F)c([H])c6[H])c(C(=O)N([H])[H])c5N([H])[H])C4([H])[H])C([H])([H])[H])c(F)c3N([H])[H])c([H])c([H])c2C1([H])[H]

$$$$
79:0:0
     RDKit          3D

 92100  0  0  1  0  0  0  0  0999 V2000
  -29.9260  -18.8870   21.3970 C   0  0  0  0  0  3  0  0  0  0  0  0
  -29.6560  -20.3040   21.2190 C   0  0  0  0  0  3  0  0  0  0  0  0
  -29.6870  -18.4990   19.0890 C   0  0  0  0  0  3  0  0  0  0  0  0
  -29.9310  -17.8840   20.3570 C   0  0  0  0  0  0  0  0  0  0  0  0
  -29.3380  -20.8970   19.9570 C   0  0  0  0  0  0  0  0  0  0  0  0
  -29.4030  -19.9130   18.9050 C   0  0  0  0  0  0  0  0  0  0  0  0
  -29.8630  -16.3130   20.6970 C   0  0  0  0  0  0  0  0  0  0  0  0
  -29.1000  -16.0870   21.6800 N   0  0  0  0  0  0  0  0  0  0  0  0
  -28.6890  -16.9480   22.0200 H   0  0  0  0  0  0  0  0  0  0  0  0
  -30.6530  -15.0270   20.0040 C   0  0  0  0  0  0  0  0  0  0  0  0
  -30.4790  -12.7410   18.9250 C   0  0  0  0  0  2  0  0  0  0  0  0
  -29.4510  -12.7950   17.7660 C   0  0  0  0  0  2  0  0  0  0  0  0
  -28.0110  -12.5810   18.2760 C   0  0  0  0  0  2  0  0  0  0  0  0
  -27.7130  -13.4130   19.5490 C   0  0  0  0  0  3  0  0  0  0  0  0
  -28.8440  -13.2470   20.5830 C   0  0  0  0  0  2  0  0  0  0  0  0
  -30.0830  -13.7460   19.9540 N   0  0  0  0  0  0  0  0  0  0  0  0
  -31.7660  -15.1760   19.4830 O   0  0  0  0  0  0  0  0  0  0  0  0
  -25.3770  -13.9830   20.4430 C   0  0  0  0  0  0  0  0  0  0  0  0
  -24.3340  -13.1990   20.8540 C   0  0  0  0  0  0  0  0  0  0  0  0
  -24.7900  -11.8490   20.7530 C   0  0  0  0  0  0  0  0  0  0  0  0
  -26.4010  -13.1090   20.1130 N   0  0  0  0  0  0  0  0  0  0  0  0
  -26.0580  -11.8190   20.3590 N   0  0  0  0  0  0  0  0  0  0  0  0
  -24.0730  -10.5830   20.9520 C   0  0  0  0  0  0  0  0  0  0  0  0
  -24.5290   -9.6120   21.8710 C   0  0  0  0  0  3  0  0  0  0  0  0
  -23.8110   -8.4120   22.0580 C   0  0  0  0  0  3  0  0  0  0  0  0
  -22.6220   -8.1740   21.3280 C   0  0  0  0  0  0  0  0  0  0  0  0
  -22.1850   -9.1340   20.3990 C   0  0  0  0  0  3  0  0  0  0  0  0
  -22.9040  -10.3260   20.2090 C   0  0  0  0  0  3  0  0  0  0  0  0
  -21.8740   -7.0260   21.4260 O   0  0  0  0  0  0  0  0  0  0  0  0
  -21.8070   -6.3070   22.5930 C   0  0  0  0  0  0  0  0  0  0  0  0
  -21.3240   -6.8760   23.7910 C   0  0  0  0  0  3  0  0  0  0  0  0
  -21.2070   -6.0820   24.9490 C   0  0  0  0  0  3  0  0  0  0  0  0
  -21.5620   -4.7210   24.9110 C   0  0  0  0  0  0  0  0  0  0  0  0
  -22.0380   -4.1520   23.7160 C   0  0  0  0  0  3  0  0  0  0  0  0
  -22.1570   -4.9420   22.5600 C   0  0  0  0  0  0  0  0  0  0  0  0
  -22.5960   -4.3840   21.4060 F   0  0  0  0  0  0  0  0  0  0  0  0
  -21.4430   -3.9560   26.0210 F   0  0  0  0  0  0  0  0  0  0  0  0
  -22.9600  -13.6710   21.2330 C   0  0  0  0  0  0  0  0  0  0  0  0
  -22.2880  -12.9500   22.1230 N   0  0  0  0  0  0  0  0  0  0  0  0
  -22.4930  -14.7130   20.7760 O   0  0  0  0  0  0  0  0  0  0  0  0
  -22.6800  -12.1060   22.5150 H   0  0  0  0  0  0  0  0  0  0  0  0
  -21.3690  -13.2470   22.4200 H   0  0  0  0  0  0  0  0  0  0  0  0
  -25.5370  -15.3580   20.3020 N   0  0  0  0  0  0  0  0  0  0  0  0
  -24.7980  -16.0190   20.5190 H   0  0  0  0  0  0  0  0  0  0  0  0
  -26.4070  -15.8050   20.0430 H   0  0  0  0  0  0  0  0  0  0  0  0
  -29.1140  -20.3600   17.6170 N   0  0  0  0  0  0  0  0  0  0  0  0
  -28.6790  -19.7030   16.9790 H   0  0  0  0  0  0  0  0  0  0  0  0
  -28.6730  -21.2750   17.5940 H   0  0  0  0  0  0  0  0  0  0  0  0
  -28.9030  -23.4720   20.2850 C   0  0  0  0  0  3  0  0  0  0  0  0
  -28.8440  -22.2800   19.6740 N   0  0  0  0  0  0  0  0  0  0  0  0
  -28.0600  -24.8240   19.8320 C   0  0  0  0  0  2  0  0  0  0  0  0
  -28.3120  -26.2920   20.2520 O   0  0  0  0  0  0  0  0  0  0  0  0
  -24.6190  -31.8940   23.2620 C   0  0  0  0  0  0  0  0  0  0  0  0
  -27.2460  -27.2590   20.1770 C   0  0  0  0  0  0  0  0  0  0  0  0
  -23.4270  -30.4960   21.6190 C   0  0  0  0  0  3  0  0  0  0  0  0
  -24.8900  -28.9590   20.1730 C   0  0  0  0  0  0  0  0  0  0  0  0
  -25.9770  -30.7990   21.4440 C   0  0  0  0  0  2  0  0  0  0  0  0
  -26.0650  -29.4150   20.7830 C   0  0  0  0  0  0  0  0  0  0  0  0
  -27.2420  -28.5800   20.7750 C   0  0  0  0  0  3  0  0  0  0  0  0
  -26.0460  -26.9090   19.5140 C   0  0  0  0  0  3  0  0  0  0  0  0
  -24.8920  -27.7160   19.5240 C   0  0  0  0  0  3  0  0  0  0  0  0
  -23.6500  -29.8340   20.2330 C   0  0  0  0  0  2  0  0  0  0  0  0
  -24.6940  -31.0840   22.1630 N   0  0  0  0  0  0  0  0  0  0  0  0
  -23.5320  -32.1620   23.7960 O   0  0  0  0  0  0  0  0  0  0  0  0
  -22.7680  -29.4720   22.5750 C   0  0  0  0  0  0  0  0  0  0  0  0
  -21.4430  -29.2780   22.4460 N   0  0  0  0  0  0  0  0  0  0  0  0
  -23.4490  -28.8540   23.3970 O   0  0  0  0  0  0  0  0  0  0  0  0
  -20.9500  -29.8280   21.7570 H   0  0  0  0  0  0  0  0  0  0  0  0
  -18.0800  -28.0300   22.9480 C   0  0  0  0  0  0  0  0  0  0  0  0
  -20.6350  -28.3260   23.2140 C   0  0  0  0  0  3  0  0  0  0  0  0
  -20.7570  -26.8980   22.6330 C   0  0  0  0  0  2  0  0  0  0  0  0
  -19.6580  -26.5640   21.6190 C   0  0  0  0  0  2  0  0  0  0  0  0
  -18.2750  -26.6860   22.2640 C   0  0  0  0  0  2  0  0  0  0  0  0
  -19.1890  -28.8060   23.3790 C   0  0  0  0  0  0  0  0  0  0  0  0
  -18.9520  -30.0620   23.9800 C   0  0  0  0  0  3  0  0  0  0  0  0
  -17.6390  -30.5420   24.1510 C   0  0  0  0  0  3  0  0  0  0  0  0
  -16.5460  -29.7640   23.7350 C   0  0  0  0  0  3  0  0  0  0  0  0
  -16.7670  -28.5100   23.1400 C   0  0  0  0  0  3  0  0  0  0  0  0
  -25.8930  -32.5400   23.8850 C   0  0  0  0  0  3  0  0  0  0  0  0
  -26.4040  -31.7840   25.1740 C   0  0  1  0  0  0  0  0  0  0  0  0
  -25.3000  -31.5390   26.2300 C   0  0  0  0  0  1  0  0  0  0  0  0
  -27.0090  -30.4110   24.8030 C   0  0  0  0  0  1  0  0  0  0  0  0
  -27.5370  -32.5980   25.8440 C   0  0  0  0  0  1  0  0  0  0  0  0
  -25.5740  -33.9400   24.2050 N   0  0  0  0  0  0  0  0  0  0  0  0
  -25.8820  -34.9890   23.4310 C   0  0  0  0  0  0  0  0  0  0  0  0
  -26.5310  -34.8820   22.3880 O   0  0  0  0  0  0  0  0  0  0  0  0
  -24.9950  -34.0970   25.0170 H   0  0  0  0  0  0  0  0  0  0  0  0
  -24.1180  -36.7570   23.1150 C   0  0  0  0  0  1  0  0  0  0  0  0
  -25.3930  -36.3790   23.8870 C   0  0  0  0  0  3  0  0  0  0  0  0
  -27.5380  -37.3110   24.6360 C   0  0  0  0  0  1  0  0  0  0  0  0
  -26.4070  -37.4440   23.7220 N   0  0  0  0  0  0  0  0  0  0  0  0
  -25.9920  -38.3610   23.8610 H   0  0  0  0  0  0  0  0  0  0  0  0
  2  1  1  0
  3  4  1  0
  4  7  1  0
  4  1  2  0
  5  2  2  0
  6  3  2  0
  6  5  1  0
  7  8  2  0
  8  9  1  0
 10  7  1  0
 11 16  1  0
 12 13  1  0
 12 11  1  0
 14 13  1  0
 14 21  1  0
 14 15  1  0
 16 10  1  0
 16 15  1  0
 17 10  2  0
 18 19  2  0
 19 38  1  0
 20 19  1  0
 20 23  1  0
 21 22  1  0
 21 18  1  0
 22 20  2  0
 23 24  1  0
 24 25  2  0
 26 29  1  0
 26 25  1  0
 27 26  2  0
 28 27  1  0
 28 23  2  0
 29 30  1  0
 30 31  1  0
 31 32  2  0
 33 32  1  0
 33 37  1  0
 34 33  2  0
 35 30  2  0
 35 34  1  0
 36 35  1  0
 38 39  1  0
 39 42  1  0
 39 41  1  0
 40 38  2  0
 43 18  1  0
 43 44  1  0
 45 43  1  0
 46  6  1  0
 47 46  1  0
 48 46  1  0
 50  5  1  0
 50 49  2  0
 51 52  1  0
 51 49  1  0
 53 64  2  0
 54 52  1  0
 54 59  1  0
 55 63  1  0
 55 65  1  0
 56 62  1  0
 56 58  1  0
 57 63  1  0
 58 57  1  0
 59 58  2  0
 60 61  1  0
 60 54  2  0
 61 56  2  0
 62 55  1  0
 63 53  1  0
 65 67  2  0
 66 65  1  0
 68 66  1  0
 69 78  2  0
 69 74  1  0
 70 66  1  0
 70 74  1  0
 71 70  1  0
 72 73  1  0
 72 71  1  0
 73 69  1  0
 74 75  2  0
 75 76  1  0
 77 76  2  0
 78 77  1  0
 79 53  1  0
 79 84  1  0
 79 80  1  0
 80 83  1  1
 80 81  1  0
 82 80  1  0
 84 87  1  0
 85 89  1  0
 85 84  1  0
 86 85  2  0
 89 88  1  0
 91 92  1  0
 91 89  1  0
 91 90  1  0
M  ISO  4   7 100  10 100  51 101  52 101
M  END
>  <TORSDO>  (79) 
F 20

>  <SCORE>  (79) 
-13.492

>  <name>  (79) 
79

>  <ligand_id>  (79) 
79

>  <original_smiles>  (79) 
[H]N=C(C(=O)N1C([H])([H])C([H])([H])C([H])([H])C([H])(n2nc(-c3c([H])c([H])c(Oc4c([H])c([H])c(F)c([H])c4F)c([H])c3[H])c(C(=O)N([H])[H])c2N([H])[H])C1([H])[H])c1c([H])c([H])c(N=C([H])C([H])([H])Oc2c([H])c([H])c3c(c2[H])C([H])([H])N(C(=O)C([H])(N([H])C(=O)C([H])(N([H])C([H])([H])[H])C([H])([H])[H])C(C([H])([H])[H])(C([H])([H])[H])C([H])([H])[H])C([H])(C(=O)N([H])C2([H])c4c([H])c([H])c([H])c([H])c4C([H])([H])C([H])([H])C2([H])[H])C3([H])[H])c(N([H])[H])c1[H]

>  <smiles>  (79) 
[H]N=C(C(=O)N1C([H])([H])C([H])([H])C([H])([H])C([H])(n2nc(-c3c([H])c([H])c(Oc4c([H])c([H])c(F)c([H])c4F)c([H])c3[H])c(C(=O)N([H])[H])c2N([H])[H])C1([H])[H])c1c([H])c([H])c(N=C([H])C([H])([H])Oc2c([H])c([H])c3c(c2[H])C([H])([H])N(C(=O)C([H])(N([H])C(=O)C([H])(N([H])C([H])([H])[H])C([H])([H])[H])C(C([H])([H])[H])(C([H])([H])[H])C([H])([H])[H])C([H])(C(=O)N([H])C2([H])c4c([H])c([H])c([H])c([H])c4C([H])([H])C([H])([H])C2([H])[H])C3([H])[H])c(N([H])[H])c1[H]

$$$$
80:0:0
     RDKit          3D

 94102  0  0  1  0  0  0  0  0999 V2000
  -30.0850  -18.8620   21.3680 C   0  0  0  0  0  3  0  0  0  0  0  0
  -29.8280  -20.2850   21.2160 C   0  0  0  0  0  3  0  0  0  0  0  0
  -29.4930  -18.4720   19.1200 C   0  0  0  0  0  3  0  0  0  0  0  0
  -29.9130  -17.8620   20.3450 C   0  0  0  0  0  0  0  0  0  0  0  0
  -29.3460  -20.8700   20.0040 C   0  0  0  0  0  0  0  0  0  0  0  0
  -29.2240  -19.8910   18.9580 C   0  0  0  0  0  0  0  0  0  0  0  0
  -28.9890  -23.5650   20.3670 C   0  0  0  0  0  0  0  0  0  0  0  0
  -28.8650  -22.2950   19.7710 N   0  0  0  0  0  0  0  0  0  0  0  0
  -29.7640  -23.7370   21.3130 O   0  0  0  0  0  0  0  0  0  0  0  0
  -28.2660  -22.3350   18.9590 H   0  0  0  0  0  0  0  0  0  0  0  0
  -28.1050  -24.8440   19.8360 C   0  0  0  0  0  2  0  0  0  0  0  0
  -28.3370  -26.3070   20.2760 O   0  0  0  0  0  0  0  0  0  0  0  0
  -24.6360  -31.9150   23.2440 C   0  0  0  0  0  0  0  0  0  0  0  0
  -27.2700  -27.2670   20.1910 C   0  0  0  0  0  0  0  0  0  0  0  0
  -23.4500  -30.5170   21.5950 C   0  0  0  0  0  3  0  0  0  0  0  0
  -24.9170  -28.9690   20.1660 C   0  0  0  0  0  0  0  0  0  0  0  0
  -26.0010  -30.8110   21.4390 C   0  0  0  0  0  2  0  0  0  0  0  0
  -26.0890  -29.4270   20.7810 C   0  0  0  0  0  0  0  0  0  0  0  0
  -27.2640  -28.5890   20.7840 C   0  0  0  0  0  3  0  0  0  0  0  0
  -26.0720  -26.9130   19.5240 C   0  0  0  0  0  3  0  0  0  0  0  0
  -24.9190  -27.7240   19.5230 C   0  0  0  0  0  3  0  0  0  0  0  0
  -23.6800  -29.8500   20.2140 C   0  0  0  0  0  2  0  0  0  0  0  0
  -24.7150  -31.1020   22.1480 N   0  0  0  0  0  0  0  0  0  0  0  0
  -23.5460  -32.1890   23.7700 O   0  0  0  0  0  0  0  0  0  0  0  0
  -22.7800  -29.4980   22.5500 C   0  0  0  0  0  0  0  0  0  0  0  0
  -21.4550  -29.3130   22.4160 N   0  0  0  0  0  0  0  0  0  0  0  0
  -23.4550  -28.8770   23.3760 O   0  0  0  0  0  0  0  0  0  0  0  0
  -20.9680  -29.8670   21.7250 H   0  0  0  0  0  0  0  0  0  0  0  0
  -18.0800  -28.0940   22.9110 C   0  0  0  0  0  0  0  0  0  0  0  0
  -20.6380  -28.3670   23.1800 C   0  0  0  0  0  3  0  0  0  0  0  0
  -20.7480  -26.9390   22.5990 C   0  0  0  0  0  2  0  0  0  0  0  0
  -19.6480  -26.6150   21.5820 C   0  0  0  0  0  2  0  0  0  0  0  0
  -18.2650  -26.7500   22.2260 C   0  0  0  0  0  2  0  0  0  0  0  0
  -19.1950  -28.8600   23.3450 C   0  0  0  0  0  0  0  0  0  0  0  0
  -18.9680  -30.1160   23.9460 C   0  0  0  0  0  3  0  0  0  0  0  0
  -17.6600  -30.6080   24.1170 C   0  0  0  0  0  3  0  0  0  0  0  0
  -16.5610  -29.8390   23.6980 C   0  0  0  0  0  3  0  0  0  0  0  0
  -16.7720  -28.5840   23.1010 C   0  0  0  0  0  3  0  0  0  0  0  0
  -25.9080  -32.5580   23.8760 C   0  0  0  0  0  3  0  0  0  0  0  0
  -26.4150  -31.7950   25.1610 C   0  0  1  0  0  0  0  0  0  0  0  0
  -25.3090  -31.5520   26.2170 C   0  0  0  0  0  1  0  0  0  0  0  0
  -27.0150  -30.4200   24.7860 C   0  0  0  0  0  1  0  0  0  0  0  0
  -27.5490  -32.6020   25.8340 C   0  0  0  0  0  1  0  0  0  0  0  0
  -25.5870  -33.9550   24.2030 N   0  0  0  0  0  0  0  0  0  0  0  0
  -25.9000  -35.0100   23.4370 C   0  0  0  0  0  0  0  0  0  0  0  0
  -26.5560  -34.9090   22.3970 O   0  0  0  0  0  0  0  0  0  0  0  0
  -25.0020  -34.1080   25.0100 H   0  0  0  0  0  0  0  0  0  0  0  0
  -24.1460  -36.7860   23.1120 C   0  0  0  0  0  1  0  0  0  0  0  0
  -25.4080  -36.3970   23.8980 C   0  0  0  0  0  3  0  0  0  0  0  0
  -27.5450  -37.3150   24.6850 C   0  0  0  0  0  1  0  0  0  0  0  0
  -26.4280  -37.4600   23.7570 N   0  0  0  0  0  0  0  0  0  0  0  0
  -26.0130  -38.3780   23.9000 H   0  0  0  0  0  0  0  0  0  0  0  0
  -29.8200  -16.2960   20.6810 C   0  0  0  0  0  0  0  0  0  0  0  0
  -29.0100  -16.0820   21.6300 N   0  0  0  0  0  0  0  0  0  0  0  0
  -28.5970  -16.9510   21.9480 H   0  0  0  0  0  0  0  0  0  0  0  0
  -30.6270  -15.0100   20.0140 C   0  0  0  0  0  0  0  0  0  0  0  0
  -30.4630  -12.7250   18.9360 C   0  0  0  0  0  2  0  0  0  0  0  0
  -29.4370  -12.7800   17.7750 C   0  0  0  0  0  2  0  0  0  0  0  0
  -27.9950  -12.5670   18.2810 C   0  0  0  0  0  2  0  0  0  0  0  0
  -27.6940  -13.3980   19.5540 C   0  0  0  0  0  3  0  0  0  0  0  0
  -28.8220  -13.2290   20.5900 C   0  0  0  0  0  2  0  0  0  0  0  0
  -30.0610  -13.7280   19.9650 N   0  0  0  0  0  0  0  0  0  0  0  0
  -31.7450  -15.1610   19.5040 O   0  0  0  0  0  0  0  0  0  0  0  0
  -25.3560  -13.9700   20.4390 C   0  0  0  0  0  0  0  0  0  0  0  0
  -24.3090  -13.1870   20.8450 C   0  0  0  0  0  0  0  0  0  0  0  0
  -24.7650  -11.8370   20.7430 C   0  0  0  0  0  0  0  0  0  0  0  0
  -26.3790  -13.0960   20.1120 N   0  0  0  0  0  0  0  0  0  0  0  0
  -26.0330  -11.8050   20.3540 N   0  0  0  0  0  0  0  0  0  0  0  0
  -24.0450  -10.5710   20.9390 C   0  0  0  0  0  0  0  0  0  0  0  0
  -24.5020   -9.5950   21.8520 C   0  0  0  0  0  3  0  0  0  0  0  0
  -23.7820   -8.3950   22.0360 C   0  0  0  0  0  3  0  0  0  0  0  0
  -22.5910   -8.1630   21.3070 C   0  0  0  0  0  0  0  0  0  0  0  0
  -22.1540   -9.1280   20.3840 C   0  0  0  0  0  3  0  0  0  0  0  0
  -22.8740  -10.3200   20.1970 C   0  0  0  0  0  3  0  0  0  0  0  0
  -21.8410   -7.0160   21.4010 O   0  0  0  0  0  0  0  0  0  0  0  0
  -21.7820   -6.2890   22.5630 C   0  0  0  0  0  0  0  0  0  0  0  0
  -21.3110   -6.8490   23.7700 C   0  0  0  0  0  3  0  0  0  0  0  0
  -21.2010   -6.0470   24.9230 C   0  0  0  0  0  3  0  0  0  0  0  0
  -21.5500   -4.6850   24.8700 C   0  0  0  0  0  0  0  0  0  0  0  0
  -22.0140   -4.1230   23.6680 C   0  0  0  0  0  3  0  0  0  0  0  0
  -22.1260   -4.9220   22.5160 C   0  0  0  0  0  0  0  0  0  0  0  0
  -22.5540   -4.3710   21.3550 F   0  0  0  0  0  0  0  0  0  0  0  0
  -21.4370   -3.9110   25.9750 F   0  0  0  0  0  0  0  0  0  0  0  0
  -22.9350  -13.6600   21.2200 C   0  0  0  0  0  0  0  0  0  0  0  0
  -22.2600  -12.9400   22.1090 N   0  0  0  0  0  0  0  0  0  0  0  0
  -22.4700  -14.7030   20.7610 O   0  0  0  0  0  0  0  0  0  0  0  0
  -22.6500  -12.0950   22.5000 H   0  0  0  0  0  0  0  0  0  0  0  0
  -21.3420  -13.2390   22.4040 H   0  0  0  0  0  0  0  0  0  0  0  0
  -25.5170  -15.3460   20.3010 N   0  0  0  0  0  0  0  0  0  0  0  0
  -24.7810  -16.0070   20.5230 H   0  0  0  0  0  0  0  0  0  0  0  0
  -26.3940  -15.7900   20.0630 H   0  0  0  0  0  0  0  0  0  0  0  0
  -28.7810  -20.3350   17.7120 N   0  0  0  0  0  0  0  0  0  0  0  0
  -28.9000  -19.6940   16.9360 H   0  0  0  0  0  0  0  0  0  0  0  0
  -29.0570  -21.2740   17.4470 H   0  0  0  0  0  0  0  0  0  0  0  0
  2  1  1  0
  3  4  1  0
  4 53  1  0
  4  1  2  0
  5  2  2  0
  6  3  2  0
  6  5  1  0
  7  9  2  0
  8  5  1  0
  8  7  1  0
 10  8  1  0
 11 12  1  0
 11  7  1  0
 13 24  2  0
 14 12  1  0
 14 19  1  0
 15 23  1  0
 15 25  1  0
 16 22  1  0
 16 18  1  0
 17 23  1  0
 18 19  2  0
 18 17  1  0
 20 14  2  0
 21 20  1  0
 21 16  2  0
 22 15  1  0
 23 13  1  0
 25 27  2  0
 26 25  1  0
 28 26  1  0
 29 38  2  0
 29 34  1  0
 30 26  1  0
 30 34  1  0
 31 30  1  0
 32 33  1  0
 32 31  1  0
 33 29  1  0
 34 35  2  0
 35 36  1  0
 37 36  2  0
 38 37  1  0
 39 13  1  0
 39 44  1  0
 39 40  1  0
 40 43  1  1
 40 41  1  0
 42 40  1  0
 44 47  1  0
 45 49  1  0
 45 44  1  0
 46 45  2  0
 49 48  1  0
 51 49  1  0
 51 52  1  0
 51 50  1  0
 53 54  2  0
 54 55  1  0
 56 53  1  0
 57 62  1  0
 58 59  1  0
 58 57  1  0
 60 59  1  0
 60 67  1  0
 60 61  1  0
 62 56  1  0
 62 61  1  0
 63 56  2  0
 64 65  2  0
 65 84  1  0
 66 65  1  0
 66 69  1  0
 67 68  1  0
 67 64  1  0
 68 66  2  0
 69 70  1  0
 70 71  2  0
 72 75  1  0
 72 71  1  0
 73 72  2  0
 74 73  1  0
 74 69  2  0
 75 76  1  0
 76 77  1  0
 77 78  2  0
 79 78  1  0
 79 83  1  0
 80 79  2  0
 81 76  2  0
 81 80  1  0
 82 81  1  0
 84 85  1  0
 85 88  1  0
 85 87  1  0
 86 84  2  0
 89 64  1  0
 89 90  1  0
 91 89  1  0
 92  6  1  0
 93 92  1  0
 94 92  1  0
M  ISO  4  11 101  12 101  53 100  56 100
M  END
>  <TORSDO>  (80) 
F 20

>  <SCORE>  (80) 
-13.727

>  <name>  (80) 
80

>  <ligand_id>  (80) 
80

>  <original_smiles>  (80) 
[H]N=C(C(=O)N1C([H])([H])C([H])([H])C([H])([H])C([H])(n2nc(-c3c([H])c([H])c(Oc4c([H])c([H])c(F)c([H])c4F)c([H])c3[H])c(C(=O)N([H])[H])c2N([H])[H])C1([H])[H])c1c([H])c([H])c(N([H])C(=O)C([H])([H])Oc2c([H])c([H])c3c(c2[H])C([H])([H])N(C(=O)C([H])(N([H])C(=O)C([H])(N([H])C([H])([H])[H])C([H])([H])[H])C(C([H])([H])[H])(C([H])([H])[H])C([H])([H])[H])C([H])(C(=O)N([H])C2([H])c4c([H])c([H])c([H])c([H])c4C([H])([H])C([H])([H])C2([H])[H])C3([H])[H])c(N([H])[H])c1[H]

>  <smiles>  (80) 
[H]N=C(C(=O)N1C([H])([H])C([H])([H])C([H])([H])C([H])(n2nc(-c3c([H])c([H])c(Oc4c([H])c([H])c(F)c([H])c4F)c([H])c3[H])c(C(=O)N([H])[H])c2N([H])[H])C1([H])[H])c1c([H])c([H])c(N([H])C(=O)C([H])([H])Oc2c([H])c([H])c3c(c2[H])C([H])([H])N(C(=O)C([H])(N([H])C(=O)C([H])(N([H])C([H])([H])[H])C([H])([H])[H])C(C([H])([H])[H])(C([H])([H])[H])C([H])([H])[H])C([H])(C(=O)N([H])C2([H])c4c([H])c([H])c([H])c([H])c4C([H])([H])C([H])([H])C2([H])[H])C3([H])[H])c(N([H])[H])c1[H]

$$$$
81:0:0
     RDKit          3D

 94103  0  0  1  0  0  0  0  0999 V2000
  -29.2080  -18.8790   21.6580 C   0  0  0  0  0  3  0  0  0  0  0  0
  -28.9180  -20.2640   21.6850 C   0  0  0  0  0  3  0  0  0  0  0  0
  -30.5920  -20.6870   20.0010 C   0  0  0  0  0  3  0  0  0  0  0  0
  -30.2180  -18.3630   20.8170 C   0  0  0  0  0  0  0  0  0  0  0  0
  -29.6120  -21.2030   20.8820 C   0  0  0  0  0  0  0  0  0  0  0  0
  -30.9010  -19.2930   19.9770 C   0  0  0  0  0  0  0  0  0  0  0  0
  -31.9020  -18.8660   19.1690 F   0  0  0  0  0  0  0  0  0  0  0  0
  -31.0580  -14.8070   19.8840 C   0  0  0  0  0  0  0  0  0  0  0  0
  -30.7180  -12.5440   18.9360 C   0  0  0  0  0  2  0  0  0  0  0  0
  -29.7070  -12.6230   17.7740 C   0  0  0  0  0  2  0  0  0  0  0  0
  -28.2670  -12.4930   18.3050 C   0  0  0  0  0  2  0  0  0  0  0  0
  -27.9770  -13.4180   19.5180 C   0  0  0  0  0  3  0  0  0  0  0  0
  -29.1050  -13.3460   20.5710 C   0  0  0  0  0  2  0  0  0  0  0  0
  -30.3720  -13.6210   19.8830 N   0  0  0  0  0  0  0  0  0  0  0  0
  -32.2230  -14.8700   19.4940 O   0  0  0  0  0  0  0  0  0  0  0  0
  -30.6430  -16.8950   20.9590 C   0  0  0  0  0  0  0  0  0  0  0  0
  -29.6340  -16.4280   18.7910 C   0  0  0  0  0  1  0  0  0  0  0  0
  -30.3280  -15.9640   20.0050 N   0  0  0  0  0  0  0  0  0  0  0  0
  -31.2310  -16.5930   22.0040 O   0  0  0  0  0  0  0  0  0  0  0  0
  -25.6680  -14.0560   20.4480 C   0  0  0  0  0  0  0  0  0  0  0  0
  -24.6090  -13.2900   20.8570 C   0  0  0  0  0  0  0  0  0  0  0  0
  -25.0300  -11.9320   20.7280 C   0  0  0  0  0  0  0  0  0  0  0  0
  -26.6640  -13.1580   20.0970 N   0  0  0  0  0  0  0  0  0  0  0  0
  -26.2920  -11.8740   20.3260 N   0  0  0  0  0  0  0  0  0  0  0  0
  -24.2900  -10.6790   20.9100 C   0  0  0  0  0  0  0  0  0  0  0  0
  -24.7180   -9.6960   21.8270 C   0  0  0  0  0  3  0  0  0  0  0  0
  -23.9780   -8.5070   22.0010 C   0  0  0  0  0  3  0  0  0  0  0  0
  -22.7920   -8.2960   21.2580 C   0  0  0  0  0  0  0  0  0  0  0  0
  -22.3840   -9.2680   20.3250 C   0  0  0  0  0  3  0  0  0  0  0  0
  -23.1260  -10.4480   20.1500 C   0  0  0  0  0  3  0  0  0  0  0  0
  -22.0230   -7.1590   21.3410 O   0  0  0  0  0  0  0  0  0  0  0  0
  -21.9160   -6.4430   22.5070 C   0  0  0  0  0  0  0  0  0  0  0  0
  -21.4080   -7.0220   23.6910 C   0  0  0  0  0  3  0  0  0  0  0  0
  -21.2370   -6.2290   24.8430 C   0  0  0  0  0  3  0  0  0  0  0  0
  -21.5760   -4.8630   24.8180 C   0  0  0  0  0  0  0  0  0  0  0  0
  -22.0820   -4.2850   23.6400 C   0  0  0  0  0  3  0  0  0  0  0  0
  -22.2470   -5.0720   22.4870 C   0  0  0  0  0  0  0  0  0  0  0  0
  -22.7110   -4.5050   21.3470 F   0  0  0  0  0  0  0  0  0  0  0  0
  -21.4090   -4.1030   25.9260 F   0  0  0  0  0  0  0  0  0  0  0  0
  -23.2490  -13.7870   21.2480 C   0  0  0  0  0  0  0  0  0  0  0  0
  -22.5770  -13.0770   22.1460 N   0  0  0  0  0  0  0  0  0  0  0  0
  -22.7930  -14.8370   20.7940 O   0  0  0  0  0  0  0  0  0  0  0  0
  -22.9650  -12.2260   22.5270 H   0  0  0  0  0  0  0  0  0  0  0  0
  -21.6630  -13.3810   22.4470 H   0  0  0  0  0  0  0  0  0  0  0  0
  -25.8630  -15.4300   20.3210 N   0  0  0  0  0  0  0  0  0  0  0  0
  -25.1310  -16.1110   20.4920 H   0  0  0  0  0  0  0  0  0  0  0  0
  -26.7050  -15.8530   19.9520 H   0  0  0  0  0  0  0  0  0  0  0  0
  -29.3720  -24.9840   20.9830 C   0  0  0  0  0  0  0  0  0  0  0  0
  -28.9290  -26.2420   20.7030 C   0  0  0  0  0  3  0  0  0  0  0  0
  -29.7220  -24.5610   22.3880 C   0  0  0  0  0  2  0  0  0  0  0  0
  -29.5050  -23.7240   20.1190 C   0  0  0  0  0  2  0  0  0  0  0  0
  -29.3920  -23.0670   22.4440 C   0  0  0  0  0  2  0  0  0  0  0  0
  -29.3440  -22.5920   21.0630 N   0  0  0  0  0  0  0  0  0  0  0  0
  -28.4930  -26.7580   19.4980 O   0  0  0  0  0  0  0  0  0  0  0  0
  -24.6550  -31.6800   23.0190 C   0  0  0  0  0  0  0  0  0  0  0  0
  -27.3490  -27.5350   19.5640 C   0  0  0  0  0  0  0  0  0  0  0  0
  -23.4440  -30.3380   21.3290 C   0  0  0  0  0  3  0  0  0  0  0  0
  -24.9040  -28.9580   19.7490 C   0  0  0  0  0  0  0  0  0  0  0  0
  -25.9470  -30.8040   21.0730 C   0  0  0  0  0  2  0  0  0  0  0  0
  -26.0620  -29.4820   20.3380 C   0  0  0  0  0  0  0  0  0  0  0  0
  -27.2890  -28.7770   20.2490 C   0  0  0  0  0  3  0  0  0  0  0  0
  -26.1790  -27.0400   18.9570 C   0  0  0  0  0  3  0  0  0  0  0  0
  -24.9560  -27.7360   19.0540 C   0  0  0  0  0  3  0  0  0  0  0  0
  -23.6270  -29.7570   19.9010 C   0  0  0  0  0  2  0  0  0  0  0  0
  -24.7010  -30.9540   21.8630 N   0  0  0  0  0  0  0  0  0  0  0  0
  -23.5840  -31.8720   23.6140 O   0  0  0  0  0  0  0  0  0  0  0  0
  -22.8670  -29.2320   22.2430 C   0  0  0  0  0  0  0  0  0  0  0  0
  -21.5430  -29.0180   22.1690 N   0  0  0  0  0  0  0  0  0  0  0  0
  -23.6090  -28.5730   22.9770 O   0  0  0  0  0  0  0  0  0  0  0  0
  -21.0040  -29.6080   21.5510 H   0  0  0  0  0  0  0  0  0  0  0  0
  -18.2330  -27.6860   22.7430 C   0  0  0  0  0  0  0  0  0  0  0  0
  -20.7930  -28.0000   22.9050 C   0  0  0  0  0  3  0  0  0  0  0  0
  -20.9020  -26.6200   22.2140 C   0  0  0  0  0  2  0  0  0  0  0  0
  -19.7570  -26.3420   21.2350 C   0  0  0  0  0  2  0  0  0  0  0  0
  -18.4080  -26.3970   21.9570 C   0  0  0  0  0  2  0  0  0  0  0  0
  -19.3530  -28.4460   23.1750 C   0  0  0  0  0  0  0  0  0  0  0  0
  -19.1320  -29.6560   23.8690 C   0  0  0  0  0  3  0  0  0  0  0  0
  -17.8240  -30.1030   24.1370 C   0  0  0  0  0  3  0  0  0  0  0  0
  -16.7200  -29.3370   23.7250 C   0  0  0  0  0  3  0  0  0  0  0  0
  -16.9250  -28.1290   23.0340 C   0  0  0  0  0  3  0  0  0  0  0  0
  -25.9380  -32.3220   23.6340 C   0  0  0  0  0  3  0  0  0  0  0  0
  -25.6030  -33.6940   24.0350 N   0  0  0  0  0  0  0  0  0  0  0  0
  -25.8950  -34.7900   23.3220 C   0  0  0  0  0  0  0  0  0  0  0  0
  -26.5470  -34.7530   22.2750 O   0  0  0  0  0  0  0  0  0  0  0  0
  -25.0210  -33.7960   24.8520 H   0  0  0  0  0  0  0  0  0  0  0  0
  -24.1130  -36.5480   23.0810 C   0  0  0  0  0  1  0  0  0  0  0  0
  -25.3780  -36.1410   23.8530 C   0  0  0  0  0  3  0  0  0  0  0  0
  -27.4950  -37.0480   24.7000 C   0  0  0  0  0  1  0  0  0  0  0  0
  -26.3780  -37.2260   23.7750 N   0  0  0  0  0  0  0  0  0  0  0  0
  -25.9500  -38.1280   23.9650 H   0  0  0  0  0  0  0  0  0  0  0  0
  -26.5190  -31.5110   24.8580 C   0  0  1  0  0  0  0  0  0  0  0  0
  -25.4710  -31.2030   25.9530 C   0  0  0  0  0  1  0  0  0  0  0  0
  -27.1170  -30.1650   24.3860 C   0  0  0  0  0  1  0  0  0  0  0  0
  -27.6750  -32.3040   25.5120 C   0  0  0  0  0  1  0  0  0  0  0  0
  1  2  1  0
  3  5  1  0
  4 16  1  0
  4  1  2  0
  5 53  1  0
  5  2  2  0
  6  3  2  0
  6  4  1  0
  7  6  1  0
  8 18  1  0
  9 14  1  0
 10 11  1  0
 10  9  1  0
 12 11  1  0
 12 23  1  0
 12 13  1  0
 14  8  1  0
 14 13  1  0
 15  8  2  0
 16 19  2  0
 17 18  1  0
 18 16  1  0
 20 21  2  0
 21 40  1  0
 22 21  1  0
 22 25  1  0
 23 24  1  0
 23 20  1  0
 24 22  2  0
 25 26  1  0
 26 27  2  0
 28 31  1  0
 28 27  1  0
 29 28  2  0
 30 29  1  0
 30 25  2  0
 31 32  1  0
 32 33  1  0
 33 34  2  0
 35 34  1  0
 35 39  1  0
 36 35  2  0
 37 32  2  0
 37 36  1  0
 38 37  1  0
 40 41  1  0
 41 44  1  0
 41 43  1  0
 42 40  2  0
 45 20  1  0
 45 46  1  0
 47 45  1  0
 48 50  1  0
 49 48  2  0
 50 52  1  0
 51 48  1  0
 51 53  1  0
 53 52  1  0
 54 56  1  0
 54 49  1  0
 55 66  2  0
 56 61  1  0
 57 65  1  0
 57 67  1  0
 58 64  1  0
 58 60  1  0
 59 65  1  0
 60 59  1  0
 61 60  2  0
 62 63  1  0
 62 56  2  0
 63 58  2  0
 64 57  1  0
 65 55  1  0
 67 69  2  0
 68 67  1  0
 70 68  1  0
 71 80  2  0
 71 76  1  0
 72 68  1  0
 72 76  1  0
 73 72  1  0
 74 75  1  0
 74 73  1  0
 75 71  1  0
 76 77  2  0
 77 78  1  0
 79 78  2  0
 80 79  1  0
 81 55  1  0
 81 82  1  0
 81 91  1  0
 82 85  1  0
 83 87  1  0
 83 82  1  0
 84 83  2  0
 87 86  1  0
 89 87  1  0
 89 90  1  0
 89 88  1  0
 91 94  1  1
 91 92  1  0
 93 91  1  0
M  ISO  4   8 100  18 100  49 101  54 101
M  END
>  <TORSDO>  (81) 
F 17

>  <SCORE>  (81) 
-12.466

>  <name>  (81) 
81

>  <ligand_id>  (81) 
81

>  <original_smiles>  (81) 
[H]C(Oc1c([H])c([H])c2c(c1[H])C([H])([H])N(C(=O)C([H])(N([H])C(=O)C([H])(N([H])C([H])([H])[H])C([H])([H])[H])C(C([H])([H])[H])(C([H])([H])[H])C([H])([H])[H])C([H])(C(=O)N([H])C1([H])c3c([H])c([H])c([H])c([H])c3C([H])([H])C([H])([H])C1([H])[H])C2([H])[H])=C1C([H])([H])N(c2c([H])c([H])c(C(=O)N(C(=O)N3C([H])([H])C([H])([H])C([H])([H])C([H])(n4nc(-c5c([H])c([H])c(Oc6c([H])c([H])c(F)c([H])c6F)c([H])c5[H])c(C(=O)N([H])[H])c4N([H])[H])C3([H])[H])C([H])([H])[H])c(F)c2[H])C([H])([H])C1([H])[H]

>  <smiles>  (81) 
[H]C(Oc1c([H])c([H])c2c(c1[H])C([H])([H])N(C(=O)C([H])(N([H])C(=O)C([H])(N([H])C([H])([H])[H])C([H])([H])[H])C(C([H])([H])[H])(C([H])([H])[H])C([H])([H])[H])C([H])(C(=O)N([H])C1([H])c3c([H])c([H])c([H])c([H])c3C([H])([H])C([H])([H])C1([H])[H])C2([H])[H])=C1C([H])([H])N(c2c([H])c([H])c(C(=O)N(C(=O)N3C([H])([H])C([H])([H])C([H])([H])C([H])(n4nc(-c5c([H])c([H])c(Oc6c([H])c([H])c(F)c([H])c6F)c([H])c5[H])c(C(=O)N([H])[H])c4N([H])[H])C3([H])[H])C([H])([H])[H])c(F)c2[H])C([H])([H])C1([H])[H]

$$$$
82:0:0
     RDKit          3D

 92100  0  0  1  0  0  0  0  0999 V2000
  -30.2520  -20.2250   21.0760 C   0  0  0  0  0  3  0  0  0  0  0  0
  -29.8350  -21.6140   20.8790 C   0  0  0  0  0  2  0  0  0  0  0  0
  -28.5080  -19.4430   19.7180 C   0  0  0  0  0  3  0  0  0  0  0  0
  -29.6470  -19.0470   20.4860 C   0  0  0  0  0  0  0  0  0  0  0  0
  -28.7470  -22.0180   20.0350 C   0  0  0  0  0  0  0  0  0  0  0  0
  -28.0870  -20.8260   19.5180 C   0  0  0  0  0  0  0  0  0  0  0  0
  -30.5270  -15.0140   20.3820 C   0  0  0  0  0  0  0  0  0  0  0  0
  -30.3520  -12.6600   19.4410 C   0  0  0  0  0  2  0  0  0  0  0  0
  -29.4430  -12.6010   18.1930 C   0  0  0  0  0  2  0  0  0  0  0  0
  -27.9760  -12.3950   18.6090 C   0  0  0  0  0  2  0  0  0  0  0  0
  -27.5540  -13.3290   19.7740 C   0  0  0  0  0  3  0  0  0  0  0  0
  -28.5990  -13.3740   20.9100 C   0  0  0  0  0  2  0  0  0  0  0  0
  -29.8710  -13.7800   20.3040 N   0  0  0  0  0  0  0  0  0  0  0  0
  -31.7410  -14.9630   20.1510 O   0  0  0  0  0  0  0  0  0  0  0  0
  -30.3690  -17.5980   20.5130 C   0  0  0  0  0  0  0  0  0  0  0  0
  -29.8370  -16.2700   20.4920 N   0  0  0  0  0  0  0  0  0  0  0  0
  -31.5960  -17.7180   20.5900 O   0  0  0  0  0  0  0  0  0  0  0  0
  -28.8350  -16.2150   20.5440 H   0  0  0  0  0  0  0  0  0  0  0  0
  -25.1650  -13.9000   20.4760 C   0  0  0  0  0  0  0  0  0  0  0  0
  -24.0990  -13.1240   20.8380 C   0  0  0  0  0  0  0  0  0  0  0  0
  -24.5700  -11.7750   20.8300 C   0  0  0  0  0  0  0  0  0  0  0  0
  -26.2150  -13.0250   20.2620 N   0  0  0  0  0  0  0  0  0  0  0  0
  -25.8660  -11.7420   20.5420 N   0  0  0  0  0  0  0  0  0  0  0  0
  -23.8440  -10.5130   21.0220 C   0  0  0  0  0  0  0  0  0  0  0  0
  -24.2680   -9.5520   21.9670 C   0  0  0  0  0  3  0  0  0  0  0  0
  -23.5410   -8.3550   22.1470 C   0  0  0  0  0  3  0  0  0  0  0  0
  -22.3750   -8.1110   21.3820 C   0  0  0  0  0  0  0  0  0  0  0  0
  -21.9710   -9.0600   20.4260 C   0  0  0  0  0  3  0  0  0  0  0  0
  -22.6980  -10.2480   20.2440 C   0  0  0  0  0  3  0  0  0  0  0  0
  -21.6190   -6.9670   21.4720 O   0  0  0  0  0  0  0  0  0  0  0  0
  -21.5650   -6.2280   22.6260 C   0  0  0  0  0  0  0  0  0  0  0  0
  -21.1330   -6.7890   23.8490 C   0  0  0  0  0  3  0  0  0  0  0  0
  -21.0260   -5.9770   24.9960 C   0  0  0  0  0  3  0  0  0  0  0  0
  -21.3410   -4.6060   24.9210 C   0  0  0  0  0  0  0  0  0  0  0  0
  -21.7640   -4.0460   23.7030 C   0  0  0  0  0  3  0  0  0  0  0  0
  -21.8740   -4.8550   22.5580 C   0  0  0  0  0  0  0  0  0  0  0  0
  -22.2640   -4.3060   21.3830 F   0  0  0  0  0  0  0  0  0  0  0  0
  -21.2300   -3.8240   26.0200 F   0  0  0  0  0  0  0  0  0  0  0  0
  -22.6950  -13.5990   21.0770 C   0  0  0  0  0  0  0  0  0  0  0  0
  -21.9540  -12.9110   21.9360 N   0  0  0  0  0  0  0  0  0  0  0  0
  -22.2650  -14.6180   20.5360 O   0  0  0  0  0  0  0  0  0  0  0  0
  -22.3140  -12.0880   22.3970 H   0  0  0  0  0  0  0  0  0  0  0  0
  -21.0110  -13.2110   22.1390 H   0  0  0  0  0  0  0  0  0  0  0  0
  -25.3240  -15.2690   20.2820 N   0  0  0  0  0  0  0  0  0  0  0  0
  -24.5490  -15.9180   20.3730 H   0  0  0  0  0  0  0  0  0  0  0  0
  -26.1650  -15.7050   19.9260 H   0  0  0  0  0  0  0  0  0  0  0  0
  -26.9630  -20.9960   18.7090 N   0  0  0  0  0  0  0  0  0  0  0  0
  -26.3440  -20.2020   18.5820 H   0  0  0  0  0  0  0  0  0  0  0  0
  -26.4520  -21.8670   18.8040 H   0  0  0  0  0  0  0  0  0  0  0  0
  -28.3300  -23.4810   19.4750 C   0  0  0  0  0  0  0  0  0  0  0  0
  -28.1380  -24.9040   19.5070 C   0  0  0  0  0  3  0  0  0  0  0  0
  -28.1960  -26.1170   20.3210 O   0  0  0  0  0  0  0  0  0  0  0  0
  -24.6250  -31.8940   23.2560 C   0  0  0  0  0  0  0  0  0  0  0  0
  -27.1850  -27.1570   20.2140 C   0  0  0  0  0  0  0  0  0  0  0  0
  -23.4220  -30.5030   21.6170 C   0  0  0  0  0  3  0  0  0  0  0  0
  -24.8660  -28.9320   20.1870 C   0  0  0  0  0  0  0  0  0  0  0  0
  -25.9810  -30.7550   21.4560 C   0  0  0  0  0  2  0  0  0  0  0  0
  -26.0500  -29.3640   20.7980 C   0  0  0  0  0  0  0  0  0  0  0  0
  -27.2090  -28.4920   20.8000 C   0  0  0  0  0  3  0  0  0  0  0  0
  -25.9640  -26.8350   19.5730 C   0  0  0  0  0  3  0  0  0  0  0  0
  -24.8380  -27.6810   19.5590 C   0  0  0  0  0  3  0  0  0  0  0  0
  -23.6430  -29.8340   20.2360 C   0  0  0  0  0  2  0  0  0  0  0  0
  -24.6970  -31.0730   22.1640 N   0  0  0  0  0  0  0  0  0  0  0  0
  -23.5390  -32.1810   23.7830 O   0  0  0  0  0  0  0  0  0  0  0  0
  -22.7410  -29.4960   22.5780 C   0  0  0  0  0  0  0  0  0  0  0  0
  -21.4130  -29.3250   22.4480 N   0  0  0  0  0  0  0  0  0  0  0  0
  -23.4110  -28.8710   23.4030 O   0  0  0  0  0  0  0  0  0  0  0  0
  -20.9280  -29.8790   21.7570 H   0  0  0  0  0  0  0  0  0  0  0  0
  -18.0330  -28.1180   22.9490 C   0  0  0  0  0  0  0  0  0  0  0  0
  -20.5910  -28.3900   23.2220 C   0  0  0  0  0  3  0  0  0  0  0  0
  -20.6990  -26.9550   22.6570 C   0  0  0  0  0  2  0  0  0  0  0  0
  -19.6020  -26.6230   21.6410 C   0  0  0  0  0  2  0  0  0  0  0  0
  -18.2170  -26.7670   22.2780 C   0  0  0  0  0  2  0  0  0  0  0  0
  -19.1480  -28.8870   23.3780 C   0  0  0  0  0  0  0  0  0  0  0  0
  -18.9210  -30.1490   23.9670 C   0  0  0  0  0  3  0  0  0  0  0  0
  -17.6140  -30.6450   24.1270 C   0  0  0  0  0  3  0  0  0  0  0  0
  -16.5140  -29.8750   23.7120 C   0  0  0  0  0  3  0  0  0  0  0  0
  -16.7240  -28.6120   23.1290 C   0  0  0  0  0  3  0  0  0  0  0  0
  -25.9030  -32.5290   23.8810 C   0  0  0  0  0  3  0  0  0  0  0  0
  -25.5960  -33.9310   24.2090 N   0  0  0  0  0  0  0  0  0  0  0  0
  -25.9200  -34.9830   23.4460 C   0  0  0  0  0  0  0  0  0  0  0  0
  -26.5780  -34.8760   22.4080 O   0  0  0  0  0  0  0  0  0  0  0  0
  -25.0140  -34.0870   25.0180 H   0  0  0  0  0  0  0  0  0  0  0  0
  -24.1850  -36.7770   23.1190 C   0  0  0  0  0  1  0  0  0  0  0  0
  -25.4410  -36.3740   23.9080 C   0  0  0  0  0  3  0  0  0  0  0  0
  -27.5890  -37.2660   24.6970 C   0  0  0  0  0  1  0  0  0  0  0  0
  -26.4710  -37.4270   23.7720 N   0  0  0  0  0  0  0  0  0  0  0  0
  -26.0660  -38.3490   23.9200 H   0  0  0  0  0  0  0  0  0  0  0  0
  -26.4080  -31.7640   25.1670 C   0  0  1  0  0  0  0  0  0  0  0  0
  -25.3070  -31.5420   26.2300 C   0  0  0  0  0  1  0  0  0  0  0  0
  -26.9870  -30.3790   24.7940 C   0  0  0  0  0  1  0  0  0  0  0  0
  -27.5590  -32.5580   25.8290 C   0  0  0  0  0  1  0  0  0  0  0  0
  2  1  1  0
  3  4  1  0
  4 15  1  0
  4  1  2  0
  5  2  1  0
  6  3  2  0
  6  5  1  0
  7 16  1  0
  8 13  1  0
  9 10  1  0
  9  8  1  0
 11 10  1  0
 11 22  1  0
 11 12  1  0
 13  7  1  0
 13 12  1  0
 14  7  2  0
 15 17  2  0
 16 15  1  0
 16 18  1  0
 19 20  2  0
 20 39  1  0
 21 20  1  0
 21 24  1  0
 22 19  1  0
 22 23  1  0
 23 21  2  0
 24 25  1  0
 25 26  2  0
 27 30  1  0
 27 26  1  0
 28 27  2  0
 29 28  1  0
 29 24  2  0
 30 31  1  0
 31 32  1  0
 32 33  2  0
 34 33  1  0
 34 38  1  0
 35 34  2  0
 36 31  2  0
 36 35  1  0
 37 36  1  0
 39 40  1  0
 40 43  1  0
 40 42  1  0
 41 39  2  0
 44 45  1  0
 44 19  1  0
 46 44  1  0
 47 49  1  0
 47  6  1  0
 48 47  1  0
 50 51  2  0
 50  5  2  0
 51 52  1  0
 53 64  2  0
 54 52  1  0
 54 59  1  0
 55 63  1  0
 55 65  1  0
 56 62  1  0
 56 58  1  0
 57 63  1  0
 58 59  2  0
 58 57  1  0
 60 54  2  0
 61 60  1  0
 61 56  2  0
 62 55  1  0
 63 53  1  0
 65 67  2  0
 66 65  1  0
 68 66  1  0
 69 78  2  0
 69 74  1  0
 70 66  1  0
 70 74  1  0
 71 70  1  0
 72 73  1  0
 72 71  1  0
 73 69  1  0
 74 75  2  0
 75 76  1  0
 77 76  2  0
 78 77  1  0
 79 53  1  0
 79 80  1  0
 79 89  1  0
 80 83  1  0
 81 85  1  0
 81 80  1  0
 82 81  2  0
 85 84  1  0
 87 85  1  0
 87 88  1  0
 87 86  1  0
 89 92  1  1
 89 90  1  0
 91 89  1  0
M  ISO  4   7 100  16 100  51 101  52 101
M  END
>  <TORSDO>  (82) 
F 18

>  <SCORE>  (82) 
-15.016

>  <name>  (82) 
82

>  <ligand_id>  (82) 
82

>  <original_smiles>  (82) 
[H]C(Oc1c([H])c([H])c2c(c1[H])C([H])([H])N(C(=O)C([H])(N([H])C(=O)C([H])(N([H])C([H])([H])[H])C([H])([H])[H])C(C([H])([H])[H])(C([H])([H])[H])C([H])([H])[H])C([H])(C(=O)N([H])C1([H])c3c([H])c([H])c([H])c([H])c3C([H])([H])C([H])([H])C1([H])[H])C2([H])[H])=C([H])c1c([H])c([H])c(C(=O)N([H])C(=O)N2C([H])([H])C([H])([H])C([H])([H])C([H])(n3nc(-c4c([H])c([H])c(Oc5c([H])c([H])c(F)c([H])c5F)c([H])c4[H])c(C(=O)N([H])[H])c3N([H])[H])C2([H])[H])c([H])c1N([H])[H]

>  <smiles>  (82) 
[H]C(Oc1c([H])c([H])c2c(c1[H])C([H])([H])N(C(=O)C([H])(N([H])C(=O)C([H])(N([H])C([H])([H])[H])C([H])([H])[H])C(C([H])([H])[H])(C([H])([H])[H])C([H])([H])[H])C([H])(C(=O)N([H])C1([H])c3c([H])c([H])c([H])c([H])c3C([H])([H])C([H])([H])C1([H])[H])C2([H])[H])=C([H])c1c([H])c([H])c(C(=O)N([H])C(=O)N2C([H])([H])C([H])([H])C([H])([H])C([H])(n3nc(-c4c([H])c([H])c(Oc5c([H])c([H])c(F)c([H])c5F)c([H])c4[H])c(C(=O)N([H])[H])c3N([H])[H])C2([H])[H])c([H])c1N([H])[H]

$$$$
83:0:0
     RDKit          3D

 95104  0  0  1  0  0  0  0  0999 V2000
  -28.2770  -24.0180   18.2680 C   0  0  0  0  0  3  0  0  0  0  0  0
  -28.4450  -23.7840   19.5810 C   0  0  0  0  0  0  0  0  0  0  0  0
  -28.4750  -22.9780   17.2530 C   0  0  0  0  0  0  0  0  0  0  0  0
  -28.8830  -21.5530   17.6650 C   0  0  0  0  0  2  0  0  0  0  0  0
  -28.8480  -22.3340   20.0960 C   0  0  0  0  0  3  0  0  0  0  0  0
  -30.2430  -22.3960   20.7460 C   0  0  0  0  0  1  0  0  0  0  0  0
  -28.8220  -21.2000   19.0950 N   0  0  0  0  0  0  0  0  0  0  0  0
  -28.3310  -23.2210   16.0520 O   0  0  0  0  0  0  0  0  0  0  0  0
  -29.1920  -19.3460   20.7560 C   0  0  0  0  0  3  0  0  0  0  0  0
  -29.5680  -18.0190   21.1180 C   0  0  0  0  0  3  0  0  0  0  0  0
  -29.7270  -17.4110   18.8200 C   0  0  0  0  0  3  0  0  0  0  0  0
  -29.1250  -19.8010   19.4140 C   0  0  0  0  0  0  0  0  0  0  0  0
  -29.8610  -16.9930   20.1720 C   0  0  0  0  0  0  0  0  0  0  0  0
  -29.3860  -18.7540   18.4520 C   0  0  0  0  0  0  0  0  0  0  0  0
  -29.3280  -18.9970   17.1190 F   0  0  0  0  0  0  0  0  0  0  0  0
  -30.7760  -14.6130   19.8360 C   0  0  0  0  0  0  0  0  0  0  0  0
  -30.3970  -12.4340   18.6900 C   0  0  0  0  0  2  0  0  0  0  0  0
  -29.3390  -12.5850   17.5750 C   0  0  0  0  0  2  0  0  0  0  0  0
  -27.9140  -12.4380   18.1400 C   0  0  0  0  0  2  0  0  0  0  0  0
  -27.6910  -13.2720   19.4270 C   0  0  0  0  0  3  0  0  0  0  0  0
  -28.8430  -13.0730   20.4320 C   0  0  0  0  0  2  0  0  0  0  0  0
  -30.0950  -13.4230   19.7440 N   0  0  0  0  0  0  0  0  0  0  0  0
  -31.8460  -14.7760   19.2370 O   0  0  0  0  0  0  0  0  0  0  0  0
  -30.5590  -15.4560   22.0340 C   0  0  0  0  0  1  0  0  0  0  0  0
  -30.2450  -15.6240   20.6080 N   0  0  0  0  0  0  0  0  0  0  0  0
  -25.3830  -13.8780   20.3810 C   0  0  0  0  0  0  0  0  0  0  0  0
  -24.3410  -13.1060   20.8190 C   0  0  0  0  0  0  0  0  0  0  0  0
  -24.7780  -11.7500   20.7030 C   0  0  0  0  0  0  0  0  0  0  0  0
  -26.3880  -12.9930   20.0270 N   0  0  0  0  0  0  0  0  0  0  0  0
  -26.0350  -11.7060   20.2810 N   0  0  0  0  0  0  0  0  0  0  0  0
  -24.0510  -10.4910   20.9140 C   0  0  0  0  0  0  0  0  0  0  0  0
  -24.5110   -9.5190   21.8280 C   0  0  0  0  0  3  0  0  0  0  0  0
  -23.7860   -8.3250   22.0300 C   0  0  0  0  0  3  0  0  0  0  0  0
  -22.5850   -8.0950   21.3170 C   0  0  0  0  0  0  0  0  0  0  0  0
  -22.1440   -9.0570   20.3910 C   0  0  0  0  0  3  0  0  0  0  0  0
  -22.8700  -10.2420   20.1880 C   0  0  0  0  0  3  0  0  0  0  0  0
  -21.8260   -6.9550   21.4280 O   0  0  0  0  0  0  0  0  0  0  0  0
  -21.7630   -6.2450   22.6020 C   0  0  0  0  0  0  0  0  0  0  0  0
  -21.3310   -6.8370   23.8090 C   0  0  0  0  0  3  0  0  0  0  0  0
  -21.2150   -6.0550   24.9740 C   0  0  0  0  0  3  0  0  0  0  0  0
  -21.5190   -4.6810   24.9350 C   0  0  0  0  0  0  0  0  0  0  0  0
  -21.9440   -4.0880   23.7330 C   0  0  0  0  0  3  0  0  0  0  0  0
  -22.0630   -4.8690   22.5680 C   0  0  0  0  0  0  0  0  0  0  0  0
  -22.4530   -4.2890   21.4080 F   0  0  0  0  0  0  0  0  0  0  0  0
  -21.4020   -3.9270   26.0520 F   0  0  0  0  0  0  0  0  0  0  0  0
  -22.9800  -13.5900   21.2270 C   0  0  0  0  0  0  0  0  0  0  0  0
  -22.3300  -12.8830   22.1440 N   0  0  0  0  0  0  0  0  0  0  0  0
  -22.5060  -14.6290   20.7690 O   0  0  0  0  0  0  0  0  0  0  0  0
  -22.7260  -12.0380   22.5290 H   0  0  0  0  0  0  0  0  0  0  0  0
  -21.4170  -13.1830   22.4590 H   0  0  0  0  0  0  0  0  0  0  0  0
  -25.5500  -15.2500   20.2300 N   0  0  0  0  0  0  0  0  0  0  0  0
  -24.8160  -15.9120   20.4550 H   0  0  0  0  0  0  0  0  0  0  0  0
  -26.3690  -15.6880   19.8270 H   0  0  0  0  0  0  0  0  0  0  0  0
  -28.1750  -24.9590   20.6110 C   0  0  0  0  0  2  0  0  0  0  0  0
  -28.3840  -26.3870   20.2200 O   0  0  0  0  0  0  0  0  0  0  0  0
  -24.5810  -31.8170   23.1970 C   0  0  0  0  0  0  0  0  0  0  0  0
  -27.2750  -27.2460   20.2100 C   0  0  0  0  0  0  0  0  0  0  0  0
  -23.4250  -30.4080   21.5320 C   0  0  0  0  0  3  0  0  0  0  0  0
  -24.9160  -28.8610   20.1410 C   0  0  0  0  0  0  0  0  0  0  0  0
  -25.9660  -30.7360   21.4060 C   0  0  0  0  0  2  0  0  0  0  0  0
  -26.0690  -29.3520   20.7690 C   0  0  0  0  0  0  0  0  0  0  0  0
  -27.2580  -28.5580   20.7900 C   0  0  0  0  0  3  0  0  0  0  0  0
  -26.0990  -26.8060   19.5710 C   0  0  0  0  0  3  0  0  0  0  0  0
  -24.9370  -27.5980   19.5270 C   0  0  0  0  0  3  0  0  0  0  0  0
  -23.6700  -29.7260   20.1610 C   0  0  0  0  0  2  0  0  0  0  0  0
  -24.6770  -31.0040   22.1040 N   0  0  0  0  0  0  0  0  0  0  0  0
  -23.4820  -32.0920   23.7010 O   0  0  0  0  0  0  0  0  0  0  0  0
  -22.7420  -29.3950   22.4800 C   0  0  0  0  0  0  0  0  0  0  0  0
  -21.4170  -29.2290   22.3310 N   0  0  0  0  0  0  0  0  0  0  0  0
  -23.4030  -28.7590   23.3040 O   0  0  0  0  0  0  0  0  0  0  0  0
  -20.9450  -29.7920   21.6360 H   0  0  0  0  0  0  0  0  0  0  0  0
  -18.0200  -28.0600   22.7850 C   0  0  0  0  0  0  0  0  0  0  0  0
  -20.5790  -28.2920   23.0820 C   0  0  0  0  0  3  0  0  0  0  0  0
  -20.6710  -26.8670   22.4910 C   0  0  0  0  0  2  0  0  0  0  0  0
  -19.5750  -26.5640   21.4630 C   0  0  0  0  0  2  0  0  0  0  0  0
  -18.1890  -26.7180   22.0940 C   0  0  0  0  0  2  0  0  0  0  0  0
  -19.1430  -28.8080   23.2320 C   0  0  0  0  0  0  0  0  0  0  0  0
  -18.9320  -30.0650   23.8380 C   0  0  0  0  0  3  0  0  0  0  0  0
  -17.6310  -30.5790   23.9950 C   0  0  0  0  0  3  0  0  0  0  0  0
  -16.5230  -29.8310   23.5640 C   0  0  0  0  0  3  0  0  0  0  0  0
  -16.7180  -28.5730   22.9660 C   0  0  0  0  0  3  0  0  0  0  0  0
  -25.8450  -32.4580   23.8520 C   0  0  0  0  0  3  0  0  0  0  0  0
  -25.5170  -33.8540   24.1760 N   0  0  0  0  0  0  0  0  0  0  0  0
  -25.8480  -34.9090   23.4200 C   0  0  0  0  0  0  0  0  0  0  0  0
  -26.5340  -34.8110   22.3990 O   0  0  0  0  0  0  0  0  0  0  0  0
  -24.9110  -34.0050   24.9690 H   0  0  0  0  0  0  0  0  0  0  0  0
  -24.1050  -36.6810   23.0440 C   0  0  0  0  0  1  0  0  0  0  0  0
  -25.3430  -36.2930   23.8690 C   0  0  0  0  0  3  0  0  0  0  0  0
  -27.4590  -37.2020   24.7190 C   0  0  0  0  0  1  0  0  0  0  0  0
  -26.3650  -37.3580   23.7640 N   0  0  0  0  0  0  0  0  0  0  0  0
  -25.9470  -38.2730   23.9070 H   0  0  0  0  0  0  0  0  0  0  0  0
  -26.3310  -31.6930   25.1430 C   0  0  1  0  0  0  0  0  0  0  0  0
  -25.2080  -31.4470   26.1780 C   0  0  0  0  0  1  0  0  0  0  0  0
  -26.9370  -30.3200   24.7690 C   0  0  0  0  0  1  0  0  0  0  0  0
  -27.4550  -32.4990   25.8380 C   0  0  0  0  0  1  0  0  0  0  0  0
  1  2  2  0
  2  5  1  0
  2 54  1  0
  3  4  1  0
  3  1  1  0
  4  7  1  0
  5  6  1  0
  7 12  1  0
  7  5  1  0
  8  3  2  0
  9 10  1  0
 11 13  1  0
 12  9  2  0
 13 25  1  0
 13 10  2  0
 14 11  2  0
 14 12  1  0
 15 14  1  0
 16 25  1  0
 17 22  1  0
 18 19  1  0
 18 17  1  0
 20 19  1  0
 20 29  1  0
 20 21  1  0
 22 16  1  0
 22 21  1  0
 23 16  2  0
 25 24  1  0
 26 27  2  0
 27 46  1  0
 28 27  1  0
 28 31  1  0
 29 30  1  0
 29 26  1  0
 30 28  2  0
 31 32  1  0
 32 33  2  0
 34 37  1  0
 34 33  1  0
 35 34  2  0
 36 35  1  0
 36 31  2  0
 37 38  1  0
 38 39  1  0
 39 40  2  0
 41 40  1  0
 41 45  1  0
 42 41  2  0
 43 38  2  0
 43 42  1  0
 44 43  1  0
 46 47  1  0
 47 50  1  0
 47 49  1  0
 48 46  2  0
 51 26  1  0
 51 52  1  0
 53 51  1  0
 55 54  1  0
 56 67  2  0
 57 55  1  0
 57 62  1  0
 58 66  1  0
 58 68  1  0
 59 65  1  0
 59 61  1  0
 60 66  1  0
 61 62  2  0
 61 60  1  0
 63 57  2  0
 64 63  1  0
 64 59  2  0
 65 58  1  0
 66 56  1  0
 68 70  2  0
 69 68  1  0
 71 69  1  0
 72 81  2  0
 72 77  1  0
 73 69  1  0
 73 77  1  0
 74 73  1  0
 75 76  1  0
 75 74  1  0
 76 72  1  0
 77 78  2  0
 78 79  1  0
 80 79  2  0
 81 80  1  0
 82 56  1  0
 82 83  1  0
 82 92  1  0
 83 86  1  0
 84 88  1  0
 84 83  1  0
 85 84  2  0
 88 87  1  0
 90 88  1  0
 90 91  1  0
 90 89  1  0
 92 95  1  1
 92 93  1  0
 94 92  1  0
M  ISO  4  16 100  25 100  54 101  55 101
M  END
>  <TORSDO>  (83) 
F 18

>  <SCORE>  (83) 
-13.624

>  <name>  (83) 
83

>  <ligand_id>  (83) 
83

>  <original_smiles>  (83) 
[H]C1=C(C([H])([H])Oc2c([H])c([H])c3c(c2[H])C([H])([H])N(C(=O)C([H])(N([H])C(=O)C([H])(N([H])C([H])([H])[H])C([H])([H])[H])C(C([H])([H])[H])(C([H])([H])[H])C([H])([H])[H])C([H])(C(=O)N([H])C2([H])c4c([H])c([H])c([H])c([H])c4C([H])([H])C([H])([H])C2([H])[H])C3([H])[H])C([H])(C([H])([H])[H])N(c2c([H])c([H])c(N(C(=O)N3C([H])([H])C([H])([H])C([H])([H])C([H])(n4nc(-c5c([H])c([H])c(Oc6c([H])c([H])c(F)c([H])c6F)c([H])c5[H])c(C(=O)N([H])[H])c4N([H])[H])C3([H])[H])C([H])([H])[H])c([H])c2F)C([H])([H])C1=O

>  <smiles>  (83) 
[H]C1=C(C([H])([H])Oc2c([H])c([H])c3c(c2[H])C([H])([H])N(C(=O)C([H])(N([H])C(=O)C([H])(N([H])C([H])([H])[H])C([H])([H])[H])C(C([H])([H])[H])(C([H])([H])[H])C([H])([H])[H])C([H])(C(=O)N([H])C2([H])c4c([H])c([H])c([H])c([H])c4C([H])([H])C([H])([H])C2([H])[H])C3([H])[H])C([H])(C([H])([H])[H])N(c2c([H])c([H])c(N(C(=O)N3C([H])([H])C([H])([H])C([H])([H])C([H])(n4nc(-c5c([H])c([H])c(Oc6c([H])c([H])c(F)c([H])c6F)c([H])c5[H])c(C(=O)N([H])[H])c4N([H])[H])C3([H])[H])C([H])([H])[H])c([H])c2F)C([H])([H])C1=O

$$$$
84:0:0
     RDKit          3D

 93102  0  0  1  0  0  0  0  0999 V2000
  -28.5350  -22.9150   21.8380 C   0  0  0  0  0  2  0  0  0  0  0  0
  -28.8000  -23.1500   19.4160 C   0  0  0  0  0  2  0  0  0  0  0  0
  -29.3650  -21.6000   21.8090 C   0  0  0  0  0  2  0  0  0  0  0  0
  -29.6300  -21.8170   19.4090 C   0  0  0  0  0  2  0  0  0  0  0  0
  -28.9120  -23.9540   20.7410 C   0  0  0  0  0  3  0  0  0  0  0  0
  -29.3160  -20.8890   20.5190 N   0  0  0  0  0  0  0  0  0  0  0  0
  -32.3750  -18.7550   20.7750 C   0  0  0  0  0  3  0  0  0  0  0  0
  -31.5160  -19.8570   20.6590 C   0  0  0  0  0  3  0  0  0  0  0  0
  -31.8660  -17.4480   20.7630 C   0  0  0  0  0  3  0  0  0  0  0  0
  -29.6050  -18.3380   20.5280 C   0  0  0  0  0  0  0  0  0  0  0  0
  -30.1160  -19.6950   20.5520 C   0  0  0  0  0  0  0  0  0  0  0  0
  -30.4820  -17.1870   20.6020 C   0  0  0  0  0  0  0  0  0  0  0  0
  -28.1080  -18.0970   20.4150 C   0  0  0  0  0  1  0  0  0  0  0  0
  -30.6630  -14.6700   20.1320 C   0  0  0  0  0  0  0  0  0  0  0  0
  -30.3000  -12.4850   19.0190 C   0  0  0  0  0  2  0  0  0  0  0  0
  -29.3180  -12.6690   17.8450 C   0  0  0  0  0  2  0  0  0  0  0  0
  -27.8680  -12.5070   18.3340 C   0  0  0  0  0  2  0  0  0  0  0  0
  -27.5700  -13.3400   19.6100 C   0  0  0  0  0  3  0  0  0  0  0  0
  -28.6770  -13.1800   20.6780 C   0  0  0  0  0  2  0  0  0  0  0  0
  -29.9610  -13.4980   20.0410 N   0  0  0  0  0  0  0  0  0  0  0  0
  -31.8030  -14.7380   19.6680 O   0  0  0  0  0  0  0  0  0  0  0  0
  -30.0020  -15.7980   20.5550 N   0  0  0  0  0  0  0  0  0  0  0  0
  -29.0310  -15.6540   20.7860 H   0  0  0  0  0  0  0  0  0  0  0  0
  -25.2050  -13.9080   20.4340 C   0  0  0  0  0  0  0  0  0  0  0  0
  -24.1610  -13.1210   20.8360 C   0  0  0  0  0  0  0  0  0  0  0  0
  -24.6300  -11.7730   20.7680 C   0  0  0  0  0  0  0  0  0  0  0  0
  -26.2460  -13.0400   20.1480 N   0  0  0  0  0  0  0  0  0  0  0  0
  -25.9090  -11.7500   20.4100 N   0  0  0  0  0  0  0  0  0  0  0  0
  -23.9200  -10.5040   20.9680 C   0  0  0  0  0  0  0  0  0  0  0  0
  -24.3710   -9.5430   21.9000 C   0  0  0  0  0  3  0  0  0  0  0  0
  -23.6600   -8.3390   22.0890 C   0  0  0  0  0  3  0  0  0  0  0  0
  -22.4830   -8.0850   21.3440 C   0  0  0  0  0  0  0  0  0  0  0  0
  -22.0520   -9.0350   20.4010 C   0  0  0  0  0  3  0  0  0  0  0  0
  -22.7630  -10.2310   20.2110 C   0  0  0  0  0  3  0  0  0  0  0  0
  -21.7410   -6.9330   21.4410 O   0  0  0  0  0  0  0  0  0  0  0  0
  -21.6870   -6.2080   22.6040 C   0  0  0  0  0  0  0  0  0  0  0  0
  -21.2300   -6.7740   23.8150 C   0  0  0  0  0  3  0  0  0  0  0  0
  -21.1250   -5.9750   24.9700 C   0  0  0  0  0  3  0  0  0  0  0  0
  -21.4660   -4.6110   24.9170 C   0  0  0  0  0  0  0  0  0  0  0  0
  -21.9170   -4.0440   23.7120 C   0  0  0  0  0  3  0  0  0  0  0  0
  -22.0230   -4.8400   22.5590 C   0  0  0  0  0  0  0  0  0  0  0  0
  -22.4380   -4.2840   21.3950 F   0  0  0  0  0  0  0  0  0  0  0  0
  -21.3580   -3.8400   26.0260 F   0  0  0  0  0  0  0  0  0  0  0  0
  -22.7720  -13.5850   21.1680 C   0  0  0  0  0  0  0  0  0  0  0  0
  -22.0820  -12.8690   22.0480 N   0  0  0  0  0  0  0  0  0  0  0  0
  -22.3090  -14.6160   20.6840 O   0  0  0  0  0  0  0  0  0  0  0  0
  -22.4690  -12.0330   22.4610 H   0  0  0  0  0  0  0  0  0  0  0  0
  -21.1520  -13.1620   22.3160 H   0  0  0  0  0  0  0  0  0  0  0  0
  -25.3530  -15.2810   20.2650 N   0  0  0  0  0  0  0  0  0  0  0  0
  -24.5810  -15.9250   20.3970 H   0  0  0  0  0  0  0  0  0  0  0  0
  -26.1690  -15.7210   19.8620 H   0  0  0  0  0  0  0  0  0  0  0  0
  -27.9960  -25.2450   20.8670 C   0  0  0  0  0  2  0  0  0  0  0  0
  -28.3360  -26.5450   20.2600 O   0  0  0  0  0  0  0  0  0  0  0  0
  -24.5960  -31.9220   23.2410 C   0  0  0  0  0  0  0  0  0  0  0  0
  -27.2480  -27.4180   20.1850 C   0  0  0  0  0  0  0  0  0  0  0  0
  -23.4110  -30.5250   21.5850 C   0  0  0  0  0  3  0  0  0  0  0  0
  -24.8800  -28.9990   20.1570 C   0  0  0  0  0  0  0  0  0  0  0  0
  -25.9470  -30.8660   21.4220 C   0  0  0  0  0  2  0  0  0  0  0  0
  -26.0390  -29.4950   20.7680 C   0  0  0  0  0  0  0  0  0  0  0  0
  -27.2310  -28.7140   20.7770 C   0  0  0  0  0  3  0  0  0  0  0  0
  -26.0780  -26.9810   19.5280 C   0  0  0  0  0  3  0  0  0  0  0  0
  -24.8990  -27.7460   19.5260 C   0  0  0  0  0  3  0  0  0  0  0  0
  -23.6360  -29.8610   20.2020 C   0  0  0  0  0  2  0  0  0  0  0  0
  -24.6690  -31.1200   22.1400 N   0  0  0  0  0  0  0  0  0  0  0  0
  -23.5080  -32.1920   23.7690 O   0  0  0  0  0  0  0  0  0  0  0  0
  -22.7490  -29.4980   22.5350 C   0  0  0  0  0  0  0  0  0  0  0  0
  -21.4230  -29.3180   22.4000 N   0  0  0  0  0  0  0  0  0  0  0  0
  -23.4240  -28.8690   23.3530 O   0  0  0  0  0  0  0  0  0  0  0  0
  -20.9380  -29.8810   21.7140 H   0  0  0  0  0  0  0  0  0  0  0  0
  -18.0430  -28.1310   22.8860 C   0  0  0  0  0  0  0  0  0  0  0  0
  -20.6020  -28.3760   23.1610 C   0  0  0  0  0  3  0  0  0  0  0  0
  -20.6970  -26.9510   22.5710 C   0  0  0  0  0  2  0  0  0  0  0  0
  -19.5960  -26.6420   21.5530 C   0  0  0  0  0  2  0  0  0  0  0  0
  -18.2140  -26.7870   22.1970 C   0  0  0  0  0  2  0  0  0  0  0  0
  -19.1640  -28.8830   23.3230 C   0  0  0  0  0  0  0  0  0  0  0  0
  -18.9500  -30.1420   23.9270 C   0  0  0  0  0  3  0  0  0  0  0  0
  -17.6460  -30.6470   24.0970 C   0  0  0  0  0  3  0  0  0  0  0  0
  -16.5400  -29.8910   23.6750 C   0  0  0  0  0  3  0  0  0  0  0  0
  -16.7390  -28.6340   23.0750 C   0  0  0  0  0  3  0  0  0  0  0  0
  -25.8730  -32.5560   23.8760 C   0  0  0  0  0  3  0  0  0  0  0  0
  -25.5610  -33.9560   24.1930 N   0  0  0  0  0  0  0  0  0  0  0  0
  -25.9070  -35.0030   23.4340 C   0  0  0  0  0  0  0  0  0  0  0  0
  -26.5920  -34.8940   22.4130 O   0  0  0  0  0  0  0  0  0  0  0  0
  -24.9570  -34.1170   24.9860 H   0  0  0  0  0  0  0  0  0  0  0  0
  -24.1910  -36.7990   23.0400 C   0  0  0  0  0  1  0  0  0  0  0  0
  -25.4150  -36.3950   23.8770 C   0  0  0  0  0  3  0  0  0  0  0  0
  -27.5390  -37.2730   24.7430 C   0  0  0  0  0  1  0  0  0  0  0  0
  -26.4530  -37.4450   23.7820 N   0  0  0  0  0  0  0  0  0  0  0  0
  -26.0470  -38.3660   23.9240 H   0  0  0  0  0  0  0  0  0  0  0  0
  -26.3730  -31.7910   25.1620 C   0  0  1  0  0  0  0  0  0  0  0  0
  -25.2660  -31.5580   26.2160 C   0  0  0  0  0  1  0  0  0  0  0  0
  -26.9620  -30.4120   24.7840 C   0  0  0  0  0  1  0  0  0  0  0  0
  -27.5140  -32.5880   25.8350 C   0  0  0  0  0  1  0  0  0  0  0  0
  2  5  1  0
  3  1  1  0
  4  2  1  0
  4  6  1  0
  5 52  1  0
  5  1  1  0
  6 11  1  0
  6  3  1  0
  8  7  2  0
  9  7  1  0
 10 11  2  0
 10 12  1  0
 11  8  1  0
 12  9  2  0
 13 10  1  0
 14 22  1  0
 15 20  1  0
 16 17  1  0
 16 15  1  0
 18 17  1  0
 18 27  1  0
 18 19  1  0
 20 14  1  0
 20 19  1  0
 21 14  2  0
 22 12  1  0
 22 23  1  0
 24 25  2  0
 25 44  1  0
 26 25  1  0
 26 29  1  0
 27 28  1  0
 27 24  1  0
 28 26  2  0
 29 30  1  0
 30 31  2  0
 32 35  1  0
 32 31  1  0
 33 32  2  0
 34 33  1  0
 34 29  2  0
 35 36  1  0
 36 37  1  0
 37 38  2  0
 39 38  1  0
 39 43  1  0
 40 39  2  0
 41 36  2  0
 41 40  1  0
 42 41  1  0
 44 45  1  0
 45 48  1  0
 45 47  1  0
 46 44  2  0
 49 50  1  0
 49 24  1  0
 51 49  1  0
 53 52  1  0
 54 65  2  0
 55 53  1  0
 55 60  1  0
 56 64  1  0
 56 66  1  0
 57 63  1  0
 57 59  1  0
 58 64  1  0
 59 60  2  0
 59 58  1  0
 61 55  2  0
 62 61  1  0
 62 57  2  0
 63 56  1  0
 64 54  1  0
 66 68  2  0
 67 66  1  0
 69 67  1  0
 70 79  2  0
 70 75  1  0
 71 67  1  0
 71 75  1  0
 72 71  1  0
 73 74  1  0
 73 72  1  0
 74 70  1  0
 75 76  2  0
 76 77  1  0
 78 77  2  0
 79 78  1  0
 80 54  1  0
 80 81  1  0
 80 90  1  0
 81 84  1  0
 82 86  1  0
 82 81  1  0
 83 82  2  0
 86 85  1  0
 88 86  1  0
 88 89  1  0
 88 87  1  0
 90 93  1  1
 90 91  1  0
 92 90  1  0
M  ISO  4  14 100  22 100  52 101  53 101
M  END
>  <TORSDO>  (84) 
F 18

>  <SCORE>  (84) 
-15.188

>  <name>  (84) 
84

>  <ligand_id>  (84) 
84

>  <original_smiles>  (84) 
[H]c1c([H])c(N([H])C(=O)N2C([H])([H])C([H])([H])C([H])([H])C([H])(n3nc(-c4c([H])c([H])c(Oc5c([H])c([H])c(F)c([H])c5F)c([H])c4[H])c(C(=O)N([H])[H])c3N([H])[H])C2([H])[H])c(C([H])([H])[H])c(N2C([H])([H])C([H])([H])C([H])(C([H])([H])Oc3c([H])c([H])c4c(c3[H])C([H])([H])N(C(=O)C([H])(N([H])C(=O)C([H])(N([H])C([H])([H])[H])C([H])([H])[H])C(C([H])([H])[H])(C([H])([H])[H])C([H])([H])[H])C([H])(C(=O)N([H])C3([H])c5c([H])c([H])c([H])c([H])c5C([H])([H])C([H])([H])C3([H])[H])C4([H])[H])C([H])([H])C2([H])[H])c1[H]

>  <smiles>  (84) 
[H]c1c([H])c(N([H])C(=O)N2C([H])([H])C([H])([H])C([H])([H])C([H])(n3nc(-c4c([H])c([H])c(Oc5c([H])c([H])c(F)c([H])c5F)c([H])c4[H])c(C(=O)N([H])[H])c3N([H])[H])C2([H])[H])c(C([H])([H])[H])c(N2C([H])([H])C([H])([H])C([H])(C([H])([H])Oc3c([H])c([H])c4c(c3[H])C([H])([H])N(C(=O)C([H])(N([H])C(=O)C([H])(N([H])C([H])([H])[H])C([H])([H])[H])C(C([H])([H])[H])(C([H])([H])[H])C([H])([H])[H])C([H])(C(=O)N([H])C3([H])c5c([H])c([H])c([H])c([H])c5C([H])([H])C([H])([H])C3([H])[H])C4([H])[H])C([H])([H])C2([H])[H])c1[H]

$$$$
85:0:0
     RDKit          3D

 98107  0  0  1  0  0  0  0  0999 V2000
  -30.2170  -20.4900   18.3310 C   0  0  0  0  0  3  0  0  0  0  0  0
  -30.7310  -21.0640   17.1640 C   0  0  0  0  0  3  0  0  0  0  0  0
  -29.9970  -23.2160   17.9530 C   0  0  0  0  0  3  0  0  0  0  0  0
  -29.4420  -22.7090   19.1640 C   0  0  0  0  0  0  0  0  0  0  0  0
  -29.5750  -21.2260   19.3600 C   0  0  0  0  0  0  0  0  0  0  0  0
  -30.6210  -22.4410   16.9530 C   0  0  0  0  0  0  0  0  0  0  0  0
  -30.7410  -24.1160   15.1060 C   0  0  0  0  0  0  0  0  0  0  0  0
  -31.6040  -24.4110   13.8910 C   0  0  0  0  0  2  0  0  0  0  0  0
  -32.7870  -23.4610   14.0630 C   0  0  0  0  0  2  0  0  0  0  0  0
  -32.2920  -22.4040   15.0540 C   0  0  0  0  0  2  0  0  0  0  0  0
  -31.1810  -23.0260   15.7700 N   0  0  0  0  0  0  0  0  0  0  0  0
  -29.7620  -24.8150   15.3860 O   0  0  0  0  0  0  0  0  0  0  0  0
  -28.9070  -23.9330   19.9900 C   0  0  0  0  0  3  0  0  0  0  0  0
  -28.4760  -25.1800   19.4940 C   0  0  0  0  0  3  0  0  0  0  0  0
  -28.3370  -26.4440   20.1530 O   0  0  0  0  0  0  0  0  0  0  0  0
  -24.6340  -31.8950   23.1570 C   0  0  0  0  0  0  0  0  0  0  0  0
  -27.2500  -27.3440   20.0140 C   0  0  0  0  0  0  0  0  0  0  0  0
  -23.4260  -30.5050   21.5120 C   0  0  0  0  0  3  0  0  0  0  0  0
  -24.8760  -28.9810   20.0400 C   0  0  0  0  0  0  0  0  0  0  0  0
  -25.9650  -30.8340   21.3090 C   0  0  0  0  0  2  0  0  0  0  0  0
  -26.0490  -29.4620   20.6360 C   0  0  0  0  0  0  0  0  0  0  0  0
  -27.2320  -28.6540   20.6150 C   0  0  0  0  0  3  0  0  0  0  0  0
  -26.0550  -26.9340   19.3850 C   0  0  0  0  0  3  0  0  0  0  0  0
  -24.8860  -27.7280   19.4010 C   0  0  0  0  0  3  0  0  0  0  0  0
  -23.6320  -29.8480   20.1200 C   0  0  0  0  0  2  0  0  0  0  0  0
  -24.6940  -31.0970   22.0490 N   0  0  0  0  0  0  0  0  0  0  0  0
  -23.5530  -32.1570   23.7070 O   0  0  0  0  0  0  0  0  0  0  0  0
  -22.7800  -29.4750   22.4710 C   0  0  0  0  0  0  0  0  0  0  0  0
  -21.4540  -29.2860   22.3550 N   0  0  0  0  0  0  0  0  0  0  0  0
  -23.4710  -28.8500   23.2780 O   0  0  0  0  0  0  0  0  0  0  0  0
  -20.9520  -29.8430   21.6770 H   0  0  0  0  0  0  0  0  0  0  0  0
  -18.0970  -28.0300   22.8660 C   0  0  0  0  0  0  0  0  0  0  0  0
  -20.6540  -28.3300   23.1230 C   0  0  0  0  0  3  0  0  0  0  0  0
  -20.7750  -26.9040   22.5360 C   0  0  0  0  0  2  0  0  0  0  0  0
  -19.6720  -26.5720   21.5260 C   0  0  0  0  0  2  0  0  0  0  0  0
  -18.2920  -26.6890   22.1770 C   0  0  0  0  0  2  0  0  0  0  0  0
  -19.2070  -28.8070   23.2950 C   0  0  0  0  0  0  0  0  0  0  0  0
  -18.9700  -30.0610   23.9010 C   0  0  0  0  0  3  0  0  0  0  0  0
  -17.6580  -30.5380   24.0790 C   0  0  0  0  0  3  0  0  0  0  0  0
  -16.5640  -29.7580   23.6650 C   0  0  0  0  0  3  0  0  0  0  0  0
  -16.7850  -28.5070   23.0650 C   0  0  0  0  0  3  0  0  0  0  0  0
  -25.9160  -32.5340   23.7750 C   0  0  0  0  0  3  0  0  0  0  0  0
  -25.5950  -33.9260   24.1270 N   0  0  0  0  0  0  0  0  0  0  0  0
  -25.9180  -34.9950   23.3860 C   0  0  0  0  0  0  0  0  0  0  0  0
  -26.5850  -34.9140   22.3510 O   0  0  0  0  0  0  0  0  0  0  0  0
  -25.0020  -34.0640   24.9320 H   0  0  0  0  0  0  0  0  0  0  0  0
  -24.1870  -36.7910   23.0580 C   0  0  0  0  0  1  0  0  0  0  0  0
  -25.4240  -36.3740   23.8680 C   0  0  0  0  0  3  0  0  0  0  0  0
  -27.5490  -37.2500   24.7320 C   0  0  0  0  0  1  0  0  0  0  0  0
  -26.4540  -37.4320   23.7830 N   0  0  0  0  0  0  0  0  0  0  0  0
  -26.0450  -38.3480   23.9420 H   0  0  0  0  0  0  0  0  0  0  0  0
  -26.4500  -31.7560   25.0400 C   0  0  1  0  0  0  0  0  0  0  0  0
  -25.3700  -31.5000   26.1170 C   0  0  0  0  0  1  0  0  0  0  0  0
  -27.0400  -30.3860   24.6320 C   0  0  0  0  0  1  0  0  0  0  0  0
  -27.6020  -32.5520   25.6980 C   0  0  0  0  0  1  0  0  0  0  0  0
  -28.9080  -20.9190   21.8370 C   0  0  0  0  0  1  0  0  0  0  0  0
  -29.0720  -20.2090   20.4890 C   0  0  0  0  0  3  0  0  0  0  0  0
  -29.5620  -17.5300   20.2800 C   0  0  0  0  0  0  0  0  0  0  0  0
  -29.7730  -18.8390   20.7320 N   0  0  0  0  0  0  0  0  0  0  0  0
  -28.8860  -17.3400   19.2670 O   0  0  0  0  0  0  0  0  0  0  0  0
  -30.4020  -18.8740   21.5230 H   0  0  0  0  0  0  0  0  0  0  0  0
  -30.0450  -16.2370   21.1300 C   0  0  0  0  0  2  0  0  0  0  0  0
  -30.6690  -14.9280   20.3980 C   0  0  0  0  0  0  0  0  0  0  0  0
  -30.5050  -12.6500   19.3300 C   0  0  0  0  0  2  0  0  0  0  0  0
  -29.5750  -12.7220   18.0970 C   0  0  0  0  0  2  0  0  0  0  0  0
  -28.1040  -12.5270   18.5110 C   0  0  0  0  0  2  0  0  0  0  0  0
  -27.7170  -13.3930   19.7380 C   0  0  0  0  0  3  0  0  0  0  0  0
  -28.7660  -13.2890   20.8660 C   0  0  0  0  0  2  0  0  0  0  0  0
  -30.0600  -13.6870   20.2980 N   0  0  0  0  0  0  0  0  0  0  0  0
  -31.8070  -15.0390   19.9270 O   0  0  0  0  0  0  0  0  0  0  0  0
  -25.3110  -13.9570   20.4260 C   0  0  0  0  0  0  0  0  0  0  0  0
  -24.2510  -13.1730   20.7910 C   0  0  0  0  0  0  0  0  0  0  0  0
  -24.7330  -11.8280   20.7840 C   0  0  0  0  0  0  0  0  0  0  0  0
  -26.3700  -13.0890   20.2140 N   0  0  0  0  0  0  0  0  0  0  0  0
  -26.0280  -11.8030   20.4900 N   0  0  0  0  0  0  0  0  0  0  0  0
  -24.0210  -10.5580   20.9800 C   0  0  0  0  0  0  0  0  0  0  0  0
  -24.4480   -9.6090   21.9350 C   0  0  0  0  0  3  0  0  0  0  0  0
  -23.7340   -8.4060   22.1190 C   0  0  0  0  0  3  0  0  0  0  0  0
  -22.5770   -8.1420   21.3490 C   0  0  0  0  0  0  0  0  0  0  0  0
  -22.1690   -9.0780   20.3840 C   0  0  0  0  0  3  0  0  0  0  0  0
  -22.8830  -10.2740   20.1970 C   0  0  0  0  0  3  0  0  0  0  0  0
  -21.8360   -6.9890   21.4400 O   0  0  0  0  0  0  0  0  0  0  0  0
  -21.7710   -6.2650   22.6040 C   0  0  0  0  0  0  0  0  0  0  0  0
  -21.3050   -6.8320   23.8100 C   0  0  0  0  0  3  0  0  0  0  0  0
  -21.1890   -6.0340   24.9660 C   0  0  0  0  0  3  0  0  0  0  0  0
  -21.5300   -4.6700   24.9170 C   0  0  0  0  0  0  0  0  0  0  0  0
  -21.9890   -4.1010   23.7150 C   0  0  0  0  0  3  0  0  0  0  0  0
  -22.1070   -4.8970   22.5620 C   0  0  0  0  0  0  0  0  0  0  0  0
  -22.5290   -4.3380   21.4020 F   0  0  0  0  0  0  0  0  0  0  0  0
  -21.4120   -3.9000   26.0240 F   0  0  0  0  0  0  0  0  0  0  0  0
  -22.8450  -13.6340   21.0380 C   0  0  0  0  0  0  0  0  0  0  0  0
  -22.1140  -12.9400   21.9030 N   0  0  0  0  0  0  0  0  0  0  0  0
  -22.4000  -14.6470   20.4980 O   0  0  0  0  0  0  0  0  0  0  0  0
  -22.4860  -12.1220   22.3630 H   0  0  0  0  0  0  0  0  0  0  0  0
  -21.1700  -13.2310   22.1100 H   0  0  0  0  0  0  0  0  0  0  0  0
  -25.4620  -15.3270   20.2340 N   0  0  0  0  0  0  0  0  0  0  0  0
  -24.6860  -15.9750   20.3250 H   0  0  0  0  0  0  0  0  0  0  0  0
  -26.3100  -15.7710   19.9010 H   0  0  0  0  0  0  0  0  0  0  0  0
  1  5  1  0
  2  1  2  0
  3  4  1  0
  4  5  2  0
  4 13  1  0
  5 57  1  0
  6  2  1  0
  6  3  2  0
  7 12  2  0
  7 11  1  0
  8  9  1  0
  8  7  1  0
  9 10  1  0
 10 11  1  0
 11  6  1  0
 14 13  2  0
 14 15  1  0
 16 27  2  0
 17 15  1  0
 17 22  1  0
 18 26  1  0
 18 28  1  0
 19 25  1  0
 19 21  1  0
 20 26  1  0
 21 20  1  0
 22 21  2  0
 23 24  1  0
 23 17  2  0
 24 19  2  0
 25 18  1  0
 26 16  1  0
 28 30  2  0
 29 28  1  0
 31 29  1  0
 32 41  2  0
 32 37  1  0
 33 29  1  0
 33 37  1  0
 34 33  1  0
 35 36  1  0
 35 34  1  0
 36 32  1  0
 37 38  2  0
 38 39  1  0
 40 39  2  0
 41 40  1  0
 42 16  1  0
 42 43  1  0
 42 52  1  0
 43 46  1  0
 44 48  1  0
 44 43  1  0
 45 44  2  0
 48 47  1  0
 50 48  1  0
 50 51  1  0
 50 49  1  0
 52 55  1  1
 52 53  1  0
 54 52  1  0
 57 59  1  0
 57 56  1  0
 58 59  1  0
 58 62  1  0
 59 61  1  0
 60 58  2  0
 63 62  1  0
 64 69  1  0
 65 66  1  0
 65 64  1  0
 67 66  1  0
 67 74  1  0
 67 68  1  0
 69 63  1  0
 69 68  1  0
 70 63  2  0
 71 72  2  0
 72 91  1  0
 73 72  1  0
 73 76  1  0
 74 71  1  0
 74 75  1  0
 75 73  2  0
 76 77  1  0
 77 78  2  0
 79 82  1  0
 79 78  1  0
 80 79  2  0
 81 80  1  0
 81 76  2  0
 82 83  1  0
 83 84  1  0
 84 85  2  0
 86 85  1  0
 86 90  1  0
 87 86  2  0
 88 83  2  0
 88 87  1  0
 89 88  1  0
 91 92  1  0
 92 95  1  0
 92 94  1  0
 93 91  2  0
 96 97  1  0
 96 71  1  0
 98 96  1  0
M  ISO  4  14 101  15 101  62 100  63 100
M  END
>  <TORSDO>  (85) 
F 21

>  <SCORE>  (85) 
-13.397

>  <name>  (85) 
85

>  <ligand_id>  (85) 
85

>  <original_smiles>  (85) 
[H]C(Oc1c([H])c([H])c2c(c1[H])C([H])([H])N(C(=O)C([H])(N([H])C(=O)C([H])(N([H])C([H])([H])[H])C([H])([H])[H])C(C([H])([H])[H])(C([H])([H])[H])C([H])([H])[H])C([H])(C(=O)N([H])C1([H])c3c([H])c([H])c([H])c([H])c3C([H])([H])C([H])([H])C1([H])[H])C2([H])[H])=C([H])c1c([H])c(N2C(=O)C([H])([H])C([H])([H])C2([H])[H])c([H])c([H])c1C([H])(N([H])C(=O)C([H])([H])C(=O)N1C([H])([H])C([H])([H])C([H])([H])C([H])(n2nc(-c3c([H])c([H])c(Oc4c([H])c([H])c(F)c([H])c4F)c([H])c3[H])c(C(=O)N([H])[H])c2N([H])[H])C1([H])[H])C([H])([H])[H]

>  <smiles>  (85) 
[H]C(Oc1c([H])c([H])c2c(c1[H])C([H])([H])N(C(=O)C([H])(N([H])C(=O)C([H])(N([H])C([H])([H])[H])C([H])([H])[H])C(C([H])([H])[H])(C([H])([H])[H])C([H])([H])[H])C([H])(C(=O)N([H])C1([H])c3c([H])c([H])c([H])c([H])c3C([H])([H])C([H])([H])C1([H])[H])C2([H])[H])=C([H])c1c([H])c(N2C(=O)C([H])([H])C([H])([H])C2([H])[H])c([H])c([H])c1C([H])(N([H])C(=O)C([H])([H])C(=O)N1C([H])([H])C([H])([H])C([H])([H])C([H])(n2nc(-c3c([H])c([H])c(Oc4c([H])c([H])c(F)c([H])c4F)c([H])c3[H])c(C(=O)N([H])[H])c2N([H])[H])C1([H])[H])C([H])([H])[H]

$$$$
86:0:0
     RDKit          3D

 98107  0  0  1  0  0  0  0  0999 V2000
  -30.0460  -23.7760   19.5330 C   0  0  0  0  0  3  0  0  0  0  0  0
  -28.9210  -23.8870   20.4020 C   0  0  0  0  0  0  0  0  0  0  0  0
  -28.6720  -22.5710   20.8110 C   0  0  0  0  0  0  0  0  0  0  0  0
  -30.4110  -22.4550   19.4490 C   0  0  0  0  0  0  0  0  0  0  0  0
  -27.6050  -22.0690   21.7360 C   0  0  0  0  0  1  0  0  0  0  0  0
  -29.5930  -21.6570   20.2380 N   0  0  0  0  0  0  0  0  0  0  0  0
  -28.6670  -19.3390   19.8780 C   0  0  0  0  0  3  0  0  0  0  0  0
  -30.9000  -18.1040   21.0410 C   0  0  0  0  0  3  0  0  0  0  0  0
  -29.6840  -20.1940   20.3760 C   0  0  0  0  0  0  0  0  0  0  0  0
  -28.7620  -17.9170   19.9540 C   0  0  0  0  0  0  0  0  0  0  0  0
  -29.8730  -17.2560   20.5450 C   0  0  0  0  0  0  0  0  0  0  0  0
  -30.8090  -19.5320   20.9600 C   0  0  0  0  0  0  0  0  0  0  0  0
  -31.8210  -20.2690   21.4810 F   0  0  0  0  0  0  0  0  0  0  0  0
  -30.6470  -14.7560   20.4860 C   0  0  0  0  0  0  0  0  0  0  0  0
  -30.4820  -12.4980   19.4490 C   0  0  0  0  0  2  0  0  0  0  0  0
  -29.5490  -12.6040   18.2200 C   0  0  0  0  0  2  0  0  0  0  0  0
  -28.0700  -12.4410   18.6310 C   0  0  0  0  0  2  0  0  0  0  0  0
  -27.6900  -13.3120   19.8570 C   0  0  0  0  0  3  0  0  0  0  0  0
  -28.7370  -13.1740   20.9860 C   0  0  0  0  0  2  0  0  0  0  0  0
  -30.0500  -13.5220   20.4190 N   0  0  0  0  0  0  0  0  0  0  0  0
  -31.8280  -14.9180   20.1640 O   0  0  0  0  0  0  0  0  0  0  0  0
  -29.7920  -15.8010   20.7200 N   0  0  0  0  0  0  0  0  0  0  0  0
  -28.8390  -15.4920   20.8370 H   0  0  0  0  0  0  0  0  0  0  0  0
  -25.2880  -13.9180   20.5470 C   0  0  0  0  0  0  0  0  0  0  0  0
  -24.2150  -13.1460   20.8960 C   0  0  0  0  0  0  0  0  0  0  0  0
  -24.6750  -11.7940   20.8710 C   0  0  0  0  0  0  0  0  0  0  0  0
  -26.3350  -13.0360   20.3260 N   0  0  0  0  0  0  0  0  0  0  0  0
  -25.9700  -11.7540   20.5820 N   0  0  0  0  0  0  0  0  0  0  0  0
  -23.9440  -10.5350   21.0500 C   0  0  0  0  0  0  0  0  0  0  0  0
  -24.3510   -9.5730   22.0010 C   0  0  0  0  0  3  0  0  0  0  0  0
  -23.6190   -8.3770   22.1680 C   0  0  0  0  0  3  0  0  0  0  0  0
  -22.4660   -8.1350   21.3830 C   0  0  0  0  0  0  0  0  0  0  0  0
  -22.0780   -9.0860   20.4220 C   0  0  0  0  0  3  0  0  0  0  0  0
  -22.8110  -10.2720   20.2530 C   0  0  0  0  0  3  0  0  0  0  0  0
  -21.7100   -6.9910   21.4560 O   0  0  0  0  0  0  0  0  0  0  0  0
  -21.6170   -6.2630   22.6150 C   0  0  0  0  0  0  0  0  0  0  0  0
  -21.1170   -6.8240   23.8100 C   0  0  0  0  0  3  0  0  0  0  0  0
  -20.9750   -6.0220   24.9600 C   0  0  0  0  0  3  0  0  0  0  0  0
  -21.3210   -4.6580   24.9150 C   0  0  0  0  0  0  0  0  0  0  0  0
  -21.8140   -4.0950   23.7240 C   0  0  0  0  0  3  0  0  0  0  0  0
  -21.9580   -4.8960   22.5760 C   0  0  0  0  0  0  0  0  0  0  0  0
  -22.4140   -4.3440   21.4260 F   0  0  0  0  0  0  0  0  0  0  0  0
  -21.1770   -3.8850   26.0160 F   0  0  0  0  0  0  0  0  0  0  0  0
  -22.8140  -13.6270   21.1490 C   0  0  0  0  0  0  0  0  0  0  0  0
  -22.0710  -12.9290   22.0000 N   0  0  0  0  0  0  0  0  0  0  0  0
  -22.3880  -14.6560   20.6270 O   0  0  0  0  0  0  0  0  0  0  0  0
  -22.4270  -12.0970   22.4450 H   0  0  0  0  0  0  0  0  0  0  0  0
  -21.1310  -13.2340   22.2110 H   0  0  0  0  0  0  0  0  0  0  0  0
  -25.4470  -15.2920   20.3840 N   0  0  0  0  0  0  0  0  0  0  0  0
  -24.6650  -15.9260   20.5010 H   0  0  0  0  0  0  0  0  0  0  0  0
  -26.3020  -15.7850   20.1270 H   0  0  0  0  0  0  0  0  0  0  0  0
  -27.7420  -17.1370   19.4070 N   0  0  0  0  0  0  0  0  0  0  0  0
  -27.0560  -17.6590   18.8720 H   0  0  0  0  0  0  0  0  0  0  0  0
  -28.0900  -16.3690   18.8460 H   0  0  0  0  0  0  0  0  0  0  0  0
  -31.4080  -21.9020   18.7060 O   0  0  0  0  0  0  0  0  0  0  0  0
  -31.8540  -22.6080   18.2490 H   0  0  0  0  0  0  0  0  0  0  0  0
  -28.1380  -25.1890   20.8250 C   0  0  0  0  0  2  0  0  0  0  0  0
  -28.3980  -26.5110   20.1950 O   0  0  0  0  0  0  0  0  0  0  0  0
  -24.6590  -31.9150   23.2320 C   0  0  0  0  0  0  0  0  0  0  0  0
  -27.2990  -27.3860   20.1650 C   0  0  0  0  0  0  0  0  0  0  0  0
  -23.4620  -30.5130   21.5890 C   0  0  0  0  0  3  0  0  0  0  0  0
  -24.9240  -28.9790   20.1550 C   0  0  0  0  0  0  0  0  0  0  0  0
  -26.0000  -30.8510   21.4040 C   0  0  0  0  0  2  0  0  0  0  0  0
  -26.0910  -29.4760   20.7540 C   0  0  0  0  0  0  0  0  0  0  0  0
  -27.2840  -28.6900   20.7490 C   0  0  0  0  0  3  0  0  0  0  0  0
  -26.1160  -26.9510   19.5280 C   0  0  0  0  0  3  0  0  0  0  0  0
  -24.9390  -27.7230   19.5320 C   0  0  0  0  0  3  0  0  0  0  0  0
  -23.6800  -29.8440   20.2080 C   0  0  0  0  0  2  0  0  0  0  0  0
  -24.7260  -31.1110   22.1320 N   0  0  0  0  0  0  0  0  0  0  0  0
  -23.5740  -32.1840   23.7690 O   0  0  0  0  0  0  0  0  0  0  0  0
  -22.8080  -29.4890   22.5480 C   0  0  0  0  0  0  0  0  0  0  0  0
  -21.4830  -29.3010   22.4210 N   0  0  0  0  0  0  0  0  0  0  0  0
  -23.4920  -28.8660   23.3650 O   0  0  0  0  0  0  0  0  0  0  0  0
  -20.9910  -29.8540   21.7330 H   0  0  0  0  0  0  0  0  0  0  0  0
  -18.1140  -28.0870   22.9280 C   0  0  0  0  0  0  0  0  0  0  0  0
  -20.6720  -28.3560   23.1900 C   0  0  0  0  0  3  0  0  0  0  0  0
  -20.7780  -26.9280   22.6070 C   0  0  0  0  0  2  0  0  0  0  0  0
  -19.6740  -26.6050   21.5960 C   0  0  0  0  0  2  0  0  0  0  0  0
  -18.2930  -26.7430   22.2450 C   0  0  0  0  0  2  0  0  0  0  0  0
  -19.2310  -28.8520   23.3580 C   0  0  0  0  0  0  0  0  0  0  0  0
  -19.0100  -30.1110   23.9570 C   0  0  0  0  0  3  0  0  0  0  0  0
  -17.7020  -30.6070   24.1300 C   0  0  0  0  0  3  0  0  0  0  0  0
  -16.6000  -29.8380   23.7170 C   0  0  0  0  0  3  0  0  0  0  0  0
  -16.8070  -28.5810   23.1220 C   0  0  0  0  0  3  0  0  0  0  0  0
  -25.9390  -32.5550   23.8540 C   0  0  0  0  0  3  0  0  0  0  0  0
  -26.4600  -31.7850   25.1290 C   0  0  1  0  0  0  0  0  0  0  0  0
  -25.3690  -31.5380   26.1970 C   0  0  0  0  0  1  0  0  0  0  0  0
  -27.0530  -30.4110   24.7350 C   0  0  0  0  0  1  0  0  0  0  0  0
  -27.6060  -32.5850   25.7920 C   0  0  0  0  0  1  0  0  0  0  0  0
  -25.6210  -33.9510   24.1870 N   0  0  0  0  0  0  0  0  0  0  0  0
  -25.9430  -35.0070   23.4290 C   0  0  0  0  0  0  0  0  0  0  0  0
  -26.6090  -34.9100   22.3940 O   0  0  0  0  0  0  0  0  0  0  0  0
  -25.0280  -34.1000   24.9900 H   0  0  0  0  0  0  0  0  0  0  0  0
  -24.2090  -36.7950   23.0770 C   0  0  0  0  0  1  0  0  0  0  0  0
  -25.4480  -36.3920   23.8900 C   0  0  0  0  0  3  0  0  0  0  0  0
  -27.5740  -37.2850   24.7350 C   0  0  0  0  0  1  0  0  0  0  0  0
  -26.4770  -37.4490   23.7850 N   0  0  0  0  0  0  0  0  0  0  0  0
  -26.0660  -38.3680   23.9320 H   0  0  0  0  0  0  0  0  0  0  0  0
  1  2  1  0
  2  3  2  0
  2 57  1  0
  3  5  1  0
  4  1  2  0
  4  6  1  0
  6  9  1  0
  6  3  1  0
  7 10  2  0
  7  9  1  0
  9 12  2  0
 10 11  1  0
 11 22  1  0
 11  8  2  0
 12  8  1  0
 12 13  1  0
 14 22  1  0
 15 20  1  0
 16 17  1  0
 16 15  1  0
 18 17  1  0
 18 27  1  0
 18 19  1  0
 20 14  1  0
 20 19  1  0
 21 14  2  0
 22 23  1  0
 24 25  2  0
 25 44  1  0
 26 25  1  0
 26 29  1  0
 27 24  1  0
 27 28  1  0
 28 26  2  0
 29 30  1  0
 30 31  2  0
 32 35  1  0
 32 31  1  0
 33 32  2  0
 34 33  1  0
 34 29  2  0
 35 36  1  0
 36 37  1  0
 37 38  2  0
 39 38  1  0
 39 43  1  0
 40 39  2  0
 41 36  2  0
 41 40  1  0
 42 41  1  0
 44 45  1  0
 45 48  1  0
 45 47  1  0
 46 44  2  0
 49 50  1  0
 49 24  1  0
 51 49  1  0
 52 10  1  0
 53 52  1  0
 54 52  1  0
 55  4  1  0
 56 55  1  0
 58 57  1  0
 59 70  2  0
 60 58  1  0
 60 65  1  0
 61 69  1  0
 61 71  1  0
 62 68  1  0
 62 64  1  0
 63 69  1  0
 64 63  1  0
 65 64  2  0
 66 67  1  0
 66 60  2  0
 67 62  2  0
 68 61  1  0
 69 59  1  0
 71 73  2  0
 72 71  1  0
 74 72  1  0
 75 84  2  0
 75 80  1  0
 76 72  1  0
 76 80  1  0
 77 76  1  0
 78 79  1  0
 78 77  1  0
 79 75  1  0
 80 81  2  0
 81 82  1  0
 83 82  2  0
 84 83  1  0
 85 59  1  0
 85 90  1  0
 85 86  1  0
 86 89  1  1
 86 87  1  0
 88 86  1  0
 90 93  1  0
 91 95  1  0
 91 90  1  0
 92 91  2  0
 95 94  1  0
 97 95  1  0
 97 98  1  0
 97 96  1  0
M  ISO  4  14 100  22 100  57 101  58 101
M  END
>  <TORSDO>  (86) 
F 20

>  <SCORE>  (86) 
-14.575

>  <name>  (86) 
86

>  <ligand_id>  (86) 
86

>  <original_smiles>  (86) 
[H]Oc1c([H])c(C([H])([H])Oc2c([H])c([H])c3c(c2[H])C([H])([H])N(C(=O)C([H])(N([H])C(=O)C([H])(N([H])C([H])([H])[H])C([H])([H])[H])C(C([H])([H])[H])(C([H])([H])[H])C([H])([H])[H])C([H])(C(=O)N([H])C2([H])c4c([H])c([H])c([H])c([H])c4C([H])([H])C([H])([H])C2([H])[H])C3([H])[H])c(C([H])([H])[H])n1-c1c([H])c(N([H])[H])c(N([H])C(=O)N2C([H])([H])C([H])([H])C([H])([H])C([H])(n3nc(-c4c([H])c([H])c(Oc5c([H])c([H])c(F)c([H])c5F)c([H])c4[H])c(C(=O)N([H])[H])c3N([H])[H])C2([H])[H])c([H])c1F

>  <smiles>  (86) 
[H]Oc1c([H])c(C([H])([H])Oc2c([H])c([H])c3c(c2[H])C([H])([H])N(C(=O)C([H])(N([H])C(=O)C([H])(N([H])C([H])([H])[H])C([H])([H])[H])C(C([H])([H])[H])(C([H])([H])[H])C([H])([H])[H])C([H])(C(=O)N([H])C2([H])c4c([H])c([H])c([H])c([H])c4C([H])([H])C([H])([H])C2([H])[H])C3([H])[H])c(C([H])([H])[H])n1-c1c([H])c(N([H])[H])c(N([H])C(=O)N2C([H])([H])C([H])([H])C([H])([H])C([H])(n3nc(-c4c([H])c([H])c(Oc5c([H])c([H])c(F)c([H])c5F)c([H])c4[H])c(C(=O)N([H])[H])c3N([H])[H])C2([H])[H])c([H])c1F

$$$$
87:0:0
     RDKit          3D

 95104  0  0  1  0  0  0  0  0999 V2000
  -29.1550  -20.2850   21.0580 C   0  0  0  0  0  3  0  0  0  0  0  0
  -30.5500  -20.1010   19.1340 C   0  0  0  0  0  3  0  0  0  0  0  0
  -29.6930  -18.0380   20.1840 C   0  0  0  0  0  0  0  0  0  0  0  0
  -29.0340  -18.8730   21.1340 C   0  0  0  0  0  0  0  0  0  0  0  0
  -29.9070  -20.9550   20.0620 C   0  0  0  0  0  0  0  0  0  0  0  0
  -30.4530  -18.6920   19.1810 C   0  0  0  0  0  0  0  0  0  0  0  0
  -28.1870  -18.3010   22.2630 C   0  0  0  0  0  1  0  0  0  0  0  0
  -31.0990  -17.9730   18.2300 F   0  0  0  0  0  0  0  0  0  0  0  0
  -31.0470  -14.5960   19.4830 C   0  0  0  0  0  0  0  0  0  0  0  0
  -30.5100  -12.4510   18.3940 C   0  0  0  0  0  2  0  0  0  0  0  0
  -29.4390  -12.6070   17.3010 C   0  0  0  0  0  2  0  0  0  0  0  0
  -28.0330  -12.4490   17.9080 C   0  0  0  0  0  2  0  0  0  0  0  0
  -27.8370  -13.3080   19.1850 C   0  0  0  0  0  3  0  0  0  0  0  0
  -29.0300  -13.1490   20.1640 C   0  0  0  0  0  2  0  0  0  0  0  0
  -30.2480  -13.4840   19.4190 N   0  0  0  0  0  0  0  0  0  0  0  0
  -32.1640  -14.5810   18.9740 O   0  0  0  0  0  0  0  0  0  0  0  0
  -29.5470  -16.5180   20.1730 C   0  0  0  0  0  0  0  0  0  0  0  0
  -30.6710  -15.8400   19.8740 N   0  0  0  0  0  0  0  0  0  0  0  0
  -28.4560  -16.0210   20.4430 O   0  0  0  0  0  0  0  0  0  0  0  0
  -31.4400  -16.4770   19.7470 H   0  0  0  0  0  0  0  0  0  0  0  0
  -25.5710  -13.9290   20.2310 C   0  0  0  0  0  0  0  0  0  0  0  0
  -24.5370  -13.1620   20.6870 C   0  0  0  0  0  0  0  0  0  0  0  0
  -24.9560  -11.8050   20.5370 C   0  0  0  0  0  0  0  0  0  0  0  0
  -26.5560  -13.0390   19.8300 N   0  0  0  0  0  0  0  0  0  0  0  0
  -26.1980  -11.7530   20.0740 N   0  0  0  0  0  0  0  0  0  0  0  0
  -24.2260  -10.5510   20.7550 C   0  0  0  0  0  0  0  0  0  0  0  0
  -24.6640   -9.5960   21.7000 C   0  0  0  0  0  3  0  0  0  0  0  0
  -23.9340   -8.4070   21.9040 C   0  0  0  0  0  3  0  0  0  0  0  0
  -22.7520   -8.1630   21.1640 C   0  0  0  0  0  0  0  0  0  0  0  0
  -22.3330   -9.1070   20.2090 C   0  0  0  0  0  3  0  0  0  0  0  0
  -23.0650  -10.2890   20.0030 C   0  0  0  0  0  3  0  0  0  0  0  0
  -21.9930   -7.0240   21.2780 O   0  0  0  0  0  0  0  0  0  0  0  0
  -21.8150   -6.3960   22.4840 C   0  0  0  0  0  0  0  0  0  0  0  0
  -21.2390   -7.0580   23.5910 C   0  0  0  0  0  3  0  0  0  0  0  0
  -21.0110   -6.3560   24.7910 C   0  0  0  0  0  3  0  0  0  0  0  0
  -21.3460   -4.9920   24.8830 C   0  0  0  0  0  0  0  0  0  0  0  0
  -21.9120   -4.3290   23.7800 C   0  0  0  0  0  3  0  0  0  0  0  0
  -22.1430   -5.0290   22.5830 C   0  0  0  0  0  0  0  0  0  0  0  0
  -22.6710   -4.3810   21.5170 F   0  0  0  0  0  0  0  0  0  0  0  0
  -21.1180   -4.3140   26.0320 F   0  0  0  0  0  0  0  0  0  0  0  0
  -23.1980  -13.6550   21.1560 C   0  0  0  0  0  0  0  0  0  0  0  0
  -22.5750  -12.9460   22.0910 N   0  0  0  0  0  0  0  0  0  0  0  0
  -22.7190  -14.7060   20.7320 O   0  0  0  0  0  0  0  0  0  0  0  0
  -22.9780  -12.0960   22.4580 H   0  0  0  0  0  0  0  0  0  0  0  0
  -21.6830  -13.2580   22.4470 H   0  0  0  0  0  0  0  0  0  0  0  0
  -25.7480  -15.3020   20.1110 N   0  0  0  0  0  0  0  0  0  0  0  0
  -25.0830  -15.9440   20.5250 H   0  0  0  0  0  0  0  0  0  0  0  0
  -26.7000  -15.6730   20.0900 H   0  0  0  0  0  0  0  0  0  0  0  0
  -29.4300  -23.4690   20.6380 C   0  0  0  0  0  0  0  0  0  0  0  0
  -30.0880  -23.0450   18.7060 C   0  0  0  0  0  2  0  0  0  0  0  0
  -29.8450  -24.3860   19.4440 C   0  0  0  0  0  3  0  0  0  0  0  0
  -30.0300  -22.3880   20.0050 N   0  0  0  0  0  0  0  0  0  0  0  0
  -28.7590  -23.5490   21.6470 O   0  0  0  0  0  0  0  0  0  0  0  0
  -28.7270  -25.3320   18.9500 C   0  0  0  0  0  2  0  0  0  0  0  0
  -28.7360  -26.6640   19.5170 O   0  0  0  0  0  0  0  0  0  0  0  0
  -24.7060  -31.4000   23.0340 C   0  0  0  0  0  0  0  0  0  0  0  0
  -27.5370  -27.3650   19.5450 C   0  0  0  0  0  0  0  0  0  0  0  0
  -23.5570  -30.0880   21.2820 C   0  0  0  0  0  3  0  0  0  0  0  0
  -25.0720  -28.7700   19.7110 C   0  0  0  0  0  0  0  0  0  0  0  0
  -26.0650  -30.5850   21.1070 C   0  0  0  0  0  2  0  0  0  0  0  0
  -26.2120  -29.2840   20.3410 C   0  0  0  0  0  0  0  0  0  0  0  0
  -27.4440  -28.5880   20.2580 C   0  0  0  0  0  3  0  0  0  0  0  0
  -26.3710  -26.8920   18.8920 C   0  0  0  0  0  3  0  0  0  0  0  0
  -25.1480  -27.5750   18.9840 C   0  0  0  0  0  3  0  0  0  0  0  0
  -23.7860  -29.5560   19.8440 C   0  0  0  0  0  2  0  0  0  0  0  0
  -24.7940  -30.7020   21.8650 N   0  0  0  0  0  0  0  0  0  0  0  0
  -23.6160  -31.5660   23.6010 O   0  0  0  0  0  0  0  0  0  0  0  0
  -22.9720  -28.9480   22.1480 C   0  0  0  0  0  0  0  0  0  0  0  0
  -21.6630  -28.6910   21.9930 N   0  0  0  0  0  0  0  0  0  0  0  0
  -23.6930  -28.3060   22.9160 O   0  0  0  0  0  0  0  0  0  0  0  0
  -21.1410  -29.2670   21.3490 H   0  0  0  0  0  0  0  0  0  0  0  0
  -18.3730  -27.2380   22.3520 C   0  0  0  0  0  0  0  0  0  0  0  0
  -20.9060  -27.6420   22.6760 C   0  0  0  0  0  3  0  0  0  0  0  0
  -21.1080  -26.2720   21.9890 C   0  0  0  0  0  2  0  0  0  0  0  0
  -20.0360  -25.9590   20.9400 C   0  0  0  0  0  2  0  0  0  0  0  0
  -18.6440  -25.9610   21.5760 C   0  0  0  0  0  2  0  0  0  0  0  0
  -19.4340  -28.0360   22.8560 C   0  0  0  0  0  0  0  0  0  0  0  0
  -19.1280  -29.2320   23.5410 C   0  0  0  0  0  3  0  0  0  0  0  0
  -17.7910  -29.6310   23.7290 C   0  0  0  0  0  3  0  0  0  0  0  0
  -16.7430  -28.8300   23.2420 C   0  0  0  0  0  3  0  0  0  0  0  0
  -17.0350  -27.6350   22.5600 C   0  0  0  0  0  3  0  0  0  0  0  0
  -25.9630  -32.0390   23.6990 C   0  0  0  0  0  3  0  0  0  0  0  0
  -25.6110  -33.4140   24.0780 N   0  0  0  0  0  0  0  0  0  0  0  0
  -25.9030  -34.5010   23.3510 C   0  0  0  0  0  0  0  0  0  0  0  0
  -26.5690  -34.4530   22.3130 O   0  0  0  0  0  0  0  0  0  0  0  0
  -25.0180  -33.5220   24.8860 H   0  0  0  0  0  0  0  0  0  0  0  0
  -24.1070  -36.2390   23.0690 C   0  0  0  0  0  1  0  0  0  0  0  0
  -25.3700  -35.8550   23.8560 C   0  0  0  0  0  3  0  0  0  0  0  0
  -27.4740  -36.7970   24.6990 C   0  0  0  0  0  1  0  0  0  0  0  0
  -26.3630  -36.9470   23.7650 N   0  0  0  0  0  0  0  0  0  0  0  0
  -25.9260  -37.8490   23.9350 H   0  0  0  0  0  0  0  0  0  0  0  0
  -26.4820  -31.2290   24.9500 C   0  0  1  0  0  0  0  0  0  0  0  0
  -25.3790  -30.9130   25.9870 C   0  0  0  0  0  1  0  0  0  0  0  0
  -27.1160  -29.8880   24.5110 C   0  0  0  0  0  1  0  0  0  0  0  0
  -27.5940  -32.0310   25.6660 C   0  0  0  0  0  1  0  0  0  0  0  0
  1  4  1  0
  2  6  2  0
  2  5  1  0
  3  4  2  0
  4  7  1  0
  5  1  2  0
  6  3  1  0
  8  6  1  0
  9 18  1  0
 10 15  1  0
 11 12  1  0
 11 10  1  0
 13 12  1  0
 13 24  1  0
 13 14  1  0
 15  9  1  0
 15 14  1  0
 16  9  2  0
 17  3  1  0
 17 19  2  0
 18 17  1  0
 20 18  1  0
 21 22  2  0
 22 41  1  0
 23 22  1  0
 23 26  1  0
 24 25  1  0
 24 21  1  0
 25 23  2  0
 26 27  1  0
 27 28  2  0
 29 32  1  0
 29 28  1  0
 30 29  2  0
 31 30  1  0
 31 26  2  0
 32 33  1  0
 33 38  2  0
 33 34  1  0
 34 35  2  0
 35 36  1  0
 36 40  1  0
 37 36  2  0
 38 37  1  0
 39 38  1  0
 41 42  1  0
 42 45  1  0
 42 44  1  0
 43 41  2  0
 46 21  1  0
 46 47  1  0
 48 46  1  0
 49 53  2  0
 50 51  1  0
 50 52  1  0
 51 54  1  0
 51 49  1  0
 52  5  1  0
 52 49  1  0
 54 55  1  0
 55 57  1  0
 56 67  2  0
 57 62  1  0
 58 66  1  0
 58 68  1  0
 59 65  1  0
 59 61  1  0
 60 66  1  0
 61 60  1  0
 62 61  2  0
 63 64  1  0
 63 57  2  0
 64 59  2  0
 65 58  1  0
 66 56  1  0
 68 70  2  0
 69 68  1  0
 71 69  1  0
 72 81  2  0
 72 77  1  0
 73 69  1  0
 73 77  1  0
 74 73  1  0
 75 76  1  0
 75 74  1  0
 76 72  1  0
 77 78  2  0
 78 79  1  0
 80 79  2  0
 81 80  1  0
 82 56  1  0
 82 83  1  0
 82 92  1  0
 83 86  1  0
 84 88  1  0
 84 83  1  0
 85 84  2  0
 88 87  1  0
 90 88  1  0
 90 91  1  0
 90 89  1  0
 92 95  1  1
 92 93  1  0
 94 92  1  0
M  ISO  4   9 100  18 100  54 101  55 101
M  END
>  <TORSDO>  (87) 
F 18

>  <SCORE>  (87) 
-7.638

>  <name>  (87) 
87

>  <ligand_id>  (87) 
87

>  <original_smiles>  (87) 
[H]c1c([H])c([H])c2c(c1[H])C([H])([H])C([H])([H])C([H])([H])C2([H])N([H])C(=O)C1([H])N(C(=O)C([H])(N([H])C(=O)C([H])(N([H])C([H])([H])[H])C([H])([H])[H])C(C([H])([H])[H])(C([H])([H])[H])C([H])([H])[H])C([H])([H])c2c([H])c(OC([H])([H])C3([H])C(=O)N(c4c([H])c(F)c(C(=O)N([H])C(=O)N5C([H])([H])C([H])([H])C([H])([H])C([H])(n6nc(-c7c([H])c([H])c(Oc8c([H])c([H])c(F)c([H])c8F)c([H])c7[H])c(C(=O)N([H])[H])c6N([H])[H])C5([H])[H])c(C([H])([H])[H])c4[H])C3([H])[H])c([H])c([H])c2C1([H])[H]

>  <smiles>  (87) 
[H]c1c([H])c([H])c2c(c1[H])C([H])([H])C([H])([H])C([H])([H])C2([H])N([H])C(=O)C1([H])N(C(=O)C([H])(N([H])C(=O)C([H])(N([H])C([H])([H])[H])C([H])([H])[H])C(C([H])([H])[H])(C([H])([H])[H])C([H])([H])[H])C([H])([H])c2c([H])c(OC([H])([H])C3([H])C(=O)N(c4c([H])c(F)c(C(=O)N([H])C(=O)N5C([H])([H])C([H])([H])C([H])([H])C([H])(n6nc(-c7c([H])c([H])c(Oc8c([H])c([H])c(F)c([H])c8F)c([H])c7[H])c(C(=O)N([H])[H])c6N([H])[H])C5([H])[H])c(C([H])([H])[H])c4[H])C3([H])[H])c([H])c([H])c2C1([H])[H]

$$$$
88:0:0
     RDKit          3D

 96105  0  0  1  0  0  0  0  0999 V2000
  -29.6110  -20.8570   20.1930 C   0  0  0  0  0  2  0  0  0  0  0  0
  -29.0540  -24.5130   21.2600 C   0  0  0  0  0  0  0  0  0  0  0  0
  -28.7730  -25.8500   21.1730 C   0  0  0  0  0  3  0  0  0  0  0  0
  -29.7740  -23.9290   22.4500 C   0  0  0  0  0  2  0  0  0  0  0  0
  -28.8180  -23.3330   20.2880 C   0  0  0  0  0  2  0  0  0  0  0  0
  -30.3180  -22.5910   21.9360 C   0  0  0  0  0  2  0  0  0  0  0  0
  -29.2670  -22.0850   21.0200 N   0  0  2  0  0  4  0  0  0  0  0  0
  -28.4820  -21.8180   21.5940 H   0  0  0  0  0  0  0  0  0  0  0  0
  -28.3120  -26.5530   20.0770 O   0  0  0  0  0  0  0  0  0  0  0  0
  -24.6520  -31.9340   23.2520 C   0  0  0  0  0  0  0  0  0  0  0  0
  -27.2110  -27.3900   20.1920 C   0  0  0  0  0  0  0  0  0  0  0  0
  -23.4200  -30.5310   21.6340 C   0  0  0  0  0  3  0  0  0  0  0  0
  -24.8460  -28.9630   20.2120 C   0  0  0  0  0  0  0  0  0  0  0  0
  -25.9530  -30.8480   21.4170 C   0  0  0  0  0  2  0  0  0  0  0  0
  -26.0210  -29.4640   20.7940 C   0  0  0  0  0  0  0  0  0  0  0  0
  -27.2110  -28.6830   20.7870 C   0  0  0  0  0  3  0  0  0  0  0  0
  -26.0220  -26.9250   19.6020 C   0  0  0  0  0  3  0  0  0  0  0  0
  -24.8430  -27.6930   19.6160 C   0  0  0  0  0  3  0  0  0  0  0  0
  -23.6130  -29.8400   20.2590 C   0  0  0  0  0  2  0  0  0  0  0  0
  -24.6940  -31.1220   22.1580 N   0  0  0  0  0  0  0  0  0  0  0  0
  -23.5780  -32.2210   23.8000 O   0  0  0  0  0  0  0  0  0  0  0  0
  -22.7670  -29.5240   22.6090 C   0  0  0  0  0  0  0  0  0  0  0  0
  -21.4380  -29.3500   22.4970 N   0  0  0  0  0  0  0  0  0  0  0  0
  -23.4520  -28.9010   23.4230 O   0  0  0  0  0  0  0  0  0  0  0  0
  -20.9460  -29.9040   21.8100 H   0  0  0  0  0  0  0  0  0  0  0  0
  -18.0630  -28.1700   23.0280 C   0  0  0  0  0  0  0  0  0  0  0  0
  -20.6230  -28.4240   23.2820 C   0  0  0  0  0  3  0  0  0  0  0  0
  -20.7180  -26.9860   22.7220 C   0  0  0  0  0  2  0  0  0  0  0  0
  -19.6090  -26.6550   21.7190 C   0  0  0  0  0  2  0  0  0  0  0  0
  -18.2320  -26.8120   22.3670 C   0  0  0  0  0  2  0  0  0  0  0  0
  -19.1860  -28.9340   23.4430 C   0  0  0  0  0  0  0  0  0  0  0  0
  -18.9740  -30.2050   24.0190 C   0  0  0  0  0  3  0  0  0  0  0  0
  -17.6720  -30.7120   24.1860 C   0  0  0  0  0  3  0  0  0  0  0  0
  -16.5630  -29.9440   23.7860 C   0  0  0  0  0  3  0  0  0  0  0  0
  -16.7590  -28.6770   23.2130 C   0  0  0  0  0  3  0  0  0  0  0  0
  -25.9490  -32.5600   23.8540 C   0  0  0  0  0  3  0  0  0  0  0  0
  -26.4940  -31.7740   25.1080 C   0  0  1  0  0  0  0  0  0  0  0  0
  -25.4230  -31.5150   26.1940 C   0  0  0  0  0  1  0  0  0  0  0  0
  -27.0750  -30.4050   24.6820 C   0  0  0  0  0  1  0  0  0  0  0  0
  -27.6550  -32.5620   25.7560 C   0  0  0  0  0  1  0  0  0  0  0  0
  -25.6450  -33.9540   24.2090 N   0  0  0  0  0  0  0  0  0  0  0  0
  -25.9520  -35.0160   23.4510 C   0  0  0  0  0  0  0  0  0  0  0  0
  -26.5920  -34.9250   22.3990 O   0  0  0  0  0  0  0  0  0  0  0  0
  -25.0770  -34.0980   25.0300 H   0  0  0  0  0  0  0  0  0  0  0  0
  -24.2130  -36.8080   23.1590 C   0  0  0  0  0  1  0  0  0  0  0  0
  -25.4730  -36.3970   23.9360 C   0  0  0  0  0  3  0  0  0  0  0  0
  -27.6220  -37.2790   24.7320 C   0  0  0  0  0  1  0  0  0  0  0  0
  -26.5020  -37.4520   23.8120 N   0  0  0  0  0  0  0  0  0  0  0  0
  -26.0970  -38.3700   23.9740 H   0  0  0  0  0  0  0  0  0  0  0  0
  -30.2650  -19.4120   22.2740 C   0  0  0  0  0  3  0  0  0  0  0  0
  -29.9140  -18.2420   20.1730 C   0  0  0  0  0  3  0  0  0  0  0  0
  -30.6460  -16.9970   22.1380 C   0  0  0  0  0  3  0  0  0  0  0  0
  -29.9380  -19.4860   20.8970 C   0  0  0  0  0  0  0  0  0  0  0  0
  -30.6320  -18.1930   22.8800 C   0  0  0  0  0  0  0  0  0  0  0  0
  -30.2640  -16.9890   20.7820 C   0  0  0  0  0  0  0  0  0  0  0  0
  -30.8580  -14.6210   20.0400 C   0  0  0  0  0  0  0  0  0  0  0  0
  -30.5550  -12.4020   18.9650 C   0  0  0  0  0  2  0  0  0  0  0  0
  -29.5680  -12.5520   17.7880 C   0  0  0  0  0  2  0  0  0  0  0  0
  -28.1070  -12.4350   18.2720 C   0  0  0  0  0  2  0  0  0  0  0  0
  -27.8120  -13.3140   19.5160 C   0  0  0  0  0  3  0  0  0  0  0  0
  -28.9050  -13.1350   20.5930 C   0  0  0  0  0  2  0  0  0  0  0  0
  -30.1980  -13.4280   19.9580 N   0  0  0  0  0  0  0  0  0  0  0  0
  -32.0420  -14.7450   19.7150 O   0  0  0  0  0  0  0  0  0  0  0  0
  -30.0400  -15.7070   20.1520 N   0  0  0  0  0  0  0  0  0  0  0  0
  -29.0670  -15.4600   20.0730 H   0  0  0  0  0  0  0  0  0  0  0  0
  -25.4690  -13.9880   20.3280 C   0  0  0  0  0  0  0  0  0  0  0  0
  -24.3900  -13.2460   20.7250 C   0  0  0  0  0  0  0  0  0  0  0  0
  -24.8050  -11.8800   20.6610 C   0  0  0  0  0  0  0  0  0  0  0  0
  -26.4740  -13.0760   20.0480 N   0  0  0  0  0  0  0  0  0  0  0  0
  -26.0820  -11.8030   20.3090 N   0  0  0  0  0  0  0  0  0  0  0  0
  -24.0440  -10.6400   20.8580 C   0  0  0  0  0  0  0  0  0  0  0  0
  -24.4600   -9.6580   21.7830 C   0  0  0  0  0  3  0  0  0  0  0  0
  -23.7010   -8.4820   21.9680 C   0  0  0  0  0  3  0  0  0  0  0  0
  -22.5130   -8.2810   21.2270 C   0  0  0  0  0  0  0  0  0  0  0  0
  -22.1160   -9.2520   20.2900 C   0  0  0  0  0  3  0  0  0  0  0  0
  -22.8750  -10.4180   20.1030 C   0  0  0  0  0  3  0  0  0  0  0  0
  -21.7270   -7.1580   21.3210 O   0  0  0  0  0  0  0  0  0  0  0  0
  -21.6320   -6.4410   22.4870 C   0  0  0  0  0  0  0  0  0  0  0  0
  -21.1770   -7.0290   23.6880 C   0  0  0  0  0  3  0  0  0  0  0  0
  -21.0290   -6.2400   24.8460 C   0  0  0  0  0  3  0  0  0  0  0  0
  -21.3250   -4.8640   24.8040 C   0  0  0  0  0  0  0  0  0  0  0  0
  -21.7730   -4.2760   23.6080 C   0  0  0  0  0  3  0  0  0  0  0  0
  -21.9230   -5.0630   22.4520 C   0  0  0  0  0  0  0  0  0  0  0  0
  -22.3350   -4.4870   21.2970 F   0  0  0  0  0  0  0  0  0  0  0  0
  -21.1760   -4.1040   25.9140 F   0  0  0  0  0  0  0  0  0  0  0  0
  -23.0180  -13.7650   21.0490 C   0  0  0  0  0  0  0  0  0  0  0  0
  -22.3100  -13.1000   21.9540 N   0  0  0  0  0  0  0  0  0  0  0  0
  -22.5860  -14.7960   20.5350 O   0  0  0  0  0  0  0  0  0  0  0  0
  -22.6720  -12.2660   22.3900 H   0  0  0  0  0  0  0  0  0  0  0  0
  -21.3920  -13.4320   22.2150 H   0  0  0  0  0  0  0  0  0  0  0  0
  -25.6700  -15.3550   20.1620 N   0  0  0  0  0  0  0  0  0  0  0  0
  -24.9240  -16.0270   20.3110 H   0  0  0  0  0  0  0  0  0  0  0  0
  -26.5080  -15.7790   19.7850 H   0  0  0  0  0  0  0  0  0  0  0  0
  -30.9590  -18.1640   24.2340 N   0  0  0  0  0  0  0  0  0  0  0  0
  -30.6810  -18.9410   24.8280 H   0  0  0  0  0  0  0  0  0  0  0  0
  -30.9330  -17.2720   24.7190 H   0  0  0  0  0  0  0  0  0  0  0  0
  1 53  1  0
  1  7  1  0
  2  4  1  0
  3  2  2  0
  5  7  1  0
  5  2  1  0
  6  4  1  0
  7  8  1  1
  7  6  1  0
  9 11  1  0
  9  3  1  0
 10 21  2  0
 11 16  1  0
 12 20  1  0
 12 22  1  0
 13 19  1  0
 13 15  1  0
 14 20  1  0
 15 14  1  0
 16 15  2  0
 17 18  1  0
 17 11  2  0
 18 13  2  0
 19 12  1  0
 20 10  1  0
 22 24  2  0
 23 22  1  0
 25 23  1  0
 26 35  2  0
 26 31  1  0
 27 23  1  0
 27 31  1  0
 28 27  1  0
 29 30  1  0
 29 28  1  0
 30 26  1  0
 31 32  2  0
 32 33  1  0
 34 33  2  0
 35 34  1  0
 36 10  1  0
 36 41  1  0
 36 37  1  0
 37 40  1  1
 37 38  1  0
 39 37  1  0
 41 44  1  0
 42 46  1  0
 42 41  1  0
 43 42  2  0
 46 45  1  0
 48 46  1  0
 48 49  1  0
 48 47  1  0
 50 54  1  0
 51 55  2  0
 51 53  1  0
 52 54  2  0
 53 50  2  0
 54 94  1  0
 55 52  1  0
 56 64  1  0
 57 62  1  0
 58 59  1  0
 58 57  1  0
 60 59  1  0
 60 69  1  0
 60 61  1  0
 62 56  1  0
 62 61  1  0
 63 56  2  0
 64 55  1  0
 65 64  1  0
 66 67  2  0
 67 86  1  0
 68 67  1  0
 68 71  1  0
 69 70  1  0
 69 66  1  0
 70 68  2  0
 71 72  1  0
 72 73  2  0
 74 77  1  0
 74 73  1  0
 75 74  2  0
 76 75  1  0
 76 71  2  0
 77 78  1  0
 78 79  1  0
 79 80  2  0
 81 80  1  0
 81 85  1  0
 82 81  2  0
 83 78  2  0
 83 82  1  0
 84 83  1  0
 86 87  1  0
 87 90  1  0
 87 89  1  0
 88 86  2  0
 91 92  1  0
 91 66  1  0
 93 91  1  0
 94 96  1  0
 94 95  1  0
M  ISO  4   3 101   9 101  56 100  64 100
M  END
>  <TORSDO>  (88) 
F 19

>  <SCORE>  (88) 
-13.674

>  <name>  (88) 
88

>  <ligand_id>  (88) 
88

>  <original_smiles>  (88) 
[H]C(Oc1c([H])c([H])c2c(c1[H])C([H])([H])N(C(=O)C([H])(N([H])C(=O)C([H])(N([H])C([H])([H])[H])C([H])([H])[H])C(C([H])([H])[H])(C([H])([H])[H])C([H])([H])[H])C([H])(C(=O)N([H])C1([H])c3c([H])c([H])c([H])c([H])c3C([H])([H])C([H])([H])C1([H])[H])C2([H])[H])=C1C([H])([H])C([H])([H])[N+]([H])(C([H])([H])c2c([H])c(N([H])[H])c([H])c(N([H])C(=O)N3C([H])([H])C([H])([H])C([H])([H])C([H])(n4nc(-c5c([H])c([H])c(Oc6c([H])c([H])c(F)c([H])c6F)c([H])c5[H])c(C(=O)N([H])[H])c4N([H])[H])C3([H])[H])c2[H])C1([H])[H]

>  <smiles>  (88) 
[H]C(Oc1c([H])c([H])c2c(c1[H])C([H])([H])N(C(=O)C([H])(N([H])C(=O)C([H])(N([H])C([H])([H])[H])C([H])([H])[H])C(C([H])([H])[H])(C([H])([H])[H])C([H])([H])[H])C([H])(C(=O)N([H])C1([H])c3c([H])c([H])c([H])c([H])c3C([H])([H])C([H])([H])C1([H])[H])C2([H])[H])=C1C([H])([H])C([H])([H])[N+]([H])(C([H])([H])c2c([H])c(N([H])[H])c([H])c(N([H])C(=O)N3C([H])([H])C([H])([H])C([H])([H])C([H])(n4nc(-c5c([H])c([H])c(Oc6c([H])c([H])c(F)c([H])c6F)c([H])c5[H])c(C(=O)N([H])[H])c4N([H])[H])C3([H])[H])c2[H])C1([H])[H]

$$$$
89:0:0
     RDKit          3D

 94103  0  0  1  0  0  0  0  0999 V2000
  -28.9530  -24.0300   20.0440 C   0  0  0  0  0  0  0  0  0  0  0  0
  -28.8070  -22.6630   20.6030 C   0  0  0  0  0  0  0  0  0  0  0  0
  -28.3090  -25.1550   20.5180 C   0  0  0  0  0  3  0  0  0  0  0  0
  -29.8990  -23.9610   18.8840 C   0  0  0  0  0  3  0  0  0  0  0  0
  -30.1160  -22.4450   18.6890 C   0  0  0  0  0  3  0  0  0  0  0  0
  -29.5260  -21.7580   19.8510 N   0  0  0  0  0  0  0  0  0  0  0  0
  -28.1370  -22.3620   21.5970 O   0  0  0  0  0  0  0  0  0  0  0  0
  -30.2530  -18.3600   21.5530 C   0  0  0  0  0  3  0  0  0  0  0  0
  -30.0260  -19.7560   21.3490 C   0  0  0  0  0  3  0  0  0  0  0  0
  -29.9050  -17.9280   19.2360 C   0  0  0  0  0  3  0  0  0  0  0  0
  -30.1860  -17.3770   20.5160 C   0  0  0  0  0  0  0  0  0  0  0  0
  -29.7250  -20.3010   20.0730 C   0  0  0  0  0  0  0  0  0  0  0  0
  -29.6870  -19.3310   19.0180 C   0  0  0  0  0  0  0  0  0  0  0  0
  -29.3990  -19.7260   17.7570 F   0  0  0  0  0  0  0  0  0  0  0  0
  -30.2680  -15.8650   20.8800 C   0  0  0  0  0  0  0  0  0  0  0  0
  -29.8800  -15.5590   22.0490 N   0  0  0  0  0  0  0  0  0  0  0  0
  -29.5300  -16.3710   22.5420 H   0  0  0  0  0  0  0  0  0  0  0  0
  -30.8650  -14.7360   19.9250 C   0  0  0  0  0  0  0  0  0  0  0  0
  -30.5450  -12.5580   18.7280 C   0  0  0  0  0  2  0  0  0  0  0  0
  -29.4950  -12.7360   17.6050 C   0  0  0  0  0  2  0  0  0  0  0  0
  -28.0600  -12.5550   18.1440 C   0  0  0  0  0  2  0  0  0  0  0  0
  -27.8230  -13.3500   19.4540 C   0  0  0  0  0  3  0  0  0  0  0  0
  -28.9640  -13.0750   20.4520 C   0  0  0  0  0  2  0  0  0  0  0  0
  -30.2270  -13.5090   19.8220 N   0  0  0  0  0  0  0  0  0  0  0  0
  -31.9030  -14.9490   19.2860 O   0  0  0  0  0  0  0  0  0  0  0  0
  -25.5080  -13.9520   20.3940 C   0  0  0  0  0  0  0  0  0  0  0  0
  -24.4680  -13.1790   20.8340 C   0  0  0  0  0  0  0  0  0  0  0  0
  -24.9070  -11.8260   20.7170 C   0  0  0  0  0  0  0  0  0  0  0  0
  -26.5150  -13.0690   20.0390 N   0  0  0  0  0  0  0  0  0  0  0  0
  -26.1630  -11.7820   20.2900 N   0  0  0  0  0  0  0  0  0  0  0  0
  -24.1830  -10.5660   20.9320 C   0  0  0  0  0  0  0  0  0  0  0  0
  -24.6190   -9.6180   21.8830 C   0  0  0  0  0  3  0  0  0  0  0  0
  -23.8980   -8.4220   22.0830 C   0  0  0  0  0  3  0  0  0  0  0  0
  -22.7250   -8.1670   21.3350 C   0  0  0  0  0  0  0  0  0  0  0  0
  -22.3080   -9.1030   20.3720 C   0  0  0  0  0  3  0  0  0  0  0  0
  -23.0310  -10.2910   20.1700 C   0  0  0  0  0  3  0  0  0  0  0  0
  -21.9730   -7.0230   21.4450 O   0  0  0  0  0  0  0  0  0  0  0  0
  -21.8460   -6.3560   22.6370 C   0  0  0  0  0  0  0  0  0  0  0  0
  -21.3320   -6.9850   23.7910 C   0  0  0  0  0  3  0  0  0  0  0  0
  -21.1540   -6.2430   24.9760 C   0  0  0  0  0  3  0  0  0  0  0  0
  -21.4800   -4.8740   25.0060 C   0  0  0  0  0  0  0  0  0  0  0  0
  -21.9880   -4.2450   23.8560 C   0  0  0  0  0  3  0  0  0  0  0  0
  -22.1680   -4.9840   22.6740 C   0  0  0  0  0  0  0  0  0  0  0  0
  -22.6370   -4.3690   21.5630 F   0  0  0  0  0  0  0  0  0  0  0  0
  -21.3020   -4.1600   26.1420 F   0  0  0  0  0  0  0  0  0  0  0  0
  -23.1070  -13.6630   21.2480 C   0  0  0  0  0  0  0  0  0  0  0  0
  -22.4570  -12.9520   22.1630 N   0  0  0  0  0  0  0  0  0  0  0  0
  -22.6350  -14.7060   20.7960 O   0  0  0  0  0  0  0  0  0  0  0  0
  -22.8550  -12.1080   22.5490 H   0  0  0  0  0  0  0  0  0  0  0  0
  -21.5480  -13.2560   22.4820 H   0  0  0  0  0  0  0  0  0  0  0  0
  -25.6760  -15.3270   20.2500 N   0  0  0  0  0  0  0  0  0  0  0  0
  -24.9360  -15.9890   20.4530 H   0  0  0  0  0  0  0  0  0  0  0  0
  -26.5180  -15.7700   19.9020 H   0  0  0  0  0  0  0  0  0  0  0  0
  -28.4440  -26.4920   20.0770 O   0  0  0  0  0  0  0  0  0  0  0  0
  -24.5360  -31.7920   23.0880 C   0  0  0  0  0  0  0  0  0  0  0  0
  -27.3080  -27.3120   20.0700 C   0  0  0  0  0  0  0  0  0  0  0  0
  -23.3860  -30.3500   21.4450 C   0  0  0  0  0  3  0  0  0  0  0  0
  -24.8920  -28.8380   20.0360 C   0  0  0  0  0  0  0  0  0  0  0  0
  -25.9120  -30.7520   21.2710 C   0  0  0  0  0  2  0  0  0  0  0  0
  -26.0410  -29.3720   20.6360 C   0  0  0  0  0  0  0  0  0  0  0  0
  -27.2550  -28.6210   20.6440 C   0  0  0  0  0  3  0  0  0  0  0  0
  -26.1370  -26.8250   19.4530 C   0  0  0  0  0  3  0  0  0  0  0  0
  -24.9400  -27.5690   19.4370 C   0  0  0  0  0  3  0  0  0  0  0  0
  -23.6290  -29.6750   20.0690 C   0  0  0  0  0  2  0  0  0  0  0  0
  -24.6300  -30.9820   21.9920 N   0  0  0  0  0  0  0  0  0  0  0  0
  -23.4410  -32.0340   23.6170 O   0  0  0  0  0  0  0  0  0  0  0  0
  -22.7460  -29.3170   22.4040 C   0  0  0  0  0  0  0  0  0  0  0  0
  -21.4240  -29.1140   22.2820 N   0  0  0  0  0  0  0  0  0  0  0  0
  -23.4390  -28.7030   23.2180 O   0  0  0  0  0  0  0  0  0  0  0  0
  -20.9210  -29.6650   21.6010 H   0  0  0  0  0  0  0  0  0  0  0  0
  -18.0790  -27.8280   22.7650 C   0  0  0  0  0  0  0  0  0  0  0  0
  -20.6270  -28.1570   23.0520 C   0  0  0  0  0  3  0  0  0  0  0  0
  -20.7730  -26.7270   22.4840 C   0  0  0  0  0  2  0  0  0  0  0  0
  -19.6870  -26.3690   21.4640 C   0  0  0  0  0  2  0  0  0  0  0  0
  -18.2970  -26.4800   22.0980 C   0  0  0  0  0  2  0  0  0  0  0  0
  -19.1720  -28.6220   23.1990 C   0  0  0  0  0  0  0  0  0  0  0  0
  -18.9140  -29.8830   23.7800 C   0  0  0  0  0  3  0  0  0  0  0  0
  -17.5950  -30.3460   23.9370 C   0  0  0  0  0  3  0  0  0  0  0  0
  -16.5150  -29.5470   23.5220 C   0  0  0  0  0  3  0  0  0  0  0  0
  -16.7580  -28.2920   22.9400 C   0  0  0  0  0  3  0  0  0  0  0  0
  -25.7950  -32.4660   23.7150 C   0  0  0  0  0  3  0  0  0  0  0  0
  -25.4350  -33.8490   24.0650 N   0  0  0  0  0  0  0  0  0  0  0  0
  -25.7400  -34.9230   23.3250 C   0  0  0  0  0  0  0  0  0  0  0  0
  -26.4250  -34.8570   22.3010 O   0  0  0  0  0  0  0  0  0  0  0  0
  -24.8340  -33.9690   24.8670 H   0  0  0  0  0  0  0  0  0  0  0  0
  -23.9730  -36.6730   22.9580 C   0  0  0  0  0  1  0  0  0  0  0  0
  -25.2000  -36.2880   23.7970 C   0  0  0  0  0  3  0  0  0  0  0  0
  -27.2870  -37.2130   24.7050 C   0  0  0  0  0  1  0  0  0  0  0  0
  -26.2060  -37.3720   23.7360 N   0  0  0  0  0  0  0  0  0  0  0  0
  -25.7700  -38.2760   23.8950 H   0  0  0  0  0  0  0  0  0  0  0  0
  -26.3420  -31.7000   24.9820 C   0  0  1  0  0  0  0  0  0  0  0  0
  -25.2590  -31.4070   26.0480 C   0  0  0  0  0  1  0  0  0  0  0  0
  -26.9790  -30.3510   24.5730 C   0  0  0  0  0  1  0  0  0  0  0  0
  -27.4590  -32.5320   25.6570 C   0  0  0  0  0  1  0  0  0  0  0  0
  1  3  2  0
  1  2  1  0
  2  7  2  0
  4  1  1  0
  5  4  2  0
  5  6  1  0
  6 12  1  0
  6  2  1  0
  9  8  1  0
 10 11  1  0
 11 15  1  0
 11  8  2  0
 12  9  2  0
 13 10  2  0
 13 12  1  0
 14 13  1  0
 15 16  2  0
 16 17  1  0
 18 15  1  0
 19 24  1  0
 20 21  1  0
 20 19  1  0
 22 21  1  0
 22 29  1  0
 22 23  1  0
 24 18  1  0
 24 23  1  0
 25 18  2  0
 26 27  2  0
 27 46  1  0
 28 27  1  0
 28 31  1  0
 29 30  1  0
 29 26  1  0
 30 28  2  0
 31 32  1  0
 32 33  2  0
 34 37  1  0
 34 33  1  0
 35 34  2  0
 36 35  1  0
 36 31  2  0
 37 38  1  0
 38 43  2  0
 38 39  1  0
 39 40  2  0
 40 41  1  0
 41 45  1  0
 42 41  2  0
 43 42  1  0
 44 43  1  0
 46 47  1  0
 47 50  1  0
 47 49  1  0
 48 46  2  0
 51 26  1  0
 51 52  1  0
 53 51  1  0
 54  3  1  0
 55 66  2  0
 56 54  1  0
 56 61  1  0
 57 65  1  0
 57 67  1  0
 58 64  1  0
 58 60  1  0
 59 65  1  0
 60 61  2  0
 60 59  1  0
 62 56  2  0
 63 62  1  0
 63 58  2  0
 64 57  1  0
 65 55  1  0
 67 69  2  0
 68 67  1  0
 70 68  1  0
 71 80  2  0
 71 76  1  0
 72 68  1  0
 72 76  1  0
 73 72  1  0
 74 75  1  0
 74 73  1  0
 75 71  1  0
 76 77  2  0
 77 78  1  0
 79 78  2  0
 80 79  1  0
 81 55  1  0
 81 82  1  0
 81 91  1  0
 82 85  1  0
 83 87  1  0
 83 82  1  0
 84 83  2  0
 87 86  1  0
 89 87  1  0
 89 90  1  0
 89 88  1  0
 91 94  1  1
 91 92  1  0
 93 91  1  0
M  ISO  4   3 101  15 100  18 100  54 101
M  END
>  <TORSDO>  (89) 
F 18

>  <SCORE>  (89) 
-14.028

>  <name>  (89) 
89

>  <ligand_id>  (89) 
89

>  <original_smiles>  (89) 
[H]N=C(C(=O)N1C([H])([H])C([H])([H])C([H])([H])C([H])(n2nc(-c3c([H])c([H])c(Oc4c([H])c([H])c(F)c([H])c4F)c([H])c3[H])c(C(=O)N([H])[H])c2N([H])[H])C1([H])[H])c1c([H])c([H])c(N2C(=O)C(=C([H])Oc3c([H])c([H])c4c(c3[H])C([H])([H])N(C(=O)C([H])(N([H])C(=O)C([H])(N([H])C([H])([H])[H])C([H])([H])[H])C(C([H])([H])[H])(C([H])([H])[H])C([H])([H])[H])C([H])(C(=O)N([H])C3([H])c5c([H])c([H])c([H])c([H])c5C([H])([H])C([H])([H])C3([H])[H])C4([H])[H])C([H])([H])C2([H])[H])c(F)c1[H]

>  <smiles>  (89) 
[H]N=C(C(=O)N1C([H])([H])C([H])([H])C([H])([H])C([H])(n2nc(-c3c([H])c([H])c(Oc4c([H])c([H])c(F)c([H])c4F)c([H])c3[H])c(C(=O)N([H])[H])c2N([H])[H])C1([H])[H])c1c([H])c([H])c(N2C(=O)C(=C([H])Oc3c([H])c([H])c4c(c3[H])C([H])([H])N(C(=O)C([H])(N([H])C(=O)C([H])(N([H])C([H])([H])[H])C([H])([H])[H])C(C([H])([H])[H])(C([H])([H])[H])C([H])([H])[H])C([H])(C(=O)N([H])C3([H])c5c([H])c([H])c([H])c([H])c5C([H])([H])C([H])([H])C3([H])[H])C4([H])[H])C([H])([H])C2([H])[H])c(F)c1[H]

$$$$
90:0:0
     RDKit          3D

 93101  0  0  1  0  0  0  0  0999 V2000
  -29.4930  -21.2550   20.7040 C   0  0  0  0  0  0  0  0  0  0  0  0
  -29.0000  -23.7500   20.5370 C   0  0  0  0  0  0  0  0  0  0  0  0
  -28.8260  -22.3920   20.2280 N   0  0  0  0  0  0  0  0  0  0  0  0
  -30.2740  -21.3350   21.6560 O   0  0  0  0  0  0  0  0  0  0  0  0
  -29.9260  -24.1400   21.2580 O   0  0  0  0  0  0  0  0  0  0  0  0
  -28.1050  -22.2050   19.5490 H   0  0  0  0  0  0  0  0  0  0  0  0
  -28.8780  -18.4820   18.0500 C   0  0  0  0  0  3  0  0  0  0  0  0
  -28.9210  -19.7260   18.7180 C   0  0  0  0  0  3  0  0  0  0  0  0
  -29.2420  -17.2820   18.6930 C   0  0  0  0  0  3  0  0  0  0  0  0
  -29.3150  -19.8260   20.0720 C   0  0  0  0  0  0  0  0  0  0  0  0
  -29.6360  -17.2600   20.0480 C   0  0  0  0  0  0  0  0  0  0  0  0
  -29.6420  -18.5520   20.7300 C   0  0  0  0  0  0  0  0  0  0  0  0
  -29.9640  -18.5470   22.0460 F   0  0  0  0  0  0  0  0  0  0  0  0
  -30.5870  -14.8290   20.2470 C   0  0  0  0  0  0  0  0  0  0  0  0
  -30.4080  -12.5480   19.2390 C   0  0  0  0  0  2  0  0  0  0  0  0
  -29.4450  -12.6290   18.0330 C   0  0  0  0  0  2  0  0  0  0  0  0
  -27.9790  -12.4590   18.4790 C   0  0  0  0  0  2  0  0  0  0  0  0
  -27.6330  -13.3210   19.7230 C   0  0  0  0  0  3  0  0  0  0  0  0
  -28.7130  -13.2030   20.8210 C   0  0  0  0  0  2  0  0  0  0  0  0
  -29.9970  -13.5820   20.2210 N   0  0  0  0  0  0  0  0  0  0  0  0
  -31.7320  -14.9650   19.8030 O   0  0  0  0  0  0  0  0  0  0  0  0
  -29.8440  -15.9230   20.6780 N   0  0  0  0  0  0  0  0  0  0  0  0
  -29.0900  -15.6600   21.2930 H   0  0  0  0  0  0  0  0  0  0  0  0
  -25.2590  -13.9020   20.5060 C   0  0  0  0  0  0  0  0  0  0  0  0
  -24.2020  -13.1220   20.8870 C   0  0  0  0  0  0  0  0  0  0  0  0
  -24.6630  -11.7710   20.8270 C   0  0  0  0  0  0  0  0  0  0  0  0
  -26.2970  -13.0260   20.2350 N   0  0  0  0  0  0  0  0  0  0  0  0
  -25.9480  -11.7370   20.4910 N   0  0  0  0  0  0  0  0  0  0  0  0
  -23.9390  -10.5070   21.0180 C   0  0  0  0  0  0  0  0  0  0  0  0
  -24.3810   -9.5350   21.9410 C   0  0  0  0  0  3  0  0  0  0  0  0
  -23.6560   -8.3370   22.1200 C   0  0  0  0  0  3  0  0  0  0  0  0
  -22.4760   -8.1010   21.3760 C   0  0  0  0  0  0  0  0  0  0  0  0
  -22.0540   -9.0630   20.4420 C   0  0  0  0  0  3  0  0  0  0  0  0
  -22.7790  -10.2520   20.2600 C   0  0  0  0  0  3  0  0  0  0  0  0
  -21.7210   -6.9560   21.4650 O   0  0  0  0  0  0  0  0  0  0  0  0
  -21.6700   -6.2160   22.6190 C   0  0  0  0  0  0  0  0  0  0  0  0
  -21.2140   -6.7650   23.8380 C   0  0  0  0  0  3  0  0  0  0  0  0
  -21.1100   -5.9500   24.9820 C   0  0  0  0  0  3  0  0  0  0  0  0
  -21.4530   -4.5870   24.9100 C   0  0  0  0  0  0  0  0  0  0  0  0
  -21.9020   -4.0370   23.6970 C   0  0  0  0  0  3  0  0  0  0  0  0
  -22.0080   -4.8490   22.5530 C   0  0  0  0  0  0  0  0  0  0  0  0
  -22.4190   -4.3080   21.3810 F   0  0  0  0  0  0  0  0  0  0  0  0
  -21.3470   -3.8020   26.0070 F   0  0  0  0  0  0  0  0  0  0  0  0
  -22.8120  -13.5970   21.1960 C   0  0  0  0  0  0  0  0  0  0  0  0
  -22.1020  -12.8900   22.0680 N   0  0  0  0  0  0  0  0  0  0  0  0
  -22.3660  -14.6300   20.6990 O   0  0  0  0  0  0  0  0  0  0  0  0
  -22.4780  -12.0550   22.4910 H   0  0  0  0  0  0  0  0  0  0  0  0
  -21.1700  -13.1890   22.3160 H   0  0  0  0  0  0  0  0  0  0  0  0
  -25.4190  -15.2750   20.3470 N   0  0  0  0  0  0  0  0  0  0  0  0
  -24.6530  -15.9250   20.4910 H   0  0  0  0  0  0  0  0  0  0  0  0
  -26.2580  -15.7240   20.0020 H   0  0  0  0  0  0  0  0  0  0  0  0
  -28.0180  -24.8950   19.9680 C   0  0  0  0  0  2  0  0  0  0  0  0
  -28.2630  -26.3550   20.3240 O   0  0  0  0  0  0  0  0  0  0  0  0
  -24.6050  -31.9310   23.2750 C   0  0  0  0  0  0  0  0  0  0  0  0
  -27.1870  -27.2830   20.2430 C   0  0  0  0  0  0  0  0  0  0  0  0
  -23.4010  -30.5340   21.6380 C   0  0  0  0  0  3  0  0  0  0  0  0
  -24.8470  -28.9700   20.2150 C   0  0  0  0  0  0  0  0  0  0  0  0
  -25.9500  -30.8140   21.4720 C   0  0  0  0  0  2  0  0  0  0  0  0
  -26.0220  -29.4310   20.8220 C   0  0  0  0  0  0  0  0  0  0  0  0
  -27.1930  -28.5990   20.8300 C   0  0  0  0  0  3  0  0  0  0  0  0
  -25.9910  -26.9090   19.5880 C   0  0  0  0  0  3  0  0  0  0  0  0
  -24.8390  -27.7170   19.5870 C   0  0  0  0  0  3  0  0  0  0  0  0
  -23.6180  -29.8590   20.2590 C   0  0  0  0  0  2  0  0  0  0  0  0
  -24.6720  -31.1130   22.1830 N   0  0  0  0  0  0  0  0  0  0  0  0
  -23.5210  -32.2170   23.8050 O   0  0  0  0  0  0  0  0  0  0  0  0
  -22.7260  -29.5270   22.6010 C   0  0  0  0  0  0  0  0  0  0  0  0
  -21.3990  -29.3530   22.4700 N   0  0  0  0  0  0  0  0  0  0  0  0
  -23.3960  -28.9020   23.4270 O   0  0  0  0  0  0  0  0  0  0  0  0
  -20.9120  -29.9070   21.7780 H   0  0  0  0  0  0  0  0  0  0  0  0
  -18.0180  -28.1630   22.9660 C   0  0  0  0  0  0  0  0  0  0  0  0
  -20.5760  -28.4180   23.2380 C   0  0  0  0  0  3  0  0  0  0  0  0
  -20.6780  -26.9850   22.6660 C   0  0  0  0  0  2  0  0  0  0  0  0
  -19.5740  -26.6620   21.6520 C   0  0  0  0  0  2  0  0  0  0  0  0
  -18.1940  -26.8090   22.2980 C   0  0  0  0  0  2  0  0  0  0  0  0
  -19.1380  -28.9240   23.3960 C   0  0  0  0  0  0  0  0  0  0  0  0
  -18.9200  -30.1900   23.9830 C   0  0  0  0  0  3  0  0  0  0  0  0
  -17.6170  -30.6950   24.1430 C   0  0  0  0  0  3  0  0  0  0  0  0
  -16.5120  -29.9310   23.7310 C   0  0  0  0  0  3  0  0  0  0  0  0
  -16.7130  -28.6670   23.1470 C   0  0  0  0  0  3  0  0  0  0  0  0
  -25.8880  -32.5620   23.9000 C   0  0  0  0  0  3  0  0  0  0  0  0
  -25.5840  -33.9630   24.2240 N   0  0  0  0  0  0  0  0  0  0  0  0
  -25.9010  -35.0120   23.4520 C   0  0  0  0  0  0  0  0  0  0  0  0
  -26.5500  -34.9020   22.4090 O   0  0  0  0  0  0  0  0  0  0  0  0
  -25.0060  -34.1220   25.0370 H   0  0  0  0  0  0  0  0  0  0  0  0
  -24.1600  -36.7990   23.1280 C   0  0  0  0  0  1  0  0  0  0  0  0
  -25.4240  -36.4050   23.9100 C   0  0  0  0  0  3  0  0  0  0  0  0
  -27.5750  -37.3050   24.6800 C   0  0  0  0  0  1  0  0  0  0  0  0
  -26.4520  -37.4590   23.7590 N   0  0  0  0  0  0  0  0  0  0  0  0
  -26.0470  -38.3810   23.9030 H   0  0  0  0  0  0  0  0  0  0  0  0
  -26.3960  -31.7950   25.1820 C   0  0  1  0  0  0  0  0  0  0  0  0
  -25.2980  -31.5640   26.2470 C   0  0  0  0  0  1  0  0  0  0  0  0
  -26.9790  -30.4150   24.8030 C   0  0  0  0  0  1  0  0  0  0  0  0
  -27.5450  -32.5900   25.8460 C   0  0  0  0  0  1  0  0  0  0  0  0
  1  4  2  0
  2  5  2  0
  3  2  1  0
  3  1  1  0
  6  3  1  0
  7  9  2  0
  7  8  1  0
  8 10  2  0
  9 11  1  0
 10  1  1  0
 10 12  1  0
 11 22  1  0
 11 12  2  0
 12 13  1  0
 14 22  1  0
 15 20  1  0
 16 17  1  0
 16 15  1  0
 18 17  1  0
 18 27  1  0
 18 19  1  0
 20 14  1  0
 20 19  1  0
 21 14  2  0
 22 23  1  0
 24 25  2  0
 25 44  1  0
 26 25  1  0
 26 29  1  0
 27 28  1  0
 27 24  1  0
 28 26  2  0
 29 30  1  0
 30 31  2  0
 32 35  1  0
 32 31  1  0
 33 32  2  0
 34 33  1  0
 34 29  2  0
 35 36  1  0
 36 37  1  0
 37 38  2  0
 39 38  1  0
 39 43  1  0
 40 39  2  0
 41 36  2  0
 41 40  1  0
 42 41  1  0
 44 45  1  0
 45 48  1  0
 45 47  1  0
 46 44  2  0
 49 50  1  0
 49 24  1  0
 51 49  1  0
 52 53  1  0
 52  2  1  0
 54 65  2  0
 55 53  1  0
 55 60  1  0
 56 64  1  0
 56 66  1  0
 57 63  1  0
 57 59  1  0
 58 64  1  0
 59 60  2  0
 59 58  1  0
 61 55  2  0
 62 61  1  0
 62 57  2  0
 63 56  1  0
 64 54  1  0
 66 68  2  0
 67 66  1  0
 69 67  1  0
 70 79  2  0
 70 75  1  0
 71 67  1  0
 71 75  1  0
 72 71  1  0
 73 74  1  0
 73 72  1  0
 74 70  1  0
 75 76  2  0
 76 77  1  0
 78 77  2  0
 79 78  1  0
 80 54  1  0
 80 81  1  0
 80 90  1  0
 81 84  1  0
 82 86  1  0
 82 81  1  0
 83 82  2  0
 86 85  1  0
 88 89  1  0
 88 86  1  0
 88 87  1  0
 90 93  1  1
 90 91  1  0
 92 90  1  0
M  ISO  4  14 100  22 100  52 101  53 101
M  END
>  <TORSDO>  (90) 
F 18

>  <SCORE>  (90) 
-14.723

>  <name>  (90) 
90

>  <ligand_id>  (90) 
90

>  <original_smiles>  (90) 
[H]c1c([H])c(C(=O)N([H])C(=O)C([H])([H])Oc2c([H])c([H])c3c(c2[H])C([H])([H])N(C(=O)C([H])(N([H])C(=O)C([H])(N([H])C([H])([H])[H])C([H])([H])[H])C(C([H])([H])[H])(C([H])([H])[H])C([H])([H])[H])C([H])(C(=O)N([H])C2([H])c4c([H])c([H])c([H])c([H])c4C([H])([H])C([H])([H])C2([H])[H])C3([H])[H])c(F)c(N([H])C(=O)N2C([H])([H])C([H])([H])C([H])([H])C([H])(n3nc(-c4c([H])c([H])c(Oc5c([H])c([H])c(F)c([H])c5F)c([H])c4[H])c(C(=O)N([H])[H])c3N([H])[H])C2([H])[H])c1[H]

>  <smiles>  (90) 
[H]c1c([H])c(C(=O)N([H])C(=O)C([H])([H])Oc2c([H])c([H])c3c(c2[H])C([H])([H])N(C(=O)C([H])(N([H])C(=O)C([H])(N([H])C([H])([H])[H])C([H])([H])[H])C(C([H])([H])[H])(C([H])([H])[H])C([H])([H])[H])C([H])(C(=O)N([H])C2([H])c4c([H])c([H])c([H])c([H])c4C([H])([H])C([H])([H])C2([H])[H])C3([H])[H])c(F)c(N([H])C(=O)N2C([H])([H])C([H])([H])C([H])([H])C([H])(n3nc(-c4c([H])c([H])c(Oc5c([H])c([H])c(F)c([H])c5F)c([H])c4[H])c(C(=O)N([H])[H])c3N([H])[H])C2([H])[H])c1[H]

$$$$
91:0:0
     RDKit          3D

 93101  0  0  1  0  0  0  0  0999 V2000
  -28.5660  -18.7980   20.6730 C   0  0  0  0  0  3  0  0  0  0  0  0
  -28.0970  -20.1470   20.5530 C   0  0  0  0  0  3  0  0  0  0  0  0
  -30.7550  -19.5690   20.0670 C   0  0  0  0  0  3  0  0  0  0  0  0
  -29.9280  -18.4750   20.4480 C   0  0  0  0  0  0  0  0  0  0  0  0
  -30.2920  -20.9090   19.9400 C   0  0  0  0  0  0  0  0  0  0  0  0
  -28.9370  -21.2510   20.2130 C   0  0  0  0  0  0  0  0  0  0  0  0
  -30.6820  -14.6950   20.3160 C   0  0  0  0  0  0  0  0  0  0  0  0
  -30.3650  -12.4590   19.2760 C   0  0  0  0  0  2  0  0  0  0  0  0
  -29.4190  -12.5640   18.0650 C   0  0  0  0  0  2  0  0  0  0  0  0
  -27.9540  -12.4120   18.5200 C   0  0  0  0  0  2  0  0  0  0  0  0
  -27.6090  -13.3080   19.7410 C   0  0  0  0  0  3  0  0  0  0  0  0
  -28.6810  -13.2120   20.8450 C   0  0  0  0  0  2  0  0  0  0  0  0
  -29.9720  -13.5250   20.2230 N   0  0  0  0  0  0  0  0  0  0  0  0
  -31.8720  -14.6900   19.9950 O   0  0  0  0  0  0  0  0  0  0  0  0
  -30.5950  -17.1080   20.7280 C   0  0  0  0  0  0  0  0  0  0  0  0
  -30.0030  -15.8830   20.5080 N   0  0  0  0  0  0  0  0  0  0  0  0
  -31.7560  -17.1870   21.1490 O   0  0  0  0  0  0  0  0  0  0  0  0
  -29.0030  -15.8660   20.4070 H   0  0  0  0  0  0  0  0  0  0  0  0
  -25.2360  -13.9170   20.5070 C   0  0  0  0  0  0  0  0  0  0  0  0
  -24.1680  -13.1500   20.8820 C   0  0  0  0  0  0  0  0  0  0  0  0
  -24.6190  -11.7950   20.8350 C   0  0  0  0  0  0  0  0  0  0  0  0
  -26.2690  -13.0320   20.2500 N   0  0  0  0  0  0  0  0  0  0  0  0
  -25.9060  -11.7490   20.5120 N   0  0  0  0  0  0  0  0  0  0  0  0
  -23.8860  -10.5370   21.0210 C   0  0  0  0  0  0  0  0  0  0  0  0
  -24.3120   -9.5640   21.9520 C   0  0  0  0  0  3  0  0  0  0  0  0
  -23.5770   -8.3700   22.1260 C   0  0  0  0  0  3  0  0  0  0  0  0
  -22.4030   -8.1430   21.3700 C   0  0  0  0  0  0  0  0  0  0  0  0
  -21.9970   -9.1050   20.4290 C   0  0  0  0  0  3  0  0  0  0  0  0
  -22.7310  -10.2890   20.2520 C   0  0  0  0  0  3  0  0  0  0  0  0
  -21.6410   -7.0020   21.4540 O   0  0  0  0  0  0  0  0  0  0  0  0
  -21.5730   -6.2650   22.6090 C   0  0  0  0  0  0  0  0  0  0  0  0
  -21.0970   -6.8170   23.8180 C   0  0  0  0  0  3  0  0  0  0  0  0
  -20.9780   -6.0060   24.9640 C   0  0  0  0  0  3  0  0  0  0  0  0
  -21.3270   -4.6430   24.9010 C   0  0  0  0  0  0  0  0  0  0  0  0
  -21.7970   -4.0910   23.6970 C   0  0  0  0  0  3  0  0  0  0  0  0
  -21.9160   -4.9000   22.5530 C   0  0  0  0  0  0  0  0  0  0  0  0
  -22.3480   -4.3580   21.3900 F   0  0  0  0  0  0  0  0  0  0  0  0
  -21.2070   -3.8600   25.9990 F   0  0  0  0  0  0  0  0  0  0  0  0
  -22.7780  -13.6360   21.1700 C   0  0  0  0  0  0  0  0  0  0  0  0
  -22.0570  -12.9460   22.0470 N   0  0  0  0  0  0  0  0  0  0  0  0
  -22.3400  -14.6640   20.6550 O   0  0  0  0  0  0  0  0  0  0  0  0
  -22.4280  -12.1160   22.4880 H   0  0  0  0  0  0  0  0  0  0  0  0
  -21.1240  -13.2530   22.2820 H   0  0  0  0  0  0  0  0  0  0  0  0
  -25.4120  -15.2880   20.3340 N   0  0  0  0  0  0  0  0  0  0  0  0
  -24.6530  -15.9490   20.4510 H   0  0  0  0  0  0  0  0  0  0  0  0
  -26.2490  -15.7130   19.9570 H   0  0  0  0  0  0  0  0  0  0  0  0
  -31.2060  -21.8600   19.4940 N   0  0  0  0  0  0  0  0  0  0  0  0
  -32.0480  -21.5180   19.0460 H   0  0  0  0  0  0  0  0  0  0  0  0
  -30.8130  -22.6530   19.0000 H   0  0  0  0  0  0  0  0  0  0  0  0
  -28.3400  -22.5330   20.1130 O   0  0  0  0  0  0  0  0  0  0  0  0
  -28.9970  -23.8400   20.3100 C   0  0  0  0  0  2  0  0  0  0  0  0
  -27.9910  -25.0420   20.0380 C   0  0  0  0  0  2  0  0  0  0  0  0
  -28.3030  -26.4810   20.2700 O   0  0  0  0  0  0  0  0  0  0  0  0
  -24.6270  -31.9270   23.2850 C   0  0  0  0  0  0  0  0  0  0  0  0
  -27.2120  -27.3710   20.2070 C   0  0  0  0  0  0  0  0  0  0  0  0
  -23.4230  -30.5480   21.6320 C   0  0  0  0  0  3  0  0  0  0  0  0
  -24.8680  -29.0130   20.1970 C   0  0  0  0  0  0  0  0  0  0  0  0
  -25.9670  -30.8560   21.4580 C   0  0  0  0  0  2  0  0  0  0  0  0
  -26.0410  -29.4840   20.8000 C   0  0  0  0  0  0  0  0  0  0  0  0
  -27.2190  -28.6770   20.7940 C   0  0  0  0  0  3  0  0  0  0  0  0
  -26.0100  -26.9660   19.5770 C   0  0  0  0  0  3  0  0  0  0  0  0
  -24.8550  -27.7600   19.5790 C   0  0  0  0  0  3  0  0  0  0  0  0
  -23.6370  -29.8920   20.2460 C   0  0  0  0  0  2  0  0  0  0  0  0
  -24.6910  -31.1280   22.1820 N   0  0  0  0  0  0  0  0  0  0  0  0
  -23.5410  -32.2040   23.8160 O   0  0  0  0  0  0  0  0  0  0  0  0
  -22.7530  -29.5220   22.5790 C   0  0  0  0  0  0  0  0  0  0  0  0
  -21.4270  -29.3500   22.4420 N   0  0  0  0  0  0  0  0  0  0  0  0
  -23.4250  -28.8860   23.3950 O   0  0  0  0  0  0  0  0  0  0  0  0
  -20.9460  -29.9150   21.7570 H   0  0  0  0  0  0  0  0  0  0  0  0
  -18.0370  -28.1830   22.9260 C   0  0  0  0  0  0  0  0  0  0  0  0
  -20.5970  -28.4110   23.2010 C   0  0  0  0  0  3  0  0  0  0  0  0
  -20.6860  -26.9860   22.6090 C   0  0  0  0  0  2  0  0  0  0  0  0
  -19.5810  -26.6860   21.5920 C   0  0  0  0  0  2  0  0  0  0  0  0
  -18.1990  -26.8380   22.2360 C   0  0  0  0  0  2  0  0  0  0  0  0
  -19.1640  -28.9280   23.3650 C   0  0  0  0  0  0  0  0  0  0  0  0
  -18.9580  -30.1860   23.9710 C   0  0  0  0  0  3  0  0  0  0  0  0
  -17.6570  -30.6990   24.1420 C   0  0  0  0  0  3  0  0  0  0  0  0
  -16.5450  -29.9490   23.7220 C   0  0  0  0  0  3  0  0  0  0  0  0
  -16.7360  -28.6930   23.1190 C   0  0  0  0  0  3  0  0  0  0  0  0
  -25.9080  -32.5500   23.9170 C   0  0  0  0  0  3  0  0  0  0  0  0
  -26.4010  -31.7790   25.2030 C   0  0  1  0  0  0  0  0  0  0  0  0
  -25.2910  -31.5540   26.2560 C   0  0  0  0  0  1  0  0  0  0  0  0
  -26.9800  -30.3970   24.8230 C   0  0  0  0  0  1  0  0  0  0  0  0
  -27.5480  -32.5660   25.8770 C   0  0  0  0  0  1  0  0  0  0  0  0
  -25.6070  -33.9510   24.2390 N   0  0  0  0  0  0  0  0  0  0  0  0
  -25.9250  -34.9970   23.4630 C   0  0  0  0  0  0  0  0  0  0  0  0
  -26.5740  -34.8810   22.4190 O   0  0  0  0  0  0  0  0  0  0  0  0
  -25.0290  -34.1160   25.0500 H   0  0  0  0  0  0  0  0  0  0  0  0
  -24.1820  -36.7810   23.1410 C   0  0  0  0  0  1  0  0  0  0  0  0
  -25.4480  -36.3910   23.9170 C   0  0  0  0  0  3  0  0  0  0  0  0
  -27.6020  -37.2940   24.6730 C   0  0  0  0  0  1  0  0  0  0  0  0
  -26.4750  -37.4440   23.7580 N   0  0  0  0  0  0  0  0  0  0  0  0
  -26.0690  -38.3660   23.9020 H   0  0  0  0  0  0  0  0  0  0  0  0
  2  1  1  0
  3  4  1  0
  4  1  2  0
  4 15  1  0
  5  3  2  0
  5  6  1  0
  6  2  2  0
  7 16  1  0
  8 13  1  0
  9 10  1  0
  9  8  1  0
 11 10  1  0
 11 22  1  0
 11 12  1  0
 13  7  1  0
 13 12  1  0
 14  7  2  0
 15 17  2  0
 16 15  1  0
 18 16  1  0
 19 20  2  0
 20 39  1  0
 21 20  1  0
 21 24  1  0
 22 19  1  0
 22 23  1  0
 23 21  2  0
 24 25  1  0
 25 26  2  0
 27 30  1  0
 27 26  1  0
 28 27  2  0
 29 28  1  0
 29 24  2  0
 30 31  1  0
 31 32  1  0
 32 33  2  0
 34 33  1  0
 34 38  1  0
 35 34  2  0
 36 31  2  0
 36 35  1  0
 37 36  1  0
 39 40  1  0
 40 43  1  0
 40 42  1  0
 41 39  2  0
 44 45  1  0
 44 19  1  0
 46 44  1  0
 47  5  1  0
 48 47  1  0
 49 47  1  0
 50  6  1  0
 50 51  1  0
 52 53  1  0
 52 51  1  0
 54 65  2  0
 55 53  1  0
 55 60  1  0
 56 64  1  0
 56 66  1  0
 57 63  1  0
 57 59  1  0
 58 64  1  0
 59 58  1  0
 60 59  2  0
 61 62  1  0
 61 55  2  0
 62 57  2  0
 63 56  1  0
 64 54  1  0
 66 68  2  0
 67 66  1  0
 69 67  1  0
 70 79  2  0
 70 75  1  0
 71 67  1  0
 71 75  1  0
 72 71  1  0
 73 74  1  0
 73 72  1  0
 74 70  1  0
 75 76  2  0
 76 77  1  0
 78 77  2  0
 79 78  1  0
 80 54  1  0
 80 85  1  0
 80 81  1  0
 81 84  1  1
 81 82  1  0
 83 81  1  0
 85 88  1  0
 86 90  1  0
 86 85  1  0
 87 86  2  0
 90 89  1  0
 92 93  1  0
 92 90  1  0
 92 91  1  0
M  ISO  4   7 100  16 100  52 101  53 101
M  END
>  <TORSDO>  (91) 
F 20

>  <SCORE>  (91) 
-14.023

>  <name>  (91) 
91

>  <ligand_id>  (91) 
91

>  <original_smiles>  (91) 
[H]c1c([H])c([H])c2c(c1[H])C([H])([H])C([H])([H])C([H])([H])C2([H])N([H])C(=O)C1([H])N(C(=O)C([H])(N([H])C(=O)C([H])(N([H])C([H])([H])[H])C([H])([H])[H])C(C([H])([H])[H])(C([H])([H])[H])C([H])([H])[H])C([H])([H])c2c([H])c(OC([H])([H])C([H])([H])Oc3c([H])c([H])c(C(=O)N([H])C(=O)N4C([H])([H])C([H])([H])C([H])([H])C([H])(n5nc(-c6c([H])c([H])c(Oc7c([H])c([H])c(F)c([H])c7F)c([H])c6[H])c(C(=O)N([H])[H])c5N([H])[H])C4([H])[H])c([H])c3N([H])[H])c([H])c([H])c2C1([H])[H]

>  <smiles>  (91) 
[H]c1c([H])c([H])c2c(c1[H])C([H])([H])C([H])([H])C([H])([H])C2([H])N([H])C(=O)C1([H])N(C(=O)C([H])(N([H])C(=O)C([H])(N([H])C([H])([H])[H])C([H])([H])[H])C(C([H])([H])[H])(C([H])([H])[H])C([H])([H])[H])C([H])([H])c2c([H])c(OC([H])([H])C([H])([H])Oc3c([H])c([H])c(C(=O)N([H])C(=O)N4C([H])([H])C([H])([H])C([H])([H])C([H])(n5nc(-c6c([H])c([H])c(Oc7c([H])c([H])c(F)c([H])c7F)c([H])c6[H])c(C(=O)N([H])[H])c5N([H])[H])C4([H])[H])c([H])c3N([H])[H])c([H])c([H])c2C1([H])[H]

$$$$
92:0:0
     RDKit          3D

 97105  0  0  1  0  0  0  0  0999 V2000
  -29.0490  -22.9900   20.0480 C   0  0  0  0  0  0  0  0  0  0  0  0
  -29.3480  -21.7720   19.4550 N   0  0  0  0  0  0  0  0  0  0  0  0
  -29.0380  -23.1450   21.2690 O   0  0  0  0  0  0  0  0  0  0  0  0
  -29.3200  -21.8790   18.4490 H   0  0  0  0  0  0  0  0  0  0  0  0
  -30.3390  -18.5860   21.4640 C   0  0  0  0  0  3  0  0  0  0  0  0
  -30.0570  -19.9630   21.1690 C   0  0  0  0  0  3  0  0  0  0  0  0
  -29.9070  -17.9600   19.2050 C   0  0  0  0  0  3  0  0  0  0  0  0
  -30.2640  -17.5150   20.5090 C   0  0  0  0  0  0  0  0  0  0  0  0
  -29.6670  -20.3870   19.8730 C   0  0  0  0  0  0  0  0  0  0  0  0
  -29.6120  -19.3360   18.9020 C   0  0  0  0  0  0  0  0  0  0  0  0
  -30.3870  -16.0210   20.9740 C   0  0  0  0  0  0  0  0  0  0  0  0
  -30.0250  -15.7900   22.1670 N   0  0  0  0  0  0  0  0  0  0  0  0
  -29.6750  -16.6330   22.6070 H   0  0  0  0  0  0  0  0  0  0  0  0
  -31.0030  -14.8260   20.0970 C   0  0  0  0  0  0  0  0  0  0  0  0
  -30.6910  -12.6250   18.9340 C   0  0  0  0  0  2  0  0  0  0  0  0
  -29.6860  -12.7990   17.7700 C   0  0  0  0  0  2  0  0  0  0  0  0
  -28.2320  -12.6400   18.2590 C   0  0  0  0  0  2  0  0  0  0  0  0
  -27.9580  -13.4500   19.5530 C   0  0  0  0  0  3  0  0  0  0  0  0
  -29.0630  -13.1970   20.5960 C   0  0  0  0  0  2  0  0  0  0  0  0
  -30.3490  -13.6060   19.9970 N   0  0  0  0  0  0  0  0  0  0  0  0
  -32.0800  -14.9910   19.5110 O   0  0  0  0  0  0  0  0  0  0  0  0
  -25.6190  -14.0800   20.4070 C   0  0  0  0  0  0  0  0  0  0  0  0
  -24.5540  -13.3210   20.8090 C   0  0  0  0  0  0  0  0  0  0  0  0
  -24.9810  -11.9610   20.7180 C   0  0  0  0  0  0  0  0  0  0  0  0
  -26.6290  -13.1830   20.0940 N   0  0  0  0  0  0  0  0  0  0  0  0
  -26.2530  -11.9010   20.3390 N   0  0  0  0  0  0  0  0  0  0  0  0
  -24.2360  -10.7120   20.9130 C   0  0  0  0  0  0  0  0  0  0  0  0
  -24.6510   -9.7420   21.8530 C   0  0  0  0  0  3  0  0  0  0  0  0
  -23.9060   -8.5560   22.0340 C   0  0  0  0  0  3  0  0  0  0  0  0
  -22.7320   -8.3330   21.2760 C   0  0  0  0  0  0  0  0  0  0  0  0
  -22.3370   -9.2900   20.3260 C   0  0  0  0  0  3  0  0  0  0  0  0
  -23.0820  -10.4670   20.1420 C   0  0  0  0  0  3  0  0  0  0  0  0
  -21.9600   -7.2000   21.3650 O   0  0  0  0  0  0  0  0  0  0  0  0
  -21.8310   -6.5090   22.5430 C   0  0  0  0  0  0  0  0  0  0  0  0
  -21.3430   -7.1220   23.7170 C   0  0  0  0  0  3  0  0  0  0  0  0
  -21.1600   -6.3570   24.8880 C   0  0  0  0  0  3  0  0  0  0  0  0
  -21.4550   -4.9800   24.8830 C   0  0  0  0  0  0  0  0  0  0  0  0
  -21.9370   -4.3680   23.7130 C   0  0  0  0  0  3  0  0  0  0  0  0
  -22.1210   -5.1280   22.5460 C   0  0  0  0  0  0  0  0  0  0  0  0
  -22.5640   -4.5280   21.4150 F   0  0  0  0  0  0  0  0  0  0  0  0
  -21.2730   -4.2450   26.0040 F   0  0  0  0  0  0  0  0  0  0  0  0
  -23.1840  -13.8220   21.1670 C   0  0  0  0  0  0  0  0  0  0  0  0
  -22.4900  -13.1260   22.0600 N   0  0  0  0  0  0  0  0  0  0  0  0
  -22.7420  -14.8670   20.6920 O   0  0  0  0  0  0  0  0  0  0  0  0
  -22.8630  -12.2800   22.4660 H   0  0  0  0  0  0  0  0  0  0  0  0
  -21.5730  -13.4420   22.3420 H   0  0  0  0  0  0  0  0  0  0  0  0
  -25.8070  -15.4510   20.2590 N   0  0  0  0  0  0  0  0  0  0  0  0
  -25.0690  -16.1220   20.4400 H   0  0  0  0  0  0  0  0  0  0  0  0
  -26.6630  -15.8820   19.9340 H   0  0  0  0  0  0  0  0  0  0  0  0
  -29.2230  -19.6540   17.5980 N   0  0  0  0  0  0  0  0  0  0  0  0
  -28.9980  -18.8770   16.9840 H   0  0  0  0  0  0  0  0  0  0  0  0
  -28.5560  -20.4080   17.4860 H   0  0  0  0  0  0  0  0  0  0  0  0
  -28.4060  -25.4190   19.1410 C   0  0  0  0  0  3  0  0  0  0  0  0
  -28.7470  -24.0690   19.0320 C   0  0  0  0  0  0  0  0  0  0  0  0
  -28.8090  -23.6420   17.7560 O   0  0  0  0  0  0  0  0  0  0  0  0
  -28.6110  -24.3790   17.1940 H   0  0  0  0  0  0  0  0  0  0  0  0
  -28.2200  -26.3580   20.1780 O   0  0  0  0  0  0  0  0  0  0  0  0
  -24.6030  -31.8760   23.2110 C   0  0  0  0  0  0  0  0  0  0  0  0
  -27.1460  -27.2760   20.1080 C   0  0  0  0  0  0  0  0  0  0  0  0
  -23.3690  -30.4870   21.5880 C   0  0  0  0  0  3  0  0  0  0  0  0
  -24.7930  -28.9280   20.1370 C   0  0  0  0  0  0  0  0  0  0  0  0
  -25.9120  -30.7800   21.3730 C   0  0  0  0  0  2  0  0  0  0  0  0
  -25.9750  -29.4000   20.7200 C   0  0  0  0  0  0  0  0  0  0  0  0
  -27.1530  -28.5840   20.7010 C   0  0  0  0  0  3  0  0  0  0  0  0
  -25.9310  -26.8640   19.5130 C   0  0  0  0  0  3  0  0  0  0  0  0
  -24.7750  -27.6660   19.5240 C   0  0  0  0  0  3  0  0  0  0  0  0
  -23.5620  -29.8120   20.2040 C   0  0  0  0  0  2  0  0  0  0  0  0
  -24.6480  -31.0660   22.1130 N   0  0  0  0  0  0  0  0  0  0  0  0
  -23.5290  -32.1620   23.7600 O   0  0  0  0  0  0  0  0  0  0  0  0
  -22.7110  -29.4750   22.5570 C   0  0  0  0  0  0  0  0  0  0  0  0
  -21.3860  -29.2850   22.4280 N   0  0  0  0  0  0  0  0  0  0  0  0
  -23.3920  -28.8640   23.3850 O   0  0  0  0  0  0  0  0  0  0  0  0
  -20.8950  -29.8310   21.7330 H   0  0  0  0  0  0  0  0  0  0  0  0
  -18.0240  -28.0320   22.9040 C   0  0  0  0  0  0  0  0  0  0  0  0
  -20.5730  -28.3500   23.2070 C   0  0  0  0  0  3  0  0  0  0  0  0
  -20.7120  -26.9070   22.6660 C   0  0  0  0  0  2  0  0  0  0  0  0
  -19.6330  -26.5400   21.6420 C   0  0  0  0  0  2  0  0  0  0  0  0
  -18.2390  -26.6730   22.2610 C   0  0  0  0  0  2  0  0  0  0  0  0
  -19.1210  -28.8270   23.3330 C   0  0  0  0  0  0  0  0  0  0  0  0
  -18.8670  -30.0970   23.8940 C   0  0  0  0  0  3  0  0  0  0  0  0
  -17.5500  -30.5760   24.0290 C   0  0  0  0  0  3  0  0  0  0  0  0
  -16.4680  -29.7790   23.6150 C   0  0  0  0  0  3  0  0  0  0  0  0
  -16.7060  -28.5100   23.0580 C   0  0  0  0  0  3  0  0  0  0  0  0
  -25.8970  -32.5020   23.8160 C   0  0  0  0  0  3  0  0  0  0  0  0
  -25.5970  -33.8990   24.1630 N   0  0  0  0  0  0  0  0  0  0  0  0
  -25.9160  -34.9580   23.4060 C   0  0  0  0  0  0  0  0  0  0  0  0
  -26.5640  -34.8600   22.3600 O   0  0  0  0  0  0  0  0  0  0  0  0
  -25.0200  -34.0490   24.9780 H   0  0  0  0  0  0  0  0  0  0  0  0
  -24.1890  -36.7610   23.0990 C   0  0  0  0  0  1  0  0  0  0  0  0
  -25.4420  -36.3440   23.8860 C   0  0  0  0  0  3  0  0  0  0  0  0
  -27.5930  -37.2150   24.6880 C   0  0  0  0  0  1  0  0  0  0  0  0
  -26.4770  -37.3940   23.7640 N   0  0  0  0  0  0  0  0  0  0  0  0
  -26.0770  -38.3150   23.9250 H   0  0  0  0  0  0  0  0  0  0  0  0
  -26.4320  -31.7210   25.0800 C   0  0  1  0  0  0  0  0  0  0  0  0
  -25.3540  -31.4790   26.1630 C   0  0  0  0  0  1  0  0  0  0  0  0
  -27.0050  -30.3450   24.6710 C   0  0  0  0  0  1  0  0  0  0  0  0
  -27.5940  -32.5080   25.7300 C   0  0  0  0  0  1  0  0  0  0  0  0
  1  3  2  0
  2  9  1  0
  2  1  1  0
  4  2  1  0
  6  5  1  0
  7  8  1  0
  8 11  1  0
  8  5  2  0
  9  6  2  0
 10  7  2  0
 10  9  1  0
 11 12  2  0
 12 13  1  0
 14 11  1  0
 15 20  1  0
 16 17  1  0
 16 15  1  0
 18 17  1  0
 18 25  1  0
 18 19  1  0
 20 14  1  0
 20 19  1  0
 21 14  2  0
 22 23  2  0
 23 42  1  0
 24 23  1  0
 24 27  1  0
 25 26  1  0
 25 22  1  0
 26 24  2  0
 27 28  1  0
 28 29  2  0
 30 33  1  0
 30 29  1  0
 31 30  2  0
 32 31  1  0
 32 27  2  0
 33 34  1  0
 34 39  2  0
 34 35  1  0
 35 36  2  0
 37 36  1  0
 37 41  1  0
 38 37  2  0
 39 38  1  0
 40 39  1  0
 42 43  1  0
 43 46  1  0
 43 45  1  0
 44 42  2  0
 47 22  1  0
 47 48  1  0
 49 47  1  0
 50 10  1  0
 51 50  1  0
 52 50  1  0
 53 57  1  0
 54 53  2  0
 54  1  1  0
 55 54  1  0
 56 55  1  0
 58 69  2  0
 59 57  1  0
 59 64  1  0
 60 68  1  0
 60 70  1  0
 61 67  1  0
 61 63  1  0
 62 68  1  0
 63 62  1  0
 64 63  2  0
 65 66  1  0
 65 59  2  0
 66 61  2  0
 67 60  1  0
 68 58  1  0
 70 72  2  0
 71 70  1  0
 73 71  1  0
 74 83  2  0
 74 79  1  0
 75 71  1  0
 75 79  1  0
 76 75  1  0
 77 78  1  0
 77 76  1  0
 78 74  1  0
 79 80  2  0
 80 81  1  0
 82 81  2  0
 83 82  1  0
 84 58  1  0
 84 85  1  0
 84 94  1  0
 85 88  1  0
 86 90  1  0
 86 85  1  0
 87 86  2  0
 90 89  1  0
 92 90  1  0
 92 93  1  0
 92 91  1  0
 94 97  1  1
 94 95  1  0
 96 94  1  0
M  ISO  4  11 100  14 100  53 101  57 101
M  END
>  <TORSDO>  (92) 
F 21

>  <SCORE>  (92) 
-13.492

>  <name>  (92) 
92

>  <ligand_id>  (92) 
92

>  <original_smiles>  (92) 
[H]N=C(C(=O)N1C([H])([H])C([H])([H])C([H])([H])C([H])(n2nc(-c3c([H])c([H])c(Oc4c([H])c([H])c(F)c([H])c4F)c([H])c3[H])c(C(=O)N([H])[H])c2N([H])[H])C1([H])[H])c1c([H])c([H])c(N([H])C(=O)C(O[H])=C([H])Oc2c([H])c([H])c3c(c2[H])C([H])([H])N(C(=O)C([H])(N([H])C(=O)C([H])(N([H])C([H])([H])[H])C([H])([H])[H])C(C([H])([H])[H])(C([H])([H])[H])C([H])([H])[H])C([H])(C(=O)N([H])C2([H])c4c([H])c([H])c([H])c([H])c4C([H])([H])C([H])([H])C2([H])[H])C3([H])[H])c(N([H])[H])c1[H]

>  <smiles>  (92) 
[H]N=C(C(=O)N1C([H])([H])C([H])([H])C([H])([H])C([H])(n2nc(-c3c([H])c([H])c(Oc4c([H])c([H])c(F)c([H])c4F)c([H])c3[H])c(C(=O)N([H])[H])c2N([H])[H])C1([H])[H])c1c([H])c([H])c(N([H])C(=O)C(O[H])=C([H])Oc2c([H])c([H])c3c(c2[H])C([H])([H])N(C(=O)C([H])(N([H])C(=O)C([H])(N([H])C([H])([H])[H])C([H])([H])[H])C(C([H])([H])[H])(C([H])([H])[H])C([H])([H])[H])C([H])(C(=O)N([H])C2([H])c4c([H])c([H])c([H])c([H])c4C([H])([H])C([H])([H])C2([H])[H])C3([H])[H])c(N([H])[H])c1[H]

$$$$
93:0:0
     RDKit          3D

 93101  0  0  1  0  0  0  0  0999 V2000
  -30.2540  -21.7260   20.1760 C   0  0  0  0  0  0  0  0  0  0  0  0
  -29.2430  -22.6400   20.2930 N   0  0  0  0  0  0  0  0  0  0  0  0
  -31.3930  -22.1520   19.9630 O   0  0  0  0  0  0  0  0  0  0  0  0
  -28.3040  -22.3120   20.4890 H   0  0  0  0  0  0  0  0  0  0  0  0
  -31.1990  -19.3370   19.9750 C   0  0  0  0  0  3  0  0  0  0  0  0
  -31.1590  -17.9130   20.0630 C   0  0  0  0  0  3  0  0  0  0  0  0
  -28.8550  -18.0620   20.7100 C   0  0  0  0  0  3  0  0  0  0  0  0
  -30.0810  -20.1830   20.2490 C   0  0  0  0  0  0  0  0  0  0  0  0
  -29.9780  -17.2220   20.4370 C   0  0  0  0  0  0  0  0  0  0  0  0
  -28.8940  -19.4940   20.6240 C   0  0  0  0  0  0  0  0  0  0  0  0
  -27.7710  -20.1960   20.9100 F   0  0  0  0  0  0  0  0  0  0  0  0
  -30.6310  -14.7040   20.1240 C   0  0  0  0  0  0  0  0  0  0  0  0
  -30.3720  -12.4890   19.0160 C   0  0  0  0  0  2  0  0  0  0  0  0
  -29.3790  -12.6440   17.8430 C   0  0  0  0  0  2  0  0  0  0  0  0
  -27.9250  -12.4770   18.3290 C   0  0  0  0  0  2  0  0  0  0  0  0
  -27.6200  -13.3110   19.6020 C   0  0  0  0  0  3  0  0  0  0  0  0
  -28.7240  -13.1270   20.6690 C   0  0  0  0  0  2  0  0  0  0  0  0
  -30.0080  -13.4840   20.0460 N   0  0  0  0  0  0  0  0  0  0  0  0
  -31.7780  -14.8540   19.6920 O   0  0  0  0  0  0  0  0  0  0  0  0
  -29.8520  -15.7580   20.5440 N   0  0  0  0  0  0  0  0  0  0  0  0
  -28.9650  -15.4440   20.9070 H   0  0  0  0  0  0  0  0  0  0  0  0
  -25.2580  -13.9000   20.4220 C   0  0  0  0  0  0  0  0  0  0  0  0
  -24.2050  -13.1230   20.8200 C   0  0  0  0  0  0  0  0  0  0  0  0
  -24.6630  -11.7710   20.7470 C   0  0  0  0  0  0  0  0  0  0  0  0
  -26.2910  -13.0220   20.1320 N   0  0  0  0  0  0  0  0  0  0  0  0
  -25.9410  -11.7360   20.3890 N   0  0  0  0  0  0  0  0  0  0  0  0
  -23.9410  -10.5060   20.9430 C   0  0  0  0  0  0  0  0  0  0  0  0
  -24.3750   -9.5480   21.8840 C   0  0  0  0  0  3  0  0  0  0  0  0
  -23.6530   -8.3470   22.0670 C   0  0  0  0  0  3  0  0  0  0  0  0
  -22.4860   -8.0980   21.3080 C   0  0  0  0  0  0  0  0  0  0  0  0
  -22.0720   -9.0460   20.3540 C   0  0  0  0  0  3  0  0  0  0  0  0
  -22.7940  -10.2370   20.1710 C   0  0  0  0  0  3  0  0  0  0  0  0
  -21.7370   -6.9500   21.4000 O   0  0  0  0  0  0  0  0  0  0  0  0
  -21.6400   -6.2460   22.5730 C   0  0  0  0  0  0  0  0  0  0  0  0
  -21.1350   -6.8300   23.7540 C   0  0  0  0  0  3  0  0  0  0  0  0
  -20.9890   -6.0500   24.9180 C   0  0  0  0  0  3  0  0  0  0  0  0
  -21.3380   -4.6860   24.9020 C   0  0  0  0  0  0  0  0  0  0  0  0
  -21.8360   -4.1010   23.7240 C   0  0  0  0  0  3  0  0  0  0  0  0
  -21.9840   -4.8780   22.5630 C   0  0  0  0  0  0  0  0  0  0  0  0
  -22.4440   -4.3040   21.4250 F   0  0  0  0  0  0  0  0  0  0  0  0
  -21.1900   -3.9340   26.0180 F   0  0  0  0  0  0  0  0  0  0  0  0
  -22.8200  -13.5960   21.1530 C   0  0  0  0  0  0  0  0  0  0  0  0
  -22.1220  -12.8840   22.0310 N   0  0  0  0  0  0  0  0  0  0  0  0
  -22.3650  -14.6330   20.6700 O   0  0  0  0  0  0  0  0  0  0  0  0
  -22.5050  -12.0470   22.4440 H   0  0  0  0  0  0  0  0  0  0  0  0
  -21.1950  -13.1820   22.2960 H   0  0  0  0  0  0  0  0  0  0  0  0
  -25.4180  -15.2730   20.2600 N   0  0  0  0  0  0  0  0  0  0  0  0
  -24.6520  -15.9220   20.4020 H   0  0  0  0  0  0  0  0  0  0  0  0
  -26.2360  -15.7100   19.8540 H   0  0  0  0  0  0  0  0  0  0  0  0
  -29.4490  -24.1340   20.1290 C   0  0  0  0  0  2  0  0  0  0  0  0
  -28.2430  -25.0800   20.4730 C   0  0  0  0  0  0  0  0  0  0  0  0
  -27.2370  -24.5860   20.9930 O   0  0  0  0  0  0  0  0  0  0  0  0
  -28.3790  -26.4850   20.1470 O   0  0  0  0  0  0  0  0  0  0  0  0
  -24.6220  -31.8600   23.2140 C   0  0  0  0  0  0  0  0  0  0  0  0
  -27.2670  -27.3460   20.1260 C   0  0  0  0  0  0  0  0  0  0  0  0
  -23.4300  -30.4690   21.5610 C   0  0  0  0  0  3  0  0  0  0  0  0
  -24.8930  -28.9440   20.1220 C   0  0  0  0  0  0  0  0  0  0  0  0
  -25.9670  -30.8040   21.3870 C   0  0  0  0  0  2  0  0  0  0  0  0
  -26.0560  -29.4310   20.7320 C   0  0  0  0  0  0  0  0  0  0  0  0
  -27.2460  -28.6420   20.7300 C   0  0  0  0  0  3  0  0  0  0  0  0
  -26.0830  -26.9220   19.4790 C   0  0  0  0  0  3  0  0  0  0  0  0
  -24.9070  -27.6930   19.4870 C   0  0  0  0  0  3  0  0  0  0  0  0
  -23.6490  -29.8090   20.1750 C   0  0  0  0  0  2  0  0  0  0  0  0
  -24.6910  -31.0620   22.1100 N   0  0  0  0  0  0  0  0  0  0  0  0
  -23.5350  -32.1270   23.7490 O   0  0  0  0  0  0  0  0  0  0  0  0
  -22.7720  -29.4390   22.5110 C   0  0  0  0  0  0  0  0  0  0  0  0
  -21.4460  -29.2620   22.3870 N   0  0  0  0  0  0  0  0  0  0  0  0
  -23.4540  -28.8030   23.3180 O   0  0  0  0  0  0  0  0  0  0  0  0
  -20.9550  -29.8260   21.7070 H   0  0  0  0  0  0  0  0  0  0  0  0
  -18.0670  -28.0810   22.9060 C   0  0  0  0  0  0  0  0  0  0  0  0
  -20.6300  -28.3160   23.1500 C   0  0  0  0  0  3  0  0  0  0  0  0
  -20.7140  -26.8950   22.5470 C   0  0  0  0  0  2  0  0  0  0  0  0
  -19.5970  -26.5990   21.5410 C   0  0  0  0  0  2  0  0  0  0  0  0
  -18.2250  -26.7430   22.2040 C   0  0  0  0  0  2  0  0  0  0  0  0
  -19.1960  -28.8270   23.3370 C   0  0  0  0  0  0  0  0  0  0  0  0
  -18.9930  -30.0810   23.9530 C   0  0  0  0  0  3  0  0  0  0  0  0
  -17.6940  -30.5860   24.1460 C   0  0  0  0  0  3  0  0  0  0  0  0
  -16.5790  -29.8370   23.7310 C   0  0  0  0  0  3  0  0  0  0  0  0
  -16.7660  -28.5860   23.1170 C   0  0  0  0  0  3  0  0  0  0  0  0
  -25.8990  -32.4950   23.8440 C   0  0  0  0  0  3  0  0  0  0  0  0
  -26.4090  -31.7260   25.1240 C   0  0  1  0  0  0  0  0  0  0  0  0
  -25.3080  -31.4850   26.1840 C   0  0  0  0  0  1  0  0  0  0  0  0
  -27.0000  -30.3490   24.7370 C   0  0  0  0  0  1  0  0  0  0  0  0
  -27.5530  -32.5230   25.7930 C   0  0  0  0  0  1  0  0  0  0  0  0
  -25.5860  -33.8930   24.1710 N   0  0  0  0  0  0  0  0  0  0  0  0
  -25.9150  -34.9450   23.4100 C   0  0  0  0  0  0  0  0  0  0  0  0
  -26.5860  -34.8420   22.3790 O   0  0  0  0  0  0  0  0  0  0  0  0
  -24.9910  -34.0470   24.9710 H   0  0  0  0  0  0  0  0  0  0  0  0
  -24.1840  -36.7340   23.0520 C   0  0  0  0  0  1  0  0  0  0  0  0
  -25.4240  -36.3330   23.8650 C   0  0  0  0  0  3  0  0  0  0  0  0
  -27.5530  -37.2260   24.7030 C   0  0  0  0  0  1  0  0  0  0  0  0
  -26.4550  -37.3880   23.7530 N   0  0  0  0  0  0  0  0  0  0  0  0
  -26.0460  -38.3080   23.8950 H   0  0  0  0  0  0  0  0  0  0  0  0
  1  8  1  0
  1  2  1  0
  2  4  1  0
  3  1  2  0
  5  6  2  0
  5  8  1  0
  6  9  1  0
  8 10  2  0
  9 20  1  0
  9  7  2  0
 10  7  1  0
 10 11  1  0
 12 20  1  0
 13 18  1  0
 14 15  1  0
 14 13  1  0
 16 15  1  0
 16 25  1  0
 16 17  1  0
 18 12  1  0
 18 17  1  0
 19 12  2  0
 20 21  1  0
 22 23  2  0
 23 42  1  0
 24 23  1  0
 24 27  1  0
 25 26  1  0
 25 22  1  0
 26 24  2  0
 27 28  1  0
 28 29  2  0
 30 33  1  0
 30 29  1  0
 31 30  2  0
 32 31  1  0
 32 27  2  0
 33 34  1  0
 34 35  1  0
 35 36  2  0
 37 36  1  0
 37 41  1  0
 38 37  2  0
 39 34  2  0
 39 38  1  0
 40 39  1  0
 42 43  1  0
 43 46  1  0
 43 45  1  0
 44 42  2  0
 47 48  1  0
 47 22  1  0
 49 47  1  0
 50  2  1  0
 50 51  1  0
 51 52  2  0
 53 51  1  0
 54 65  2  0
 55 53  1  0
 55 60  1  0
 56 64  1  0
 56 66  1  0
 57 63  1  0
 57 59  1  0
 58 64  1  0
 59 58  1  0
 60 59  2  0
 61 62  1  0
 61 55  2  0
 62 57  2  0
 63 56  1  0
 64 54  1  0
 66 68  2  0
 67 66  1  0
 69 67  1  0
 70 79  2  0
 70 75  1  0
 71 67  1  0
 71 75  1  0
 72 71  1  0
 73 74  1  0
 73 72  1  0
 74 70  1  0
 75 76  2  0
 76 77  1  0
 78 77  2  0
 79 78  1  0
 80 54  1  0
 80 85  1  0
 80 81  1  0
 81 84  1  1
 81 82  1  0
 83 81  1  0
 85 88  1  0
 86 90  1  0
 86 85  1  0
 87 86  2  0
 90 89  1  0
 92 90  1  0
 92 93  1  0
 92 91  1  0
M  ISO  4  12 100  20 100  51 101  53 101
M  END
>  <TORSDO>  (93) 
F 19

>  <SCORE>  (93) 
-14.247

>  <name>  (93) 
93

>  <ligand_id>  (93) 
93

>  <original_smiles>  (93) 
[H]c1c([H])c([H])c2c(c1[H])C([H])([H])C([H])([H])C([H])([H])C2([H])N([H])C(=O)C1([H])N(C(=O)C([H])(N([H])C(=O)C([H])(N([H])C([H])([H])[H])C([H])([H])[H])C(C([H])([H])[H])(C([H])([H])[H])C([H])([H])[H])C([H])([H])c2c([H])c(OC(=O)C([H])([H])N([H])C(=O)c3c([H])c([H])c(N([H])C(=O)N4C([H])([H])C([H])([H])C([H])([H])C([H])(n5nc(-c6c([H])c([H])c(Oc7c([H])c([H])c(F)c([H])c7F)c([H])c6[H])c(C(=O)N([H])[H])c5N([H])[H])C4([H])[H])c([H])c3F)c([H])c([H])c2C1([H])[H]

>  <smiles>  (93) 
[H]c1c([H])c([H])c2c(c1[H])C([H])([H])C([H])([H])C([H])([H])C2([H])N([H])C(=O)C1([H])N(C(=O)C([H])(N([H])C(=O)C([H])(N([H])C([H])([H])[H])C([H])([H])[H])C(C([H])([H])[H])(C([H])([H])[H])C([H])([H])[H])C([H])([H])c2c([H])c(OC(=O)C([H])([H])N([H])C(=O)c3c([H])c([H])c(N([H])C(=O)N4C([H])([H])C([H])([H])C([H])([H])C([H])(n5nc(-c6c([H])c([H])c(Oc7c([H])c([H])c(F)c([H])c7F)c([H])c6[H])c(C(=O)N([H])[H])c5N([H])[H])C4([H])[H])c([H])c3F)c([H])c([H])c2C1([H])[H]

$$$$
94:0:0
     RDKit          3D

 93102  0  0  1  0  0  0  0  0999 V2000
  -28.8320  -21.9880   18.4960 C   0  0  0  0  0  0  0  0  0  0  0  0
  -28.4680  -23.4740   18.6100 C   0  0  0  0  0  2  0  0  0  0  0  0
  -29.3630  -22.5810   20.6410 C   0  0  0  0  0  2  0  0  0  0  0  0
  -29.1580  -23.9510   19.8880 C   0  0  0  0  0  3  0  0  0  0  0  0
  -29.3480  -21.4760   19.6400 N   0  0  0  0  0  0  0  0  0  0  0  0
  -28.6420  -21.3870   17.4350 O   0  0  0  0  0  0  0  0  0  0  0  0
  -29.9840  -17.6500   19.2630 C   0  0  0  0  0  3  0  0  0  0  0  0
  -30.4920  -18.3100   21.5030 C   0  0  0  0  0  3  0  0  0  0  0  0
  -29.6650  -19.0080   18.9540 C   0  0  0  0  0  3  0  0  0  0  0  0
  -30.1720  -19.6660   21.1990 C   0  0  0  0  0  3  0  0  0  0  0  0
  -30.3930  -17.2440   20.5600 C   0  0  0  0  0  0  0  0  0  0  0  0
  -29.7250  -20.0680   19.9150 C   0  0  0  0  0  0  0  0  0  0  0  0
  -30.6130  -15.7830   21.0120 C   0  0  0  0  0  0  0  0  0  0  0  0
  -30.4350  -15.5080   22.2380 N   0  0  0  0  0  0  0  0  0  0  0  0
  -30.1220  -16.3250   22.7490 H   0  0  0  0  0  0  0  0  0  0  0  0
  -31.1260  -14.6720   20.0230 C   0  0  0  0  0  0  0  0  0  0  0  0
  -30.7120  -12.5410   18.7960 C   0  0  0  0  0  2  0  0  0  0  0  0
  -29.7040  -12.7890   17.6520 C   0  0  0  0  0  2  0  0  0  0  0  0
  -28.2520  -12.6650   18.1550 C   0  0  0  0  0  2  0  0  0  0  0  0
  -28.0160  -13.4560   19.4680 C   0  0  0  0  0  3  0  0  0  0  0  0
  -29.1200  -13.1410   20.4960 C   0  0  0  0  0  2  0  0  0  0  0  0
  -30.4190  -13.4940   19.8910 N   0  0  0  0  0  0  0  0  0  0  0  0
  -32.1710  -14.8600   19.3890 O   0  0  0  0  0  0  0  0  0  0  0  0
  -25.6870  -14.1250   20.3290 C   0  0  0  0  0  0  0  0  0  0  0  0
  -24.6160  -13.3810   20.7440 C   0  0  0  0  0  0  0  0  0  0  0  0
  -25.0260  -12.0150   20.6580 C   0  0  0  0  0  0  0  0  0  0  0  0
  -26.6830  -13.2130   20.0170 N   0  0  0  0  0  0  0  0  0  0  0  0
  -26.2930  -11.9380   20.2710 N   0  0  0  0  0  0  0  0  0  0  0  0
  -24.2670  -10.7760   20.8650 C   0  0  0  0  0  0  0  0  0  0  0  0
  -24.6930   -9.7930   21.7850 C   0  0  0  0  0  3  0  0  0  0  0  0
  -23.9370   -8.6180   21.9780 C   0  0  0  0  0  3  0  0  0  0  0  0
  -22.7390   -8.4160   21.2520 C   0  0  0  0  0  0  0  0  0  0  0  0
  -22.3310   -9.3870   20.3200 C   0  0  0  0  0  3  0  0  0  0  0  0
  -23.0880  -10.5540   20.1250 C   0  0  0  0  0  3  0  0  0  0  0  0
  -21.9520   -7.2940   21.3560 O   0  0  0  0  0  0  0  0  0  0  0  0
  -21.8680   -6.5800   22.5240 C   0  0  0  0  0  0  0  0  0  0  0  0
  -21.4520   -7.1770   23.7340 C   0  0  0  0  0  3  0  0  0  0  0  0
  -21.3120   -6.3910   24.8960 C   0  0  0  0  0  3  0  0  0  0  0  0
  -21.5780   -5.0090   24.8480 C   0  0  0  0  0  0  0  0  0  0  0  0
  -21.9890   -4.4130   23.6430 C   0  0  0  0  0  3  0  0  0  0  0  0
  -22.1300   -5.1950   22.4830 C   0  0  0  0  0  0  0  0  0  0  0  0
  -22.5050   -4.6110   21.3200 F   0  0  0  0  0  0  0  0  0  0  0  0
  -21.4370   -4.2530   25.9610 F   0  0  0  0  0  0  0  0  0  0  0  0
  -23.2540  -13.9010   21.1090 C   0  0  0  0  0  0  0  0  0  0  0  0
  -22.5600  -13.2180   22.0120 N   0  0  0  0  0  0  0  0  0  0  0  0
  -22.8180  -14.9460   20.6280 O   0  0  0  0  0  0  0  0  0  0  0  0
  -22.9260  -12.3710   22.4220 H   0  0  0  0  0  0  0  0  0  0  0  0
  -21.6480  -13.5460   22.2990 H   0  0  0  0  0  0  0  0  0  0  0  0
  -25.8910  -15.4920   20.1740 N   0  0  0  0  0  0  0  0  0  0  0  0
  -25.1610  -16.1750   20.3510 H   0  0  0  0  0  0  0  0  0  0  0  0
  -26.7480  -15.9110   19.8340 H   0  0  0  0  0  0  0  0  0  0  0  0
  -28.4270  -25.1360   20.6560 C   0  0  0  0  0  2  0  0  0  0  0  0
  -28.5970  -26.5250   20.1840 O   0  0  0  0  0  0  0  0  0  0  0  0
  -24.6910  -31.7980   23.1840 C   0  0  0  0  0  0  0  0  0  0  0  0
  -27.4570  -27.3330   20.1580 C   0  0  0  0  0  0  0  0  0  0  0  0
  -23.5460  -30.3850   21.5130 C   0  0  0  0  0  3  0  0  0  0  0  0
  -25.0560  -28.8710   20.1100 C   0  0  0  0  0  0  0  0  0  0  0  0
  -26.0800  -30.7620   21.3780 C   0  0  0  0  0  2  0  0  0  0  0  0
  -26.2020  -29.3910   20.7290 C   0  0  0  0  0  0  0  0  0  0  0  0
  -27.4080  -28.6340   20.7390 C   0  0  0  0  0  3  0  0  0  0  0  0
  -26.2930  -26.8570   19.5170 C   0  0  0  0  0  3  0  0  0  0  0  0
  -25.1020  -27.6090   19.4950 C   0  0  0  0  0  3  0  0  0  0  0  0
  -23.8010  -29.7180   20.1350 C   0  0  0  0  0  2  0  0  0  0  0  0
  -24.7900  -30.9980   22.0830 N   0  0  0  0  0  0  0  0  0  0  0  0
  -23.5920  -32.0510   23.6990 O   0  0  0  0  0  0  0  0  0  0  0  0
  -22.8860  -29.3510   22.4550 C   0  0  0  0  0  0  0  0  0  0  0  0
  -21.5650  -29.1530   22.3030 N   0  0  0  0  0  0  0  0  0  0  0  0
  -23.5610  -28.7290   23.2800 O   0  0  0  0  0  0  0  0  0  0  0  0
  -21.0810  -29.7050   21.6090 H   0  0  0  0  0  0  0  0  0  0  0  0
  -18.2010  -27.8960   22.7270 C   0  0  0  0  0  0  0  0  0  0  0  0
  -20.7480  -28.1990   23.0520 C   0  0  0  0  0  3  0  0  0  0  0  0
  -20.8890  -26.7720   22.4740 C   0  0  0  0  0  2  0  0  0  0  0  0
  -19.8140  -26.4330   21.4360 C   0  0  0  0  0  2  0  0  0  0  0  0
  -18.4150  -26.5520   22.0490 C   0  0  0  0  0  2  0  0  0  0  0  0
  -19.2970  -28.6750   23.1830 C   0  0  0  0  0  0  0  0  0  0  0  0
  -19.0420  -29.9330   23.7730 C   0  0  0  0  0  3  0  0  0  0  0  0
  -17.7250  -30.4110   23.9120 C   0  0  0  0  0  3  0  0  0  0  0  0
  -16.6440  -29.6270   23.4730 C   0  0  0  0  0  3  0  0  0  0  0  0
  -16.8830  -28.3720   22.8860 C   0  0  0  0  0  3  0  0  0  0  0  0
  -25.9490  -32.4510   23.8350 C   0  0  0  0  0  3  0  0  0  0  0  0
  -26.4550  -31.6830   25.1180 C   0  0  1  0  0  0  0  0  0  0  0  0
  -25.3450  -31.4170   26.1620 C   0  0  0  0  0  1  0  0  0  0  0  0
  -27.0730  -30.3190   24.7330 C   0  0  0  0  0  1  0  0  0  0  0  0
  -27.5770  -32.4940   25.8060 C   0  0  0  0  0  1  0  0  0  0  0  0
  -25.6080  -33.8420   24.1660 N   0  0  0  0  0  0  0  0  0  0  0  0
  -25.9340  -34.9040   23.4170 C   0  0  0  0  0  0  0  0  0  0  0  0
  -26.6250  -34.8170   22.3980 O   0  0  0  0  0  0  0  0  0  0  0  0
  -24.9980  -33.9810   24.9570 H   0  0  0  0  0  0  0  0  0  0  0  0
  -24.1770  -36.6630   23.0420 C   0  0  0  0  0  1  0  0  0  0  0  0
  -25.4130  -36.2810   23.8730 C   0  0  0  0  0  3  0  0  0  0  0  0
  -27.5170  -37.2010   24.7400 C   0  0  0  0  0  1  0  0  0  0  0  0
  -26.4270  -37.3540   23.7800 N   0  0  0  0  0  0  0  0  0  0  0  0
  -26.0010  -38.2650   23.9260 H   0  0  0  0  0  0  0  0  0  0  0  0
  1  2  1  0
  1  5  1  0
  2  4  1  0
  4  3  1  0
  4 52  1  0
  5 12  1  0
  5  3  1  0
  6  1  2  0
  7 11  1  0
  9  7  2  0
  9 12  1  0
 10  8  1  0
 11 13  1  0
 11  8  2  0
 12 10  2  0
 13 14  2  0
 14 15  1  0
 16 13  1  0
 17 22  1  0
 18 19  1  0
 18 17  1  0
 20 19  1  0
 20 27  1  0
 20 21  1  0
 22 16  1  0
 22 21  1  0
 23 16  2  0
 24 25  2  0
 25 44  1  0
 26 25  1  0
 26 29  1  0
 27 28  1  0
 27 24  1  0
 28 26  2  0
 29 30  1  0
 30 31  2  0
 32 35  1  0
 32 31  1  0
 33 32  2  0
 34 33  1  0
 34 29  2  0
 35 36  1  0
 36 37  1  0
 37 38  2  0
 39 38  1  0
 39 43  1  0
 40 39  2  0
 41 36  2  0
 41 40  1  0
 42 41  1  0
 44 45  1  0
 45 48  1  0
 45 47  1  0
 46 44  2  0
 49 24  1  0
 49 50  1  0
 51 49  1  0
 53 52  1  0
 54 65  2  0
 55 53  1  0
 55 60  1  0
 56 64  1  0
 56 66  1  0
 57 63  1  0
 57 59  1  0
 58 64  1  0
 59 60  2  0
 59 58  1  0
 61 55  2  0
 62 61  1  0
 62 57  2  0
 63 56  1  0
 64 54  1  0
 66 68  2  0
 67 66  1  0
 69 67  1  0
 70 79  2  0
 70 75  1  0
 71 67  1  0
 71 75  1  0
 72 71  1  0
 73 74  1  0
 73 72  1  0
 74 70  1  0
 75 76  2  0
 76 77  1  0
 78 77  2  0
 79 78  1  0
 80 54  1  0
 80 85  1  0
 80 81  1  0
 81 84  1  1
 81 82  1  0
 83 81  1  0
 85 88  1  0
 86 90  1  0
 86 85  1  0
 87 86  2  0
 90 89  1  0
 92 90  1  0
 92 93  1  0
 92 91  1  0
M  ISO  4  13 100  16 100  52 101  53 101
M  END
>  <TORSDO>  (94) 
F 19

>  <SCORE>  (94) 
-13.741

>  <name>  (94) 
94

>  <ligand_id>  (94) 
94

>  <original_smiles>  (94) 
[H]N=C(C(=O)N1C([H])([H])C([H])([H])C([H])([H])C([H])(n2nc(-c3c([H])c([H])c(Oc4c([H])c([H])c(F)c([H])c4F)c([H])c3[H])c(C(=O)N([H])[H])c2N([H])[H])C1([H])[H])c1c([H])c([H])c(N2C(=O)C([H])([H])C([H])(C([H])([H])Oc3c([H])c([H])c4c(c3[H])C([H])([H])N(C(=O)C([H])(N([H])C(=O)C([H])(N([H])C([H])([H])[H])C([H])([H])[H])C(C([H])([H])[H])(C([H])([H])[H])C([H])([H])[H])C([H])(C(=O)N([H])C3([H])c5c([H])c([H])c([H])c([H])c5C([H])([H])C([H])([H])C3([H])[H])C4([H])[H])C2([H])[H])c([H])c1[H]

>  <smiles>  (94) 
[H]N=C(C(=O)N1C([H])([H])C([H])([H])C([H])([H])C([H])(n2nc(-c3c([H])c([H])c(Oc4c([H])c([H])c(F)c([H])c4F)c([H])c3[H])c(C(=O)N([H])[H])c2N([H])[H])C1([H])[H])c1c([H])c([H])c(N2C(=O)C([H])([H])C([H])(C([H])([H])Oc3c([H])c([H])c4c(c3[H])C([H])([H])N(C(=O)C([H])(N([H])C(=O)C([H])(N([H])C([H])([H])[H])C([H])([H])[H])C(C([H])([H])[H])(C([H])([H])[H])C([H])([H])[H])C([H])(C(=O)N([H])C3([H])c5c([H])c([H])c([H])c([H])c5C([H])([H])C([H])([H])C3([H])[H])C4([H])[H])C2([H])[H])c([H])c1[H]

$$$$
95:0:0
     RDKit          3D

 96105  0  0  1  0  0  0  0  0999 V2000
  -28.4590  -23.0410   19.9240 C   0  0  0  0  0  3  0  0  0  0  0  0
  -29.7540  -22.7160   19.5610 C   0  0  0  0  0  0  0  0  0  0  0  0
  -30.7480  -23.8110   19.5840 C   0  0  0  0  0  0  0  0  0  0  0  0
  -30.3900  -25.0550   20.3900 C   0  0  0  0  0  2  0  0  0  0  0  0
  -28.9090  -25.4530   20.2280 C   0  0  0  0  0  2  0  0  0  0  0  0
  -27.9770  -24.3210   20.3550 N   0  0  0  0  0  0  0  0  0  0  0  0
  -31.8330  -23.7840   18.9950 O   0  0  0  0  0  0  0  0  0  0  0  0
  -26.3470  -26.1700   20.8380 C   0  0  0  0  0  3  0  0  0  0  0  0
  -25.0380  -26.7410   20.8070 C   0  0  0  0  0  3  0  0  0  0  0  0
  -24.1380  -24.5720   20.3340 C   0  0  0  0  0  3  0  0  0  0  0  0
  -26.6190  -24.7980   20.5400 C   0  0  0  0  0  0  0  0  0  0  0  0
  -23.8850  -25.9670   20.5070 C   0  0  0  0  0  0  0  0  0  0  0  0
  -25.4530  -24.0050   20.3220 C   0  0  0  0  0  0  0  0  0  0  0  0
  -25.5880  -22.6910   20.0120 F   0  0  0  0  0  0  0  0  0  0  0  0
  -22.0730  -27.8130   20.5670 C   0  0  0  0  0  0  0  0  0  0  0  0
  -20.3180  -29.1040   21.8330 C   0  0  0  0  0  2  0  0  0  0  0  0
  -20.1580  -28.5990   23.2880 C   0  0  0  0  0  2  0  0  0  0  0  0
  -19.2520  -27.3550   23.3840 C   0  0  0  0  0  2  0  0  0  0  0  0
  -19.5570  -26.3110   22.2800 C   0  0  0  0  0  3  0  0  0  0  0  0
  -19.6180  -27.0210   20.9190 C   0  0  0  0  0  2  0  0  0  0  0  0
  -20.7500  -27.9700   20.9690 N   0  0  0  0  0  0  0  0  0  0  0  0
  -22.8400  -28.7790   20.6850 O   0  0  0  0  0  0  0  0  0  0  0  0
  -22.5620  -26.5560   20.1720 N   0  0  0  0  0  0  0  0  0  0  0  0
  -18.8040  -23.8690   22.0070 C   0  0  0  0  0  0  0  0  0  0  0  0
  -17.6020  -23.2510   22.2270 C   0  0  0  0  0  0  0  0  0  0  0  0
  -16.6990  -24.2780   22.6430 C   0  0  0  0  0  0  0  0  0  0  0  0
  -18.5950  -25.2110   22.2840 N   0  0  0  0  0  0  0  0  0  0  0  0
  -17.3050  -25.4600   22.6210 N   0  0  0  0  0  0  0  0  0  0  0  0
  -15.3120  -24.1970   23.1200 C   0  0  0  0  0  0  0  0  0  0  0  0
  -14.2190  -24.3180   22.2360 C   0  0  0  0  0  3  0  0  0  0  0  0
  -12.8960  -24.2190   22.7190 C   0  0  0  0  0  3  0  0  0  0  0  0
  -12.6590  -23.9950   24.0950 C   0  0  0  0  0  0  0  0  0  0  0  0
  -13.7500  -23.8970   24.9740 C   0  0  0  0  0  3  0  0  0  0  0  0
  -15.0660  -24.0000   24.4940 C   0  0  0  0  0  3  0  0  0  0  0  0
  -11.4090  -23.9100   24.6560 O   0  0  0  0  0  0  0  0  0  0  0  0
  -10.3620  -23.3190   23.9950 C   0  0  0  0  0  0  0  0  0  0  0  0
  -10.3840  -21.9540   23.6360 C   0  0  0  0  0  3  0  0  0  0  0  0
   -9.2580  -21.3700   23.0220 C   0  0  0  0  0  3  0  0  0  0  0  0
   -8.1100  -22.1450   22.7720 C   0  0  0  0  0  0  0  0  0  0  0  0
   -8.0860  -23.5050   23.1310 C   0  0  0  0  0  3  0  0  0  0  0  0
   -9.2080  -24.0880   23.7440 C   0  0  0  0  0  0  0  0  0  0  0  0
   -9.1720  -25.3930   24.1090 F   0  0  0  0  0  0  0  0  0  0  0  0
   -7.0250  -21.5850   22.1860 F   0  0  0  0  0  0  0  0  0  0  0  0
  -17.3260  -21.7780   22.1430 C   0  0  0  0  0  0  0  0  0  0  0  0
  -16.0980  -21.4050   21.7990 N   0  0  0  0  0  0  0  0  0  0  0  0
  -18.2140  -20.9500   22.3360 O   0  0  0  0  0  0  0  0  0  0  0  0
  -15.3760  -22.0890   21.6270 H   0  0  0  0  0  0  0  0  0  0  0  0
  -15.8790  -20.4230   21.7130 H   0  0  0  0  0  0  0  0  0  0  0  0
  -20.0550  -23.4010   21.6220 N   0  0  0  0  0  0  0  0  0  0  0  0
  -20.2470  -22.4100   21.5190 H   0  0  0  0  0  0  0  0  0  0  0  0
  -20.8910  -23.9700   21.5910 H   0  0  0  0  0  0  0  0  0  0  0  0
  -21.7920  -25.7840   19.1630 C   0  0  0  0  0  2  0  0  0  0  0  0
  -22.3820  -23.8480   17.5660 C   0  0  0  0  0  1  0  0  0  0  0  0
  -22.5220  -25.3560   17.8610 C   0  0  0  0  0  2  0  0  0  0  0  0
  -30.2510  -21.3110   19.0550 C   0  0  0  0  0  2  0  0  0  0  0  0
  -31.6930  -20.9510   19.0990 O   0  0  0  0  0  0  0  0  0  0  0  0
  -36.6820  -18.4410   14.5300 C   0  0  0  0  0  0  0  0  0  0  0  0
  -32.1240  -19.9040   18.2650 C   0  0  0  0  0  0  0  0  0  0  0  0
  -34.4740  -17.3340   14.4710 C   0  0  0  0  0  3  0  0  0  0  0  0
  -32.9140  -17.8610   16.4240 C   0  0  0  0  0  0  0  0  0  0  0  0
  -35.3360  -18.4050   16.6370 C   0  0  0  0  0  2  0  0  0  0  0  0
  -33.8880  -18.6640   17.0290 C   0  0  0  0  0  0  0  0  0  0  0  0
  -33.5010  -19.6800   17.9550 C   0  0  0  0  0  3  0  0  0  0  0  0
  -31.1830  -19.0340   17.6630 C   0  0  0  0  0  3  0  0  0  0  0  0
  -31.5620  -18.0380   16.7460 C   0  0  0  0  0  3  0  0  0  0  0  0
  -33.3750  -16.8120   15.4340 C   0  0  0  0  0  2  0  0  0  0  0  0
  -35.5380  -18.1020   15.1930 N   0  0  0  0  0  0  0  0  0  0  0  0
  -36.8670  -18.1000   13.3530 O   0  0  0  0  0  0  0  0  0  0  0  0
  -33.8060  -18.1410   13.3340 C   0  0  0  0  0  0  0  0  0  0  0  0
  -33.2030  -17.4340   12.3640 N   0  0  0  0  0  0  0  0  0  0  0  0
  -33.8140  -19.3750   13.3460 O   0  0  0  0  0  0  0  0  0  0  0  0
  -33.2480  -16.4260   12.4160 H   0  0  0  0  0  0  0  0  0  0  0  0
  -31.1900  -16.5580    9.4860 C   0  0  0  0  0  0  0  0  0  0  0  0
  -32.4810  -17.9840   11.2150 C   0  0  0  0  0  3  0  0  0  0  0  0
  -31.1000  -18.5370   11.6380 C   0  0  0  0  0  2  0  0  0  0  0  0
  -29.9720  -17.5130   11.4900 C   0  0  0  0  0  2  0  0  0  0  0  0
  -29.8580  -17.0450   10.0350 C   0  0  0  0  0  2  0  0  0  0  0  0
  -32.4200  -16.9870   10.0500 C   0  0  0  0  0  0  0  0  0  0  0  0
  -33.6280  -16.4770    9.5270 C   0  0  0  0  0  3  0  0  0  0  0  0
  -33.6190  -15.5590    8.4590 C   0  0  0  0  0  3  0  0  0  0  0  0
  -32.3990  -15.1510    7.8950 C   0  0  0  0  0  3  0  0  0  0  0  0
  -31.1880  -15.6510    8.4060 C   0  0  0  0  0  3  0  0  0  0  0  0
  -37.8200  -19.2480   15.2260 C   0  0  0  0  0  3  0  0  0  0  0  0
  -37.8030  -20.7830   14.8600 C   0  0  1  0  0  0  0  0  0  0  0  0
  -37.7540  -21.0630   13.3410 C   0  0  0  0  0  1  0  0  0  0  0  0
  -36.5860  -21.4940   15.4980 C   0  0  0  0  0  1  0  0  0  0  0  0
  -39.0640  -21.4720   15.4340 C   0  0  0  0  0  1  0  0  0  0  0  0
  -39.1000  -18.6400   14.8340 N   0  0  0  0  0  0  0  0  0  0  0  0
  -39.7780  -17.7490   15.5710 C   0  0  0  0  0  0  0  0  0  0  0  0
  -39.4210  -17.4070   16.7030 O   0  0  0  0  0  0  0  0  0  0  0  0
  -39.4300  -18.8430   13.9010 H   0  0  0  0  0  0  0  0  0  0  0  0
  -40.7640  -15.7320   14.4360 C   0  0  0  0  0  1  0  0  0  0  0  0
  -41.0560  -17.1480   14.9560 C   0  0  0  0  0  3  0  0  0  0  0  0
  -42.7500  -18.4300   16.1880 C   0  0  0  0  0  1  0  0  0  0  0  0
  -42.1980  -17.1100   15.8930 N   0  0  0  0  0  0  0  0  0  0  0  0
  -42.9460  -16.5310   15.5200 H   0  0  0  0  0  0  0  0  0  0  0  0
  1  6  1  0
  2  3  1  0
  2  1  2  0
  3  4  1  0
  5  6  1  0
  5  4  1  0
  6 11  1  0
  7  3  2  0
  9  8  1  0
 10 12  1  0
 11  8  2  0
 12  9  2  0
 13 10  2  0
 13 11  1  0
 14 13  1  0
 15 22  2  0
 15 21  1  0
 16 17  1  0
 17 18  1  0
 19 20  1  0
 19 27  1  0
 19 18  1  0
 20 21  1  0
 21 16  1  0
 23 12  1  0
 23 15  1  0
 24 25  2  0
 24 27  1  0
 25 26  1  0
 26 29  1  0
 27 28  1  0
 28 26  2  0
 29 34  1  0
 30 31  1  0
 30 29  2  0
 31 32  2  0
 32 35  1  0
 32 33  1  0
 34 33  2  0
 36 35  1  0
 37 36  2  0
 38 37  1  0
 39 38  2  0
 39 40  1  0
 40 41  2  0
 41 36  1  0
 41 42  1  0
 43 39  1  0
 44 25  1  0
 44 46  2  0
 45 44  1  0
 47 45  1  0
 48 45  1  0
 49 24  1  0
 50 49  1  0
 51 49  1  0
 52 23  1  0
 53 54  1  0
 54 52  1  0
 55 56  1  0
 55  2  1  0
 57 67  1  0
 58 56  1  0
 59 69  1  0
 59 67  1  0
 59 66  1  0
 60 65  2  0
 60 62  1  0
 61 62  1  0
 62 63  2  0
 63 58  1  0
 64 58  2  0
 65 64  1  0
 66 60  1  0
 67 61  1  0
 68 57  2  0
 69 71  2  0
 70 72  1  0
 70 69  1  0
 73 77  1  0
 73 78  1  0
 74 75  1  0
 74 70  1  0
 76 75  1  0
 77 76  1  0
 78 74  1  0
 79 78  2  0
 80 79  1  0
 81 82  1  0
 81 80  2  0
 82 73  2  0
 83 57  1  0
 84 83  1  0
 84 87  1  1
 84 86  1  0
 85 84  1  0
 88 83  1  0
 88 89  1  0
 89 90  2  0
 91 88  1  0
 93 92  1  0
 93 89  1  0
 93 95  1  0
 95 94  1  0
 96 95  1  0
M  ISO  4  15 100  23 100  55 101  56 101
M  END
>  <TORSDO>  (95) 
F 20

>  <SCORE>  (95) 
-3.983

>  <name>  (95) 
95

>  <ligand_id>  (95) 
95

>  <original_smiles>  (95) 
[H]C1=C(C([H])([H])Oc2c([H])c([H])c3c(c2[H])C([H])([H])N(C(=O)C([H])(N([H])C(=O)C([H])(N([H])C([H])([H])[H])C([H])([H])[H])C(C([H])([H])[H])(C([H])([H])[H])C([H])([H])[H])C([H])(C(=O)N([H])C2([H])c4c([H])c([H])c([H])c([H])c4C([H])([H])C([H])([H])C2([H])[H])C3([H])[H])C(=O)C([H])([H])C([H])([H])N1c1c([H])c([H])c(N(C(=O)N2C([H])([H])C([H])([H])C([H])([H])C([H])(n3nc(-c4c([H])c([H])c(Oc5c([H])c([H])c(F)c([H])c5F)c([H])c4[H])c(C(=O)N([H])[H])c3N([H])[H])C2([H])[H])C([H])([H])C([H])([H])C([H])([H])[H])c([H])c1F

>  <smiles>  (95) 
[H]C1=C(C([H])([H])Oc2c([H])c([H])c3c(c2[H])C([H])([H])N(C(=O)C([H])(N([H])C(=O)C([H])(N([H])C([H])([H])[H])C([H])([H])[H])C(C([H])([H])[H])(C([H])([H])[H])C([H])([H])[H])C([H])(C(=O)N([H])C2([H])c4c([H])c([H])c([H])c([H])c4C([H])([H])C([H])([H])C2([H])[H])C3([H])[H])C(=O)C([H])([H])C([H])([H])N1c1c([H])c([H])c(N(C(=O)N2C([H])([H])C([H])([H])C([H])([H])C([H])(n3nc(-c4c([H])c([H])c(Oc5c([H])c([H])c(F)c([H])c5F)c([H])c4[H])c(C(=O)N([H])[H])c3N([H])[H])C2([H])[H])C([H])([H])C([H])([H])C([H])([H])[H])c([H])c1F

$$$$
96:0:0
     RDKit          3D

 93102  0  0  1  0  0  0  0  0999 V2000
  -30.6360  -22.3880   21.1780 C   0  0  0  0  0  0  0  0  0  0  0  0
  -30.2870  -23.8750   21.0420 C   0  0  0  0  0  2  0  0  0  0  0  0
  -28.7420  -22.4410   19.8920 C   0  0  0  0  0  2  0  0  0  0  0  0
  -28.8530  -23.8980   20.5150 C   0  0  0  0  0  3  0  0  0  0  0  0
  -29.7930  -21.5710   20.5000 N   0  0  0  0  0  0  0  0  0  0  0  0
  -31.5940  -22.0370   21.8730 O   0  0  0  0  0  0  0  0  0  0  0  0
  -28.7470  -19.2430   20.2910 C   0  0  0  0  0  3  0  0  0  0  0  0
  -28.8430  -17.8140   20.3460 C   0  0  0  0  0  3  0  0  0  0  0  0
  -31.1250  -19.3870   20.5420 C   0  0  0  0  0  3  0  0  0  0  0  0
  -29.8840  -20.0880   20.4310 C   0  0  0  0  0  0  0  0  0  0  0  0
  -30.0810  -17.1300   20.5180 C   0  0  0  0  0  0  0  0  0  0  0  0
  -31.2260  -17.9650   20.6000 C   0  0  0  0  0  0  0  0  0  0  0  0
  -32.4450  -17.4150   20.8180 F   0  0  0  0  0  0  0  0  0  0  0  0
  -30.6780  -14.6870   20.0660 C   0  0  0  0  0  0  0  0  0  0  0  0
  -30.3230  -12.5230   18.8590 C   0  0  0  0  0  2  0  0  0  0  0  0
  -29.3060  -12.7010   17.7100 C   0  0  0  0  0  2  0  0  0  0  0  0
  -27.8630  -12.5250   18.2210 C   0  0  0  0  0  2  0  0  0  0  0  0
  -27.5940  -13.3370   19.5140 C   0  0  0  0  0  3  0  0  0  0  0  0
  -28.7130  -13.1140   20.5480 C   0  0  0  0  0  2  0  0  0  0  0  0
  -29.9940  -13.4960   19.9260 N   0  0  0  0  0  0  0  0  0  0  0  0
  -31.7330  -14.8620   19.4480 O   0  0  0  0  0  0  0  0  0  0  0  0
  -30.0290  -15.4450   22.2840 C   0  0  0  0  0  1  0  0  0  0  0  0
  -30.1250  -15.6940   20.8390 N   0  0  0  0  0  0  0  0  0  0  0  0
  -25.2680  -13.9310   20.4290 C   0  0  0  0  0  0  0  0  0  0  0  0
  -24.2170  -13.1550   20.8330 C   0  0  0  0  0  0  0  0  0  0  0  0
  -24.6500  -11.8010   20.7000 C   0  0  0  0  0  0  0  0  0  0  0  0
  -26.2770  -13.0490   20.0740 N   0  0  0  0  0  0  0  0  0  0  0  0
  -25.9140  -11.7590   20.2960 N   0  0  0  0  0  0  0  0  0  0  0  0
  -23.9160  -10.5410   20.8750 C   0  0  0  0  0  0  0  0  0  0  0  0
  -24.3960   -9.5180   21.7230 C   0  0  0  0  0  3  0  0  0  0  0  0
  -23.6620   -8.3240   21.8900 C   0  0  0  0  0  3  0  0  0  0  0  0
  -22.4350   -8.1430   21.2080 C   0  0  0  0  0  0  0  0  0  0  0  0
  -21.9740   -9.1550   20.3470 C   0  0  0  0  0  3  0  0  0  0  0  0
  -22.7080  -10.3410   20.1780 C   0  0  0  0  0  3  0  0  0  0  0  0
  -21.6680   -7.0060   21.2870 O   0  0  0  0  0  0  0  0  0  0  0  0
  -21.6860   -6.2030   22.3990 C   0  0  0  0  0  0  0  0  0  0  0  0
  -21.3830   -6.7020   23.6850 C   0  0  0  0  0  3  0  0  0  0  0  0
  -21.3440   -5.8260   24.7890 C   0  0  0  0  0  3  0  0  0  0  0  0
  -21.6000   -4.4550   24.6090 C   0  0  0  0  0  0  0  0  0  0  0  0
  -21.8980   -3.9550   23.3290 C   0  0  0  0  0  3  0  0  0  0  0  0
  -21.9380   -4.8270   22.2260 C   0  0  0  0  0  0  0  0  0  0  0  0
  -22.2050   -4.3370   20.9920 F   0  0  0  0  0  0  0  0  0  0  0  0
  -21.5560   -3.6120   25.6670 F   0  0  0  0  0  0  0  0  0  0  0  0
  -22.8500  -13.6370   21.2270 C   0  0  0  0  0  0  0  0  0  0  0  0
  -22.1770  -12.9140   22.1140 N   0  0  0  0  0  0  0  0  0  0  0  0
  -22.3920  -14.6900   20.7840 O   0  0  0  0  0  0  0  0  0  0  0  0
  -22.5620  -12.0620   22.4940 H   0  0  0  0  0  0  0  0  0  0  0  0
  -21.2630  -13.2180   22.4190 H   0  0  0  0  0  0  0  0  0  0  0  0
  -25.4440  -15.3070   20.3110 N   0  0  0  0  0  0  0  0  0  0  0  0
  -24.6960  -15.9640   20.5040 H   0  0  0  0  0  0  0  0  0  0  0  0
  -26.2700  -15.7440   19.9240 H   0  0  0  0  0  0  0  0  0  0  0  0
  -28.4750  -25.1620   19.6140 C   0  0  0  0  0  2  0  0  0  0  0  0
  -28.4040  -26.5270   20.2070 O   0  0  0  0  0  0  0  0  0  0  0  0
  -24.6440  -31.8990   23.2360 C   0  0  0  0  0  0  0  0  0  0  0  0
  -27.2580  -27.3460   20.1470 C   0  0  0  0  0  0  0  0  0  0  0  0
  -23.4370  -30.5020   21.5990 C   0  0  0  0  0  3  0  0  0  0  0  0
  -24.8850  -28.9630   20.1620 C   0  0  0  0  0  0  0  0  0  0  0  0
  -25.9770  -30.8230   21.4080 C   0  0  0  0  0  2  0  0  0  0  0  0
  -26.0550  -29.4470   20.7560 C   0  0  0  0  0  0  0  0  0  0  0  0
  -27.2390  -28.6480   20.7430 C   0  0  0  0  0  3  0  0  0  0  0  0
  -26.0560  -26.9220   19.5290 C   0  0  0  0  0  3  0  0  0  0  0  0
  -24.8880  -27.7060   19.5430 C   0  0  0  0  0  3  0  0  0  0  0  0
  -23.6480  -29.8340   20.2150 C   0  0  0  0  0  2  0  0  0  0  0  0
  -24.7060  -31.0920   22.1370 N   0  0  0  0  0  0  0  0  0  0  0  0
  -23.5620  -32.1730   23.7740 O   0  0  0  0  0  0  0  0  0  0  0  0
  -22.7820  -29.4790   22.5580 C   0  0  0  0  0  0  0  0  0  0  0  0
  -21.4550  -29.3010   22.4360 N   0  0  0  0  0  0  0  0  0  0  0  0
  -23.4660  -28.8500   23.3690 O   0  0  0  0  0  0  0  0  0  0  0  0
  -20.9630  -29.8590   21.7530 H   0  0  0  0  0  0  0  0  0  0  0  0
  -18.0820  -28.1010   22.9500 C   0  0  0  0  0  0  0  0  0  0  0  0
  -20.6410  -28.3600   23.2090 C   0  0  0  0  0  3  0  0  0  0  0  0
  -20.7410  -26.9310   22.6300 C   0  0  0  0  0  2  0  0  0  0  0  0
  -19.6350  -26.6100   21.6200 C   0  0  0  0  0  2  0  0  0  0  0  0
  -18.2560  -26.7520   22.2710 C   0  0  0  0  0  2  0  0  0  0  0  0
  -19.2020  -28.8620   23.3760 C   0  0  0  0  0  0  0  0  0  0  0  0
  -18.9840  -30.1230   23.9720 C   0  0  0  0  0  3  0  0  0  0  0  0
  -17.6800  -30.6230   24.1450 C   0  0  0  0  0  3  0  0  0  0  0  0
  -16.5740  -29.8590   23.7340 C   0  0  0  0  0  3  0  0  0  0  0  0
  -16.7760  -28.5980   23.1430 C   0  0  0  0  0  3  0  0  0  0  0  0
  -25.9270  -32.5340   23.8550 C   0  0  0  0  0  3  0  0  0  0  0  0
  -25.6150  -33.9300   24.1900 N   0  0  0  0  0  0  0  0  0  0  0  0
  -25.9370  -34.9860   23.4310 C   0  0  0  0  0  0  0  0  0  0  0  0
  -26.6000  -34.8880   22.3960 O   0  0  0  0  0  0  0  0  0  0  0  0
  -25.0260  -34.0790   24.9960 H   0  0  0  0  0  0  0  0  0  0  0  0
  -24.1970  -36.7710   23.0990 C   0  0  0  0  0  1  0  0  0  0  0  0
  -25.4470  -36.3720   23.8970 C   0  0  0  0  0  3  0  0  0  0  0  0
  -27.5890  -37.2630   24.7050 C   0  0  0  0  0  1  0  0  0  0  0  0
  -26.4740  -37.4300   23.7740 N   0  0  0  0  0  0  0  0  0  0  0  0
  -26.0670  -38.3480   23.9300 H   0  0  0  0  0  0  0  0  0  0  0  0
  -26.4500  -31.7600   25.1270 C   0  0  1  0  0  0  0  0  0  0  0  0
  -25.3610  -31.5200   26.1990 C   0  0  0  0  0  1  0  0  0  0  0  0
  -27.0360  -30.3860   24.7320 C   0  0  0  0  0  1  0  0  0  0  0  0
  -27.6010  -32.5570   25.7870 C   0  0  0  0  0  1  0  0  0  0  0  0
  1  6  2  0
  2  1  1  0
  3  5  1  0
  3  4  1  0
  4 52  1  0
  4  2  1  0
  5  1  1  0
  7  8  2  0
  7 10  1  0
  8 11  1  0
  9 12  1  0
 10  5  1  0
 10  9  2  0
 11 12  2  0
 11 23  1  0
 12 13  1  0
 14 23  1  0
 15 20  1  0
 16 17  1  0
 16 15  1  0
 18 17  1  0
 18 27  1  0
 18 19  1  0
 20 14  1  0
 20 19  1  0
 21 14  2  0
 23 22  1  0
 24 25  2  0
 25 44  1  0
 26 25  1  0
 26 29  1  0
 27 28  1  0
 27 24  1  0
 28 26  2  0
 29 30  1  0
 30 31  2  0
 32 35  1  0
 32 31  1  0
 33 32  2  0
 34 33  1  0
 34 29  2  0
 35 36  1  0
 36 37  1  0
 37 38  2  0
 39 38  1  0
 39 43  1  0
 40 39  2  0
 41 36  2  0
 41 40  1  0
 42 41  1  0
 44 45  1  0
 45 48  1  0
 45 47  1  0
 46 44  2  0
 49 24  1  0
 49 50  1  0
 51 49  1  0
 52 53  1  0
 54 65  2  0
 55 53  1  0
 55 60  1  0
 56 64  1  0
 56 66  1  0
 57 63  1  0
 57 59  1  0
 58 64  1  0
 59 58  1  0
 60 59  2  0
 61 62  1  0
 61 55  2  0
 62 57  2  0
 63 56  1  0
 64 54  1  0
 66 68  2  0
 67 66  1  0
 69 67  1  0
 70 79  2  0
 70 75  1  0
 71 67  1  0
 71 75  1  0
 72 71  1  0
 73 74  1  0
 73 72  1  0
 74 70  1  0
 75 76  2  0
 76 77  1  0
 78 77  2  0
 79 78  1  0
 80 54  1  0
 80 81  1  0
 80 90  1  0
 81 84  1  0
 82 86  1  0
 82 81  1  0
 83 82  2  0
 86 85  1  0
 88 86  1  0
 88 89  1  0
 88 87  1  0
 90 93  1  1
 90 91  1  0
 92 90  1  0
M  ISO  4  14 100  23 100  52 101  53 101
M  END
>  <TORSDO>  (96) 
F 18

>  <SCORE>  (96) 
-13.831

>  <name>  (96) 
96

>  <ligand_id>  (96) 
96

>  <original_smiles>  (96) 
[H]c1c([H])c([H])c2c(c1[H])C([H])([H])C([H])([H])C([H])([H])C2([H])N([H])C(=O)C1([H])N(C(=O)C([H])(N([H])C(=O)C([H])(N([H])C([H])([H])[H])C([H])([H])[H])C(C([H])([H])[H])(C([H])([H])[H])C([H])([H])[H])C([H])([H])c2c([H])c(OC([H])([H])C3([H])C([H])([H])C(=O)N(c4c([H])c([H])c(N(C(=O)N5C([H])([H])C([H])([H])C([H])([H])C([H])(n6nc(-c7c([H])c([H])c(Oc8c([H])c([H])c(F)c([H])c8F)c([H])c7[H])c(C(=O)N([H])[H])c6N([H])[H])C5([H])[H])C([H])([H])[H])c(F)c4[H])C3([H])[H])c([H])c([H])c2C1([H])[H]

>  <smiles>  (96) 
[H]c1c([H])c([H])c2c(c1[H])C([H])([H])C([H])([H])C([H])([H])C2([H])N([H])C(=O)C1([H])N(C(=O)C([H])(N([H])C(=O)C([H])(N([H])C([H])([H])[H])C([H])([H])[H])C(C([H])([H])[H])(C([H])([H])[H])C([H])([H])[H])C([H])([H])c2c([H])c(OC([H])([H])C3([H])C([H])([H])C(=O)N(c4c([H])c([H])c(N(C(=O)N5C([H])([H])C([H])([H])C([H])([H])C([H])(n6nc(-c7c([H])c([H])c(Oc8c([H])c([H])c(F)c([H])c8F)c([H])c7[H])c(C(=O)N([H])[H])c6N([H])[H])C5([H])[H])C([H])([H])[H])c(F)c4[H])C3([H])[H])c([H])c([H])c2C1([H])[H]

$$$$
97:0:0
     RDKit          3D

 95103  0  0  1  0  0  0  0  0999 V2000
  -30.7560  -19.5890   19.5060 C   0  0  0  0  0  3  0  0  0  0  0  0
  -30.2680  -20.9260   19.5810 C   0  0  0  0  0  3  0  0  0  0  0  0
  -28.1760  -20.0600   20.3730 C   0  0  0  0  0  3  0  0  0  0  0  0
  -30.0010  -18.4370   19.8840 C   0  0  0  0  0  0  0  0  0  0  0  0
  -28.9620  -21.2050   20.0470 C   0  0  0  0  0  0  0  0  0  0  0  0
  -28.6640  -18.7110   20.3100 C   0  0  0  0  0  0  0  0  0  0  0  0
  -30.7870  -14.6180   19.8400 C   0  0  0  0  0  0  0  0  0  0  0  0
  -30.3900  -12.3340   18.9490 C   0  0  0  0  0  2  0  0  0  0  0  0
  -29.3960  -12.3920   17.7740 C   0  0  0  0  0  2  0  0  0  0  0  0
  -27.9540  -12.2750   18.2970 C   0  0  0  0  0  2  0  0  0  0  0  0
  -27.6670  -13.2280   19.4900 C   0  0  0  0  0  3  0  0  0  0  0  0
  -28.7910  -13.1950   20.5500 C   0  0  0  0  0  2  0  0  0  0  0  0
  -30.0570  -13.4560   19.8560 N   0  0  0  0  0  0  0  0  0  0  0  0
  -31.9580  -14.5590   19.4550 O   0  0  0  0  0  0  0  0  0  0  0  0
  -30.7580  -17.0810   19.9760 C   0  0  0  0  0  0  0  0  0  0  0  0
  -30.1540  -15.8370   20.0230 N   0  0  0  0  0  0  0  0  0  0  0  0
  -31.9900  -17.2020   19.9750 O   0  0  0  0  0  0  0  0  0  0  0  0
  -29.1540  -15.8310   20.1360 H   0  0  0  0  0  0  0  0  0  0  0  0
  -25.3610  -13.8820   20.4000 C   0  0  0  0  0  0  0  0  0  0  0  0
  -24.2960  -13.1370   20.8280 C   0  0  0  0  0  0  0  0  0  0  0  0
  -24.7080  -11.7720   20.7410 C   0  0  0  0  0  0  0  0  0  0  0  0
  -26.3540  -12.9730   20.0750 N   0  0  0  0  0  0  0  0  0  0  0  0
  -25.9740  -11.6980   20.3430 N   0  0  0  0  0  0  0  0  0  0  0  0
  -23.9530  -10.5310   20.9580 C   0  0  0  0  0  0  0  0  0  0  0  0
  -24.4020   -9.5380   21.8550 C   0  0  0  0  0  3  0  0  0  0  0  0
  -23.6460   -8.3640   22.0610 C   0  0  0  0  0  3  0  0  0  0  0  0
  -22.4250   -8.1750   21.3710 C   0  0  0  0  0  0  0  0  0  0  0  0
  -21.9940   -9.1560   20.4610 C   0  0  0  0  0  3  0  0  0  0  0  0
  -22.7500  -10.3220   20.2520 C   0  0  0  0  0  3  0  0  0  0  0  0
  -21.6380   -7.0550   21.4890 O   0  0  0  0  0  0  0  0  0  0  0  0
  -21.6210   -6.3050   22.6370 C   0  0  0  0  0  0  0  0  0  0  0  0
  -21.2600   -6.8580   23.8840 C   0  0  0  0  0  3  0  0  0  0  0  0
  -21.1890   -6.0350   25.0260 C   0  0  0  0  0  3  0  0  0  0  0  0
  -21.4680   -4.6600   24.9210 C   0  0  0  0  0  0  0  0  0  0  0  0
  -21.8230   -4.1050   23.6790 C   0  0  0  0  0  3  0  0  0  0  0  0
  -21.8950   -4.9260   22.5390 C   0  0  0  0  0  0  0  0  0  0  0  0
  -22.2160   -4.3820   21.3410 F   0  0  0  0  0  0  0  0  0  0  0  0
  -21.3930   -3.8670   26.0170 F   0  0  0  0  0  0  0  0  0  0  0  0
  -22.9390  -13.6560   21.2040 C   0  0  0  0  0  0  0  0  0  0  0  0
  -22.2530  -12.9740   22.1130 N   0  0  0  0  0  0  0  0  0  0  0  0
  -22.5010  -14.7020   20.7280 O   0  0  0  0  0  0  0  0  0  0  0  0
  -22.6220  -12.1270   22.5200 H   0  0  0  0  0  0  0  0  0  0  0  0
  -21.3450  -13.3040   22.4080 H   0  0  0  0  0  0  0  0  0  0  0  0
  -25.5600  -15.2500   20.2400 N   0  0  0  0  0  0  0  0  0  0  0  0
  -24.8360  -15.9290   20.4470 H   0  0  0  0  0  0  0  0  0  0  0  0
  -26.4230  -15.6800   19.9280 H   0  0  0  0  0  0  0  0  0  0  0  0
  -28.8550  -23.8250   19.9930 C   0  0  0  0  0  0  0  0  0  0  0  0
  -28.4040  -22.5500   20.2460 N   0  0  0  0  0  0  0  0  0  0  0  0
  -29.9100  -24.0560   19.3950 O   0  0  0  0  0  0  0  0  0  0  0  0
  -27.5050  -22.5530   20.7080 H   0  0  0  0  0  0  0  0  0  0  0  0
  -27.9630  -25.0290   20.5010 C   0  0  0  0  0  2  0  0  0  0  0  0
  -28.2830  -26.3990   20.0230 O   0  0  0  0  0  0  0  0  0  0  0  0
  -24.5630  -31.7260   23.1630 C   0  0  0  0  0  0  0  0  0  0  0  0
  -27.1950  -27.2780   19.9930 C   0  0  0  0  0  0  0  0  0  0  0  0
  -23.3720  -30.3790   21.4720 C   0  0  0  0  0  3  0  0  0  0  0  0
  -24.8340  -28.8790   20.0050 C   0  0  0  0  0  0  0  0  0  0  0  0
  -25.9100  -30.7110   21.3140 C   0  0  0  0  0  2  0  0  0  0  0  0
  -25.9980  -29.3540   20.6270 C   0  0  0  0  0  0  0  0  0  0  0  0
  -27.1860  -28.5650   20.6120 C   0  0  0  0  0  3  0  0  0  0  0  0
  -26.0180  -26.8630   19.3340 C   0  0  0  0  0  3  0  0  0  0  0  0
  -24.8470  -27.6400   19.3480 C   0  0  0  0  0  3  0  0  0  0  0  0
  -23.5950  -29.7470   20.0720 C   0  0  0  0  0  2  0  0  0  0  0  0
  -24.6340  -30.9530   22.0400 N   0  0  0  0  0  0  0  0  0  0  0  0
  -23.4750  -31.9850   23.6990 O   0  0  0  0  0  0  0  0  0  0  0  0
  -22.7050  -29.3310   22.3950 C   0  0  0  0  0  0  0  0  0  0  0  0
  -21.3760  -29.1740   22.2710 N   0  0  0  0  0  0  0  0  0  0  0  0
  -23.3830  -28.6640   23.1810 O   0  0  0  0  0  0  0  0  0  0  0  0
  -20.8900  -29.7640   21.6100 H   0  0  0  0  0  0  0  0  0  0  0  0
  -17.9810  -28.0340   22.7820 C   0  0  0  0  0  0  0  0  0  0  0  0
  -20.5500  -28.2180   23.0100 C   0  0  0  0  0  3  0  0  0  0  0  0
  -20.6060  -26.8160   22.3590 C   0  0  0  0  0  2  0  0  0  0  0  0
  -19.4750  -26.5740   21.3540 C   0  0  0  0  0  2  0  0  0  0  0  0
  -18.1110  -26.7180   22.0350 C   0  0  0  0  0  2  0  0  0  0  0  0
  -19.1280  -28.7460   23.2260 C   0  0  0  0  0  0  0  0  0  0  0  0
  -18.9530  -29.9820   23.8870 C   0  0  0  0  0  3  0  0  0  0  0  0
  -17.6650  -30.5050   24.1070 C   0  0  0  0  0  3  0  0  0  0  0  0
  -16.5330  -29.7890   23.6780 C   0  0  0  0  0  3  0  0  0  0  0  0
  -16.6930  -28.5550   23.0220 C   0  0  0  0  0  3  0  0  0  0  0  0
  -25.8410  -32.3400   23.8130 C   0  0  0  0  0  3  0  0  0  0  0  0
  -26.3330  -31.5460   25.0850 C   0  0  1  0  0  0  0  0  0  0  0  0
  -25.2220  -31.2970   26.1310 C   0  0  0  0  0  1  0  0  0  0  0  0
  -26.9160  -30.1710   24.6800 C   0  0  0  0  0  1  0  0  0  0  0  0
  -27.4780  -32.3230   25.7780 C   0  0  0  0  0  1  0  0  0  0  0  0
  -25.5370  -33.7360   24.1600 N   0  0  0  0  0  0  0  0  0  0  0  0
  -25.8830  -34.7970   23.4190 C   0  0  0  0  0  0  0  0  0  0  0  0
  -26.5610  -34.7040   22.3930 O   0  0  0  0  0  0  0  0  0  0  0  0
  -24.9370  -33.8820   24.9580 H   0  0  0  0  0  0  0  0  0  0  0  0
  -24.1650  -36.6020   23.0780 C   0  0  0  0  0  1  0  0  0  0  0  0
  -25.3990  -36.1820   23.8910 C   0  0  0  0  0  3  0  0  0  0  0  0
  -27.5290  -37.0490   24.7500 C   0  0  0  0  0  1  0  0  0  0  0  0
  -26.4360  -37.2320   23.7990 N   0  0  0  0  0  0  0  0  0  0  0  0
  -26.0320  -38.1520   23.9540 H   0  0  0  0  0  0  0  0  0  0  0  0
  -27.7900  -17.6980   20.7230 N   0  0  0  0  0  0  0  0  0  0  0  0
  -26.9160  -17.9870   21.1520 H   0  0  0  0  0  0  0  0  0  0  0  0
  -28.1720  -16.8860   21.1970 H   0  0  0  0  0  0  0  0  0  0  0  0
  1  2  2  0
  1  4  1  0
  2  5  1  0
  4 15  1  0
  4  6  2  0
  5 48  1  0
  5  3  2  0
  6  3  1  0
  6 93  1  0
  7 13  1  0
  7 16  1  0
  8 13  1  0
  9 10  1  0
  9  8  1  0
 11 10  1  0
 11 22  1  0
 11 12  1  0
 13 12  1  0
 14  7  2  0
 15 16  1  0
 16 18  1  0
 17 15  2  0
 19 20  2  0
 20 39  1  0
 21 20  1  0
 21 24  1  0
 22 23  1  0
 22 19  1  0
 23 21  2  0
 24 25  1  0
 25 26  2  0
 27 30  1  0
 27 26  1  0
 28 27  2  0
 29 28  1  0
 29 24  2  0
 30 31  1  0
 31 32  1  0
 32 33  2  0
 34 33  1  0
 34 38  1  0
 35 34  2  0
 36 31  2  0
 36 35  1  0
 37 36  1  0
 39 40  1  0
 40 43  1  0
 40 42  1  0
 41 39  2  0
 44 19  1  0
 44 45  1  0
 46 44  1  0
 47 48  1  0
 47 51  1  0
 48 50  1  0
 49 47  2  0
 52 51  1  0
 53 64  2  0
 54 52  1  0
 54 59  1  0
 55 63  1  0
 55 65  1  0
 56 62  1  0
 56 58  1  0
 57 63  1  0
 58 57  1  0
 59 58  2  0
 60 61  1  0
 60 54  2  0
 61 56  2  0
 62 55  1  0
 63 53  1  0
 65 67  2  0
 66 65  1  0
 68 66  1  0
 69 78  2  0
 69 74  1  0
 70 66  1  0
 70 74  1  0
 71 70  1  0
 72 73  1  0
 72 71  1  0
 73 69  1  0
 74 75  2  0
 75 76  1  0
 77 76  2  0
 78 77  1  0
 79 53  1  0
 79 84  1  0
 79 80  1  0
 80 83  1  1
 80 81  1  0
 82 80  1  0
 84 87  1  0
 85 89  1  0
 85 84  1  0
 86 85  2  0
 89 88  1  0
 91 89  1  0
 91 92  1  0
 91 90  1  0
 93 94  1  0
 93 95  1  0
M  ISO  4   7 100  16 100  51 101  52 101
M  END
>  <TORSDO>  (97) 
F 19

>  <SCORE>  (97) 
-14.257

>  <name>  (97) 
97

>  <ligand_id>  (97) 
97

>  <original_smiles>  (97) 
[H]c1c([H])c([H])c2c(c1[H])C([H])([H])C([H])([H])C([H])([H])C2([H])N([H])C(=O)C1([H])N(C(=O)C([H])(N([H])C(=O)C([H])(N([H])C([H])([H])[H])C([H])([H])[H])C(C([H])([H])[H])(C([H])([H])[H])C([H])([H])[H])C([H])([H])c2c([H])c(OC([H])([H])C(=O)N([H])c3c([H])c([H])c(C(=O)N([H])C(=O)N4C([H])([H])C([H])([H])C([H])([H])C([H])(n5nc(-c6c([H])c([H])c(Oc7c([H])c([H])c(F)c([H])c7F)c([H])c6[H])c(C(=O)N([H])[H])c5N([H])[H])C4([H])[H])c(N([H])[H])c3[H])c([H])c([H])c2C1([H])[H]

>  <smiles>  (97) 
[H]c1c([H])c([H])c2c(c1[H])C([H])([H])C([H])([H])C([H])([H])C2([H])N([H])C(=O)C1([H])N(C(=O)C([H])(N([H])C(=O)C([H])(N([H])C([H])([H])[H])C([H])([H])[H])C(C([H])([H])[H])(C([H])([H])[H])C([H])([H])[H])C([H])([H])c2c([H])c(OC([H])([H])C(=O)N([H])c3c([H])c([H])c(C(=O)N([H])C(=O)N4C([H])([H])C([H])([H])C([H])([H])C([H])(n5nc(-c6c([H])c([H])c(Oc7c([H])c([H])c(F)c([H])c7F)c([H])c6[H])c(C(=O)N([H])[H])c5N([H])[H])C4([H])[H])c(N([H])[H])c3[H])c([H])c([H])c2C1([H])[H]

$$$$
