0:0:0
     RDKit          3D

 96104  0  0  1  0  0  0  0  0999 V2000
  -31.0660  -17.7670   19.1530 C   0  0  0  0  0  3  0  0  0  0  0  0
  -29.7660  -19.4520   20.9630 C   0  0  0  0  0  3  0  0  0  0  0  0
  -30.6590  -17.1610   20.3740 C   0  0  0  0  0  0  0  0  0  0  0  0
  -30.8500  -19.1460   18.8550 C   0  0  0  0  0  0  0  0  0  0  0  0
  -29.9600  -18.0680   21.2620 C   0  0  0  0  0  0  0  0  0  0  0  0
  -30.2130  -20.0390   19.7570 C   0  0  0  0  0  0  0  0  0  0  0  0
  -29.4190  -17.6550   22.4850 N   0  0  0  0  0  0  0  0  0  0  0  0
  -29.0340  -16.7160   22.5250 H   0  0  0  0  0  0  0  0  0  0  0  0
  -28.8220  -18.3130   22.9740 H   0  0  0  0  0  0  0  0  0  0  0  0
  -31.2810  -19.6480   17.6300 N   0  0  0  0  0  0  0  0  0  0  0  0
  -30.8960  -20.5530   17.3740 H   0  0  0  0  0  0  0  0  0  0  0  0
  -31.3170  -19.0090   16.8430 H   0  0  0  0  0  0  0  0  0  0  0  0
  -31.0070  -15.6830   20.7460 C   0  0  0  0  0  3  0  0  0  0  0  0
  -31.0570  -15.3430   21.9690 N   0  0  0  0  0  2  0  0  0  0  0  0
  -30.8150  -16.1530   22.5380 H   0  0  0  0  0  0  0  0  0  0  0  0
  -31.3900  -14.5980   19.6710 C   0  0  0  0  0  0  0  0  0  0  0  0
  -30.8490  -12.4870   18.4570 C   0  0  0  0  0  2  0  0  0  0  0  0
  -29.7750  -12.7670   17.3830 C   0  0  0  0  0  2  0  0  0  0  0  0
  -28.3560  -12.6690   17.9780 C   0  0  0  0  0  2  0  0  0  0  0  0
  -28.2210  -13.4440   19.3150 C   0  0  0  0  0  3  0  0  0  0  0  0
  -29.3880  -13.1090   20.2660 C   0  0  0  0  0  2  0  0  0  0  0  0
  -30.6480  -13.4390   19.5740 N   0  0  0  0  0  0  0  0  0  0  0  0
  -32.3890  -14.7680   18.9630 O   0  0  0  0  0  0  0  0  0  0  0  0
  -25.9940  -14.1400   20.3890 C   0  0  0  0  0  0  0  0  0  0  0  0
  -24.9270  -13.4110   20.8400 C   0  0  0  0  0  0  0  0  0  0  0  0
  -25.2730  -12.0390   20.6400 C   0  0  0  0  0  0  0  0  0  0  0  0
  -26.9260  -13.2140   19.9470 N   0  0  0  0  0  0  0  0  0  0  0  0
  -26.5040  -11.9400   20.1540 N   0  0  0  0  0  0  0  0  0  0  0  0
  -24.4790  -10.8180   20.8280 C   0  0  0  0  0  0  0  0  0  0  0  0
  -24.9060   -9.7840   21.6910 C   0  0  0  0  0  3  0  0  0  0  0  0
  -24.1150   -8.6290   21.8690 C   0  0  0  0  0  3  0  0  0  0  0  0
  -22.8830   -8.4990   21.1850 C   0  0  0  0  0  0  0  0  0  0  0  0
  -22.4750   -9.5190   20.3090 C   0  0  0  0  0  3  0  0  0  0  0  0
  -23.2660  -10.6670   20.1280 C   0  0  0  0  0  3  0  0  0  0  0  0
  -22.0630   -7.4010   21.2760 O   0  0  0  0  0  0  0  0  0  0  0  0
  -21.9670   -6.6680   22.4320 C   0  0  0  0  0  0  0  0  0  0  0  0
  -21.5440   -7.2470   23.6490 C   0  0  0  0  0  3  0  0  0  0  0  0
  -21.3930   -6.4430   24.7960 C   0  0  0  0  0  3  0  0  0  0  0  0
  -21.6540   -5.0620   24.7280 C   0  0  0  0  0  0  0  0  0  0  0  0
  -22.0710   -4.4830   23.5170 C   0  0  0  0  0  3  0  0  0  0  0  0
  -22.2240   -5.2840   22.3710 C   0  0  0  0  0  0  0  0  0  0  0  0
  -22.6050   -4.7160   21.2010 F   0  0  0  0  0  0  0  0  0  0  0  0
  -21.5020   -4.2860   25.8280 F   0  0  0  0  0  0  0  0  0  0  0  0
  -23.6200  -13.9560   21.3380 C   0  0  0  0  0  0  0  0  0  0  0  0
  -22.9640  -13.2420   22.2460 N   0  0  0  0  0  0  0  0  0  0  0  0
  -23.1950  -15.0480   20.9600 O   0  0  0  0  0  0  0  0  0  0  0  0
  -23.3210  -12.3570   22.5740 H   0  0  0  0  0  0  0  0  0  0  0  0
  -22.0920  -13.5870   22.6220 H   0  0  0  0  0  0  0  0  0  0  0  0
  -26.2420  -15.5070   20.2980 N   0  0  0  0  0  0  0  0  0  0  0  0
  -25.5510  -16.2010   20.5630 H   0  0  0  0  0  0  0  0  0  0  0  0
  -27.0730  -15.9150   19.8900 H   0  0  0  0  0  0  0  0  0  0  0  0
  -30.0710  -21.4000   19.3960 O   0  0  0  0  0  0  0  0  0  0  0  0
  -29.3650  -22.3830   20.2190 C   0  0  0  0  0  2  0  0  0  0  0  0
  -29.4680  -23.8920   19.7050 C   0  0  0  0  0  3  0  0  0  0  0  0
  -28.6100  -25.0000   20.4540 C   0  0  0  0  0  3  0  0  0  0  0  0
  -28.7660  -26.4200   20.0680 O   0  0  0  0  0  0  0  0  0  0  0  0
  -24.7600  -31.5680   23.1560 C   0  0  0  0  0  0  0  0  0  0  0  0
  -27.6130  -27.2130   20.0470 C   0  0  0  0  0  0  0  0  0  0  0  0
  -23.6460  -30.1710   21.4510 C   0  0  0  0  0  3  0  0  0  0  0  0
  -25.1850  -28.7160   20.0200 C   0  0  0  0  0  0  0  0  0  0  0  0
  -26.1720  -30.5950   21.3330 C   0  0  0  0  0  2  0  0  0  0  0  0
  -26.3190  -29.2400   20.6530 C   0  0  0  0  0  0  0  0  0  0  0  0
  -27.5390  -28.5020   20.6540 C   0  0  0  0  0  3  0  0  0  0  0  0
  -26.4590  -26.7380   19.3870 C   0  0  0  0  0  3  0  0  0  0  0  0
  -25.2560  -27.4700   19.3770 C   0  0  0  0  0  3  0  0  0  0  0  0
  -23.9150  -29.5390   20.0600 C   0  0  0  0  0  2  0  0  0  0  0  0
  -24.8770  -30.7930   22.0380 N   0  0  0  0  0  0  0  0  0  0  0  0
  -23.6560  -31.7900   23.6740 O   0  0  0  0  0  0  0  0  0  0  0  0
  -23.0020  -29.1050   22.3690 C   0  0  0  0  0  0  0  0  0  0  0  0
  -21.6850  -28.8890   22.2110 N   0  0  0  0  0  0  0  0  0  0  0  0
  -23.6860  -28.4760   23.1800 O   0  0  0  0  0  0  0  0  0  0  0  0
  -21.1910  -29.4500   21.5300 H   0  0  0  0  0  0  0  0  0  0  0  0
  -18.3330  -27.5990   22.6340 C   0  0  0  0  0  0  0  0  0  0  0  0
  -20.8820  -27.9050   22.9380 C   0  0  0  0  0  3  0  0  0  0  0  0
  -21.0230  -26.4980   22.3120 C   0  0  0  0  0  2  0  0  0  0  0  0
  -19.9380  -26.1890   21.2760 C   0  0  0  0  0  2  0  0  0  0  0  0
  -18.5470  -26.2800   21.9100 C   0  0  0  0  0  2  0  0  0  0  0  0
  -19.4310  -28.3690   23.1030 C   0  0  0  0  0  0  0  0  0  0  0  0
  -19.1770  -29.6040   23.7390 C   0  0  0  0  0  3  0  0  0  0  0  0
  -17.8600  -30.0690   23.9110 C   0  0  0  0  0  3  0  0  0  0  0  0
  -16.7780  -29.2940   23.4590 C   0  0  0  0  0  3  0  0  0  0  0  0
  -17.0140  -28.0600   22.8260 C   0  0  0  0  0  3  0  0  0  0  0  0
  -26.0050  -32.2270   23.8240 C   0  0  0  0  0  3  0  0  0  0  0  0
  -25.6510  -33.6170   24.1460 N   0  0  0  0  0  0  0  0  0  0  0  0
  -25.9830  -34.6800   23.4020 C   0  0  0  0  0  0  0  0  0  0  0  0
  -26.6890  -34.5960   22.3930 O   0  0  0  0  0  0  0  0  0  0  0  0
  -25.0250  -33.7550   24.9260 H   0  0  0  0  0  0  0  0  0  0  0  0
  -24.2160  -36.4250   23.0050 C   0  0  0  0  0  1  0  0  0  0  0  0
  -25.4470  -36.0550   23.8460 C   0  0  0  0  0  3  0  0  0  0  0  0
  -27.5320  -37.0030   24.7340 C   0  0  0  0  0  1  0  0  0  0  0  0
  -26.4550  -37.1350   23.7570 N   0  0  0  0  0  0  0  0  0  0  0  0
  -26.0200  -38.0450   23.8860 H   0  0  0  0  0  0  0  0  0  0  0  0
  -26.4950  -31.4640   25.1160 C   0  0  1  0  0  0  0  0  0  0  0  0
  -25.3700  -31.1920   26.1420 C   0  0  0  0  0  1  0  0  0  0  0  0
  -27.1270  -30.1040   24.7400 C   0  0  0  0  0  1  0  0  0  0  0  0
  -27.5990  -32.2850   25.8220 C   0  0  0  0  0  1  0  0  0  0  0  0
  1  3  1  0
  2  5  1  0
  3 13  1  0
  3  5  2  0
  4  1  2  0
  4  6  1  0
  5  7  1  0
  6  2  2  0
  7  8  1  0
  7  9  1  0
 10  4  1  0
 11 10  1  0
 12 10  1  0
 13 16  1  0
 13 14  1  0
 14 15  1  0
 17 22  1  0
 18 19  1  0
 18 17  1  0
 20 19  1  0
 20 27  1  0
 20 21  1  0
 22 16  1  0
 22 21  1  0
 23 16  2  0
 24 25  2  0
 25 44  1  0
 26 29  1  0
 26 25  1  0
 27 28  1  0
 27 24  1  0
 28 26  2  0
 29 30  1  0
 30 31  2  0
 32 35  1  0
 32 31  1  0
 33 32  2  0
 34 33  1  0
 34 29  2  0
 35 36  1  0
 36 37  1  0
 37 38  2  0
 39 38  1  0
 39 43  1  0
 40 39  2  0
 41 36  2  0
 41 40  1  0
 42 41  1  0
 44 45  1  0
 45 47  1  0
 45 48  1  0
 46 44  2  0
 49 24  1  0
 49 50  1  0
 51 49  1  0
 52  6  1  0
 52 53  1  0
 54 53  1  0
 54 55  2  0
 56 55  1  0
 57 68  2  0
 58 56  1  0
 58 63  1  0
 59 67  1  0
 59 69  1  0
 60 66  1  0
 60 62  1  0
 61 67  1  0
 62 63  2  0
 62 61  1  0
 64 58  2  0
 65 64  1  0
 65 60  2  0
 66 59  1  0
 67 57  1  0
 69 71  2  0
 70 69  1  0
 72 70  1  0
 73 82  2  0
 73 78  1  0
 74 70  1  0
 74 78  1  0
 75 74  1  0
 76 77  1  0
 76 75  1  0
 77 73  1  0
 78 79  2  0
 79 80  1  0
 81 80  2  0
 82 81  1  0
 83 57  1  0
 83 84  1  0
 83 93  1  0
 84 87  1  0
 85 89  1  0
 85 84  1  0
 86 85  2  0
 89 88  1  0
 91 89  1  0
 91 92  1  0
 91 90  1  0
 93 96  1  1
 93 94  1  0
 95 93  1  0
M  ISO  4  13 100  16 100  55 101  56 101
M  END
>  <TORSDO>  (1) 
F 23

>  <SCORE>  (1) 
-10.390

>  <name>  (1) 
0

>  <ligand_id>  (1) 
0

>  <original_smiles>  (1) 
[H]N=C(C(=O)N1C([H])([H])C([H])([H])C([H])([H])C([H])(n2nc(-c3c([H])c([H])c(Oc4c([H])c([H])c(F)c([H])c4F)c([H])c3[H])c(C(=O)N([H])[H])c2N([H])[H])C1([H])[H])c1c([H])c(N([H])[H])c(OC([H])([H])C([H])([H])C([H])([H])Oc2c([H])c([H])c3c(c2[H])C([H])([H])N(C(=O)C([H])(N([H])C(=O)C([H])(N([H])C([H])([H])[H])C([H])([H])[H])C(C([H])([H])[H])(C([H])([H])[H])C([H])([H])[H])C([H])(C(=O)N([H])C2([H])c4c([H])c([H])c([H])c([H])c4C([H])([H])C([H])([H])C2([H])[H])C3([H])[H])c([H])c1N([H])[H]

>  <smiles>  (1) 
[H]N=C(C(=O)N1C([H])([H])C([H])([H])C([H])([H])C([H])(n2nc(-c3c([H])c([H])c(Oc4c([H])c([H])c(F)c([H])c4F)c([H])c3[H])c(C(=O)N([H])[H])c2N([H])[H])C1([H])[H])c1c([H])c(N([H])[H])c(OC([H])([H])C([H])([H])C([H])([H])Oc2c([H])c([H])c3c(c2[H])C([H])([H])N(C(=O)C([H])(N([H])C(=O)C([H])(N([H])C([H])([H])[H])C([H])([H])[H])C(C([H])([H])[H])(C([H])([H])[H])C([H])([H])[H])C([H])(C(=O)N([H])C2([H])c4c([H])c([H])c([H])c([H])c4C([H])([H])C([H])([H])C2([H])[H])C3([H])[H])c([H])c1N([H])[H]

$$$$
1:0:0
     RDKit          3D

 96104  0  0  1  0  0  0  0  0999 V2000
  -30.6100  -18.6820   21.0060 C   0  0  0  0  0  3  0  0  0  0  0  0
  -30.2510  -20.0930   20.9170 C   0  0  0  0  0  3  0  0  0  0  0  0
  -29.1700  -18.1620   19.2160 C   0  0  0  0  0  3  0  0  0  0  0  0
  -30.0910  -17.6200   20.1720 C   0  0  0  0  0  0  0  0  0  0  0  0
  -29.2960  -20.6170   19.9860 C   0  0  0  0  0  0  0  0  0  0  0  0
  -28.7860  -19.5670   19.1370 C   0  0  0  0  0  0  0  0  0  0  0  0
  -30.7740  -15.0320   19.7120 C   0  0  0  0  0  0  0  0  0  0  0  0
  -30.4490  -12.7730   18.5830 C   0  0  0  0  0  2  0  0  0  0  0  0
  -29.3730  -12.8420   17.4750 C   0  0  0  0  0  2  0  0  0  0  0  0
  -27.9680  -12.6150   18.0620 C   0  0  0  0  0  2  0  0  0  0  0  0
  -27.7320  -13.4490   19.3460 C   0  0  0  0  0  3  0  0  0  0  0  0
  -28.9110  -13.3440   20.3310 C   0  0  0  0  0  2  0  0  0  0  0  0
  -30.1250  -13.7920   19.6280 N   0  0  0  0  0  0  0  0  0  0  0  0
  -31.8330  -15.1510   19.0860 O   0  0  0  0  0  0  0  0  0  0  0  0
  -30.2670  -16.1200   20.4890 N   0  0  0  0  0  0  0  0  0  0  0  0
  -25.4830  -14.0010   20.4380 C   0  0  0  0  0  0  0  0  0  0  0  0
  -24.4510  -13.2130   20.8730 C   0  0  0  0  0  0  0  0  0  0  0  0
  -24.8680  -11.8630   20.6590 C   0  0  0  0  0  0  0  0  0  0  0  0
  -26.4590  -13.1300   19.9830 N   0  0  0  0  0  0  0  0  0  0  0  0
  -26.1070  -11.8330   20.1790 N   0  0  0  0  0  0  0  0  0  0  0  0
  -24.1340  -10.6010   20.8290 C   0  0  0  0  0  0  0  0  0  0  0  0
  -24.5940   -9.5880   21.6990 C   0  0  0  0  0  3  0  0  0  0  0  0
  -23.8590   -8.3940   21.8600 C   0  0  0  0  0  3  0  0  0  0  0  0
  -22.6490   -8.2040   21.1510 C   0  0  0  0  0  0  0  0  0  0  0  0
  -22.2050   -9.2060   20.2700 C   0  0  0  0  0  3  0  0  0  0  0  0
  -22.9410  -10.3920   20.1070 C   0  0  0  0  0  3  0  0  0  0  0  0
  -21.8830   -7.0660   21.2240 O   0  0  0  0  0  0  0  0  0  0  0  0
  -21.7880   -6.3340   22.3820 C   0  0  0  0  0  0  0  0  0  0  0  0
  -21.3190   -6.9040   23.5860 C   0  0  0  0  0  3  0  0  0  0  0  0
  -21.1720   -6.1000   24.7330 C   0  0  0  0  0  3  0  0  0  0  0  0
  -21.4830   -4.7280   24.6780 C   0  0  0  0  0  0  0  0  0  0  0  0
  -21.9460   -4.1590   23.4790 C   0  0  0  0  0  3  0  0  0  0  0  0
  -22.0950   -4.9600   22.3330 C   0  0  0  0  0  0  0  0  0  0  0  0
  -22.5200   -4.4020   21.1740 F   0  0  0  0  0  0  0  0  0  0  0  0
  -21.3350   -3.9530   25.7780 F   0  0  0  0  0  0  0  0  0  0  0  0
  -23.1160  -13.6880   21.3690 C   0  0  0  0  0  0  0  0  0  0  0  0
  -22.4990  -12.9400   22.2760 N   0  0  0  0  0  0  0  0  0  0  0  0
  -22.6370  -14.7540   20.9870 O   0  0  0  0  0  0  0  0  0  0  0  0
  -22.9020  -12.0760   22.6050 H   0  0  0  0  0  0  0  0  0  0  0  0
  -21.6070  -13.2380   22.6480 H   0  0  0  0  0  0  0  0  0  0  0  0
  -25.6640  -15.3780   20.3710 N   0  0  0  0  0  0  0  0  0  0  0  0
  -26.4980  -15.8290   20.0160 H   0  0  0  0  0  0  0  0  0  0  0  0
  -24.9450  -16.0350   20.6540 H   0  0  0  0  0  0  0  0  0  0  0  0
  -30.8900  -15.0190   22.6360 C   0  0  0  0  0  2  0  0  0  0  0  0
  -30.2550  -15.9520   21.8950 C   0  0  0  0  0  3  0  0  0  0  0  0
  -28.9620  -23.3620   20.3350 C   0  0  0  0  0  0  0  0  0  0  0  0
  -28.7700  -22.0480   19.8270 N   0  0  0  0  0  0  0  0  0  0  0  0
  -29.8900  -23.6070   21.1100 O   0  0  0  0  0  0  0  0  0  0  0  0
  -28.0350  -22.0650   19.1350 H   0  0  0  0  0  0  0  0  0  0  0  0
  -27.7330  -24.4520   18.3820 C   0  0  0  0  0  1  0  0  0  0  0  0
  -26.6440  -24.2080   20.7350 C   0  0  0  0  0  1  0  0  0  0  0  0
  -27.9140  -24.5940   19.9180 C   0  0  1  0  0  0  0  0  0  0  0  0
  -28.1950  -26.1290   20.1920 O   0  0  0  0  0  0  0  0  0  0  0  0
  -24.5800  -31.8700   23.1520 C   0  0  0  0  0  0  0  0  0  0  0  0
  -27.1700  -27.1610   20.0920 C   0  0  0  0  0  0  0  0  0  0  0  0
  -23.3880  -30.4730   21.5170 C   0  0  0  0  0  3  0  0  0  0  0  0
  -24.8420  -28.9290   20.0740 C   0  0  0  0  0  0  0  0  0  0  0  0
  -25.9440  -30.7450   21.3540 C   0  0  0  0  0  2  0  0  0  0  0  0
  -26.0230  -29.3560   20.6960 C   0  0  0  0  0  0  0  0  0  0  0  0
  -27.1830  -28.4870   20.6990 C   0  0  0  0  0  3  0  0  0  0  0  0
  -25.9740  -26.8850   19.3870 C   0  0  0  0  0  3  0  0  0  0  0  0
  -24.8330  -27.7040   19.4040 C   0  0  0  0  0  3  0  0  0  0  0  0
  -23.6110  -29.8140   20.1320 C   0  0  0  0  0  2  0  0  0  0  0  0
  -24.6570  -31.0510   22.0610 N   0  0  0  0  0  0  0  0  0  0  0  0
  -23.4920  -32.1480   23.6820 O   0  0  0  0  0  0  0  0  0  0  0  0
  -22.7180  -29.4530   22.4730 C   0  0  0  0  0  0  0  0  0  0  0  0
  -21.3980  -29.2420   22.3230 N   0  0  0  0  0  0  0  0  0  0  0  0
  -23.3910  -28.8540   23.3170 O   0  0  0  0  0  0  0  0  0  0  0  0
  -20.9100  -29.7780   21.6180 H   0  0  0  0  0  0  0  0  0  0  0  0
  -18.0460  -27.9390   22.7620 C   0  0  0  0  0  0  0  0  0  0  0  0
  -20.5880  -28.2940   23.0910 C   0  0  0  0  0  3  0  0  0  0  0  0
  -20.7520  -26.8550   22.5510 C   0  0  0  0  0  2  0  0  0  0  0  0
  -19.6890  -26.4730   21.5160 C   0  0  0  0  0  2  0  0  0  0  0  0
  -18.2870  -26.5840   22.1190 C   0  0  0  0  0  2  0  0  0  0  0  0
  -19.1270  -28.7480   23.2050 C   0  0  0  0  0  0  0  0  0  0  0  0
  -18.8470  -30.0120   23.7670 C   0  0  0  0  0  3  0  0  0  0  0  0
  -17.5220  -30.4690   23.8910 C   0  0  0  0  0  3  0  0  0  0  0  0
  -16.4560  -29.6580   23.4640 C   0  0  0  0  0  3  0  0  0  0  0  0
  -16.7180  -28.3940   22.9050 C   0  0  0  0  0  3  0  0  0  0  0  0
  -25.8540  -32.5160   23.7750 C   0  0  0  0  0  3  0  0  0  0  0  0
  -26.3970  -31.7250   25.0290 C   0  0  1  0  0  0  0  0  0  0  0  0
  -25.3130  -31.4170   26.0880 C   0  0  0  0  0  1  0  0  0  0  0  0
  -27.0300  -30.3810   24.6020 C   0  0  0  0  0  1  0  0  0  0  0  0
  -27.5180  -32.5400   25.7150 C   0  0  0  0  0  1  0  0  0  0  0  0
  -25.5190  -33.8990   24.1470 N   0  0  0  0  0  0  0  0  0  0  0  0
  -25.7940  -34.9790   23.4030 C   0  0  0  0  0  0  0  0  0  0  0  0
  -26.4240  -34.9170   22.3450 O   0  0  0  0  0  0  0  0  0  0  0  0
  -24.9520  -34.0190   24.9740 H   0  0  0  0  0  0  0  0  0  0  0  0
  -23.9960  -36.7270   23.1810 C   0  0  0  0  0  1  0  0  0  0  0  0
  -25.2930  -36.3440   23.9150 C   0  0  0  0  0  3  0  0  0  0  0  0
  -27.4400  -37.2820   24.6490 C   0  0  0  0  0  1  0  0  0  0  0  0
  -26.2860  -37.4310   23.7660 N   0  0  0  0  0  0  0  0  0  0  0  0
  -25.8600  -38.3360   23.9480 H   0  0  0  0  0  0  0  0  0  0  0  0
  -27.8160  -19.9180   18.1970 N   0  0  0  0  0  0  0  0  0  0  0  0
  -27.3700  -19.1470   17.7100 H   0  0  0  0  0  0  0  0  0  0  0  0
  -27.1150  -20.5830   18.5010 H   0  0  0  0  0  0  0  0  0  0  0  0
  2  1  1  0
  3  4  1  0
  4 15  1  0
  4  1  2  0
  5  2  2  0
  6  3  2  0
  6  5  1  0
  7 15  1  0
  8 13  1  0
  9 10  1  0
  9  8  1  0
 11 10  1  0
 11 19  1  0
 11 12  1  0
 13  7  1  0
 13 12  1  0
 14  7  2  0
 15 45  1  0
 16 17  2  0
 17 36  1  0
 18 21  1  0
 18 17  1  0
 19 20  1  0
 19 16  1  0
 20 18  2  0
 21 22  1  0
 22 23  2  0
 24 27  1  0
 24 23  1  0
 25 24  2  0
 26 25  1  0
 26 21  2  0
 27 28  1  0
 28 29  1  0
 29 30  2  0
 31 30  1  0
 31 35  1  0
 32 31  2  0
 33 28  2  0
 33 32  1  0
 34 33  1  0
 36 37  1  0
 37 39  1  0
 37 40  1  0
 38 36  2  0
 41 16  1  0
 41 43  1  0
 42 41  1  0
 45 44  2  0
 46 48  2  0
 47  5  1  0
 47 46  1  0
 49 47  1  0
 52 50  1  6
 52 53  1  0
 52 46  1  0
 52 51  1  0
 54 65  2  0
 55 53  1  0
 55 60  1  0
 56 64  1  0
 56 66  1  0
 57 63  1  0
 57 59  1  0
 58 64  1  0
 59 60  2  0
 59 58  1  0
 61 62  1  0
 61 55  2  0
 62 57  2  0
 63 56  1  0
 64 54  1  0
 66 68  2  0
 67 66  1  0
 69 67  1  0
 70 79  2  0
 70 75  1  0
 71 67  1  0
 71 75  1  0
 72 71  1  0
 73 74  1  0
 73 72  1  0
 74 70  1  0
 75 76  2  0
 76 77  1  0
 78 77  2  0
 79 78  1  0
 80 54  1  0
 80 85  1  0
 80 81  1  0
 81 84  1  1
 81 82  1  0
 83 81  1  0
 85 88  1  0
 86 90  1  0
 86 85  1  0
 87 86  2  0
 90 89  1  0
 92 90  1  0
 92 93  1  0
 92 91  1  0
 94 96  1  0
 94  6  1  0
 95 94  1  0
M  ISO  4   7 100  15 100  52 101  53 101
M  END
>  <TORSDO>  (2) 
F 20

>  <SCORE>  (2) 
-12.126

>  <name>  (2) 
1

>  <ligand_id>  (2) 
1

>  <original_smiles>  (2) 
[H]C([H])=C([H])N(C(=O)N1C([H])([H])C([H])([H])C([H])([H])C([H])(n2nc(-c3c([H])c([H])c(Oc4c([H])c([H])c(F)c([H])c4F)c([H])c3[H])c(C(=O)N([H])[H])c2N([H])[H])C1([H])[H])c1c([H])c([H])c(N([H])C(=O)C(Oc2c([H])c([H])c3c(c2[H])C([H])([H])N(C(=O)C([H])(N([H])C(=O)C([H])(N([H])C([H])([H])[H])C([H])([H])[H])C(C([H])([H])[H])(C([H])([H])[H])C([H])([H])[H])C([H])(C(=O)N([H])C2([H])c4c([H])c([H])c([H])c([H])c4C([H])([H])C([H])([H])C2([H])[H])C3([H])[H])(C([H])([H])[H])C([H])([H])[H])c(N([H])[H])c1[H]

>  <smiles>  (2) 
[H]C([H])=C([H])N(C(=O)N1C([H])([H])C([H])([H])C([H])([H])C([H])(n2nc(-c3c([H])c([H])c(Oc4c([H])c([H])c(F)c([H])c4F)c([H])c3[H])c(C(=O)N([H])[H])c2N([H])[H])C1([H])[H])c1c([H])c([H])c(N([H])C(=O)C(Oc2c([H])c([H])c3c(c2[H])C([H])([H])N(C(=O)C([H])(N([H])C(=O)C([H])(N([H])C([H])([H])[H])C([H])([H])[H])C(C([H])([H])[H])(C([H])([H])[H])C([H])([H])[H])C([H])(C(=O)N([H])C2([H])c4c([H])c([H])c([H])c([H])c4C([H])([H])C([H])([H])C2([H])[H])C3([H])[H])(C([H])([H])[H])C([H])([H])[H])c(N([H])[H])c1[H]

$$$$
2:0:0
     RDKit          3D

 96104  0  0  1  0  0  0  0  0999 V2000
  -29.8020  -20.4590   19.9690 C   0  0  0  0  0  3  0  0  0  0  0  0
  -28.8580  -21.6140   19.7930 C   0  0  0  0  0  0  0  0  0  0  0  0
  -27.5660  -21.1180   19.4370 C   0  0  0  0  0  0  0  0  0  0  0  0
  -29.4900  -19.0010   19.7870 C   0  0  0  0  0  0  0  0  0  0  0  0
  -27.3430  -19.7200   19.2550 C   0  0  0  0  0  0  0  0  0  0  0  0
  -28.2230  -18.7150   19.4150 N   0  0  0  0  0  0  0  0  0  0  0  0
  -30.8780  -15.1710   20.4910 C   0  0  0  0  0  0  0  0  0  0  0  0
  -30.8840  -12.6660   20.0120 C   0  0  0  0  0  2  0  0  0  0  0  0
  -30.0860  -12.3370   18.7300 C   0  0  0  0  0  2  0  0  0  0  0  0
  -28.5940  -12.1410   19.0580 C   0  0  0  0  0  2  0  0  0  0  0  0
  -28.0490  -13.2540   19.9900 C   0  0  0  0  0  3  0  0  0  0  0  0
  -28.9830  -13.5460   21.1810 C   0  0  0  0  0  2  0  0  0  0  0  0
  -30.2920  -13.9010   20.6170 N   0  0  0  0  0  0  0  0  0  0  0  0
  -32.1080  -15.1550   20.3640 O   0  0  0  0  0  0  0  0  0  0  0  0
  -30.4840  -17.7260   19.9750 C   0  0  0  0  0  0  0  0  0  0  0  0
  -30.1080  -16.3780   20.3160 N   0  0  0  0  0  0  0  0  0  0  0  0
  -31.6770  -17.9880   19.7840 O   0  0  0  0  0  0  0  0  0  0  0  0
  -29.1110  -16.2790   20.4140 H   0  0  0  0  0  0  0  0  0  0  0  0
  -25.6480  -13.9120   20.5620 C   0  0  0  0  0  0  0  0  0  0  0  0
  -24.5400  -13.1760   20.8810 C   0  0  0  0  0  0  0  0  0  0  0  0
  -24.9690  -11.8140   20.9220 C   0  0  0  0  0  0  0  0  0  0  0  0
  -26.6770  -13.0000   20.4130 N   0  0  0  0  0  0  0  0  0  0  0  0
  -26.2760  -11.7340   20.7010 N   0  0  0  0  0  0  0  0  0  0  0  0
  -24.1950  -10.5780   21.0990 C   0  0  0  0  0  0  0  0  0  0  0  0
  -24.5750   -9.5950   22.0390 C   0  0  0  0  0  3  0  0  0  0  0  0
  -23.8030   -8.4240   22.2030 C   0  0  0  0  0  3  0  0  0  0  0  0
  -22.6370   -8.2280   21.4250 C   0  0  0  0  0  0  0  0  0  0  0  0
  -22.2760   -9.1980   20.4730 C   0  0  0  0  0  3  0  0  0  0  0  0
  -23.0490  -10.3600   20.3080 C   0  0  0  0  0  3  0  0  0  0  0  0
  -21.8380   -7.1130   21.5000 O   0  0  0  0  0  0  0  0  0  0  0  0
  -21.7670   -6.3520   22.6400 C   0  0  0  0  0  0  0  0  0  0  0  0
  -21.3550   -6.8980   23.8750 C   0  0  0  0  0  3  0  0  0  0  0  0
  -21.2290   -6.0660   25.0050 C   0  0  0  0  0  3  0  0  0  0  0  0
  -21.5050   -4.6890   24.9010 C   0  0  0  0  0  0  0  0  0  0  0  0
  -21.9090   -4.1430   23.6700 C   0  0  0  0  0  3  0  0  0  0  0  0
  -22.0360   -4.9720   22.5430 C   0  0  0  0  0  0  0  0  0  0  0  0
  -22.4050   -4.4370   21.3540 F   0  0  0  0  0  0  0  0  0  0  0  0
  -21.3750   -3.8880   25.9840 F   0  0  0  0  0  0  0  0  0  0  0  0
  -23.1420  -13.6980   21.0380 C   0  0  0  0  0  0  0  0  0  0  0  0
  -22.3460  -13.0720   21.8950 N   0  0  0  0  0  0  0  0  0  0  0  0
  -22.7640  -14.7000   20.4330 O   0  0  0  0  0  0  0  0  0  0  0  0
  -22.6630  -12.2600   22.4060 H   0  0  0  0  0  0  0  0  0  0  0  0
  -21.4040  -13.4060   22.0450 H   0  0  0  0  0  0  0  0  0  0  0  0
  -25.8630  -15.2720   20.3560 N   0  0  0  0  0  0  0  0  0  0  0  0
  -25.1040  -15.9420   20.3830 H   0  0  0  0  0  0  0  0  0  0  0  0
  -26.7450  -15.6790   20.0730 H   0  0  0  0  0  0  0  0  0  0  0  0
  -26.4380  -21.9380   19.2860 N   0  0  0  0  0  0  0  0  0  0  0  0
  -26.3510  -22.7090   19.9360 H   0  0  0  0  0  0  0  0  0  0  0  0
  -25.5880  -21.3830   19.3310 H   0  0  0  0  0  0  0  0  0  0  0  0
  -26.0750  -19.3030   18.8820 N   0  0  0  0  0  0  0  0  0  0  0  0
  -25.5820  -20.0020   18.3430 H   0  0  0  0  0  0  0  0  0  0  0  0
  -26.0320  -18.3850   18.4630 H   0  0  0  0  0  0  0  0  0  0  0  0
  -29.1520  -23.2360   19.9990 C   0  0  0  0  0  0  0  0  0  0  0  0
  -30.3050  -23.5710   20.2980 O   0  0  0  0  0  0  0  0  0  0  0  0
  -28.0750  -24.5230   19.8120 C   0  0  0  0  0  2  0  0  0  0  0  0
  -28.3850  -26.0610   20.0590 O   0  0  0  0  0  0  0  0  0  0  0  0
  -24.5760  -31.6830   23.1010 C   0  0  0  0  0  0  0  0  0  0  0  0
  -27.3310  -27.0690   20.0100 C   0  0  0  0  0  0  0  0  0  0  0  0
  -23.4510  -30.3100   21.3920 C   0  0  0  0  0  3  0  0  0  0  0  0
  -24.9720  -28.8030   19.9650 C   0  0  0  0  0  0  0  0  0  0  0  0
  -26.0090  -30.6200   21.3090 C   0  0  0  0  0  2  0  0  0  0  0  0
  -26.1310  -29.2460   20.6160 C   0  0  0  0  0  0  0  0  0  0  0  0
  -27.3110  -28.4000   20.6160 C   0  0  0  0  0  3  0  0  0  0  0  0
  -26.1390  -26.7440   19.3240 C   0  0  0  0  0  3  0  0  0  0  0  0
  -24.9930  -27.5670   19.3040 C   0  0  0  0  0  3  0  0  0  0  0  0
  -23.7250  -29.6760   20.0030 C   0  0  0  0  0  2  0  0  0  0  0  0
  -24.6970  -30.8940   21.9890 N   0  0  0  0  0  0  0  0  0  0  0  0
  -23.4690  -31.9280   23.6060 O   0  0  0  0  0  0  0  0  0  0  0  0
  -22.7680  -29.2630   22.3080 C   0  0  0  0  0  0  0  0  0  0  0  0
  -21.4400  -29.0960   22.1670 N   0  0  0  0  0  0  0  0  0  0  0  0
  -23.4340  -28.6030   23.1080 O   0  0  0  0  0  0  0  0  0  0  0  0
  -20.9570  -29.6810   21.5000 H   0  0  0  0  0  0  0  0  0  0  0  0
  -18.0500  -27.9060   22.6470 C   0  0  0  0  0  0  0  0  0  0  0  0
  -20.6150  -28.1270   22.8940 C   0  0  0  0  0  3  0  0  0  0  0  0
  -20.6930  -26.7270   22.2380 C   0  0  0  0  0  2  0  0  0  0  0  0
  -19.5740  -26.4750   21.2220 C   0  0  0  0  0  2  0  0  0  0  0  0
  -18.2030  -26.5960   21.8930 C   0  0  0  0  0  2  0  0  0  0  0  0
  -19.1820  -28.6310   23.1030 C   0  0  0  0  0  0  0  0  0  0  0  0
  -18.9830  -29.8600   23.7710 C   0  0  0  0  0  3  0  0  0  0  0  0
  -17.6830  -30.3580   23.9890 C   0  0  0  0  0  3  0  0  0  0  0  0
  -16.5670  -29.6290   23.5460 C   0  0  0  0  0  3  0  0  0  0  0  0
  -16.7520  -28.4060   22.8790 C   0  0  0  0  0  3  0  0  0  0  0  0
  -25.8200  -32.3300   23.7820 C   0  0  0  0  0  3  0  0  0  0  0  0
  -26.2920  -31.5540   25.0730 C   0  0  1  0  0  0  0  0  0  0  0  0
  -25.1640  -31.3030   26.1010 C   0  0  0  0  0  1  0  0  0  0  0  0
  -26.8980  -30.1810   24.7020 C   0  0  0  0  0  1  0  0  0  0  0  0
  -27.4110  -32.3530   25.7810 C   0  0  0  0  0  1  0  0  0  0  0  0
  -25.4710  -33.7190   24.1220 N   0  0  0  0  0  0  0  0  0  0  0  0
  -25.8080  -34.7920   23.3950 C   0  0  0  0  0  0  0  0  0  0  0  0
  -26.5090  -34.7180   22.3830 O   0  0  0  0  0  0  0  0  0  0  0  0
  -24.8500  -33.8490   24.9070 H   0  0  0  0  0  0  0  0  0  0  0  0
  -24.0580  -36.5660   23.0280 C   0  0  0  0  0  1  0  0  0  0  0  0
  -25.2860  -36.1650   23.8630 C   0  0  0  0  0  3  0  0  0  0  0  0
  -27.3820  -37.0800   24.7630 C   0  0  0  0  0  1  0  0  0  0  0  0
  -26.3020  -37.2400   23.7920 N   0  0  0  0  0  0  0  0  0  0  0  0
  -25.8740  -38.1500   23.9380 H   0  0  0  0  0  0  0  0  0  0  0  0
  2  1  1  0
  2 53  1  0
  3  2  2  0
  4  1  2  0
  4 15  1  0
  5  6  2  0
  5  3  1  0
  6  4  1  0
  7 13  1  0
  8 13  1  0
  9 10  1  0
  9  8  1  0
 11 10  1  0
 11 22  1  0
 11 12  1  0
 13 12  1  0
 14  7  2  0
 15 16  1  0
 16 18  1  0
 16  7  1  0
 17 15  2  0
 19 20  2  0
 20 21  1  0
 20 39  1  0
 21 24  1  0
 22 19  1  0
 22 23  1  0
 23 21  2  0
 24 25  1  0
 25 26  2  0
 27 30  1  0
 27 26  1  0
 28 27  2  0
 29 28  1  0
 29 24  2  0
 30 31  1  0
 31 32  1  0
 32 33  2  0
 34 33  1  0
 34 38  1  0
 35 34  2  0
 36 31  2  0
 36 35  1  0
 37 36  1  0
 39 40  1  0
 40 43  1  0
 40 42  1  0
 41 39  2  0
 44 45  1  0
 44 19  1  0
 46 44  1  0
 47 49  1  0
 47  3  1  0
 47 48  1  0
 50  5  1  0
 51 50  1  0
 52 50  1  0
 53 54  2  0
 55 53  1  0
 55 56  1  0
 57 68  2  0
 58 56  1  0
 58 63  1  0
 59 67  1  0
 59 69  1  0
 60 66  1  0
 60 62  1  0
 61 67  1  0
 62 63  2  0
 62 61  1  0
 64 58  2  0
 65 64  1  0
 65 60  2  0
 66 59  1  0
 67 57  1  0
 69 71  2  0
 70 69  1  0
 72 70  1  0
 73 82  2  0
 73 78  1  0
 74 70  1  0
 74 78  1  0
 75 74  1  0
 76 77  1  0
 76 75  1  0
 77 73  1  0
 78 79  2  0
 79 80  1  0
 81 80  2  0
 82 81  1  0
 83 57  1  0
 83 88  1  0
 83 84  1  0
 84 87  1  1
 84 85  1  0
 86 84  1  0
 88 91  1  0
 89 93  1  0
 89 88  1  0
 90 89  2  0
 93 92  1  0
 95 93  1  0
 95 96  1  0
 95 94  1  0
M  ISO  4   7 100  16 100  55 101  56 101
M  END
>  <TORSDO>  (3) 
F 20

>  <SCORE>  (3) 
-13.736

>  <name>  (3) 
2

>  <ligand_id>  (3) 
2

>  <original_smiles>  (3) 
[H]c1c([H])c([H])c2c(c1[H])C([H])([H])C([H])([H])C([H])([H])C2([H])N([H])C(=O)C1([H])N(C(=O)C([H])(N([H])C(=O)C([H])(N([H])C([H])([H])[H])C([H])([H])[H])C(C([H])([H])[H])(C([H])([H])[H])C([H])([H])[H])C([H])([H])c2c([H])c(OC([H])([H])C(=O)c3c([H])c(C(=O)N([H])C(=O)N4C([H])([H])C([H])([H])C([H])([H])C([H])(n5nc(-c6c([H])c([H])c(Oc7c([H])c([H])c(F)c([H])c7F)c([H])c6[H])c(C(=O)N([H])[H])c5N([H])[H])C4([H])[H])nc(N([H])[H])c3N([H])[H])c([H])c([H])c2C1([H])[H]

>  <smiles>  (3) 
[H]c1c([H])c([H])c2c(c1[H])C([H])([H])C([H])([H])C([H])([H])C2([H])N([H])C(=O)C1([H])N(C(=O)C([H])(N([H])C(=O)C([H])(N([H])C([H])([H])[H])C([H])([H])[H])C(C([H])([H])[H])(C([H])([H])[H])C([H])([H])[H])C([H])([H])c2c([H])c(OC([H])([H])C(=O)c3c([H])c(C(=O)N([H])C(=O)N4C([H])([H])C([H])([H])C([H])([H])C([H])(n5nc(-c6c([H])c([H])c(Oc7c([H])c([H])c(F)c([H])c7F)c([H])c6[H])c(C(=O)N([H])[H])c5N([H])[H])C4([H])[H])nc(N([H])[H])c3N([H])[H])c([H])c([H])c2C1([H])[H]

$$$$
3:0:0
     RDKit          3D

 95104  0  0  1  0  0  0  0  0999 V2000
  -30.3360  -23.8410   20.4230 C   0  0  0  0  0  3  0  0  0  0  0  0
  -28.9160  -23.8510   20.5570 C   0  0  0  0  0  0  0  0  0  0  0  0
  -28.5760  -22.5000   20.6990 C   0  0  0  0  0  0  0  0  0  0  0  0
  -30.7740  -22.5390   20.4610 C   0  0  0  0  0  0  0  0  0  0  0  0
  -27.2170  -21.9120   20.9300 C   0  0  0  0  0  1  0  0  0  0  0  0
  -29.7070  -21.6550   20.5950 N   0  0  0  0  0  0  0  0  0  0  0  0
  -28.9910  -19.4120   19.6940 C   0  0  0  0  0  3  0  0  0  0  0  0
  -29.0270  -17.9860   19.6790 C   0  0  0  0  0  3  0  0  0  0  0  0
  -30.6950  -18.0010   21.4090 C   0  0  0  0  0  3  0  0  0  0  0  0
  -29.7740  -20.1810   20.5940 C   0  0  0  0  0  0  0  0  0  0  0  0
  -29.8840  -17.2370   20.5270 C   0  0  0  0  0  0  0  0  0  0  0  0
  -30.6220  -19.4300   21.4640 C   0  0  0  0  0  0  0  0  0  0  0  0
  -31.3510  -20.0690   22.4140 F   0  0  0  0  0  0  0  0  0  0  0  0
  -30.5840  -14.7330   20.3610 C   0  0  0  0  0  0  0  0  0  0  0  0
  -30.3760  -12.5010   19.2800 C   0  0  0  0  0  2  0  0  0  0  0  0
  -29.4220  -12.6540   18.0740 C   0  0  0  0  0  2  0  0  0  0  0  0
  -27.9470  -12.4960   18.5020 C   0  0  0  0  0  2  0  0  0  0  0  0
  -27.5980  -13.3340   19.7640 C   0  0  0  0  0  3  0  0  0  0  0  0
  -28.6690  -13.1700   20.8680 C   0  0  0  0  0  2  0  0  0  0  0  0
  -29.9750  -13.5080   20.2790 N   0  0  0  0  0  0  0  0  0  0  0  0
  -31.7600  -14.8970   20.0220 O   0  0  0  0  0  0  0  0  0  0  0  0
  -29.7380  -15.7830   20.6050 N   0  0  0  0  0  0  0  0  0  0  0  0
  -28.7840  -15.4670   20.6920 H   0  0  0  0  0  0  0  0  0  0  0  0
  -25.2060  -13.9220   20.4940 C   0  0  0  0  0  0  0  0  0  0  0  0
  -24.1420  -13.1470   20.8670 C   0  0  0  0  0  0  0  0  0  0  0  0
  -24.6060  -11.7960   20.8310 C   0  0  0  0  0  0  0  0  0  0  0  0
  -26.2520  -13.0450   20.2530 N   0  0  0  0  0  0  0  0  0  0  0  0
  -25.8970  -11.7610   20.5170 N   0  0  0  0  0  0  0  0  0  0  0  0
  -23.8800  -10.5320   21.0200 C   0  0  0  0  0  0  0  0  0  0  0  0
  -24.3070   -9.5680   21.9600 C   0  0  0  0  0  3  0  0  0  0  0  0
  -23.5810   -8.3700   22.1360 C   0  0  0  0  0  3  0  0  0  0  0  0
  -22.4150   -8.1260   21.3720 C   0  0  0  0  0  0  0  0  0  0  0  0
  -22.0060   -9.0810   20.4240 C   0  0  0  0  0  3  0  0  0  0  0  0
  -22.7330  -10.2710   20.2450 C   0  0  0  0  0  3  0  0  0  0  0  0
  -21.6610   -6.9800   21.4580 O   0  0  0  0  0  0  0  0  0  0  0  0
  -21.5940   -6.2480   22.6160 C   0  0  0  0  0  0  0  0  0  0  0  0
  -21.1170   -6.8050   23.8230 C   0  0  0  0  0  3  0  0  0  0  0  0
  -20.9980   -5.9990   24.9720 C   0  0  0  0  0  3  0  0  0  0  0  0
  -21.3440   -4.6360   24.9170 C   0  0  0  0  0  0  0  0  0  0  0  0
  -21.8140   -4.0770   23.7140 C   0  0  0  0  0  3  0  0  0  0  0  0
  -21.9360   -4.8810   22.5670 C   0  0  0  0  0  0  0  0  0  0  0  0
  -22.3690   -4.3320   21.4060 F   0  0  0  0  0  0  0  0  0  0  0  0
  -21.2220   -3.8600   26.0180 F   0  0  0  0  0  0  0  0  0  0  0  0
  -22.7440  -13.6230   21.1420 C   0  0  0  0  0  0  0  0  0  0  0  0
  -22.0150  -12.9290   22.0110 N   0  0  0  0  0  0  0  0  0  0  0  0
  -22.3050  -14.6500   20.6240 O   0  0  0  0  0  0  0  0  0  0  0  0
  -22.3780  -12.1000   22.4580 H   0  0  0  0  0  0  0  0  0  0  0  0
  -21.0780  -13.2350   22.2340 H   0  0  0  0  0  0  0  0  0  0  0  0
  -25.3630  -15.2950   20.3140 N   0  0  0  0  0  0  0  0  0  0  0  0
  -24.5770  -15.9310   20.3780 H   0  0  0  0  0  0  0  0  0  0  0  0
  -26.1970  -15.7360   19.9520 H   0  0  0  0  0  0  0  0  0  0  0  0
  -32.0510  -22.0790   20.3630 O   0  0  0  0  0  0  0  0  0  0  0  0
  -32.6380  -22.8150   20.4980 H   0  0  0  0  0  0  0  0  0  0  0  0
  -27.9130  -25.0630   20.5360 C   0  0  0  0  0  2  0  0  0  0  0  0
  -28.3160  -26.4810   20.3140 O   0  0  0  0  0  0  0  0  0  0  0  0
  -24.6440  -31.9620   23.3030 C   0  0  0  0  0  0  0  0  0  0  0  0
  -27.2380  -27.3910   20.2360 C   0  0  0  0  0  0  0  0  0  0  0  0
  -23.4370  -30.5760   21.6590 C   0  0  0  0  0  3  0  0  0  0  0  0
  -24.8840  -29.0300   20.2310 C   0  0  0  0  0  0  0  0  0  0  0  0
  -25.9840  -30.8840   21.4790 C   0  0  0  0  0  2  0  0  0  0  0  0
  -26.0610  -29.5080   20.8210 C   0  0  0  0  0  0  0  0  0  0  0  0
  -27.2470  -28.7050   20.8050 C   0  0  0  0  0  3  0  0  0  0  0  0
  -26.0380  -26.9890   19.6000 C   0  0  0  0  0  3  0  0  0  0  0  0
  -24.8750  -27.7720   19.6150 C   0  0  0  0  0  3  0  0  0  0  0  0
  -23.6570  -29.9180   20.2750 C   0  0  0  0  0  2  0  0  0  0  0  0
  -24.7080  -31.1540   22.2060 N   0  0  0  0  0  0  0  0  0  0  0  0
  -23.5580  -32.2460   23.8310 O   0  0  0  0  0  0  0  0  0  0  0  0
  -22.7610  -29.5570   22.6080 C   0  0  0  0  0  0  0  0  0  0  0  0
  -21.4360  -29.3790   22.4680 N   0  0  0  0  0  0  0  0  0  0  0  0
  -23.4280  -28.9320   23.4350 O   0  0  0  0  0  0  0  0  0  0  0  0
  -20.9480  -29.9370   21.7820 H   0  0  0  0  0  0  0  0  0  0  0  0
  -18.0520  -28.1870   22.9420 C   0  0  0  0  0  0  0  0  0  0  0  0
  -20.6090  -28.4400   23.2310 C   0  0  0  0  0  3  0  0  0  0  0  0
  -20.7110  -27.0070   22.6560 C   0  0  0  0  0  2  0  0  0  0  0  0
  -19.6160  -26.6880   21.6320 C   0  0  0  0  0  2  0  0  0  0  0  0
  -18.2300  -26.8370   22.2650 C   0  0  0  0  0  2  0  0  0  0  0  0
  -19.1680  -28.9450   23.3810 C   0  0  0  0  0  0  0  0  0  0  0  0
  -18.9470  -30.2070   23.9720 C   0  0  0  0  0  3  0  0  0  0  0  0
  -17.6420  -30.7130   24.1250 C   0  0  0  0  0  3  0  0  0  0  0  0
  -16.5390  -29.9490   23.7040 C   0  0  0  0  0  3  0  0  0  0  0  0
  -16.7450  -28.6880   23.1180 C   0  0  0  0  0  3  0  0  0  0  0  0
  -25.9280  -32.5860   23.9300 C   0  0  0  0  0  3  0  0  0  0  0  0
  -26.4260  -31.8110   25.2120 C   0  0  1  0  0  0  0  0  0  0  0  0
  -25.3230  -31.5900   26.2720 C   0  0  0  0  0  1  0  0  0  0  0  0
  -27.0000  -30.4270   24.8290 C   0  0  0  0  0  1  0  0  0  0  0  0
  -27.5780  -32.5950   25.8820 C   0  0  0  0  0  1  0  0  0  0  0  0
  -25.6260  -33.9850   24.2560 N   0  0  0  0  0  0  0  0  0  0  0  0
  -25.9320  -35.0320   23.4770 C   0  0  0  0  0  0  0  0  0  0  0  0
  -26.5720  -34.9210   22.4280 O   0  0  0  0  0  0  0  0  0  0  0  0
  -25.0540  -34.1470   25.0710 H   0  0  0  0  0  0  0  0  0  0  0  0
  -24.1840  -36.8130   23.1710 C   0  0  0  0  0  1  0  0  0  0  0  0
  -25.4570  -36.4220   23.9380 C   0  0  0  0  0  3  0  0  0  0  0  0
  -27.6150  -37.3310   24.6760 C   0  0  0  0  0  1  0  0  0  0  0  0
  -26.4770  -37.4790   23.7730 N   0  0  0  0  0  0  0  0  0  0  0  0
  -26.0690  -38.3980   23.9230 H   0  0  0  0  0  0  0  0  0  0  0  0
  1  4  2  0
  1  2  1  0
  2  3  2  0
  3  5  1  0
  4  6  1  0
  6  3  1  0
  7 10  1  0
  8  7  2  0
  8 11  1  0
  9 12  1  0
 10  6  1  0
 10 12  2  0
 11 22  1  0
 11  9  2  0
 12 13  1  0
 14 22  1  0
 15 20  1  0
 16 17  1  0
 16 15  1  0
 18 17  1  0
 18 27  1  0
 18 19  1  0
 20 14  1  0
 20 19  1  0
 21 14  2  0
 22 23  1  0
 24 25  2  0
 25 44  1  0
 26 25  1  0
 26 29  1  0
 27 24  1  0
 27 28  1  0
 28 26  2  0
 29 30  1  0
 30 31  2  0
 32 35  1  0
 32 31  1  0
 33 32  2  0
 34 33  1  0
 34 29  2  0
 35 36  1  0
 36 37  1  0
 37 38  2  0
 39 38  1  0
 39 43  1  0
 40 39  2  0
 41 36  2  0
 41 40  1  0
 42 41  1  0
 44 45  1  0
 45 48  1  0
 45 47  1  0
 46 44  2  0
 49 50  1  0
 49 24  1  0
 51 49  1  0
 52  4  1  0
 52 53  1  0
 54  2  1  0
 55 54  1  0
 56 67  2  0
 57 55  1  0
 57 62  1  0
 58 66  1  0
 58 68  1  0
 59 65  1  0
 59 61  1  0
 60 66  1  0
 61 60  1  0
 62 61  2  0
 63 64  1  0
 63 57  2  0
 64 59  2  0
 65 58  1  0
 66 56  1  0
 68 70  2  0
 69 68  1  0
 71 69  1  0
 72 81  2  0
 72 77  1  0
 73 69  1  0
 73 77  1  0
 74 73  1  0
 75 76  1  0
 75 74  1  0
 76 72  1  0
 77 78  2  0
 78 79  1  0
 80 79  2  0
 81 80  1  0
 82 56  1  0
 82 87  1  0
 82 83  1  0
 83 86  1  1
 83 84  1  0
 85 83  1  0
 87 90  1  0
 88 92  1  0
 88 87  1  0
 89 88  2  0
 92 91  1  0
 94 95  1  0
 94 92  1  0
 94 93  1  0
M  ISO  4  14 100  22 100  54 101  55 101
M  END
>  <TORSDO>  (4) 
F 19

>  <SCORE>  (4) 
-14.629

>  <name>  (4) 
3

>  <ligand_id>  (4) 
3

>  <original_smiles>  (4) 
[H]Oc1c([H])c(C([H])([H])Oc2c([H])c([H])c3c(c2[H])C([H])([H])N(C(=O)C([H])(N([H])C(=O)C([H])(N([H])C([H])([H])[H])C([H])([H])[H])C(C([H])([H])[H])(C([H])([H])[H])C([H])([H])[H])C([H])(C(=O)N([H])C2([H])c4c([H])c([H])c([H])c([H])c4C([H])([H])C([H])([H])C2([H])[H])C3([H])[H])c(C([H])([H])[H])n1-c1c([H])c([H])c(N([H])C(=O)N2C([H])([H])C([H])([H])C([H])([H])C([H])(n3nc(-c4c([H])c([H])c(Oc5c([H])c([H])c(F)c([H])c5F)c([H])c4[H])c(C(=O)N([H])[H])c3N([H])[H])C2([H])[H])c([H])c1F

>  <smiles>  (4) 
[H]Oc1c([H])c(C([H])([H])Oc2c([H])c([H])c3c(c2[H])C([H])([H])N(C(=O)C([H])(N([H])C(=O)C([H])(N([H])C([H])([H])[H])C([H])([H])[H])C(C([H])([H])[H])(C([H])([H])[H])C([H])([H])[H])C([H])(C(=O)N([H])C2([H])c4c([H])c([H])c([H])c([H])c4C([H])([H])C([H])([H])C2([H])[H])C3([H])[H])c(C([H])([H])[H])n1-c1c([H])c([H])c(N([H])C(=O)N2C([H])([H])C([H])([H])C([H])([H])C([H])(n3nc(-c4c([H])c([H])c(Oc5c([H])c([H])c(F)c([H])c5F)c([H])c4[H])c(C(=O)N([H])[H])c3N([H])[H])C2([H])[H])c([H])c1F

$$$$
4:0:0
     RDKit          3D

 96105  0  0  1  0  0  0  0  0999 V2000
  -28.7780  -19.4490   19.9890 C   0  0  0  0  0  3  0  0  0  0  0  0
  -30.9490  -19.4170   20.9990 C   0  0  0  0  0  3  0  0  0  0  0  0
  -28.7780  -18.0240   19.9580 C   0  0  0  0  0  0  0  0  0  0  0  0
  -29.8600  -20.1990   20.5050 C   0  0  0  0  0  0  0  0  0  0  0  0
  -30.9570  -17.9870   20.9760 C   0  0  0  0  0  0  0  0  0  0  0  0
  -29.8610  -17.2400   20.4570 C   0  0  0  0  0  0  0  0  0  0  0  0
  -27.5370  -17.3660   19.4100 C   0  0  0  0  0  1  0  0  0  0  0  0
  -30.5390  -14.7190   20.2500 C   0  0  0  0  0  0  0  0  0  0  0  0
  -30.3050  -12.4890   19.1720 C   0  0  0  0  0  2  0  0  0  0  0  0
  -29.3180  -12.6290   17.9900 C   0  0  0  0  0  2  0  0  0  0  0  0
  -27.8610  -12.4490   18.4630 C   0  0  0  0  0  2  0  0  0  0  0  0
  -27.5350  -13.2820   19.7310 C   0  0  0  0  0  3  0  0  0  0  0  0
  -28.6380  -13.1320   20.8040 C   0  0  0  0  0  2  0  0  0  0  0  0
  -29.9230  -13.4940   20.1830 N   0  0  0  0  0  0  0  0  0  0  0  0
  -31.7010  -14.8700   19.8640 O   0  0  0  0  0  0  0  0  0  0  0  0
  -29.7240  -15.7770   20.5610 N   0  0  0  0  0  0  0  0  0  0  0  0
  -28.7880  -15.4740   20.7680 H   0  0  0  0  0  0  0  0  0  0  0  0
  -25.1570  -13.8420   20.5370 C   0  0  0  0  0  0  0  0  0  0  0  0
  -24.1110  -13.0600   20.9300 C   0  0  0  0  0  0  0  0  0  0  0  0
  -24.5840  -11.7150   20.8590 C   0  0  0  0  0  0  0  0  0  0  0  0
  -26.2050  -12.9800   20.2550 N   0  0  0  0  0  0  0  0  0  0  0  0
  -25.8640  -11.6910   20.5060 N   0  0  0  0  0  0  0  0  0  0  0  0
  -23.8710  -10.4500   21.0450 C   0  0  0  0  0  0  0  0  0  0  0  0
  -24.3180   -9.4790   21.9680 C   0  0  0  0  0  3  0  0  0  0  0  0
  -23.6000   -8.2770   22.1420 C   0  0  0  0  0  3  0  0  0  0  0  0
  -22.4230   -8.0390   21.3920 C   0  0  0  0  0  0  0  0  0  0  0  0
  -21.9970   -8.9980   20.4570 C   0  0  0  0  0  3  0  0  0  0  0  0
  -22.7160  -10.1910   20.2810 C   0  0  0  0  0  3  0  0  0  0  0  0
  -21.6750   -6.8910   21.4790 O   0  0  0  0  0  0  0  0  0  0  0  0
  -21.6230   -6.1520   22.6330 C   0  0  0  0  0  0  0  0  0  0  0  0
  -21.1350   -6.6910   23.8430 C   0  0  0  0  0  3  0  0  0  0  0  0
  -21.0370   -5.8760   24.9870 C   0  0  0  0  0  3  0  0  0  0  0  0
  -21.4140   -4.5210   24.9220 C   0  0  0  0  0  0  0  0  0  0  0  0
  -21.8950   -3.9810   23.7170 C   0  0  0  0  0  3  0  0  0  0  0  0
  -21.9980   -4.7940   22.5740 C   0  0  0  0  0  0  0  0  0  0  0  0
  -22.4430   -4.2640   21.4100 F   0  0  0  0  0  0  0  0  0  0  0  0
  -21.3110   -3.7350   26.0190 F   0  0  0  0  0  0  0  0  0  0  0  0
  -22.7210  -13.5290   21.2520 C   0  0  0  0  0  0  0  0  0  0  0  0
  -22.0240  -12.8180   22.1290 N   0  0  0  0  0  0  0  0  0  0  0  0
  -22.2660  -14.5630   20.7630 O   0  0  0  0  0  0  0  0  0  0  0  0
  -22.4060  -11.9800   22.5420 H   0  0  0  0  0  0  0  0  0  0  0  0
  -21.0950  -13.1130   22.3910 H   0  0  0  0  0  0  0  0  0  0  0  0
  -25.2800  -15.2110   20.3730 N   0  0  0  0  0  0  0  0  0  0  0  0
  -24.4910  -15.8310   20.5120 H   0  0  0  0  0  0  0  0  0  0  0  0
  -26.0740  -15.6660   19.9480 H   0  0  0  0  0  0  0  0  0  0  0  0
  -30.8590  -22.5290   20.5160 C   0  0  0  0  0  0  0  0  0  0  0  0
  -30.4250  -23.9990   20.3980 C   0  0  0  0  0  2  0  0  0  0  0  0
  -28.5760  -22.4830   20.3790 C   0  0  0  0  0  2  0  0  0  0  0  0
  -28.9280  -23.9820   20.7060 C   0  0  0  0  0  3  0  0  0  0  0  0
  -29.8110  -21.6720   20.5270 N   0  0  0  0  0  0  0  0  0  0  0  0
  -32.0540  -22.2250   20.5810 O   0  0  0  0  0  0  0  0  0  0  0  0
  -28.0130  -25.0870   20.0280 C   0  0  0  0  0  2  0  0  0  0  0  0
  -28.2160  -26.5270   20.2950 O   0  0  0  0  0  0  0  0  0  0  0  0
  -24.5260  -31.9660   23.2260 C   0  0  0  0  0  0  0  0  0  0  0  0
  -27.1030  -27.3780   20.2020 C   0  0  0  0  0  0  0  0  0  0  0  0
  -23.3070  -30.5630   21.5990 C   0  0  0  0  0  3  0  0  0  0  0  0
  -24.7440  -28.9980   20.1810 C   0  0  0  0  0  0  0  0  0  0  0  0
  -25.8480  -30.8690   21.4030 C   0  0  0  0  0  2  0  0  0  0  0  0
  -25.9180  -29.4860   20.7700 C   0  0  0  0  0  0  0  0  0  0  0  0
  -27.0990  -28.6880   20.7710 C   0  0  0  0  0  3  0  0  0  0  0  0
  -25.9090  -26.9520   19.5670 C   0  0  0  0  0  3  0  0  0  0  0  0
  -24.7440  -27.7370   19.5680 C   0  0  0  0  0  3  0  0  0  0  0  0
  -23.5120  -29.8780   20.2250 C   0  0  0  0  0  2  0  0  0  0  0  0
  -24.5800  -31.1490   22.1340 N   0  0  0  0  0  0  0  0  0  0  0  0
  -23.4460  -32.2550   23.7610 O   0  0  0  0  0  0  0  0  0  0  0  0
  -22.6410  -29.5570   22.5680 C   0  0  0  0  0  0  0  0  0  0  0  0
  -21.3150  -29.3830   22.4380 N   0  0  0  0  0  0  0  0  0  0  0  0
  -23.3150  -28.9350   23.3920 O   0  0  0  0  0  0  0  0  0  0  0  0
  -20.8300  -29.9350   21.7440 H   0  0  0  0  0  0  0  0  0  0  0  0
  -17.9280  -28.2250   22.9550 C   0  0  0  0  0  0  0  0  0  0  0  0
  -20.4900  -28.4580   23.2170 C   0  0  0  0  0  3  0  0  0  0  0  0
  -20.5740  -27.0230   22.6470 C   0  0  0  0  0  2  0  0  0  0  0  0
  -19.4650  -26.7070   21.6380 C   0  0  0  0  0  2  0  0  0  0  0  0
  -18.0870  -26.8710   22.2860 C   0  0  0  0  0  2  0  0  0  0  0  0
  -19.0560  -28.9780   23.3780 C   0  0  0  0  0  0  0  0  0  0  0  0
  -18.8520  -30.2460   23.9630 C   0  0  0  0  0  3  0  0  0  0  0  0
  -17.5530  -30.7620   24.1300 C   0  0  0  0  0  3  0  0  0  0  0  0
  -16.4390  -30.0050   23.7240 C   0  0  0  0  0  3  0  0  0  0  0  0
  -16.6270  -28.7400   23.1420 C   0  0  0  0  0  3  0  0  0  0  0  0
  -25.8160  -32.5920   23.8410 C   0  0  0  0  0  3  0  0  0  0  0  0
  -26.3340  -31.8210   25.1150 C   0  0  1  0  0  0  0  0  0  0  0  0
  -25.2420  -31.5850   26.1860 C   0  0  0  0  0  1  0  0  0  0  0  0
  -26.9130  -30.4420   24.7220 C   0  0  0  0  0  1  0  0  0  0  0  0
  -27.4860  -32.6130   25.7770 C   0  0  0  0  0  1  0  0  0  0  0  0
  -25.5150  -33.9920   24.1710 N   0  0  0  0  0  0  0  0  0  0  0  0
  -25.8500  -35.0430   23.4110 C   0  0  0  0  0  0  0  0  0  0  0  0
  -26.5180  -34.9360   22.3780 O   0  0  0  0  0  0  0  0  0  0  0  0
  -24.9210  -34.1520   24.9720 H   0  0  0  0  0  0  0  0  0  0  0  0
  -24.1440  -36.8540   23.0430 C   0  0  0  0  0  1  0  0  0  0  0  0
  -25.3710  -36.4340   23.8690 C   0  0  0  0  0  3  0  0  0  0  0  0
  -27.4990  -37.3000   24.7360 C   0  0  0  0  0  1  0  0  0  0  0  0
  -26.4150  -37.4770   23.7730 N   0  0  0  0  0  0  0  0  0  0  0  0
  -26.0140  -38.4010   23.9110 H   0  0  0  0  0  0  0  0  0  0  0  0
  -32.0450  -17.3150   21.5250 N   0  0  0  0  0  0  0  0  0  0  0  0
  -32.9000  -17.8470   21.6410 H   0  0  0  0  0  0  0  0  0  0  0  0
  -32.2210  -16.4060   21.0960 H   0  0  0  0  0  0  0  0  0  0  0  0
  1  4  1  0
  3  1  2  0
  3  6  1  0
  4 50  1  0
  4  2  2  0
  5  2  1  0
  5 94  1  0
  6 16  1  0
  6  5  2  0
  7  3  1  0
  8 16  1  0
  9 14  1  0
 10 11  1  0
 10  9  1  0
 12 11  1  0
 12 21  1  0
 12 13  1  0
 14  8  1  0
 14 13  1  0
 15  8  2  0
 16 17  1  0
 18 19  2  0
 19 38  1  0
 20 19  1  0
 20 23  1  0
 21 22  1  0
 21 18  1  0
 22 20  2  0
 23 24  1  0
 24 25  2  0
 26 29  1  0
 26 25  1  0
 27 26  2  0
 28 27  1  0
 28 23  2  0
 29 30  1  0
 30 31  1  0
 31 32  2  0
 33 32  1  0
 33 37  1  0
 34 33  2  0
 35 30  2  0
 35 34  1  0
 36 35  1  0
 38 39  1  0
 39 42  1  0
 39 41  1  0
 40 38  2  0
 43 44  1  0
 43 18  1  0
 45 43  1  0
 46 50  1  0
 46 51  2  0
 47 46  1  0
 47 49  1  0
 48 50  1  0
 48 49  1  0
 49 52  1  0
 52 53  1  0
 54 65  2  0
 55 53  1  0
 55 60  1  0
 56 64  1  0
 56 66  1  0
 57 63  1  0
 57 59  1  0
 58 64  1  0
 59 60  2  0
 59 58  1  0
 61 62  1  0
 61 55  2  0
 62 57  2  0
 63 56  1  0
 64 54  1  0
 66 68  2  0
 67 66  1  0
 69 67  1  0
 70 79  2  0
 70 75  1  0
 71 67  1  0
 71 75  1  0
 72 71  1  0
 73 74  1  0
 73 72  1  0
 74 70  1  0
 75 76  2  0
 76 77  1  0
 78 77  2  0
 79 78  1  0
 80 54  1  0
 80 85  1  0
 80 81  1  0
 81 84  1  1
 81 82  1  0
 83 81  1  0
 85 88  1  0
 86 90  1  0
 86 85  1  0
 87 86  2  0
 90 89  1  0
 92 90  1  0
 92 93  1  0
 92 91  1  0
 94 95  1  0
 96 94  1  0
M  ISO  4   8 100  16 100  52 101  53 101
M  END
>  <TORSDO>  (5) 
F 19

>  <SCORE>  (5) 
-14.636

>  <name>  (5) 
4

>  <ligand_id>  (5) 
4

>  <original_smiles>  (5) 
[H]c1c([H])c([H])c2c(c1[H])C([H])([H])C([H])([H])C([H])([H])C2([H])N([H])C(=O)C1([H])N(C(=O)C([H])(N([H])C(=O)C([H])(N([H])C([H])([H])[H])C([H])([H])[H])C(C([H])([H])[H])(C([H])([H])[H])C([H])([H])[H])C([H])([H])c2c([H])c(OC([H])([H])C3([H])C([H])([H])C(=O)N(c4c([H])c(N([H])[H])c(N([H])C(=O)N5C([H])([H])C([H])([H])C([H])([H])C([H])(n6nc(-c7c([H])c([H])c(Oc8c([H])c([H])c(F)c([H])c8F)c([H])c7[H])c(C(=O)N([H])[H])c6N([H])[H])C5([H])[H])c(C([H])([H])[H])c4[H])C3([H])[H])c([H])c([H])c2C1([H])[H]

>  <smiles>  (5) 
[H]c1c([H])c([H])c2c(c1[H])C([H])([H])C([H])([H])C([H])([H])C2([H])N([H])C(=O)C1([H])N(C(=O)C([H])(N([H])C(=O)C([H])(N([H])C([H])([H])[H])C([H])([H])[H])C(C([H])([H])[H])(C([H])([H])[H])C([H])([H])[H])C([H])([H])c2c([H])c(OC([H])([H])C3([H])C([H])([H])C(=O)N(c4c([H])c(N([H])[H])c(N([H])C(=O)N5C([H])([H])C([H])([H])C([H])([H])C([H])(n6nc(-c7c([H])c([H])c(Oc8c([H])c([H])c(F)c([H])c8F)c([H])c7[H])c(C(=O)N([H])[H])c6N([H])[H])C5([H])[H])c(C([H])([H])[H])c4[H])C3([H])[H])c([H])c([H])c2C1([H])[H]

$$$$
5:0:0
     RDKit          3D

 96105  0  0  1  0  0  0  0  0999 V2000
  -29.9980  -19.1760   19.0790 C   0  0  0  0  0  3  0  0  0  0  0  0
  -30.1710  -18.0760   21.6240 C   0  0  0  0  0  3  0  0  0  0  0  0
  -29.9630  -20.0940   20.1730 C   0  0  0  0  0  0  0  0  0  0  0  0
  -30.1340  -17.7650   19.2380 C   0  0  0  0  0  0  0  0  0  0  0  0
  -30.2410  -17.1760   20.5270 C   0  0  0  0  0  0  0  0  0  0  0  0
  -30.0390  -19.4900   21.4610 C   0  0  0  0  0  0  0  0  0  0  0  0
  -30.0020  -20.2580   22.5760 F   0  0  0  0  0  0  0  0  0  0  0  0
  -31.0030  -14.7300   20.2190 C   0  0  0  0  0  0  0  0  0  0  0  0
  -30.7800  -12.5080   19.1290 C   0  0  0  0  0  2  0  0  0  0  0  0
  -29.7910  -12.6480   17.9500 C   0  0  0  0  0  2  0  0  0  0  0  0
  -28.3340  -12.4820   18.4280 C   0  0  0  0  0  2  0  0  0  0  0  0
  -28.0200  -13.3230   19.6920 C   0  0  0  0  0  3  0  0  0  0  0  0
  -29.1150  -13.1450   20.7670 C   0  0  0  0  0  2  0  0  0  0  0  0
  -30.4050  -13.4990   20.1570 N   0  0  0  0  0  0  0  0  0  0  0  0
  -32.1120  -14.9330   19.7150 O   0  0  0  0  0  0  0  0  0  0  0  0
  -30.2550  -15.7330   20.7640 N   0  0  0  0  0  0  0  0  0  0  0  0
  -29.4760  -15.3930   21.3060 H   0  0  0  0  0  0  0  0  0  0  0  0
  -25.6600  -13.9060   20.5260 C   0  0  0  0  0  0  0  0  0  0  0  0
  -24.6040  -13.1250   20.9080 C   0  0  0  0  0  0  0  0  0  0  0  0
  -25.0540  -11.7730   20.8080 C   0  0  0  0  0  0  0  0  0  0  0  0
  -26.6890  -13.0300   20.2170 N   0  0  0  0  0  0  0  0  0  0  0  0
  -26.3310  -11.7400   20.4450 N   0  0  0  0  0  0  0  0  0  0  0  0
  -24.3310  -10.5060   20.9820 C   0  0  0  0  0  0  0  0  0  0  0  0
  -24.7490   -9.5420   21.9260 C   0  0  0  0  0  3  0  0  0  0  0  0
  -24.0260   -8.3410   22.0910 C   0  0  0  0  0  3  0  0  0  0  0  0
  -22.8730   -8.0950   21.3100 C   0  0  0  0  0  0  0  0  0  0  0  0
  -22.4710   -9.0500   20.3590 C   0  0  0  0  0  3  0  0  0  0  0  0
  -23.1950  -10.2420   20.1920 C   0  0  0  0  0  3  0  0  0  0  0  0
  -22.1220   -6.9450   21.3840 O   0  0  0  0  0  0  0  0  0  0  0  0
  -21.9700   -6.2580   22.5620 C   0  0  0  0  0  0  0  0  0  0  0  0
  -21.3800   -6.8530   23.7000 C   0  0  0  0  0  3  0  0  0  0  0  0
  -21.1780   -6.0920   24.8670 C   0  0  0  0  0  3  0  0  0  0  0  0
  -21.5530   -4.7360   24.8980 C   0  0  0  0  0  0  0  0  0  0  0  0
  -22.1380   -4.1410   23.7670 C   0  0  0  0  0  3  0  0  0  0  0  0
  -22.3420   -4.9000   22.6010 C   0  0  0  0  0  0  0  0  0  0  0  0
  -22.8830   -4.3140   21.5040 F   0  0  0  0  0  0  0  0  0  0  0  0
  -21.3520   -4.0020   26.0180 F   0  0  0  0  0  0  0  0  0  0  0  0
  -23.2220  -13.5970   21.2570 C   0  0  0  0  0  0  0  0  0  0  0  0
  -22.5340  -12.8790   22.1370 N   0  0  0  0  0  0  0  0  0  0  0  0
  -22.7630  -14.6380   20.7870 O   0  0  0  0  0  0  0  0  0  0  0  0
  -22.9190  -12.0370   22.5390 H   0  0  0  0  0  0  0  0  0  0  0  0
  -21.6100  -13.1770   22.4150 H   0  0  0  0  0  0  0  0  0  0  0  0
  -25.8260  -15.2820   20.3970 N   0  0  0  0  0  0  0  0  0  0  0  0
  -25.0720  -15.9360   20.5710 H   0  0  0  0  0  0  0  0  0  0  0  0
  -26.6710  -15.7310   20.0650 H   0  0  0  0  0  0  0  0  0  0  0  0
  -30.5090  -22.2580   19.0070 C   0  0  0  0  0  0  0  0  0  0  0  0
  -30.1650  -23.7500   19.0010 C   0  0  0  0  0  2  0  0  0  0  0  0
  -29.0520  -22.5360   20.7540 C   0  0  0  0  0  2  0  0  0  0  0  0
  -29.4540  -24.0090   20.3320 C   0  0  0  0  0  3  0  0  0  0  0  0
  -29.8620  -21.5600   19.9680 N   0  0  0  0  0  0  0  0  0  0  0  0
  -31.3190  -21.8000   18.1950 O   0  0  0  0  0  0  0  0  0  0  0  0
  -28.3090  -25.1070   20.2550 C   0  0  0  0  0  2  0  0  0  0  0  0
  -28.6200  -26.5580   20.2230 O   0  0  0  0  0  0  0  0  0  0  0  0
  -24.7550  -31.8180   23.3320 C   0  0  0  0  0  0  0  0  0  0  0  0
  -27.5170  -27.4290   20.1620 C   0  0  0  0  0  0  0  0  0  0  0  0
  -23.6350  -30.5030   21.5710 C   0  0  0  0  0  3  0  0  0  0  0  0
  -25.1530  -29.0410   20.1310 C   0  0  0  0  0  0  0  0  0  0  0  0
  -26.1800  -30.8370   21.5200 C   0  0  0  0  0  2  0  0  0  0  0  0
  -26.2940  -29.4950   20.8060 C   0  0  0  0  0  0  0  0  0  0  0  0
  -27.4800  -28.6990   20.8160 C   0  0  0  0  0  3  0  0  0  0  0  0
  -26.3570  -27.0450   19.4470 C   0  0  0  0  0  3  0  0  0  0  0  0
  -25.1890  -27.8240   19.4410 C   0  0  0  0  0  3  0  0  0  0  0  0
  -23.9120  -29.9070   20.1680 C   0  0  0  0  0  2  0  0  0  0  0  0
  -24.8740  -31.0660   22.1980 N   0  0  0  0  0  0  0  0  0  0  0  0
  -23.6470  -32.0640   23.8290 O   0  0  0  0  0  0  0  0  0  0  0  0
  -22.9380  -29.4320   22.4440 C   0  0  0  0  0  0  0  0  0  0  0  0
  -21.6190  -29.2630   22.2540 N   0  0  0  0  0  0  0  0  0  0  0  0
  -23.5840  -28.7600   23.2530 O   0  0  0  0  0  0  0  0  0  0  0  0
  -21.1600  -29.8580   21.5790 H   0  0  0  0  0  0  0  0  0  0  0  0
  -18.2130  -28.0910   22.5980 C   0  0  0  0  0  0  0  0  0  0  0  0
  -20.7690  -28.2880   22.9390 C   0  0  0  0  0  3  0  0  0  0  0  0
  -20.8620  -26.8990   22.2660 C   0  0  0  0  0  2  0  0  0  0  0  0
  -19.7770  -26.6650   21.2100 C   0  0  0  0  0  2  0  0  0  0  0  0
  -18.3840  -26.7880   21.8320 C   0  0  0  0  0  2  0  0  0  0  0  0
  -19.3330  -28.8020   23.1020 C   0  0  0  0  0  0  0  0  0  0  0  0
  -19.1190  -30.0240   23.7770 C   0  0  0  0  0  3  0  0  0  0  0  0
  -17.8190  -30.5330   23.9500 C   0  0  0  0  0  3  0  0  0  0  0  0
  -16.7120  -29.8180   23.4590 C   0  0  0  0  0  3  0  0  0  0  0  0
  -16.9110  -28.5960   22.7900 C   0  0  0  0  0  3  0  0  0  0  0  0
  -26.0050  -32.4210   24.0430 C   0  0  0  0  0  3  0  0  0  0  0  0
  -26.4300  -31.6200   25.3350 C   0  0  1  0  0  0  0  0  0  0  0  0
  -25.2680  -31.3750   26.3270 C   0  0  0  0  0  1  0  0  0  0  0  0
  -27.0220  -30.2430   24.9540 C   0  0  0  0  0  1  0  0  0  0  0  0
  -27.5450  -32.3880   26.0820 C   0  0  0  0  0  1  0  0  0  0  0  0
  -25.6940  -33.8180   24.3790 N   0  0  0  0  0  0  0  0  0  0  0  0
  -26.0410  -34.8750   23.6330 C   0  0  0  0  0  0  0  0  0  0  0  0
  -26.7290  -34.7760   22.6130 O   0  0  0  0  0  0  0  0  0  0  0  0
  -25.0860  -33.9680   25.1710 H   0  0  0  0  0  0  0  0  0  0  0  0
  -24.3010  -36.6580   23.2880 C   0  0  0  0  0  1  0  0  0  0  0  0
  -25.5510  -36.2620   24.0910 C   0  0  0  0  0  3  0  0  0  0  0  0
  -27.6820  -37.1670   24.9090 C   0  0  0  0  0  1  0  0  0  0  0  0
  -26.5780  -37.3200   23.9660 N   0  0  0  0  0  0  0  0  0  0  0  0
  -26.1660  -38.2400   24.1060 H   0  0  0  0  0  0  0  0  0  0  0  0
  -30.1180  -16.9600   18.1010 N   0  0  0  0  0  0  0  0  0  0  0  0
  -30.2940  -17.4080   17.2090 H   0  0  0  0  0  0  0  0  0  0  0  0
  -30.6340  -16.0880   18.1850 H   0  0  0  0  0  0  0  0  0  0  0  0
  1  4  2  0
  1  3  1  0
  3  6  2  0
  4  5  1  0
  5 16  1  0
  5  2  2  0
  6  2  1  0
  6  7  1  0
  8 16  1  0
  9 14  1  0
 10 11  1  0
 10  9  1  0
 12 11  1  0
 12 21  1  0
 12 13  1  0
 14  8  1  0
 14 13  1  0
 15  8  2  0
 16 17  1  0
 18 19  2  0
 19 38  1  0
 20 19  1  0
 20 23  1  0
 21 22  1  0
 21 18  1  0
 22 20  2  0
 23 24  1  0
 24 25  2  0
 26 29  1  0
 26 25  1  0
 27 26  2  0
 28 27  1  0
 28 23  2  0
 29 30  1  0
 30 35  2  0
 30 31  1  0
 31 32  2  0
 32 33  1  0
 33 37  1  0
 34 33  2  0
 35 34  1  0
 36 35  1  0
 38 39  1  0
 39 42  1  0
 39 41  1  0
 40 38  2  0
 43 18  1  0
 43 44  1  0
 45 43  1  0
 46 50  1  0
 47 46  1  0
 47 49  1  0
 49 52  1  0
 49 48  1  0
 50  3  1  0
 50 48  1  0
 51 46  2  0
 53 52  1  0
 54 65  2  0
 55 53  1  0
 55 60  1  0
 56 64  1  0
 56 66  1  0
 57 63  1  0
 57 59  1  0
 58 64  1  0
 59 60  2  0
 59 58  1  0
 61 55  2  0
 62 61  1  0
 62 57  2  0
 63 56  1  0
 64 54  1  0
 66 68  2  0
 67 66  1  0
 69 67  1  0
 70 79  2  0
 70 75  1  0
 71 67  1  0
 71 75  1  0
 72 71  1  0
 73 74  1  0
 73 72  1  0
 74 70  1  0
 75 76  2  0
 76 77  1  0
 78 77  2  0
 79 78  1  0
 80 54  1  0
 80 85  1  0
 80 81  1  0
 81 84  1  1
 81 82  1  0
 83 81  1  0
 85 88  1  0
 86 90  1  0
 86 85  1  0
 87 86  2  0
 90 89  1  0
 92 90  1  0
 92 93  1  0
 92 91  1  0
 94 96  1  0
 94  4  1  0
 95 94  1  0
M  ISO  4   8 100  16 100  52 101  53 101
M  END
>  <TORSDO>  (6) 
F 19

>  <SCORE>  (6) 
-13.638

>  <name>  (6) 
5

>  <ligand_id>  (6) 
5

>  <original_smiles>  (6) 
[H]c1c([H])c([H])c2c(c1[H])C([H])([H])C([H])([H])C([H])([H])C2([H])N([H])C(=O)C1([H])N(C(=O)C([H])(N([H])C(=O)C([H])(N([H])C([H])([H])[H])C([H])([H])[H])C(C([H])([H])[H])(C([H])([H])[H])C([H])([H])[H])C([H])([H])c2c([H])c(OC([H])([H])C3([H])C([H])([H])C(=O)N(c4c([H])c(N([H])[H])c(N([H])C(=O)N5C([H])([H])C([H])([H])C([H])([H])C([H])(n6nc(-c7c([H])c([H])c(Oc8c([H])c([H])c(F)c([H])c8F)c([H])c7[H])c(C(=O)N([H])[H])c6N([H])[H])C5([H])[H])c([H])c4F)C3([H])[H])c([H])c([H])c2C1([H])[H]

>  <smiles>  (6) 
[H]c1c([H])c([H])c2c(c1[H])C([H])([H])C([H])([H])C([H])([H])C2([H])N([H])C(=O)C1([H])N(C(=O)C([H])(N([H])C(=O)C([H])(N([H])C([H])([H])[H])C([H])([H])[H])C(C([H])([H])[H])(C([H])([H])[H])C([H])([H])[H])C([H])([H])c2c([H])c(OC([H])([H])C3([H])C([H])([H])C(=O)N(c4c([H])c(N([H])[H])c(N([H])C(=O)N5C([H])([H])C([H])([H])C([H])([H])C([H])(n6nc(-c7c([H])c([H])c(Oc8c([H])c([H])c(F)c([H])c8F)c([H])c7[H])c(C(=O)N([H])[H])c6N([H])[H])C5([H])[H])c([H])c4F)C3([H])[H])c([H])c([H])c2C1([H])[H]

$$$$
6:0:0
     RDKit          3D

 99108  0  0  1  0  0  0  0  0999 V2000
  -29.1770  -23.7300   21.6870 C   0  0  0  0  0  3  0  0  0  0  0  0
  -28.8470  -23.8400   20.3010 C   0  0  0  0  0  0  0  0  0  0  0  0
  -29.4500  -22.4140   21.9870 C   0  0  0  0  0  0  0  0  0  0  0  0
  -28.9370  -22.5180   19.8510 C   0  0  0  0  0  0  0  0  0  0  0  0
  -29.3180  -21.6050   20.8640 N   0  0  0  0  0  0  0  0  0  0  0  0
  -28.4610  -19.2640   20.4850 C   0  0  0  0  0  3  0  0  0  0  0  0
  -28.6530  -17.8530   20.4130 C   0  0  0  0  0  3  0  0  0  0  0  0
  -30.7650  -19.5230   21.1030 C   0  0  0  0  0  3  0  0  0  0  0  0
  -29.5180  -20.1490   20.8060 C   0  0  0  0  0  0  0  0  0  0  0  0
  -29.9120  -17.2210   20.6380 C   0  0  0  0  0  0  0  0  0  0  0  0
  -30.9700  -18.1060   21.0210 C   0  0  0  0  0  0  0  0  0  0  0  0
  -30.7950  -14.7580   20.7690 C   0  0  0  0  0  0  0  0  0  0  0  0
  -30.6830  -12.4280   19.9160 C   0  0  0  0  0  2  0  0  0  0  0  0
  -29.8330  -12.3950   18.6240 C   0  0  0  0  0  2  0  0  0  0  0  0
  -28.3310  -12.2770   18.9500 C   0  0  0  0  0  2  0  0  0  0  0  0
  -27.8600  -13.2220   20.0900 C   0  0  0  0  0  3  0  0  0  0  0  0
  -28.8400  -13.2200   21.2830 C   0  0  0  0  0  2  0  0  0  0  0  0
  -30.1710  -13.5320   20.7520 N   0  0  0  0  0  0  0  0  0  0  0  0
  -32.0280  -14.8150   20.7640 O   0  0  0  0  0  0  0  0  0  0  0  0
  -30.0730  -15.8120   20.2110 N   0  0  0  0  0  0  0  0  0  0  0  0
  -25.4220  -13.8290   20.6080 C   0  0  0  0  0  0  0  0  0  0  0  0
  -24.3320  -13.0600   20.9080 C   0  0  0  0  0  0  0  0  0  0  0  0
  -24.8030  -11.7120   20.9600 C   0  0  0  0  0  0  0  0  0  0  0  0
  -26.4850  -12.9470   20.4890 N   0  0  0  0  0  0  0  0  0  0  0  0
  -26.1140  -11.6720   20.7670 N   0  0  0  0  0  0  0  0  0  0  0  0
  -24.0700  -10.4500   21.1260 C   0  0  0  0  0  0  0  0  0  0  0  0
  -24.4590   -9.4910   22.0870 C   0  0  0  0  0  3  0  0  0  0  0  0
  -23.7260   -8.2950   22.2410 C   0  0  0  0  0  3  0  0  0  0  0  0
  -22.5910   -8.0490   21.4330 C   0  0  0  0  0  0  0  0  0  0  0  0
  -22.2210   -8.9980   20.4630 C   0  0  0  0  0  3  0  0  0  0  0  0
  -22.9550  -10.1860   20.3070 C   0  0  0  0  0  3  0  0  0  0  0  0
  -21.8350   -6.9040   21.4950 O   0  0  0  0  0  0  0  0  0  0  0  0
  -21.7590   -6.1540   22.6410 C   0  0  0  0  0  0  0  0  0  0  0  0
  -21.3170   -6.7040   23.8640 C   0  0  0  0  0  3  0  0  0  0  0  0
  -21.1860   -5.8810   24.9990 C   0  0  0  0  0  3  0  0  0  0  0  0
  -21.4890   -4.5090   24.9150 C   0  0  0  0  0  0  0  0  0  0  0  0
  -21.9270   -3.9590   23.6970 C   0  0  0  0  0  3  0  0  0  0  0  0
  -22.0580   -4.7790   22.5620 C   0  0  0  0  0  0  0  0  0  0  0  0
  -22.4570   -4.2400   21.3860 F   0  0  0  0  0  0  0  0  0  0  0  0
  -21.3600   -3.7170   26.0030 F   0  0  0  0  0  0  0  0  0  0  0  0
  -22.9150  -13.5340   21.0490 C   0  0  0  0  0  0  0  0  0  0  0  0
  -22.1270  -12.8680   21.8870 N   0  0  0  0  0  0  0  0  0  0  0  0
  -22.5130  -14.5330   20.4530 O   0  0  0  0  0  0  0  0  0  0  0  0
  -22.4650  -12.0610   22.3880 H   0  0  0  0  0  0  0  0  0  0  0  0
  -21.1750  -13.1720   22.0310 H   0  0  0  0  0  0  0  0  0  0  0  0
  -25.5970  -15.1930   20.4020 N   0  0  0  0  0  0  0  0  0  0  0  0
  -24.8260  -15.8520   20.4290 H   0  0  0  0  0  0  0  0  0  0  0  0
  -26.4850  -15.6280   20.1980 H   0  0  0  0  0  0  0  0  0  0  0  0
  -30.9160  -15.8870   17.9180 C   0  0  0  0  0  2  0  0  0  0  0  0
  -29.9160  -15.7720   18.8130 C   0  0  0  0  0  3  0  0  0  0  0  0
  -32.2490  -17.6090   21.2670 N   0  0  0  0  0  0  0  0  0  0  0  0
  -32.4350  -16.6430   20.9830 H   0  0  0  0  0  0  0  0  0  0  0  0
  -33.0460  -18.2220   21.1320 H   0  0  0  0  0  0  0  0  0  0  0  0
  -29.8000  -21.8770   23.1880 O   0  0  0  0  0  0  0  0  0  0  0  0
  -29.7700  -22.5730   23.8360 H   0  0  0  0  0  0  0  0  0  0  0  0
  -28.7180  -22.0440   18.5910 O   0  0  0  0  0  0  0  0  0  0  0  0
  -28.3850  -22.7560   18.0570 H   0  0  0  0  0  0  0  0  0  0  0  0
  -28.5190  -25.1470   19.4780 C   0  0  0  0  0  2  0  0  0  0  0  0
  -28.4040  -26.4730   20.1400 O   0  0  0  0  0  0  0  0  0  0  0  0
  -24.6250  -31.8360   23.1310 C   0  0  0  0  0  0  0  0  0  0  0  0
  -27.2590  -27.2920   20.0550 C   0  0  0  0  0  0  0  0  0  0  0  0
  -23.4250  -30.4400   21.4850 C   0  0  0  0  0  3  0  0  0  0  0  0
  -24.8800  -28.8980   20.0520 C   0  0  0  0  0  0  0  0  0  0  0  0
  -25.9620  -30.7670   21.3010 C   0  0  0  0  0  2  0  0  0  0  0  0
  -26.0450  -29.3890   20.6520 C   0  0  0  0  0  0  0  0  0  0  0  0
  -27.2310  -28.5950   20.6470 C   0  0  0  0  0  3  0  0  0  0  0  0
  -26.0600  -26.8540   19.4400 C   0  0  0  0  0  3  0  0  0  0  0  0
  -24.8900  -27.6370   19.4380 C   0  0  0  0  0  3  0  0  0  0  0  0
  -23.6400  -29.7670   20.1030 C   0  0  0  0  0  2  0  0  0  0  0  0
  -24.6900  -31.0330   22.0290 N   0  0  0  0  0  0  0  0  0  0  0  0
  -23.5410  -32.1050   23.6690 O   0  0  0  0  0  0  0  0  0  0  0  0
  -22.7660  -29.4190   22.4420 C   0  0  0  0  0  0  0  0  0  0  0  0
  -21.4350  -29.2590   22.3340 N   0  0  0  0  0  0  0  0  0  0  0  0
  -23.4500  -28.7730   23.2410 O   0  0  0  0  0  0  0  0  0  0  0  0
  -20.9450  -29.8330   21.6630 H   0  0  0  0  0  0  0  0  0  0  0  0
  -18.0490  -28.1160   22.8890 C   0  0  0  0  0  0  0  0  0  0  0  0
  -20.6170  -28.3230   23.1040 C   0  0  0  0  0  3  0  0  0  0  0  0
  -20.6780  -26.9010   22.4980 C   0  0  0  0  0  2  0  0  0  0  0  0
  -19.5470  -26.6210   21.5040 C   0  0  0  0  0  2  0  0  0  0  0  0
  -18.1830  -26.7780   22.1810 C   0  0  0  0  0  2  0  0  0  0  0  0
  -19.1900  -28.8480   23.3060 C   0  0  0  0  0  0  0  0  0  0  0  0
  -19.0090  -30.1040   23.9270 C   0  0  0  0  0  3  0  0  0  0  0  0
  -17.7190  -30.6250   24.1340 C   0  0  0  0  0  3  0  0  0  0  0  0
  -16.5900  -29.8900   23.7290 C   0  0  0  0  0  3  0  0  0  0  0  0
  -16.7570  -28.6370   23.1130 C   0  0  0  0  0  3  0  0  0  0  0  0
  -25.9060  -32.4690   23.7550 C   0  0  0  0  0  3  0  0  0  0  0  0
  -25.5860  -33.8580   24.1130 N   0  0  0  0  0  0  0  0  0  0  0  0
  -25.9250  -34.9300   23.3830 C   0  0  0  0  0  0  0  0  0  0  0  0
  -26.6070  -34.8540   22.3580 O   0  0  0  0  0  0  0  0  0  0  0  0
  -24.9850  -33.9900   24.9130 H   0  0  0  0  0  0  0  0  0  0  0  0
  -24.1950  -36.7240   23.0450 C   0  0  0  0  0  1  0  0  0  0  0  0
  -25.4240  -36.3060   23.8670 C   0  0  0  0  0  3  0  0  0  0  0  0
  -27.5430  -37.1730   24.7520 C   0  0  0  0  0  1  0  0  0  0  0  0
  -26.4540  -37.3650   23.7970 N   0  0  0  0  0  0  0  0  0  0  0  0
  -26.0410  -38.2790   23.9670 H   0  0  0  0  0  0  0  0  0  0  0  0
  -26.4380  -31.6810   25.0160 C   0  0  1  0  0  0  0  0  0  0  0  0
  -25.3570  -31.4260   26.0920 C   0  0  0  0  0  1  0  0  0  0  0  0
  -27.0190  -30.3110   24.5950 C   0  0  0  0  0  1  0  0  0  0  0  0
  -27.5920  -32.4690   25.6780 C   0  0  0  0  0  1  0  0  0  0  0  0
  1  3  2  0
  2  1  1  0
  3 54  1  0
  4  2  2  0
  4  5  1  0
  5  3  1  0
  6  9  1  0
  7  6  2  0
  7 10  1  0
  9  5  1  0
  9  8  2  0
 10 11  2  0
 11  8  1  0
 11 51  1  0
 13 18  1  0
 14 15  1  0
 14 13  1  0
 16 15  1  0
 16 24  1  0
 16 17  1  0
 18 12  1  0
 18 17  1  0
 19 12  2  0
 20 10  1  0
 20 12  1  0
 21 22  2  0
 22 23  1  0
 22 41  1  0
 23 26  1  0
 24 21  1  0
 24 25  1  0
 25 23  2  0
 26 27  1  0
 27 28  2  0
 29 32  1  0
 29 28  1  0
 30 29  2  0
 31 30  1  0
 31 26  2  0
 32 33  1  0
 33 34  1  0
 34 35  2  0
 36 35  1  0
 36 40  1  0
 37 36  2  0
 38 33  2  0
 38 37  1  0
 39 38  1  0
 41 42  1  0
 42 45  1  0
 42 44  1  0
 43 41  2  0
 46 47  1  0
 46 21  1  0
 48 46  1  0
 49 50  2  0
 50 20  1  0
 52 51  1  0
 53 51  1  0
 54 55  1  0
 56  4  1  0
 57 56  1  0
 58 59  1  0
 58  2  1  0
 60 71  2  0
 61 59  1  0
 61 66  1  0
 62 70  1  0
 62 72  1  0
 63 69  1  0
 63 65  1  0
 64 70  1  0
 65 64  1  0
 66 65  2  0
 67 61  2  0
 68 67  1  0
 68 63  2  0
 69 62  1  0
 70 60  1  0
 72 74  2  0
 73 72  1  0
 75 73  1  0
 76 85  2  0
 76 81  1  0
 77 73  1  0
 77 81  1  0
 78 77  1  0
 79 80  1  0
 79 78  1  0
 80 76  1  0
 81 82  2  0
 82 83  1  0
 84 83  2  0
 85 84  1  0
 86 60  1  0
 86 87  1  0
 86 96  1  0
 87 90  1  0
 88 92  1  0
 88 87  1  0
 89 88  2  0
 92 91  1  0
 94 92  1  0
 94 95  1  0
 94 93  1  0
 96 99  1  1
 96 97  1  0
 98 96  1  0
M  ISO  4  12 100  20 100  58 101  59 101
M  END
>  <TORSDO>  (7) 
F 22

>  <SCORE>  (7) 
-13.301

>  <name>  (7) 
6

>  <ligand_id>  (7) 
6

>  <original_smiles>  (7) 
[H]Oc1c([H])c(C([H])([H])Oc2c([H])c([H])c3c(c2[H])C([H])([H])N(C(=O)C([H])(N([H])C(=O)C([H])(N([H])C([H])([H])[H])C([H])([H])[H])C(C([H])([H])[H])(C([H])([H])[H])C([H])([H])[H])C([H])(C(=O)N([H])C2([H])c4c([H])c([H])c([H])c([H])c4C([H])([H])C([H])([H])C2([H])[H])C3([H])[H])c(O[H])n1-c1c([H])c([H])c(N(C(=O)N2C([H])([H])C([H])([H])C([H])([H])C([H])(n3nc(-c4c([H])c([H])c(Oc5c([H])c([H])c(F)c([H])c5F)c([H])c4[H])c(C(=O)N([H])[H])c3N([H])[H])C2([H])[H])C([H])=C([H])[H])c(N([H])[H])c1[H]

>  <smiles>  (7) 
[H]Oc1c([H])c(C([H])([H])Oc2c([H])c([H])c3c(c2[H])C([H])([H])N(C(=O)C([H])(N([H])C(=O)C([H])(N([H])C([H])([H])[H])C([H])([H])[H])C(C([H])([H])[H])(C([H])([H])[H])C([H])([H])[H])C([H])(C(=O)N([H])C2([H])c4c([H])c([H])c([H])c([H])c4C([H])([H])C([H])([H])C2([H])[H])C3([H])[H])c(O[H])n1-c1c([H])c([H])c(N(C(=O)N2C([H])([H])C([H])([H])C([H])([H])C([H])(n3nc(-c4c([H])c([H])c(Oc5c([H])c([H])c(F)c([H])c5F)c([H])c4[H])c(C(=O)N([H])[H])c3N([H])[H])C2([H])[H])C([H])=C([H])[H])c(N([H])[H])c1[H]

$$$$
7:0:0
     RDKit          3D

 92100  0  0  1  0  0  0  0  0999 V2000
  -30.1270  -19.2920   21.3510 C   0  0  0  0  0  3  0  0  0  0  0  0
  -29.9300  -20.7560   21.3340 C   0  0  0  0  0  3  0  0  0  0  0  0
  -28.8450  -19.1370   19.4380 C   0  0  0  0  0  3  0  0  0  0  0  0
  -29.6010  -18.3340   20.3990 C   0  0  0  0  0  0  0  0  0  0  0  0
  -29.1500  -21.5590   20.3970 C   0  0  0  0  0  0  0  0  0  0  0  0
  -28.6360  -20.6110   19.4110 C   0  0  0  0  0  0  0  0  0  0  0  0
  -29.4510  -16.6650   20.5840 C   0  0  0  0  0  0  0  0  0  0  0  0
  -28.3170  -16.4330   21.0940 N   0  0  0  0  0  0  0  0  0  0  0  0
  -27.8370  -17.3040   21.2890 H   0  0  0  0  0  0  0  0  0  0  0  0
  -30.4210  -15.2530   20.2370 C   0  0  0  0  0  0  0  0  0  0  0  0
  -30.3950  -12.8590   19.2810 C   0  0  0  0  0  2  0  0  0  0  0  0
  -29.4220  -12.7370   18.0770 C   0  0  0  0  0  2  0  0  0  0  0  0
  -27.9840  -12.4520   18.5520 C   0  0  0  0  0  2  0  0  0  0  0  0
  -27.5800  -13.3740   19.7270 C   0  0  0  0  0  3  0  0  0  0  0  0
  -28.6670  -13.3980   20.8230 C   0  0  0  0  0  2  0  0  0  0  0  0
  -29.8940  -13.9340   20.2020 N   0  0  0  0  0  0  0  0  0  0  0  0
  -31.6120  -15.3340   19.8950 O   0  0  0  0  0  0  0  0  0  0  0  0
  -25.2240  -13.9370   20.5400 C   0  0  0  0  0  0  0  0  0  0  0  0
  -24.1660  -13.1540   20.9110 C   0  0  0  0  0  0  0  0  0  0  0  0
  -24.6310  -11.8040   20.8490 C   0  0  0  0  0  0  0  0  0  0  0  0
  -26.2600  -13.0620   20.2580 N   0  0  0  0  0  0  0  0  0  0  0  0
  -25.9150  -11.7730   20.5100 N   0  0  0  0  0  0  0  0  0  0  0  0
  -23.9090  -10.5410   21.0410 C   0  0  0  0  0  0  0  0  0  0  0  0
  -24.3600   -9.5650   21.9590 C   0  0  0  0  0  3  0  0  0  0  0  0
  -23.6370   -8.3660   22.1390 C   0  0  0  0  0  3  0  0  0  0  0  0
  -22.4540   -8.1330   21.4000 C   0  0  0  0  0  0  0  0  0  0  0  0
  -22.0210   -9.0960   20.4730 C   0  0  0  0  0  3  0  0  0  0  0  0
  -22.7420  -10.2880   20.2910 C   0  0  0  0  0  3  0  0  0  0  0  0
  -21.7050   -6.9820   21.4870 O   0  0  0  0  0  0  0  0  0  0  0  0
  -21.6600   -6.2380   22.6390 C   0  0  0  0  0  0  0  0  0  0  0  0
  -21.2180   -6.7860   23.8620 C   0  0  0  0  0  3  0  0  0  0  0  0
  -21.1220   -5.9700   25.0050 C   0  0  0  0  0  3  0  0  0  0  0  0
  -21.4580   -4.6040   24.9270 C   0  0  0  0  0  0  0  0  0  0  0  0
  -21.8930   -4.0540   23.7070 C   0  0  0  0  0  3  0  0  0  0  0  0
  -21.9910   -4.8690   22.5650 C   0  0  0  0  0  0  0  0  0  0  0  0
  -22.3920   -4.3310   21.3880 F   0  0  0  0  0  0  0  0  0  0  0  0
  -21.3570   -3.8170   26.0220 F   0  0  0  0  0  0  0  0  0  0  0  0
  -22.7770  -13.6300   21.2210 C   0  0  0  0  0  0  0  0  0  0  0  0
  -22.0740  -12.9260   22.0990 N   0  0  0  0  0  0  0  0  0  0  0  0
  -22.3250  -14.6590   20.7230 O   0  0  0  0  0  0  0  0  0  0  0  0
  -22.4530  -12.0930   22.5260 H   0  0  0  0  0  0  0  0  0  0  0  0
  -21.1460  -13.2300   22.3570 H   0  0  0  0  0  0  0  0  0  0  0  0
  -25.3900  -15.3100   20.4000 N   0  0  0  0  0  0  0  0  0  0  0  0
  -24.6690  -15.9710   20.6670 H   0  0  0  0  0  0  0  0  0  0  0  0
  -26.3200  -15.7220   20.3650 H   0  0  0  0  0  0  0  0  0  0  0  0
  -27.8760  -21.0920   18.3370 N   0  0  0  0  0  0  0  0  0  0  0  0
  -27.5410  -20.4320   17.6360 H   0  0  0  0  0  0  0  0  0  0  0  0
  -28.0960  -21.9970   17.9280 H   0  0  0  0  0  0  0  0  0  0  0  0
  -29.1090  -23.2520   20.5290 C   0  0  0  0  0  0  0  0  0  0  0  0
  -30.1020  -23.7370   21.0880 O   0  0  0  0  0  0  0  0  0  0  0  0
  -27.9810  -24.4660   20.1160 C   0  0  0  0  0  2  0  0  0  0  0  0
  -28.2270  -26.0520   20.3230 O   0  0  0  0  0  0  0  0  0  0  0  0
  -24.6300  -31.9100   23.2610 C   0  0  0  0  0  0  0  0  0  0  0  0
  -27.1940  -27.0970   20.2460 C   0  0  0  0  0  0  0  0  0  0  0  0
  -23.4310  -30.5160   21.6240 C   0  0  0  0  0  3  0  0  0  0  0  0
  -24.8810  -28.9220   20.1990 C   0  0  0  0  0  0  0  0  0  0  0  0
  -25.9920  -30.7460   21.4680 C   0  0  0  0  0  2  0  0  0  0  0  0
  -26.0640  -29.3410   20.8190 C   0  0  0  0  0  0  0  0  0  0  0  0
  -27.2160  -28.4480   20.8230 C   0  0  0  0  0  3  0  0  0  0  0  0
  -25.9850  -26.8060   19.5780 C   0  0  0  0  0  3  0  0  0  0  0  0
  -24.8640  -27.6730   19.5540 C   0  0  0  0  0  3  0  0  0  0  0  0
  -23.6570  -29.8350   20.2460 C   0  0  0  0  0  2  0  0  0  0  0  0
  -24.7050  -31.0800   22.1750 N   0  0  0  0  0  0  0  0  0  0  0  0
  -23.5440  -32.1990   23.7860 O   0  0  0  0  0  0  0  0  0  0  0  0
  -22.7440  -29.5160   22.5870 C   0  0  0  0  0  0  0  0  0  0  0  0
  -21.4140  -29.3500   22.4620 N   0  0  0  0  0  0  0  0  0  0  0  0
  -23.4120  -28.8950   23.4170 O   0  0  0  0  0  0  0  0  0  0  0  0
  -20.9280  -29.9040   21.7700 H   0  0  0  0  0  0  0  0  0  0  0  0
  -18.0330  -28.1400   22.9610 C   0  0  0  0  0  0  0  0  0  0  0  0
  -20.5910  -28.4130   23.2340 C   0  0  0  0  0  3  0  0  0  0  0  0
  -20.7000  -26.9800   22.6650 C   0  0  0  0  0  2  0  0  0  0  0  0
  -19.6010  -26.6490   21.6500 C   0  0  0  0  0  2  0  0  0  0  0  0
  -18.2150  -26.7900   22.2870 C   0  0  0  0  0  2  0  0  0  0  0  0
  -19.1480  -28.9090   23.3910 C   0  0  0  0  0  0  0  0  0  0  0  0
  -18.9190  -30.1700   23.9820 C   0  0  0  0  0  3  0  0  0  0  0  0
  -17.6120  -30.6660   24.1460 C   0  0  0  0  0  3  0  0  0  0  0  0
  -16.5140  -29.8950   23.7330 C   0  0  0  0  0  3  0  0  0  0  0  0
  -16.7230  -28.6350   23.1450 C   0  0  0  0  0  3  0  0  0  0  0  0
  -25.9050  -32.5510   23.8870 C   0  0  0  0  0  3  0  0  0  0  0  0
  -26.4100  -31.7890   25.1730 C   0  0  1  0  0  0  0  0  0  0  0  0
  -25.3060  -31.5610   26.2320 C   0  0  0  0  0  1  0  0  0  0  0  0
  -26.9960  -30.4110   24.7990 C   0  0  0  0  0  1  0  0  0  0  0  0
  -27.5580  -32.5890   25.8340 C   0  0  0  0  0  1  0  0  0  0  0  0
  -25.5920  -33.9520   24.2160 N   0  0  0  0  0  0  0  0  0  0  0  0
  -25.9090  -35.0080   23.4530 C   0  0  0  0  0  0  0  0  0  0  0  0
  -26.5620  -34.9040   22.4100 O   0  0  0  0  0  0  0  0  0  0  0  0
  -25.0120  -34.1010   25.0280 H   0  0  0  0  0  0  0  0  0  0  0  0
  -24.1680  -36.7990   23.1430 C   0  0  0  0  0  1  0  0  0  0  0  0
  -25.4340  -36.4000   23.9180 C   0  0  0  0  0  3  0  0  0  0  0  0
  -27.5870  -37.2960   24.6890 C   0  0  0  0  0  1  0  0  0  0  0  0
  -26.4620  -37.4540   23.7730 N   0  0  0  0  0  0  0  0  0  0  0  0
  -26.0560  -38.3720   23.9290 H   0  0  0  0  0  0  0  0  0  0  0  0
  2  1  1  0
  3  4  1  0
  4  7  1  0
  4  1  2  0
  5 49  1  0
  5  2  2  0
  6  3  2  0
  6  5  1  0
  7  8  2  0
  8  9  1  0
 10  7  1  0
 11 16  1  0
 12 13  1  0
 12 11  1  0
 14 13  1  0
 14 21  1  0
 14 15  1  0
 16 10  1  0
 16 15  1  0
 17 10  2  0
 18 19  2  0
 19 38  1  0
 20 19  1  0
 20 23  1  0
 21 22  1  0
 21 18  1  0
 22 20  2  0
 23 24  1  0
 24 25  2  0
 26 29  1  0
 26 25  1  0
 27 26  2  0
 28 27  1  0
 28 23  2  0
 29 30  1  0
 30 31  1  0
 31 32  2  0
 33 32  1  0
 33 37  1  0
 34 33  2  0
 35 30  2  0
 35 34  1  0
 36 35  1  0
 38 39  1  0
 39 42  1  0
 39 41  1  0
 40 38  2  0
 43 18  1  0
 43 44  1  0
 45 43  1  0
 46  6  1  0
 47 46  1  0
 48 46  1  0
 49 50  2  0
 51 52  1  0
 51 49  1  0
 53 64  2  0
 54 52  1  0
 54 59  1  0
 55 63  1  0
 55 65  1  0
 56 62  1  0
 56 58  1  0
 57 63  1  0
 58 59  2  0
 58 57  1  0
 60 54  2  0
 61 60  1  0
 61 56  2  0
 62 55  1  0
 63 53  1  0
 65 67  2  0
 66 65  1  0
 68 66  1  0
 69 78  2  0
 69 74  1  0
 70 66  1  0
 70 74  1  0
 71 70  1  0
 72 73  1  0
 72 71  1  0
 73 69  1  0
 74 75  2  0
 75 76  1  0
 77 76  2  0
 78 77  1  0
 79 53  1  0
 79 84  1  0
 79 80  1  0
 80 83  1  1
 80 81  1  0
 82 80  1  0
 84 87  1  0
 85 89  1  0
 85 84  1  0
 86 85  2  0
 89 88  1  0
 91 89  1  0
 91 92  1  0
 91 90  1  0
M  ISO  4   7 100  10 100  51 101  52 101
M  END
>  <TORSDO>  (8) 
F 20

>  <SCORE>  (8) 
-15.451

>  <name>  (8) 
7

>  <ligand_id>  (8) 
7

>  <original_smiles>  (8) 
[H]N=C(C(=O)N1C([H])([H])C([H])([H])C([H])([H])C([H])(n2nc(-c3c([H])c([H])c(Oc4c([H])c([H])c(F)c([H])c4F)c([H])c3[H])c(C(=O)N([H])[H])c2N([H])[H])C1([H])[H])c1c([H])c([H])c(C(=O)C([H])([H])Oc2c([H])c([H])c3c(c2[H])C([H])([H])N(C(=O)C([H])(N([H])C(=O)C([H])(N([H])C([H])([H])[H])C([H])([H])[H])C(C([H])([H])[H])(C([H])([H])[H])C([H])([H])[H])C([H])(C(=O)N([H])C2([H])c4c([H])c([H])c([H])c([H])c4C([H])([H])C([H])([H])C2([H])[H])C3([H])[H])c(N([H])[H])c1[H]

>  <smiles>  (8) 
[H]N=C(C(=O)N1C([H])([H])C([H])([H])C([H])([H])C([H])(n2nc(-c3c([H])c([H])c(Oc4c([H])c([H])c(F)c([H])c4F)c([H])c3[H])c(C(=O)N([H])[H])c2N([H])[H])C1([H])[H])c1c([H])c([H])c(C(=O)C([H])([H])Oc2c([H])c([H])c3c(c2[H])C([H])([H])N(C(=O)C([H])(N([H])C(=O)C([H])(N([H])C([H])([H])[H])C([H])([H])[H])C(C([H])([H])[H])(C([H])([H])[H])C([H])([H])[H])C([H])(C(=O)N([H])C2([H])c4c([H])c([H])c([H])c([H])c4C([H])([H])C([H])([H])C2([H])[H])C3([H])[H])c(N([H])[H])c1[H]

$$$$
8:0:0
     RDKit          3D

 99108  0  0  1  0  0  0  0  0999 V2000
  -31.5520  -17.7540   21.2710 C   0  0  0  0  0  3  0  0  0  0  0  0
  -29.9130  -20.1010   20.7050 C   0  0  0  0  0  0  0  0  0  0  0  0
  -31.9880  -19.0480   21.5920 C   0  0  0  0  0  0  0  0  0  0  0  0
  -30.2860  -17.5210   20.6960 C   0  0  0  0  0  0  0  0  0  0  0  0
  -31.1950  -20.1920   21.3360 C   0  0  0  0  0  0  0  0  0  0  0  0
  -29.4810  -18.7180   20.4220 C   0  0  0  0  0  0  0  0  0  0  0  0
  -28.2610  -18.5220   19.8680 F   0  0  0  0  0  0  0  0  0  0  0  0
  -30.6130  -14.9350   20.2990 C   0  0  0  0  0  0  0  0  0  0  0  0
  -30.3980  -12.6710   19.2500 C   0  0  0  0  0  2  0  0  0  0  0  0
  -29.4470  -12.7460   18.0370 C   0  0  0  0  0  2  0  0  0  0  0  0
  -27.9850  -12.5520   18.4850 C   0  0  0  0  0  2  0  0  0  0  0  0
  -27.6170  -13.4200   19.7200 C   0  0  0  0  0  3  0  0  0  0  0  0
  -28.6930  -13.3380   20.8240 C   0  0  0  0  0  2  0  0  0  0  0  0
  -29.9710  -13.7170   20.2080 N   0  0  0  0  0  0  0  0  0  0  0  0
  -31.8030  -15.0000   19.9800 O   0  0  0  0  0  0  0  0  0  0  0  0
  -29.8610  -16.0960   20.4940 N   0  0  0  0  0  0  0  0  0  0  0  0
  -28.8650  -15.9470   20.5230 H   0  0  0  0  0  0  0  0  0  0  0  0
  -25.2310  -13.9730   20.4740 C   0  0  0  0  0  0  0  0  0  0  0  0
  -24.1790  -13.1840   20.8520 C   0  0  0  0  0  0  0  0  0  0  0  0
  -24.6620  -11.8400   20.8160 C   0  0  0  0  0  0  0  0  0  0  0  0
  -26.2840  -13.1090   20.2260 N   0  0  0  0  0  0  0  0  0  0  0  0
  -25.9500  -11.8200   20.4960 N   0  0  0  0  0  0  0  0  0  0  0  0
  -23.9530  -10.5680   21.0110 C   0  0  0  0  0  0  0  0  0  0  0  0
  -24.4010   -9.6070   21.9450 C   0  0  0  0  0  3  0  0  0  0  0  0
  -23.6920   -8.4000   22.1270 C   0  0  0  0  0  3  0  0  0  0  0  0
  -22.5220   -8.1440   21.3750 C   0  0  0  0  0  0  0  0  0  0  0  0
  -22.0930   -9.0920   20.4300 C   0  0  0  0  0  3  0  0  0  0  0  0
  -22.8020  -10.2910   20.2460 C   0  0  0  0  0  3  0  0  0  0  0  0
  -21.7830   -6.9890   21.4680 O   0  0  0  0  0  0  0  0  0  0  0  0
  -21.7410   -6.2520   22.6240 C   0  0  0  0  0  0  0  0  0  0  0  0
  -21.3010   -6.8060   23.8450 C   0  0  0  0  0  3  0  0  0  0  0  0
  -21.2080   -5.9940   24.9930 C   0  0  0  0  0  3  0  0  0  0  0  0
  -21.5450   -4.6290   24.9210 C   0  0  0  0  0  0  0  0  0  0  0  0
  -21.9780   -4.0740   23.7040 C   0  0  0  0  0  3  0  0  0  0  0  0
  -22.0720   -4.8830   22.5570 C   0  0  0  0  0  0  0  0  0  0  0  0
  -22.4700   -4.3390   21.3820 F   0  0  0  0  0  0  0  0  0  0  0  0
  -21.4480   -3.8460   26.0210 F   0  0  0  0  0  0  0  0  0  0  0  0
  -22.7780  -13.6420   21.1330 C   0  0  0  0  0  0  0  0  0  0  0  0
  -22.0630  -12.9340   22.0010 N   0  0  0  0  0  0  0  0  0  0  0  0
  -22.3240  -14.6620   20.6170 O   0  0  0  0  0  0  0  0  0  0  0  0
  -22.4420  -12.1090   22.4410 H   0  0  0  0  0  0  0  0  0  0  0  0
  -21.1230  -13.2240   22.2310 H   0  0  0  0  0  0  0  0  0  0  0  0
  -25.3720  -15.3470   20.2960 N   0  0  0  0  0  0  0  0  0  0  0  0
  -24.5910  -15.9840   20.4100 H   0  0  0  0  0  0  0  0  0  0  0  0
  -26.2000  -15.8000   19.9330 H   0  0  0  0  0  0  0  0  0  0  0  0
  -29.4380  -22.6770   20.1960 C   0  0  0  0  0  0  0  0  0  0  0  0
  -27.1330  -22.7860   20.6080 C   0  0  0  0  0  2  0  0  0  0  0  0
  -27.6250  -21.3210   20.4490 C   0  0  0  0  0  2  0  0  0  0  0  0
  -28.2460  -23.7160   20.0890 C   0  0  0  0  0  3  0  0  0  0  0  0
  -29.0860  -21.3500   20.4530 N   0  0  0  0  0  0  0  0  0  0  0  0
  -30.5830  -23.0750   19.9700 O   0  0  0  0  0  0  0  0  0  0  0  0
  -28.2740  -25.1830   20.8230 C   0  0  0  0  0  2  0  0  0  0  0  0
  -28.3620  -26.5440   20.1780 O   0  0  0  0  0  0  0  0  0  0  0  0
  -24.5710  -31.9710   23.2350 C   0  0  0  0  0  0  0  0  0  0  0  0
  -27.2460  -27.4080   20.1930 C   0  0  0  0  0  0  0  0  0  0  0  0
  -23.3930  -30.5640   21.5840 C   0  0  0  0  0  3  0  0  0  0  0  0
  -24.8690  -29.0210   20.1660 C   0  0  0  0  0  0  0  0  0  0  0  0
  -25.9320  -30.9020   21.4150 C   0  0  0  0  0  2  0  0  0  0  0  0
  -26.0320  -29.5190   20.7680 C   0  0  0  0  0  0  0  0  0  0  0  0
  -27.2280  -28.7290   20.7610 C   0  0  0  0  0  3  0  0  0  0  0  0
  -26.0570  -26.9670   19.5800 C   0  0  0  0  0  3  0  0  0  0  0  0
  -24.8860  -27.7530   19.5600 C   0  0  0  0  0  3  0  0  0  0  0  0
  -23.6230  -29.8880   20.2060 C   0  0  0  0  0  2  0  0  0  0  0  0
  -24.6510  -31.1650   22.1360 N   0  0  0  0  0  0  0  0  0  0  0  0
  -23.4810  -32.2360   23.7640 O   0  0  0  0  0  0  0  0  0  0  0  0
  -22.7320  -29.5410   22.5400 C   0  0  0  0  0  0  0  0  0  0  0  0
  -21.4070  -29.3540   22.4070 N   0  0  0  0  0  0  0  0  0  0  0  0
  -23.4110  -28.9190   23.3610 O   0  0  0  0  0  0  0  0  0  0  0  0
  -20.9180  -29.9050   21.7180 H   0  0  0  0  0  0  0  0  0  0  0  0
  -18.0390  -28.1200   22.8880 C   0  0  0  0  0  0  0  0  0  0  0  0
  -20.5940  -28.4040   23.1700 C   0  0  0  0  0  3  0  0  0  0  0  0
  -20.7120  -26.9760   22.5880 C   0  0  0  0  0  2  0  0  0  0  0  0
  -19.6170  -26.6470   21.5680 C   0  0  0  0  0  2  0  0  0  0  0  0
  -18.2310  -26.7770   22.2060 C   0  0  0  0  0  2  0  0  0  0  0  0
  -19.1490  -28.8920   23.3250 C   0  0  0  0  0  0  0  0  0  0  0  0
  -18.9140  -30.1500   23.9220 C   0  0  0  0  0  3  0  0  0  0  0  0
  -17.6030  -30.6360   24.0860 C   0  0  0  0  0  3  0  0  0  0  0  0
  -16.5080  -29.8620   23.6640 C   0  0  0  0  0  3  0  0  0  0  0  0
  -16.7280  -28.6070   23.0700 C   0  0  0  0  0  3  0  0  0  0  0  0
  -25.8410  -32.6170   23.8690 C   0  0  0  0  0  3  0  0  0  0  0  0
  -26.3440  -31.8600   25.1590 C   0  0  1  0  0  0  0  0  0  0  0  0
  -25.2380  -31.6240   26.2140 C   0  0  0  0  0  1  0  0  0  0  0  0
  -26.9410  -30.4830   24.7870 C   0  0  0  0  0  1  0  0  0  0  0  0
  -27.4820  -32.6670   25.8300 C   0  0  0  0  0  1  0  0  0  0  0  0
  -25.5190  -34.0170   24.1850 N   0  0  0  0  0  0  0  0  0  0  0  0
  -25.8580  -35.0680   23.4260 C   0  0  0  0  0  0  0  0  0  0  0  0
  -26.5430  -34.9620   22.4050 O   0  0  0  0  0  0  0  0  0  0  0  0
  -24.9120  -34.1730   24.9770 H   0  0  0  0  0  0  0  0  0  0  0  0
  -24.1310  -36.8550   23.0330 C   0  0  0  0  0  1  0  0  0  0  0  0
  -25.3590  -36.4570   23.8680 C   0  0  0  0  0  3  0  0  0  0  0  0
  -27.4750  -37.3540   24.7340 C   0  0  0  0  0  1  0  0  0  0  0  0
  -26.3910  -37.5130   23.7680 N   0  0  0  0  0  0  0  0  0  0  0  0
  -25.9800  -38.4320   23.9010 H   0  0  0  0  0  0  0  0  0  0  0  0
  -33.2250  -19.2090   22.2250 N   0  0  0  0  0  0  0  0  0  0  0  0
  -33.5940  -18.3900   22.6950 H   0  0  0  0  0  0  0  0  0  0  0  0
  -33.2540  -20.0190   22.8340 H   0  0  0  0  0  0  0  0  0  0  0  0
  -31.7570  -21.3900   21.7820 N   0  0  0  0  0  0  0  0  0  0  0  0
  -31.4690  -22.1960   21.2230 H   0  0  0  0  0  0  0  0  0  0  0  0
  -32.7700  -21.3300   21.7960 H   0  0  0  0  0  0  0  0  0  0  0  0
  1  3  1  0
  2  5  1  0
  3 94  1  0
  4  1  2  0
  5  3  2  0
  5 97  1  0
  6  4  1  0
  6  2  2  0
  7  6  1  0
  8 16  1  0
  9 14  1  0
 10 11  1  0
 10  9  1  0
 12 11  1  0
 12 21  1  0
 12 13  1  0
 14  8  1  0
 14 13  1  0
 15  8  2  0
 16 17  1  0
 16  4  1  0
 18 19  2  0
 19 38  1  0
 20 19  1  0
 20 23  1  0
 21 18  1  0
 21 22  1  0
 22 20  2  0
 23 24  1  0
 24 25  2  0
 26 29  1  0
 26 25  1  0
 27 26  2  0
 28 27  1  0
 28 23  2  0
 29 30  1  0
 30 31  1  0
 31 32  2  0
 33 32  1  0
 33 37  1  0
 34 33  2  0
 35 30  2  0
 35 34  1  0
 36 35  1  0
 38 39  1  0
 39 42  1  0
 39 41  1  0
 40 38  2  0
 43 44  1  0
 43 18  1  0
 45 43  1  0
 46 50  1  0
 48 50  1  0
 48 47  1  0
 49 46  1  0
 49 47  1  0
 49 52  1  0
 50  2  1  0
 51 46  2  0
 53 55  1  0
 53 52  1  0
 54 65  2  0
 55 60  1  0
 56 64  1  0
 56 66  1  0
 57 63  1  0
 57 59  1  0
 58 64  1  0
 59 58  1  0
 60 59  2  0
 61 55  2  0
 62 61  1  0
 62 57  2  0
 63 56  1  0
 64 54  1  0
 66 68  2  0
 67 66  1  0
 69 67  1  0
 70 79  2  0
 70 75  1  0
 71 67  1  0
 71 75  1  0
 72 71  1  0
 73 74  1  0
 73 72  1  0
 74 70  1  0
 75 76  2  0
 76 77  1  0
 78 77  2  0
 79 78  1  0
 80 54  1  0
 80 85  1  0
 80 81  1  0
 81 84  1  1
 81 82  1  0
 83 81  1  0
 85 88  1  0
 86 90  1  0
 86 85  1  0
 87 86  2  0
 90 89  1  0
 92 90  1  0
 92 93  1  0
 92 91  1  0
 94 95  1  0
 94 96  1  0
 97 99  1  0
 98 97  1  0
M  ISO  4   8 100  16 100  52 101  53 101
M  END
>  <TORSDO>  (9) 
F 20

>  <SCORE>  (9) 
-14.492

>  <name>  (9) 
8

>  <ligand_id>  (9) 
8

>  <original_smiles>  (9) 
[H]c1c([H])c([H])c2c(c1[H])C([H])([H])C([H])([H])C([H])([H])C2([H])N([H])C(=O)C1([H])N(C(=O)C([H])(N([H])C(=O)C([H])(N([H])C([H])([H])[H])C([H])([H])[H])C(C([H])([H])[H])(C([H])([H])[H])C([H])([H])[H])C([H])([H])c2c([H])c(OC([H])([H])C3([H])C(=O)N(c4c(F)c(N([H])C(=O)N5C([H])([H])C([H])([H])C([H])([H])C([H])(n6nc(-c7c([H])c([H])c(Oc8c([H])c([H])c(F)c([H])c8F)c([H])c7[H])c(C(=O)N([H])[H])c6N([H])[H])C5([H])[H])c([H])c(N([H])[H])c4N([H])[H])C([H])([H])C3([H])[H])c([H])c([H])c2C1([H])[H]

>  <smiles>  (9) 
[H]c1c([H])c([H])c2c(c1[H])C([H])([H])C([H])([H])C([H])([H])C2([H])N([H])C(=O)C1([H])N(C(=O)C([H])(N([H])C(=O)C([H])(N([H])C([H])([H])[H])C([H])([H])[H])C(C([H])([H])[H])(C([H])([H])[H])C([H])([H])[H])C([H])([H])c2c([H])c(OC([H])([H])C3([H])C(=O)N(c4c(F)c(N([H])C(=O)N5C([H])([H])C([H])([H])C([H])([H])C([H])(n6nc(-c7c([H])c([H])c(Oc8c([H])c([H])c(F)c([H])c8F)c([H])c7[H])c(C(=O)N([H])[H])c6N([H])[H])C5([H])[H])c([H])c(N([H])[H])c4N([H])[H])C([H])([H])C3([H])[H])c([H])c([H])c2C1([H])[H]

$$$$
9:0:0
     RDKit          3D

 96105  0  0  1  0  0  0  0  0999 V2000
  -30.6400  -22.0690   22.1480 C   0  0  0  0  0  0  0  0  0  0  0  0
  -30.9580  -23.5720   22.1990 C   0  0  0  0  0  2  0  0  0  0  0  0
  -29.7670  -24.4700   21.8610 C   0  0  0  0  0  2  0  0  0  0  0  0
  -28.8490  -22.5180   20.5100 C   0  0  0  0  0  2  0  0  0  0  0  0
  -29.1940  -24.0820   20.4990 C   0  0  0  0  0  3  0  0  0  0  0  0
  -29.8350  -21.5770   21.1630 N   0  0  0  0  0  0  0  0  0  0  0  0
  -31.1630  -21.3620   23.0170 O   0  0  0  0  0  0  0  0  0  0  0  0
  -28.6520  -19.3310   20.8140 C   0  0  0  0  0  3  0  0  0  0  0  0
  -28.7080  -17.9210   20.5890 C   0  0  0  0  0  3  0  0  0  0  0  0
  -31.0510  -19.3980   20.7720 C   0  0  0  0  0  3  0  0  0  0  0  0
  -29.8300  -20.1180   20.9140 C   0  0  0  0  0  0  0  0  0  0  0  0
  -29.9320  -17.2040   20.4340 C   0  0  0  0  0  0  0  0  0  0  0  0
  -31.1140  -17.9970   20.5300 C   0  0  0  0  0  0  0  0  0  0  0  0
  -30.6070  -14.7150   20.3030 C   0  0  0  0  0  0  0  0  0  0  0  0
  -30.3630  -12.4240   19.3850 C   0  0  0  0  0  2  0  0  0  0  0  0
  -29.4410  -12.4540   18.1480 C   0  0  0  0  0  2  0  0  0  0  0  0
  -27.9620  -12.3420   18.5690 C   0  0  0  0  0  2  0  0  0  0  0  0
  -27.5770  -13.2580   19.7670 C   0  0  0  0  0  3  0  0  0  0  0  0
  -28.6340  -13.2180   20.8900 C   0  0  0  0  0  2  0  0  0  0  0  0
  -29.9320  -13.5200   20.2740 N   0  0  0  0  0  0  0  0  0  0  0  0
  -31.8340  -14.7180   20.1750 O   0  0  0  0  0  0  0  0  0  0  0  0
  -29.7180  -15.9040   18.4220 C   0  0  0  0  0  1  0  0  0  0  0  0
  -29.9010  -15.8380   19.8860 N   0  0  0  0  0  0  0  0  0  0  0  0
  -25.1780  -13.8510   20.4550 C   0  0  0  0  0  0  0  0  0  0  0  0
  -24.1090  -13.0770   20.8140 C   0  0  0  0  0  0  0  0  0  0  0  0
  -24.5790  -11.7280   20.8120 C   0  0  0  0  0  0  0  0  0  0  0  0
  -26.2320  -12.9730   20.2550 N   0  0  0  0  0  0  0  0  0  0  0  0
  -25.8770  -11.6920   20.5320 N   0  0  0  0  0  0  0  0  0  0  0  0
  -23.8570  -10.4640   21.0080 C   0  0  0  0  0  0  0  0  0  0  0  0
  -24.2890   -9.5070   21.9520 C   0  0  0  0  0  3  0  0  0  0  0  0
  -23.5670   -8.3080   22.1370 C   0  0  0  0  0  3  0  0  0  0  0  0
  -22.3990   -8.0590   21.3770 C   0  0  0  0  0  0  0  0  0  0  0  0
  -21.9880   -9.0050   20.4220 C   0  0  0  0  0  3  0  0  0  0  0  0
  -22.7100  -10.1960   20.2370 C   0  0  0  0  0  3  0  0  0  0  0  0
  -21.6490   -6.9110   21.4690 O   0  0  0  0  0  0  0  0  0  0  0  0
  -21.6010   -6.1750   22.6260 C   0  0  0  0  0  0  0  0  0  0  0  0
  -21.1720   -6.7360   23.8480 C   0  0  0  0  0  3  0  0  0  0  0  0
  -21.0700   -5.9280   24.9970 C   0  0  0  0  0  3  0  0  0  0  0  0
  -21.3890   -4.5580   24.9240 C   0  0  0  0  0  0  0  0  0  0  0  0
  -21.8120   -3.9960   23.7060 C   0  0  0  0  0  3  0  0  0  0  0  0
  -21.9140   -4.8020   22.5600 C   0  0  0  0  0  0  0  0  0  0  0  0
  -22.3010   -4.2530   21.3840 F   0  0  0  0  0  0  0  0  0  0  0  0
  -21.2850   -3.7770   26.0240 F   0  0  0  0  0  0  0  0  0  0  0  0
  -22.7070  -13.5510   21.0550 C   0  0  0  0  0  0  0  0  0  0  0  0
  -21.9690  -12.8670   21.9230 N   0  0  0  0  0  0  0  0  0  0  0  0
  -22.2720  -14.5650   20.5090 O   0  0  0  0  0  0  0  0  0  0  0  0
  -22.3290  -12.0430   22.3840 H   0  0  0  0  0  0  0  0  0  0  0  0
  -21.0290  -13.1710   22.1320 H   0  0  0  0  0  0  0  0  0  0  0  0
  -25.3340  -15.2190   20.2590 N   0  0  0  0  0  0  0  0  0  0  0  0
  -24.5530  -15.8610   20.3280 H   0  0  0  0  0  0  0  0  0  0  0  0
  -26.1920  -15.6690   19.9640 H   0  0  0  0  0  0  0  0  0  0  0  0
  -32.3770  -17.4480   20.3070 N   0  0  0  0  0  0  0  0  0  0  0  0
  -32.4450  -16.4280   20.2730 H   0  0  0  0  0  0  0  0  0  0  0  0
  -33.2040  -17.9050   20.6760 H   0  0  0  0  0  0  0  0  0  0  0  0
  -28.0280  -25.0690   20.0770 C   0  0  0  0  0  2  0  0  0  0  0  0
  -28.2570  -26.5270   20.1340 O   0  0  0  0  0  0  0  0  0  0  0  0
  -24.5500  -31.8790   23.2090 C   0  0  0  0  0  0  0  0  0  0  0  0
  -27.1280  -27.3580   20.0940 C   0  0  0  0  0  0  0  0  0  0  0  0
  -23.3240  -30.4900   21.5760 C   0  0  0  0  0  3  0  0  0  0  0  0
  -24.7550  -28.9510   20.1230 C   0  0  0  0  0  0  0  0  0  0  0  0
  -25.8590  -30.8180   21.3580 C   0  0  0  0  0  2  0  0  0  0  0  0
  -25.9300  -29.4450   20.7040 C   0  0  0  0  0  0  0  0  0  0  0  0
  -27.1190  -28.6600   20.6750 C   0  0  0  0  0  3  0  0  0  0  0  0
  -25.9270  -26.9160   19.4870 C   0  0  0  0  0  3  0  0  0  0  0  0
  -24.7550  -27.6920   19.5050 C   0  0  0  0  0  3  0  0  0  0  0  0
  -23.5170  -29.8180   20.1910 C   0  0  0  0  0  2  0  0  0  0  0  0
  -24.5980  -31.0780   22.1050 N   0  0  0  0  0  0  0  0  0  0  0  0
  -23.4720  -32.1520   23.7600 O   0  0  0  0  0  0  0  0  0  0  0  0
  -22.6740  -29.4690   22.5400 C   0  0  0  0  0  0  0  0  0  0  0  0
  -21.3460  -29.2900   22.4240 N   0  0  0  0  0  0  0  0  0  0  0  0
  -23.3620  -28.8390   23.3470 O   0  0  0  0  0  0  0  0  0  0  0  0
  -20.8510  -29.8500   21.7450 H   0  0  0  0  0  0  0  0  0  0  0  0
  -17.9740  -28.0930   22.9470 C   0  0  0  0  0  0  0  0  0  0  0  0
  -20.5340  -28.3500   23.1990 C   0  0  0  0  0  3  0  0  0  0  0  0
  -20.6320  -26.9200   22.6170 C   0  0  0  0  0  2  0  0  0  0  0  0
  -19.5230  -26.6020   21.6110 C   0  0  0  0  0  2  0  0  0  0  0  0
  -18.1450  -26.7450   22.2640 C   0  0  0  0  0  2  0  0  0  0  0  0
  -19.0950  -28.8530   23.3710 C   0  0  0  0  0  0  0  0  0  0  0  0
  -18.8800  -30.1150   23.9660 C   0  0  0  0  0  3  0  0  0  0  0  0
  -17.5770  -30.6170   24.1410 C   0  0  0  0  0  3  0  0  0  0  0  0
  -16.4690  -29.8520   23.7340 C   0  0  0  0  0  3  0  0  0  0  0  0
  -16.6690  -28.5910   23.1440 C   0  0  0  0  0  3  0  0  0  0  0  0
  -25.8400  -32.5050   23.8210 C   0  0  0  0  0  3  0  0  0  0  0  0
  -26.3680  -31.7270   25.0870 C   0  0  1  0  0  0  0  0  0  0  0  0
  -25.2860  -31.4850   26.1650 C   0  0  0  0  0  1  0  0  0  0  0  0
  -26.9410  -30.3520   24.6790 C   0  0  0  0  0  1  0  0  0  0  0  0
  -27.5300  -32.5130   25.7370 C   0  0  0  0  0  1  0  0  0  0  0  0
  -25.5400  -33.9040   24.1620 N   0  0  0  0  0  0  0  0  0  0  0  0
  -25.8730  -34.9580   23.4070 C   0  0  0  0  0  0  0  0  0  0  0  0
  -26.5350  -34.8560   22.3700 O   0  0  0  0  0  0  0  0  0  0  0  0
  -24.9570  -34.0560   24.9710 H   0  0  0  0  0  0  0  0  0  0  0  0
  -24.1540  -36.7580   23.0660 C   0  0  0  0  0  1  0  0  0  0  0  0
  -25.3940  -36.3460   23.8750 C   0  0  0  0  0  3  0  0  0  0  0  0
  -27.5340  -37.2080   24.7130 C   0  0  0  0  0  1  0  0  0  0  0  0
  -26.4330  -37.3930   23.7700 N   0  0  0  0  0  0  0  0  0  0  0  0
  -26.0360  -38.3150   23.9240 H   0  0  0  0  0  0  0  0  0  0  0  0
  1  2  1  0
  1  7  2  0
  3  2  1  0
  4  6  1  0
  5 55  1  0
  5  4  1  0
  5  3  1  0
  6  1  1  0
  8 11  1  0
  9  8  2  0
 10 11  2  0
 11  6  1  0
 12 13  2  0
 12  9  1  0
 13 10  1  0
 15 20  1  0
 16 17  1  0
 16 15  1  0
 18 17  1  0
 18 27  1  0
 18 19  1  0
 20 14  1  0
 20 19  1  0
 21 14  2  0
 22 23  1  0
 23 14  1  0
 23 12  1  0
 24 25  2  0
 25 44  1  0
 26 25  1  0
 26 29  1  0
 27 24  1  0
 27 28  1  0
 28 26  2  0
 29 30  1  0
 30 31  2  0
 32 35  1  0
 32 31  1  0
 33 32  2  0
 34 33  1  0
 34 29  2  0
 35 36  1  0
 36 37  1  0
 37 38  2  0
 39 38  1  0
 39 43  1  0
 40 39  2  0
 41 36  2  0
 41 40  1  0
 42 41  1  0
 44 45  1  0
 45 48  1  0
 45 47  1  0
 46 44  2  0
 49 50  1  0
 49 24  1  0
 51 49  1  0
 52 13  1  0
 52 54  1  0
 53 52  1  0
 55 56  1  0
 57 68  2  0
 58 56  1  0
 58 63  1  0
 59 67  1  0
 59 69  1  0
 60 66  1  0
 60 62  1  0
 61 67  1  0
 62 61  1  0
 63 62  2  0
 64 65  1  0
 64 58  2  0
 65 60  2  0
 66 59  1  0
 67 57  1  0
 69 71  2  0
 70 69  1  0
 72 70  1  0
 73 82  2  0
 73 78  1  0
 74 70  1  0
 74 78  1  0
 75 74  1  0
 76 77  1  0
 76 75  1  0
 77 73  1  0
 78 79  2  0
 79 80  1  0
 81 80  2  0
 82 81  1  0
 83 57  1  0
 83 88  1  0
 83 84  1  0
 84 87  1  1
 84 85  1  0
 86 84  1  0
 88 91  1  0
 89 93  1  0
 89 88  1  0
 90 89  2  0
 93 92  1  0
 95 93  1  0
 95 96  1  0
 95 94  1  0
M  ISO  4  14 100  23 100  55 101  56 101
M  END
>  <TORSDO>  (10) 
F 19

>  <SCORE>  (10) 
-13.611

>  <name>  (10) 
9

>  <ligand_id>  (10) 
9

>  <original_smiles>  (10) 
[H]c1c([H])c([H])c2c(c1[H])C([H])([H])C([H])([H])C([H])([H])C2([H])N([H])C(=O)C1([H])N(C(=O)C([H])(N([H])C(=O)C([H])(N([H])C([H])([H])[H])C([H])([H])[H])C(C([H])([H])[H])(C([H])([H])[H])C([H])([H])[H])C([H])([H])c2c([H])c(OC([H])([H])C3([H])C([H])([H])N(c4c([H])c([H])c(N(C(=O)N5C([H])([H])C([H])([H])C([H])([H])C([H])(n6nc(-c7c([H])c([H])c(Oc8c([H])c([H])c(F)c([H])c8F)c([H])c7[H])c(C(=O)N([H])[H])c6N([H])[H])C5([H])[H])C([H])([H])[H])c(N([H])[H])c4[H])C(=O)C([H])([H])C3([H])[H])c([H])c([H])c2C1([H])[H]

>  <smiles>  (10) 
[H]c1c([H])c([H])c2c(c1[H])C([H])([H])C([H])([H])C([H])([H])C2([H])N([H])C(=O)C1([H])N(C(=O)C([H])(N([H])C(=O)C([H])(N([H])C([H])([H])[H])C([H])([H])[H])C(C([H])([H])[H])(C([H])([H])[H])C([H])([H])[H])C([H])([H])c2c([H])c(OC([H])([H])C3([H])C([H])([H])N(c4c([H])c([H])c(N(C(=O)N5C([H])([H])C([H])([H])C([H])([H])C([H])(n6nc(-c7c([H])c([H])c(Oc8c([H])c([H])c(F)c([H])c8F)c([H])c7[H])c(C(=O)N([H])[H])c6N([H])[H])C5([H])[H])C([H])([H])[H])c(N([H])[H])c4[H])C(=O)C([H])([H])C3([H])[H])c([H])c([H])c2C1([H])[H]

$$$$
10:0:0
     RDKit          3D

 94102  0  0  1  0  0  0  0  0999 V2000
  -28.4350  -19.1510   20.1060 C   0  0  0  0  0  3  0  0  0  0  0  0
  -27.9730  -20.5250   20.1900 C   0  0  0  0  0  3  0  0  0  0  0  0
  -30.5780  -19.8920   20.8180 C   0  0  0  0  0  3  0  0  0  0  0  0
  -29.7730  -18.7690   20.4320 C   0  0  0  0  0  0  0  0  0  0  0  0
  -30.1330  -21.2580   20.9090 C   0  0  0  0  0  0  0  0  0  0  0  0
  -28.7860  -21.6410   20.5940 C   0  0  0  0  0  0  0  0  0  0  0  0
  -30.6300  -14.8440   20.2800 C   0  0  0  0  0  0  0  0  0  0  0  0
  -30.3720  -12.5430   19.3200 C   0  0  0  0  0  2  0  0  0  0  0  0
  -29.4420  -12.5910   18.0900 C   0  0  0  0  0  2  0  0  0  0  0  0
  -27.9760  -12.4210   18.5290 C   0  0  0  0  0  2  0  0  0  0  0  0
  -27.6050  -13.3220   19.7360 C   0  0  0  0  0  3  0  0  0  0  0  0
  -28.6700  -13.2870   20.8540 C   0  0  0  0  0  2  0  0  0  0  0  0
  -29.9530  -13.6370   20.2370 N   0  0  0  0  0  0  0  0  0  0  0  0
  -31.8300  -14.8010   19.9980 O   0  0  0  0  0  0  0  0  0  0  0  0
  -30.4660  -17.3630   20.2120 C   0  0  0  0  0  0  0  0  0  0  0  0
  -29.9470  -16.0730   20.4270 N   0  0  0  0  0  0  0  0  0  0  0  0
  -31.6310  -17.4900   19.8190 O   0  0  0  0  0  0  0  0  0  0  0  0
  -28.9770  -16.0230   20.6860 H   0  0  0  0  0  0  0  0  0  0  0  0
  -25.2290  -13.9060   20.4890 C   0  0  0  0  0  0  0  0  0  0  0  0
  -24.1650  -13.1310   20.8610 C   0  0  0  0  0  0  0  0  0  0  0  0
  -24.6280  -11.7800   20.8270 C   0  0  0  0  0  0  0  0  0  0  0  0
  -26.2690  -13.0280   20.2420 N   0  0  0  0  0  0  0  0  0  0  0  0
  -25.9180  -11.7420   20.5110 N   0  0  0  0  0  0  0  0  0  0  0  0
  -23.9020  -10.5170   21.0170 C   0  0  0  0  0  0  0  0  0  0  0  0
  -24.3290   -9.5520   21.9550 C   0  0  0  0  0  3  0  0  0  0  0  0
  -23.6010   -8.3550   22.1350 C   0  0  0  0  0  3  0  0  0  0  0  0
  -22.4310   -8.1160   21.3760 C   0  0  0  0  0  0  0  0  0  0  0  0
  -22.0230   -9.0690   20.4270 C   0  0  0  0  0  3  0  0  0  0  0  0
  -22.7510  -10.2560   20.2460 C   0  0  0  0  0  3  0  0  0  0  0  0
  -21.6760   -6.9730   21.4660 O   0  0  0  0  0  0  0  0  0  0  0  0
  -21.6120   -6.2390   22.6220 C   0  0  0  0  0  0  0  0  0  0  0  0
  -21.1670   -6.8020   23.8390 C   0  0  0  0  0  3  0  0  0  0  0  0
  -21.0520   -5.9950   24.9880 C   0  0  0  0  0  3  0  0  0  0  0  0
  -21.3720   -4.6250   24.9220 C   0  0  0  0  0  0  0  0  0  0  0  0
  -21.8120   -4.0620   23.7110 C   0  0  0  0  0  3  0  0  0  0  0  0
  -21.9290   -4.8670   22.5640 C   0  0  0  0  0  0  0  0  0  0  0  0
  -22.3310   -4.3140   21.3950 F   0  0  0  0  0  0  0  0  0  0  0  0
  -21.2560   -3.8470   26.0230 F   0  0  0  0  0  0  0  0  0  0  0  0
  -22.7690  -13.6090   21.1370 C   0  0  0  0  0  0  0  0  0  0  0  0
  -22.0410  -12.9080   21.9980 N   0  0  0  0  0  0  0  0  0  0  0  0
  -22.3340  -14.6370   20.6210 O   0  0  0  0  0  0  0  0  0  0  0  0
  -22.4070  -12.0760   22.4370 H   0  0  0  0  0  0  0  0  0  0  0  0
  -21.1050  -13.2110   22.2270 H   0  0  0  0  0  0  0  0  0  0  0  0
  -25.3940  -15.2770   20.3160 N   0  0  0  0  0  0  0  0  0  0  0  0
  -24.6310  -15.9320   20.4480 H   0  0  0  0  0  0  0  0  0  0  0  0
  -26.2360  -15.7160   19.9700 H   0  0  0  0  0  0  0  0  0  0  0  0
  -31.0820  -22.1880   21.3480 N   0  0  0  0  0  0  0  0  0  0  0  0
  -31.9190  -21.8240   21.7930 H   0  0  0  0  0  0  0  0  0  0  0  0
  -30.7330  -23.0070   21.8380 H   0  0  0  0  0  0  0  0  0  0  0  0
  -28.4570  -23.7620   22.3100 O   0  0  0  0  0  0  0  0  0  0  0  0
  -26.5430  -23.2130   20.8050 O   0  0  0  0  0  0  0  0  0  0  0  0
  -28.0010  -23.3920   20.9560 S   0  0  2  0  0  0  0  0  0  0  0  0
  -28.4380  -24.9510   19.8360 C   0  0  0  0  0  2  0  0  0  0  0  0
  -28.3720  -26.4040   20.3060 O   0  0  0  0  0  0  0  0  0  0  0  0
  -24.6230  -31.8940   23.2340 C   0  0  0  0  0  0  0  0  0  0  0  0
  -27.2520  -27.2680   20.2130 C   0  0  0  0  0  0  0  0  0  0  0  0
  -23.4330  -30.4840   21.5950 C   0  0  0  0  0  3  0  0  0  0  0  0
  -24.8930  -28.9230   20.1750 C   0  0  0  0  0  0  0  0  0  0  0  0
  -25.9760  -30.7930   21.4240 C   0  0  0  0  0  2  0  0  0  0  0  0
  -26.0600  -29.4050   20.7800 C   0  0  0  0  0  0  0  0  0  0  0  0
  -27.2380  -28.5910   20.7840 C   0  0  0  0  0  3  0  0  0  0  0  0
  -26.0610  -26.8520   19.5820 C   0  0  0  0  0  3  0  0  0  0  0  0
  -24.9010  -27.6560   19.5640 C   0  0  0  0  0  3  0  0  0  0  0  0
  -23.6560  -29.8010   20.2180 C   0  0  0  0  0  2  0  0  0  0  0  0
  -24.6970  -31.0780   22.1390 N   0  0  0  0  0  0  0  0  0  0  0  0
  -23.5360  -32.1710   23.7620 O   0  0  0  0  0  0  0  0  0  0  0  0
  -22.7690  -29.4720   22.5610 C   0  0  0  0  0  0  0  0  0  0  0  0
  -21.4410  -29.2980   22.4400 N   0  0  0  0  0  0  0  0  0  0  0  0
  -23.4480  -28.8470   23.3800 O   0  0  0  0  0  0  0  0  0  0  0  0
  -20.9520  -29.8530   21.7540 H   0  0  0  0  0  0  0  0  0  0  0  0
  -18.0640  -28.1060   22.9560 C   0  0  0  0  0  0  0  0  0  0  0  0
  -20.6240  -28.3610   23.2140 C   0  0  0  0  0  3  0  0  0  0  0  0
  -20.7210  -26.9300   22.6350 C   0  0  0  0  0  2  0  0  0  0  0  0
  -19.6130  -26.6110   21.6270 C   0  0  0  0  0  2  0  0  0  0  0  0
  -18.2350  -26.7560   22.2770 C   0  0  0  0  0  2  0  0  0  0  0  0
  -19.1850  -28.8660   23.3820 C   0  0  0  0  0  0  0  0  0  0  0  0
  -18.9700  -30.1270   23.9770 C   0  0  0  0  0  3  0  0  0  0  0  0
  -17.6660  -30.6280   24.1530 C   0  0  0  0  0  3  0  0  0  0  0  0
  -16.5590  -29.8660   23.7420 C   0  0  0  0  0  3  0  0  0  0  0  0
  -16.7590  -28.6060   23.1490 C   0  0  0  0  0  3  0  0  0  0  0  0
  -25.8980  -32.5380   23.8590 C   0  0  0  0  0  3  0  0  0  0  0  0
  -26.4070  -31.7820   25.1480 C   0  0  1  0  0  0  0  0  0  0  0  0
  -25.3080  -31.5570   26.2120 C   0  0  0  0  0  1  0  0  0  0  0  0
  -26.9920  -30.4000   24.7770 C   0  0  0  0  0  1  0  0  0  0  0  0
  -27.5510  -32.5870   25.8090 C   0  0  0  0  0  1  0  0  0  0  0  0
  -25.5800  -33.9390   24.1770 N   0  0  0  0  0  0  0  0  0  0  0  0
  -25.9110  -34.9890   23.4130 C   0  0  0  0  0  0  0  0  0  0  0  0
  -26.5840  -34.8820   22.3840 O   0  0  0  0  0  0  0  0  0  0  0  0
  -24.9850  -34.0980   24.9760 H   0  0  0  0  0  0  0  0  0  0  0  0
  -24.1780  -36.7770   23.0460 C   0  0  0  0  0  1  0  0  0  0  0  0
  -25.4190  -36.3800   23.8630 C   0  0  0  0  0  3  0  0  0  0  0  0
  -27.5480  -37.2780   24.6960 C   0  0  0  0  0  1  0  0  0  0  0  0
  -26.4490  -37.4360   23.7470 N   0  0  0  0  0  0  0  0  0  0  0  0
  -26.0390  -38.3550   23.8860 H   0  0  0  0  0  0  0  0  0  0  0  0
  1  2  2  0
  1  4  1  0
  2  6  1  0
  3  5  1  0
  4  3  2  0
  5 47  1  0
  6  5  2  0
  6 52  1  0
  7 16  1  0
  8 13  1  0
  9 10  1  0
  9  8  1  0
 11 10  1  0
 11 22  1  0
 11 12  1  0
 13  7  1  0
 13 12  1  0
 14  7  2  0
 15 16  1  0
 15  4  1  0
 16 18  1  0
 17 15  2  0
 19 20  2  0
 20 39  1  0
 21 20  1  0
 21 24  1  0
 22 19  1  0
 22 23  1  0
 23 21  2  0
 24 25  1  0
 25 26  2  0
 27 30  1  0
 27 26  1  0
 28 27  2  0
 29 28  1  0
 29 24  2  0
 30 31  1  0
 31 32  1  0
 32 33  2  0
 34 33  1  0
 34 38  1  0
 35 34  2  0
 36 31  2  0
 36 35  1  0
 37 36  1  0
 39 40  1  0
 40 43  1  0
 40 42  1  0
 41 39  2  0
 44 45  1  0
 44 19  1  0
 46 44  1  0
 47 48  1  0
 47 49  1  0
 51 52  2  0
 52 50  2  0
 53 54  1  0
 52 53  1  6
 55 66  2  0
 56 54  1  0
 56 61  1  0
 57 65  1  0
 57 67  1  0
 58 64  1  0
 58 60  1  0
 59 65  1  0
 60 61  2  0
 60 59  1  0
 62 56  2  0
 63 62  1  0
 63 58  2  0
 64 57  1  0
 65 55  1  0
 67 69  2  0
 68 67  1  0
 70 68  1  0
 71 80  2  0
 71 76  1  0
 72 68  1  0
 72 76  1  0
 73 72  1  0
 74 75  1  0
 74 73  1  0
 75 71  1  0
 76 77  2  0
 77 78  1  0
 79 78  2  0
 80 79  1  0
 81 55  1  0
 81 86  1  0
 81 82  1  0
 82 85  1  1
 82 83  1  0
 84 82  1  0
 86 89  1  0
 87 91  1  0
 87 86  1  0
 88 87  2  0
 91 90  1  0
 93 91  1  0
 93 94  1  0
 93 92  1  0
M  ISO  4   7 100  16 100  53 101  54 101
M  END
>  <TORSDO>  (11) 
F 19

>  <SCORE>  (11) 
-14.706

>  <name>  (11) 
10

>  <ligand_id>  (11) 
10

>  <original_smiles>  (11) 
[H]c1c([H])c([H])c2c(c1[H])C([H])([H])C([H])([H])C([H])([H])C2([H])N([H])C(=O)C1([H])N(C(=O)C([H])(N([H])C(=O)C([H])(N([H])C([H])([H])[H])C([H])([H])[H])C(C([H])([H])[H])(C([H])([H])[H])C([H])([H])[H])C([H])([H])c2c([H])c(OC([H])([H])S(=O)(=O)c3c([H])c([H])c(C(=O)N([H])C(=O)N4C([H])([H])C([H])([H])C([H])([H])C([H])(n5nc(-c6c([H])c([H])c(Oc7c([H])c([H])c(F)c([H])c7F)c([H])c6[H])c(C(=O)N([H])[H])c5N([H])[H])C4([H])[H])c([H])c3N([H])[H])c([H])c([H])c2C1([H])[H]

>  <smiles>  (11) 
[H]c1c([H])c([H])c2c(c1[H])C([H])([H])C([H])([H])C([H])([H])C2([H])N([H])C(=O)C1([H])N(C(=O)C([H])(N([H])C(=O)C([H])(N([H])C([H])([H])[H])C([H])([H])[H])C(C([H])([H])[H])(C([H])([H])[H])C([H])([H])[H])C([H])([H])c2c([H])c(OC([H])([H])S(=O)(=O)c3c([H])c([H])c(C(=O)N([H])C(=O)N4C([H])([H])C([H])([H])C([H])([H])C([H])(n5nc(-c6c([H])c([H])c(Oc7c([H])c([H])c(F)c([H])c7F)c([H])c6[H])c(C(=O)N([H])[H])c5N([H])[H])C4([H])[H])c([H])c3N([H])[H])c([H])c([H])c2C1([H])[H]

$$$$
11:0:0
     RDKit          3D

 93102  0  0  1  0  0  0  0  0999 V2000
  -28.3610  -22.4620   18.9240 C   0  0  0  0  0  0  0  0  0  0  0  0
  -29.3960  -22.5960   20.6830 C   0  0  0  0  0  2  0  0  0  0  0  0
  -28.3550  -23.6040   20.0360 C   0  0  0  0  0  3  0  0  0  0  0  0
  -28.7840  -21.5190   19.8780 N   0  0  0  0  0  0  0  0  0  0  0  0
  -28.1770  -22.3670   17.7290 O   0  0  0  0  0  0  0  0  0  0  0  0
  -30.2540  -19.4360   19.1660 C   0  0  0  0  0  3  0  0  0  0  0  0
  -30.5560  -18.0210   19.2190 C   0  0  0  0  0  3  0  0  0  0  0  0
  -28.5030  -19.1370   20.6940 C   0  0  0  0  0  3  0  0  0  0  0  0
  -29.2130  -20.0880   19.9090 C   0  0  0  0  0  0  0  0  0  0  0  0
  -29.8320  -17.0940   20.0340 C   0  0  0  0  0  0  0  0  0  0  0  0
  -28.7690  -17.7300   20.7520 C   0  0  0  0  0  0  0  0  0  0  0  0
  -27.9380  -16.9930   21.5250 F   0  0  0  0  0  0  0  0  0  0  0  0
  -30.5590  -14.6660   19.3190 C   0  0  0  0  0  0  0  0  0  0  0  0
  -30.0620  -12.5020   18.1300 C   0  0  0  0  0  2  0  0  0  0  0  0
  -28.9210  -12.6920   17.1060 C   0  0  0  0  0  2  0  0  0  0  0  0
  -27.5470  -12.5200   17.7780 C   0  0  0  0  0  2  0  0  0  0  0  0
  -27.4360  -13.3200   19.1010 C   0  0  0  0  0  3  0  0  0  0  0  0
  -28.6620  -13.0840   20.0020 C   0  0  0  0  0  2  0  0  0  0  0  0
  -29.8630  -13.4710   19.2380 N   0  0  0  0  0  0  0  0  0  0  0  0
  -31.5430  -14.8420   18.5920 O   0  0  0  0  0  0  0  0  0  0  0  0
  -30.1590  -15.6360   20.2410 N   0  0  0  0  0  0  0  0  0  0  0  0
  -25.2480  -13.9360   20.2900 C   0  0  0  0  0  0  0  0  0  0  0  0
  -24.2300  -13.1710   20.7920 C   0  0  0  0  0  0  0  0  0  0  0  0
  -24.6170  -11.8110   20.5820 C   0  0  0  0  0  0  0  0  0  0  0  0
  -26.1880  -13.0420   19.8030 N   0  0  0  0  0  0  0  0  0  0  0  0
  -25.8260  -11.7540   20.0390 N   0  0  0  0  0  0  0  0  0  0  0  0
  -23.8790  -10.5640   20.8140 C   0  0  0  0  0  0  0  0  0  0  0  0
  -24.3830   -9.5520   21.6610 C   0  0  0  0  0  3  0  0  0  0  0  0
  -23.6460   -8.3690   21.8810 C   0  0  0  0  0  3  0  0  0  0  0  0
  -22.3890   -8.1890   21.2540 C   0  0  0  0  0  0  0  0  0  0  0  0
  -21.9010   -9.1900   20.3950 C   0  0  0  0  0  3  0  0  0  0  0  0
  -22.6400  -10.3640   20.1730 C   0  0  0  0  0  3  0  0  0  0  0  0
  -21.6140   -7.0620   21.3890 O   0  0  0  0  0  0  0  0  0  0  0  0
  -21.6200   -6.3180   22.5420 C   0  0  0  0  0  0  0  0  0  0  0  0
  -21.2860   -6.8810   23.7930 C   0  0  0  0  0  3  0  0  0  0  0  0
  -21.2360   -6.0650   24.9410 C   0  0  0  0  0  3  0  0  0  0  0  0
  -21.5100   -4.6890   24.8400 C   0  0  0  0  0  0  0  0  0  0  0  0
  -21.8370   -4.1250   23.5940 C   0  0  0  0  0  3  0  0  0  0  0  0
  -21.8890   -4.9380   22.4470 C   0  0  0  0  0  0  0  0  0  0  0  0
  -22.1830   -4.3860   21.2460 F   0  0  0  0  0  0  0  0  0  0  0  0
  -21.4550   -3.9030   25.9410 F   0  0  0  0  0  0  0  0  0  0  0  0
  -22.9300  -13.6720   21.3490 C   0  0  0  0  0  0  0  0  0  0  0  0
  -22.3580  -12.9530   22.3090 N   0  0  0  0  0  0  0  0  0  0  0  0
  -22.4370  -14.7340   20.9700 O   0  0  0  0  0  0  0  0  0  0  0  0
  -22.7730  -12.0920   22.6310 H   0  0  0  0  0  0  0  0  0  0  0  0
  -21.4940  -13.2690   22.7280 H   0  0  0  0  0  0  0  0  0  0  0  0
  -25.4440  -15.3090   20.1860 N   0  0  0  0  0  0  0  0  0  0  0  0
  -24.7570  -15.9810   20.5070 H   0  0  0  0  0  0  0  0  0  0  0  0
  -26.2710  -15.7410   19.7960 H   0  0  0  0  0  0  0  0  0  0  0  0
  -31.4880  -16.1260   22.3250 C   0  0  0  0  0  1  0  0  0  0  0  0
  -30.4430  -15.2300   21.6390 C   0  0  0  0  0  2  0  0  0  0  0  0
  -28.6170  -25.1070   19.4850 C   0  0  0  0  0  2  0  0  0  0  0  0
  -28.3590  -26.3920   20.2210 O   0  0  0  0  0  0  0  0  0  0  0  0
  -24.4260  -31.7460   23.0800 C   0  0  0  0  0  0  0  0  0  0  0  0
  -27.2070  -27.2040   20.0980 C   0  0  0  0  0  0  0  0  0  0  0  0
  -23.2830  -30.3060   21.4300 C   0  0  0  0  0  3  0  0  0  0  0  0
  -24.7970  -28.7730   20.0360 C   0  0  0  0  0  0  0  0  0  0  0  0
  -25.8170  -30.6790   21.2870 C   0  0  0  0  0  2  0  0  0  0  0  0
  -25.9410  -29.2940   20.6500 C   0  0  0  0  0  0  0  0  0  0  0  0
  -27.1420  -28.5180   20.6730 C   0  0  0  0  0  3  0  0  0  0  0  0
  -26.0360  -26.7380   19.4600 C   0  0  0  0  0  3  0  0  0  0  0  0
  -24.8490  -27.5040   19.4320 C   0  0  0  0  0  3  0  0  0  0  0  0
  -23.5360  -29.6190   20.0600 C   0  0  0  0  0  2  0  0  0  0  0  0
  -24.5250  -30.9300   21.9890 N   0  0  0  0  0  0  0  0  0  0  0  0
  -23.3280  -32.0020   23.5960 O   0  0  0  0  0  0  0  0  0  0  0  0
  -22.6290  -29.2840   22.3910 C   0  0  0  0  0  0  0  0  0  0  0  0
  -21.3060  -29.0900   22.2610 N   0  0  0  0  0  0  0  0  0  0  0  0
  -23.3140  -28.6670   23.2120 O   0  0  0  0  0  0  0  0  0  0  0  0
  -20.8140  -29.6380   21.5690 H   0  0  0  0  0  0  0  0  0  0  0  0
  -17.9390  -27.8720   22.7730 C   0  0  0  0  0  0  0  0  0  0  0  0
  -20.4980  -28.1410   23.0280 C   0  0  0  0  0  3  0  0  0  0  0  0
  -20.6040  -26.7160   22.4380 C   0  0  0  0  0  2  0  0  0  0  0  0
  -19.4960  -26.3990   21.4270 C   0  0  0  0  0  2  0  0  0  0  0  0
  -18.1190  -26.5300   22.0820 C   0  0  0  0  0  2  0  0  0  0  0  0
  -19.0570  -28.6350   23.2030 C   0  0  0  0  0  0  0  0  0  0  0  0
  -18.8360  -29.8910   23.8100 C   0  0  0  0  0  3  0  0  0  0  0  0
  -17.5300  -30.3830   23.9930 C   0  0  0  0  0  3  0  0  0  0  0  0
  -16.4270  -29.6160   23.5800 C   0  0  0  0  0  3  0  0  0  0  0  0
  -16.6330  -28.3630   22.9760 C   0  0  0  0  0  3  0  0  0  0  0  0
  -25.6830  -32.4150   23.7180 C   0  0  0  0  0  3  0  0  0  0  0  0
  -26.2050  -31.6590   25.0020 C   0  0  1  0  0  0  0  0  0  0  0  0
  -25.1050  -31.3880   26.0540 C   0  0  0  0  0  1  0  0  0  0  0  0
  -26.8360  -30.3000   24.6200 C   0  0  0  0  0  1  0  0  0  0  0  0
  -27.3210  -32.4870   25.6820 C   0  0  0  0  0  1  0  0  0  0  0  0
  -25.3300  -33.8050   24.0470 N   0  0  0  0  0  0  0  0  0  0  0  0
  -25.6360  -34.8690   23.2930 C   0  0  0  0  0  0  0  0  0  0  0  0
  -26.3170  -34.7860   22.2660 O   0  0  0  0  0  0  0  0  0  0  0  0
  -24.7240  -33.9400   24.8440 H   0  0  0  0  0  0  0  0  0  0  0  0
  -23.8580  -36.6130   22.9340 C   0  0  0  0  0  1  0  0  0  0  0  0
  -25.1070  -36.2420   23.7500 C   0  0  0  0  0  3  0  0  0  0  0  0
  -27.2090  -37.1900   24.5940 C   0  0  0  0  0  1  0  0  0  0  0  0
  -26.1080  -37.3250   23.6430 N   0  0  0  0  0  0  0  0  0  0  0  0
  -25.6740  -38.2330   23.7880 H   0  0  0  0  0  0  0  0  0  0  0  0
  1  4  1  0
  1  3  1  0
  3 52  1  0
  3  2  1  0
  4  9  1  0
  4  2  1  0
  5  1  2  0
  6  7  2  0
  6  9  1  0
  7 10  1  0
  8 11  1  0
  9  8  2  0
 10 21  1  0
 10 11  2  0
 11 12  1  0
 13 21  1  0
 14 19  1  0
 15 16  1  0
 15 14  1  0
 17 16  1  0
 17 25  1  0
 17 18  1  0
 19 13  1  0
 19 18  1  0
 20 13  2  0
 21 51  1  0
 22 23  2  0
 23 42  1  0
 24 23  1  0
 24 27  1  0
 25 26  1  0
 25 22  1  0
 26 24  2  0
 27 28  1  0
 28 29  2  0
 30 33  1  0
 30 29  1  0
 31 30  2  0
 32 31  1  0
 32 27  2  0
 33 34  1  0
 34 35  1  0
 35 36  2  0
 37 36  1  0
 37 41  1  0
 38 37  2  0
 39 34  2  0
 39 38  1  0
 40 39  1  0
 42 43  1  0
 43 45  1  0
 43 46  1  0
 44 42  2  0
 47 22  1  0
 47 48  1  0
 49 47  1  0
 51 50  1  0
 52 53  1  0
 54 65  2  0
 55 53  1  0
 55 60  1  0
 56 64  1  0
 56 66  1  0
 57 63  1  0
 57 59  1  0
 58 64  1  0
 59 60  2  0
 59 58  1  0
 61 55  2  0
 62 61  1  0
 62 57  2  0
 63 56  1  0
 64 54  1  0
 66 68  2  0
 67 66  1  0
 69 67  1  0
 70 79  2  0
 70 75  1  0
 71 67  1  0
 71 75  1  0
 72 71  1  0
 73 74  1  0
 73 72  1  0
 74 70  1  0
 75 76  2  0
 76 77  1  0
 78 77  2  0
 79 78  1  0
 80 54  1  0
 80 85  1  0
 80 81  1  0
 81 84  1  1
 81 82  1  0
 83 81  1  0
 85 88  1  0
 86 90  1  0
 86 85  1  0
 87 86  2  0
 90 89  1  0
 92 90  1  0
 92 93  1  0
 92 91  1  0
M  ISO  4  13 100  21 100  52 101  53 101
M  END
>  <TORSDO>  (12) 
F 19

>  <SCORE>  (12) 
-11.107

>  <name>  (12) 
11

>  <ligand_id>  (12) 
11

>  <original_smiles>  (12) 
[H]c1c([H])c([H])c2c(c1[H])C([H])([H])C([H])([H])C([H])([H])C2([H])N([H])C(=O)C1([H])N(C(=O)C([H])(N([H])C(=O)C([H])(N([H])C([H])([H])[H])C([H])([H])[H])C(C([H])([H])[H])(C([H])([H])[H])C([H])([H])[H])C([H])([H])c2c([H])c(OC([H])([H])C3([H])C(=O)N(c4c([H])c([H])c(N(C(=O)N5C([H])([H])C([H])([H])C([H])([H])C([H])(n6nc(-c7c([H])c([H])c(Oc8c([H])c([H])c(F)c([H])c8F)c([H])c7[H])c(C(=O)N([H])[H])c6N([H])[H])C5([H])[H])C([H])([H])C([H])([H])[H])c(F)c4[H])C3([H])[H])c([H])c([H])c2C1([H])[H]

>  <smiles>  (12) 
[H]c1c([H])c([H])c2c(c1[H])C([H])([H])C([H])([H])C([H])([H])C2([H])N([H])C(=O)C1([H])N(C(=O)C([H])(N([H])C(=O)C([H])(N([H])C([H])([H])[H])C([H])([H])[H])C(C([H])([H])[H])(C([H])([H])[H])C([H])([H])[H])C([H])([H])c2c([H])c(OC([H])([H])C3([H])C(=O)N(c4c([H])c([H])c(N(C(=O)N5C([H])([H])C([H])([H])C([H])([H])C([H])(n6nc(-c7c([H])c([H])c(Oc8c([H])c([H])c(F)c([H])c8F)c([H])c7[H])c(C(=O)N([H])[H])c6N([H])[H])C5([H])[H])C([H])([H])C([H])([H])[H])c(F)c4[H])C3([H])[H])c([H])c([H])c2C1([H])[H]

$$$$
12:0:0
     RDKit          3D

 98106  0  0  1  0  0  0  0  0999 V2000
  -29.6230  -21.1500   19.5960 C   0  0  0  0  0  0  0  0  0  0  0  0
  -29.0870  -23.5870   20.1390 C   0  0  0  0  0  0  0  0  0  0  0  0
  -29.2680  -22.1670   20.4320 N   0  0  0  0  0  0  0  0  0  0  0  0
  -29.8990  -21.4020   18.3110 N   0  0  0  0  0  4  0  0  0  0  0  0
  -29.2330  -24.0220   18.9900 O   0  0  0  0  0  0  0  0  0  0  0  0
  -29.1110  -21.8620   21.3810 H   0  0  0  0  0  0  0  0  0  0  0  0
  -30.2450  -20.6760   17.7040 H   0  0  0  0  0  0  0  0  0  0  0  0
  -29.8200  -22.3520   17.9700 H   0  0  0  0  0  0  0  0  0  0  0  0
  -30.4230  -19.2960   21.1780 C   0  0  0  0  0  3  0  0  0  0  0  0
  -30.5360  -17.9140   21.5010 C   0  0  0  0  0  3  0  0  0  0  0  0
  -29.1360  -18.7110   19.2090 C   0  0  0  0  0  3  0  0  0  0  0  0
  -29.7210  -19.7190   20.0190 C   0  0  0  0  0  0  0  0  0  0  0  0
  -29.9640  -16.9160   20.6740 C   0  0  0  0  0  0  0  0  0  0  0  0
  -29.2520  -17.3370   19.5280 C   0  0  0  0  0  0  0  0  0  0  0  0
  -28.6510  -16.4190   18.7340 F   0  0  0  0  0  0  0  0  0  0  0  0
  -30.6540  -14.5480   20.3900 C   0  0  0  0  0  0  0  0  0  0  0  0
  -30.3670  -12.3800   19.2330 C   0  0  0  0  0  2  0  0  0  0  0  0
  -29.4110  -12.5870   18.0390 C   0  0  0  0  0  2  0  0  0  0  0  0
  -27.9420  -12.4410   18.4800 C   0  0  0  0  0  2  0  0  0  0  0  0
  -27.6170  -13.2650   19.7550 C   0  0  0  0  0  3  0  0  0  0  0  0
  -28.6820  -13.0340   20.8500 C   0  0  0  0  0  2  0  0  0  0  0  0
  -30.0030  -13.3530   20.2780 N   0  0  0  0  0  0  0  0  0  0  0  0
  -31.7600  -14.7500   19.8770 O   0  0  0  0  0  0  0  0  0  0  0  0
  -29.9880  -15.5260   21.0410 N   0  0  0  0  0  0  0  0  0  0  0  0
  -29.1570  -15.2050   21.5120 H   0  0  0  0  0  0  0  0  0  0  0  0
  -25.2280  -13.8790   20.4880 C   0  0  0  0  0  0  0  0  0  0  0  0
  -24.1600  -13.1100   20.8620 C   0  0  0  0  0  0  0  0  0  0  0  0
  -24.6140  -11.7550   20.8200 C   0  0  0  0  0  0  0  0  0  0  0  0
  -26.2670  -12.9930   20.2420 N   0  0  0  0  0  0  0  0  0  0  0  0
  -25.9010  -11.7120   20.4980 N   0  0  0  0  0  0  0  0  0  0  0  0
  -23.8850  -10.4960   21.0100 C   0  0  0  0  0  0  0  0  0  0  0  0
  -24.3040   -9.5350   21.9560 C   0  0  0  0  0  3  0  0  0  0  0  0
  -23.5740   -8.3400   22.1340 C   0  0  0  0  0  3  0  0  0  0  0  0
  -22.4120   -8.0960   21.3650 C   0  0  0  0  0  0  0  0  0  0  0  0
  -22.0110   -9.0470   20.4080 C   0  0  0  0  0  3  0  0  0  0  0  0
  -22.7410  -10.2330   20.2300 C   0  0  0  0  0  3  0  0  0  0  0  0
  -21.6570   -6.9520   21.4500 O   0  0  0  0  0  0  0  0  0  0  0  0
  -21.5750   -6.2270   22.6120 C   0  0  0  0  0  0  0  0  0  0  0  0
  -21.0750   -6.7900   23.8070 C   0  0  0  0  0  3  0  0  0  0  0  0
  -20.9430   -5.9900   24.9600 C   0  0  0  0  0  3  0  0  0  0  0  0
  -21.3040   -4.6300   24.9200 C   0  0  0  0  0  0  0  0  0  0  0  0
  -21.7980   -4.0670   23.7300 C   0  0  0  0  0  3  0  0  0  0  0  0
  -21.9310   -4.8640   22.5780 C   0  0  0  0  0  0  0  0  0  0  0  0
  -22.3880   -4.3130   21.4290 F   0  0  0  0  0  0  0  0  0  0  0  0
  -21.1700   -3.8600   26.0240 F   0  0  0  0  0  0  0  0  0  0  0  0
  -22.7680  -13.5920   21.1520 C   0  0  0  0  0  0  0  0  0  0  0  0
  -22.0400  -12.8900   22.0140 N   0  0  0  0  0  0  0  0  0  0  0  0
  -22.3320  -14.6270   20.6480 O   0  0  0  0  0  0  0  0  0  0  0  0
  -22.4030  -12.0510   22.4430 H   0  0  0  0  0  0  0  0  0  0  0  0
  -21.1070  -13.1970   22.2500 H   0  0  0  0  0  0  0  0  0  0  0  0
  -25.3990  -15.2490   20.3150 N   0  0  0  0  0  0  0  0  0  0  0  0
  -24.6330  -15.9050   20.4250 H   0  0  0  0  0  0  0  0  0  0  0  0
  -26.2370  -15.6780   19.9470 H   0  0  0  0  0  0  0  0  0  0  0  0
  -28.4690  -25.7240   21.3280 C   0  0  0  0  0  3  0  0  0  0  0  0
  -28.7270  -24.3840   21.3230 C   0  0  0  0  0  0  0  0  0  0  0  0
  -28.6410  -23.7210   22.4910 O   0  0  0  0  0  0  0  0  0  0  0  0
  -28.4000  -24.3490   23.1600 H   0  0  0  0  0  0  0  0  0  0  0  0
  -28.4730  -26.6280   20.2790 O   0  0  0  0  0  0  0  0  0  0  0  0
  -24.6250  -31.8900   23.2470 C   0  0  0  0  0  0  0  0  0  0  0  0
  -27.3590  -27.4440   20.2260 C   0  0  0  0  0  0  0  0  0  0  0  0
  -23.4620  -30.4750   21.5850 C   0  0  0  0  0  3  0  0  0  0  0  0
  -24.9590  -28.9510   20.1840 C   0  0  0  0  0  0  0  0  0  0  0  0
  -25.9920  -30.8520   21.4350 C   0  0  0  0  0  2  0  0  0  0  0  0
  -26.1040  -29.4800   20.7950 C   0  0  0  0  0  0  0  0  0  0  0  0
  -27.3110  -28.7340   20.8140 C   0  0  0  0  0  3  0  0  0  0  0  0
  -26.2020  -26.9390   19.6020 C   0  0  0  0  0  3  0  0  0  0  0  0
  -25.0050  -27.6810   19.5810 C   0  0  0  0  0  3  0  0  0  0  0  0
  -23.7060  -29.7980   20.2100 C   0  0  0  0  0  2  0  0  0  0  0  0
  -24.7100  -31.0870   22.1470 N   0  0  0  0  0  0  0  0  0  0  0  0
  -23.5310  -32.1520   23.7670 O   0  0  0  0  0  0  0  0  0  0  0  0
  -22.8010  -29.4490   22.5340 C   0  0  0  0  0  0  0  0  0  0  0  0
  -21.4760  -29.2710   22.3990 N   0  0  0  0  0  0  0  0  0  0  0  0
  -23.4780  -28.8170   23.3500 O   0  0  0  0  0  0  0  0  0  0  0  0
  -20.9910  -29.8350   21.7140 H   0  0  0  0  0  0  0  0  0  0  0  0
  -18.0920  -28.0990   22.8880 C   0  0  0  0  0  0  0  0  0  0  0  0
  -20.6530  -28.3290   23.1560 C   0  0  0  0  0  3  0  0  0  0  0  0
  -20.7400  -26.9050   22.5580 C   0  0  0  0  0  2  0  0  0  0  0  0
  -19.6330  -26.6080   21.5420 C   0  0  0  0  0  2  0  0  0  0  0  0
  -18.2550  -26.7580   22.1930 C   0  0  0  0  0  2  0  0  0  0  0  0
  -19.2190  -28.8430   23.3260 C   0  0  0  0  0  0  0  0  0  0  0  0
  -19.0140  -30.1000   23.9370 C   0  0  0  0  0  3  0  0  0  0  0  0
  -17.7140  -30.6120   24.1110 C   0  0  0  0  0  3  0  0  0  0  0  0
  -16.6020  -29.8630   23.6910 C   0  0  0  0  0  3  0  0  0  0  0  0
  -16.7920  -28.6090   23.0850 C   0  0  0  0  0  3  0  0  0  0  0  0
  -25.8930  -32.5350   23.8890 C   0  0  0  0  0  3  0  0  0  0  0  0
  -26.3900  -31.7760   25.1810 C   0  0  1  0  0  0  0  0  0  0  0  0
  -25.2770  -31.5350   26.2270 C   0  0  0  0  0  1  0  0  0  0  0  0
  -26.9930  -30.4010   24.8090 C   0  0  0  0  0  1  0  0  0  0  0  0
  -27.5190  -32.5850   25.8620 C   0  0  0  0  0  1  0  0  0  0  0  0
  -25.5700  -33.9340   24.2010 N   0  0  0  0  0  0  0  0  0  0  0  0
  -25.9020  -34.9800   23.4330 C   0  0  0  0  0  0  0  0  0  0  0  0
  -26.5850  -34.8700   22.4110 O   0  0  0  0  0  0  0  0  0  0  0  0
  -24.9630  -34.0910   24.9930 H   0  0  0  0  0  0  0  0  0  0  0  0
  -24.1690  -36.7570   23.0350 C   0  0  0  0  0  1  0  0  0  0  0  0
  -25.4000  -36.3690   23.8700 C   0  0  0  0  0  3  0  0  0  0  0  0
  -27.5100  -37.2820   24.7310 C   0  0  0  0  0  1  0  0  0  0  0  0
  -26.4260  -37.4280   23.7610 N   0  0  0  0  0  0  0  0  0  0  0  0
  -26.0110  -38.3470   23.8860 H   0  0  0  0  0  0  0  0  0  0  0  0
  1 12  1  0
  1  3  1  0
  2  3  1  0
  2 55  1  0
  3  6  1  0
  4  1  2  0
  5  2  2  0
  7  4  1  0
  8  4  1  0
  9 10  1  0
 11 14  2  0
 11 12  1  0
 12  9  2  0
 13 24  1  0
 13 10  2  0
 14 13  1  0
 15 14  1  0
 16 24  1  0
 17 22  1  0
 18 19  1  0
 18 17  1  0
 20 19  1  0
 20 29  1  0
 20 21  1  0
 22 16  1  0
 22 21  1  0
 23 16  2  0
 24 25  1  0
 26 27  2  0
 27 46  1  0
 28 27  1  0
 28 31  1  0
 29 26  1  0
 29 30  1  0
 30 28  2  0
 31 32  1  0
 32 33  2  0
 34 37  1  0
 34 33  1  0
 35 34  2  0
 36 35  1  0
 36 31  2  0
 37 38  1  0
 38 39  1  0
 39 40  2  0
 41 40  1  0
 41 45  1  0
 42 41  2  0
 43 38  2  0
 43 42  1  0
 44 43  1  0
 46 47  1  0
 47 50  1  0
 47 49  1  0
 48 46  2  0
 51 52  1  0
 51 26  1  0
 53 51  1  0
 55 54  2  0
 55 56  1  0
 56 57  1  0
 58 54  1  0
 59 70  2  0
 60 58  1  0
 60 65  1  0
 61 69  1  0
 61 71  1  0
 62 68  1  0
 62 64  1  0
 63 69  1  0
 64 65  2  0
 64 63  1  0
 66 60  2  0
 67 66  1  0
 67 62  2  0
 68 61  1  0
 69 59  1  0
 71 73  2  0
 72 71  1  0
 74 72  1  0
 75 84  2  0
 75 80  1  0
 76 72  1  0
 76 80  1  0
 77 76  1  0
 78 79  1  0
 78 77  1  0
 79 75  1  0
 80 81  2  0
 81 82  1  0
 83 82  2  0
 84 83  1  0
 85 59  1  0
 85 90  1  0
 85 86  1  0
 86 89  1  1
 86 87  1  0
 88 86  1  0
 90 93  1  0
 91 95  1  0
 91 90  1  0
 92 91  2  0
 95 94  1  0
 97 95  1  0
 97 98  1  0
 97 96  1  0
M  ISO  4  16 100  24 100  54 101  58 101
M  END
>  <TORSDO>  (13) 
F 19

>  <SCORE>  (13) 
-14.935

>  <name>  (13) 
12

>  <ligand_id>  (13) 
12

>  <original_smiles>  (13) 
[H]OC(C(=O)N([H])C(c1c([H])c([H])c(N([H])C(=O)N2C([H])([H])C([H])([H])C([H])([H])C([H])(n3nc(-c4c([H])c([H])c(Oc5c([H])c([H])c(F)c([H])c5F)c([H])c4[H])c(C(=O)N([H])[H])c3N([H])[H])C2([H])[H])c(F)c1[H])=[N+]([H])[H])=C([H])Oc1c([H])c([H])c2c(c1[H])C([H])([H])N(C(=O)C([H])(N([H])C(=O)C([H])(N([H])C([H])([H])[H])C([H])([H])[H])C(C([H])([H])[H])(C([H])([H])[H])C([H])([H])[H])C([H])(C(=O)N([H])C1([H])c3c([H])c([H])c([H])c([H])c3C([H])([H])C([H])([H])C1([H])[H])C2([H])[H]

>  <smiles>  (13) 
[H]OC(C(=O)N([H])C(c1c([H])c([H])c(N([H])C(=O)N2C([H])([H])C([H])([H])C([H])([H])C([H])(n3nc(-c4c([H])c([H])c(Oc5c([H])c([H])c(F)c([H])c5F)c([H])c4[H])c(C(=O)N([H])[H])c3N([H])[H])C2([H])[H])c(F)c1[H])=[N+]([H])[H])=C([H])Oc1c([H])c([H])c2c(c1[H])C([H])([H])N(C(=O)C([H])(N([H])C(=O)C([H])(N([H])C([H])([H])[H])C([H])([H])[H])C(C([H])([H])[H])(C([H])([H])[H])C([H])([H])[H])C([H])(C(=O)N([H])C1([H])c3c([H])c([H])c([H])c([H])c3C([H])([H])C([H])([H])C1([H])[H])C2([H])[H]

$$$$
13:0:0
     RDKit          3D

 97105  0  0  1  0  0  0  0  0999 V2000
  -31.3380  -18.6270   19.7810 C   0  0  0  0  0  3  0  0  0  0  0  0
  -31.3550  -20.0230   19.5650 C   0  0  0  0  0  3  0  0  0  0  0  0
  -30.8160  -18.0910   20.9780 C   0  0  0  0  0  0  0  0  0  0  0  0
  -30.8380  -20.9150   20.5310 C   0  0  0  0  0  0  0  0  0  0  0  0
  -30.2110  -20.3680   21.6820 C   0  0  0  0  0  0  0  0  0  0  0  0
  -30.2110  -18.9660   21.9070 C   0  0  0  0  0  0  0  0  0  0  0  0
  -29.6730  -18.4830   23.0550 F   0  0  0  0  0  0  0  0  0  0  0  0
  -31.1180  -14.5800   20.1940 C   0  0  0  0  0  0  0  0  0  0  0  0
  -30.6920  -12.4700   18.9820 C   0  0  0  0  0  2  0  0  0  0  0  0
  -29.7060  -12.6760   17.8200 C   0  0  0  0  0  2  0  0  0  0  0  0
  -28.2570  -12.5270   18.3190 C   0  0  0  0  0  2  0  0  0  0  0  0
  -27.9690  -13.3680   19.5940 C   0  0  0  0  0  3  0  0  0  0  0  0
  -29.0740  -13.1680   20.6550 C   0  0  0  0  0  2  0  0  0  0  0  0
  -30.3620  -13.4640   20.0130 N   0  0  0  0  0  0  0  0  0  0  0  0
  -32.2590  -14.6730   19.7350 O   0  0  0  0  0  0  0  0  0  0  0  0
  -31.1420  -16.6650   21.3330 C   0  0  0  0  0  0  0  0  0  0  0  0
  -30.4960  -15.6660   20.7000 N   0  0  0  0  0  0  0  0  0  0  0  0
  -32.0560  -16.4640   22.1420 O   0  0  0  0  0  0  0  0  0  0  0  0
  -29.5250  -15.7950   20.4760 H   0  0  0  0  0  0  0  0  0  0  0  0
  -25.6260  -13.9680   20.4710 C   0  0  0  0  0  0  0  0  0  0  0  0
  -24.5630  -13.1910   20.8460 C   0  0  0  0  0  0  0  0  0  0  0  0
  -24.9960  -11.8360   20.7100 C   0  0  0  0  0  0  0  0  0  0  0  0
  -26.6400  -13.0850   20.1310 N   0  0  0  0  0  0  0  0  0  0  0  0
  -26.2680  -11.7950   20.3350 N   0  0  0  0  0  0  0  0  0  0  0  0
  -24.2550  -10.5770   20.8570 C   0  0  0  0  0  0  0  0  0  0  0  0
  -24.6750   -9.5750   21.7600 C   0  0  0  0  0  3  0  0  0  0  0  0
  -23.9350   -8.3800   21.8990 C   0  0  0  0  0  3  0  0  0  0  0  0
  -22.7620   -8.1800   21.1360 C   0  0  0  0  0  0  0  0  0  0  0  0
  -22.3610   -9.1690   20.2230 C   0  0  0  0  0  3  0  0  0  0  0  0
  -23.1010  -10.3550   20.0810 C   0  0  0  0  0  3  0  0  0  0  0  0
  -21.9960   -7.0380   21.1840 O   0  0  0  0  0  0  0  0  0  0  0  0
  -21.8720   -6.3040   22.3350 C   0  0  0  0  0  0  0  0  0  0  0  0
  -21.3410   -6.8590   23.5200 C   0  0  0  0  0  3  0  0  0  0  0  0
  -21.1650   -6.0490   24.6600 C   0  0  0  0  0  3  0  0  0  0  0  0
  -21.5100   -4.6860   24.6170 C   0  0  0  0  0  0  0  0  0  0  0  0
  -22.0350   -4.1300   23.4370 C   0  0  0  0  0  3  0  0  0  0  0  0
  -22.2120   -4.9380   22.2980 C   0  0  0  0  0  0  0  0  0  0  0  0
  -22.6980   -4.3910   21.1590 F   0  0  0  0  0  0  0  0  0  0  0  0
  -21.3340   -3.9050   25.7110 F   0  0  0  0  0  0  0  0  0  0  0  0
  -23.1900  -13.6740   21.2140 C   0  0  0  0  0  0  0  0  0  0  0  0
  -22.4930  -12.9460   22.0780 N   0  0  0  0  0  0  0  0  0  0  0  0
  -22.7460  -14.7320   20.7700 O   0  0  0  0  0  0  0  0  0  0  0  0
  -22.8670  -12.0900   22.4630 H   0  0  0  0  0  0  0  0  0  0  0  0
  -21.5730  -13.2500   22.3640 H   0  0  0  0  0  0  0  0  0  0  0  0
  -25.8100  -15.3440   20.3670 N   0  0  0  0  0  0  0  0  0  0  0  0
  -25.0580  -16.0000   20.5470 H   0  0  0  0  0  0  0  0  0  0  0  0
  -26.6440  -15.7870   20.0060 H   0  0  0  0  0  0  0  0  0  0  0  0
  -29.6320  -21.1890   22.6520 N   0  0  0  0  0  0  0  0  0  0  0  0
  -29.9830  -22.1310   22.7670 H   0  0  0  0  0  0  0  0  0  0  0  0
  -29.4050  -20.7400   23.5340 H   0  0  0  0  0  0  0  0  0  0  0  0
  -31.1210  -22.4200   20.3540 C   0  0  0  0  0  2  0  0  0  0  0  0
  -30.0650  -24.6340   19.9450 C   0  0  0  0  0  0  0  0  0  0  0  0
  -29.9800  -23.2920   20.0510 N   0  0  0  0  0  0  0  0  0  0  0  0
  -31.1290  -25.2360   20.1200 O   0  0  0  0  0  0  0  0  0  0  0  0
  -29.0760  -22.8510   19.9450 H   0  0  0  0  0  0  0  0  0  0  0  0
  -28.7860  -25.4140   19.5780 C   0  0  0  0  0  2  0  0  0  0  0  0
  -28.8020  -26.7600   20.1030 O   0  0  0  0  0  0  0  0  0  0  0  0
  -24.7310  -31.6170   23.3830 C   0  0  0  0  0  0  0  0  0  0  0  0
  -27.6100  -27.4670   20.0860 C   0  0  0  0  0  0  0  0  0  0  0  0
  -23.6270  -30.3180   21.5940 C   0  0  0  0  0  3  0  0  0  0  0  0
  -25.1750  -28.9260   20.1190 C   0  0  0  0  0  0  0  0  0  0  0  0
  -26.1520  -30.7400   21.5320 C   0  0  0  0  0  2  0  0  0  0  0  0
  -26.2980  -29.4250   20.7910 C   0  0  0  0  0  0  0  0  0  0  0  0
  -27.5160  -28.7030   20.7730 C   0  0  0  0  0  3  0  0  0  0  0  0
  -26.4630  -26.9920   19.4040 C   0  0  0  0  0  3  0  0  0  0  0  0
  -25.2560  -27.7100   19.4240 C   0  0  0  0  0  3  0  0  0  0  0  0
  -23.9110  -29.7540   20.1770 C   0  0  0  0  0  2  0  0  0  0  0  0
  -24.8510  -30.9040   22.2280 N   0  0  0  0  0  0  0  0  0  0  0  0
  -23.6210  -31.8250   23.8950 O   0  0  0  0  0  0  0  0  0  0  0  0
  -22.9650  -29.2120   22.4460 C   0  0  0  0  0  0  0  0  0  0  0  0
  -21.6490  -29.0180   22.2570 N   0  0  0  0  0  0  0  0  0  0  0  0
  -23.6320  -28.5340   23.2320 O   0  0  0  0  0  0  0  0  0  0  0  0
  -21.1750  -29.6130   21.5920 H   0  0  0  0  0  0  0  0  0  0  0  0
  -18.2750  -27.7590   22.5600 C   0  0  0  0  0  0  0  0  0  0  0  0
  -20.8230  -28.0120   22.9220 C   0  0  0  0  0  3  0  0  0  0  0  0
  -20.9560  -26.6390   22.2240 C   0  0  0  0  0  2  0  0  0  0  0  0
  -19.8820  -26.3970   21.1590 C   0  0  0  0  0  2  0  0  0  0  0  0
  -18.4820  -26.4750   21.7750 C   0  0  0  0  0  2  0  0  0  0  0  0
  -19.3740  -28.4900   23.0830 C   0  0  0  0  0  0  0  0  0  0  0  0
  -19.1260  -29.6970   23.7730 C   0  0  0  0  0  3  0  0  0  0  0  0
  -17.8120  -30.1700   23.9480 C   0  0  0  0  0  3  0  0  0  0  0  0
  -16.7270  -29.4340   23.4400 C   0  0  0  0  0  3  0  0  0  0  0  0
  -16.9600  -28.2300   22.7500 C   0  0  0  0  0  3  0  0  0  0  0  0
  -25.9740  -32.2280   24.1000 C   0  0  0  0  0  3  0  0  0  0  0  0
  -26.3980  -31.4310   25.3940 C   0  0  1  0  0  0  0  0  0  0  0  0
  -25.2350  -31.1860   26.3830 C   0  0  0  0  0  1  0  0  0  0  0  0
  -26.9980  -30.0540   25.0190 C   0  0  0  0  0  1  0  0  0  0  0  0
  -27.5060  -32.2050   26.1460 C   0  0  0  0  0  1  0  0  0  0  0  0
  -25.6530  -33.6230   24.4320 N   0  0  0  0  0  0  0  0  0  0  0  0
  -26.0010  -34.6800   23.6870 C   0  0  0  0  0  0  0  0  0  0  0  0
  -26.6970  -34.5850   22.6730 O   0  0  0  0  0  0  0  0  0  0  0  0
  -25.0380  -33.7700   25.2190 H   0  0  0  0  0  0  0  0  0  0  0  0
  -24.2620  -36.4570   23.3090 C   0  0  0  0  0  1  0  0  0  0  0  0
  -25.4950  -36.0650   24.1370 C   0  0  0  0  0  3  0  0  0  0  0  0
  -27.6040  -36.9740   25.0060 C   0  0  0  0  0  1  0  0  0  0  0  0
  -26.5200  -37.1270   24.0400 N   0  0  0  0  0  0  0  0  0  0  0  0
  -26.1030  -38.0440   24.1730 H   0  0  0  0  0  0  0  0  0  0  0  0
  1  3  1  0
  2  1  2  0
  2  4  1  0
  3 16  1  0
  3  6  2  0
  4  5  2  0
  5  6  1  0
  5 48  1  0
  6  7  1  0
  8 17  1  0
  9 14  1  0
 10 11  1  0
 10  9  1  0
 12 11  1  0
 12 23  1  0
 12 13  1  0
 14  8  1  0
 14 13  1  0
 15  8  2  0
 16 18  2  0
 17 16  1  0
 19 17  1  0
 20 21  2  0
 21 40  1  0
 22 21  1  0
 22 25  1  0
 23 24  1  0
 23 20  1  0
 24 22  2  0
 25 26  1  0
 26 27  2  0
 28 31  1  0
 28 27  1  0
 29 28  2  0
 30 29  1  0
 30 25  2  0
 31 32  1  0
 32 33  1  0
 33 34  2  0
 35 34  1  0
 35 39  1  0
 36 35  2  0
 37 32  2  0
 37 36  1  0
 38 37  1  0
 40 41  1  0
 41 44  1  0
 41 43  1  0
 42 40  2  0
 45 20  1  0
 45 46  1  0
 47 45  1  0
 48 49  1  0
 48 50  1  0
 51  4  1  0
 52 53  1  0
 52 54  2  0
 53 51  1  0
 55 53  1  0
 56 52  1  0
 56 57  1  0
 58 69  2  0
 59 57  1  0
 59 64  1  0
 60 68  1  0
 60 70  1  0
 61 67  1  0
 61 63  1  0
 62 68  1  0
 63 62  1  0
 64 63  2  0
 65 66  1  0
 65 59  2  0
 66 61  2  0
 67 60  1  0
 68 58  1  0
 70 72  2  0
 71 70  1  0
 73 71  1  0
 74 83  2  0
 74 79  1  0
 75 71  1  0
 75 79  1  0
 76 75  1  0
 77 78  1  0
 77 76  1  0
 78 74  1  0
 79 80  2  0
 80 81  1  0
 82 81  2  0
 83 82  1  0
 84 58  1  0
 84 89  1  0
 84 85  1  0
 85 88  1  1
 85 86  1  0
 87 85  1  0
 89 92  1  0
 90 94  1  0
 90 89  1  0
 91 90  2  0
 94 93  1  0
 96 94  1  0
 96 97  1  0
 96 95  1  0
M  ISO  4   8 100  17 100  56 101  57 101
M  END
>  <TORSDO>  (14) 
F 20

>  <SCORE>  (14) 
-11.320

>  <name>  (14) 
13

>  <ligand_id>  (14) 
13

>  <original_smiles>  (14) 
[H]c1c([H])c([H])c2c(c1[H])C([H])([H])C([H])([H])C([H])([H])C2([H])N([H])C(=O)C1([H])N(C(=O)C([H])(N([H])C(=O)C([H])(N([H])C([H])([H])[H])C([H])([H])[H])C(C([H])([H])[H])(C([H])([H])[H])C([H])([H])[H])C([H])([H])c2c([H])c(OC([H])([H])C(=O)N([H])C([H])([H])c3c([H])c([H])c(C(=O)N([H])C(=O)N4C([H])([H])C([H])([H])C([H])([H])C([H])(n5nc(-c6c([H])c([H])c(Oc7c([H])c([H])c(F)c([H])c7F)c([H])c6[H])c(C(=O)N([H])[H])c5N([H])[H])C4([H])[H])c(F)c3N([H])[H])c([H])c([H])c2C1([H])[H]

>  <smiles>  (14) 
[H]c1c([H])c([H])c2c(c1[H])C([H])([H])C([H])([H])C([H])([H])C2([H])N([H])C(=O)C1([H])N(C(=O)C([H])(N([H])C(=O)C([H])(N([H])C([H])([H])[H])C([H])([H])[H])C(C([H])([H])[H])(C([H])([H])[H])C([H])([H])[H])C([H])([H])c2c([H])c(OC([H])([H])C(=O)N([H])C([H])([H])c3c([H])c([H])c(C(=O)N([H])C(=O)N4C([H])([H])C([H])([H])C([H])([H])C([H])(n5nc(-c6c([H])c([H])c(Oc7c([H])c([H])c(F)c([H])c7F)c([H])c6[H])c(C(=O)N([H])[H])c5N([H])[H])C4([H])[H])c(F)c3N([H])[H])c([H])c([H])c2C1([H])[H]

$$$$
14:0:0
     RDKit          3D

 93101  0  0  1  0  0  0  0  0999 V2000
  -28.8210  -22.8850   20.9340 C   0  0  0  0  0  0  0  0  0  0  0  0
  -29.5970  -21.8540   20.5350 N   0  0  0  0  0  0  0  0  0  0  0  0
  -27.7400  -22.7020   21.5020 O   0  0  0  0  0  0  0  0  0  0  0  0
  -30.5370  -22.0740   20.2340 H   0  0  0  0  0  0  0  0  0  0  0  0
  -28.4330  -17.7840   20.0080 C   0  0  0  0  0  3  0  0  0  0  0  0
  -27.9530  -20.1690   19.8030 C   0  0  0  0  0  3  0  0  0  0  0  0
  -30.0390  -19.4280   20.8230 C   0  0  0  0  0  3  0  0  0  0  0  0
  -27.5820  -18.8280   19.5890 C   0  0  0  0  0  0  0  0  0  0  0  0
  -29.6630  -18.0700   20.6450 C   0  0  0  0  0  0  0  0  0  0  0  0
  -29.1880  -20.4870   20.4140 C   0  0  0  0  0  0  0  0  0  0  0  0
  -26.2660  -18.5230   18.9000 C   0  0  0  0  0  1  0  0  0  0  0  0
  -30.6010  -16.9450   21.1170 C   0  0  0  0  0  2  0  0  0  0  0  0
  -30.7550  -14.5170   20.4870 C   0  0  0  0  0  0  0  0  0  0  0  0
  -30.4340  -12.3550   19.3500 C   0  0  0  0  0  2  0  0  0  0  0  0
  -29.4970  -12.5520   18.1420 C   0  0  0  0  0  2  0  0  0  0  0  0
  -28.0220  -12.4220   18.5710 C   0  0  0  0  0  2  0  0  0  0  0  0
  -27.6830  -13.2640   19.8300 C   0  0  0  0  0  3  0  0  0  0  0  0
  -28.7380  -13.0580   20.9400 C   0  0  0  0  0  2  0  0  0  0  0  0
  -30.0610  -13.3530   20.3660 N   0  0  0  0  0  0  0  0  0  0  0  0
  -31.8890  -14.6620   20.0260 O   0  0  0  0  0  0  0  0  0  0  0  0
  -30.0840  -15.5650   21.0040 N   0  0  0  0  0  0  0  0  0  0  0  0
  -29.1360  -15.4020   21.3080 H   0  0  0  0  0  0  0  0  0  0  0  0
  -25.2870  -13.8720   20.5480 C   0  0  0  0  0  0  0  0  0  0  0  0
  -24.2140  -13.1050   20.9070 C   0  0  0  0  0  0  0  0  0  0  0  0
  -24.6690  -11.7520   20.8660 C   0  0  0  0  0  0  0  0  0  0  0  0
  -26.3290  -12.9900   20.3070 N   0  0  0  0  0  0  0  0  0  0  0  0
  -25.9600  -11.7080   20.5580 N   0  0  0  0  0  0  0  0  0  0  0  0
  -23.9360  -10.4940   21.0460 C   0  0  0  0  0  0  0  0  0  0  0  0
  -24.3540   -9.5230   21.9830 C   0  0  0  0  0  3  0  0  0  0  0  0
  -23.6200   -8.3290   22.1500 C   0  0  0  0  0  3  0  0  0  0  0  0
  -22.4560   -8.0990   21.3810 C   0  0  0  0  0  0  0  0  0  0  0  0
  -22.0560   -9.0580   20.4340 C   0  0  0  0  0  3  0  0  0  0  0  0
  -22.7900  -10.2440   20.2640 C   0  0  0  0  0  3  0  0  0  0  0  0
  -21.6940   -6.9580   21.4590 O   0  0  0  0  0  0  0  0  0  0  0  0
  -21.6120   -6.2260   22.6150 C   0  0  0  0  0  0  0  0  0  0  0  0
  -21.1260   -6.7840   23.8180 C   0  0  0  0  0  3  0  0  0  0  0  0
  -20.9920   -5.9760   24.9650 C   0  0  0  0  0  3  0  0  0  0  0  0
  -21.3350   -4.6120   24.9110 C   0  0  0  0  0  0  0  0  0  0  0  0
  -21.8140   -4.0530   23.7130 C   0  0  0  0  0  3  0  0  0  0  0  0
  -21.9500   -4.8570   22.5690 C   0  0  0  0  0  0  0  0  0  0  0  0
  -22.3920   -4.3090   21.4100 F   0  0  0  0  0  0  0  0  0  0  0  0
  -21.1990   -3.8340   26.0100 F   0  0  0  0  0  0  0  0  0  0  0  0
  -22.8200  -13.5900   21.1790 C   0  0  0  0  0  0  0  0  0  0  0  0
  -22.0860  -12.8950   22.0410 N   0  0  0  0  0  0  0  0  0  0  0  0
  -22.3890  -14.6200   20.6620 O   0  0  0  0  0  0  0  0  0  0  0  0
  -22.4500  -12.0640   22.4830 H   0  0  0  0  0  0  0  0  0  0  0  0
  -21.1480  -13.1990   22.2620 H   0  0  0  0  0  0  0  0  0  0  0  0
  -25.4520  -15.2420   20.3920 N   0  0  0  0  0  0  0  0  0  0  0  0
  -24.6810  -15.8880   20.5170 H   0  0  0  0  0  0  0  0  0  0  0  0
  -26.3020  -15.6920   20.0790 H   0  0  0  0  0  0  0  0  0  0  0  0
  -29.3210  -24.3370   20.7220 C   0  0  0  0  0  2  0  0  0  0  0  0
  -28.2190  -25.2470   20.1090 C   0  0  0  0  0  2  0  0  0  0  0  0
  -28.4030  -26.6740   20.2630 O   0  0  0  0  0  0  0  0  0  0  0  0
  -24.5780  -31.8880   23.2780 C   0  0  0  0  0  0  0  0  0  0  0  0
  -27.2480  -27.4410   20.2030 C   0  0  0  0  0  0  0  0  0  0  0  0
  -23.3850  -30.4880   21.6280 C   0  0  0  0  0  3  0  0  0  0  0  0
  -24.8510  -28.9660   20.2000 C   0  0  0  0  0  0  0  0  0  0  0  0
  -25.9160  -30.8500   21.4450 C   0  0  0  0  0  2  0  0  0  0  0  0
  -26.0080  -29.4810   20.7980 C   0  0  0  0  0  0  0  0  0  0  0  0
  -27.2090  -28.7270   20.7950 C   0  0  0  0  0  3  0  0  0  0  0  0
  -26.0700  -26.9600   19.5790 C   0  0  0  0  0  3  0  0  0  0  0  0
  -24.8780  -27.7050   19.5860 C   0  0  0  0  0  3  0  0  0  0  0  0
  -23.6030  -29.8180   20.2470 C   0  0  0  0  0  2  0  0  0  0  0  0
  -24.6450  -31.0900   22.1750 N   0  0  0  0  0  0  0  0  0  0  0  0
  -23.4930  -32.1560   23.8140 O   0  0  0  0  0  0  0  0  0  0  0  0
  -22.7330  -29.4580   22.5800 C   0  0  0  0  0  0  0  0  0  0  0  0
  -21.4110  -29.2660   22.4410 N   0  0  0  0  0  0  0  0  0  0  0  0
  -23.4150  -28.8370   23.4000 O   0  0  0  0  0  0  0  0  0  0  0  0
  -20.9180  -29.8200   21.7530 H   0  0  0  0  0  0  0  0  0  0  0  0
  -18.0420  -28.0510   22.9090 C   0  0  0  0  0  0  0  0  0  0  0  0
  -20.5940  -28.3200   23.2030 C   0  0  0  0  0  3  0  0  0  0  0  0
  -20.7090  -26.8910   22.6230 C   0  0  0  0  0  2  0  0  0  0  0  0
  -19.6180  -26.5680   21.5970 C   0  0  0  0  0  2  0  0  0  0  0  0
  -18.2290  -26.7050   22.2280 C   0  0  0  0  0  2  0  0  0  0  0  0
  -19.1530  -28.8170   23.3510 C   0  0  0  0  0  0  0  0  0  0  0  0
  -18.9240  -30.0770   23.9450 C   0  0  0  0  0  3  0  0  0  0  0  0
  -17.6150  -30.5710   24.0980 C   0  0  0  0  0  3  0  0  0  0  0  0
  -16.5190  -29.8030   23.6730 C   0  0  0  0  0  3  0  0  0  0  0  0
  -16.7320  -28.5460   23.0810 C   0  0  0  0  0  3  0  0  0  0  0  0
  -25.8580  -32.5240   23.9030 C   0  0  0  0  0  3  0  0  0  0  0  0
  -26.3610  -31.7660   25.1940 C   0  0  1  0  0  0  0  0  0  0  0  0
  -25.2560  -31.5400   26.2520 C   0  0  0  0  0  1  0  0  0  0  0  0
  -26.9450  -30.3840   24.8220 C   0  0  0  0  0  1  0  0  0  0  0  0
  -27.5020  -32.5670   25.8630 C   0  0  0  0  0  1  0  0  0  0  0  0
  -25.5520  -33.9260   24.2110 N   0  0  0  0  0  0  0  0  0  0  0  0
  -25.8890  -34.9670   23.4370 C   0  0  0  0  0  0  0  0  0  0  0  0
  -26.5650  -34.8460   22.4110 O   0  0  0  0  0  0  0  0  0  0  0  0
  -24.9510  -34.0940   25.0060 H   0  0  0  0  0  0  0  0  0  0  0  0
  -24.1690  -36.7580   23.0400 C   0  0  0  0  0  1  0  0  0  0  0  0
  -25.4020  -36.3620   23.8700 C   0  0  0  0  0  3  0  0  0  0  0  0
  -27.5250  -37.2560   24.7170 C   0  0  0  0  0  1  0  0  0  0  0  0
  -26.4380  -37.4100   23.7550 N   0  0  0  0  0  0  0  0  0  0  0  0
  -26.0310  -38.3330   23.8820 H   0  0  0  0  0  0  0  0  0  0  0  0
  1  3  2  0
  2  1  1  0
  4  2  1  0
  5  9  1  0
  6 10  2  0
  8  6  1  0
  8  5  2  0
  9  7  2  0
  9 12  1  0
 10  2  1  0
 10  7  1  0
 11  8  1  0
 13 21  1  0
 14 19  1  0
 15 16  1  0
 15 14  1  0
 17 16  1  0
 17 26  1  0
 17 18  1  0
 19 13  1  0
 19 18  1  0
 20 13  2  0
 21 12  1  0
 21 22  1  0
 23 24  2  0
 24 43  1  0
 25 24  1  0
 25 28  1  0
 26 23  1  0
 26 27  1  0
 27 25  2  0
 28 29  1  0
 29 30  2  0
 31 34  1  0
 31 30  1  0
 32 31  2  0
 33 32  1  0
 33 28  2  0
 34 35  1  0
 35 36  1  0
 36 37  2  0
 38 37  1  0
 38 42  1  0
 39 38  2  0
 40 35  2  0
 40 39  1  0
 41 40  1  0
 43 44  1  0
 44 47  1  0
 44 46  1  0
 45 43  2  0
 48 49  1  0
 48 23  1  0
 50 48  1  0
 51  1  1  0
 52 53  1  0
 52 51  1  0
 54 65  2  0
 55 53  1  0
 55 60  1  0
 56 64  1  0
 56 66  1  0
 57 63  1  0
 57 59  1  0
 58 64  1  0
 59 58  1  0
 60 59  2  0
 61 62  1  0
 61 55  2  0
 62 57  2  0
 63 56  1  0
 64 54  1  0
 66 68  2  0
 67 66  1  0
 69 67  1  0
 70 79  2  0
 70 75  1  0
 71 67  1  0
 71 75  1  0
 72 71  1  0
 73 74  1  0
 73 72  1  0
 74 70  1  0
 75 76  2  0
 76 77  1  0
 78 77  2  0
 79 78  1  0
 80 54  1  0
 80 85  1  0
 80 81  1  0
 81 84  1  1
 81 82  1  0
 83 81  1  0
 85 88  1  0
 86 90  1  0
 86 85  1  0
 87 86  2  0
 90 89  1  0
 92 90  1  0
 92 93  1  0
 92 91  1  0
M  ISO  4  13 100  21 100  52 101  53 101
M  END
>  <TORSDO>  (15) 
F 20

>  <SCORE>  (15) 
-13.826

>  <name>  (15) 
14

>  <ligand_id>  (15) 
14

>  <original_smiles>  (15) 
[H]c1c([H])c([H])c2c(c1[H])C([H])([H])C([H])([H])C([H])([H])C2([H])N([H])C(=O)C1([H])N(C(=O)C([H])(N([H])C(=O)C([H])(N([H])C([H])([H])[H])C([H])([H])[H])C(C([H])([H])[H])(C([H])([H])[H])C([H])([H])[H])C([H])([H])c2c([H])c(OC([H])([H])C([H])([H])C(=O)N([H])c3c([H])c(C([H])([H])[H])c([H])c(C([H])([H])N([H])C(=O)N4C([H])([H])C([H])([H])C([H])([H])C([H])(n5nc(-c6c([H])c([H])c(Oc7c([H])c([H])c(F)c([H])c7F)c([H])c6[H])c(C(=O)N([H])[H])c5N([H])[H])C4([H])[H])c3[H])c([H])c([H])c2C1([H])[H]

>  <smiles>  (15) 
[H]c1c([H])c([H])c2c(c1[H])C([H])([H])C([H])([H])C([H])([H])C2([H])N([H])C(=O)C1([H])N(C(=O)C([H])(N([H])C(=O)C([H])(N([H])C([H])([H])[H])C([H])([H])[H])C(C([H])([H])[H])(C([H])([H])[H])C([H])([H])[H])C([H])([H])c2c([H])c(OC([H])([H])C([H])([H])C(=O)N([H])c3c([H])c(C([H])([H])[H])c([H])c(C([H])([H])N([H])C(=O)N4C([H])([H])C([H])([H])C([H])([H])C([H])(n5nc(-c6c([H])c([H])c(Oc7c([H])c([H])c(F)c([H])c7F)c([H])c6[H])c(C(=O)N([H])[H])c5N([H])[H])C4([H])[H])c3[H])c([H])c([H])c2C1([H])[H]

$$$$
15:0:0
     RDKit          3D

 92100  0  0  1  0  0  0  0  0999 V2000
  -28.5570  -23.8390   20.0580 C   0  0  0  0  0  0  0  0  0  0  0  0
  -28.8160  -22.6240   20.7120 N   0  0  0  0  0  0  0  0  0  0  0  0
  -28.5810  -23.9030   18.8260 O   0  0  0  0  0  0  0  0  0  0  0  0
  -28.9630  -22.7250   21.7070 H   0  0  0  0  0  0  0  0  0  0  0  0
  -27.8140  -19.6040   18.6340 C   0  0  0  0  0  3  0  0  0  0  0  0
  -27.9600  -20.9130   19.1210 C   0  0  0  0  0  3  0  0  0  0  0  0
  -29.4560  -20.0430   20.8230 C   0  0  0  0  0  3  0  0  0  0  0  0
  -29.3310  -18.6580   20.3440 C   0  0  0  0  0  0  0  0  0  0  0  0
  -28.4800  -18.4990   19.2090 C   0  0  0  0  0  0  0  0  0  0  0  0
  -28.7860  -21.2050   20.2240 C   0  0  0  0  0  0  0  0  0  0  0  0
  -28.2750  -17.1570   18.5130 C   0  0  0  0  0  1  0  0  0  0  0  0
  -30.1130  -17.3910   20.8750 C   0  0  0  0  0  2  0  0  0  0  0  0
  -29.7190  -16.1250   20.9530 N   0  0  0  0  0  2  0  0  0  0  0  0
  -30.6360  -15.0060   20.9470 C   0  0  0  0  0  0  0  0  0  0  0  0
  -30.6070  -12.7240   19.9240 C   0  0  0  0  0  2  0  0  0  0  0  0
  -29.7640  -12.8000   18.6300 C   0  0  0  0  0  2  0  0  0  0  0  0
  -28.2680  -12.5810   18.9330 C   0  0  0  0  0  2  0  0  0  0  0  0
  -27.7760  -13.4290   20.1350 C   0  0  0  0  0  3  0  0  0  0  0  0
  -28.7470  -13.3500   21.3290 C   0  0  0  0  0  2  0  0  0  0  0  0
  -30.0810  -13.7450   20.8610 N   0  0  0  0  0  0  0  0  0  0  0  0
  -31.8560  -15.1120   20.7980 O   0  0  0  0  0  0  0  0  0  0  0  0
  -25.3170  -13.9380   20.6560 C   0  0  0  0  0  0  0  0  0  0  0  0
  -24.2520  -13.1310   20.9450 C   0  0  0  0  0  0  0  0  0  0  0  0
  -24.7660  -11.7970   20.9800 C   0  0  0  0  0  0  0  0  0  0  0  0
  -26.4080  -13.0950   20.5190 N   0  0  0  0  0  0  0  0  0  0  0  0
  -26.0780  -11.8040   20.7800 N   0  0  0  0  0  0  0  0  0  0  0  0
  -24.0720  -10.5110   21.1320 C   0  0  0  0  0  0  0  0  0  0  0  0
  -24.4430   -9.5850   22.1330 C   0  0  0  0  0  3  0  0  0  0  0  0
  -23.7480   -8.3650   22.2690 C   0  0  0  0  0  3  0  0  0  0  0  0
  -22.6690   -8.0600   21.4060 C   0  0  0  0  0  0  0  0  0  0  0  0
  -22.3180   -8.9770   20.3990 C   0  0  0  0  0  3  0  0  0  0  0  0
  -23.0130  -10.1890   20.2600 C   0  0  0  0  0  3  0  0  0  0  0  0
  -21.9530   -6.8880   21.4510 O   0  0  0  0  0  0  0  0  0  0  0  0
  -21.8000   -6.1810   22.6160 C   0  0  0  0  0  0  0  0  0  0  0  0
  -21.1690   -6.7410   23.7490 C   0  0  0  0  0  3  0  0  0  0  0  0
  -20.9670   -5.9550   24.9020 C   0  0  0  0  0  3  0  0  0  0  0  0
  -21.3880   -4.6130   24.9230 C   0  0  0  0  0  0  0  0  0  0  0  0
  -22.0150   -4.0530   23.7950 C   0  0  0  0  0  3  0  0  0  0  0  0
  -22.2160   -4.8350   22.6440 C   0  0  0  0  0  0  0  0  0  0  0  0
  -22.7990   -4.2850   21.5510 F   0  0  0  0  0  0  0  0  0  0  0  0
  -21.1900   -3.8550   26.0260 F   0  0  0  0  0  0  0  0  0  0  0  0
  -22.8210  -13.5580   21.0880 C   0  0  0  0  0  0  0  0  0  0  0  0
  -22.0450  -12.8490   21.9000 N   0  0  0  0  0  0  0  0  0  0  0  0
  -22.3940  -14.5600   20.5140 O   0  0  0  0  0  0  0  0  0  0  0  0
  -22.4020  -12.0410   22.3890 H   0  0  0  0  0  0  0  0  0  0  0  0
  -21.0820  -13.1190   22.0360 H   0  0  0  0  0  0  0  0  0  0  0  0
  -25.4500  -15.3110   20.4770 N   0  0  0  0  0  0  0  0  0  0  0  0
  -24.6680  -15.9520   20.5550 H   0  0  0  0  0  0  0  0  0  0  0  0
  -26.3330  -15.7760   20.3010 H   0  0  0  0  0  0  0  0  0  0  0  0
  -29.1540  -25.3750   22.0680 C   0  0  0  0  0  1  0  0  0  0  0  0
  -28.2290  -25.2100   20.8530 C   0  0  0  0  0  3  0  0  0  0  0  0
  -28.2940  -26.5260   20.1110 O   0  0  0  0  0  0  0  0  0  0  0  0
  -24.6170  -31.9610   23.3040 C   0  0  0  0  0  0  0  0  0  0  0  0
  -27.1910  -27.4100   20.1560 C   0  0  0  0  0  0  0  0  0  0  0  0
  -23.3950  -30.5830   21.6610 C   0  0  0  0  0  3  0  0  0  0  0  0
  -24.8300  -29.0490   20.1940 C   0  0  0  0  0  0  0  0  0  0  0  0
  -25.9330  -30.9020   21.4460 C   0  0  0  0  0  2  0  0  0  0  0  0
  -26.0090  -29.5250   20.7800 C   0  0  0  0  0  0  0  0  0  0  0  0
  -27.1960  -28.7220   20.7430 C   0  0  0  0  0  3  0  0  0  0  0  0
  -25.9880  -26.9960   19.5490 C   0  0  0  0  0  3  0  0  0  0  0  0
  -24.8230  -27.7920   19.5660 C   0  0  0  0  0  3  0  0  0  0  0  0
  -23.5920  -29.9270   20.2690 C   0  0  0  0  0  2  0  0  0  0  0  0
  -24.6680  -31.1660   22.1940 N   0  0  0  0  0  0  0  0  0  0  0  0
  -23.5410  -32.2280   23.8580 O   0  0  0  0  0  0  0  0  0  0  0  0
  -22.7450  -29.5530   22.6170 C   0  0  0  0  0  0  0  0  0  0  0  0
  -21.4240  -29.3430   22.4780 N   0  0  0  0  0  0  0  0  0  0  0  0
  -23.4310  -28.9450   23.4430 O   0  0  0  0  0  0  0  0  0  0  0  0
  -20.9290  -29.8890   21.7870 H   0  0  0  0  0  0  0  0  0  0  0  0
  -18.0790  -28.0400   22.9290 C   0  0  0  0  0  0  0  0  0  0  0  0
  -20.6230  -28.3860   23.2410 C   0  0  0  0  0  3  0  0  0  0  0  0
  -20.7810  -26.9530   22.6780 C   0  0  0  0  0  2  0  0  0  0  0  0
  -19.7080  -26.5890   21.6470 C   0  0  0  0  0  2  0  0  0  0  0  0
  -18.3110  -26.6920   22.2660 C   0  0  0  0  0  2  0  0  0  0  0  0
  -19.1650  -28.8410   23.3730 C   0  0  0  0  0  0  0  0  0  0  0  0
  -18.8940  -30.0990   23.9530 C   0  0  0  0  0  3  0  0  0  0  0  0
  -17.5710  -30.5580   24.0930 C   0  0  0  0  0  3  0  0  0  0  0  0
  -16.4990  -29.7550   23.6650 C   0  0  0  0  0  3  0  0  0  0  0  0
  -16.7540  -28.4980   23.0890 C   0  0  0  0  0  3  0  0  0  0  0  0
  -25.9060  -32.5900   23.9190 C   0  0  0  0  0  3  0  0  0  0  0  0
  -26.4190  -31.8240   25.1990 C   0  0  1  0  0  0  0  0  0  0  0  0
  -25.3260  -31.6010   26.2700 C   0  0  0  0  0  1  0  0  0  0  0  0
  -26.9940  -30.4400   24.8170 C   0  0  0  0  0  1  0  0  0  0  0  0
  -27.5750  -32.6160   25.8560 C   0  0  0  0  0  1  0  0  0  0  0  0
  -25.6060  -33.9920   24.2440 N   0  0  0  0  0  0  0  0  0  0  0  0
  -25.9600  -35.0420   23.4910 C   0  0  0  0  0  0  0  0  0  0  0  0
  -26.6420  -34.9310   22.4680 O   0  0  0  0  0  0  0  0  0  0  0  0
  -25.0060  -34.1530   25.0390 H   0  0  0  0  0  0  0  0  0  0  0  0
  -24.2810  -36.8720   23.0870 C   0  0  0  0  0  1  0  0  0  0  0  0
  -25.4820  -36.4360   23.9420 C   0  0  0  0  0  3  0  0  0  0  0  0
  -27.5930  -37.2780   24.8720 C   0  0  0  0  0  1  0  0  0  0  0  0
  -26.5380  -37.4700   23.8790 N   0  0  0  0  0  0  0  0  0  0  0  0
  -26.1430  -38.3960   24.0120 H   0  0  0  0  0  0  0  0  0  0  0  0
  1  2  1  0
  1 51  1  0
  2  4  1  0
  3  1  2  0
  5  6  2  0
  5  9  1  0
  6 10  1  0
  8  7  1  0
  8 12  1  0
  9  8  2  0
 10  2  1  0
 10  7  2  0
 11  9  1  0
 12 13  1  0
 14 13  1  0
 15 20  1  0
 16 17  1  0
 16 15  1  0
 18 17  1  0
 18 25  1  0
 18 19  1  0
 20 14  1  0
 20 19  1  0
 21 14  2  0
 22 23  2  0
 23 24  1  0
 23 42  1  0
 24 27  1  0
 25 22  1  0
 25 26  1  0
 26 24  2  0
 27 28  1  0
 28 29  2  0
 30 33  1  0
 30 29  1  0
 31 30  2  0
 32 31  1  0
 32 27  2  0
 33 34  1  0
 34 39  2  0
 34 35  1  0
 35 36  2  0
 36 37  1  0
 37 41  1  0
 38 37  2  0
 39 38  1  0
 40 39  1  0
 42 43  1  0
 43 46  1  0
 43 45  1  0
 44 42  2  0
 47 48  1  0
 47 22  1  0
 49 47  1  0
 51 50  1  0
 52 54  1  0
 52 51  1  0
 53 64  2  0
 54 59  1  0
 55 63  1  0
 55 65  1  0
 56 62  1  0
 56 58  1  0
 57 63  1  0
 58 57  1  0
 59 58  2  0
 60 61  1  0
 60 54  2  0
 61 56  2  0
 62 55  1  0
 63 53  1  0
 65 67  2  0
 66 65  1  0
 68 66  1  0
 69 78  2  0
 69 74  1  0
 70 66  1  0
 70 74  1  0
 71 70  1  0
 72 73  1  0
 72 71  1  0
 73 69  1  0
 74 75  2  0
 75 76  1  0
 77 76  2  0
 78 77  1  0
 79 53  1  0
 79 84  1  0
 79 80  1  0
 80 83  1  1
 80 81  1  0
 82 80  1  0
 84 87  1  0
 85 89  1  0
 85 84  1  0
 86 85  2  0
 89 88  1  0
 91 89  1  0
 91 92  1  0
 91 90  1  0
M  ISO  4  13 100  14 100  51 101  52 101
M  END
>  <TORSDO>  (16) 
F 19

>  <SCORE>  (16) 
-14.361

>  <name>  (16) 
15

>  <ligand_id>  (16) 
15

>  <original_smiles>  (16) 
[H]C(=NC(=O)N1C([H])([H])C([H])([H])C([H])([H])C([H])(n2nc(-c3c([H])c([H])c(Oc4c([H])c([H])c(F)c([H])c4F)c([H])c3[H])c(C(=O)N([H])[H])c2N([H])[H])C1([H])[H])c1c([H])c(N([H])C(=O)C([H])(Oc2c([H])c([H])c3c(c2[H])C([H])([H])N(C(=O)C([H])(N([H])C(=O)C([H])(N([H])C([H])([H])[H])C([H])([H])[H])C(C([H])([H])[H])(C([H])([H])[H])C([H])([H])[H])C([H])(C(=O)N([H])C2([H])c4c([H])c([H])c([H])c([H])c4C([H])([H])C([H])([H])C2([H])[H])C3([H])[H])C([H])([H])[H])c([H])c([H])c1C([H])([H])[H]

>  <smiles>  (16) 
[H]C(=NC(=O)N1C([H])([H])C([H])([H])C([H])([H])C([H])(n2nc(-c3c([H])c([H])c(Oc4c([H])c([H])c(F)c([H])c4F)c([H])c3[H])c(C(=O)N([H])[H])c2N([H])[H])C1([H])[H])c1c([H])c(N([H])C(=O)C([H])(Oc2c([H])c([H])c3c(c2[H])C([H])([H])N(C(=O)C([H])(N([H])C(=O)C([H])(N([H])C([H])([H])[H])C([H])([H])[H])C(C([H])([H])[H])(C([H])([H])[H])C([H])([H])[H])C([H])(C(=O)N([H])C2([H])c4c([H])c([H])c([H])c([H])c4C([H])([H])C([H])([H])C2([H])[H])C3([H])[H])C([H])([H])[H])c([H])c([H])c1C([H])([H])[H]

$$$$
16:0:0
     RDKit          3D

 96104  0  0  1  0  0  0  0  0999 V2000
  -28.9650  -23.4110   19.8200 C   0  0  0  0  0  0  0  0  0  0  0  0
  -29.4450  -22.1990   19.3810 N   0  0  0  0  0  0  0  0  0  0  0  0
  -28.2740  -23.5220   20.8350 O   0  0  0  0  0  0  0  0  0  0  0  0
  -30.2480  -22.2720   18.7720 H   0  0  0  0  0  0  0  0  0  0  0  0
  -27.2120  -19.2630   20.2160 C   0  0  0  0  0  3  0  0  0  0  0  0
  -27.6850  -20.5790   20.0990 C   0  0  0  0  0  3  0  0  0  0  0  0
  -29.7900  -19.6900   19.2770 C   0  0  0  0  0  3  0  0  0  0  0  0
  -29.3430  -18.3230   19.4110 C   0  0  0  0  0  0  0  0  0  0  0  0
  -27.9960  -18.1440   19.8530 C   0  0  0  0  0  0  0  0  0  0  0  0
  -28.9800  -20.8350   19.6050 C   0  0  0  0  0  0  0  0  0  0  0  0
  -27.3140  -16.7960   19.9900 C   0  0  0  0  0  1  0  0  0  0  0  0
  -30.8260  -14.7420   19.5770 C   0  0  0  0  0  0  0  0  0  0  0  0
  -30.6200  -12.3570   18.9600 C   0  0  0  0  0  2  0  0  0  0  0  0
  -29.6410  -12.2730   17.7700 C   0  0  0  0  0  2  0  0  0  0  0  0
  -28.1980  -12.1170   18.2880 C   0  0  0  0  0  2  0  0  0  0  0  0
  -27.8390  -13.1510   19.3880 C   0  0  0  0  0  3  0  0  0  0  0  0
  -28.9550  -13.2580   20.4550 C   0  0  0  0  0  2  0  0  0  0  0  0
  -30.2150  -13.5300   19.7570 N   0  0  0  0  0  0  0  0  0  0  0  0
  -32.0120  -14.7860   19.2440 O   0  0  0  0  0  0  0  0  0  0  0  0
  -30.3350  -17.1490   19.2070 C   0  0  0  0  0  0  0  0  0  0  0  0
  -30.0230  -15.8580   19.5660 N   0  0  0  0  0  0  0  0  0  0  0  0
  -31.4180  -17.4440   18.6870 O   0  0  0  0  0  0  0  0  0  0  0  0
  -29.0750  -15.7120   19.8650 H   0  0  0  0  0  0  0  0  0  0  0  0
  -25.4990  -13.7500   20.2720 C   0  0  0  0  0  0  0  0  0  0  0  0
  -24.4700  -12.9830   20.7390 C   0  0  0  0  0  0  0  0  0  0  0  0
  -24.9320  -11.6340   20.6930 C   0  0  0  0  0  0  0  0  0  0  0  0
  -26.5360  -12.8750   19.9850 N   0  0  0  0  0  0  0  0  0  0  0  0
  -26.1990  -11.5940   20.2970 N   0  0  0  0  0  0  0  0  0  0  0  0
  -24.2140  -10.3770   20.9370 C   0  0  0  0  0  0  0  0  0  0  0  0
  -24.6290   -9.4780   21.9430 C   0  0  0  0  0  3  0  0  0  0  0  0
  -23.9110   -8.2840   22.1750 C   0  0  0  0  0  3  0  0  0  0  0  0
  -22.7660   -7.9820   21.4000 C   0  0  0  0  0  0  0  0  0  0  0  0
  -22.3710   -8.8710   20.3840 C   0  0  0  0  0  3  0  0  0  0  0  0
  -23.0890  -10.0560   20.1510 C   0  0  0  0  0  3  0  0  0  0  0  0
  -22.0200   -6.8370   21.5380 O   0  0  0  0  0  0  0  0  0  0  0  0
  -21.8350   -6.2420   22.7590 C   0  0  0  0  0  0  0  0  0  0  0  0
  -21.2520   -6.9330   23.8450 C   0  0  0  0  0  3  0  0  0  0  0  0
  -21.0170   -6.2640   25.0610 C   0  0  0  0  0  3  0  0  0  0  0  0
  -21.3530   -4.9030   25.1920 C   0  0  0  0  0  0  0  0  0  0  0  0
  -21.9300   -4.2120   24.1120 C   0  0  0  0  0  3  0  0  0  0  0  0
  -22.1660   -4.8790   22.8980 C   0  0  0  0  0  0  0  0  0  0  0  0
  -22.7000   -4.2020   21.8530 F   0  0  0  0  0  0  0  0  0  0  0  0
  -21.1200   -4.2570   26.3590 F   0  0  0  0  0  0  0  0  0  0  0  0
  -23.0980  -13.4700   21.1070 C   0  0  0  0  0  0  0  0  0  0  0  0
  -22.4390  -12.8000   22.0460 N   0  0  0  0  0  0  0  0  0  0  0  0
  -22.6210  -14.4840   20.5970 O   0  0  0  0  0  0  0  0  0  0  0  0
  -22.8390  -11.9830   22.4870 H   0  0  0  0  0  0  0  0  0  0  0  0
  -21.5220  -13.1100   22.3310 H   0  0  0  0  0  0  0  0  0  0  0  0
  -25.6160  -15.1140   20.0410 N   0  0  0  0  0  0  0  0  0  0  0  0
  -24.8170  -15.7210   20.1680 H   0  0  0  0  0  0  0  0  0  0  0  0
  -26.3640  -15.5570   19.5260 H   0  0  0  0  0  0  0  0  0  0  0  0
  -29.2040  -25.8990   19.2210 C   0  0  0  0  0  3  0  0  0  0  0  0
  -29.3720  -24.5570   18.9670 C   0  0  0  0  0  0  0  0  0  0  0  0
  -29.9270  -24.2600   17.7830 O   0  0  0  0  0  0  0  0  0  0  0  0
  -29.7840  -23.3340   17.6310 H   0  0  0  0  0  0  0  0  0  0  0  0
  -28.6950  -26.5600   20.3320 O   0  0  0  0  0  0  0  0  0  0  0  0
  -24.7080  -31.7820   23.2320 C   0  0  0  0  0  0  0  0  0  0  0  0
  -27.5620  -27.3630   20.2120 C   0  0  0  0  0  0  0  0  0  0  0  0
  -23.5940  -30.3620   21.5430 C   0  0  0  0  0  3  0  0  0  0  0  0
  -25.1330  -28.8600   20.1570 C   0  0  0  0  0  0  0  0  0  0  0  0
  -26.1270  -30.7560   21.4490 C   0  0  0  0  0  2  0  0  0  0  0  0
  -26.2650  -29.3910   20.7900 C   0  0  0  0  0  0  0  0  0  0  0  0
  -27.4790  -28.6490   20.8140 C   0  0  0  0  0  3  0  0  0  0  0  0
  -26.4040  -26.8600   19.5770 C   0  0  0  0  0  3  0  0  0  0  0  0
  -25.2000  -27.5920   19.5500 C   0  0  0  0  0  3  0  0  0  0  0  0
  -23.8750  -29.7000   20.1680 C   0  0  0  0  0  2  0  0  0  0  0  0
  -24.8230  -30.9830   22.1320 N   0  0  0  0  0  0  0  0  0  0  0  0
  -23.6020  -32.0250   23.7370 O   0  0  0  0  0  0  0  0  0  0  0  0
  -22.9290  -29.3240   22.4770 C   0  0  0  0  0  0  0  0  0  0  0  0
  -21.6120  -29.1160   22.3070 N   0  0  0  0  0  0  0  0  0  0  0  0
  -23.5960  -28.7100   23.3140 O   0  0  0  0  0  0  0  0  0  0  0  0
  -21.1310  -29.6600   21.6030 H   0  0  0  0  0  0  0  0  0  0  0  0
  -18.2520  -27.8220   22.7040 C   0  0  0  0  0  0  0  0  0  0  0  0
  -20.7950  -28.1500   23.0410 C   0  0  0  0  0  3  0  0  0  0  0  0
  -20.9520  -26.7290   22.4540 C   0  0  0  0  0  2  0  0  0  0  0  0
  -19.8780  -26.3700   21.4240 C   0  0  0  0  0  2  0  0  0  0  0  0
  -18.4820  -26.4740   22.0420 C   0  0  0  0  0  2  0  0  0  0  0  0
  -19.3380  -28.6140   23.1650 C   0  0  0  0  0  0  0  0  0  0  0  0
  -19.0660  -29.8660   23.7600 C   0  0  0  0  0  3  0  0  0  0  0  0
  -17.7430  -30.3260   23.8940 C   0  0  0  0  0  3  0  0  0  0  0  0
  -16.6730  -29.5350   23.4420 C   0  0  0  0  0  3  0  0  0  0  0  0
  -16.9270  -28.2830   22.8530 C   0  0  0  0  0  3  0  0  0  0  0  0
  -25.9540  -32.4440   23.8930 C   0  0  0  0  0  3  0  0  0  0  0  0
  -26.4400  -31.6920   25.1950 C   0  0  1  0  0  0  0  0  0  0  0  0
  -25.3080  -31.4350   26.2190 C   0  0  0  0  0  1  0  0  0  0  0  0
  -27.0780  -30.3260   24.8430 C   0  0  0  0  0  1  0  0  0  0  0  0
  -27.5410  -32.5230   25.9000 C   0  0  0  0  0  1  0  0  0  0  0  0
  -25.6070  -33.8370   24.2020 N   0  0  0  0  0  0  0  0  0  0  0  0
  -25.9320  -34.8880   23.4390 C   0  0  0  0  0  0  0  0  0  0  0  0
  -26.6280  -34.7920   22.4240 O   0  0  0  0  0  0  0  0  0  0  0  0
  -24.9930  -33.9860   24.9890 H   0  0  0  0  0  0  0  0  0  0  0  0
  -24.1710  -36.6380   23.0250 C   0  0  0  0  0  1  0  0  0  0  0  0
  -25.4020  -36.2690   23.8690 C   0  0  0  0  0  3  0  0  0  0  0  0
  -27.4950  -37.2150   24.7390 C   0  0  0  0  0  1  0  0  0  0  0  0
  -26.4090  -37.3470   23.7710 N   0  0  0  0  0  0  0  0  0  0  0  0
  -25.9780  -38.2570   23.9020 H   0  0  0  0  0  0  0  0  0  0  0  0
  1  3  2  0
  2 10  1  0
  2  1  1  0
  4  2  1  0
  6  5  1  0
  7  8  2  0
  7 10  1  0
  8  9  1  0
  9 11  1  0
  9  5  2  0
 10  6  2  0
 12 18  1  0
 13 18  1  0
 14 15  1  0
 14 13  1  0
 16 15  1  0
 16 27  1  0
 16 17  1  0
 18 17  1  0
 19 12  2  0
 20  8  1  0
 20 21  1  0
 21 12  1  0
 21 23  1  0
 22 20  2  0
 24 25  2  0
 25 44  1  0
 26 25  1  0
 26 29  1  0
 27 24  1  0
 27 28  1  0
 28 26  2  0
 29 30  1  0
 30 31  2  0
 32 35  1  0
 32 31  1  0
 33 32  2  0
 34 33  1  0
 34 29  2  0
 35 36  1  0
 36 41  2  0
 36 37  1  0
 37 38  2  0
 38 39  1  0
 39 43  1  0
 40 39  2  0
 41 40  1  0
 42 41  1  0
 44 45  1  0
 45 48  1  0
 45 47  1  0
 46 44  2  0
 49 50  1  0
 49 24  1  0
 51 49  1  0
 52 56  1  0
 53 52  2  0
 53  1  1  0
 54 53  1  0
 55 54  1  0
 57 68  2  0
 58 56  1  0
 58 63  1  0
 59 67  1  0
 59 69  1  0
 60 66  1  0
 60 62  1  0
 61 67  1  0
 62 63  2  0
 62 61  1  0
 64 58  2  0
 65 64  1  0
 65 60  2  0
 66 59  1  0
 67 57  1  0
 69 71  2  0
 70 69  1  0
 72 70  1  0
 73 82  2  0
 73 78  1  0
 74 70  1  0
 74 78  1  0
 75 74  1  0
 76 77  1  0
 76 75  1  0
 77 73  1  0
 78 79  2  0
 79 80  1  0
 81 80  2  0
 82 81  1  0
 83 57  1  0
 83 88  1  0
 83 84  1  0
 84 87  1  1
 84 85  1  0
 86 84  1  0
 88 91  1  0
 89 93  1  0
 89 88  1  0
 90 89  2  0
 93 92  1  0
 95 93  1  0
 95 96  1  0
 95 94  1  0
M  ISO  4  12 100  21 100  52 101  56 101
M  END
>  <TORSDO>  (17) 
F 19

>  <SCORE>  (17) 
-13.510

>  <name>  (17) 
16

>  <ligand_id>  (17) 
16

>  <original_smiles>  (17) 
[H]OC(C(=O)N([H])c1c([H])c([H])c(C([H])([H])[H])c(C(=O)N([H])C(=O)N2C([H])([H])C([H])([H])C([H])([H])C([H])(n3nc(-c4c([H])c([H])c(Oc5c([H])c([H])c(F)c([H])c5F)c([H])c4[H])c(C(=O)N([H])[H])c3N([H])[H])C2([H])[H])c1[H])=C([H])Oc1c([H])c([H])c2c(c1[H])C([H])([H])N(C(=O)C([H])(N([H])C(=O)C([H])(N([H])C([H])([H])[H])C([H])([H])[H])C(C([H])([H])[H])(C([H])([H])[H])C([H])([H])[H])C([H])(C(=O)N([H])C1([H])c3c([H])c([H])c([H])c([H])c3C([H])([H])C([H])([H])C1([H])[H])C2([H])[H]

>  <smiles>  (17) 
[H]OC(C(=O)N([H])c1c([H])c([H])c(C([H])([H])[H])c(C(=O)N([H])C(=O)N2C([H])([H])C([H])([H])C([H])([H])C([H])(n3nc(-c4c([H])c([H])c(Oc5c([H])c([H])c(F)c([H])c5F)c([H])c4[H])c(C(=O)N([H])[H])c3N([H])[H])C2([H])[H])c1[H])=C([H])Oc1c([H])c([H])c2c(c1[H])C([H])([H])N(C(=O)C([H])(N([H])C(=O)C([H])(N([H])C([H])([H])[H])C([H])([H])[H])C(C([H])([H])[H])(C([H])([H])[H])C([H])([H])[H])C([H])(C(=O)N([H])C1([H])c3c([H])c([H])c([H])c([H])c3C([H])([H])C([H])([H])C1([H])[H])C2([H])[H]

$$$$
17:0:0
     RDKit          3D

 94103  0  0  1  0  0  0  0  0999 V2000
  -30.3530  -21.8600   20.9620 C   0  0  0  0  0  0  0  0  0  0  0  0
  -30.1560  -23.3950   20.8980 C   0  0  0  0  0  2  0  0  0  0  0  0
  -28.3020  -22.1870   20.0450 C   0  0  0  0  0  2  0  0  0  0  0  0
  -28.6580  -23.6170   20.6590 C   0  0  0  0  0  3  0  0  0  0  0  0
  -29.2970  -21.1540   20.4990 N   0  0  0  0  0  0  0  0  0  0  0  0
  -31.3930  -21.3650   21.4090 O   0  0  0  0  0  0  0  0  0  0  0  0
  -29.5910  -18.5240   20.7360 C   0  0  0  0  0  3  0  0  0  0  0  0
  -29.3900  -19.6240   18.5720 C   0  0  0  0  0  3  0  0  0  0  0  0
  -29.7650  -17.2020   18.6970 C   0  0  0  0  0  3  0  0  0  0  0  0
  -29.4130  -19.7610   19.9770 C   0  0  0  0  0  0  0  0  0  0  0  0
  -29.7710  -17.2150   20.1100 C   0  0  0  0  0  0  0  0  0  0  0  0
  -29.5720  -18.3770   17.9440 C   0  0  0  0  0  0  0  0  0  0  0  0
  -30.5720  -14.7740   20.4470 C   0  0  0  0  0  0  0  0  0  0  0  0
  -30.3860  -12.4940   19.4510 C   0  0  0  0  0  2  0  0  0  0  0  0
  -29.4770  -12.5820   18.2030 C   0  0  0  0  0  2  0  0  0  0  0  0
  -27.9970  -12.4210   18.5970 C   0  0  0  0  0  2  0  0  0  0  0  0
  -27.6040  -13.3030   19.8110 C   0  0  0  0  0  3  0  0  0  0  0  0
  -28.6350  -13.2010   20.9580 C   0  0  0  0  0  2  0  0  0  0  0  0
  -29.9500  -13.5450   20.4040 N   0  0  0  0  0  0  0  0  0  0  0  0
  -31.7410  -14.8830   20.0610 O   0  0  0  0  0  0  0  0  0  0  0  0
  -29.8370  -15.8980   20.7960 N   0  0  0  0  0  0  0  0  0  0  0  0
  -29.0360  -15.6920   21.3760 H   0  0  0  0  0  0  0  0  0  0  0  0
  -25.1930  -13.8920   20.4680 C   0  0  0  0  0  0  0  0  0  0  0  0
  -24.1220  -13.1200   20.8260 C   0  0  0  0  0  0  0  0  0  0  0  0
  -24.5920  -11.7710   20.8260 C   0  0  0  0  0  0  0  0  0  0  0  0
  -26.2470  -13.0150   20.2700 N   0  0  0  0  0  0  0  0  0  0  0  0
  -25.8900  -11.7340   20.5480 N   0  0  0  0  0  0  0  0  0  0  0  0
  -23.8660  -10.5070   21.0210 C   0  0  0  0  0  0  0  0  0  0  0  0
  -24.2880   -9.5500   21.9690 C   0  0  0  0  0  3  0  0  0  0  0  0
  -23.5610   -8.3520   22.1520 C   0  0  0  0  0  3  0  0  0  0  0  0
  -22.3980   -8.1040   21.3840 C   0  0  0  0  0  0  0  0  0  0  0  0
  -21.9960   -9.0500   20.4260 C   0  0  0  0  0  3  0  0  0  0  0  0
  -22.7230  -10.2390   20.2420 C   0  0  0  0  0  3  0  0  0  0  0  0
  -21.6460   -6.9580   21.4740 O   0  0  0  0  0  0  0  0  0  0  0  0
  -21.5930   -6.2200   22.6280 C   0  0  0  0  0  0  0  0  0  0  0  0
  -21.1630   -6.7800   23.8520 C   0  0  0  0  0  3  0  0  0  0  0  0
  -21.0570   -5.9680   24.9980 C   0  0  0  0  0  3  0  0  0  0  0  0
  -21.3700   -4.5970   24.9250 C   0  0  0  0  0  0  0  0  0  0  0  0
  -21.7920   -4.0380   23.7050 C   0  0  0  0  0  3  0  0  0  0  0  0
  -21.9010   -4.8460   22.5610 C   0  0  0  0  0  0  0  0  0  0  0  0
  -22.2880   -4.2960   21.3850 F   0  0  0  0  0  0  0  0  0  0  0  0
  -21.2620   -3.8160   26.0240 F   0  0  0  0  0  0  0  0  0  0  0  0
  -22.7170  -13.5950   21.0580 C   0  0  0  0  0  0  0  0  0  0  0  0
  -21.9720  -12.9110   21.9190 N   0  0  0  0  0  0  0  0  0  0  0  0
  -22.2860  -14.6100   20.5090 O   0  0  0  0  0  0  0  0  0  0  0  0
  -22.3320  -12.0910   22.3820 H   0  0  0  0  0  0  0  0  0  0  0  0
  -21.0270  -13.2130   22.1160 H   0  0  0  0  0  0  0  0  0  0  0  0
  -25.3580  -15.2600   20.2730 N   0  0  0  0  0  0  0  0  0  0  0  0
  -24.5910  -15.9170   20.3630 H   0  0  0  0  0  0  0  0  0  0  0  0
  -26.2160  -15.6940   19.9540 H   0  0  0  0  0  0  0  0  0  0  0  0
  -29.5540  -18.2970   16.5800 O   0  0  0  0  0  0  0  0  0  0  0  0
  -29.3790  -19.1320   16.1560 H   0  0  0  0  0  0  0  0  0  0  0  0
  -28.1410  -24.9370   19.8650 C   0  0  0  0  0  2  0  0  0  0  0  0
  -28.2800  -26.3780   20.3070 O   0  0  0  0  0  0  0  0  0  0  0  0
  -24.6250  -31.9190   23.2600 C   0  0  0  0  0  0  0  0  0  0  0  0
  -27.1980  -27.2940   20.2020 C   0  0  0  0  0  0  0  0  0  0  0  0
  -23.4180  -30.5290   21.6200 C   0  0  0  0  0  3  0  0  0  0  0  0
  -24.8600  -28.9790   20.1830 C   0  0  0  0  0  0  0  0  0  0  0  0
  -25.9650  -30.8130   21.4520 C   0  0  0  0  0  2  0  0  0  0  0  0
  -26.0320  -29.4330   20.7990 C   0  0  0  0  0  0  0  0  0  0  0  0
  -27.1990  -28.5990   20.8080 C   0  0  0  0  0  3  0  0  0  0  0  0
  -26.0110  -26.9390   19.5170 C   0  0  0  0  0  3  0  0  0  0  0  0
  -24.8570  -27.7410   19.5300 C   0  0  0  0  0  3  0  0  0  0  0  0
  -23.6310  -29.8630   20.2360 C   0  0  0  0  0  2  0  0  0  0  0  0
  -24.6880  -31.1070   22.1650 N   0  0  0  0  0  0  0  0  0  0  0  0
  -23.5410  -32.2020   23.7920 O   0  0  0  0  0  0  0  0  0  0  0  0
  -22.7500  -29.5110   22.5770 C   0  0  0  0  0  0  0  0  0  0  0  0
  -21.4230  -29.3340   22.4460 N   0  0  0  0  0  0  0  0  0  0  0  0
  -23.4240  -28.8860   23.3990 O   0  0  0  0  0  0  0  0  0  0  0  0
  -20.9390  -29.8910   21.7570 H   0  0  0  0  0  0  0  0  0  0  0  0
  -18.0430  -28.1320   22.9290 C   0  0  0  0  0  0  0  0  0  0  0  0
  -20.6000  -28.3990   23.2150 C   0  0  0  0  0  3  0  0  0  0  0  0
  -20.7090  -26.9650   22.6480 C   0  0  0  0  0  2  0  0  0  0  0  0
  -19.6140  -26.6340   21.6280 C   0  0  0  0  0  2  0  0  0  0  0  0
  -18.2280  -26.7790   22.2620 C   0  0  0  0  0  2  0  0  0  0  0  0
  -19.1580  -28.8980   23.3630 C   0  0  0  0  0  0  0  0  0  0  0  0
  -18.9310  -30.1630   23.9480 C   0  0  0  0  0  3  0  0  0  0  0  0
  -17.6240  -30.6600   24.1050 C   0  0  0  0  0  3  0  0  0  0  0  0
  -16.5240  -29.8910   23.6870 C   0  0  0  0  0  3  0  0  0  0  0  0
  -16.7350  -28.6290   23.1050 C   0  0  0  0  0  3  0  0  0  0  0  0
  -25.9080  -32.5480   23.8840 C   0  0  0  0  0  3  0  0  0  0  0  0
  -26.4120  -31.7830   25.1690 C   0  0  1  0  0  0  0  0  0  0  0  0
  -25.3140  -31.5630   26.2340 C   0  0  0  0  0  1  0  0  0  0  0  0
  -26.9880  -30.3970   24.7950 C   0  0  0  0  0  1  0  0  0  0  0  0
  -27.5650  -32.5760   25.8300 C   0  0  0  0  0  1  0  0  0  0  0  0
  -25.6040  -33.9500   24.2040 N   0  0  0  0  0  0  0  0  0  0  0  0
  -25.9420  -34.9980   23.4390 C   0  0  0  0  0  0  0  0  0  0  0  0
  -26.6110  -34.8860   22.4090 O   0  0  0  0  0  0  0  0  0  0  0  0
  -25.0110  -34.1120   25.0050 H   0  0  0  0  0  0  0  0  0  0  0  0
  -24.2210  -36.8000   23.0810 C   0  0  0  0  0  1  0  0  0  0  0  0
  -25.4620  -36.3920   23.8910 C   0  0  0  0  0  3  0  0  0  0  0  0
  -27.6030  -37.2710   24.7130 C   0  0  0  0  0  1  0  0  0  0  0  0
  -26.4990  -37.4390   23.7710 N   0  0  0  0  0  0  0  0  0  0  0  0
  -26.0970  -38.3620   23.9140 H   0  0  0  0  0  0  0  0  0  0  0  0
  1  6  2  0
  2  1  1  0
  3  5  1  0
  3  4  1  0
  4 53  1  0
  4  2  1  0
  5  1  1  0
  8 10  1  0
  9 11  2  0
 10  5  1  0
 10  7  2  0
 11  7  1  0
 11 21  1  0
 12  8  2  0
 12  9  1  0
 13 21  1  0
 14 19  1  0
 15 16  1  0
 15 14  1  0
 17 16  1  0
 17 26  1  0
 17 18  1  0
 19 13  1  0
 19 18  1  0
 20 13  2  0
 21 22  1  0
 23 24  2  0
 24 43  1  0
 25 24  1  0
 25 28  1  0
 26 23  1  0
 26 27  1  0
 27 25  2  0
 28 29  1  0
 29 30  2  0
 31 34  1  0
 31 30  1  0
 32 31  2  0
 33 32  1  0
 33 28  2  0
 34 35  1  0
 35 36  1  0
 36 37  2  0
 38 37  1  0
 38 42  1  0
 39 38  2  0
 40 35  2  0
 40 39  1  0
 41 40  1  0
 43 44  1  0
 44 47  1  0
 44 46  1  0
 45 43  2  0
 48 49  1  0
 48 23  1  0
 50 48  1  0
 51 12  1  0
 52 51  1  0
 53 54  1  0
 55 66  2  0
 56 54  1  0
 56 61  1  0
 57 65  1  0
 57 67  1  0
 58 64  1  0
 58 60  1  0
 59 65  1  0
 60 61  2  0
 60 59  1  0
 62 63  1  0
 62 56  2  0
 63 58  2  0
 64 57  1  0
 65 55  1  0
 67 69  2  0
 68 67  1  0
 70 68  1  0
 71 80  2  0
 71 76  1  0
 72 68  1  0
 72 76  1  0
 73 72  1  0
 74 75  1  0
 74 73  1  0
 75 71  1  0
 76 77  2  0
 77 78  1  0
 79 78  2  0
 80 79  1  0
 81 55  1  0
 81 86  1  0
 81 82  1  0
 82 85  1  1
 82 83  1  0
 84 82  1  0
 86 89  1  0
 87 91  1  0
 87 86  1  0
 88 87  2  0
 91 90  1  0
 93 91  1  0
 93 94  1  0
 93 92  1  0
M  ISO  4  13 100  21 100  53 101  54 101
M  END
>  <TORSDO>  (18) 
F 19

>  <SCORE>  (18) 
-14.734

>  <name>  (18) 
17

>  <ligand_id>  (18) 
17

>  <original_smiles>  (18) 
[H]Oc1c([H])c(N([H])C(=O)N2C([H])([H])C([H])([H])C([H])([H])C([H])(n3nc(-c4c([H])c([H])c(Oc5c([H])c([H])c(F)c([H])c5F)c([H])c4[H])c(C(=O)N([H])[H])c3N([H])[H])C2([H])[H])c([H])c(N2C(=O)C([H])([H])C([H])(C([H])([H])Oc3c([H])c([H])c4c(c3[H])C([H])([H])N(C(=O)C([H])(N([H])C(=O)C([H])(N([H])C([H])([H])[H])C([H])([H])[H])C(C([H])([H])[H])(C([H])([H])[H])C([H])([H])[H])C([H])(C(=O)N([H])C3([H])c5c([H])c([H])c([H])c([H])c5C([H])([H])C([H])([H])C3([H])[H])C4([H])[H])C2([H])[H])c1[H]

>  <smiles>  (18) 
[H]Oc1c([H])c(N([H])C(=O)N2C([H])([H])C([H])([H])C([H])([H])C([H])(n3nc(-c4c([H])c([H])c(Oc5c([H])c([H])c(F)c([H])c5F)c([H])c4[H])c(C(=O)N([H])[H])c3N([H])[H])C2([H])[H])c([H])c(N2C(=O)C([H])([H])C([H])(C([H])([H])Oc3c([H])c([H])c4c(c3[H])C([H])([H])N(C(=O)C([H])(N([H])C(=O)C([H])(N([H])C([H])([H])[H])C([H])([H])[H])C(C([H])([H])[H])(C([H])([H])[H])C([H])([H])[H])C([H])(C(=O)N([H])C3([H])c5c([H])c([H])c([H])c([H])c5C([H])([H])C([H])([H])C3([H])[H])C4([H])[H])C2([H])[H])c1[H]

$$$$
18:0:0
     RDKit          3D

 97105  0  0  1  0  0  0  0  0999 V2000
  -29.0530  -21.1520   19.3400 C   0  0  0  0  0  3  0  0  0  0  0  0
  -27.2360  -19.6120   18.8180 C   0  0  0  0  0  3  0  0  0  0  0  0
  -28.2110  -22.3330   19.1300 C   0  0  0  0  0  0  0  0  0  0  0  0
  -28.5970  -19.7720   19.1630 C   0  0  0  0  0  0  0  0  0  0  0  0
  -26.3880  -20.7260   18.6440 C   0  0  0  0  0  0  0  0  0  0  0  0
  -26.8760  -22.0440   18.7490 C   0  0  0  0  0  0  0  0  0  0  0  0
  -25.0470  -20.5260   18.3270 N   0  0  0  0  0  0  0  0  0  0  0  0
  -24.4260  -21.3030   18.5220 H   0  0  0  0  0  0  0  0  0  0  0  0
  -24.6750  -19.6940   18.7850 H   0  0  0  0  0  0  0  0  0  0  0  0
  -28.6470  -23.8350   19.2570 C   0  0  0  0  0  3  0  0  0  0  0  0
  -27.9920  -24.8740   19.9080 C   0  0  0  0  0  3  0  0  0  0  0  0
  -28.3020  -26.2650   20.0130 O   0  0  0  0  0  0  0  0  0  0  0  0
  -24.5670  -31.7580   23.1730 C   0  0  0  0  0  0  0  0  0  0  0  0
  -27.2290  -27.1910   20.0720 C   0  0  0  0  0  0  0  0  0  0  0  0
  -23.4180  -30.3790   21.5020 C   0  0  0  0  0  3  0  0  0  0  0  0
  -24.8900  -28.8580   20.0680 C   0  0  0  0  0  0  0  0  0  0  0  0
  -25.9700  -30.6800   21.3760 C   0  0  0  0  0  2  0  0  0  0  0  0
  -26.0630  -29.3160   20.6930 C   0  0  0  0  0  0  0  0  0  0  0  0
  -27.2440  -28.4930   20.6850 C   0  0  0  0  0  3  0  0  0  0  0  0
  -26.0200  -26.7920   19.4610 C   0  0  0  0  0  3  0  0  0  0  0  0
  -24.8750  -27.6060   19.4490 C   0  0  0  0  0  3  0  0  0  0  0  0
  -23.6570  -29.7410   20.1080 C   0  0  0  0  0  2  0  0  0  0  0  0
  -24.6780  -30.9610   22.0700 N   0  0  0  0  0  0  0  0  0  0  0  0
  -23.4640  -32.0140   23.6790 O   0  0  0  0  0  0  0  0  0  0  0  0
  -22.7420  -29.3460   22.4360 C   0  0  0  0  0  0  0  0  0  0  0  0
  -21.4120  -29.2020   22.3330 N   0  0  0  0  0  0  0  0  0  0  0  0
  -23.4140  -28.6810   23.2270 O   0  0  0  0  0  0  0  0  0  0  0  0
  -20.9240  -29.8780   21.7670 H   0  0  0  0  0  0  0  0  0  0  0  0
  -18.0250  -27.9010   22.7160 C   0  0  0  0  0  0  0  0  0  0  0  0
  -20.5810  -28.2110   23.0420 C   0  0  0  0  0  3  0  0  0  0  0  0
  -20.7150  -26.7940   22.4150 C   0  0  0  0  0  2  0  0  0  0  0  0
  -19.6200  -26.4720   21.3880 C   0  0  0  0  0  2  0  0  0  0  0  0
  -18.2280  -26.5790   22.0130 C   0  0  0  0  0  2  0  0  0  0  0  0
  -19.1260  -28.6780   23.1830 C   0  0  0  0  0  0  0  0  0  0  0  0
  -18.8600  -29.9220   23.7800 C   0  0  0  0  0  3  0  0  0  0  0  0
  -17.5360  -30.3620   23.9700 C   0  0  0  0  0  3  0  0  0  0  0  0
  -16.4620  -29.6110   23.4730 C   0  0  0  0  0  3  0  0  0  0  0  0
  -16.7070  -28.3730   22.8630 C   0  0  0  0  0  3  0  0  0  0  0  0
  -25.8200  -32.3930   23.8380 C   0  0  0  0  0  3  0  0  0  0  0  0
  -26.2920  -31.6340   25.1360 C   0  0  1  0  0  0  0  0  0  0  0  0
  -25.1640  -31.3720   26.1620 C   0  0  0  0  0  1  0  0  0  0  0  0
  -26.9080  -30.2670   24.7670 C   0  0  0  0  0  1  0  0  0  0  0  0
  -27.4060  -32.4440   25.8320 C   0  0  0  0  0  1  0  0  0  0  0  0
  -25.4830  -33.7890   24.1570 N   0  0  0  0  0  0  0  0  0  0  0  0
  -25.8360  -34.8530   23.4190 C   0  0  0  0  0  0  0  0  0  0  0  0
  -26.5380  -34.7560   22.4090 O   0  0  0  0  0  0  0  0  0  0  0  0
  -24.8510  -33.9340   24.9300 H   0  0  0  0  0  0  0  0  0  0  0  0
  -24.0980  -36.6310   23.0070 C   0  0  0  0  0  1  0  0  0  0  0  0
  -25.3170  -36.2380   23.8610 C   0  0  0  0  0  3  0  0  0  0  0  0
  -27.4110  -37.1370   24.7660 C   0  0  0  0  0  1  0  0  0  0  0  0
  -26.3430  -37.3010   23.7850 N   0  0  0  0  0  0  0  0  0  0  0  0
  -25.9320  -38.2220   23.9050 H   0  0  0  0  0  0  0  0  0  0  0  0
  -26.0280  -23.0390   18.3480 O   0  0  0  0  0  0  0  0  0  0  0  0
  -25.3900  -22.6610   17.7440 H   0  0  0  0  0  0  0  0  0  0  0  0
  -29.5040  -18.4540   19.2770 C   0  0  0  0  0  2  0  0  0  0  0  0
  -30.8880  -14.7470   20.1620 C   0  0  0  0  0  0  0  0  0  0  0  0
  -30.4780  -12.4530   19.3050 C   0  0  0  0  0  2  0  0  0  0  0  0
  -29.5810  -12.4730   18.0660 C   0  0  0  0  0  2  0  0  0  0  0  0
  -28.1000  -12.3760   18.4920 C   0  0  0  0  0  2  0  0  0  0  0  0
  -27.7320  -13.3490   19.6440 C   0  0  0  0  0  3  0  0  0  0  0  0
  -28.7890  -13.3690   20.7690 C   0  0  0  0  0  2  0  0  0  0  0  0
  -30.0790  -13.6260   20.1150 N   0  0  0  0  0  0  0  0  0  0  0  0
  -32.1030  -14.6030   20.0420 O   0  0  0  0  0  0  0  0  0  0  0  0
  -29.3710  -16.9720   19.8450 C   0  0  0  0  0  0  0  0  0  0  0  0
  -30.4670  -16.1290   19.7590 N   0  0  0  0  0  0  0  0  0  0  0  0
  -28.2130  -16.5700   20.4010 N   0  0  0  0  0  4  0  0  0  0  0  0
  -31.2350  -16.7010   19.4480 H   0  0  0  0  0  0  0  0  0  0  0  0
  -27.3670  -17.1180   20.3660 H   0  0  0  0  0  0  0  0  0  0  0  0
  -28.0940  -15.6550   20.8100 H   0  0  0  0  0  0  0  0  0  0  0  0
  -25.3720  -14.0200   20.3630 C   0  0  0  0  0  0  0  0  0  0  0  0
  -24.2900  -13.2940   20.7600 C   0  0  0  0  0  0  0  0  0  0  0  0
  -24.7140  -11.9300   20.7670 C   0  0  0  0  0  0  0  0  0  0  0  0
  -26.3890  -13.1060   20.1510 N   0  0  0  0  0  0  0  0  0  0  0  0
  -26.0030  -11.8430   20.4680 N   0  0  0  0  0  0  0  0  0  0  0  0
  -23.9490  -10.7010   20.9730 C   0  0  0  0  0  0  0  0  0  0  0  0
  -24.3730   -9.7230   21.8960 C   0  0  0  0  0  3  0  0  0  0  0  0
  -23.6080   -8.5530   22.0940 C   0  0  0  0  0  3  0  0  0  0  0  0
  -22.4070   -8.3610   21.3710 C   0  0  0  0  0  0  0  0  0  0  0  0
  -22.0070   -9.3280   20.4330 C   0  0  0  0  0  3  0  0  0  0  0  0
  -22.7700  -10.4870   20.2320 C   0  0  0  0  0  3  0  0  0  0  0  0
  -21.6170   -7.2420   21.4780 O   0  0  0  0  0  0  0  0  0  0  0  0
  -21.6080   -6.4730   22.6140 C   0  0  0  0  0  0  0  0  0  0  0  0
  -21.2800   -7.0140   23.8760 C   0  0  0  0  0  3  0  0  0  0  0  0
  -21.2130   -6.1740   25.0050 C   0  0  0  0  0  3  0  0  0  0  0  0
  -21.4650   -4.7950   24.8720 C   0  0  0  0  0  0  0  0  0  0  0  0
  -21.7830   -4.2550   23.6150 C   0  0  0  0  0  3  0  0  0  0  0  0
  -21.8510   -5.0910   22.4880 C   0  0  0  0  0  0  0  0  0  0  0  0
  -22.1380   -4.5640   21.2730 F   0  0  0  0  0  0  0  0  0  0  0  0
  -21.3950   -3.9840   25.9540 F   0  0  0  0  0  0  0  0  0  0  0  0
  -22.9090  -13.8250   20.9890 C   0  0  0  0  0  0  0  0  0  0  0  0
  -22.1560  -13.1930   21.8850 N   0  0  0  0  0  0  0  0  0  0  0  0
  -22.5040  -14.8360   20.4180 O   0  0  0  0  0  0  0  0  0  0  0  0
  -22.4920  -12.3710   22.3600 H   0  0  0  0  0  0  0  0  0  0  0  0
  -21.2240  -13.5260   22.0840 H   0  0  0  0  0  0  0  0  0  0  0  0
  -25.5430  -15.3730   20.0940 N   0  0  0  0  0  0  0  0  0  0  0  0
  -24.6490  -15.8590   20.1520 H   0  0  0  0  0  0  0  0  0  0  0  0
  -25.9100  -15.4680   19.1530 H   0  0  0  0  0  0  0  0  0  0  0  0
  2  4  2  0
  3 10  1  0
  3  1  2  0
  4 55  1  0
  4  1  1  0
  5  6  2  0
  5  2  1  0
  6  3  1  0
  7  8  1  0
  7  5  1  0
  7  9  1  0
 10 11  2  0
 11 12  1  0
 12 14  1  0
 13 24  2  0
 14 19  1  0
 15 23  1  0
 15 25  1  0
 16 22  1  0
 16 18  1  0
 17 23  1  0
 18 17  1  0
 19 18  2  0
 20 14  2  0
 21 20  1  0
 21 16  2  0
 22 15  1  0
 23 13  1  0
 25 27  2  0
 26 25  1  0
 28 26  1  0
 29 38  2  0
 29 34  1  0
 30 26  1  0
 30 34  1  0
 31 30  1  0
 32 33  1  0
 32 31  1  0
 33 29  1  0
 34 35  2  0
 35 36  1  0
 37 36  2  0
 38 37  1  0
 39 13  1  0
 39 44  1  0
 39 40  1  0
 40 43  1  1
 40 41  1  0
 42 40  1  0
 44 47  1  0
 45 49  1  0
 45 44  1  0
 46 45  2  0
 49 48  1  0
 51 49  1  0
 51 52  1  0
 51 50  1  0
 53  6  1  0
 54 53  1  0
 55 64  1  0
 57 62  1  0
 58 59  1  0
 58 57  1  0
 60 59  1  0
 60 73  1  0
 60 61  1  0
 62 56  1  0
 62 61  1  0
 63 56  2  0
 64 66  2  0
 65 64  1  0
 65 56  1  0
 66 69  1  0
 67 65  1  0
 68 66  1  0
 70 71  2  0
 71 72  1  0
 71 90  1  0
 72 75  1  0
 73 70  1  0
 73 74  1  0
 74 72  2  0
 75 76  1  0
 76 77  2  0
 78 81  1  0
 78 77  1  0
 79 78  2  0
 80 79  1  0
 80 75  2  0
 81 82  1  0
 82 83  1  0
 83 84  2  0
 85 84  1  0
 85 89  1  0
 86 85  2  0
 87 82  2  0
 87 86  1  0
 88 87  1  0
 90 91  1  0
 91 94  1  0
 91 93  1  0
 92 90  2  0
 95 96  1  0
 95 70  1  0
 97 95  1  0
M  ISO  4  11 101  12 101  56 100  65 100
M  END
>  <TORSDO>  (19) 
F 20

>  <SCORE>  (19) 
-14.370

>  <name>  (19) 
18

>  <ligand_id>  (19) 
18

>  <original_smiles>  (19) 
[H]Oc1c(C([H])=C([H])Oc2c([H])c([H])c3c(c2[H])C([H])([H])N(C(=O)C([H])(N([H])C(=O)C([H])(N([H])C([H])([H])[H])C([H])([H])[H])C(C([H])([H])[H])(C([H])([H])[H])C([H])([H])[H])C([H])(C(=O)N([H])C2([H])c4c([H])c([H])c([H])c([H])c4C([H])([H])C([H])([H])C2([H])[H])C3([H])[H])c([H])c(C([H])([H])C(N([H])C(=O)N2C([H])([H])C([H])([H])C([H])([H])C([H])(n3nc(-c4c([H])c([H])c(Oc5c([H])c([H])c(F)c([H])c5F)c([H])c4[H])c(C(=O)N([H])[H])c3N([H])[H])C2([H])[H])=[N+]([H])[H])c([H])c1N([H])[H]

>  <smiles>  (19) 
[H]Oc1c(C([H])=C([H])Oc2c([H])c([H])c3c(c2[H])C([H])([H])N(C(=O)C([H])(N([H])C(=O)C([H])(N([H])C([H])([H])[H])C([H])([H])[H])C(C([H])([H])[H])(C([H])([H])[H])C([H])([H])[H])C([H])(C(=O)N([H])C2([H])c4c([H])c([H])c([H])c([H])c4C([H])([H])C([H])([H])C2([H])[H])C3([H])[H])c([H])c(C([H])([H])C(N([H])C(=O)N2C([H])([H])C([H])([H])C([H])([H])C([H])(n3nc(-c4c([H])c([H])c(Oc5c([H])c([H])c(F)c([H])c5F)c([H])c4[H])c(C(=O)N([H])[H])c3N([H])[H])C2([H])[H])=[N+]([H])[H])c([H])c1N([H])[H]

$$$$
19:0:0
     RDKit          3D

 90 98  0  0  1  0  0  0  0  0999 V2000
  -31.8020  -19.5790   20.5270 C   0  0  0  0  0  3  0  0  0  0  0  0
  -31.3890  -18.2280   20.5100 C   0  0  0  0  0  3  0  0  0  0  0  0
  -30.9050  -20.6700   20.4720 C   0  0  0  0  0  3  0  0  0  0  0  0
  -30.0300  -17.8510   20.4370 C   0  0  0  0  0  0  0  0  0  0  0  0
  -29.5010  -20.5130   20.3970 C   0  0  0  0  0  0  0  0  0  0  0  0
  -29.1080  -19.0500   20.3840 C   0  0  0  0  0  0  0  0  0  0  0  0
  -27.7820  -18.7780   20.3130 F   0  0  0  0  0  0  0  0  0  0  0  0
  -30.4800  -15.0990   20.3130 C   0  0  0  0  0  0  0  0  0  0  0  0
  -30.3730  -12.7270   19.3700 C   0  0  0  0  0  2  0  0  0  0  0  0
  -29.4280  -12.6460   18.1480 C   0  0  0  0  0  2  0  0  0  0  0  0
  -27.9770  -12.4050   18.6010 C   0  0  0  0  0  2  0  0  0  0  0  0
  -27.5690  -13.3250   19.7810 C   0  0  0  0  0  3  0  0  0  0  0  0
  -28.6400  -13.3770   20.8910 C   0  0  0  0  0  2  0  0  0  0  0  0
  -29.8850  -13.8290   20.2560 N   0  0  0  0  0  0  0  0  0  0  0  0
  -31.6870  -15.1210   20.0450 O   0  0  0  0  0  0  0  0  0  0  0  0
  -29.7100  -16.3180   20.4430 N   0  0  0  0  0  0  0  0  0  0  0  0
  -28.7260  -16.1270   20.5480 H   0  0  0  0  0  0  0  0  0  0  0  0
  -25.1990  -13.8670   20.5670 C   0  0  0  0  0  0  0  0  0  0  0  0
  -24.1470  -13.0790   20.9420 C   0  0  0  0  0  0  0  0  0  0  0  0
  -24.6230  -11.7320   20.8890 C   0  0  0  0  0  0  0  0  0  0  0  0
  -26.2460  -13.0020   20.3010 N   0  0  0  0  0  0  0  0  0  0  0  0
  -25.9120  -11.7120   20.5620 N   0  0  0  0  0  0  0  0  0  0  0  0
  -23.9090  -10.4620   21.0730 C   0  0  0  0  0  0  0  0  0  0  0  0
  -24.3590   -9.4870   21.9910 C   0  0  0  0  0  3  0  0  0  0  0  0
  -23.6420   -8.2830   22.1650 C   0  0  0  0  0  3  0  0  0  0  0  0
  -22.4610   -8.0460   21.4220 C   0  0  0  0  0  0  0  0  0  0  0  0
  -22.0310   -9.0100   20.4930 C   0  0  0  0  0  3  0  0  0  0  0  0
  -22.7480  -10.2050   20.3170 C   0  0  0  0  0  3  0  0  0  0  0  0
  -21.7140   -6.8960   21.5060 O   0  0  0  0  0  0  0  0  0  0  0  0
  -21.6800   -6.1430   22.6530 C   0  0  0  0  0  0  0  0  0  0  0  0
  -21.2440   -6.6790   23.8840 C   0  0  0  0  0  3  0  0  0  0  0  0
  -21.1570   -5.8510   25.0210 C   0  0  0  0  0  3  0  0  0  0  0  0
  -21.4980   -4.4880   24.9280 C   0  0  0  0  0  0  0  0  0  0  0  0
  -21.9270   -3.9510   23.7010 C   0  0  0  0  0  3  0  0  0  0  0  0
  -22.0140   -4.7770   22.5670 C   0  0  0  0  0  0  0  0  0  0  0  0
  -22.4090   -4.2490   21.3830 F   0  0  0  0  0  0  0  0  0  0  0  0
  -21.4080   -3.6910   26.0180 F   0  0  0  0  0  0  0  0  0  0  0  0
  -22.7500  -13.5410   21.2330 C   0  0  0  0  0  0  0  0  0  0  0  0
  -22.0390  -12.8330   22.1010 N   0  0  0  0  0  0  0  0  0  0  0  0
  -22.2990  -14.5670   20.7250 O   0  0  0  0  0  0  0  0  0  0  0  0
  -22.4170  -12.0030   22.5340 H   0  0  0  0  0  0  0  0  0  0  0  0
  -21.1010  -13.1260   22.3400 H   0  0  0  0  0  0  0  0  0  0  0  0
  -25.3460  -15.2420   20.4050 N   0  0  0  0  0  0  0  0  0  0  0  0
  -24.5680  -15.8820   20.5390 H   0  0  0  0  0  0  0  0  0  0  0  0
  -26.1740  -15.7010   20.0520 H   0  0  0  0  0  0  0  0  0  0  0  0
  -28.6420  -21.7380   20.3280 O   0  0  0  0  0  0  0  0  0  0  0  0
  -28.9900  -23.2950   20.4490 C   0  0  0  0  0  0  0  0  0  0  0  0
  -30.1310  -23.6640   20.7310 O   0  0  0  0  0  0  0  0  0  0  0  0
  -27.8770  -24.5370   20.2130 C   0  0  0  0  0  2  0  0  0  0  0  0
  -28.2010  -26.0860   20.3760 O   0  0  0  0  0  0  0  0  0  0  0  0
  -24.6360  -31.9280   23.2830 C   0  0  0  0  0  0  0  0  0  0  0  0
  -27.1760  -27.1220   20.2990 C   0  0  0  0  0  0  0  0  0  0  0  0
  -23.4340  -30.5350   21.6460 C   0  0  0  0  0  3  0  0  0  0  0  0
  -24.8750  -28.9310   20.2390 C   0  0  0  0  0  0  0  0  0  0  0  0
  -25.9950  -30.7600   21.4990 C   0  0  0  0  0  2  0  0  0  0  0  0
  -26.0590  -29.3580   20.8540 C   0  0  0  0  0  0  0  0  0  0  0  0
  -27.2100  -28.4720   20.8610 C   0  0  0  0  0  3  0  0  0  0  0  0
  -25.9650  -26.8130   19.6430 C   0  0  0  0  0  3  0  0  0  0  0  0
  -24.8460  -27.6740   19.6160 C   0  0  0  0  0  3  0  0  0  0  0  0
  -23.6590  -29.8470   20.2740 C   0  0  0  0  0  2  0  0  0  0  0  0
  -24.7090  -31.0980   22.1970 N   0  0  0  0  0  0  0  0  0  0  0  0
  -23.5480  -32.2260   23.8020 O   0  0  0  0  0  0  0  0  0  0  0  0
  -22.7370  -29.5420   22.6110 C   0  0  0  0  0  0  0  0  0  0  0  0
  -21.4070  -29.3820   22.4780 N   0  0  0  0  0  0  0  0  0  0  0  0
  -23.3960  -28.9170   23.4460 O   0  0  0  0  0  0  0  0  0  0  0  0
  -20.9310  -29.9370   21.7810 H   0  0  0  0  0  0  0  0  0  0  0  0
  -18.0130  -28.2090   22.9660 C   0  0  0  0  0  0  0  0  0  0  0  0
  -20.5720  -28.4580   23.2500 C   0  0  0  0  0  3  0  0  0  0  0  0
  -20.6670  -27.0200   22.6870 C   0  0  0  0  0  2  0  0  0  0  0  0
  -19.5700  -26.6980   21.6670 C   0  0  0  0  0  2  0  0  0  0  0  0
  -18.1860  -26.8550   22.3000 C   0  0  0  0  0  2  0  0  0  0  0  0
  -19.1330  -28.9690   23.3980 C   0  0  0  0  0  0  0  0  0  0  0  0
  -18.9150  -30.2360   23.9830 C   0  0  0  0  0  3  0  0  0  0  0  0
  -17.6110  -30.7420   24.1410 C   0  0  0  0  0  3  0  0  0  0  0  0
  -16.5070  -29.9800   23.7230 C   0  0  0  0  0  3  0  0  0  0  0  0
  -16.7080  -28.7170   23.1420 C   0  0  0  0  0  3  0  0  0  0  0  0
  -25.9130  -32.5580   23.9160 C   0  0  0  0  0  3  0  0  0  0  0  0
  -26.4080  -31.7930   25.2050 C   0  0  1  0  0  0  0  0  0  0  0  0
  -25.3000  -31.5760   26.2640 C   0  0  0  0  0  1  0  0  0  0  0  0
  -26.9810  -30.4050   24.8370 C   0  0  0  0  0  1  0  0  0  0  0  0
  -27.5590  -32.5810   25.8730 C   0  0  0  0  0  1  0  0  0  0  0  0
  -25.6090  -33.9620   24.2410 N   0  0  0  0  0  0  0  0  0  0  0  0
  -25.9250  -35.0110   23.4730 C   0  0  0  0  0  0  0  0  0  0  0  0
  -26.5720  -34.9020   22.4280 O   0  0  0  0  0  0  0  0  0  0  0  0
  -25.0330  -34.1190   25.0560 H   0  0  0  0  0  0  0  0  0  0  0  0
  -24.1820  -36.8010   23.1730 C   0  0  0  0  0  1  0  0  0  0  0  0
  -25.4550  -36.4050   23.9370 C   0  0  0  0  0  3  0  0  0  0  0  0
  -27.6160  -37.3090   24.6740 C   0  0  0  0  0  1  0  0  0  0  0  0
  -26.4790  -37.4600   23.7710 N   0  0  0  0  0  0  0  0  0  0  0  0
  -26.0750  -38.3800   23.9200 H   0  0  0  0  0  0  0  0  0  0  0  0
  2  1  1  0
  3  1  2  0
  4 16  1  0
  4  2  2  0
  5  3  1  0
  6  5  2  0
  6  4  1  0
  7  6  1  0
  8 16  1  0
  9 14  1  0
 10 11  1  0
 10  9  1  0
 12 11  1  0
 12 21  1  0
 12 13  1  0
 14  8  1  0
 14 13  1  0
 15  8  2  0
 16 17  1  0
 18 19  2  0
 19 38  1  0
 20 19  1  0
 20 23  1  0
 21 22  1  0
 21 18  1  0
 22 20  2  0
 23 24  1  0
 24 25  2  0
 26 29  1  0
 26 25  1  0
 27 26  2  0
 28 27  1  0
 28 23  2  0
 29 30  1  0
 30 31  1  0
 31 32  2  0
 33 32  1  0
 33 37  1  0
 34 33  2  0
 35 30  2  0
 35 34  1  0
 36 35  1  0
 38 39  1  0
 39 42  1  0
 39 41  1  0
 40 38  2  0
 43 44  1  0
 43 18  1  0
 45 43  1  0
 46  5  1  0
 46 47  1  0
 47 48  2  0
 49 50  1  0
 49 47  1  0
 51 62  2  0
 52 50  1  0
 52 57  1  0
 53 61  1  0
 53 63  1  0
 54 60  1  0
 54 56  1  0
 55 61  1  0
 56 57  2  0
 56 55  1  0
 58 52  2  0
 59 58  1  0
 59 54  2  0
 60 53  1  0
 61 51  1  0
 63 65  2  0
 64 63  1  0
 66 64  1  0
 67 76  2  0
 67 72  1  0
 68 64  1  0
 68 72  1  0
 69 68  1  0
 70 71  1  0
 70 69  1  0
 71 67  1  0
 72 73  2  0
 73 74  1  0
 75 74  2  0
 76 75  1  0
 77 51  1  0
 77 82  1  0
 77 78  1  0
 78 81  1  1
 78 79  1  0
 80 78  1  0
 82 85  1  0
 83 87  1  0
 83 82  1  0
 84 83  2  0
 87 86  1  0
 89 90  1  0
 89 87  1  0
 89 88  1  0
M  ISO  4   8 100  16 100  49 101  50 101
M  END
>  <TORSDO>  (20) 
F 19

>  <SCORE>  (20) 
-14.382

>  <name>  (20) 
19

>  <ligand_id>  (20) 
19

>  <original_smiles>  (20) 
[H]c1c([H])c(OC(=O)C([H])([H])Oc2c([H])c([H])c3c(c2[H])C([H])([H])N(C(=O)C([H])(N([H])C(=O)C([H])(N([H])C([H])([H])[H])C([H])([H])[H])C(C([H])([H])[H])(C([H])([H])[H])C([H])([H])[H])C([H])(C(=O)N([H])C2([H])c4c([H])c([H])c([H])c([H])c4C([H])([H])C([H])([H])C2([H])[H])C3([H])[H])c(F)c(N([H])C(=O)N2C([H])([H])C([H])([H])C([H])([H])C([H])(n3nc(-c4c([H])c([H])c(Oc5c([H])c([H])c(F)c([H])c5F)c([H])c4[H])c(C(=O)N([H])[H])c3N([H])[H])C2([H])[H])c1[H]

>  <smiles>  (20) 
[H]c1c([H])c(OC(=O)C([H])([H])Oc2c([H])c([H])c3c(c2[H])C([H])([H])N(C(=O)C([H])(N([H])C(=O)C([H])(N([H])C([H])([H])[H])C([H])([H])[H])C(C([H])([H])[H])(C([H])([H])[H])C([H])([H])[H])C([H])(C(=O)N([H])C2([H])c4c([H])c([H])c([H])c([H])c4C([H])([H])C([H])([H])C2([H])[H])C3([H])[H])c(F)c(N([H])C(=O)N2C([H])([H])C([H])([H])C([H])([H])C([H])(n3nc(-c4c([H])c([H])c(Oc5c([H])c([H])c(F)c([H])c5F)c([H])c4[H])c(C(=O)N([H])[H])c3N([H])[H])C2([H])[H])c1[H]

$$$$
20:0:0
     RDKit          3D

 95103  0  0  1  0  0  0  0  0999 V2000
  -28.8970  -22.5230   19.8720 C   0  0  0  0  0  0  0  0  0  0  0  0
  -29.8930  -21.6150   20.1180 N   0  0  0  0  0  0  0  0  0  0  0  0
  -27.7530  -22.1910   19.5450 O   0  0  0  0  0  0  0  0  0  0  0  0
  -30.7920  -22.0560   20.2530 H   0  0  0  0  0  0  0  0  0  0  0  0
  -31.2060  -18.0150   20.0550 C   0  0  0  0  0  3  0  0  0  0  0  0
  -31.1080  -19.4360   19.9530 C   0  0  0  0  0  3  0  0  0  0  0  0
  -28.8620  -17.9240   20.5910 C   0  0  0  0  0  3  0  0  0  0  0  0
  -30.0770  -17.2170   20.3800 C   0  0  0  0  0  0  0  0  0  0  0  0
  -29.8910  -20.1460   20.1540 C   0  0  0  0  0  0  0  0  0  0  0  0
  -28.7610  -19.3450   20.4900 C   0  0  0  0  0  0  0  0  0  0  0  0
  -30.8460  -14.7520   20.0210 C   0  0  0  0  0  0  0  0  0  0  0  0
  -30.5910  -12.5340   18.9290 C   0  0  0  0  0  2  0  0  0  0  0  0
  -29.5780  -12.6910   17.7720 C   0  0  0  0  0  2  0  0  0  0  0  0
  -28.1280  -12.5340   18.2760 C   0  0  0  0  0  2  0  0  0  0  0  0
  -27.8450  -13.3690   19.5520 C   0  0  0  0  0  3  0  0  0  0  0  0
  -28.9610  -13.1670   20.6020 C   0  0  0  0  0  2  0  0  0  0  0  0
  -30.2400  -13.5230   19.9660 N   0  0  0  0  0  0  0  0  0  0  0  0
  -31.9700  -14.9410   19.5450 O   0  0  0  0  0  0  0  0  0  0  0  0
  -30.0590  -15.7600   20.5070 N   0  0  0  0  0  0  0  0  0  0  0  0
  -29.2150  -15.3960   20.9210 H   0  0  0  0  0  0  0  0  0  0  0  0
  -25.5020  -13.9700   20.4290 C   0  0  0  0  0  0  0  0  0  0  0  0
  -24.4490  -13.1960   20.8350 C   0  0  0  0  0  0  0  0  0  0  0  0
  -24.8910  -11.8410   20.7290 C   0  0  0  0  0  0  0  0  0  0  0  0
  -26.5200  -13.0870   20.1020 N   0  0  0  0  0  0  0  0  0  0  0  0
  -26.1600  -11.8000   20.3400 N   0  0  0  0  0  0  0  0  0  0  0  0
  -24.1630  -10.5810   20.9190 C   0  0  0  0  0  0  0  0  0  0  0  0
  -24.5790   -9.6230   21.8700 C   0  0  0  0  0  3  0  0  0  0  0  0
  -23.8510   -8.4260   22.0470 C   0  0  0  0  0  3  0  0  0  0  0  0
  -22.6930   -8.1790   21.2720 C   0  0  0  0  0  0  0  0  0  0  0  0
  -22.2960   -9.1250   20.3110 C   0  0  0  0  0  3  0  0  0  0  0  0
  -23.0240  -10.3130   20.1320 C   0  0  0  0  0  3  0  0  0  0  0  0
  -21.9400   -7.0330   21.3560 O   0  0  0  0  0  0  0  0  0  0  0  0
  -21.7830   -6.3600   22.5410 C   0  0  0  0  0  0  0  0  0  0  0  0
  -21.2120   -6.9760   23.6770 C   0  0  0  0  0  3  0  0  0  0  0  0
  -21.0050   -6.2290   24.8530 C   0  0  0  0  0  3  0  0  0  0  0  0
  -21.3580   -4.8660   24.8930 C   0  0  0  0  0  0  0  0  0  0  0  0
  -21.9210   -4.2510   23.7630 C   0  0  0  0  0  3  0  0  0  0  0  0
  -22.1300   -4.9960   22.5890 C   0  0  0  0  0  0  0  0  0  0  0  0
  -22.6540   -4.3920   21.4940 F   0  0  0  0  0  0  0  0  0  0  0  0
  -21.1520   -4.1450   26.0210 F   0  0  0  0  0  0  0  0  0  0  0  0
  -23.0750  -13.6790   21.2050 C   0  0  0  0  0  0  0  0  0  0  0  0
  -22.3970  -12.9660   22.0980 N   0  0  0  0  0  0  0  0  0  0  0  0
  -22.6150  -14.7190   20.7380 O   0  0  0  0  0  0  0  0  0  0  0  0
  -22.7830  -12.1240   22.4970 H   0  0  0  0  0  0  0  0  0  0  0  0
  -21.4780  -13.2690   22.3890 H   0  0  0  0  0  0  0  0  0  0  0  0
  -25.6730  -15.3440   20.2910 N   0  0  0  0  0  0  0  0  0  0  0  0
  -24.9210  -16.0000   20.4720 H   0  0  0  0  0  0  0  0  0  0  0  0
  -26.4870  -15.7810   19.8780 H   0  0  0  0  0  0  0  0  0  0  0  0
  -27.5300  -19.9390   20.7650 N   0  0  0  0  0  0  0  0  0  0  0  0
  -26.7080  -19.3500   20.6830 H   0  0  0  0  0  0  0  0  0  0  0  0
  -27.3990  -20.8270   20.2810 H   0  0  0  0  0  0  0  0  0  0  0  0
  -29.2920  -24.0760   20.0050 C   0  0  0  0  0  0  0  0  0  0  0  0
  -30.4320  -24.4290   20.3350 O   0  0  0  0  0  0  0  0  0  0  0  0
  -28.1730  -25.1360   19.6890 C   0  0  0  0  0  2  0  0  0  0  0  0
  -28.4290  -26.5660   19.9920 O   0  0  0  0  0  0  0  0  0  0  0  0
  -24.5780  -31.7510   23.2220 C   0  0  0  0  0  0  0  0  0  0  0  0
  -27.3000  -27.4010   19.9690 C   0  0  0  0  0  0  0  0  0  0  0  0
  -23.4100  -30.4000   21.5190 C   0  0  0  0  0  3  0  0  0  0  0  0
  -24.8980  -28.9570   20.0290 C   0  0  0  0  0  0  0  0  0  0  0  0
  -25.9430  -30.7850   21.3600 C   0  0  0  0  0  2  0  0  0  0  0  0
  -26.0550  -29.4410   20.6510 C   0  0  0  0  0  0  0  0  0  0  0  0
  -27.2590  -28.6750   20.6150 C   0  0  0  0  0  3  0  0  0  0  0  0
  -26.1150  -26.9760   19.3190 C   0  0  0  0  0  3  0  0  0  0  0  0
  -24.9300  -27.7290   19.3540 C   0  0  0  0  0  3  0  0  0  0  0  0
  -23.6430  -29.7990   20.1100 C   0  0  0  0  0  2  0  0  0  0  0  0
  -24.6610  -30.9930   22.0900 N   0  0  0  0  0  0  0  0  0  0  0  0
  -23.4870  -31.9820   23.7630 O   0  0  0  0  0  0  0  0  0  0  0  0
  -22.7710  -29.3240   22.4290 C   0  0  0  0  0  0  0  0  0  0  0  0
  -21.4540  -29.1020   22.2700 N   0  0  0  0  0  0  0  0  0  0  0  0
  -23.4580  -28.6940   23.2380 O   0  0  0  0  0  0  0  0  0  0  0  0
  -20.9580  -29.6670   21.5950 H   0  0  0  0  0  0  0  0  0  0  0  0
  -18.1130  -27.7750   22.6680 C   0  0  0  0  0  0  0  0  0  0  0  0
  -20.6560  -28.1110   22.9950 C   0  0  0  0  0  3  0  0  0  0  0  0
  -20.8160  -26.7050   22.3750 C   0  0  0  0  0  2  0  0  0  0  0  0
  -19.7440  -26.3790   21.3300 C   0  0  0  0  0  2  0  0  0  0  0  0
  -18.3480  -26.4550   21.9520 C   0  0  0  0  0  2  0  0  0  0  0  0
  -19.1970  -28.5600   23.1430 C   0  0  0  0  0  0  0  0  0  0  0  0
  -18.9250  -29.7930   23.7740 C   0  0  0  0  0  3  0  0  0  0  0  0
  -17.6010  -30.2430   23.9320 C   0  0  0  0  0  3  0  0  0  0  0  0
  -16.5310  -29.4560   23.4720 C   0  0  0  0  0  3  0  0  0  0  0  0
  -16.7880  -28.2230   22.8460 C   0  0  0  0  0  3  0  0  0  0  0  0
  -25.8460  -32.3830   23.8730 C   0  0  0  0  0  3  0  0  0  0  0  0
  -26.3400  -31.6030   25.1540 C   0  0  1  0  0  0  0  0  0  0  0  0
  -25.2270  -31.3480   26.1960 C   0  0  0  0  0  1  0  0  0  0  0  0
  -26.9440  -30.2340   24.7630 C   0  0  0  0  0  1  0  0  0  0  0  0
  -27.4710  -32.3990   25.8460 C   0  0  0  0  0  1  0  0  0  0  0  0
  -25.5220  -33.7770   24.2100 N   0  0  0  0  0  0  0  0  0  0  0  0
  -25.8310  -34.8350   23.4490 C   0  0  0  0  0  0  0  0  0  0  0  0
  -26.4900  -34.7420   22.4100 O   0  0  0  0  0  0  0  0  0  0  0  0
  -24.9370  -33.9230   25.0180 H   0  0  0  0  0  0  0  0  0  0  0  0
  -24.0600  -36.5930   23.1380 C   0  0  0  0  0  1  0  0  0  0  0  0
  -25.3310  -36.2160   23.9150 C   0  0  0  0  0  3  0  0  0  0  0  0
  -27.4660  -37.1510   24.6860 C   0  0  0  0  0  1  0  0  0  0  0  0
  -26.3390  -37.2890   23.7680 N   0  0  0  0  0  0  0  0  0  0  0  0
  -25.9180  -38.2020   23.9170 H   0  0  0  0  0  0  0  0  0  0  0  0
  1 52  1  0
  1  2  1  0
  2  9  1  0
  2  4  1  0
  3  1  2  0
  5  8  1  0
  6  5  2  0
  6  9  1  0
  8 19  1  0
  8  7  2  0
  9 10  2  0
 10  7  1  0
 10 49  1  0
 11 19  1  0
 12 17  1  0
 13 14  1  0
 13 12  1  0
 15 14  1  0
 15 24  1  0
 15 16  1  0
 17 11  1  0
 17 16  1  0
 18 11  2  0
 19 20  1  0
 21 22  2  0
 22 41  1  0
 23 22  1  0
 23 26  1  0
 24 25  1  0
 24 21  1  0
 25 23  2  0
 26 27  1  0
 27 28  2  0
 29 32  1  0
 29 28  1  0
 30 29  2  0
 31 30  1  0
 31 26  2  0
 32 33  1  0
 33 38  2  0
 33 34  1  0
 34 35  2  0
 35 36  1  0
 36 40  1  0
 37 36  2  0
 38 37  1  0
 39 38  1  0
 41 42  1  0
 42 45  1  0
 42 44  1  0
 43 41  2  0
 46 21  1  0
 46 47  1  0
 48 46  1  0
 50 49  1  0
 51 49  1  0
 52 53  2  0
 54 55  1  0
 54 52  1  0
 56 67  2  0
 57 55  1  0
 57 62  1  0
 58 66  1  0
 58 68  1  0
 59 65  1  0
 59 61  1  0
 60 66  1  0
 61 60  1  0
 62 61  2  0
 63 64  1  0
 63 57  2  0
 64 59  2  0
 65 58  1  0
 66 56  1  0
 68 70  2  0
 69 68  1  0
 71 69  1  0
 72 81  2  0
 72 77  1  0
 73 69  1  0
 73 77  1  0
 74 73  1  0
 75 76  1  0
 75 74  1  0
 76 72  1  0
 77 78  2  0
 78 79  1  0
 80 79  2  0
 81 80  1  0
 82 56  1  0
 82 87  1  0
 82 83  1  0
 83 86  1  1
 83 84  1  0
 85 83  1  0
 87 90  1  0
 88 92  1  0
 88 87  1  0
 89 88  2  0
 92 91  1  0
 94 92  1  0
 94 95  1  0
 94 93  1  0
M  ISO  4  11 100  19 100  54 101  55 101
M  END
>  <TORSDO>  (21) 
F 20

>  <SCORE>  (21) 
-13.698

>  <name>  (21) 
20

>  <ligand_id>  (21) 
20

>  <original_smiles>  (21) 
[H]c1c([H])c([H])c2c(c1[H])C([H])([H])C([H])([H])C([H])([H])C2([H])N([H])C(=O)C1([H])N(C(=O)C([H])(N([H])C(=O)C([H])(N([H])C([H])([H])[H])C([H])([H])[H])C(C([H])([H])[H])(C([H])([H])[H])C([H])([H])[H])C([H])([H])c2c([H])c(OC([H])([H])C(=O)C(=O)N([H])c3c([H])c([H])c(N([H])C(=O)N4C([H])([H])C([H])([H])C([H])([H])C([H])(n5nc(-c6c([H])c([H])c(Oc7c([H])c([H])c(F)c([H])c7F)c([H])c6[H])c(C(=O)N([H])[H])c5N([H])[H])C4([H])[H])c([H])c3N([H])[H])c([H])c([H])c2C1([H])[H]

>  <smiles>  (21) 
[H]c1c([H])c([H])c2c(c1[H])C([H])([H])C([H])([H])C([H])([H])C2([H])N([H])C(=O)C1([H])N(C(=O)C([H])(N([H])C(=O)C([H])(N([H])C([H])([H])[H])C([H])([H])[H])C(C([H])([H])[H])(C([H])([H])[H])C([H])([H])[H])C([H])([H])c2c([H])c(OC([H])([H])C(=O)C(=O)N([H])c3c([H])c([H])c(N([H])C(=O)N4C([H])([H])C([H])([H])C([H])([H])C([H])(n5nc(-c6c([H])c([H])c(Oc7c([H])c([H])c(F)c([H])c7F)c([H])c6[H])c(C(=O)N([H])[H])c5N([H])[H])C4([H])[H])c([H])c3N([H])[H])c([H])c([H])c2C1([H])[H]

$$$$
21:0:0
     RDKit          3D

 91 99  0  0  1  0  0  0  0  0999 V2000
  -30.7530  -19.6690   19.8490 C   0  0  0  0  0  3  0  0  0  0  0  0
  -30.2200  -20.9940   19.8930 C   0  0  0  0  0  3  0  0  0  0  0  0
  -28.0730  -20.0560   20.3910 C   0  0  0  0  0  3  0  0  0  0  0  0
  -29.9810  -18.4900   20.0960 C   0  0  0  0  0  0  0  0  0  0  0  0
  -28.8570  -21.2350   20.1970 C   0  0  0  0  0  0  0  0  0  0  0  0
  -28.6050  -18.7240   20.3500 C   0  0  0  0  0  0  0  0  0  0  0  0
  -27.7820  -17.6750   20.5970 F   0  0  0  0  0  0  0  0  0  0  0  0
  -30.7350  -14.6620   20.0380 C   0  0  0  0  0  0  0  0  0  0  0  0
  -30.3650  -12.3860   19.1050 C   0  0  0  0  0  2  0  0  0  0  0  0
  -29.3960  -12.4510   17.9080 C   0  0  0  0  0  2  0  0  0  0  0  0
  -27.9420  -12.3250   18.3980 C   0  0  0  0  0  2  0  0  0  0  0  0
  -27.6280  -13.2640   19.5930 C   0  0  0  0  0  3  0  0  0  0  0  0
  -28.7280  -13.2220   20.6780 C   0  0  0  0  0  2  0  0  0  0  0  0
  -30.0060  -13.4980   20.0150 N   0  0  0  0  0  0  0  0  0  0  0  0
  -31.9160  -14.6090   19.6850 O   0  0  0  0  0  0  0  0  0  0  0  0
  -30.7060  -17.1240   20.2460 C   0  0  0  0  0  0  0  0  0  0  0  0
  -30.0950  -15.8810   20.2130 N   0  0  0  0  0  0  0  0  0  0  0  0
  -31.9330  -17.2290   20.3730 O   0  0  0  0  0  0  0  0  0  0  0  0
  -29.0910  -15.8740   20.2730 H   0  0  0  0  0  0  0  0  0  0  0  0
  -25.2970  -13.9120   20.4430 C   0  0  0  0  0  0  0  0  0  0  0  0
  -24.2250  -13.1630   20.8460 C   0  0  0  0  0  0  0  0  0  0  0  0
  -24.6460  -11.7990   20.7730 C   0  0  0  0  0  0  0  0  0  0  0  0
  -26.3020  -13.0070   20.1460 N   0  0  0  0  0  0  0  0  0  0  0  0
  -25.9200  -11.7290   20.4080 N   0  0  0  0  0  0  0  0  0  0  0  0
  -23.8890  -10.5560   20.9740 C   0  0  0  0  0  0  0  0  0  0  0  0
  -24.3260   -9.5620   21.8780 C   0  0  0  0  0  3  0  0  0  0  0  0
  -23.5710   -8.3850   22.0670 C   0  0  0  0  0  3  0  0  0  0  0  0
  -22.3640   -8.1930   21.3540 C   0  0  0  0  0  0  0  0  0  0  0  0
  -21.9450   -9.1740   20.4400 C   0  0  0  0  0  3  0  0  0  0  0  0
  -22.7000  -10.3440   20.2480 C   0  0  0  0  0  3  0  0  0  0  0  0
  -21.5780   -7.0700   21.4560 O   0  0  0  0  0  0  0  0  0  0  0  0
  -21.5570   -6.3070   22.5960 C   0  0  0  0  0  0  0  0  0  0  0  0
  -21.1920   -6.8470   23.8480 C   0  0  0  0  0  3  0  0  0  0  0  0
  -21.1160   -6.0120   24.9800 C   0  0  0  0  0  3  0  0  0  0  0  0
  -21.3950   -4.6380   24.8620 C   0  0  0  0  0  0  0  0  0  0  0  0
  -21.7550   -4.0970   23.6150 C   0  0  0  0  0  3  0  0  0  0  0  0
  -21.8320   -4.9290   22.4840 C   0  0  0  0  0  0  0  0  0  0  0  0
  -22.1580   -4.3990   21.2810 F   0  0  0  0  0  0  0  0  0  0  0  0
  -21.3160   -3.8330   25.9480 F   0  0  0  0  0  0  0  0  0  0  0  0
  -22.8560  -13.6760   21.1840 C   0  0  0  0  0  0  0  0  0  0  0  0
  -22.1490  -12.9940   22.0770 N   0  0  0  0  0  0  0  0  0  0  0  0
  -22.4260  -14.7190   20.6930 O   0  0  0  0  0  0  0  0  0  0  0  0
  -22.5120  -12.1500   22.4970 H   0  0  0  0  0  0  0  0  0  0  0  0
  -21.2320  -13.3190   22.3470 H   0  0  0  0  0  0  0  0  0  0  0  0
  -25.4940  -15.2800   20.2830 N   0  0  0  0  0  0  0  0  0  0  0  0
  -24.7590  -15.9550   20.4600 H   0  0  0  0  0  0  0  0  0  0  0  0
  -26.3520  -15.7080   19.9590 H   0  0  0  0  0  0  0  0  0  0  0  0
  -28.7190  -23.7330   20.1860 C   0  0  0  0  0  3  0  0  0  0  0  0
  -28.2390  -22.5300   20.3760 N   0  0  0  0  0  0  0  0  0  0  0  0
  -27.9150  -25.0360   20.6020 C   0  0  0  0  0  2  0  0  0  0  0  0
  -28.2620  -26.3890   20.0790 O   0  0  0  0  0  0  0  0  0  0  0  0
  -24.5960  -31.8080   23.1660 C   0  0  0  0  0  0  0  0  0  0  0  0
  -27.1910  -27.2940   20.0400 C   0  0  0  0  0  0  0  0  0  0  0  0
  -23.3930  -30.4460   21.4960 C   0  0  0  0  0  3  0  0  0  0  0  0
  -24.8420  -28.9210   20.0420 C   0  0  0  0  0  0  0  0  0  0  0  0
  -25.9340  -30.7570   21.3270 C   0  0  0  0  0  2  0  0  0  0  0  0
  -26.0110  -29.3920   20.6550 C   0  0  0  0  0  0  0  0  0  0  0  0
  -27.1940  -28.5890   20.6460 C   0  0  0  0  0  3  0  0  0  0  0  0
  -26.0090  -26.8900   19.3840 C   0  0  0  0  0  3  0  0  0  0  0  0
  -24.8440  -27.6760   19.3950 C   0  0  0  0  0  3  0  0  0  0  0  0
  -23.6080  -29.7980   20.1030 C   0  0  0  0  0  2  0  0  0  0  0  0
  -24.6590  -31.0190   22.0530 N   0  0  0  0  0  0  0  0  0  0  0  0
  -23.5110  -32.0790   23.7020 O   0  0  0  0  0  0  0  0  0  0  0  0
  -22.7230  -29.4130   22.4340 C   0  0  0  0  0  0  0  0  0  0  0  0
  -21.3920  -29.2630   22.3190 N   0  0  0  0  0  0  0  0  0  0  0  0
  -23.3990  -28.7500   23.2240 O   0  0  0  0  0  0  0  0  0  0  0  0
  -20.9050  -29.8480   21.6550 H   0  0  0  0  0  0  0  0  0  0  0  0
  -17.9950  -28.1450   22.8590 C   0  0  0  0  0  0  0  0  0  0  0  0
  -20.5650  -28.3190   23.0740 C   0  0  0  0  0  3  0  0  0  0  0  0
  -20.6110  -26.9090   22.4400 C   0  0  0  0  0  2  0  0  0  0  0  0
  -19.4750  -26.6600   21.4430 C   0  0  0  0  0  2  0  0  0  0  0  0
  -18.1140  -26.8190   22.1270 C   0  0  0  0  0  2  0  0  0  0  0  0
  -19.1450  -28.8570   23.2890 C   0  0  0  0  0  0  0  0  0  0  0  0
  -18.9790  -30.1010   23.9360 C   0  0  0  0  0  3  0  0  0  0  0  0
  -17.6930  -30.6330   24.1530 C   0  0  0  0  0  3  0  0  0  0  0  0
  -16.5570  -29.9170   23.7380 C   0  0  0  0  0  3  0  0  0  0  0  0
  -16.7090  -28.6740   23.0970 C   0  0  0  0  0  3  0  0  0  0  0  0
  -25.8780  -32.4240   23.8040 C   0  0  0  0  0  3  0  0  0  0  0  0
  -25.5740  -33.8200   24.1530 N   0  0  0  0  0  0  0  0  0  0  0  0
  -25.9120  -34.8820   23.4100 C   0  0  0  0  0  0  0  0  0  0  0  0
  -26.5820  -34.7910   22.3790 O   0  0  0  0  0  0  0  0  0  0  0  0
  -24.9810  -33.9650   24.9570 H   0  0  0  0  0  0  0  0  0  0  0  0
  -24.1910  -36.6870   23.0830 C   0  0  0  0  0  1  0  0  0  0  0  0
  -25.4300  -36.2660   23.8880 C   0  0  0  0  0  3  0  0  0  0  0  0
  -27.5660  -37.1340   24.7340 C   0  0  0  0  0  1  0  0  0  0  0  0
  -26.4680  -37.3170   23.7890 N   0  0  0  0  0  0  0  0  0  0  0  0
  -26.0640  -38.2360   23.9460 H   0  0  0  0  0  0  0  0  0  0  0  0
  -26.3830  -31.6310   25.0720 C   0  0  1  0  0  0  0  0  0  0  0  0
  -25.2820  -31.3860   26.1290 C   0  0  0  0  0  1  0  0  0  0  0  0
  -26.9610  -30.2580   24.6640 C   0  0  0  0  0  1  0  0  0  0  0  0
  -27.5340  -32.4110   25.7510 C   0  0  0  0  0  1  0  0  0  0  0  0
  1  2  2  0
  1  4  1  0
  2  5  1  0
  4 16  1  0
  4  6  2  0
  5 49  1  0
  5  3  2  0
  6  3  1  0
  6  7  1  0
  8 17  1  0
  9 14  1  0
 10 11  1  0
 10  9  1  0
 12 11  1  0
 12 23  1  0
 12 13  1  0
 14  8  1  0
 14 13  1  0
 15  8  2  0
 16 18  2  0
 17 16  1  0
 17 19  1  0
 20 21  2  0
 21 40  1  0
 22 21  1  0
 22 25  1  0
 23 24  1  0
 23 20  1  0
 24 22  2  0
 25 26  1  0
 26 27  2  0
 28 31  1  0
 28 27  1  0
 29 28  2  0
 30 29  1  0
 30 25  2  0
 31 32  1  0
 32 33  1  0
 33 34  2  0
 35 34  1  0
 35 39  1  0
 36 35  2  0
 37 32  2  0
 37 36  1  0
 38 37  1  0
 40 41  1  0
 41 44  1  0
 41 43  1  0
 42 40  2  0
 45 20  1  0
 45 46  1  0
 47 45  1  0
 48 49  2  0
 48 50  1  0
 51 50  1  0
 52 63  2  0
 53 51  1  0
 53 58  1  0
 54 62  1  0
 54 64  1  0
 55 61  1  0
 55 57  1  0
 56 62  1  0
 57 56  1  0
 58 57  2  0
 59 60  1  0
 59 53  2  0
 60 55  2  0
 61 54  1  0
 62 52  1  0
 64 66  2  0
 65 64  1  0
 67 65  1  0
 68 77  2  0
 68 73  1  0
 69 65  1  0
 69 73  1  0
 70 69  1  0
 71 72  1  0
 71 70  1  0
 72 68  1  0
 73 74  2  0
 74 75  1  0
 76 75  2  0
 77 76  1  0
 78 52  1  0
 78 79  1  0
 78 88  1  0
 79 82  1  0
 80 84  1  0
 80 79  1  0
 81 80  2  0
 84 83  1  0
 86 84  1  0
 86 87  1  0
 86 85  1  0
 88 91  1  1
 88 89  1  0
 90 88  1  0
M  ISO  4   8 100  17 100  50 101  51 101
M  END
>  <TORSDO>  (22) 
F 18

>  <SCORE>  (22) 
-14.738

>  <name>  (22) 
21

>  <ligand_id>  (22) 
21

>  <original_smiles>  (22) 
[H]C(=Nc1c([H])c([H])c(C(=O)N([H])C(=O)N2C([H])([H])C([H])([H])C([H])([H])C([H])(n3nc(-c4c([H])c([H])c(Oc5c([H])c([H])c(F)c([H])c5F)c([H])c4[H])c(C(=O)N([H])[H])c3N([H])[H])C2([H])[H])c(F)c1[H])C([H])([H])Oc1c([H])c([H])c2c(c1[H])C([H])([H])N(C(=O)C([H])(N([H])C(=O)C([H])(N([H])C([H])([H])[H])C([H])([H])[H])C(C([H])([H])[H])(C([H])([H])[H])C([H])([H])[H])C([H])(C(=O)N([H])C1([H])c3c([H])c([H])c([H])c([H])c3C([H])([H])C([H])([H])C1([H])[H])C2([H])[H]

>  <smiles>  (22) 
[H]C(=Nc1c([H])c([H])c(C(=O)N([H])C(=O)N2C([H])([H])C([H])([H])C([H])([H])C([H])(n3nc(-c4c([H])c([H])c(Oc5c([H])c([H])c(F)c([H])c5F)c([H])c4[H])c(C(=O)N([H])[H])c3N([H])[H])C2([H])[H])c(F)c1[H])C([H])([H])Oc1c([H])c([H])c2c(c1[H])C([H])([H])N(C(=O)C([H])(N([H])C(=O)C([H])(N([H])C([H])([H])[H])C([H])([H])[H])C(C([H])([H])[H])(C([H])([H])[H])C([H])([H])[H])C([H])(C(=O)N([H])C1([H])c3c([H])c([H])c([H])c([H])c3C([H])([H])C([H])([H])C1([H])[H])C2([H])[H]

$$$$
22:0:0
     RDKit          3D

 92101  0  0  1  0  0  0  0  0999 V2000
  -28.1710  -23.0680   20.2950 C   0  0  0  0  0  0  0  0  0  0  0  0
  -30.8370  -23.7930   19.9320 C   0  0  0  0  0  2  0  0  0  0  0  0
  -29.8550  -24.6490   19.1070 C   0  0  0  0  0  2  0  0  0  0  0  0
  -30.4840  -22.2810   19.9070 C   0  0  0  0  0  2  0  0  0  0  0  0
  -28.4230  -24.6350   19.6730 C   0  0  0  0  0  3  0  0  0  0  0  0
  -29.0740  -21.9290   20.1600 N   0  0  0  0  0  0  0  0  0  0  0  0
  -27.0920  -22.8960   20.8710 O   0  0  0  0  0  0  0  0  0  0  0  0
  -27.3940  -18.6060   19.0600 C   0  0  0  0  0  3  0  0  0  0  0  0
  -27.6610  -19.9610   19.3810 C   0  0  0  0  0  3  0  0  0  0  0  0
  -28.2250  -17.5210   19.4390 C   0  0  0  0  0  3  0  0  0  0  0  0
  -29.6500  -19.1710   20.4990 C   0  0  0  0  0  3  0  0  0  0  0  0
  -28.8150  -20.3690   20.0860 C   0  0  0  0  0  0  0  0  0  0  0  0
  -29.3850  -17.7000   20.2180 C   0  0  0  0  0  0  0  0  0  0  0  0
  -30.5680  -15.1360   20.2630 C   0  0  0  0  0  0  0  0  0  0  0  0
  -30.3980  -12.7390   19.3630 C   0  0  0  0  0  2  0  0  0  0  0  0
  -29.4830  -12.6310   18.1220 C   0  0  0  0  0  2  0  0  0  0  0  0
  -28.0300  -12.3910   18.5620 C   0  0  0  0  0  2  0  0  0  0  0  0
  -27.6050  -13.3440   19.7090 C   0  0  0  0  0  3  0  0  0  0  0  0
  -28.6560  -13.4560   20.8370 C   0  0  0  0  0  2  0  0  0  0  0  0
  -29.9160  -13.8840   20.2160 N   0  0  0  0  0  0  0  0  0  0  0  0
  -31.7410  -15.0990   19.8680 O   0  0  0  0  0  0  0  0  0  0  0  0
  -30.7800  -16.7150   22.0310 C   0  0  0  0  0  1  0  0  0  0  0  0
  -30.0570  -16.3990   20.7950 N   0  0  0  0  0  0  0  0  0  0  0  0
  -25.2310  -13.9120   20.4530 C   0  0  0  0  0  0  0  0  0  0  0  0
  -24.1690  -13.1360   20.8240 C   0  0  0  0  0  0  0  0  0  0  0  0
  -24.6380  -11.7850   20.8030 C   0  0  0  0  0  0  0  0  0  0  0  0
  -26.2750  -13.0350   20.2170 N   0  0  0  0  0  0  0  0  0  0  0  0
  -25.9310  -11.7510   20.4950 N   0  0  0  0  0  0  0  0  0  0  0  0
  -23.9130  -10.5230   21.0000 C   0  0  0  0  0  0  0  0  0  0  0  0
  -24.3480   -9.5600   21.9380 C   0  0  0  0  0  3  0  0  0  0  0  0
  -23.6190   -8.3660   22.1250 C   0  0  0  0  0  3  0  0  0  0  0  0
  -22.4440   -8.1250   21.3740 C   0  0  0  0  0  0  0  0  0  0  0  0
  -22.0300   -9.0760   20.4250 C   0  0  0  0  0  3  0  0  0  0  0  0
  -22.7570  -10.2620   20.2360 C   0  0  0  0  0  3  0  0  0  0  0  0
  -21.6870   -6.9810   21.4720 O   0  0  0  0  0  0  0  0  0  0  0  0
  -21.6420   -6.2430   22.6260 C   0  0  0  0  0  0  0  0  0  0  0  0
  -21.2200   -6.8030   23.8530 C   0  0  0  0  0  3  0  0  0  0  0  0
  -21.1250   -5.9900   25.0000 C   0  0  0  0  0  3  0  0  0  0  0  0
  -21.4380   -4.6210   24.9220 C   0  0  0  0  0  0  0  0  0  0  0  0
  -21.8520   -4.0600   23.7010 C   0  0  0  0  0  3  0  0  0  0  0  0
  -21.9510   -4.8700   22.5560 C   0  0  0  0  0  0  0  0  0  0  0  0
  -22.3310   -4.3210   21.3770 F   0  0  0  0  0  0  0  0  0  0  0  0
  -21.3380   -3.8390   26.0230 F   0  0  0  0  0  0  0  0  0  0  0  0
  -22.7710  -13.6120   21.0860 C   0  0  0  0  0  0  0  0  0  0  0  0
  -22.0430  -12.9240   21.9560 N   0  0  0  0  0  0  0  0  0  0  0  0
  -22.3370  -14.6330   20.5540 O   0  0  0  0  0  0  0  0  0  0  0  0
  -22.4080  -12.0990   22.4080 H   0  0  0  0  0  0  0  0  0  0  0  0
  -21.1030  -13.2240   22.1710 H   0  0  0  0  0  0  0  0  0  0  0  0
  -25.3900  -15.2820   20.2710 N   0  0  0  0  0  0  0  0  0  0  0  0
  -24.6250  -15.9340   20.4030 H   0  0  0  0  0  0  0  0  0  0  0  0
  -26.2540  -15.7340   20.0110 H   0  0  0  0  0  0  0  0  0  0  0  0
  -28.2250  -26.0530   20.3850 O   0  0  0  0  0  0  0  0  0  0  0  0
  -24.6290  -31.8700   23.2450 C   0  0  0  0  0  0  0  0  0  0  0  0
  -27.1960  -27.0830   20.2180 C   0  0  0  0  0  0  0  0  0  0  0  0
  -23.4310  -30.4730   21.6050 C   0  0  0  0  0  3  0  0  0  0  0  0
  -24.8800  -28.8860   20.1730 C   0  0  0  0  0  0  0  0  0  0  0  0
  -25.9890  -30.7150   21.4480 C   0  0  0  0  0  2  0  0  0  0  0  0
  -26.0580  -29.3150   20.7950 C   0  0  0  0  0  0  0  0  0  0  0  0
  -27.2090  -28.4260   20.8060 C   0  0  0  0  0  3  0  0  0  0  0  0
  -25.9980  -26.7810   19.5380 C   0  0  0  0  0  3  0  0  0  0  0  0
  -24.8680  -27.6390   19.5260 C   0  0  0  0  0  3  0  0  0  0  0  0
  -23.6550  -29.7920   20.2260 C   0  0  0  0  0  2  0  0  0  0  0  0
  -24.7030  -31.0440   22.1540 N   0  0  0  0  0  0  0  0  0  0  0  0
  -23.5420  -32.1560   23.7720 O   0  0  0  0  0  0  0  0  0  0  0  0
  -22.7460  -29.4730   22.5710 C   0  0  0  0  0  0  0  0  0  0  0  0
  -21.4170  -29.3060   22.4490 N   0  0  0  0  0  0  0  0  0  0  0  0
  -23.4170  -28.8470   23.3980 O   0  0  0  0  0  0  0  0  0  0  0  0
  -20.9310  -29.8610   21.7570 H   0  0  0  0  0  0  0  0  0  0  0  0
  -18.0360  -28.0990   22.9550 C   0  0  0  0  0  0  0  0  0  0  0  0
  -20.5950  -28.3690   23.2210 C   0  0  0  0  0  3  0  0  0  0  0  0
  -20.6990  -26.9360   22.6490 C   0  0  0  0  0  2  0  0  0  0  0  0
  -19.5990  -26.6100   21.6350 C   0  0  0  0  0  2  0  0  0  0  0  0
  -18.2160  -26.7500   22.2760 C   0  0  0  0  0  2  0  0  0  0  0  0
  -19.1520  -28.8660   23.3830 C   0  0  0  0  0  0  0  0  0  0  0  0
  -18.9280  -30.1260   23.9780 C   0  0  0  0  0  3  0  0  0  0  0  0
  -17.6210  -30.6210   24.1450 C   0  0  0  0  0  3  0  0  0  0  0  0
  -16.5200  -29.8530   23.7310 C   0  0  0  0  0  3  0  0  0  0  0  0
  -16.7270  -28.5920   23.1420 C   0  0  0  0  0  3  0  0  0  0  0  0
  -25.9040  -32.5090   23.8740 C   0  0  0  0  0  3  0  0  0  0  0  0
  -25.5940  -33.9110   24.2010 N   0  0  0  0  0  0  0  0  0  0  0  0
  -25.9170  -34.9650   23.4420 C   0  0  0  0  0  0  0  0  0  0  0  0
  -26.5750  -34.8600   22.4030 O   0  0  0  0  0  0  0  0  0  0  0  0
  -25.0110  -34.0660   25.0120 H   0  0  0  0  0  0  0  0  0  0  0  0
  -24.1800  -36.7590   23.1170 C   0  0  0  0  0  1  0  0  0  0  0  0
  -25.4380  -36.3570   23.9040 C   0  0  0  0  0  3  0  0  0  0  0  0
  -27.5850  -37.2540   24.6890 C   0  0  0  0  0  1  0  0  0  0  0  0
  -26.4660  -37.4120   23.7650 N   0  0  0  0  0  0  0  0  0  0  0  0
  -26.0610  -38.3320   23.9120 H   0  0  0  0  0  0  0  0  0  0  0  0
  -26.4080  -31.7480   25.1620 C   0  0  1  0  0  0  0  0  0  0  0  0
  -25.3060  -31.5260   26.2250 C   0  0  0  0  0  1  0  0  0  0  0  0
  -26.9880  -30.3630   24.7930 C   0  0  0  0  0  1  0  0  0  0  0  0
  -27.5590  -32.5420   25.8250 C   0  0  0  0  0  1  0  0  0  0  0  0
  1  7  2  0
  3  5  1  0
  3  2  1  0
  4  2  1  0
  4  6  1  0
  5  1  1  0
  5 52  1  0
  6  1  1  0
  8  9  2  0
  8 10  1  0
  9 12  1  0
 10 13  2  0
 12  6  1  0
 12 11  2  0
 13 11  1  0
 13 23  1  0
 14 23  1  0
 15 20  1  0
 16 17  1  0
 16 15  1  0
 18 17  1  0
 18 27  1  0
 18 19  1  0
 20 14  1  0
 20 19  1  0
 21 14  2  0
 23 22  1  0
 24 25  2  0
 25 44  1  0
 26 25  1  0
 26 29  1  0
 27 24  1  0
 27 28  1  0
 28 26  2  0
 29 30  1  0
 30 31  2  0
 32 35  1  0
 32 31  1  0
 33 32  2  0
 34 33  1  0
 34 29  2  0
 35 36  1  0
 36 37  1  0
 37 38  2  0
 39 38  1  0
 39 43  1  0
 40 39  2  0
 41 36  2  0
 41 40  1  0
 42 41  1  0
 44 45  1  0
 45 48  1  0
 45 47  1  0
 46 44  2  0
 49 50  1  0
 49 24  1  0
 51 49  1  0
 53 64  2  0
 54 52  1  0
 54 59  1  0
 55 63  1  0
 55 65  1  0
 56 62  1  0
 56 58  1  0
 57 63  1  0
 58 59  2  0
 58 57  1  0
 60 54  2  0
 61 60  1  0
 61 56  2  0
 62 55  1  0
 63 53  1  0
 65 67  2  0
 66 65  1  0
 68 66  1  0
 69 78  2  0
 69 74  1  0
 70 66  1  0
 70 74  1  0
 71 70  1  0
 72 73  1  0
 72 71  1  0
 73 69  1  0
 74 75  2  0
 75 76  1  0
 77 76  2  0
 78 77  1  0
 79 53  1  0
 79 80  1  0
 79 89  1  0
 80 83  1  0
 81 85  1  0
 81 80  1  0
 82 81  2  0
 85 84  1  0
 87 85  1  0
 87 88  1  0
 87 86  1  0
 89 92  1  1
 89 90  1  0
 91 89  1  0
M  ISO  4   5 101  14 100  23 100  52 101
M  END
>  <TORSDO>  (23) 
F 17

>  <SCORE>  (23) 
-15.567

>  <name>  (23) 
22

>  <ligand_id>  (23) 
22

>  <original_smiles>  (23) 
[H]c1c([H])c(N(C(=O)N2C([H])([H])C([H])([H])C([H])([H])C([H])(n3nc(-c4c([H])c([H])c(Oc5c([H])c([H])c(F)c([H])c5F)c([H])c4[H])c(C(=O)N([H])[H])c3N([H])[H])C2([H])[H])C([H])([H])[H])c([H])c(N2C(=O)C([H])(Oc3c([H])c([H])c4c(c3[H])C([H])([H])N(C(=O)C([H])(N([H])C(=O)C([H])(N([H])C([H])([H])[H])C([H])([H])[H])C(C([H])([H])[H])(C([H])([H])[H])C([H])([H])[H])C([H])(C(=O)N([H])C3([H])c5c([H])c([H])c([H])c([H])c5C([H])([H])C([H])([H])C3([H])[H])C4([H])[H])C([H])([H])C([H])([H])C2([H])[H])c1[H]

>  <smiles>  (23) 
[H]c1c([H])c(N(C(=O)N2C([H])([H])C([H])([H])C([H])([H])C([H])(n3nc(-c4c([H])c([H])c(Oc5c([H])c([H])c(F)c([H])c5F)c([H])c4[H])c(C(=O)N([H])[H])c3N([H])[H])C2([H])[H])C([H])([H])[H])c([H])c(N2C(=O)C([H])(Oc3c([H])c([H])c4c(c3[H])C([H])([H])N(C(=O)C([H])(N([H])C(=O)C([H])(N([H])C([H])([H])[H])C([H])([H])[H])C(C([H])([H])[H])(C([H])([H])[H])C([H])([H])[H])C([H])(C(=O)N([H])C3([H])c5c([H])c([H])c([H])c([H])c5C([H])([H])C([H])([H])C3([H])[H])C4([H])[H])C([H])([H])C([H])([H])C2([H])[H])c1[H]

$$$$
23:0:0
     RDKit          3D

 94102  0  0  1  0  0  0  0  0999 V2000
  -28.7150  -21.8910   20.8040 C   0  0  0  0  0  0  0  0  0  0  0  0
  -28.2070  -24.2740   20.4130 C   0  0  0  0  0  0  0  0  0  0  0  0
  -28.9710  -23.1460   20.3370 N   0  0  0  0  0  0  0  0  0  0  0  0
  -27.6170  -21.5340   21.2470 O   0  0  0  0  0  0  0  0  0  0  0  0
  -27.1780  -24.3570   21.0950 O   0  0  0  0  0  0  0  0  0  0  0  0
  -29.8590  -23.2620   19.8730 H   0  0  0  0  0  0  0  0  0  0  0  0
  -29.8760  -20.8470   20.8100 C   0  0  0  0  0  2  0  0  0  0  0  0
  -29.8400  -18.2330   20.8850 C   0  0  0  0  0  3  0  0  0  0  0  0
  -29.1830  -19.3820   18.8340 C   0  0  0  0  0  3  0  0  0  0  0  0
  -29.2830  -16.9410   18.8930 C   0  0  0  0  0  3  0  0  0  0  0  0
  -29.5930  -19.4560   20.1840 C   0  0  0  0  0  0  0  0  0  0  0  0
  -29.7060  -16.9640   20.2430 C   0  0  0  0  0  0  0  0  0  0  0  0
  -29.0240  -18.1380   18.1980 C   0  0  0  0  0  0  0  0  0  0  0  0
  -28.6290  -18.0900   16.9030 F   0  0  0  0  0  0  0  0  0  0  0  0
  -30.6660  -14.6880   20.4930 C   0  0  0  0  0  0  0  0  0  0  0  0
  -30.4660  -12.4940   19.3850 C   0  0  0  0  0  2  0  0  0  0  0  0
  -29.5340  -12.6700   18.1670 C   0  0  0  0  0  2  0  0  0  0  0  0
  -28.0570  -12.5010   18.5760 C   0  0  0  0  0  2  0  0  0  0  0  0
  -27.6850  -13.3220   19.8390 C   0  0  0  0  0  3  0  0  0  0  0  0
  -28.7330  -13.1310   20.9600 C   0  0  0  0  0  2  0  0  0  0  0  0
  -30.0540  -13.4730   20.4080 N   0  0  0  0  0  0  0  0  0  0  0  0
  -31.8030  -14.8870   20.0550 O   0  0  0  0  0  0  0  0  0  0  0  0
  -29.9010  -15.7150   20.9390 N   0  0  0  0  0  0  0  0  0  0  0  0
  -29.1120  -15.4210   21.4960 H   0  0  0  0  0  0  0  0  0  0  0  0
  -25.2680  -13.8760   20.5190 C   0  0  0  0  0  0  0  0  0  0  0  0
  -24.2110  -13.0820   20.8730 C   0  0  0  0  0  0  0  0  0  0  0  0
  -24.7000  -11.7400   20.8440 C   0  0  0  0  0  0  0  0  0  0  0  0
  -26.3330  -13.0170   20.2990 N   0  0  0  0  0  0  0  0  0  0  0  0
  -25.9940  -11.7270   20.5510 N   0  0  0  0  0  0  0  0  0  0  0  0
  -23.9970  -10.4620   21.0220 C   0  0  0  0  0  0  0  0  0  0  0  0
  -24.4050   -9.5250   21.9960 C   0  0  0  0  0  3  0  0  0  0  0  0
  -23.7010   -8.3120   22.1610 C   0  0  0  0  0  3  0  0  0  0  0  0
  -22.5770   -8.0280   21.3500 C   0  0  0  0  0  0  0  0  0  0  0  0
  -22.1890   -8.9550   20.3670 C   0  0  0  0  0  3  0  0  0  0  0  0
  -22.8930  -10.1600   20.2000 C   0  0  0  0  0  3  0  0  0  0  0  0
  -21.8490   -6.8650   21.4210 O   0  0  0  0  0  0  0  0  0  0  0  0
  -21.7190   -6.1670   22.5960 C   0  0  0  0  0  0  0  0  0  0  0  0
  -21.1120   -6.7370   23.7360 C   0  0  0  0  0  3  0  0  0  0  0  0
  -20.9350   -5.9620   24.9010 C   0  0  0  0  0  3  0  0  0  0  0  0
  -21.3560   -4.6180   24.9240 C   0  0  0  0  0  0  0  0  0  0  0  0
  -21.9560   -4.0480   23.7870 C   0  0  0  0  0  3  0  0  0  0  0  0
  -22.1350   -4.8210   22.6250 C   0  0  0  0  0  0  0  0  0  0  0  0
  -22.6930   -4.2610   21.5250 F   0  0  0  0  0  0  0  0  0  0  0  0
  -21.1800   -3.8710   26.0380 F   0  0  0  0  0  0  0  0  0  0  0  0
  -22.8020  -13.5300   21.1310 C   0  0  0  0  0  0  0  0  0  0  0  0
  -22.0720  -12.8070   21.9730 N   0  0  0  0  0  0  0  0  0  0  0  0
  -22.3530  -14.5580   20.6230 O   0  0  0  0  0  0  0  0  0  0  0  0
  -22.4480  -11.9750   22.4050 H   0  0  0  0  0  0  0  0  0  0  0  0
  -21.1270  -13.0880   22.1890 H   0  0  0  0  0  0  0  0  0  0  0  0
  -25.4110  -15.2500   20.3480 N   0  0  0  0  0  0  0  0  0  0  0  0
  -24.6340  -15.8940   20.4500 H   0  0  0  0  0  0  0  0  0  0  0  0
  -26.2610  -15.7040   20.0370 H   0  0  0  0  0  0  0  0  0  0  0  0
  -28.6440  -25.5220   19.5820 C   0  0  0  0  0  2  0  0  0  0  0  0
  -28.4690  -26.8050   20.2530 O   0  0  0  0  0  0  0  0  0  0  0  0
  -24.5310  -31.9500   23.2530 C   0  0  0  0  0  0  0  0  0  0  0  0
  -27.2850  -27.5290   20.1820 C   0  0  0  0  0  0  0  0  0  0  0  0
  -23.3770  -30.5540   21.5710 C   0  0  0  0  0  3  0  0  0  0  0  0
  -24.8760  -29.0450   20.1560 C   0  0  0  0  0  0  0  0  0  0  0  0
  -25.9060  -30.9290   21.4360 C   0  0  0  0  0  2  0  0  0  0  0  0
  -26.0180  -29.5630   20.7800 C   0  0  0  0  0  0  0  0  0  0  0  0
  -27.2190  -28.8110   20.7900 C   0  0  0  0  0  3  0  0  0  0  0  0
  -26.1190  -27.0370   19.5510 C   0  0  0  0  0  3  0  0  0  0  0  0
  -24.9240  -27.7830   19.5400 C   0  0  0  0  0  3  0  0  0  0  0  0
  -23.6240  -29.8940   20.1870 C   0  0  0  0  0  2  0  0  0  0  0  0
  -24.6220  -31.1600   22.1450 N   0  0  0  0  0  0  0  0  0  0  0  0
  -23.4350  -32.2050   23.7720 O   0  0  0  0  0  0  0  0  0  0  0  0
  -22.7140  -29.5160   22.5060 C   0  0  0  0  0  0  0  0  0  0  0  0
  -21.3960  -29.3200   22.3470 N   0  0  0  0  0  0  0  0  0  0  0  0
  -23.3860  -28.8900   23.3310 O   0  0  0  0  0  0  0  0  0  0  0  0
  -20.9150  -29.8780   21.6550 H   0  0  0  0  0  0  0  0  0  0  0  0
  -18.0150  -28.1230   22.7990 C   0  0  0  0  0  0  0  0  0  0  0  0
  -20.5720  -28.3640   23.0890 C   0  0  0  0  0  3  0  0  0  0  0  0
  -20.6730  -26.9490   22.4740 C   0  0  0  0  0  2  0  0  0  0  0  0
  -19.5730  -26.6580   21.4460 C   0  0  0  0  0  2  0  0  0  0  0  0
  -18.1900  -26.7920   22.0890 C   0  0  0  0  0  2  0  0  0  0  0  0
  -19.1350  -28.8680   23.2540 C   0  0  0  0  0  0  0  0  0  0  0  0
  -18.9170  -30.1170   23.8790 C   0  0  0  0  0  3  0  0  0  0  0  0
  -17.6130  -30.6180   24.0520 C   0  0  0  0  0  3  0  0  0  0  0  0
  -16.5090  -29.8680   23.6130 C   0  0  0  0  0  3  0  0  0  0  0  0
  -16.7110  -28.6220   22.9930 C   0  0  0  0  0  3  0  0  0  0  0  0
  -25.7960  -32.5890   23.9070 C   0  0  0  0  0  3  0  0  0  0  0  0
  -26.2800  -31.8250   25.2010 C   0  0  1  0  0  0  0  0  0  0  0  0
  -25.1540  -31.5690   26.2300 C   0  0  0  0  0  1  0  0  0  0  0  0
  -26.8990  -30.4580   24.8280 C   0  0  0  0  0  1  0  0  0  0  0  0
  -27.3930  -32.6370   25.9040 C   0  0  0  0  0  1  0  0  0  0  0  0
  -25.4730  -33.9870   24.2230 N   0  0  0  0  0  0  0  0  0  0  0  0
  -25.8330  -35.0390   23.4740 C   0  0  0  0  0  0  0  0  0  0  0  0
  -26.5420  -34.9330   22.4690 O   0  0  0  0  0  0  0  0  0  0  0  0
  -24.8490  -34.1430   25.0010 H   0  0  0  0  0  0  0  0  0  0  0  0
  -24.1360  -36.8400   23.0290 C   0  0  0  0  0  1  0  0  0  0  0  0
  -25.3270  -36.4270   23.9080 C   0  0  0  0  0  3  0  0  0  0  0  0
  -27.4070  -37.3070   24.8710 C   0  0  0  0  0  1  0  0  0  0  0  0
  -26.3680  -37.4760   23.8580 N   0  0  0  0  0  0  0  0  0  0  0  0
  -25.9580  -38.3970   23.9760 H   0  0  0  0  0  0  0  0  0  0  0  0
  1  7  1  0
  1  4  2  0
  2  5  2  0
  3  2  1  0
  3  1  1  0
  6  3  1  0
  9 11  1  0
 10 12  2  0
 11  7  1  0
 11  8  2  0
 12  8  1  0
 12 23  1  0
 13  9  2  0
 13 10  1  0
 14 13  1  0
 15 23  1  0
 16 21  1  0
 17 18  1  0
 17 16  1  0
 19 18  1  0
 19 28  1  0
 19 20  1  0
 21 15  1  0
 21 20  1  0
 22 15  2  0
 23 24  1  0
 25 26  2  0
 26 45  1  0
 27 26  1  0
 27 30  1  0
 28 25  1  0
 28 29  1  0
 29 27  2  0
 30 31  1  0
 31 32  2  0
 33 36  1  0
 33 32  1  0
 34 33  2  0
 35 34  1  0
 35 30  2  0
 36 37  1  0
 37 42  2  0
 37 38  1  0
 38 39  2  0
 39 40  1  0
 40 44  1  0
 41 40  2  0
 42 41  1  0
 43 42  1  0
 45 46  1  0
 46 49  1  0
 46 48  1  0
 47 45  2  0
 50 51  1  0
 50 25  1  0
 52 50  1  0
 53 54  1  0
 53  2  1  0
 55 66  2  0
 56 54  1  0
 56 61  1  0
 57 65  1  0
 57 67  1  0
 58 64  1  0
 58 60  1  0
 59 65  1  0
 60 61  2  0
 60 59  1  0
 62 56  2  0
 63 62  1  0
 63 58  2  0
 64 57  1  0
 65 55  1  0
 67 69  2  0
 68 67  1  0
 70 68  1  0
 71 80  2  0
 71 76  1  0
 72 68  1  0
 72 76  1  0
 73 72  1  0
 74 75  1  0
 74 73  1  0
 75 71  1  0
 76 77  2  0
 77 78  1  0
 79 78  2  0
 80 79  1  0
 81 55  1  0
 81 86  1  0
 81 82  1  0
 82 85  1  1
 82 83  1  0
 84 82  1  0
 86 89  1  0
 87 91  1  0
 87 86  1  0
 88 87  2  0
 91 90  1  0
 93 91  1  0
 93 94  1  0
 93 92  1  0
M  ISO  4  15 100  23 100  53 101  54 101
M  END
>  <TORSDO>  (24) 
F 19

>  <SCORE>  (24) 
-14.346

>  <name>  (24) 
23

>  <ligand_id>  (24) 
23

>  <original_smiles>  (24) 
[H]c1c([H])c([H])c2c(c1[H])C([H])([H])C([H])([H])C([H])([H])C2([H])N([H])C(=O)C1([H])N(C(=O)C([H])(N([H])C(=O)C([H])(N([H])C([H])([H])[H])C([H])([H])[H])C(C([H])([H])[H])(C([H])([H])[H])C([H])([H])[H])C([H])([H])c2c([H])c(OC([H])([H])C(=O)N([H])C(=O)C([H])([H])c3c([H])c(F)c([H])c(N([H])C(=O)N4C([H])([H])C([H])([H])C([H])([H])C([H])(n5nc(-c6c([H])c([H])c(Oc7c([H])c([H])c(F)c([H])c7F)c([H])c6[H])c(C(=O)N([H])[H])c5N([H])[H])C4([H])[H])c3[H])c([H])c([H])c2C1([H])[H]

>  <smiles>  (24) 
[H]c1c([H])c([H])c2c(c1[H])C([H])([H])C([H])([H])C([H])([H])C2([H])N([H])C(=O)C1([H])N(C(=O)C([H])(N([H])C(=O)C([H])(N([H])C([H])([H])[H])C([H])([H])[H])C(C([H])([H])[H])(C([H])([H])[H])C([H])([H])[H])C([H])([H])c2c([H])c(OC([H])([H])C(=O)N([H])C(=O)C([H])([H])c3c([H])c(F)c([H])c(N([H])C(=O)N4C([H])([H])C([H])([H])C([H])([H])C([H])(n5nc(-c6c([H])c([H])c(Oc7c([H])c([H])c(F)c([H])c7F)c([H])c6[H])c(C(=O)N([H])[H])c5N([H])[H])C4([H])[H])c3[H])c([H])c([H])c2C1([H])[H]

$$$$
24:0:0
     RDKit          3D

 98107  0  0  1  0  0  0  0  0999 V2000
  -31.6480  -17.8680   20.8430 C   0  0  0  0  0  3  0  0  0  0  0  0
  -29.4110  -18.7550   20.4500 C   0  0  0  0  0  0  0  0  0  0  0  0
  -29.8580  -20.1580   20.6150 C   0  0  0  0  0  0  0  0  0  0  0  0
  -30.2930  -17.5760   20.5610 C   0  0  0  0  0  0  0  0  0  0  0  0
  -32.1100  -19.1860   21.0090 C   0  0  0  0  0  0  0  0  0  0  0  0
  -31.2430  -20.2990   20.9120 C   0  0  0  0  0  0  0  0  0  0  0  0
  -27.9490  -18.4890   20.1360 C   0  0  0  0  0  1  0  0  0  0  0  0
  -30.6080  -14.9520   20.1890 C   0  0  0  0  0  0  0  0  0  0  0  0
  -30.3490  -12.7020   19.1060 C   0  0  0  0  0  2  0  0  0  0  0  0
  -29.3730  -12.7990   17.9130 C   0  0  0  0  0  2  0  0  0  0  0  0
  -27.9210  -12.6060   18.3890 C   0  0  0  0  0  2  0  0  0  0  0  0
  -27.5850  -13.4570   19.6430 C   0  0  0  0  0  3  0  0  0  0  0  0
  -28.6830  -13.3580   20.7250 C   0  0  0  0  0  2  0  0  0  0  0  0
  -29.9520  -13.7390   20.0920 N   0  0  0  0  0  0  0  0  0  0  0  0
  -31.7880  -15.0010   19.8310 O   0  0  0  0  0  0  0  0  0  0  0  0
  -29.8800  -16.1240   20.4540 N   0  0  0  0  0  0  0  0  0  0  0  0
  -28.8950  -15.9540   20.5840 H   0  0  0  0  0  0  0  0  0  0  0  0
  -25.2160  -14.0130   20.4460 C   0  0  0  0  0  0  0  0  0  0  0  0
  -24.1690  -13.2250   20.8390 C   0  0  0  0  0  0  0  0  0  0  0  0
  -24.6450  -11.8780   20.7830 C   0  0  0  0  0  0  0  0  0  0  0  0
  -26.2610  -13.1460   20.1720 N   0  0  0  0  0  0  0  0  0  0  0  0
  -25.9270  -11.8570   20.4380 N   0  0  0  0  0  0  0  0  0  0  0  0
  -23.9340  -10.6080   20.9780 C   0  0  0  0  0  0  0  0  0  0  0  0
  -24.3840   -9.6450   21.9080 C   0  0  0  0  0  3  0  0  0  0  0  0
  -23.6720   -8.4410   22.0930 C   0  0  0  0  0  3  0  0  0  0  0  0
  -22.4950   -8.1900   21.3490 C   0  0  0  0  0  0  0  0  0  0  0  0
  -22.0640   -9.1420   20.4070 C   0  0  0  0  0  3  0  0  0  0  0  0
  -22.7770  -10.3380   20.2210 C   0  0  0  0  0  3  0  0  0  0  0  0
  -21.7530   -7.0370   21.4430 O   0  0  0  0  0  0  0  0  0  0  0  0
  -21.7040   -6.3060   22.6020 C   0  0  0  0  0  0  0  0  0  0  0  0
  -21.2320   -6.8590   23.8130 C   0  0  0  0  0  3  0  0  0  0  0  0
  -21.1340   -6.0520   24.9650 C   0  0  0  0  0  3  0  0  0  0  0  0
  -21.4960   -4.6920   24.9050 C   0  0  0  0  0  0  0  0  0  0  0  0
  -21.9600   -4.1400   23.7000 C   0  0  0  0  0  3  0  0  0  0  0  0
  -22.0610   -4.9430   22.5500 C   0  0  0  0  0  0  0  0  0  0  0  0
  -22.4890   -4.4000   21.3860 F   0  0  0  0  0  0  0  0  0  0  0  0
  -21.3940   -3.9160   26.0090 F   0  0  0  0  0  0  0  0  0  0  0  0
  -22.7750  -13.6870   21.1490 C   0  0  0  0  0  0  0  0  0  0  0  0
  -22.0760  -12.9790   22.0280 N   0  0  0  0  0  0  0  0  0  0  0  0
  -22.3150  -14.7130   20.6480 O   0  0  0  0  0  0  0  0  0  0  0  0
  -22.4600  -12.1490   22.4550 H   0  0  0  0  0  0  0  0  0  0  0  0
  -21.1410  -13.2690   22.2770 H   0  0  0  0  0  0  0  0  0  0  0  0
  -25.3600  -15.3860   20.2740 N   0  0  0  0  0  0  0  0  0  0  0  0
  -24.5810  -16.0230   20.3990 H   0  0  0  0  0  0  0  0  0  0  0  0
  -26.1720  -15.8310   19.8700 H   0  0  0  0  0  0  0  0  0  0  0  0
  -28.2660  -23.7990   20.8770 C   0  0  0  0  0  0  0  0  0  0  0  0
  -27.9710  -25.1730   20.9220 C   0  0  0  0  0  3  0  0  0  0  0  0
  -27.4730  -22.8670   21.7780 C   0  0  0  0  0  2  0  0  0  0  0  0
  -29.2090  -22.7930   20.1120 C   0  0  0  0  0  2  0  0  0  0  0  0
  -28.1560  -21.4820   21.8030 C   0  0  0  0  0  2  0  0  0  0  0  0
  -28.9950  -21.3600   20.6180 N   0  0  0  0  0  0  0  0  0  0  0  0
  -28.3630  -26.4010   20.2910 O   0  0  0  0  0  0  0  0  0  0  0  0
  -24.6830  -31.9790   23.2490 C   0  0  0  0  0  0  0  0  0  0  0  0
  -27.3420  -27.3890   20.2080 C   0  0  0  0  0  0  0  0  0  0  0  0
  -23.5150  -30.5930   21.5790 C   0  0  0  0  0  3  0  0  0  0  0  0
  -24.9960  -29.0570   20.1570 C   0  0  0  0  0  0  0  0  0  0  0  0
  -26.0630  -30.8990   21.4490 C   0  0  0  0  0  2  0  0  0  0  0  0
  -26.1590  -29.5220   20.7880 C   0  0  0  0  0  0  0  0  0  0  0  0
  -27.3380  -28.6990   20.8050 C   0  0  0  0  0  3  0  0  0  0  0  0
  -26.1630  -27.0090   19.5330 C   0  0  0  0  0  3  0  0  0  0  0  0
  -25.0050  -27.8100   19.5160 C   0  0  0  0  0  3  0  0  0  0  0  0
  -23.7580  -29.9340   20.1950 C   0  0  0  0  0  2  0  0  0  0  0  0
  -24.7720  -31.1760   22.1490 N   0  0  0  0  0  0  0  0  0  0  0  0
  -23.5890  -32.2510   23.7650 O   0  0  0  0  0  0  0  0  0  0  0  0
  -22.8330  -29.5680   22.5180 C   0  0  0  0  0  0  0  0  0  0  0  0
  -21.5080  -29.3950   22.3750 N   0  0  0  0  0  0  0  0  0  0  0  0
  -23.4990  -28.9320   23.3400 O   0  0  0  0  0  0  0  0  0  0  0  0
  -21.0290  -29.9590   21.6860 H   0  0  0  0  0  0  0  0  0  0  0  0
  -18.1110  -28.2480   22.8800 C   0  0  0  0  0  0  0  0  0  0  0  0
  -20.6780  -28.4510   23.1260 C   0  0  0  0  0  3  0  0  0  0  0  0
  -20.7440  -27.0360   22.5060 C   0  0  0  0  0  2  0  0  0  0  0  0
  -19.6250  -26.7660   21.4960 C   0  0  0  0  0  2  0  0  0  0  0  0
  -18.2530  -26.9170   22.1600 C   0  0  0  0  0  2  0  0  0  0  0  0
  -19.2500  -28.9760   23.3200 C   0  0  0  0  0  0  0  0  0  0  0  0
  -19.0620  -30.2230   23.9540 C   0  0  0  0  0  3  0  0  0  0  0  0
  -17.7680  -30.7420   24.1530 C   0  0  0  0  0  3  0  0  0  0  0  0
  -16.6440  -30.0110   23.7290 C   0  0  0  0  0  3  0  0  0  0  0  0
  -16.8180  -28.7660   23.0980 C   0  0  0  0  0  3  0  0  0  0  0  0
  -25.9510  -32.6130   23.8990 C   0  0  0  0  0  3  0  0  0  0  0  0
  -26.4410  -31.8410   25.1860 C   0  0  1  0  0  0  0  0  0  0  0  0
  -25.3230  -31.6000   26.2280 C   0  0  0  0  0  1  0  0  0  0  0  0
  -27.0350  -30.4650   24.8090 C   0  0  0  0  0  1  0  0  0  0  0  0
  -27.5740  -32.6380   25.8750 C   0  0  0  0  0  1  0  0  0  0  0  0
  -25.6340  -34.0110   24.2270 N   0  0  0  0  0  0  0  0  0  0  0  0
  -25.9500  -35.0650   23.4620 C   0  0  0  0  0  0  0  0  0  0  0  0
  -26.6100  -34.9640   22.4250 O   0  0  0  0  0  0  0  0  0  0  0  0
  -25.0460  -34.1630   25.0330 H   0  0  0  0  0  0  0  0  0  0  0  0
  -24.1930  -36.8370   23.1400 C   0  0  0  0  0  1  0  0  0  0  0  0
  -25.4580  -36.4520   23.9220 C   0  0  0  0  0  3  0  0  0  0  0  0
  -27.5980  -37.3710   24.7000 C   0  0  0  0  0  1  0  0  0  0  0  0
  -26.4750  -37.5170   23.7770 N   0  0  0  0  0  0  0  0  0  0  0  0
  -26.0600  -38.4320   23.9260 H   0  0  0  0  0  0  0  0  0  0  0  0
  -33.4600  -19.4140   21.3030 N   0  0  0  0  0  0  0  0  0  0  0  0
  -34.1140  -18.6990   21.0080 H   0  0  0  0  0  0  0  0  0  0  0  0
  -33.7670  -20.3390   21.0200 H   0  0  0  0  0  0  0  0  0  0  0  0
  -31.8020  -21.5380   21.2270 N   0  0  0  0  0  0  0  0  0  0  0  0
  -31.0870  -22.1870   21.5310 H   0  0  0  0  0  0  0  0  0  0  0  0
  -32.5360  -21.4430   21.9170 H   0  0  0  0  0  0  0  0  0  0  0  0
  1  5  1  0
  2  4  1  0
  2  3  2  0
  3 51  1  0
  3  6  1  0
  4  1  2  0
  5 93  1  0
  6  5  2  0
  6 96  1  0
  7  2  1  0
  8 16  1  0
  9 14  1  0
 10 11  1  0
 10  9  1  0
 12 11  1  0
 12 21  1  0
 12 13  1  0
 14  8  1  0
 14 13  1  0
 15  8  2  0
 16  4  1  0
 16 17  1  0
 18 19  2  0
 19 38  1  0
 20 19  1  0
 20 23  1  0
 21 22  1  0
 21 18  1  0
 22 20  2  0
 23 24  1  0
 24 25  2  0
 26 29  1  0
 26 25  1  0
 27 26  2  0
 28 27  1  0
 28 23  2  0
 29 30  1  0
 30 31  1  0
 31 32  2  0
 33 32  1  0
 33 37  1  0
 34 33  2  0
 35 30  2  0
 35 34  1  0
 36 35  1  0
 38 39  1  0
 39 42  1  0
 39 41  1  0
 40 38  2  0
 43 44  1  0
 43 18  1  0
 45 43  1  0
 46 47  2  0
 46 48  1  0
 48 50  1  0
 49 51  1  0
 49 46  1  0
 51 50  1  0
 52 47  1  0
 53 64  2  0
 54 52  1  0
 54 59  1  0
 55 63  1  0
 55 65  1  0
 56 62  1  0
 56 58  1  0
 57 63  1  0
 58 59  2  0
 58 57  1  0
 60 54  2  0
 61 60  1  0
 61 56  2  0
 62 55  1  0
 63 53  1  0
 65 67  2  0
 66 65  1  0
 68 66  1  0
 69 78  2  0
 69 74  1  0
 70 66  1  0
 70 74  1  0
 71 70  1  0
 72 73  1  0
 72 71  1  0
 73 69  1  0
 74 75  2  0
 75 76  1  0
 77 76  2  0
 78 77  1  0
 79 53  1  0
 79 84  1  0
 79 80  1  0
 80 83  1  1
 80 81  1  0
 82 80  1  0
 84 87  1  0
 85 89  1  0
 85 84  1  0
 86 85  2  0
 89 88  1  0
 91 89  1  0
 91 92  1  0
 91 90  1  0
 94 93  1  0
 95 93  1  0
 96 97  1  0
 96 98  1  0
M  ISO  4   8 100  16 100  47 101  52 101
M  END
>  <TORSDO>  (25) 
F 19

>  <SCORE>  (25) 
-15.041

>  <name>  (25) 
24

>  <ligand_id>  (25) 
24

>  <original_smiles>  (25) 
[H]C(Oc1c([H])c([H])c2c(c1[H])C([H])([H])N(C(=O)C([H])(N([H])C(=O)C([H])(N([H])C([H])([H])[H])C([H])([H])[H])C(C([H])([H])[H])(C([H])([H])[H])C([H])([H])[H])C([H])(C(=O)N([H])C1([H])c3c([H])c([H])c([H])c([H])c3C([H])([H])C([H])([H])C1([H])[H])C2([H])[H])=C1C([H])([H])N(c2c(N([H])[H])c(N([H])[H])c([H])c(N([H])C(=O)N3C([H])([H])C([H])([H])C([H])([H])C([H])(n4nc(-c5c([H])c([H])c(Oc6c([H])c([H])c(F)c([H])c6F)c([H])c5[H])c(C(=O)N([H])[H])c4N([H])[H])C3([H])[H])c2C([H])([H])[H])C([H])([H])C1([H])[H]

>  <smiles>  (25) 
[H]C(Oc1c([H])c([H])c2c(c1[H])C([H])([H])N(C(=O)C([H])(N([H])C(=O)C([H])(N([H])C([H])([H])[H])C([H])([H])[H])C(C([H])([H])[H])(C([H])([H])[H])C([H])([H])[H])C([H])(C(=O)N([H])C1([H])c3c([H])c([H])c([H])c([H])c3C([H])([H])C([H])([H])C1([H])[H])C2([H])[H])=C1C([H])([H])N(c2c(N([H])[H])c(N([H])[H])c([H])c(N([H])C(=O)N3C([H])([H])C([H])([H])C([H])([H])C([H])(n4nc(-c5c([H])c([H])c(Oc6c([H])c([H])c(F)c([H])c6F)c([H])c5[H])c(C(=O)N([H])[H])c4N([H])[H])C3([H])[H])c2C([H])([H])[H])C([H])([H])C1([H])[H]

$$$$
25:0:0
     RDKit          3D

 91 99  0  0  1  0  0  0  0  0999 V2000
  -29.0670  -18.1290   20.9740 C   0  0  0  0  0  3  0  0  0  0  0  0
  -28.9710  -19.5320   20.7380 C   0  0  0  0  0  3  0  0  0  0  0  0
  -31.1090  -18.0200   19.7270 C   0  0  0  0  0  3  0  0  0  0  0  0
  -30.1440  -17.3200   20.4990 C   0  0  0  0  0  0  0  0  0  0  0  0
  -29.9640  -20.2260   20.0040 C   0  0  0  0  0  0  0  0  0  0  0  0
  -31.0230  -19.4250   19.4950 C   0  0  0  0  0  0  0  0  0  0  0  0
  -32.0030  -20.0240   18.7730 F   0  0  0  0  0  0  0  0  0  0  0  0
  -30.2630  -15.8500   20.9530 C   0  0  0  0  0  0  0  0  0  0  0  0
  -29.9180  -15.5920   22.1470 N   0  0  0  0  0  0  0  0  0  0  0  0
  -29.6090  -16.4340   22.6180 H   0  0  0  0  0  0  0  0  0  0  0  0
  -30.8320  -14.7140   20.0150 C   0  0  0  0  0  0  0  0  0  0  0  0
  -30.5090  -12.5300   18.8570 C   0  0  0  0  0  2  0  0  0  0  0  0
  -29.4730  -12.6940   17.7220 C   0  0  0  0  0  2  0  0  0  0  0  0
  -28.0350  -12.5210   18.2460 C   0  0  0  0  0  2  0  0  0  0  0  0
  -27.7780  -13.3290   19.5440 C   0  0  0  0  0  3  0  0  0  0  0  0
  -28.9110  -13.0940   20.5620 C   0  0  0  0  0  2  0  0  0  0  0  0
  -30.1820  -13.4990   19.9300 N   0  0  0  0  0  0  0  0  0  0  0  0
  -31.8660  -14.9190   19.3690 O   0  0  0  0  0  0  0  0  0  0  0  0
  -25.4500  -13.9130   20.4700 C   0  0  0  0  0  0  0  0  0  0  0  0
  -24.4080  -13.1310   20.8920 C   0  0  0  0  0  0  0  0  0  0  0  0
  -24.8540  -11.7790   20.7670 C   0  0  0  0  0  0  0  0  0  0  0  0
  -26.4650  -13.0370   20.1170 N   0  0  0  0  0  0  0  0  0  0  0  0
  -26.1150  -11.7460   20.3510 N   0  0  0  0  0  0  0  0  0  0  0  0
  -24.1340  -10.5140   20.9660 C   0  0  0  0  0  0  0  0  0  0  0  0
  -24.5940   -9.5390   21.8780 C   0  0  0  0  0  3  0  0  0  0  0  0
  -23.8740   -8.3390   22.0650 C   0  0  0  0  0  3  0  0  0  0  0  0
  -22.6820   -8.1050   21.3390 C   0  0  0  0  0  0  0  0  0  0  0  0
  -22.2420   -9.0690   20.4150 C   0  0  0  0  0  3  0  0  0  0  0  0
  -22.9620  -10.2610   20.2270 C   0  0  0  0  0  3  0  0  0  0  0  0
  -21.9330   -6.9570   21.4340 O   0  0  0  0  0  0  0  0  0  0  0  0
  -21.8640   -6.2370   22.6000 C   0  0  0  0  0  0  0  0  0  0  0  0
  -21.3780   -6.8060   23.7980 C   0  0  0  0  0  3  0  0  0  0  0  0
  -21.2580   -6.0130   24.9560 C   0  0  0  0  0  3  0  0  0  0  0  0
  -21.6120   -4.6510   24.9180 C   0  0  0  0  0  0  0  0  0  0  0  0
  -22.0920   -4.0810   23.7250 C   0  0  0  0  0  3  0  0  0  0  0  0
  -22.2150   -4.8730   22.5690 C   0  0  0  0  0  0  0  0  0  0  0  0
  -22.6570   -4.3140   21.4160 F   0  0  0  0  0  0  0  0  0  0  0  0
  -21.4900   -3.8860   26.0280 F   0  0  0  0  0  0  0  0  0  0  0  0
  -23.0420  -13.6050   21.2970 C   0  0  0  0  0  0  0  0  0  0  0  0
  -22.3830  -12.8790   22.1930 N   0  0  0  0  0  0  0  0  0  0  0  0
  -22.5710  -14.6520   20.8560 O   0  0  0  0  0  0  0  0  0  0  0  0
  -22.7780  -12.0330   22.5730 H   0  0  0  0  0  0  0  0  0  0  0  0
  -21.4680  -13.1760   22.5040 H   0  0  0  0  0  0  0  0  0  0  0  0
  -25.6100  -15.2890   20.3400 N   0  0  0  0  0  0  0  0  0  0  0  0
  -24.8590  -15.9400   20.5430 H   0  0  0  0  0  0  0  0  0  0  0  0
  -26.4390  -15.7410   19.9760 H   0  0  0  0  0  0  0  0  0  0  0  0
  -29.9810  -21.6140   19.7550 O   0  0  0  0  0  0  0  0  0  0  0  0
  -28.9690  -22.5340   20.2640 C   0  0  0  0  0  2  0  0  0  0  0  0
  -29.2680  -24.0680   19.9510 C   0  0  0  0  0  3  0  0  0  0  0  0
  -28.1820  -25.1320   20.3910 C   0  0  0  0  0  3  0  0  0  0  0  0
  -28.4250  -26.5670   20.1120 O   0  0  0  0  0  0  0  0  0  0  0  0
  -24.7260  -31.8860   23.2920 C   0  0  0  0  0  0  0  0  0  0  0  0
  -27.3090  -27.4130   20.1080 C   0  0  0  0  0  0  0  0  0  0  0  0
  -23.5080  -30.5240   21.6310 C   0  0  0  0  0  3  0  0  0  0  0  0
  -24.9460  -29.0130   20.1570 C   0  0  0  0  0  0  0  0  0  0  0  0
  -26.0450  -30.8500   21.4370 C   0  0  0  0  0  2  0  0  0  0  0  0
  -26.1190  -29.4890   20.7570 C   0  0  0  0  0  0  0  0  0  0  0  0
  -27.3050  -28.6990   20.7260 C   0  0  0  0  0  3  0  0  0  0  0  0
  -26.1200  -26.9980   19.4680 C   0  0  0  0  0  3  0  0  0  0  0  0
  -24.9470  -27.7720   19.5020 C   0  0  0  0  0  3  0  0  0  0  0  0
  -23.7100  -29.8830   20.2330 C   0  0  0  0  0  2  0  0  0  0  0  0
  -24.7790  -31.1030   22.1760 N   0  0  0  0  0  0  0  0  0  0  0  0
  -23.6460  -32.1530   23.8400 O   0  0  0  0  0  0  0  0  0  0  0  0
  -22.8550  -29.4840   22.5710 C   0  0  0  0  0  0  0  0  0  0  0  0
  -21.5300  -29.3010   22.4430 N   0  0  0  0  0  0  0  0  0  0  0  0
  -23.5410  -28.8450   23.3750 O   0  0  0  0  0  0  0  0  0  0  0  0
  -21.0390  -29.8690   21.7680 H   0  0  0  0  0  0  0  0  0  0  0  0
  -18.1600  -28.0770   22.9230 C   0  0  0  0  0  0  0  0  0  0  0  0
  -20.7170  -28.3460   23.1970 C   0  0  0  0  0  3  0  0  0  0  0  0
  -20.8270  -26.9250   22.5970 C   0  0  0  0  0  2  0  0  0  0  0  0
  -19.7270  -26.6140   21.5780 C   0  0  0  0  0  2  0  0  0  0  0  0
  -18.3440  -26.7410   22.2240 C   0  0  0  0  0  2  0  0  0  0  0  0
  -19.2750  -28.8380   23.3660 C   0  0  0  0  0  0  0  0  0  0  0  0
  -19.0480  -30.0890   23.9780 C   0  0  0  0  0  3  0  0  0  0  0  0
  -17.7410  -30.5820   24.1520 C   0  0  0  0  0  3  0  0  0  0  0  0
  -16.6410  -29.8160   23.7270 C   0  0  0  0  0  3  0  0  0  0  0  0
  -16.8510  -28.5660   23.1180 C   0  0  0  0  0  3  0  0  0  0  0  0
  -26.0150  -32.5040   23.9170 C   0  0  0  0  0  3  0  0  0  0  0  0
  -25.7210  -33.9060   24.2460 N   0  0  0  0  0  0  0  0  0  0  0  0
  -26.0680  -34.9530   23.4870 C   0  0  0  0  0  0  0  0  0  0  0  0
  -26.7410  -34.8400   22.4570 O   0  0  0  0  0  0  0  0  0  0  0  0
  -25.1320  -34.0700   25.0490 H   0  0  0  0  0  0  0  0  0  0  0  0
  -24.3670  -36.7680   23.1170 C   0  0  0  0  0  1  0  0  0  0  0  0
  -25.5950  -36.3480   23.9400 C   0  0  0  0  0  3  0  0  0  0  0  0
  -27.7310  -37.2040   24.7940 C   0  0  0  0  0  1  0  0  0  0  0  0
  -26.6420  -37.3870   23.8390 N   0  0  0  0  0  0  0  0  0  0  0  0
  -26.2460  -38.3130   23.9810 H   0  0  0  0  0  0  0  0  0  0  0  0
  -26.5170  -31.7280   25.1970 C   0  0  1  0  0  0  0  0  0  0  0  0
  -25.4170  -31.4990   26.2590 C   0  0  0  0  0  1  0  0  0  0  0  0
  -27.0920  -30.3460   24.8090 C   0  0  0  0  0  1  0  0  0  0  0  0
  -27.6710  -32.5130   25.8650 C   0  0  0  0  0  1  0  0  0  0  0  0
  2  1  1  0
  3  4  1  0
  4  8  1  0
  4  1  2  0
  5  2  2  0
  6  3  2  0
  6  5  1  0
  7  6  1  0
  8  9  2  0
  9 10  1  0
 11  8  1  0
 12 17  1  0
 13 14  1  0
 13 12  1  0
 15 14  1  0
 15 22  1  0
 15 16  1  0
 17 11  1  0
 17 16  1  0
 18 11  2  0
 19 20  2  0
 20 39  1  0
 21 20  1  0
 21 24  1  0
 22 23  1  0
 22 19  1  0
 23 21  2  0
 24 25  1  0
 25 26  2  0
 27 30  1  0
 27 26  1  0
 28 27  2  0
 29 28  1  0
 29 24  2  0
 30 31  1  0
 31 32  1  0
 32 33  2  0
 34 33  1  0
 34 38  1  0
 35 34  2  0
 36 31  2  0
 36 35  1  0
 37 36  1  0
 39 40  1  0
 40 43  1  0
 40 42  1  0
 41 39  2  0
 44 19  1  0
 44 45  1  0
 46 44  1  0
 47  5  1  0
 47 48  1  0
 49 48  1  0
 49 50  2  0
 51 50  1  0
 52 63  2  0
 53 51  1  0
 53 58  1  0
 54 62  1  0
 54 64  1  0
 55 61  1  0
 55 57  1  0
 56 62  1  0
 57 56  1  0
 58 57  2  0
 59 60  1  0
 59 53  2  0
 60 55  2  0
 61 54  1  0
 62 52  1  0
 64 66  2  0
 65 64  1  0
 67 65  1  0
 68 77  2  0
 68 73  1  0
 69 65  1  0
 69 73  1  0
 70 69  1  0
 71 72  1  0
 71 70  1  0
 72 68  1  0
 73 74  2  0
 74 75  1  0
 76 75  2  0
 77 76  1  0
 78 52  1  0
 78 79  1  0
 78 88  1  0
 79 82  1  0
 80 84  1  0
 80 79  1  0
 81 80  2  0
 84 83  1  0
 86 84  1  0
 86 87  1  0
 86 85  1  0
 88 91  1  1
 88 89  1  0
 90 88  1  0
M  ISO  4   8 100  11 100  50 101  51 101
M  END
>  <TORSDO>  (26) 
F 21

>  <SCORE>  (26) 
-12.680

>  <name>  (26) 
25

>  <ligand_id>  (26) 
25

>  <original_smiles>  (26) 
[H]N=C(C(=O)N1C([H])([H])C([H])([H])C([H])([H])C([H])(n2nc(-c3c([H])c([H])c(Oc4c([H])c([H])c(F)c([H])c4F)c([H])c3[H])c(C(=O)N([H])[H])c2N([H])[H])C1([H])[H])c1c([H])c([H])c(OC([H])([H])C([H])([H])C([H])([H])Oc2c([H])c([H])c3c(c2[H])C([H])([H])N(C(=O)C([H])(N([H])C(=O)C([H])(N([H])C([H])([H])[H])C([H])([H])[H])C(C([H])([H])[H])(C([H])([H])[H])C([H])([H])[H])C([H])(C(=O)N([H])C2([H])c4c([H])c([H])c([H])c([H])c4C([H])([H])C([H])([H])C2([H])[H])C3([H])[H])c(F)c1[H]

>  <smiles>  (26) 
[H]N=C(C(=O)N1C([H])([H])C([H])([H])C([H])([H])C([H])(n2nc(-c3c([H])c([H])c(Oc4c([H])c([H])c(F)c([H])c4F)c([H])c3[H])c(C(=O)N([H])[H])c2N([H])[H])C1([H])[H])c1c([H])c([H])c(OC([H])([H])C([H])([H])C([H])([H])Oc2c([H])c([H])c3c(c2[H])C([H])([H])N(C(=O)C([H])(N([H])C(=O)C([H])(N([H])C([H])([H])[H])C([H])([H])[H])C(C([H])([H])[H])(C([H])([H])[H])C([H])([H])[H])C([H])(C(=O)N([H])C2([H])c4c([H])c([H])c([H])c([H])c4C([H])([H])C([H])([H])C2([H])[H])C3([H])[H])c(F)c1[H]

$$$$
26:0:0
     RDKit          3D

 94103  0  0  1  0  0  0  0  0999 V2000
  -31.1530  -22.9120   20.3080 C   0  0  0  0  0  0  0  0  0  0  0  0
  -30.7990  -24.3870   20.0810 C   0  0  0  0  0  2  0  0  0  0  0  0
  -29.0760  -23.2280   21.2390 C   0  0  0  0  0  2  0  0  0  0  0  0
  -29.7530  -24.6120   21.1730 C   0  0  0  0  0  3  0  0  0  0  0  0
  -30.1660  -22.2680   20.9600 N   0  0  0  0  0  0  0  0  0  0  0  0
  -32.2550  -22.4480   20.0090 O   0  0  0  0  0  0  0  0  0  0  0  0
  -30.2970  -21.1060   21.8770 C   0  0  0  0  0  2  0  0  0  0  0  0
  -30.2300  -19.0590   20.1670 C   0  0  0  0  0  3  0  0  0  0  0  0
  -30.3650  -17.6550   19.9410 C   0  0  0  0  0  3  0  0  0  0  0  0
  -30.8540  -17.3320   22.2880 C   0  0  0  0  0  3  0  0  0  0  0  0
  -30.4180  -19.6130   21.4610 C   0  0  0  0  0  0  0  0  0  0  0  0
  -30.6700  -16.7680   21.0090 C   0  0  0  0  0  0  0  0  0  0  0  0
  -30.7380  -18.7190   22.5080 C   0  0  0  0  0  0  0  0  0  0  0  0
  -30.9230  -19.1940   23.7640 F   0  0  0  0  0  0  0  0  0  0  0  0
  -31.2970  -14.4550   20.0910 C   0  0  0  0  0  0  0  0  0  0  0  0
  -30.9130  -12.3050   18.9110 C   0  0  0  0  0  2  0  0  0  0  0  0
  -29.8920  -12.5270   17.7740 C   0  0  0  0  0  2  0  0  0  0  0  0
  -28.4420  -12.4300   18.2930 C   0  0  0  0  0  2  0  0  0  0  0  0
  -28.2130  -13.2690   19.5780 C   0  0  0  0  0  3  0  0  0  0  0  0
  -29.3220  -12.9740   20.6120 C   0  0  0  0  0  2  0  0  0  0  0  0
  -30.6260  -13.2710   19.9840 N   0  0  0  0  0  0  0  0  0  0  0  0
  -32.3350  -14.6950   19.4650 O   0  0  0  0  0  0  0  0  0  0  0  0
  -30.7270  -15.3310   20.9470 N   0  0  0  0  0  0  0  0  0  0  0  0
  -30.0560  -14.8740   21.5460 H   0  0  0  0  0  0  0  0  0  0  0  0
  -25.9170  -13.9800   20.5040 C   0  0  0  0  0  0  0  0  0  0  0  0
  -24.8250  -13.2540   20.8980 C   0  0  0  0  0  0  0  0  0  0  0  0
  -25.1860  -11.8810   20.7360 C   0  0  0  0  0  0  0  0  0  0  0  0
  -26.8780  -13.0520   20.1340 N   0  0  0  0  0  0  0  0  0  0  0  0
  -26.4440  -11.7790   20.3280 N   0  0  0  0  0  0  0  0  0  0  0  0
  -24.3880  -10.6580   20.8920 C   0  0  0  0  0  0  0  0  0  0  0  0
  -24.7040   -9.6900   21.8710 C   0  0  0  0  0  3  0  0  0  0  0  0
  -23.9120   -8.5310   22.0130 C   0  0  0  0  0  3  0  0  0  0  0  0
  -22.7890   -8.3310   21.1740 C   0  0  0  0  0  0  0  0  0  0  0  0
  -22.4930   -9.2860   20.1880 C   0  0  0  0  0  3  0  0  0  0  0  0
  -23.2850  -10.4370   20.0430 C   0  0  0  0  0  3  0  0  0  0  0  0
  -21.9780   -7.2230   21.2230 O   0  0  0  0  0  0  0  0  0  0  0  0
  -21.6480   -6.6250   22.4120 C   0  0  0  0  0  0  0  0  0  0  0  0
  -20.9830   -7.3260   23.4410 C   0  0  0  0  0  3  0  0  0  0  0  0
  -20.6000   -6.6540   24.6190 C   0  0  0  0  0  3  0  0  0  0  0  0
  -20.8730   -5.2810   24.7670 C   0  0  0  0  0  0  0  0  0  0  0  0
  -21.5300   -4.5790   23.7410 C   0  0  0  0  0  3  0  0  0  0  0  0
  -21.9140   -5.2490   22.5660 C   0  0  0  0  0  0  0  0  0  0  0  0
  -22.5280   -4.5630   21.5730 F   0  0  0  0  0  0  0  0  0  0  0  0
  -20.4990   -4.6330   25.8940 F   0  0  0  0  0  0  0  0  0  0  0  0
  -23.4880  -13.7980   21.3120 C   0  0  0  0  0  0  0  0  0  0  0  0
  -22.7930  -13.1050   22.2060 N   0  0  0  0  0  0  0  0  0  0  0  0
  -23.0730  -14.8720   20.8780 O   0  0  0  0  0  0  0  0  0  0  0  0
  -23.1420  -12.2340   22.5800 H   0  0  0  0  0  0  0  0  0  0  0  0
  -21.8980  -13.4490   22.5240 H   0  0  0  0  0  0  0  0  0  0  0  0
  -26.1660  -15.3470   20.4130 N   0  0  0  0  0  0  0  0  0  0  0  0
  -25.4630  -16.0430   20.6330 H   0  0  0  0  0  0  0  0  0  0  0  0
  -27.0300  -15.7510   20.0710 H   0  0  0  0  0  0  0  0  0  0  0  0
  -28.8930  -25.9220   21.1720 C   0  0  0  0  0  2  0  0  0  0  0  0
  -28.4490  -26.4210   19.9040 O   0  0  0  0  0  0  0  0  0  0  0  0
  -24.6990  -31.6470   23.0980 C   0  0  0  0  0  0  0  0  0  0  0  0
  -27.3230  -27.2220   19.9530 C   0  0  0  0  0  0  0  0  0  0  0  0
  -23.4780  -30.2460   21.4640 C   0  0  0  0  0  3  0  0  0  0  0  0
  -24.9240  -28.7260   20.0080 C   0  0  0  0  0  0  0  0  0  0  0  0
  -26.0010  -30.6170   21.2350 C   0  0  0  0  0  2  0  0  0  0  0  0
  -26.0870  -29.2470   20.5900 C   0  0  0  0  0  0  0  0  0  0  0  0
  -27.2910  -28.4980   20.5700 C   0  0  0  0  0  3  0  0  0  0  0  0
  -26.1490  -26.7270   19.3560 C   0  0  0  0  0  3  0  0  0  0  0  0
  -24.9500  -27.4640   19.3900 C   0  0  0  0  0  3  0  0  0  0  0  0
  -23.6740  -29.5770   20.0780 C   0  0  0  0  0  2  0  0  0  0  0  0
  -24.7450  -30.8530   21.9900 N   0  0  0  0  0  0  0  0  0  0  0  0
  -23.6240  -31.9080   23.6560 O   0  0  0  0  0  0  0  0  0  0  0  0
  -22.8470  -29.2170   22.4290 C   0  0  0  0  0  0  0  0  0  0  0  0
  -21.5270  -29.0030   22.3000 N   0  0  0  0  0  0  0  0  0  0  0  0
  -23.5420  -28.6120   23.2500 O   0  0  0  0  0  0  0  0  0  0  0  0
  -21.0250  -29.5440   21.6090 H   0  0  0  0  0  0  0  0  0  0  0  0
  -18.1920  -27.6870   22.7510 C   0  0  0  0  0  0  0  0  0  0  0  0
  -20.7310  -28.0510   23.0730 C   0  0  0  0  0  3  0  0  0  0  0  0
  -20.9020  -26.6130   22.5310 C   0  0  0  0  0  2  0  0  0  0  0  0
  -19.8370  -26.2270   21.5000 C   0  0  0  0  0  2  0  0  0  0  0  0
  -18.4350  -26.3320   22.1100 C   0  0  0  0  0  2  0  0  0  0  0  0
  -19.2700  -28.5010   23.1890 C   0  0  0  0  0  0  0  0  0  0  0  0
  -18.9890  -29.7680   23.7460 C   0  0  0  0  0  3  0  0  0  0  0  0
  -17.6630  -30.2220   23.8720 C   0  0  0  0  0  3  0  0  0  0  0  0
  -16.5990  -29.4050   23.4510 C   0  0  0  0  0  3  0  0  0  0  0  0
  -16.8640  -28.1410   22.8960 C   0  0  0  0  0  3  0  0  0  0  0  0
  -25.9900  -32.2830   23.7010 C   0  0  0  0  0  3  0  0  0  0  0  0
  -26.5640  -31.4770   24.9300 C   0  0  1  0  0  0  0  0  0  0  0  0
  -25.5100  -31.1710   26.0190 C   0  0  0  0  0  1  0  0  0  0  0  0
  -27.1680  -30.1310   24.4660 C   0  0  0  0  0  1  0  0  0  0  0  0
  -27.7130  -32.2760   25.5890 C   0  0  0  0  0  1  0  0  0  0  0  0
  -25.6650  -33.6620   24.0890 N   0  0  0  0  0  0  0  0  0  0  0  0
  -25.9490  -34.7460   23.3550 C   0  0  0  0  0  0  0  0  0  0  0  0
  -26.5850  -34.6920   22.2980 O   0  0  0  0  0  0  0  0  0  0  0  0
  -25.0950  -33.7770   24.9150 H   0  0  0  0  0  0  0  0  0  0  0  0
  -24.1700  -36.5080   23.1210 C   0  0  0  0  0  1  0  0  0  0  0  0
  -25.4490  -36.1070   23.8750 C   0  0  0  0  0  3  0  0  0  0  0  0
  -27.5890  -37.0160   24.6620 C   0  0  0  0  0  1  0  0  0  0  0  0
  -26.4540  -37.1860   23.7600 N   0  0  0  0  0  0  0  0  0  0  0  0
  -26.0320  -38.0920   23.9470 H   0  0  0  0  0  0  0  0  0  0  0  0
  1  5  1  0
  2  1  1  0
  2  4  1  0
  4 53  1  0
  4  3  1  0
  5  3  1  0
  5  7  1  0
  6  1  2  0
  8 11  1  0
  9  8  2  0
  9 12  1  0
 10 13  1  0
 11  7  1  0
 11 13  2  0
 12 10  2  0
 13 14  1  0
 15 23  1  0
 16 21  1  0
 17 18  1  0
 17 16  1  0
 19 18  1  0
 19 28  1  0
 19 20  1  0
 21 15  1  0
 21 20  1  0
 22 15  2  0
 23 12  1  0
 23 24  1  0
 25 26  2  0
 26 45  1  0
 27 30  1  0
 27 26  1  0
 28 29  1  0
 28 25  1  0
 29 27  2  0
 30 31  1  0
 31 32  2  0
 33 36  1  0
 33 32  1  0
 34 33  2  0
 35 34  1  0
 35 30  2  0
 36 37  1  0
 37 42  2  0
 37 38  1  0
 38 39  2  0
 39 40  1  0
 40 44  1  0
 41 40  2  0
 42 41  1  0
 43 42  1  0
 45 46  1  0
 46 49  1  0
 46 48  1  0
 47 45  2  0
 50 25  1  0
 50 51  1  0
 52 50  1  0
 54 56  1  0
 54 53  1  0
 55 66  2  0
 56 61  1  0
 57 65  1  0
 57 67  1  0
 58 64  1  0
 58 60  1  0
 59 65  1  0
 60 59  1  0
 61 60  2  0
 62 63  1  0
 62 56  2  0
 63 58  2  0
 64 57  1  0
 65 55  1  0
 67 69  2  0
 68 67  1  0
 70 68  1  0
 71 80  2  0
 71 76  1  0
 72 68  1  0
 72 76  1  0
 73 72  1  0
 74 75  1  0
 74 73  1  0
 75 71  1  0
 76 77  2  0
 77 78  1  0
 79 78  2  0
 80 79  1  0
 81 55  1  0
 81 86  1  0
 81 82  1  0
 82 85  1  1
 82 83  1  0
 84 82  1  0
 86 89  1  0
 87 91  1  0
 87 86  1  0
 88 87  2  0
 91 90  1  0
 93 91  1  0
 93 94  1  0
 93 92  1  0
M  ISO  4  15 100  23 100  53 101  54 101
M  END
>  <TORSDO>  (27) 
F 19

>  <SCORE>  (27) 
-12.932

>  <name>  (27) 
26

>  <ligand_id>  (27) 
26

>  <original_smiles>  (27) 
[H]c1c([H])c([H])c2c(c1[H])C([H])([H])C([H])([H])C([H])([H])C2([H])N([H])C(=O)C1([H])N(C(=O)C([H])(N([H])C(=O)C([H])(N([H])C([H])([H])[H])C([H])([H])[H])C(C([H])([H])[H])(C([H])([H])[H])C([H])([H])[H])C([H])([H])c2c([H])c(OC([H])([H])C3([H])C([H])([H])C(=O)N(C([H])([H])c4c([H])c([H])c(N([H])C(=O)N5C([H])([H])C([H])([H])C([H])([H])C([H])(n6nc(-c7c([H])c([H])c(Oc8c([H])c([H])c(F)c([H])c8F)c([H])c7[H])c(C(=O)N([H])[H])c6N([H])[H])C5([H])[H])c([H])c4F)C3([H])[H])c([H])c([H])c2C1([H])[H]

>  <smiles>  (27) 
[H]c1c([H])c([H])c2c(c1[H])C([H])([H])C([H])([H])C([H])([H])C2([H])N([H])C(=O)C1([H])N(C(=O)C([H])(N([H])C(=O)C([H])(N([H])C([H])([H])[H])C([H])([H])[H])C(C([H])([H])[H])(C([H])([H])[H])C([H])([H])[H])C([H])([H])c2c([H])c(OC([H])([H])C3([H])C([H])([H])C(=O)N(C([H])([H])c4c([H])c([H])c(N([H])C(=O)N5C([H])([H])C([H])([H])C([H])([H])C([H])(n6nc(-c7c([H])c([H])c(Oc8c([H])c([H])c(F)c([H])c8F)c([H])c7[H])c(C(=O)N([H])[H])c6N([H])[H])C5([H])[H])c([H])c4F)C3([H])[H])c([H])c([H])c2C1([H])[H]

$$$$
27:0:0
     RDKit          3D

 97105  0  0  1  0  0  0  0  0999 V2000
  -29.8200  -19.5810   21.5280 C   0  0  0  0  0  3  0  0  0  0  0  0
  -29.4500  -20.9440   21.3020 C   0  0  0  0  0  3  0  0  0  0  0  0
  -29.4590  -19.0740   19.2020 C   0  0  0  0  0  3  0  0  0  0  0  0
  -29.8520  -18.6110   20.4840 C   0  0  0  0  0  0  0  0  0  0  0  0
  -29.1180  -21.4200   20.0060 C   0  0  0  0  0  0  0  0  0  0  0  0
  -29.1280  -20.4440   18.9640 C   0  0  0  0  0  0  0  0  0  0  0  0
  -30.6870  -14.7290   20.2560 C   0  0  0  0  0  0  0  0  0  0  0  0
  -30.3890  -12.5070   19.1900 C   0  0  0  0  0  2  0  0  0  0  0  0
  -29.4380  -12.6220   17.9820 C   0  0  0  0  0  2  0  0  0  0  0  0
  -27.9770  -12.4530   18.4420 C   0  0  0  0  0  2  0  0  0  0  0  0
  -27.6260  -13.3320   19.6720 C   0  0  0  0  0  3  0  0  0  0  0  0
  -28.7020  -13.2330   20.7750 C   0  0  0  0  0  2  0  0  0  0  0  0
  -29.9900  -13.5540   20.1520 N   0  0  0  0  0  0  0  0  0  0  0  0
  -31.8900  -14.7800   19.9810 O   0  0  0  0  0  0  0  0  0  0  0  0
  -30.4990  -17.2540   20.6810 C   0  0  0  0  0  0  0  0  0  0  0  0
  -29.9580  -16.0100   20.4110 N   0  0  0  0  0  0  0  0  0  0  0  0
  -31.7470  -17.3340   21.1590 N   0  0  0  0  0  4  0  0  0  0  0  0
  -28.9550  -16.0460   20.3740 H   0  0  0  0  0  0  0  0  0  0  0  0
  -32.1630  -18.2360   21.3380 H   0  0  0  0  0  0  0  0  0  0  0  0
  -32.3390  -16.5140   21.1310 H   0  0  0  0  0  0  0  0  0  0  0  0
  -25.2450  -13.9120   20.4360 C   0  0  0  0  0  0  0  0  0  0  0  0
  -24.1900  -13.1330   20.8220 C   0  0  0  0  0  0  0  0  0  0  0  0
  -24.6610  -11.7850   20.7850 C   0  0  0  0  0  0  0  0  0  0  0  0
  -26.2910  -13.0380   20.1840 N   0  0  0  0  0  0  0  0  0  0  0  0
  -25.9460  -11.7550   20.4580 N   0  0  0  0  0  0  0  0  0  0  0  0
  -23.9420  -10.5180   20.9820 C   0  0  0  0  0  0  0  0  0  0  0  0
  -24.3780   -9.5630   21.9260 C   0  0  0  0  0  3  0  0  0  0  0  0
  -23.6620   -8.3610   22.1100 C   0  0  0  0  0  3  0  0  0  0  0  0
  -22.4960   -8.1060   21.3510 C   0  0  0  0  0  0  0  0  0  0  0  0
  -22.0790   -9.0500   20.3950 C   0  0  0  0  0  3  0  0  0  0  0  0
  -22.7970  -10.2440   20.2090 C   0  0  0  0  0  3  0  0  0  0  0  0
  -21.7500   -6.9560   21.4440 O   0  0  0  0  0  0  0  0  0  0  0  0
  -21.6910   -6.2290   22.6050 C   0  0  0  0  0  0  0  0  0  0  0  0
  -21.2080   -6.7870   23.8090 C   0  0  0  0  0  3  0  0  0  0  0  0
  -21.1000   -5.9840   24.9620 C   0  0  0  0  0  3  0  0  0  0  0  0
  -21.4640   -4.6250   24.9120 C   0  0  0  0  0  0  0  0  0  0  0  0
  -21.9390   -4.0670   23.7120 C   0  0  0  0  0  3  0  0  0  0  0  0
  -22.0490   -4.8660   22.5610 C   0  0  0  0  0  0  0  0  0  0  0  0
  -22.4880   -4.3190   21.4030 F   0  0  0  0  0  0  0  0  0  0  0  0
  -21.3530   -3.8510   26.0180 F   0  0  0  0  0  0  0  0  0  0  0  0
  -22.7940  -13.6020   21.1080 C   0  0  0  0  0  0  0  0  0  0  0  0
  -22.0710  -12.8950   21.9700 N   0  0  0  0  0  0  0  0  0  0  0  0
  -22.3510  -14.6330   20.6020 O   0  0  0  0  0  0  0  0  0  0  0  0
  -22.4410  -12.0620   22.4050 H   0  0  0  0  0  0  0  0  0  0  0  0
  -21.1340  -13.1950   22.2020 H   0  0  0  0  0  0  0  0  0  0  0  0
  -25.3940  -15.2850   20.2560 N   0  0  0  0  0  0  0  0  0  0  0  0
  -24.6070  -15.9160   20.3580 H   0  0  0  0  0  0  0  0  0  0  0  0
  -26.2010  -15.7280   19.8370 H   0  0  0  0  0  0  0  0  0  0  0  0
  -28.7210  -23.9880   20.3290 C   0  0  0  0  0  0  0  0  0  0  0  0
  -28.7940  -22.8030   19.6440 N   0  0  0  0  0  0  0  0  0  0  0  0
  -28.8490  -24.0560   21.5540 O   0  0  0  0  0  0  0  0  0  0  0  0
  -28.6000  -22.8920   18.6580 H   0  0  0  0  0  0  0  0  0  0  0  0
  -28.4670  -25.3070   19.4860 C   0  0  0  0  0  2  0  0  0  0  0  0
  -28.3330  -26.5840   20.2290 O   0  0  0  0  0  0  0  0  0  0  0  0
  -24.5750  -31.9510   23.2390 C   0  0  0  0  0  0  0  0  0  0  0  0
  -27.1820  -27.3890   20.1710 C   0  0  0  0  0  0  0  0  0  0  0  0
  -23.3630  -30.5400   21.6150 C   0  0  0  0  0  3  0  0  0  0  0  0
  -24.8050  -28.9910   20.1850 C   0  0  0  0  0  0  0  0  0  0  0  0
  -25.9000  -30.8680   21.4110 C   0  0  0  0  0  2  0  0  0  0  0  0
  -25.9760  -29.4870   20.7680 C   0  0  0  0  0  0  0  0  0  0  0  0
  -27.1620  -28.6950   20.7550 C   0  0  0  0  0  3  0  0  0  0  0  0
  -25.9760  -26.9390   19.5840 C   0  0  0  0  0  3  0  0  0  0  0  0
  -24.8060  -27.7210   19.5890 C   0  0  0  0  0  3  0  0  0  0  0  0
  -23.5680  -29.8600   20.2350 C   0  0  0  0  0  2  0  0  0  0  0  0
  -24.6320  -31.1370   22.1440 N   0  0  0  0  0  0  0  0  0  0  0  0
  -23.4940  -32.2280   23.7800 O   0  0  0  0  0  0  0  0  0  0  0  0
  -22.7140  -29.5250   22.5840 C   0  0  0  0  0  0  0  0  0  0  0  0
  -21.3900  -29.3330   22.4590 N   0  0  0  0  0  0  0  0  0  0  0  0
  -23.3990  -28.9130   23.4080 O   0  0  0  0  0  0  0  0  0  0  0  0
  -20.8970  -29.8790   21.7660 H   0  0  0  0  0  0  0  0  0  0  0  0
  -18.0210  -28.1200   22.9770 C   0  0  0  0  0  0  0  0  0  0  0  0
  -20.5780  -28.3970   23.2380 C   0  0  0  0  0  3  0  0  0  0  0  0
  -20.6860  -26.9630   22.6730 C   0  0  0  0  0  2  0  0  0  0  0  0
  -19.5840  -26.6250   21.6640 C   0  0  0  0  0  2  0  0  0  0  0  0
  -18.2030  -26.7680   22.3100 C   0  0  0  0  0  2  0  0  0  0  0  0
  -19.1370  -28.8920   23.3990 C   0  0  0  0  0  0  0  0  0  0  0  0
  -18.9120  -30.1570   23.9830 C   0  0  0  0  0  3  0  0  0  0  0  0
  -17.6050  -30.6520   24.1520 C   0  0  0  0  0  3  0  0  0  0  0  0
  -16.5050  -29.8780   23.7460 C   0  0  0  0  0  3  0  0  0  0  0  0
  -16.7120  -28.6150   23.1650 C   0  0  0  0  0  3  0  0  0  0  0  0
  -25.8600  -32.5910   23.8470 C   0  0  0  0  0  3  0  0  0  0  0  0
  -26.3780  -31.8370   25.1340 C   0  0  1  0  0  0  0  0  0  0  0  0
  -25.2850  -31.6120   26.2050 C   0  0  0  0  0  1  0  0  0  0  0  0
  -26.9650  -30.4570   24.7610 C   0  0  0  0  0  1  0  0  0  0  0  0
  -27.5250  -32.6440   25.7850 C   0  0  0  0  0  1  0  0  0  0  0  0
  -25.5520  -33.9940   24.1590 N   0  0  0  0  0  0  0  0  0  0  0  0
  -25.8900  -35.0380   23.3890 C   0  0  0  0  0  0  0  0  0  0  0  0
  -26.5650  -34.9190   22.3630 O   0  0  0  0  0  0  0  0  0  0  0  0
  -24.9540  -34.1590   24.9550 H   0  0  0  0  0  0  0  0  0  0  0  0
  -24.1820  -36.8400   22.9890 C   0  0  0  0  0  1  0  0  0  0  0  0
  -25.4040  -36.4330   23.8270 C   0  0  0  0  0  3  0  0  0  0  0  0
  -27.5250  -37.3130   24.6960 C   0  0  0  0  0  1  0  0  0  0  0  0
  -26.4460  -37.4780   23.7260 N   0  0  0  0  0  0  0  0  0  0  0  0
  -26.0420  -38.4020   23.8530 H   0  0  0  0  0  0  0  0  0  0  0  0
  -28.8580  -20.8450   17.6520 N   0  0  0  0  0  0  0  0  0  0  0  0
  -29.0230  -20.1440   16.9370 H   0  0  0  0  0  0  0  0  0  0  0  0
  -29.2690  -21.7270   17.3660 H   0  0  0  0  0  0  0  0  0  0  0  0
  2  1  1  0
  3  4  1  0
  4 15  1  0
  4  1  2  0
  5  2  2  0
  6  3  2  0
  6  5  1  0
  7 16  1  0
  8 13  1  0
  9 10  1  0
  9  8  1  0
 11 10  1  0
 11 24  1  0
 11 12  1  0
 13  7  1  0
 13 12  1  0
 14  7  2  0
 15 17  2  0
 16 15  1  0
 17 19  1  0
 18 16  1  0
 20 17  1  0
 21 22  2  0
 22 41  1  0
 23 22  1  0
 23 26  1  0
 24 21  1  0
 24 25  1  0
 25 23  2  0
 26 27  1  0
 27 28  2  0
 29 32  1  0
 29 28  1  0
 30 29  2  0
 31 30  1  0
 31 26  2  0
 32 33  1  0
 33 34  1  0
 34 35  2  0
 36 35  1  0
 36 40  1  0
 37 36  2  0
 38 33  2  0
 38 37  1  0
 39 38  1  0
 41 42  1  0
 42 45  1  0
 42 44  1  0
 43 41  2  0
 46 47  1  0
 46 21  1  0
 48 46  1  0
 49 51  2  0
 50  5  1  0
 50 49  1  0
 52 50  1  0
 53 54  1  0
 53 49  1  0
 55 66  2  0
 56 54  1  0
 56 61  1  0
 57 65  1  0
 57 67  1  0
 58 64  1  0
 58 60  1  0
 59 65  1  0
 60 59  1  0
 61 60  2  0
 62 63  1  0
 62 56  2  0
 63 58  2  0
 64 57  1  0
 65 55  1  0
 67 69  2  0
 68 67  1  0
 70 68  1  0
 71 80  2  0
 71 76  1  0
 72 68  1  0
 72 76  1  0
 73 72  1  0
 74 75  1  0
 74 73  1  0
 75 71  1  0
 76 77  2  0
 77 78  1  0
 79 78  2  0
 80 79  1  0
 81 55  1  0
 81 86  1  0
 81 82  1  0
 82 85  1  1
 82 83  1  0
 84 82  1  0
 86 89  1  0
 87 91  1  0
 87 86  1  0
 88 87  2  0
 91 90  1  0
 93 91  1  0
 93 94  1  0
 93 92  1  0
 95  6  1  0
 96 95  1  0
 97 95  1  0
M  ISO  4   7 100  16 100  53 101  54 101
M  END
>  <TORSDO>  (28) 
F 19

>  <SCORE>  (28) 
-14.364

>  <name>  (28) 
27

>  <ligand_id>  (28) 
27

>  <original_smiles>  (28) 
[H]c1c([H])c([H])c2c(c1[H])C([H])([H])C([H])([H])C([H])([H])C2([H])N([H])C(=O)C1([H])N(C(=O)C([H])(N([H])C(=O)C([H])(N([H])C([H])([H])[H])C([H])([H])[H])C(C([H])([H])[H])(C([H])([H])[H])C([H])([H])[H])C([H])([H])c2c([H])c(OC([H])([H])C(=O)N([H])c3c([H])c([H])c(C(N([H])C(=O)N4C([H])([H])C([H])([H])C([H])([H])C([H])(n5nc(-c6c([H])c([H])c(Oc7c([H])c([H])c(F)c([H])c7F)c([H])c6[H])c(C(=O)N([H])[H])c5N([H])[H])C4([H])[H])=[N+]([H])[H])c([H])c3N([H])[H])c([H])c([H])c2C1([H])[H]

>  <smiles>  (28) 
[H]c1c([H])c([H])c2c(c1[H])C([H])([H])C([H])([H])C([H])([H])C2([H])N([H])C(=O)C1([H])N(C(=O)C([H])(N([H])C(=O)C([H])(N([H])C([H])([H])[H])C([H])([H])[H])C(C([H])([H])[H])(C([H])([H])[H])C([H])([H])[H])C([H])([H])c2c([H])c(OC([H])([H])C(=O)N([H])c3c([H])c([H])c(C(N([H])C(=O)N4C([H])([H])C([H])([H])C([H])([H])C([H])(n5nc(-c6c([H])c([H])c(Oc7c([H])c([H])c(F)c([H])c7F)c([H])c6[H])c(C(=O)N([H])[H])c5N([H])[H])C4([H])[H])=[N+]([H])[H])c([H])c3N([H])[H])c([H])c([H])c2C1([H])[H]

$$$$
28:0:0
     RDKit          3D

 98107  0  0  1  0  0  0  0  0999 V2000
  -29.6790  -23.6970   18.9950 C   0  0  0  0  0  3  0  0  0  0  0  0
  -28.8370  -23.8540   20.1350 C   0  0  0  0  0  0  0  0  0  0  0  0
  -30.0540  -22.3780   18.8850 C   0  0  0  0  0  0  0  0  0  0  0  0
  -28.7770  -22.5600   20.6630 C   0  0  0  0  0  0  0  0  0  0  0  0
  -29.5130  -21.6040   19.9150 N   0  0  0  0  0  0  0  0  0  0  0  0
  -30.9340  -19.4810   20.0350 C   0  0  0  0  0  3  0  0  0  0  0  0
  -31.0820  -18.0600   20.1590 C   0  0  0  0  0  3  0  0  0  0  0  0
  -28.5660  -19.2870   20.3530 C   0  0  0  0  0  3  0  0  0  0  0  0
  -29.6730  -20.1470   20.1110 C   0  0  0  0  0  0  0  0  0  0  0  0
  -29.9620  -17.2140   20.3860 C   0  0  0  0  0  0  0  0  0  0  0  0
  -28.7080  -17.8730   20.5000 C   0  0  0  0  0  0  0  0  0  0  0  0
  -30.7580  -14.7400   20.0230 C   0  0  0  0  0  0  0  0  0  0  0  0
  -30.5230  -12.5290   18.8990 C   0  0  0  0  0  2  0  0  0  0  0  0
  -29.4950  -12.6830   17.7540 C   0  0  0  0  0  2  0  0  0  0  0  0
  -28.0560  -12.4860   18.2740 C   0  0  0  0  0  2  0  0  0  0  0  0
  -27.7700  -13.2980   19.5660 C   0  0  0  0  0  3  0  0  0  0  0  0
  -28.9030  -13.1150   20.6000 C   0  0  0  0  0  2  0  0  0  0  0  0
  -30.1660  -13.5040   19.9500 N   0  0  0  0  0  0  0  0  0  0  0  0
  -31.8860  -14.9380   19.5600 O   0  0  0  0  0  0  0  0  0  0  0  0
  -29.9600  -15.7500   20.4930 N   0  0  0  0  0  0  0  0  0  0  0  0
  -29.0780  -15.4120   20.8430 H   0  0  0  0  0  0  0  0  0  0  0  0
  -25.4190  -13.8340   20.4580 C   0  0  0  0  0  0  0  0  0  0  0  0
  -24.3860  -13.0330   20.8600 C   0  0  0  0  0  0  0  0  0  0  0  0
  -24.8610  -11.6910   20.7470 C   0  0  0  0  0  0  0  0  0  0  0  0
  -26.4590  -12.9790   20.1270 N   0  0  0  0  0  0  0  0  0  0  0  0
  -26.1300  -11.6820   20.3570 N   0  0  0  0  0  0  0  0  0  0  0  0
  -24.1610  -10.4140   20.9350 C   0  0  0  0  0  0  0  0  0  0  0  0
  -24.5750   -9.4800   21.9100 C   0  0  0  0  0  3  0  0  0  0  0  0
  -23.8730   -8.2670   22.0840 C   0  0  0  0  0  3  0  0  0  0  0  0
  -22.7430   -7.9800   21.2810 C   0  0  0  0  0  0  0  0  0  0  0  0
  -22.3490   -8.9030   20.2970 C   0  0  0  0  0  3  0  0  0  0  0  0
  -23.0520  -10.1070   20.1220 C   0  0  0  0  0  3  0  0  0  0  0  0
  -22.0160   -6.8170   21.3600 O   0  0  0  0  0  0  0  0  0  0  0  0
  -21.8240   -6.1690   22.5530 C   0  0  0  0  0  0  0  0  0  0  0  0
  -21.1870   -6.7930   23.6470 C   0  0  0  0  0  3  0  0  0  0  0  0
  -20.9480   -6.0680   24.8310 C   0  0  0  0  0  3  0  0  0  0  0  0
  -21.3360   -4.7170   24.9200 C   0  0  0  0  0  0  0  0  0  0  0  0
  -21.9660   -4.0920   23.8310 C   0  0  0  0  0  3  0  0  0  0  0  0
  -22.2070   -4.8150   22.6490 C   0  0  0  0  0  0  0  0  0  0  0  0
  -22.7950   -4.2010   21.5950 F   0  0  0  0  0  0  0  0  0  0  0  0
  -21.0990   -4.0180   26.0550 F   0  0  0  0  0  0  0  0  0  0  0  0
  -23.0050  -13.4820   21.2450 C   0  0  0  0  0  0  0  0  0  0  0  0
  -22.3440  -12.7440   22.1300 N   0  0  0  0  0  0  0  0  0  0  0  0
  -22.5250  -14.5240   20.8000 O   0  0  0  0  0  0  0  0  0  0  0  0
  -22.7480  -11.9020   22.5110 H   0  0  0  0  0  0  0  0  0  0  0  0
  -21.4220  -13.0270   22.4300 H   0  0  0  0  0  0  0  0  0  0  0  0
  -25.5500  -15.2130   20.3350 N   0  0  0  0  0  0  0  0  0  0  0  0
  -24.7920  -15.8330   20.5970 H   0  0  0  0  0  0  0  0  0  0  0  0
  -26.4350  -15.7100   20.2520 H   0  0  0  0  0  0  0  0  0  0  0  0
  -27.5750  -17.1010   20.7650 N   0  0  0  0  0  0  0  0  0  0  0  0
  -26.7270  -17.6320   20.9320 H   0  0  0  0  0  0  0  0  0  0  0  0
  -27.6900  -16.4220   21.5100 H   0  0  0  0  0  0  0  0  0  0  0  0
  -30.8260  -21.8150   17.9140 O   0  0  0  0  0  0  0  0  0  0  0  0
  -31.0860  -22.5060   17.3120 H   0  0  0  0  0  0  0  0  0  0  0  0
  -28.1050  -22.1530   21.7780 O   0  0  0  0  0  0  0  0  0  0  0  0
  -27.7030  -22.9130   22.1810 H   0  0  0  0  0  0  0  0  0  0  0  0
  -28.1230  -25.1630   20.6440 C   0  0  0  0  0  2  0  0  0  0  0  0
  -28.3550  -26.4830   20.0040 O   0  0  0  0  0  0  0  0  0  0  0  0
  -24.6140  -31.8520   23.0990 C   0  0  0  0  0  0  0  0  0  0  0  0
  -27.2540  -27.3530   19.9910 C   0  0  0  0  0  0  0  0  0  0  0  0
  -23.4220  -30.4770   21.4300 C   0  0  0  0  0  3  0  0  0  0  0  0
  -24.8850  -28.9530   19.9870 C   0  0  0  0  0  0  0  0  0  0  0  0
  -25.9600  -30.8070   21.2640 C   0  0  0  0  0  2  0  0  0  0  0  0
  -26.0500  -29.4390   20.5980 C   0  0  0  0  0  0  0  0  0  0  0  0
  -27.2400  -28.6500   20.5900 C   0  0  0  0  0  3  0  0  0  0  0  0
  -26.0720  -26.9230   19.3510 C   0  0  0  0  0  3  0  0  0  0  0  0
  -24.8990  -27.7000   19.3540 C   0  0  0  0  0  3  0  0  0  0  0  0
  -23.6450  -29.8220   20.0410 C   0  0  0  0  0  2  0  0  0  0  0  0
  -24.6830  -31.0610   21.9880 N   0  0  0  0  0  0  0  0  0  0  0  0
  -23.5270  -32.1190   23.6320 O   0  0  0  0  0  0  0  0  0  0  0  0
  -22.7550  -29.4450   22.3700 C   0  0  0  0  0  0  0  0  0  0  0  0
  -21.4280  -29.2780   22.2430 N   0  0  0  0  0  0  0  0  0  0  0  0
  -23.4320  -28.7980   23.1750 O   0  0  0  0  0  0  0  0  0  0  0  0
  -20.9410  -29.8500   21.5680 H   0  0  0  0  0  0  0  0  0  0  0  0
  -18.0400  -28.1150   22.7480 C   0  0  0  0  0  0  0  0  0  0  0  0
  -20.6050  -28.3310   22.9960 C   0  0  0  0  0  3  0  0  0  0  0  0
  -20.6810  -26.9140   22.3790 C   0  0  0  0  0  2  0  0  0  0  0  0
  -19.5630  -26.6370   21.3690 C   0  0  0  0  0  2  0  0  0  0  0  0
  -18.1900  -26.7820   22.0330 C   0  0  0  0  0  2  0  0  0  0  0  0
  -19.1740  -28.8490   23.1860 C   0  0  0  0  0  0  0  0  0  0  0  0
  -18.9790  -30.0970   23.8160 C   0  0  0  0  0  3  0  0  0  0  0  0
  -17.6830  -30.6110   24.0100 C   0  0  0  0  0  3  0  0  0  0  0  0
  -16.5630  -29.8730   23.5870 C   0  0  0  0  0  3  0  0  0  0  0  0
  -16.7430  -28.6260   22.9620 C   0  0  0  0  0  3  0  0  0  0  0  0
  -25.8920  -32.4770   23.7370 C   0  0  0  0  0  3  0  0  0  0  0  0
  -25.5710  -33.8610   24.1130 N   0  0  0  0  0  0  0  0  0  0  0  0
  -25.9070  -34.9420   23.3970 C   0  0  0  0  0  0  0  0  0  0  0  0
  -26.5900  -34.8790   22.3700 O   0  0  0  0  0  0  0  0  0  0  0  0
  -24.9660  -33.9830   24.9120 H   0  0  0  0  0  0  0  0  0  0  0  0
  -24.1910  -36.7510   23.0680 C   0  0  0  0  0  1  0  0  0  0  0  0
  -25.4070  -36.3110   23.8980 C   0  0  0  0  0  3  0  0  0  0  0  0
  -27.5120  -37.1620   24.8360 C   0  0  0  0  0  1  0  0  0  0  0  0
  -26.4440  -37.3660   23.8600 N   0  0  0  0  0  0  0  0  0  0  0  0
  -26.0330  -38.2800   24.0260 H   0  0  0  0  0  0  0  0  0  0  0  0
  -26.4190  -31.6690   24.9880 C   0  0  1  0  0  0  0  0  0  0  0  0
  -25.3290  -31.3850   26.0480 C   0  0  0  0  0  1  0  0  0  0  0  0
  -27.0170  -30.3130   24.5510 C   0  0  0  0  0  1  0  0  0  0  0  0
  -27.5600  -32.4550   25.6750 C   0  0  0  0  0  1  0  0  0  0  0  0
  1  2  1  0
  2 57  1  0
  2  4  2  0
  3  1  2  0
  3  5  1  0
  4 55  1  0
  5  9  1  0
  5  4  1  0
  6  9  2  0
  6  7  1  0
  7 10  2  0
  8 11  2  0
  9  8  1  0
 10 20  1  0
 10 11  1  0
 11 50  1  0
 12 20  1  0
 13 18  1  0
 14 15  1  0
 14 13  1  0
 16 15  1  0
 16 25  1  0
 16 17  1  0
 18 12  1  0
 18 17  1  0
 19 12  2  0
 20 21  1  0
 22 23  2  0
 23 42  1  0
 24 23  1  0
 24 27  1  0
 25 26  1  0
 25 22  1  0
 26 24  2  0
 27 28  1  0
 28 29  2  0
 30 33  1  0
 30 29  1  0
 31 30  2  0
 32 31  1  0
 32 27  2  0
 33 34  1  0
 34 39  2  0
 34 35  1  0
 35 36  2  0
 36 37  1  0
 37 41  1  0
 38 37  2  0
 39 38  1  0
 40 39  1  0
 42 43  1  0
 43 46  1  0
 43 45  1  0
 44 42  2  0
 47 22  1  0
 47 48  1  0
 49 47  1  0
 50 51  1  0
 50 52  1  0
 53  3  1  0
 54 53  1  0
 55 56  1  0
 58 57  1  0
 59 70  2  0
 60 58  1  0
 60 65  1  0
 61 69  1  0
 61 71  1  0
 62 68  1  0
 62 64  1  0
 63 69  1  0
 64 63  1  0
 65 64  2  0
 66 67  1  0
 66 60  2  0
 67 62  2  0
 68 61  1  0
 69 59  1  0
 71 73  2  0
 72 71  1  0
 74 72  1  0
 75 84  2  0
 75 80  1  0
 76 72  1  0
 76 80  1  0
 77 76  1  0
 78 79  1  0
 78 77  1  0
 79 75  1  0
 80 81  2  0
 81 82  1  0
 83 82  2  0
 84 83  1  0
 85 59  1  0
 85 86  1  0
 85 95  1  0
 86 89  1  0
 87 91  1  0
 87 86  1  0
 88 87  2  0
 91 90  1  0
 93 91  1  0
 93 94  1  0
 93 92  1  0
 95 98  1  1
 95 96  1  0
 97 95  1  0
M  ISO  4  12 100  20 100  57 101  58 101
M  END
>  <TORSDO>  (29) 
F 21

>  <SCORE>  (29) 
-13.657

>  <name>  (29) 
28

>  <ligand_id>  (29) 
28

>  <original_smiles>  (29) 
[H]Oc1c([H])c(C([H])([H])Oc2c([H])c([H])c3c(c2[H])C([H])([H])N(C(=O)C([H])(N([H])C(=O)C([H])(N([H])C([H])([H])[H])C([H])([H])[H])C(C([H])([H])[H])(C([H])([H])[H])C([H])([H])[H])C([H])(C(=O)N([H])C2([H])c4c([H])c([H])c([H])c([H])c4C([H])([H])C([H])([H])C2([H])[H])C3([H])[H])c(O[H])n1-c1c([H])c([H])c(N([H])C(=O)N2C([H])([H])C([H])([H])C([H])([H])C([H])(n3nc(-c4c([H])c([H])c(Oc5c([H])c([H])c(F)c([H])c5F)c([H])c4[H])c(C(=O)N([H])[H])c3N([H])[H])C2([H])[H])c(N([H])[H])c1[H]

>  <smiles>  (29) 
[H]Oc1c([H])c(C([H])([H])Oc2c([H])c([H])c3c(c2[H])C([H])([H])N(C(=O)C([H])(N([H])C(=O)C([H])(N([H])C([H])([H])[H])C([H])([H])[H])C(C([H])([H])[H])(C([H])([H])[H])C([H])([H])[H])C([H])(C(=O)N([H])C2([H])c4c([H])c([H])c([H])c([H])c4C([H])([H])C([H])([H])C2([H])[H])C3([H])[H])c(O[H])n1-c1c([H])c([H])c(N([H])C(=O)N2C([H])([H])C([H])([H])C([H])([H])C([H])(n3nc(-c4c([H])c([H])c(Oc5c([H])c([H])c(F)c([H])c5F)c([H])c4[H])c(C(=O)N([H])[H])c3N([H])[H])C2([H])[H])c(N([H])[H])c1[H]

$$$$
29:0:0
     RDKit          3D

 96105  0  0  1  0  0  0  0  0999 V2000
  -29.0580  -23.0570   20.8110 C   0  0  0  0  0  3  0  0  0  0  0  0
  -28.6810  -24.1750   20.1210 C   0  0  0  0  0  0  0  0  0  0  0  0
  -28.6740  -24.1200   18.6370 C   0  0  0  0  0  0  0  0  0  0  0  0
  -29.2500  -22.8690   17.9690 C   0  0  0  0  0  2  0  0  0  0  0  0
  -28.9670  -21.5990   18.7930 C   0  0  0  0  0  2  0  0  0  0  0  0
  -29.4630  -21.7270   20.1900 N   0  0  2  0  0  4  0  0  0  0  0  0
  -28.2370  -25.0140   17.9090 O   0  0  0  0  0  0  0  0  0  0  0  0
  -30.4670  -21.7420   20.0900 H   0  0  0  0  0  0  0  0  0  0  0  0
  -29.2550  -20.5140   21.0730 C   0  0  0  0  0  2  0  0  0  0  0  0
  -27.5020  -17.7730   19.0360 C   0  0  0  0  0  3  0  0  0  0  0  0
  -27.7620  -18.9480   19.7520 C   0  0  0  0  0  3  0  0  0  0  0  0
  -28.4430  -16.7320   19.0280 C   0  0  0  0  0  3  0  0  0  0  0  0
  -29.9110  -18.0300   20.4680 C   0  0  0  0  0  3  0  0  0  0  0  0
  -28.9980  -19.1330   20.4100 C   0  0  0  0  0  0  0  0  0  0  0  0
  -29.6230  -16.7930   19.8050 C   0  0  0  0  0  0  0  0  0  0  0  0
  -31.0040  -14.7960   20.5530 C   0  0  0  0  0  0  0  0  0  0  0  0
  -30.7630  -12.5220   19.6910 C   0  0  0  0  0  2  0  0  0  0  0  0
  -29.8820  -12.5770   18.4310 C   0  0  0  0  0  2  0  0  0  0  0  0
  -28.3940  -12.4420   18.8090 C   0  0  0  0  0  2  0  0  0  0  0  0
  -27.9720  -13.3560   19.9910 C   0  0  0  0  0  3  0  0  0  0  0  0
  -28.9950  -13.3480   21.1440 C   0  0  0  0  0  2  0  0  0  0  0  0
  -30.3070  -13.6240   20.5470 N   0  0  0  0  0  0  0  0  0  0  0  0
  -32.2090  -14.7910   20.8070 O   0  0  0  0  0  0  0  0  0  0  0  0
  -30.5970  -15.7370   19.6250 N   0  0  0  0  0  0  0  0  0  0  0  0
  -25.5530  -14.0020   20.5650 C   0  0  0  0  0  0  0  0  0  0  0  0
  -24.4600  -13.2440   20.8740 C   0  0  0  0  0  0  0  0  0  0  0  0
  -24.9140  -11.8910   20.9040 C   0  0  0  0  0  0  0  0  0  0  0  0
  -26.6050  -13.1080   20.4200 N   0  0  0  0  0  0  0  0  0  0  0  0
  -26.2210  -11.8360   20.6860 N   0  0  0  0  0  0  0  0  0  0  0  0
  -24.1730  -10.6380   21.0710 C   0  0  0  0  0  0  0  0  0  0  0  0
  -24.5700   -9.6720   22.0200 C   0  0  0  0  0  3  0  0  0  0  0  0
  -23.8320   -8.4790   22.1760 C   0  0  0  0  0  3  0  0  0  0  0  0
  -22.6840   -8.2470   21.3820 C   0  0  0  0  0  0  0  0  0  0  0  0
  -22.3080   -9.2030   20.4210 C   0  0  0  0  0  3  0  0  0  0  0  0
  -23.0480  -10.3870   20.2630 C   0  0  0  0  0  3  0  0  0  0  0  0
  -21.9190   -7.1080   21.4480 O   0  0  0  0  0  0  0  0  0  0  0  0
  -21.8200   -6.3760   22.6030 C   0  0  0  0  0  0  0  0  0  0  0  0
  -21.2780   -6.9230   23.7870 C   0  0  0  0  0  3  0  0  0  0  0  0
  -21.1290   -6.1150   24.9320 C   0  0  0  0  0  3  0  0  0  0  0  0
  -21.5130   -4.7610   24.8930 C   0  0  0  0  0  0  0  0  0  0  0  0
  -22.0480   -4.2140   23.7140 C   0  0  0  0  0  3  0  0  0  0  0  0
  -22.1990   -5.0190   22.5710 C   0  0  0  0  0  0  0  0  0  0  0  0
  -22.6960   -4.4820   21.4310 F   0  0  0  0  0  0  0  0  0  0  0  0
  -21.3620   -3.9820   25.9890 F   0  0  0  0  0  0  0  0  0  0  0  0
  -23.0500  -13.7340   21.0430 C   0  0  0  0  0  0  0  0  0  0  0  0
  -22.2770  -13.0870   21.9090 N   0  0  0  0  0  0  0  0  0  0  0  0
  -22.6400  -14.7270   20.4430 O   0  0  0  0  0  0  0  0  0  0  0  0
  -22.6190  -12.2830   22.4130 H   0  0  0  0  0  0  0  0  0  0  0  0
  -21.3300  -13.4000   22.0670 H   0  0  0  0  0  0  0  0  0  0  0  0
  -25.7320  -15.3680   20.3730 N   0  0  0  0  0  0  0  0  0  0  0  0
  -24.9620  -16.0240   20.4360 H   0  0  0  0  0  0  0  0  0  0  0  0
  -26.6110  -15.8140   20.1410 H   0  0  0  0  0  0  0  0  0  0  0  0
  -31.0530  -16.7510   17.3150 C   0  0  0  0  0  1  0  0  0  0  0  0
  -31.5980  -16.0350   18.5670 C   0  0  0  0  0  2  0  0  0  0  0  0
  -28.2090  -25.4670   20.8420 C   0  0  0  0  0  2  0  0  0  0  0  0
  -28.3310  -26.7440   20.1540 O   0  0  0  0  0  0  0  0  0  0  0  0
  -24.5230  -31.9310   23.3010 C   0  0  0  0  0  0  0  0  0  0  0  0
  -27.1870  -27.5240   20.1570 C   0  0  0  0  0  0  0  0  0  0  0  0
  -23.3280  -30.5530   21.6320 C   0  0  0  0  0  3  0  0  0  0  0  0
  -24.7930  -29.0460   20.1810 C   0  0  0  0  0  0  0  0  0  0  0  0
  -25.8550  -30.9200   21.4460 C   0  0  0  0  0  2  0  0  0  0  0  0
  -25.9500  -29.5580   20.7790 C   0  0  0  0  0  0  0  0  0  0  0  0
  -27.1550  -28.8100   20.7570 C   0  0  0  0  0  3  0  0  0  0  0  0
  -26.0100  -27.0360   19.5500 C   0  0  0  0  0  3  0  0  0  0  0  0
  -24.8180  -27.7860   19.5590 C   0  0  0  0  0  3  0  0  0  0  0  0
  -23.5440  -29.9000   20.2410 C   0  0  0  0  0  2  0  0  0  0  0  0
  -24.5870  -31.1480   22.1860 N   0  0  0  0  0  0  0  0  0  0  0  0
  -23.4390  -32.1890   23.8420 O   0  0  0  0  0  0  0  0  0  0  0  0
  -22.6770  -29.5130   22.5710 C   0  0  0  0  0  0  0  0  0  0  0  0
  -21.3530  -29.3250   22.4360 N   0  0  0  0  0  0  0  0  0  0  0  0
  -23.3590  -28.8770   23.3800 O   0  0  0  0  0  0  0  0  0  0  0  0
  -20.8640  -29.8930   21.7580 H   0  0  0  0  0  0  0  0  0  0  0  0
  -17.9810  -28.1080   22.9040 C   0  0  0  0  0  0  0  0  0  0  0  0
  -20.5380  -28.3690   23.1850 C   0  0  0  0  0  3  0  0  0  0  0  0
  -20.6450  -26.9500   22.5790 C   0  0  0  0  0  2  0  0  0  0  0  0
  -19.5460  -26.6450   21.5580 C   0  0  0  0  0  2  0  0  0  0  0  0
  -18.1630  -26.7730   22.2020 C   0  0  0  0  0  2  0  0  0  0  0  0
  -19.0980  -28.8650   23.3510 C   0  0  0  0  0  0  0  0  0  0  0  0
  -18.8740  -30.1150   23.9670 C   0  0  0  0  0  3  0  0  0  0  0  0
  -17.5680  -30.6100   24.1400 C   0  0  0  0  0  3  0  0  0  0  0  0
  -16.4670  -29.8510   23.7090 C   0  0  0  0  0  3  0  0  0  0  0  0
  -16.6740  -28.6010   23.0980 C   0  0  0  0  0  3  0  0  0  0  0  0
  -25.8030  -32.5560   23.9370 C   0  0  0  0  0  3  0  0  0  0  0  0
  -26.2810  -31.8050   25.2400 C   0  0  1  0  0  0  0  0  0  0  0  0
  -25.1610  -31.6050   26.2870 C   0  0  0  0  0  1  0  0  0  0  0  0
  -26.8540  -30.4130   24.8870 C   0  0  0  0  0  1  0  0  0  0  0  0
  -27.4290  -32.5990   25.9100 C   0  0  0  0  0  1  0  0  0  0  0  0
  -25.5110  -33.9650   24.2270 N   0  0  0  0  0  0  0  0  0  0  0  0
  -25.8910  -34.9960   23.4600 C   0  0  0  0  0  0  0  0  0  0  0  0
  -26.5960  -34.8580   22.4570 O   0  0  0  0  0  0  0  0  0  0  0  0
  -24.8900  -34.1480   25.0020 H   0  0  0  0  0  0  0  0  0  0  0  0
  -24.2290  -36.8240   22.9860 C   0  0  0  0  0  1  0  0  0  0  0  0
  -25.4130  -36.4010   23.8700 C   0  0  0  0  0  3  0  0  0  0  0  0
  -27.5110  -37.2560   24.8190 C   0  0  0  0  0  1  0  0  0  0  0  0
  -26.4760  -37.4270   23.8030 N   0  0  0  0  0  0  0  0  0  0  0  0
  -26.0850  -38.3600   23.9050 H   0  0  0  0  0  0  0  0  0  0  0  0
  2  1  2  0
  2 55  1  0
  3  2  1  0
  4  3  1  0
  4  5  1  0
  5  6  1  0
  6  1  1  0
  6  9  1  0
  7  3  2  0
  6  8  1  6
 10 11  1  0
 11 14  2  0
 12 10  2  0
 12 15  1  0
 14 13  1  0
 14  9  1  0
 15 13  2  0
 16 23  2  0
 17 22  1  0
 18 19  1  0
 18 17  1  0
 20 19  1  0
 20 28  1  0
 20 21  1  0
 22 16  1  0
 22 21  1  0
 24 15  1  0
 24 16  1  0
 25 26  2  0
 26 27  1  0
 26 45  1  0
 27 30  1  0
 28 25  1  0
 28 29  1  0
 29 27  2  0
 30 31  1  0
 31 32  2  0
 33 36  1  0
 33 32  1  0
 34 33  2  0
 35 34  1  0
 35 30  2  0
 36 37  1  0
 37 38  1  0
 38 39  2  0
 40 39  1  0
 40 44  1  0
 41 40  2  0
 42 37  2  0
 42 41  1  0
 43 42  1  0
 45 46  1  0
 46 49  1  0
 46 48  1  0
 47 45  2  0
 50 51  1  0
 50 25  1  0
 52 50  1  0
 53 54  1  0
 54 24  1  0
 56 58  1  0
 56 55  1  0
 57 68  2  0
 58 63  1  0
 59 67  1  0
 59 69  1  0
 60 66  1  0
 60 62  1  0
 61 67  1  0
 62 61  1  0
 63 62  2  0
 64 65  1  0
 64 58  2  0
 65 60  2  0
 66 59  1  0
 67 57  1  0
 69 71  2  0
 70 69  1  0
 72 70  1  0
 73 82  2  0
 73 78  1  0
 74 70  1  0
 74 78  1  0
 75 74  1  0
 76 77  1  0
 76 75  1  0
 77 73  1  0
 78 79  2  0
 79 80  1  0
 81 80  2  0
 82 81  1  0
 83 57  1  0
 83 88  1  0
 83 84  1  0
 84 87  1  1
 84 85  1  0
 86 84  1  0
 88 91  1  0
 89 93  1  0
 89 88  1  0
 90 89  2  0
 93 92  1  0
 95 93  1  0
 95 96  1  0
 95 94  1  0
M  ISO  4  16 100  24 100  55 101  56 101
M  END
>  <TORSDO>  (30) 
F 20

>  <SCORE>  (30) 
-13.777

>  <name>  (30) 
29

>  <ligand_id>  (30) 
29

>  <original_smiles>  (30) 
[H]C1=C(C([H])([H])Oc2c([H])c([H])c3c(c2[H])C([H])([H])N(C(=O)C([H])(N([H])C(=O)C([H])(N([H])C([H])([H])[H])C([H])([H])[H])C(C([H])([H])[H])(C([H])([H])[H])C([H])([H])[H])C([H])(C(=O)N([H])C2([H])c4c([H])c([H])c([H])c([H])c4C([H])([H])C([H])([H])C2([H])[H])C3([H])[H])C(=O)C([H])([H])C([H])([H])[N+]1([H])C([H])([H])c1c([H])c([H])c([H])c(N(C(=O)N2C([H])([H])C([H])([H])C([H])([H])C([H])(n3nc(-c4c([H])c([H])c(Oc5c([H])c([H])c(F)c([H])c5F)c([H])c4[H])c(C(=O)N([H])[H])c3N([H])[H])C2([H])[H])C([H])([H])C([H])([H])[H])c1[H]

>  <smiles>  (30) 
[H]C1=C(C([H])([H])Oc2c([H])c([H])c3c(c2[H])C([H])([H])N(C(=O)C([H])(N([H])C(=O)C([H])(N([H])C([H])([H])[H])C([H])([H])[H])C(C([H])([H])[H])(C([H])([H])[H])C([H])([H])[H])C([H])(C(=O)N([H])C2([H])c4c([H])c([H])c([H])c([H])c4C([H])([H])C([H])([H])C2([H])[H])C3([H])[H])C(=O)C([H])([H])C([H])([H])[N+]1([H])C([H])([H])c1c([H])c([H])c([H])c(N(C(=O)N2C([H])([H])C([H])([H])C([H])([H])C([H])(n3nc(-c4c([H])c([H])c(Oc5c([H])c([H])c(F)c([H])c5F)c([H])c4[H])c(C(=O)N([H])[H])c3N([H])[H])C2([H])[H])C([H])([H])C([H])([H])[H])c1[H]

$$$$
30:0:0
     RDKit          3D

 97105  0  0  1  0  0  0  0  0999 V2000
  -28.7060  -18.4540   20.1260 C   0  0  0  0  0  3  0  0  0  0  0  0
  -28.3820  -19.8290   20.2120 C   0  0  0  0  0  3  0  0  0  0  0  0
  -31.0730  -19.0400   20.0400 C   0  0  0  0  0  3  0  0  0  0  0  0
  -30.0570  -18.0620   19.9950 C   0  0  0  0  0  0  0  0  0  0  0  0
  -29.4090  -20.8060   20.1770 C   0  0  0  0  0  0  0  0  0  0  0  0
  -30.7580  -20.4010   20.1410 C   0  0  0  0  0  0  0  0  0  0  0  0
  -30.7260  -14.4530   20.3820 C   0  0  0  0  0  0  0  0  0  0  0  0
  -30.3260  -12.2840   19.3710 C   0  0  0  0  0  2  0  0  0  0  0  0
  -29.4210  -12.5180   18.1460 C   0  0  0  0  0  2  0  0  0  0  0  0
  -27.9440  -12.4130   18.5610 C   0  0  0  0  0  2  0  0  0  0  0  0
  -27.6030  -13.2720   19.8100 C   0  0  0  0  0  3  0  0  0  0  0  0
  -28.6530  -13.1060   20.9350 C   0  0  0  0  0  2  0  0  0  0  0  0
  -29.9830  -13.3180   20.3570 N   0  0  0  0  0  0  0  0  0  0  0  0
  -31.9380  -14.4280   20.1580 O   0  0  0  0  0  0  0  0  0  0  0  0
  -30.4730  -16.6740   19.6200 C   0  0  0  0  0  0  0  0  0  0  0  0
  -30.0460  -15.6170   20.3490 N   0  0  0  0  0  0  0  0  0  0  0  0
  -31.2350  -16.5830   18.6470 O   0  0  0  0  0  0  0  0  0  0  0  0
  -29.1940  -15.7020   20.8760 H   0  0  0  0  0  0  0  0  0  0  0  0
  -25.2050  -13.8850   20.5050 C   0  0  0  0  0  0  0  0  0  0  0  0
  -24.1310  -13.1170   20.8680 C   0  0  0  0  0  0  0  0  0  0  0  0
  -24.5890  -11.7650   20.8490 C   0  0  0  0  0  0  0  0  0  0  0  0
  -26.2490  -13.0000   20.2870 N   0  0  0  0  0  0  0  0  0  0  0  0
  -25.8820  -11.7200   20.5550 N   0  0  0  0  0  0  0  0  0  0  0  0
  -23.8550  -10.5050   21.0370 C   0  0  0  0  0  0  0  0  0  0  0  0
  -24.2740   -9.5400   21.9800 C   0  0  0  0  0  3  0  0  0  0  0  0
  -23.5420   -8.3460   22.1560 C   0  0  0  0  0  3  0  0  0  0  0  0
  -22.3770   -8.1080   21.3880 C   0  0  0  0  0  0  0  0  0  0  0  0
  -21.9780   -9.0610   20.4340 C   0  0  0  0  0  3  0  0  0  0  0  0
  -22.7110  -10.2470   20.2560 C   0  0  0  0  0  3  0  0  0  0  0  0
  -21.6180   -6.9670   21.4730 O   0  0  0  0  0  0  0  0  0  0  0  0
  -21.5500   -6.2310   22.6280 C   0  0  0  0  0  0  0  0  0  0  0  0
  -21.1050   -6.7930   23.8450 C   0  0  0  0  0  3  0  0  0  0  0  0
  -20.9850   -5.9850   24.9930 C   0  0  0  0  0  3  0  0  0  0  0  0
  -21.3010   -4.6140   24.9250 C   0  0  0  0  0  0  0  0  0  0  0  0
  -21.7380   -4.0510   23.7140 C   0  0  0  0  0  3  0  0  0  0  0  0
  -21.8590   -4.8570   22.5680 C   0  0  0  0  0  0  0  0  0  0  0  0
  -22.2610   -4.3060   21.3980 F   0  0  0  0  0  0  0  0  0  0  0  0
  -21.1780   -3.8340   26.0250 F   0  0  0  0  0  0  0  0  0  0  0  0
  -22.7330  -13.6010   21.1230 C   0  0  0  0  0  0  0  0  0  0  0  0
  -21.9920  -12.9070   21.9800 N   0  0  0  0  0  0  0  0  0  0  0  0
  -22.3060  -14.6290   20.5970 O   0  0  0  0  0  0  0  0  0  0  0  0
  -22.3510  -12.0760   22.4260 H   0  0  0  0  0  0  0  0  0  0  0  0
  -21.0520  -13.2110   22.1940 H   0  0  0  0  0  0  0  0  0  0  0  0
  -25.3770  -15.2530   20.3180 N   0  0  0  0  0  0  0  0  0  0  0  0
  -24.6070  -15.9080   20.4050 H   0  0  0  0  0  0  0  0  0  0  0  0
  -26.2230  -15.6810   19.9670 H   0  0  0  0  0  0  0  0  0  0  0  0
  -28.0980  -22.9450   20.1350 C   0  0  0  0  0  0  0  0  0  0  0  0
  -29.2030  -22.2000   20.0450 N   0  0  0  0  0  0  0  0  0  0  0  0
  -26.9860  -22.5660   20.5230 O   0  0  0  0  0  0  0  0  0  0  0  0
  -30.0340  -22.6940   19.7470 H   0  0  0  0  0  0  0  0  0  0  0  0
  -28.3930  -24.3930   19.6920 C   0  0  0  0  0  0  0  0  0  0  0  0
  -28.7020  -24.6730   18.5270 O   0  0  0  0  0  0  0  0  0  0  0  0
  -28.3250  -25.4560   20.7950 C   0  0  0  0  0  2  0  0  0  0  0  0
  -28.4660  -26.7800   20.2630 O   0  0  0  0  0  0  0  0  0  0  0  0
  -24.6030  -31.9130   23.2580 C   0  0  0  0  0  0  0  0  0  0  0  0
  -27.2960  -27.4950   20.2250 C   0  0  0  0  0  0  0  0  0  0  0  0
  -23.4200  -30.5010   21.6080 C   0  0  0  0  0  3  0  0  0  0  0  0
  -24.8930  -28.9700   20.2040 C   0  0  0  0  0  0  0  0  0  0  0  0
  -25.9410  -30.8810   21.4270 C   0  0  0  0  0  2  0  0  0  0  0  0
  -26.0410  -29.5110   20.7940 C   0  0  0  0  0  0  0  0  0  0  0  0
  -27.2490  -28.7820   20.7970 C   0  0  0  0  0  3  0  0  0  0  0  0
  -26.1320  -26.9600   19.6290 C   0  0  0  0  0  3  0  0  0  0  0  0
  -24.9310  -27.6930   19.6160 C   0  0  0  0  0  3  0  0  0  0  0  0
  -23.6440  -29.8170   20.2330 C   0  0  0  0  0  2  0  0  0  0  0  0
  -24.6740  -31.1130   22.1580 N   0  0  0  0  0  0  0  0  0  0  0  0
  -23.5150  -32.1790   23.7880 O   0  0  0  0  0  0  0  0  0  0  0  0
  -22.7660  -29.4770   22.5650 C   0  0  0  0  0  0  0  0  0  0  0  0
  -21.4410  -29.2970   22.4320 N   0  0  0  0  0  0  0  0  0  0  0  0
  -23.4460  -28.8490   23.3800 O   0  0  0  0  0  0  0  0  0  0  0  0
  -20.9550  -29.8560   21.7450 H   0  0  0  0  0  0  0  0  0  0  0  0
  -18.0590  -28.1330   22.9310 C   0  0  0  0  0  0  0  0  0  0  0  0
  -20.6190  -28.3610   23.1970 C   0  0  0  0  0  3  0  0  0  0  0  0
  -20.7050  -26.9350   22.6060 C   0  0  0  0  0  2  0  0  0  0  0  0
  -19.5960  -26.6320   21.5940 C   0  0  0  0  0  2  0  0  0  0  0  0
  -18.2190  -26.7870   22.2440 C   0  0  0  0  0  2  0  0  0  0  0  0
  -19.1870  -28.8790   23.3640 C   0  0  0  0  0  0  0  0  0  0  0  0
  -18.9840  -30.1410   23.9640 C   0  0  0  0  0  3  0  0  0  0  0  0
  -17.6860  -30.6570   24.1360 C   0  0  0  0  0  3  0  0  0  0  0  0
  -16.5720  -29.9060   23.7230 C   0  0  0  0  0  3  0  0  0  0  0  0
  -16.7600  -28.6470   23.1250 C   0  0  0  0  0  3  0  0  0  0  0  0
  -25.8790  -32.5530   23.8890 C   0  0  0  0  0  3  0  0  0  0  0  0
  -26.3880  -31.7910   25.1730 C   0  0  1  0  0  0  0  0  0  0  0  0
  -25.2860  -31.5520   26.2320 C   0  0  0  0  0  1  0  0  0  0  0  0
  -26.9810  -30.4170   24.7880 C   0  0  0  0  0  1  0  0  0  0  0  0
  -27.5280  -32.5940   25.8430 C   0  0  0  0  0  1  0  0  0  0  0  0
  -25.5650  -33.9520   24.2040 N   0  0  0  0  0  0  0  0  0  0  0  0
  -25.9060  -34.9980   23.4390 C   0  0  0  0  0  0  0  0  0  0  0  0
  -26.5920  -34.8890   22.4190 O   0  0  0  0  0  0  0  0  0  0  0  0
  -24.9620  -34.1120   24.9970 H   0  0  0  0  0  0  0  0  0  0  0  0
  -24.1860  -36.7870   23.0340 C   0  0  0  0  0  1  0  0  0  0  0  0
  -25.4080  -36.3880   23.8770 C   0  0  0  0  0  3  0  0  0  0  0  0
  -27.5210  -37.2780   24.7540 C   0  0  0  0  0  1  0  0  0  0  0  0
  -26.4410  -37.4420   23.7840 N   0  0  0  0  0  0  0  0  0  0  0  0
  -26.0300  -38.3610   23.9170 H   0  0  0  0  0  0  0  0  0  0  0  0
  -31.7840  -21.3490   20.1500 N   0  0  0  0  0  0  0  0  0  0  0  0
  -32.7270  -20.9870   20.2570 H   0  0  0  0  0  0  0  0  0  0  0  0
  -31.6430  -22.1420   20.7690 H   0  0  0  0  0  0  0  0  0  0  0  0
  1  2  1  0
  3  6  2  0
  4  3  1  0
  4  1  2  0
  5  2  2  0
  6 95  1  0
  6  5  1  0
  8 13  1  0
  9 10  1  0
  9  8  1  0
 11 10  1  0
 11 22  1  0
 11 12  1  0
 13  7  1  0
 13 12  1  0
 14  7  2  0
 15  4  1  0
 15 16  1  0
 16  7  1  0
 16 18  1  0
 17 15  2  0
 19 20  2  0
 20 39  1  0
 21 20  1  0
 21 24  1  0
 22 19  1  0
 22 23  1  0
 23 21  2  0
 24 25  1  0
 25 26  2  0
 27 30  1  0
 27 26  1  0
 28 27  2  0
 29 28  1  0
 29 24  2  0
 30 31  1  0
 31 32  1  0
 32 33  2  0
 34 33  1  0
 34 38  1  0
 35 34  2  0
 36 31  2  0
 36 35  1  0
 37 36  1  0
 39 40  1  0
 40 43  1  0
 40 42  1  0
 41 39  2  0
 44 45  1  0
 44 19  1  0
 46 44  1  0
 47 49  2  0
 48 47  1  0
 48  5  1  0
 50 48  1  0
 51 47  1  0
 51 53  1  0
 52 51  2  0
 54 53  1  0
 55 66  2  0
 56 54  1  0
 56 61  1  0
 57 65  1  0
 57 67  1  0
 58 64  1  0
 58 60  1  0
 59 65  1  0
 60 61  2  0
 60 59  1  0
 62 56  2  0
 63 62  1  0
 63 58  2  0
 64 57  1  0
 65 55  1  0
 67 69  2  0
 68 67  1  0
 70 68  1  0
 71 80  2  0
 71 76  1  0
 72 68  1  0
 72 76  1  0
 73 72  1  0
 74 75  1  0
 74 73  1  0
 75 71  1  0
 76 77  2  0
 77 78  1  0
 79 78  2  0
 80 79  1  0
 81 55  1  0
 81 86  1  0
 81 82  1  0
 82 85  1  1
 82 83  1  0
 84 82  1  0
 86 89  1  0
 87 91  1  0
 87 86  1  0
 88 87  2  0
 91 90  1  0
 93 91  1  0
 93 94  1  0
 93 92  1  0
 95 96  1  0
 95 97  1  0
M  ISO  4   7 100  16 100  53 101  54 101
M  END
>  <TORSDO>  (31) 
F 20

>  <SCORE>  (31) 
-14.353

>  <name>  (31) 
30

>  <ligand_id>  (31) 
30

>  <original_smiles>  (31) 
[H]c1c([H])c([H])c2c(c1[H])C([H])([H])C([H])([H])C([H])([H])C2([H])N([H])C(=O)C1([H])N(C(=O)C([H])(N([H])C(=O)C([H])(N([H])C([H])([H])[H])C([H])([H])[H])C(C([H])([H])[H])(C([H])([H])[H])C([H])([H])[H])C([H])([H])c2c([H])c(OC([H])([H])C(=O)C(=O)N([H])c3c([H])c([H])c(C(=O)N([H])C(=O)N4C([H])([H])C([H])([H])C([H])([H])C([H])(n5nc(-c6c([H])c([H])c(Oc7c([H])c([H])c(F)c([H])c7F)c([H])c6[H])c(C(=O)N([H])[H])c5N([H])[H])C4([H])[H])c([H])c3N([H])[H])c([H])c([H])c2C1([H])[H]

>  <smiles>  (31) 
[H]c1c([H])c([H])c2c(c1[H])C([H])([H])C([H])([H])C([H])([H])C2([H])N([H])C(=O)C1([H])N(C(=O)C([H])(N([H])C(=O)C([H])(N([H])C([H])([H])[H])C([H])([H])[H])C(C([H])([H])[H])(C([H])([H])[H])C([H])([H])[H])C([H])([H])c2c([H])c(OC([H])([H])C(=O)C(=O)N([H])c3c([H])c([H])c(C(=O)N([H])C(=O)N4C([H])([H])C([H])([H])C([H])([H])C([H])(n5nc(-c6c([H])c([H])c(Oc7c([H])c([H])c(F)c([H])c7F)c([H])c6[H])c(C(=O)N([H])[H])c5N([H])[H])C4([H])[H])c([H])c3N([H])[H])c([H])c([H])c2C1([H])[H]

$$$$
31:0:0
     RDKit          3D

 94102  0  0  1  0  0  0  0  0999 V2000
  -30.5080  -19.0760   22.0310 C   0  0  0  0  0  3  0  0  0  0  0  0
  -29.9730  -20.3740   21.8770 C   0  0  0  0  0  3  0  0  0  0  0  0
  -28.4240  -19.5120   20.2230 C   0  0  0  0  0  3  0  0  0  0  0  0
  -30.0310  -17.9760   21.2690 C   0  0  0  0  0  0  0  0  0  0  0  0
  -28.9410  -20.6120   20.9410 C   0  0  0  0  0  0  0  0  0  0  0  0
  -28.9550  -18.2100   20.3780 C   0  0  0  0  0  0  0  0  0  0  0  0
  -28.4240  -17.2050   19.6330 F   0  0  0  0  0  0  0  0  0  0  0  0
  -30.7720  -14.5070   20.2710 C   0  0  0  0  0  0  0  0  0  0  0  0
  -30.3630  -12.4080   19.0360 C   0  0  0  0  0  2  0  0  0  0  0  0
  -29.3880  -12.6330   17.8670 C   0  0  0  0  0  2  0  0  0  0  0  0
  -27.9290  -12.4960   18.3400 C   0  0  0  0  0  2  0  0  0  0  0  0
  -27.6370  -13.3160   19.6270 C   0  0  0  0  0  3  0  0  0  0  0  0
  -28.7250  -13.0830   20.6990 C   0  0  0  0  0  2  0  0  0  0  0  0
  -30.0260  -13.3830   20.0840 N   0  0  0  0  0  0  0  0  0  0  0  0
  -31.8890  -14.6310   19.7580 O   0  0  0  0  0  0  0  0  0  0  0  0
  -30.7760  -16.6540   21.3280 C   0  0  0  0  0  0  0  0  0  0  0  0
  -30.1600  -15.5350   20.8910 N   0  0  0  0  0  0  0  0  0  0  0  0
  -31.9270  -16.6450   21.7830 O   0  0  0  0  0  0  0  0  0  0  0  0
  -29.1540  -15.5470   20.8570 H   0  0  0  0  0  0  0  0  0  0  0  0
  -25.2590  -13.9210   20.3920 C   0  0  0  0  0  0  0  0  0  0  0  0
  -24.1980  -13.1460   20.7850 C   0  0  0  0  0  0  0  0  0  0  0  0
  -24.6630  -11.7950   20.7520 C   0  0  0  0  0  0  0  0  0  0  0  0
  -26.2990  -13.0390   20.1410 N   0  0  0  0  0  0  0  0  0  0  0  0
  -25.9470  -11.7560   20.4150 N   0  0  0  0  0  0  0  0  0  0  0  0
  -23.9450  -10.5310   20.9650 C   0  0  0  0  0  0  0  0  0  0  0  0
  -24.3990   -9.5720   21.8980 C   0  0  0  0  0  3  0  0  0  0  0  0
  -23.6820   -8.3730   22.0970 C   0  0  0  0  0  3  0  0  0  0  0  0
  -22.4980   -8.1230   21.3650 C   0  0  0  0  0  0  0  0  0  0  0  0
  -22.0640   -9.0690   20.4200 C   0  0  0  0  0  3  0  0  0  0  0  0
  -22.7810  -10.2610   20.2180 C   0  0  0  0  0  3  0  0  0  0  0  0
  -21.7500   -6.9750   21.4730 O   0  0  0  0  0  0  0  0  0  0  0  0
  -21.7250   -6.2400   22.6310 C   0  0  0  0  0  0  0  0  0  0  0  0
  -21.3170   -6.8010   23.8610 C   0  0  0  0  0  3  0  0  0  0  0  0
  -21.2400   -5.9910   25.0130 C   0  0  0  0  0  3  0  0  0  0  0  0
  -21.5610   -4.6220   24.9330 C   0  0  0  0  0  0  0  0  0  0  0  0
  -21.9610   -4.0610   23.7080 C   0  0  0  0  0  3  0  0  0  0  0  0
  -22.0390   -4.8690   22.5590 C   0  0  0  0  0  0  0  0  0  0  0  0
  -22.4050   -4.3190   21.3750 F   0  0  0  0  0  0  0  0  0  0  0  0
  -21.4790   -3.8400   26.0360 F   0  0  0  0  0  0  0  0  0  0  0  0
  -22.8050  -13.6210   21.0800 C   0  0  0  0  0  0  0  0  0  0  0  0
  -22.0950  -12.9250   21.9610 N   0  0  0  0  0  0  0  0  0  0  0  0
  -22.3540  -14.6430   20.5640 O   0  0  0  0  0  0  0  0  0  0  0  0
  -22.4710  -12.0980   22.4000 H   0  0  0  0  0  0  0  0  0  0  0  0
  -21.1600  -13.2230   22.1970 H   0  0  0  0  0  0  0  0  0  0  0  0
  -25.4260  -15.2910   20.2080 N   0  0  0  0  0  0  0  0  0  0  0  0
  -24.6910  -15.9640   20.3890 H   0  0  0  0  0  0  0  0  0  0  0  0
  -26.2770  -15.7210   19.8640 H   0  0  0  0  0  0  0  0  0  0  0  0
  -28.4080  -21.8900   20.6840 N   0  0  0  0  0  0  0  0  0  0  0  0
  -27.8270  -22.0180   19.8580 H   0  0  0  0  0  0  0  0  0  0  0  0
  -28.9980  -23.1310   21.2090 C   0  0  0  0  0  2  0  0  0  0  0  0
  -28.5740  -24.3810   20.4050 C   0  0  0  0  0  0  0  0  0  0  0  0
  -28.1700  -24.2670   19.2390 O   0  0  0  0  0  0  0  0  0  0  0  0
  -28.6680  -25.7570   21.1030 C   0  0  0  0  0  2  0  0  0  0  0  0
  -28.5240  -26.8570   20.1850 O   0  0  0  0  0  0  0  0  0  0  0  0
  -24.6210  -31.9490   23.3130 C   0  0  0  0  0  0  0  0  0  0  0  0
  -27.3370  -27.5480   20.2490 C   0  0  0  0  0  0  0  0  0  0  0  0
  -23.4380  -30.5390   21.6580 C   0  0  0  0  0  3  0  0  0  0  0  0
  -24.9170  -29.0130   20.2480 C   0  0  0  0  0  0  0  0  0  0  0  0
  -25.9570  -30.9320   21.4680 C   0  0  0  0  0  2  0  0  0  0  0  0
  -26.0650  -29.5560   20.8410 C   0  0  0  0  0  0  0  0  0  0  0  0
  -27.2780  -28.8320   20.8370 C   0  0  0  0  0  3  0  0  0  0  0  0
  -26.1730  -27.0100   19.6610 C   0  0  0  0  0  3  0  0  0  0  0  0
  -24.9660  -27.7370   19.6580 C   0  0  0  0  0  3  0  0  0  0  0  0
  -23.6620  -29.8570   20.2820 C   0  0  0  0  0  2  0  0  0  0  0  0
  -24.6900  -31.1550   22.2060 N   0  0  0  0  0  0  0  0  0  0  0  0
  -23.5330  -32.2070   23.8500 O   0  0  0  0  0  0  0  0  0  0  0  0
  -22.7910  -29.5130   22.6170 C   0  0  0  0  0  0  0  0  0  0  0  0
  -21.4680  -29.3170   22.4810 N   0  0  0  0  0  0  0  0  0  0  0  0
  -23.4740  -28.8890   23.4340 O   0  0  0  0  0  0  0  0  0  0  0  0
  -20.9770  -29.8690   21.7910 H   0  0  0  0  0  0  0  0  0  0  0  0
  -18.1020  -28.0990   22.9630 C   0  0  0  0  0  0  0  0  0  0  0  0
  -20.6550  -28.3710   23.2440 C   0  0  0  0  0  3  0  0  0  0  0  0
  -20.7710  -26.9430   22.6610 C   0  0  0  0  0  2  0  0  0  0  0  0
  -19.6740  -26.6200   21.6430 C   0  0  0  0  0  2  0  0  0  0  0  0
  -18.2890  -26.7560   22.2810 C   0  0  0  0  0  2  0  0  0  0  0  0
  -19.2140  -28.8660   23.4010 C   0  0  0  0  0  0  0  0  0  0  0  0
  -18.9870  -30.1250   23.9970 C   0  0  0  0  0  3  0  0  0  0  0  0
  -17.6790  -30.6170   24.1610 C   0  0  0  0  0  3  0  0  0  0  0  0
  -16.5790  -29.8490   23.7390 C   0  0  0  0  0  3  0  0  0  0  0  0
  -16.7920  -28.5910   23.1440 C   0  0  0  0  0  3  0  0  0  0  0  0
  -25.8970  -32.5920   23.9410 C   0  0  0  0  0  3  0  0  0  0  0  0
  -26.3950  -31.8410   25.2370 C   0  0  1  0  0  0  0  0  0  0  0  0
  -25.2850  -31.6190   26.2920 C   0  0  0  0  0  1  0  0  0  0  0  0
  -26.9820  -30.4590   24.8710 C   0  0  0  0  0  1  0  0  0  0  0  0
  -27.5370  -32.6430   25.9050 C   0  0  0  0  0  1  0  0  0  0  0  0
  -25.5840  -33.9950   24.2410 N   0  0  0  0  0  0  0  0  0  0  0  0
  -25.9270  -35.0330   23.4670 C   0  0  0  0  0  0  0  0  0  0  0  0
  -26.6140  -34.9100   22.4490 O   0  0  0  0  0  0  0  0  0  0  0  0
  -24.9790  -34.1660   25.0320 H   0  0  0  0  0  0  0  0  0  0  0  0
  -24.2070  -36.8160   23.0450 C   0  0  0  0  0  1  0  0  0  0  0  0
  -25.4330  -36.4290   23.8880 C   0  0  0  0  0  3  0  0  0  0  0  0
  -27.5570  -37.3250   24.7340 C   0  0  0  0  0  1  0  0  0  0  0  0
  -26.4650  -37.4840   23.7760 N   0  0  0  0  0  0  0  0  0  0  0  0
  -26.0560  -38.4040   23.9130 H   0  0  0  0  0  0  0  0  0  0  0  0
  2  1  1  0
  3  6  2  0
  3  5  1  0
  4 16  1  0
  4  1  2  0
  5  2  2  0
  6  4  1  0
  7  6  1  0
  8 17  1  0
  9 14  1  0
 10 11  1  0
 10  9  1  0
 12 11  1  0
 12 23  1  0
 12 13  1  0
 14  8  1  0
 14 13  1  0
 15  8  2  0
 16 18  2  0
 17 16  1  0
 19 17  1  0
 20 21  2  0
 21 40  1  0
 22 21  1  0
 22 25  1  0
 23 20  1  0
 23 24  1  0
 24 22  2  0
 25 26  1  0
 26 27  2  0
 28 31  1  0
 28 27  1  0
 29 28  2  0
 30 29  1  0
 30 25  2  0
 31 32  1  0
 32 33  1  0
 33 34  2  0
 35 34  1  0
 35 39  1  0
 36 35  2  0
 37 32  2  0
 37 36  1  0
 38 37  1  0
 40 41  1  0
 41 44  1  0
 41 43  1  0
 42 40  2  0
 45 46  1  0
 45 20  1  0
 47 45  1  0
 48  5  1  0
 48 50  1  0
 49 48  1  0
 51 53  1  0
 51 50  1  0
 52 51  2  0
 54 56  1  0
 54 53  1  0
 55 66  2  0
 56 61  1  0
 57 65  1  0
 57 67  1  0
 58 64  1  0
 58 60  1  0
 59 65  1  0
 60 59  1  0
 61 60  2  0
 62 56  2  0
 63 62  1  0
 63 58  2  0
 64 57  1  0
 65 55  1  0
 67 69  2  0
 68 67  1  0
 70 68  1  0
 71 80  2  0
 71 76  1  0
 72 68  1  0
 72 76  1  0
 73 72  1  0
 74 75  1  0
 74 73  1  0
 75 71  1  0
 76 77  2  0
 77 78  1  0
 79 78  2  0
 80 79  1  0
 81 55  1  0
 81 86  1  0
 81 82  1  0
 82 85  1  1
 82 83  1  0
 84 82  1  0
 86 89  1  0
 87 91  1  0
 87 86  1  0
 88 87  2  0
 91 90  1  0
 93 91  1  0
 93 94  1  0
 93 92  1  0
M  ISO  4   8 100  17 100  53 101  54 101
M  END
>  <TORSDO>  (32) 
F 20

>  <SCORE>  (32) 
-13.609

>  <name>  (32) 
31

>  <ligand_id>  (32) 
31

>  <original_smiles>  (32) 
[H]c1c([H])c([H])c2c(c1[H])C([H])([H])C([H])([H])C([H])([H])C2([H])N([H])C(=O)C1([H])N(C(=O)C([H])(N([H])C(=O)C([H])(N([H])C([H])([H])[H])C([H])([H])[H])C(C([H])([H])[H])(C([H])([H])[H])C([H])([H])[H])C([H])([H])c2c([H])c(OC([H])([H])C(=O)C([H])([H])N([H])c3c([H])c([H])c(C(=O)N([H])C(=O)N4C([H])([H])C([H])([H])C([H])([H])C([H])(n5nc(-c6c([H])c([H])c(Oc7c([H])c([H])c(F)c([H])c7F)c([H])c6[H])c(C(=O)N([H])[H])c5N([H])[H])C4([H])[H])c(F)c3[H])c([H])c([H])c2C1([H])[H]

>  <smiles>  (32) 
[H]c1c([H])c([H])c2c(c1[H])C([H])([H])C([H])([H])C([H])([H])C2([H])N([H])C(=O)C1([H])N(C(=O)C([H])(N([H])C(=O)C([H])(N([H])C([H])([H])[H])C([H])([H])[H])C(C([H])([H])[H])(C([H])([H])[H])C([H])([H])[H])C([H])([H])c2c([H])c(OC([H])([H])C(=O)C([H])([H])N([H])c3c([H])c([H])c(C(=O)N([H])C(=O)N4C([H])([H])C([H])([H])C([H])([H])C([H])(n5nc(-c6c([H])c([H])c(Oc7c([H])c([H])c(F)c([H])c7F)c([H])c6[H])c(C(=O)N([H])[H])c5N([H])[H])C4([H])[H])c(F)c3[H])c([H])c([H])c2C1([H])[H]

$$$$
32:0:0
     RDKit          3D

 94102  0  0  1  0  0  0  0  0999 V2000
  -30.5080  -19.0760   22.0310 C   0  0  0  0  0  3  0  0  0  0  0  0
  -29.9730  -20.3740   21.8770 C   0  0  0  0  0  3  0  0  0  0  0  0
  -28.4240  -19.5120   20.2230 C   0  0  0  0  0  3  0  0  0  0  0  0
  -30.0310  -17.9760   21.2690 C   0  0  0  0  0  0  0  0  0  0  0  0
  -28.9410  -20.6120   20.9410 C   0  0  0  0  0  0  0  0  0  0  0  0
  -28.9550  -18.2100   20.3780 C   0  0  0  0  0  0  0  0  0  0  0  0
  -28.4240  -17.2050   19.6330 F   0  0  0  0  0  0  0  0  0  0  0  0
  -30.7720  -14.5070   20.2710 C   0  0  0  0  0  0  0  0  0  0  0  0
  -30.3630  -12.4080   19.0360 C   0  0  0  0  0  2  0  0  0  0  0  0
  -29.3880  -12.6330   17.8670 C   0  0  0  0  0  2  0  0  0  0  0  0
  -27.9290  -12.4960   18.3400 C   0  0  0  0  0  2  0  0  0  0  0  0
  -27.6370  -13.3160   19.6270 C   0  0  0  0  0  3  0  0  0  0  0  0
  -28.7250  -13.0830   20.6990 C   0  0  0  0  0  2  0  0  0  0  0  0
  -30.0260  -13.3830   20.0840 N   0  0  0  0  0  0  0  0  0  0  0  0
  -31.8890  -14.6310   19.7580 O   0  0  0  0  0  0  0  0  0  0  0  0
  -30.7760  -16.6540   21.3280 C   0  0  0  0  0  0  0  0  0  0  0  0
  -30.1600  -15.5350   20.8910 N   0  0  0  0  0  0  0  0  0  0  0  0
  -31.9270  -16.6450   21.7830 O   0  0  0  0  0  0  0  0  0  0  0  0
  -29.1540  -15.5470   20.8570 H   0  0  0  0  0  0  0  0  0  0  0  0
  -25.2590  -13.9210   20.3920 C   0  0  0  0  0  0  0  0  0  0  0  0
  -24.1980  -13.1460   20.7850 C   0  0  0  0  0  0  0  0  0  0  0  0
  -24.6630  -11.7950   20.7520 C   0  0  0  0  0  0  0  0  0  0  0  0
  -26.2990  -13.0390   20.1410 N   0  0  0  0  0  0  0  0  0  0  0  0
  -25.9470  -11.7560   20.4150 N   0  0  0  0  0  0  0  0  0  0  0  0
  -23.9450  -10.5310   20.9650 C   0  0  0  0  0  0  0  0  0  0  0  0
  -24.3990   -9.5720   21.8980 C   0  0  0  0  0  3  0  0  0  0  0  0
  -23.6820   -8.3730   22.0970 C   0  0  0  0  0  3  0  0  0  0  0  0
  -22.4980   -8.1230   21.3650 C   0  0  0  0  0  0  0  0  0  0  0  0
  -22.0640   -9.0690   20.4200 C   0  0  0  0  0  3  0  0  0  0  0  0
  -22.7810  -10.2610   20.2180 C   0  0  0  0  0  3  0  0  0  0  0  0
  -21.7500   -6.9750   21.4730 O   0  0  0  0  0  0  0  0  0  0  0  0
  -21.7250   -6.2400   22.6310 C   0  0  0  0  0  0  0  0  0  0  0  0
  -21.3170   -6.8010   23.8610 C   0  0  0  0  0  3  0  0  0  0  0  0
  -21.2400   -5.9910   25.0130 C   0  0  0  0  0  3  0  0  0  0  0  0
  -21.5610   -4.6220   24.9330 C   0  0  0  0  0  0  0  0  0  0  0  0
  -21.9610   -4.0610   23.7080 C   0  0  0  0  0  3  0  0  0  0  0  0
  -22.0390   -4.8690   22.5590 C   0  0  0  0  0  0  0  0  0  0  0  0
  -22.4050   -4.3190   21.3750 F   0  0  0  0  0  0  0  0  0  0  0  0
  -21.4790   -3.8400   26.0360 F   0  0  0  0  0  0  0  0  0  0  0  0
  -22.8050  -13.6210   21.0800 C   0  0  0  0  0  0  0  0  0  0  0  0
  -22.0950  -12.9250   21.9610 N   0  0  0  0  0  0  0  0  0  0  0  0
  -22.3540  -14.6430   20.5640 O   0  0  0  0  0  0  0  0  0  0  0  0
  -22.4710  -12.0980   22.4000 H   0  0  0  0  0  0  0  0  0  0  0  0
  -21.1600  -13.2230   22.1970 H   0  0  0  0  0  0  0  0  0  0  0  0
  -25.4260  -15.2910   20.2080 N   0  0  0  0  0  0  0  0  0  0  0  0
  -24.6910  -15.9640   20.3890 H   0  0  0  0  0  0  0  0  0  0  0  0
  -26.2770  -15.7210   19.8640 H   0  0  0  0  0  0  0  0  0  0  0  0
  -28.4080  -21.8900   20.6840 N   0  0  0  0  0  0  0  0  0  0  0  0
  -27.8270  -22.0180   19.8580 H   0  0  0  0  0  0  0  0  0  0  0  0
  -28.9980  -23.1310   21.2090 C   0  0  0  0  0  2  0  0  0  0  0  0
  -28.5740  -24.3810   20.4050 C   0  0  0  0  0  0  0  0  0  0  0  0
  -28.1700  -24.2670   19.2390 O   0  0  0  0  0  0  0  0  0  0  0  0
  -28.6680  -25.7570   21.1030 C   0  0  0  0  0  2  0  0  0  0  0  0
  -28.5240  -26.8570   20.1850 O   0  0  0  0  0  0  0  0  0  0  0  0
  -24.6210  -31.9490   23.3130 C   0  0  0  0  0  0  0  0  0  0  0  0
  -27.3370  -27.5480   20.2490 C   0  0  0  0  0  0  0  0  0  0  0  0
  -23.4380  -30.5390   21.6580 C   0  0  0  0  0  3  0  0  0  0  0  0
  -24.9170  -29.0130   20.2480 C   0  0  0  0  0  0  0  0  0  0  0  0
  -25.9570  -30.9320   21.4680 C   0  0  0  0  0  2  0  0  0  0  0  0
  -26.0650  -29.5560   20.8410 C   0  0  0  0  0  0  0  0  0  0  0  0
  -27.2780  -28.8320   20.8370 C   0  0  0  0  0  3  0  0  0  0  0  0
  -26.1730  -27.0100   19.6610 C   0  0  0  0  0  3  0  0  0  0  0  0
  -24.9660  -27.7370   19.6580 C   0  0  0  0  0  3  0  0  0  0  0  0
  -23.6620  -29.8570   20.2820 C   0  0  0  0  0  2  0  0  0  0  0  0
  -24.6900  -31.1550   22.2060 N   0  0  0  0  0  0  0  0  0  0  0  0
  -23.5330  -32.2070   23.8500 O   0  0  0  0  0  0  0  0  0  0  0  0
  -22.7910  -29.5130   22.6170 C   0  0  0  0  0  0  0  0  0  0  0  0
  -21.4680  -29.3170   22.4810 N   0  0  0  0  0  0  0  0  0  0  0  0
  -23.4740  -28.8890   23.4340 O   0  0  0  0  0  0  0  0  0  0  0  0
  -20.9770  -29.8690   21.7910 H   0  0  0  0  0  0  0  0  0  0  0  0
  -18.1020  -28.0990   22.9630 C   0  0  0  0  0  0  0  0  0  0  0  0
  -20.6550  -28.3710   23.2440 C   0  0  0  0  0  3  0  0  0  0  0  0
  -20.7710  -26.9430   22.6610 C   0  0  0  0  0  2  0  0  0  0  0  0
  -19.6740  -26.6200   21.6430 C   0  0  0  0  0  2  0  0  0  0  0  0
  -18.2890  -26.7560   22.2810 C   0  0  0  0  0  2  0  0  0  0  0  0
  -19.2140  -28.8660   23.4010 C   0  0  0  0  0  0  0  0  0  0  0  0
  -18.9870  -30.1250   23.9970 C   0  0  0  0  0  3  0  0  0  0  0  0
  -17.6790  -30.6170   24.1610 C   0  0  0  0  0  3  0  0  0  0  0  0
  -16.5790  -29.8490   23.7390 C   0  0  0  0  0  3  0  0  0  0  0  0
  -16.7920  -28.5910   23.1440 C   0  0  0  0  0  3  0  0  0  0  0  0
  -25.8970  -32.5920   23.9410 C   0  0  0  0  0  3  0  0  0  0  0  0
  -26.3950  -31.8410   25.2370 C   0  0  1  0  0  0  0  0  0  0  0  0
  -25.2850  -31.6190   26.2920 C   0  0  0  0  0  1  0  0  0  0  0  0
  -26.9820  -30.4590   24.8710 C   0  0  0  0  0  1  0  0  0  0  0  0
  -27.5370  -32.6430   25.9050 C   0  0  0  0  0  1  0  0  0  0  0  0
  -25.5840  -33.9950   24.2410 N   0  0  0  0  0  0  0  0  0  0  0  0
  -25.9270  -35.0330   23.4670 C   0  0  0  0  0  0  0  0  0  0  0  0
  -26.6140  -34.9100   22.4490 O   0  0  0  0  0  0  0  0  0  0  0  0
  -24.9790  -34.1660   25.0320 H   0  0  0  0  0  0  0  0  0  0  0  0
  -24.2070  -36.8160   23.0450 C   0  0  0  0  0  1  0  0  0  0  0  0
  -25.4330  -36.4290   23.8880 C   0  0  0  0  0  3  0  0  0  0  0  0
  -27.5570  -37.3250   24.7340 C   0  0  0  0  0  1  0  0  0  0  0  0
  -26.4650  -37.4840   23.7760 N   0  0  0  0  0  0  0  0  0  0  0  0
  -26.0560  -38.4040   23.9130 H   0  0  0  0  0  0  0  0  0  0  0  0
  2  1  1  0
  3  6  2  0
  3  5  1  0
  4 16  1  0
  4  1  2  0
  5  2  2  0
  6  4  1  0
  7  6  1  0
  8 17  1  0
  9 14  1  0
 10 11  1  0
 10  9  1  0
 12 11  1  0
 12 23  1  0
 12 13  1  0
 14  8  1  0
 14 13  1  0
 15  8  2  0
 16 18  2  0
 17 16  1  0
 19 17  1  0
 20 21  2  0
 21 40  1  0
 22 21  1  0
 22 25  1  0
 23 20  1  0
 23 24  1  0
 24 22  2  0
 25 26  1  0
 26 27  2  0
 28 31  1  0
 28 27  1  0
 29 28  2  0
 30 29  1  0
 30 25  2  0
 31 32  1  0
 32 33  1  0
 33 34  2  0
 35 34  1  0
 35 39  1  0
 36 35  2  0
 37 32  2  0
 37 36  1  0
 38 37  1  0
 40 41  1  0
 41 44  1  0
 41 43  1  0
 42 40  2  0
 45 46  1  0
 45 20  1  0
 47 45  1  0
 48  5  1  0
 48 50  1  0
 49 48  1  0
 51 53  1  0
 51 50  1  0
 52 51  2  0
 54 56  1  0
 54 53  1  0
 55 66  2  0
 56 61  1  0
 57 65  1  0
 57 67  1  0
 58 64  1  0
 58 60  1  0
 59 65  1  0
 60 59  1  0
 61 60  2  0
 62 56  2  0
 63 62  1  0
 63 58  2  0
 64 57  1  0
 65 55  1  0
 67 69  2  0
 68 67  1  0
 70 68  1  0
 71 80  2  0
 71 76  1  0
 72 68  1  0
 72 76  1  0
 73 72  1  0
 74 75  1  0
 74 73  1  0
 75 71  1  0
 76 77  2  0
 77 78  1  0
 79 78  2  0
 80 79  1  0
 81 55  1  0
 81 86  1  0
 81 82  1  0
 82 85  1  1
 82 83  1  0
 84 82  1  0
 86 89  1  0
 87 91  1  0
 87 86  1  0
 88 87  2  0
 91 90  1  0
 93 91  1  0
 93 94  1  0
 93 92  1  0
M  ISO  4   8 100  17 100  53 101  54 101
M  END
>  <TORSDO>  (33) 
F 20

>  <SCORE>  (33) 
-13.609

>  <name>  (33) 
32

>  <ligand_id>  (33) 
32

>  <original_smiles>  (33) 
[H]c1c([H])c([H])c2c(c1[H])C([H])([H])C([H])([H])C([H])([H])C2([H])N([H])C(=O)C1([H])N(C(=O)C([H])(N([H])C(=O)C([H])(N([H])C([H])([H])[H])C([H])([H])[H])C(C([H])([H])[H])(C([H])([H])[H])C([H])([H])[H])C([H])([H])c2c([H])c(OC([H])([H])C(=O)C([H])([H])N([H])c3c([H])c([H])c(C(=O)N([H])C(=O)N4C([H])([H])C([H])([H])C([H])([H])C([H])(n5nc(-c6c([H])c([H])c(Oc7c([H])c([H])c(F)c([H])c7F)c([H])c6[H])c(C(=O)N([H])[H])c5N([H])[H])C4([H])[H])c(F)c3[H])c([H])c([H])c2C1([H])[H]

>  <smiles>  (33) 
[H]c1c([H])c([H])c2c(c1[H])C([H])([H])C([H])([H])C([H])([H])C2([H])N([H])C(=O)C1([H])N(C(=O)C([H])(N([H])C(=O)C([H])(N([H])C([H])([H])[H])C([H])([H])[H])C(C([H])([H])[H])(C([H])([H])[H])C([H])([H])[H])C([H])([H])c2c([H])c(OC([H])([H])C(=O)C([H])([H])N([H])c3c([H])c([H])c(C(=O)N([H])C(=O)N4C([H])([H])C([H])([H])C([H])([H])C([H])(n5nc(-c6c([H])c([H])c(Oc7c([H])c([H])c(F)c([H])c7F)c([H])c6[H])c(C(=O)N([H])[H])c5N([H])[H])C4([H])[H])c(F)c3[H])c([H])c([H])c2C1([H])[H]

$$$$
33:0:0
     RDKit          3D

 96105  0  0  1  0  0  0  0  0999 V2000
  -28.2520  -19.8920   20.2500 C   0  0  0  0  0  3  0  0  0  0  0  0
  -28.5950  -18.5100   20.2630 C   0  0  0  0  0  3  0  0  0  0  0  0
  -30.2560  -20.3580   21.4730 C   0  0  0  0  0  3  0  0  0  0  0  0
  -29.0920  -20.8800   20.8210 C   0  0  0  0  0  0  0  0  0  0  0  0
  -29.8180  -18.0040   20.7970 C   0  0  0  0  0  0  0  0  0  0  0  0
  -30.6220  -18.9650   21.4790 C   0  0  0  0  0  0  0  0  0  0  0  0
  -30.8550  -15.6610   21.2160 C   0  0  0  0  0  0  0  0  0  0  0  0
  -30.8910  -13.2720   20.5210 C   0  0  0  0  0  2  0  0  0  0  0  0
  -30.2240  -13.1200   19.1390 C   0  0  0  0  0  2  0  0  0  0  0  0
  -28.6920  -12.9990   19.2720 C   0  0  0  0  0  2  0  0  0  0  0  0
  -28.0620  -13.9990   20.2830 C   0  0  0  0  0  3  0  0  0  0  0  0
  -28.8810  -14.1110   21.5830 C   0  0  0  0  0  2  0  0  0  0  0  0
  -30.2570  -14.4250   21.1890 N   0  0  0  0  0  0  0  0  0  0  0  0
  -32.0810  -15.7240   21.3700 O   0  0  0  0  0  0  0  0  0  0  0  0
  -30.2560  -16.6370   20.4210 N   0  0  0  0  0  0  0  0  0  0  0  0
  -25.5780  -14.5620   20.5650 C   0  0  0  0  0  0  0  0  0  0  0  0
  -24.4740  -13.7760   20.7470 C   0  0  0  0  0  0  0  0  0  0  0  0
  -24.9550  -12.4330   20.8300 C   0  0  0  0  0  0  0  0  0  0  0  0
  -26.6590  -13.6970   20.5390 N   0  0  0  0  0  0  0  0  0  0  0  0
  -26.2800  -12.4140   20.7650 N   0  0  0  0  0  0  0  0  0  0  0  0
  -24.2250  -11.1610   20.9080 C   0  0  0  0  0  0  0  0  0  0  0  0
  -24.6640  -10.1090   21.7420 C   0  0  0  0  0  3  0  0  0  0  0  0
  -23.9350   -8.9030   21.8160 C   0  0  0  0  0  3  0  0  0  0  0  0
  -22.7550   -8.7390   21.0530 C   0  0  0  0  0  0  0  0  0  0  0  0
  -22.3350   -9.7800   20.2060 C   0  0  0  0  0  3  0  0  0  0  0  0
  -23.0630  -10.9790   20.1310 C   0  0  0  0  0  3  0  0  0  0  0  0
  -21.9980   -7.5930   21.0400 O   0  0  0  0  0  0  0  0  0  0  0  0
  -21.9060   -6.7810   22.1410 C   0  0  0  0  0  0  0  0  0  0  0  0
  -21.3750   -7.2410   23.3660 C   0  0  0  0  0  3  0  0  0  0  0  0
  -21.2350   -6.3530   24.4500 C   0  0  0  0  0  3  0  0  0  0  0  0
  -21.6170   -5.0040   24.3100 C   0  0  0  0  0  0  0  0  0  0  0  0
  -22.1410   -4.5430   23.0900 C   0  0  0  0  0  3  0  0  0  0  0  0
  -22.2820   -5.4290   22.0070 C   0  0  0  0  0  0  0  0  0  0  0  0
  -22.7680   -4.9750   20.8270 F   0  0  0  0  0  0  0  0  0  0  0  0
  -21.4750   -4.1480   25.3480 F   0  0  0  0  0  0  0  0  0  0  0  0
  -23.0450  -14.2310   20.7490 C   0  0  0  0  0  0  0  0  0  0  0  0
  -22.2070  -13.6030   21.5680 N   0  0  0  0  0  0  0  0  0  0  0  0
  -22.6740  -15.1800   20.0620 O   0  0  0  0  0  0  0  0  0  0  0  0
  -22.5210  -12.8400   22.1480 H   0  0  0  0  0  0  0  0  0  0  0  0
  -21.2400  -13.8880   21.6110 H   0  0  0  0  0  0  0  0  0  0  0  0
  -25.7530  -15.9320   20.3940 N   0  0  0  0  0  0  0  0  0  0  0  0
  -24.9720  -16.5790   20.3710 H   0  0  0  0  0  0  0  0  0  0  0  0
  -26.6490  -16.3830   20.2660 H   0  0  0  0  0  0  0  0  0  0  0  0
  -30.8520  -16.6620   19.0520 C   0  0  0  0  0  2  0  0  0  0  0  0
  -30.6200  -16.7430   16.5230 C   0  0  0  0  0  1  0  0  0  0  0  0
  -29.8680  -16.6510   17.8590 C   0  0  0  0  0  2  0  0  0  0  0  0
  -29.2340  -23.3070   21.5510 C   0  0  0  0  0  0  0  0  0  0  0  0
  -28.8330  -24.7160   21.0880 C   0  0  0  0  0  2  0  0  0  0  0  0
  -27.9400  -22.9880   19.6870 C   0  0  0  0  0  2  0  0  0  0  0  0
  -27.6910  -24.5000   20.0920 C   0  0  0  0  0  3  0  0  0  0  0  0
  -28.7800  -22.3300   20.7320 N   0  0  0  0  0  0  0  0  0  0  0  0
  -29.8840  -23.1480   22.5860 O   0  0  0  0  0  0  0  0  0  0  0  0
  -27.5770  -25.6000   18.9380 C   0  0  0  0  0  2  0  0  0  0  0  0
  -27.6480  -27.0470   19.2540 O   0  0  0  0  0  0  0  0  0  0  0  0
  -24.4840  -31.9110   23.5110 C   0  0  0  0  0  0  0  0  0  0  0  0
  -26.5230  -27.8560   19.4660 C   0  0  0  0  0  0  0  0  0  0  0  0
  -23.0310  -30.7960   21.8560 C   0  0  0  0  0  3  0  0  0  0  0  0
  -24.2270  -29.4710   20.0240 C   0  0  0  0  0  0  0  0  0  0  0  0
  -25.5300  -31.1150   21.3770 C   0  0  0  0  0  2  0  0  0  0  0  0
  -25.4770  -29.8530   20.5240 C   0  0  0  0  0  0  0  0  0  0  0  0
  -26.6250  -29.0590   20.2330 C   0  0  0  0  0  3  0  0  0  0  0  0
  -25.2420  -27.5180   18.9720 C   0  0  0  0  0  3  0  0  0  0  0  0
  -24.1100  -28.3110   19.2420 C   0  0  0  0  0  3  0  0  0  0  0  0
  -23.0370  -30.3420   20.3720 C   0  0  0  0  0  2  0  0  0  0  0  0
  -24.3750  -31.2810   22.3050 N   0  0  0  0  0  0  0  0  0  0  0  0
  -23.4900  -32.1150   24.2230 O   0  0  0  0  0  0  0  0  0  0  0  0
  -22.4700  -29.6490   22.7310 C   0  0  0  0  0  0  0  0  0  0  0  0
  -21.1610  -29.3770   22.6040 N   0  0  0  0  0  0  0  0  0  0  0  0
  -23.2120  -29.0120   23.4840 O   0  0  0  0  0  0  0  0  0  0  0  0
  -20.6200  -29.9460   21.9670 H   0  0  0  0  0  0  0  0  0  0  0  0
  -17.9790  -27.6670   22.8030 C   0  0  0  0  0  0  0  0  0  0  0  0
  -20.4330  -28.3150   23.2990 C   0  0  0  0  0  3  0  0  0  0  0  0
  -20.8050  -26.9240   22.7350 C   0  0  0  0  0  2  0  0  0  0  0  0
  -19.8590  -26.4490   21.6280 C   0  0  0  0  0  2  0  0  0  0  0  0
  -18.4200  -26.3710   22.1450 C   0  0  0  0  0  2  0  0  0  0  0  0
  -18.9240  -28.5870   23.3300 C   0  0  0  0  0  0  0  0  0  0  0  0
  -18.4600  -29.7930   23.9010 C   0  0  0  0  0  3  0  0  0  0  0  0
  -17.0840  -30.0830   23.9490 C   0  0  0  0  0  3  0  0  0  0  0  0
  -16.1520  -29.1630   23.4390 C   0  0  0  0  0  3  0  0  0  0  0  0
  -16.6010  -27.9570   22.8720 C   0  0  0  0  0  3  0  0  0  0  0  0
  -25.8570  -32.4260   24.0420 C   0  0  0  0  0  3  0  0  0  0  0  0
  -25.7050  -33.8550   24.3550 N   0  0  0  0  0  0  0  0  0  0  0  0
  -26.1470  -34.8550   23.5810 C   0  0  0  0  0  0  0  0  0  0  0  0
  -26.7960  -34.6640   22.5490 O   0  0  0  0  0  0  0  0  0  0  0  0
  -25.1340  -34.0820   25.1560 H   0  0  0  0  0  0  0  0  0  0  0  0
  -24.6450  -36.8340   23.1830 C   0  0  0  0  0  1  0  0  0  0  0  0
  -25.8170  -36.2950   24.0200 C   0  0  0  0  0  3  0  0  0  0  0  0
  -28.0140  -36.9490   24.9040 C   0  0  0  0  0  1  0  0  0  0  0  0
  -26.9680  -37.2190   23.9190 N   0  0  0  0  0  0  0  0  0  0  0  0
  -26.6680  -38.1820   24.0340 H   0  0  0  0  0  0  0  0  0  0  0  0
  -26.3690  -31.6340   25.3070 C   0  0  1  0  0  0  0  0  0  0  0  0
  -25.3380  -31.5650   26.4570 C   0  0  0  0  0  1  0  0  0  0  0  0
  -26.7510  -30.1840   24.9260 C   0  0  0  0  0  1  0  0  0  0  0  0
  -27.6540  -32.3000   25.8560 C   0  0  0  0  0  1  0  0  0  0  0  0
  -32.4550  -19.3810   22.9850 C   0  0  0  0  0  1  0  0  0  0  0  0
  -31.7770  -18.5140   22.0830 O   0  0  0  0  0  0  0  0  0  0  0  0
  1  2  2  0
  1  4  1  0
  2  5  1  0
  3  6  1  0
  4  3  2  0
  5  6  2  0
  6 96  1  0
  7 14  2  0
  8 13  1  0
  9 10  1  0
  9  8  1  0
 11 10  1  0
 11 19  1  0
 11 12  1  0
 13  7  1  0
 13 12  1  0
 15  5  1  0
 15  7  1  0
 16 17  2  0
 17 36  1  0
 17 18  1  0
 18 21  1  0
 19 16  1  0
 19 20  1  0
 20 18  2  0
 21 22  1  0
 22 23  2  0
 24 23  1  0
 25 24  2  0
 26 25  1  0
 26 21  2  0
 27 24  1  0
 27 28  1  0
 28 29  1  0
 29 30  2  0
 31 30  1  0
 31 35  1  0
 32 31  2  0
 33 28  2  0
 33 32  1  0
 34 33  1  0
 36 37  1  0
 37 40  1  0
 37 39  1  0
 38 36  2  0
 41 16  1  0
 42 41  1  0
 43 41  1  0
 44 15  1  0
 45 46  1  0
 46 44  1  0
 47 52  2  0
 48 47  1  0
 49 50  1  0
 49 51  1  0
 50 53  1  0
 50 48  1  0
 51  4  1  0
 51 47  1  0
 53 54  1  0
 54 56  1  0
 55 66  2  0
 56 61  1  0
 57 65  1  0
 57 67  1  0
 58 64  1  0
 58 60  1  0
 59 65  1  0
 60 59  1  0
 61 60  2  0
 62 63  1  0
 62 56  2  0
 63 58  2  0
 64 57  1  0
 65 55  1  0
 67 69  2  0
 68 67  1  0
 70 68  1  0
 71 80  2  0
 71 76  1  0
 72 68  1  0
 72 76  1  0
 73 72  1  0
 74 75  1  0
 74 73  1  0
 75 71  1  0
 76 77  2  0
 77 78  1  0
 79 78  2  0
 80 79  1  0
 81 55  1  0
 81 82  1  0
 81 91  1  0
 82 85  1  0
 83 87  1  0
 83 82  1  0
 84 83  2  0
 87 86  1  0
 89 87  1  0
 89 90  1  0
 89 88  1  0
 91 94  1  1
 91 92  1  0
 93 91  1  0
 96 95  1  0
M  ISO  4   7 100  15 100  53 101  54 101
M  END
>  <TORSDO>  (34) 
F 21

>  <SCORE>  (34) 
-9.542

>  <name>  (34) 
33

>  <ligand_id>  (34) 
33

>  <original_smiles>  (34) 
[H]c1c([H])c([H])c2c(c1[H])C([H])([H])C([H])([H])C([H])([H])C2([H])N([H])C(=O)C1([H])N(C(=O)C([H])(N([H])C(=O)C([H])(N([H])C([H])([H])[H])C([H])([H])[H])C(C([H])([H])[H])(C([H])([H])[H])C([H])([H])[H])C([H])([H])c2c([H])c(OC([H])([H])C3([H])C([H])([H])C(=O)N(c4c([H])c([H])c(N(C(=O)N5C([H])([H])C([H])([H])C([H])([H])C([H])(n6nc(-c7c([H])c([H])c(Oc8c([H])c([H])c(F)c([H])c8F)c([H])c7[H])c(C(=O)N([H])[H])c6N([H])[H])C5([H])[H])C([H])([H])C([H])([H])C([H])([H])[H])c(OC([H])([H])[H])c4[H])C3([H])[H])c([H])c([H])c2C1([H])[H]

>  <smiles>  (34) 
[H]c1c([H])c([H])c2c(c1[H])C([H])([H])C([H])([H])C([H])([H])C2([H])N([H])C(=O)C1([H])N(C(=O)C([H])(N([H])C(=O)C([H])(N([H])C([H])([H])[H])C([H])([H])[H])C(C([H])([H])[H])(C([H])([H])[H])C([H])([H])[H])C([H])([H])c2c([H])c(OC([H])([H])C3([H])C([H])([H])C(=O)N(c4c([H])c([H])c(N(C(=O)N5C([H])([H])C([H])([H])C([H])([H])C([H])(n6nc(-c7c([H])c([H])c(Oc8c([H])c([H])c(F)c([H])c8F)c([H])c7[H])c(C(=O)N([H])[H])c6N([H])[H])C5([H])[H])C([H])([H])C([H])([H])C([H])([H])[H])c(OC([H])([H])[H])c4[H])C3([H])[H])c([H])c([H])c2C1([H])[H]

$$$$
34:0:0
     RDKit          3D

100109  0  0  1  0  0  0  0  0999 V2000
  -30.4810  -24.6610   21.6340 C   0  0  0  0  0  3  0  0  0  0  0  0
  -29.1060  -24.7030   21.2630 C   0  0  0  0  0  0  0  0  0  0  0  0
  -30.9080  -23.3670   21.5340 C   0  0  0  0  0  0  0  0  0  0  0  0
  -28.7800  -23.4090   20.9190 C   0  0  0  0  0  0  0  0  0  0  0  0
  -29.8750  -22.5560   21.0720 N   0  0  0  0  0  0  0  0  0  0  0  0
  -29.0100  -18.8730   20.7580 C   0  0  0  0  0  3  0  0  0  0  0  0
  -28.9420  -20.2330   21.1550 C   0  0  0  0  0  3  0  0  0  0  0  0
  -31.0600  -20.6640   20.0560 C   0  0  0  0  0  3  0  0  0  0  0  0
  -30.0950  -18.4070   19.9790 C   0  0  0  0  0  0  0  0  0  0  0  0
  -29.9540  -21.1540   20.7780 C   0  0  0  0  0  0  0  0  0  0  0  0
  -31.1390  -19.3150   19.6670 C   0  0  0  0  0  0  0  0  0  0  0  0
  -32.2040  -18.9170   18.9290 F   0  0  0  0  0  0  0  0  0  0  0  0
  -30.0870  -17.0170   19.3160 C   0  0  0  0  0  3  0  0  0  0  0  0
  -30.5830  -14.7310   20.1160 C   0  0  0  0  0  0  0  0  0  0  0  0
  -30.2470  -12.5590   19.0450 C   0  0  0  0  0  2  0  0  0  0  0  0
  -29.2680  -12.7620   17.8700 C   0  0  0  0  0  2  0  0  0  0  0  0
  -27.8060  -12.6300   18.3440 C   0  0  0  0  0  2  0  0  0  0  0  0
  -27.5040  -13.4440   19.6320 C   0  0  0  0  0  3  0  0  0  0  0  0
  -28.6100  -13.2630   20.6990 C   0  0  0  0  0  2  0  0  0  0  0  0
  -29.9050  -13.5540   20.0720 N   0  0  0  0  0  0  0  0  0  0  0  0
  -31.7610  -14.8230   19.7730 O   0  0  0  0  0  0  0  0  0  0  0  0
  -29.8150  -15.8410   20.1780 N   0  0  0  0  0  0  0  0  0  0  0  0
  -28.8640  -15.7050   20.4790 H   0  0  0  0  0  0  0  0  0  0  0  0
  -25.1260  -13.9960   20.4490 C   0  0  0  0  0  0  0  0  0  0  0  0
  -24.0870  -13.1990   20.8470 C   0  0  0  0  0  0  0  0  0  0  0  0
  -24.5700  -11.8570   20.7800 C   0  0  0  0  0  0  0  0  0  0  0  0
  -26.1780  -13.1370   20.1640 N   0  0  0  0  0  0  0  0  0  0  0  0
  -25.8490  -11.8450   20.4240 N   0  0  0  0  0  0  0  0  0  0  0  0
  -23.8710  -10.5790   20.9790 C   0  0  0  0  0  0  0  0  0  0  0  0
  -24.3320   -9.6220   21.9120 C   0  0  0  0  0  3  0  0  0  0  0  0
  -23.6330   -8.4100   22.0980 C   0  0  0  0  0  3  0  0  0  0  0  0
  -22.4580   -8.1460   21.3530 C   0  0  0  0  0  0  0  0  0  0  0  0
  -22.0180   -9.0930   20.4110 C   0  0  0  0  0  3  0  0  0  0  0  0
  -22.7180  -10.2950   20.2230 C   0  0  0  0  0  3  0  0  0  0  0  0
  -21.7300   -6.9850   21.4510 O   0  0  0  0  0  0  0  0  0  0  0  0
  -21.6940   -6.2510   22.6090 C   0  0  0  0  0  0  0  0  0  0  0  0
  -21.2580   -6.8100   23.8300 C   0  0  0  0  0  3  0  0  0  0  0  0
  -21.1700   -6.0010   24.9820 C   0  0  0  0  0  3  0  0  0  0  0  0
  -21.5080   -4.6370   24.9130 C   0  0  0  0  0  0  0  0  0  0  0  0
  -21.9360   -4.0770   23.6970 C   0  0  0  0  0  3  0  0  0  0  0  0
  -22.0250   -4.8830   22.5470 C   0  0  0  0  0  0  0  0  0  0  0  0
  -22.4190   -4.3340   21.3730 F   0  0  0  0  0  0  0  0  0  0  0  0
  -21.4170   -3.8590   26.0170 F   0  0  0  0  0  0  0  0  0  0  0  0
  -22.6930  -13.6470   21.1790 C   0  0  0  0  0  0  0  0  0  0  0  0
  -22.0110  -12.9300   22.0670 N   0  0  0  0  0  0  0  0  0  0  0  0
  -22.2140  -14.6670   20.6830 O   0  0  0  0  0  0  0  0  0  0  0  0
  -22.4080  -12.1040   22.4900 H   0  0  0  0  0  0  0  0  0  0  0  0
  -21.0780  -13.2150   22.3280 H   0  0  0  0  0  0  0  0  0  0  0  0
  -25.2610  -15.3720   20.2800 N   0  0  0  0  0  0  0  0  0  0  0  0
  -24.4880  -16.0150   20.4170 H   0  0  0  0  0  0  0  0  0  0  0  0
  -26.0870  -15.8280   19.9150 H   0  0  0  0  0  0  0  0  0  0  0  0
  -29.1160  -16.9950   18.1080 C   0  0  0  0  0  2  0  0  0  0  0  0
  -28.1580  -18.2300   16.0760 C   0  0  0  0  0  1  0  0  0  0  0  0
  -29.2430  -18.2040   17.1600 C   0  0  0  0  0  2  0  0  0  0  0  0
  -32.1370  -22.8610   21.8350 O   0  0  0  0  0  0  0  0  0  0  0  0
  -32.6690  -23.5740   22.1760 H   0  0  0  0  0  0  0  0  0  0  0  0
  -27.5820  -22.9190   20.4850 O   0  0  0  0  0  0  0  0  0  0  0  0
  -26.9460  -23.6260   20.4980 H   0  0  0  0  0  0  0  0  0  0  0  0
  -28.2050  -25.9260   21.3480 C   0  0  0  0  0  2  0  0  0  0  0  0
  -28.3360  -26.8860   20.2860 O   0  0  0  0  0  0  0  0  0  0  0  0
  -24.5160  -32.0370   23.3580 C   0  0  0  0  0  0  0  0  0  0  0  0
  -27.2150  -27.6820   20.2220 C   0  0  0  0  0  0  0  0  0  0  0  0
  -23.3320  -30.6520   21.6850 C   0  0  0  0  0  3  0  0  0  0  0  0
  -24.8100  -29.1610   20.2350 C   0  0  0  0  0  0  0  0  0  0  0  0
  -25.8530  -31.0470   21.5030 C   0  0  0  0  0  2  0  0  0  0  0  0
  -25.9590  -29.6880   20.8400 C   0  0  0  0  0  0  0  0  0  0  0  0
  -27.1680  -28.9550   20.8350 C   0  0  0  0  0  3  0  0  0  0  0  0
  -26.0590  -27.1750   19.5950 C   0  0  0  0  0  3  0  0  0  0  0  0
  -24.8550  -27.9030   19.6070 C   0  0  0  0  0  3  0  0  0  0  0  0
  -23.5560  -30.0030   20.2920 C   0  0  0  0  0  2  0  0  0  0  0  0
  -24.5850  -31.2590   22.2420 N   0  0  0  0  0  0  0  0  0  0  0  0
  -23.4300  -32.2860   23.9010 O   0  0  0  0  0  0  0  0  0  0  0  0
  -22.6880  -29.6060   22.6240 C   0  0  0  0  0  0  0  0  0  0  0  0
  -21.3710  -29.3950   22.4720 N   0  0  0  0  0  0  0  0  0  0  0  0
  -23.3700  -28.9890   23.4450 O   0  0  0  0  0  0  0  0  0  0  0  0
  -20.8800  -29.9460   21.7820 H   0  0  0  0  0  0  0  0  0  0  0  0
  -18.0200  -28.1030   22.8750 C   0  0  0  0  0  0  0  0  0  0  0  0
  -20.5600  -28.4330   23.2200 C   0  0  0  0  0  3  0  0  0  0  0  0
  -20.7200  -27.0050   22.6470 C   0  0  0  0  0  2  0  0  0  0  0  0
  -19.6580  -26.6550   21.6000 C   0  0  0  0  0  2  0  0  0  0  0  0
  -18.2540  -26.7600   22.2020 C   0  0  0  0  0  2  0  0  0  0  0  0
  -19.1030  -28.8950   23.3380 C   0  0  0  0  0  0  0  0  0  0  0  0
  -18.8320  -30.1510   23.9230 C   0  0  0  0  0  3  0  0  0  0  0  0
  -17.5090  -30.6150   24.0510 C   0  0  0  0  0  3  0  0  0  0  0  0
  -16.4390  -29.8190   23.6060 C   0  0  0  0  0  3  0  0  0  0  0  0
  -16.6940  -28.5650   23.0230 C   0  0  0  0  0  3  0  0  0  0  0  0
  -25.7930  -32.6690   23.9950 C   0  0  0  0  0  3  0  0  0  0  0  0
  -25.4770  -34.0650   24.3270 N   0  0  0  0  0  0  0  0  0  0  0  0
  -25.8150  -35.1200   23.5730 C   0  0  0  0  0  0  0  0  0  0  0  0
  -26.4960  -35.0220   22.5500 O   0  0  0  0  0  0  0  0  0  0  0  0
  -24.8770  -34.2140   25.1240 H   0  0  0  0  0  0  0  0  0  0  0  0
  -24.0840  -36.9060   23.2030 C   0  0  0  0  0  1  0  0  0  0  0  0
  -25.3160  -36.5050   24.0290 C   0  0  0  0  0  3  0  0  0  0  0  0
  -27.4410  -37.3920   24.8810 C   0  0  0  0  0  1  0  0  0  0  0  0
  -26.3430  -37.5650   23.9340 N   0  0  0  0  0  0  0  0  0  0  0  0
  -25.9310  -38.4800   24.0930 H   0  0  0  0  0  0  0  0  0  0  0  0
  -26.3010  -31.8930   25.2710 C   0  0  1  0  0  0  0  0  0  0  0  0
  -25.1990  -31.6380   26.3270 C   0  0  0  0  0  1  0  0  0  0  0  0
  -26.8980  -30.5230   24.8710 C   0  0  0  0  0  1  0  0  0  0  0  0
  -27.4380  -32.6900   25.9530 C   0  0  0  0  0  1  0  0  0  0  0  0
  2 59  1  0
  2  1  1  0
  3  1  2  0
  3 55  1  0
  4  5  1  0
  4  2  2  0
  5  3  1  0
  6  7  1  0
  8 10  1  0
  9  6  2  0
 10  5  1  0
 10  7  2  0
 11  9  1  0
 11  8  2  0
 12 11  1  0
 13 52  1  0
 13  9  1  0
 13 22  1  0
 14 22  1  0
 15 20  1  0
 16 17  1  0
 16 15  1  0
 18 17  1  0
 18 27  1  0
 18 19  1  0
 20 14  1  0
 20 19  1  0
 21 14  2  0
 22 23  1  0
 24 25  2  0
 25 44  1  0
 26 25  1  0
 26 29  1  0
 27 28  1  0
 27 24  1  0
 28 26  2  0
 29 30  1  0
 30 31  2  0
 32 35  1  0
 32 31  1  0
 33 32  2  0
 34 33  1  0
 34 29  2  0
 35 36  1  0
 36 37  1  0
 37 38  2  0
 39 38  1  0
 39 43  1  0
 40 39  2  0
 41 36  2  0
 41 40  1  0
 42 41  1  0
 44 45  1  0
 45 48  1  0
 45 47  1  0
 46 44  2  0
 49 50  1  0
 49 24  1  0
 51 49  1  0
 53 54  1  0
 54 52  1  0
 55 56  1  0
 57 58  1  0
 57  4  1  0
 60 59  1  0
 61 72  2  0
 62 60  1  0
 62 67  1  0
 63 71  1  0
 63 73  1  0
 64 70  1  0
 64 66  1  0
 65 71  1  0
 66 65  1  0
 67 66  2  0
 68 69  1  0
 68 62  2  0
 69 64  2  0
 70 63  1  0
 71 61  1  0
 73 75  2  0
 74 73  1  0
 76 74  1  0
 77 86  2  0
 77 82  1  0
 78 74  1  0
 78 82  1  0
 79 78  1  0
 80 81  1  0
 80 79  1  0
 81 77  1  0
 82 83  2  0
 83 84  1  0
 85 84  2  0
 86 85  1  0
 87 61  1  0
 87 88  1  0
 87 97  1  0
 88 91  1  0
 89 93  1  0
 89 88  1  0
 90 89  2  0
 93 92  1  0
 95 93  1  0
 95 96  1  0
 95 94  1  0
 97100  1  1
 97 98  1  0
 99 97  1  0
M  ISO  4  14 100  22 100  59 101  60 101
M  END
>  <TORSDO>  (35) 
F 23

>  <SCORE>  (35) 
-11.790

>  <name>  (35) 
34

>  <ligand_id>  (35) 
34

>  <original_smiles>  (35) 
[H]Oc1c([H])c(C([H])([H])Oc2c([H])c([H])c3c(c2[H])C([H])([H])N(C(=O)C([H])(N([H])C(=O)C([H])(N([H])C([H])([H])[H])C([H])([H])[H])C(C([H])([H])[H])(C([H])([H])[H])C([H])([H])[H])C([H])(C(=O)N([H])C2([H])c4c([H])c([H])c([H])c([H])c4C([H])([H])C([H])([H])C2([H])[H])C3([H])[H])c(O[H])n1-c1c([H])c([H])c(C([H])(N([H])C(=O)N2C([H])([H])C([H])([H])C([H])([H])C([H])(n3nc(-c4c([H])c([H])c(Oc5c([H])c([H])c(F)c([H])c5F)c([H])c4[H])c(C(=O)N([H])[H])c3N([H])[H])C2([H])[H])C([H])([H])C([H])([H])C([H])([H])[H])c(F)c1[H]

>  <smiles>  (35) 
[H]Oc1c([H])c(C([H])([H])Oc2c([H])c([H])c3c(c2[H])C([H])([H])N(C(=O)C([H])(N([H])C(=O)C([H])(N([H])C([H])([H])[H])C([H])([H])[H])C(C([H])([H])[H])(C([H])([H])[H])C([H])([H])[H])C([H])(C(=O)N([H])C2([H])c4c([H])c([H])c([H])c([H])c4C([H])([H])C([H])([H])C2([H])[H])C3([H])[H])c(O[H])n1-c1c([H])c([H])c(C([H])(N([H])C(=O)N2C([H])([H])C([H])([H])C([H])([H])C([H])(n3nc(-c4c([H])c([H])c(Oc5c([H])c([H])c(F)c([H])c5F)c([H])c4[H])c(C(=O)N([H])[H])c3N([H])[H])C2([H])[H])C([H])([H])C([H])([H])C([H])([H])[H])c(F)c1[H]

$$$$
35:0:0
     RDKit          3D

 96105  0  0  1  0  0  0  0  0999 V2000
  -29.1520  -23.5450   18.7050 C   0  0  0  0  0  3  0  0  0  0  0  0
  -28.7340  -23.7220   20.0570 C   0  0  0  0  0  0  0  0  0  0  0  0
  -29.4990  -22.2280   18.5010 C   0  0  0  0  0  0  0  0  0  0  0  0
  -28.8800  -22.4370   20.5970 C   0  0  0  0  0  0  0  0  0  0  0  0
  -29.3470  -21.4690   19.6650 N   0  0  0  0  0  0  0  0  0  0  0  0
  -30.7390  -19.3540   19.2680 C   0  0  0  0  0  3  0  0  0  0  0  0
  -30.9860  -17.9480   19.4120 C   0  0  0  0  0  3  0  0  0  0  0  0
  -28.7180  -19.1470   20.5220 C   0  0  0  0  0  3  0  0  0  0  0  0
  -29.6030  -20.0160   19.8260 C   0  0  0  0  0  0  0  0  0  0  0  0
  -30.1220  -17.0910   20.1530 C   0  0  0  0  0  0  0  0  0  0  0  0
  -28.9660  -17.7470   20.6820 C   0  0  0  0  0  0  0  0  0  0  0  0
  -28.0480  -17.0240   21.3690 F   0  0  0  0  0  0  0  0  0  0  0  0
  -30.8700  -14.6630   19.6430 C   0  0  0  0  0  0  0  0  0  0  0  0
  -30.4360  -12.4800   18.4930 C   0  0  0  0  0  2  0  0  0  0  0  0
  -29.3500  -12.6560   17.4100 C   0  0  0  0  0  2  0  0  0  0  0  0
  -27.9420  -12.4950   18.0140 C   0  0  0  0  0  2  0  0  0  0  0  0
  -27.7610  -13.3130   19.3190 C   0  0  0  0  0  3  0  0  0  0  0  0
  -28.9460  -13.1060   20.2850 C   0  0  0  0  0  2  0  0  0  0  0  0
  -30.1800  -13.4690   19.5670 N   0  0  0  0  0  0  0  0  0  0  0  0
  -31.8950  -14.8230   18.9730 O   0  0  0  0  0  0  0  0  0  0  0  0
  -30.6810  -15.4160   21.9060 C   0  0  0  0  0  1  0  0  0  0  0  0
  -30.4070  -15.6660   20.4800 N   0  0  0  0  0  0  0  0  0  0  0  0
  -25.5180  -13.9200   20.4120 C   0  0  0  0  0  0  0  0  0  0  0  0
  -24.4770  -13.1530   20.8610 C   0  0  0  0  0  0  0  0  0  0  0  0
  -24.8690  -11.7950   20.6540 C   0  0  0  0  0  0  0  0  0  0  0  0
  -26.4790  -13.0310   19.9610 N   0  0  0  0  0  0  0  0  0  0  0  0
  -26.1020  -11.7410   20.1640 N   0  0  0  0  0  0  0  0  0  0  0  0
  -24.1190  -10.5460   20.8390 C   0  0  0  0  0  0  0  0  0  0  0  0
  -24.5610   -9.5420   21.7280 C   0  0  0  0  0  3  0  0  0  0  0  0
  -23.8100   -8.3600   21.9030 C   0  0  0  0  0  3  0  0  0  0  0  0
  -22.6020   -8.1730   21.1890 C   0  0  0  0  0  0  0  0  0  0  0  0
  -22.1790   -9.1650   20.2870 C   0  0  0  0  0  3  0  0  0  0  0  0
  -22.9300  -10.3390   20.1100 C   0  0  0  0  0  3  0  0  0  0  0  0
  -21.8220   -7.0450   21.2740 O   0  0  0  0  0  0  0  0  0  0  0  0
  -21.7050   -6.3370   22.4430 C   0  0  0  0  0  0  0  0  0  0  0  0
  -21.2260   -6.9320   23.6310 C   0  0  0  0  0  3  0  0  0  0  0  0
  -21.0570   -6.1510   24.7910 C   0  0  0  0  0  3  0  0  0  0  0  0
  -21.3560   -4.7770   24.7650 C   0  0  0  0  0  0  0  0  0  0  0  0
  -21.8280   -4.1800   23.5820 C   0  0  0  0  0  3  0  0  0  0  0  0
  -21.9990   -4.9590   22.4240 C   0  0  0  0  0  0  0  0  0  0  0  0
  -22.4330   -4.3750   21.2810 F   0  0  0  0  0  0  0  0  0  0  0  0
  -21.1880   -4.0240   25.8780 F   0  0  0  0  0  0  0  0  0  0  0  0
  -23.1550  -13.6520   21.3690 C   0  0  0  0  0  0  0  0  0  0  0  0
  -22.5420  -12.9260   22.2960 N   0  0  0  0  0  0  0  0  0  0  0  0
  -22.6800  -14.7180   20.9770 O   0  0  0  0  0  0  0  0  0  0  0  0
  -22.9420  -12.0630   22.6330 H   0  0  0  0  0  0  0  0  0  0  0  0
  -21.6590  -13.2380   22.6760 H   0  0  0  0  0  0  0  0  0  0  0  0
  -25.7190  -15.2940   20.3300 N   0  0  0  0  0  0  0  0  0  0  0  0
  -25.0240  -15.9660   20.6290 H   0  0  0  0  0  0  0  0  0  0  0  0
  -26.5650  -15.7280   19.9810 H   0  0  0  0  0  0  0  0  0  0  0  0
  -29.9100  -21.6540   17.3360 O   0  0  0  0  0  0  0  0  0  0  0  0
  -29.9600  -22.3370   16.6750 H   0  0  0  0  0  0  0  0  0  0  0  0
  -28.6220  -22.0450   21.8770 O   0  0  0  0  0  0  0  0  0  0  0  0
  -28.3330  -22.8040   22.3710 H   0  0  0  0  0  0  0  0  0  0  0  0
  -28.1770  -25.0390   20.7370 C   0  0  0  0  0  2  0  0  0  0  0  0
  -28.3890  -26.3910   20.1510 O   0  0  0  0  0  0  0  0  0  0  0  0
  -24.4740  -31.7660   23.0390 C   0  0  0  0  0  0  0  0  0  0  0  0
  -27.2680  -27.2340   20.1080 C   0  0  0  0  0  0  0  0  0  0  0  0
  -23.3420  -30.3090   21.3960 C   0  0  0  0  0  3  0  0  0  0  0  0
  -24.8640  -28.7770   20.0220 C   0  0  0  0  0  0  0  0  0  0  0  0
  -25.8720  -30.6980   21.2530 C   0  0  0  0  0  2  0  0  0  0  0  0
  -26.0060  -29.3120   20.6320 C   0  0  0  0  0  0  0  0  0  0  0  0
  -27.2160  -28.5530   20.6620 C   0  0  0  0  0  3  0  0  0  0  0  0
  -26.1050  -26.7520   19.4750 C   0  0  0  0  0  3  0  0  0  0  0  0
  -24.9150  -27.5040   19.4340 C   0  0  0  0  0  3  0  0  0  0  0  0
  -23.6020  -29.6150   20.0330 C   0  0  0  0  0  2  0  0  0  0  0  0
  -24.5810  -30.9420   21.9540 N   0  0  0  0  0  0  0  0  0  0  0  0
  -23.3720  -32.0200   23.5480 O   0  0  0  0  0  0  0  0  0  0  0  0
  -22.6860  -29.2910   22.3600 C   0  0  0  0  0  0  0  0  0  0  0  0
  -21.3620  -29.1000   22.2310 N   0  0  0  0  0  0  0  0  0  0  0  0
  -23.3690  -28.6750   23.1810 O   0  0  0  0  0  0  0  0  0  0  0  0
  -20.8700  -29.6450   21.5360 H   0  0  0  0  0  0  0  0  0  0  0  0
  -17.9930  -27.8890   22.7530 C   0  0  0  0  0  0  0  0  0  0  0  0
  -20.5530  -28.1560   23.0030 C   0  0  0  0  0  3  0  0  0  0  0  0
  -20.6560  -26.7270   22.4210 C   0  0  0  0  0  2  0  0  0  0  0  0
  -19.5480  -26.4060   21.4140 C   0  0  0  0  0  2  0  0  0  0  0  0
  -18.1700  -26.5450   22.0680 C   0  0  0  0  0  2  0  0  0  0  0  0
  -19.1130  -28.6530   23.1780 C   0  0  0  0  0  0  0  0  0  0  0  0
  -18.8940  -29.9130   23.7770 C   0  0  0  0  0  3  0  0  0  0  0  0
  -17.5890  -30.4090   23.9550 C   0  0  0  0  0  3  0  0  0  0  0  0
  -16.4840  -29.6410   23.5470 C   0  0  0  0  0  3  0  0  0  0  0  0
  -16.6870  -28.3820   22.9520 C   0  0  0  0  0  3  0  0  0  0  0  0
  -25.7260  -32.4430   23.6770 C   0  0  0  0  0  3  0  0  0  0  0  0
  -26.2790  -31.6670   24.9350 C   0  0  1  0  0  0  0  0  0  0  0  0
  -25.1990  -31.3480   25.9960 C   0  0  0  0  0  1  0  0  0  0  0  0
  -26.9310  -30.3310   24.5130 C   0  0  0  0  0  1  0  0  0  0  0  0
  -27.3930  -32.5000   25.6130 C   0  0  0  0  0  1  0  0  0  0  0  0
  -25.3530  -33.8170   24.0400 N   0  0  0  0  0  0  0  0  0  0  0  0
  -25.6200  -34.9000   23.2970 C   0  0  0  0  0  0  0  0  0  0  0  0
  -26.2750  -34.8490   22.2520 O   0  0  0  0  0  0  0  0  0  0  0  0
  -24.7710  -33.9300   24.8570 H   0  0  0  0  0  0  0  0  0  0  0  0
  -23.7950  -36.6080   23.0090 C   0  0  0  0  0  1  0  0  0  0  0  0
  -25.0710  -36.2530   23.7890 C   0  0  0  0  0  3  0  0  0  0  0  0
  -27.1750  -37.2320   24.5940 C   0  0  0  0  0  1  0  0  0  0  0  0
  -26.0470  -37.3610   23.6750 N   0  0  0  0  0  0  0  0  0  0  0  0
  -25.5960  -38.2550   23.8520 H   0  0  0  0  0  0  0  0  0  0  0  0
  1  2  1  0
  2  4  2  0
  2 55  1  0
  3  1  2  0
  3  5  1  0
  4 53  1  0
  5  9  1  0
  5  4  1  0
  6  7  2  0
  6  9  1  0
  7 10  1  0
  8 11  1  0
  9  8  2  0
 10 22  1  0
 10 11  2  0
 11 12  1  0
 13 22  1  0
 14 19  1  0
 15 16  1  0
 15 14  1  0
 17 16  1  0
 17 26  1  0
 17 18  1  0
 19 13  1  0
 19 18  1  0
 20 13  2  0
 22 21  1  0
 23 24  2  0
 24 43  1  0
 25 28  1  0
 25 24  1  0
 26 27  1  0
 26 23  1  0
 27 25  2  0
 28 29  1  0
 29 30  2  0
 31 34  1  0
 31 30  1  0
 32 31  2  0
 33 32  1  0
 33 28  2  0
 34 35  1  0
 35 36  1  0
 36 37  2  0
 38 37  1  0
 38 42  1  0
 39 38  2  0
 40 35  2  0
 40 39  1  0
 41 40  1  0
 43 44  1  0
 44 46  1  0
 44 47  1  0
 45 43  2  0
 48 23  1  0
 48 49  1  0
 50 48  1  0
 51  3  1  0
 52 51  1  0
 53 54  1  0
 56 55  1  0
 57 68  2  0
 58 56  1  0
 58 63  1  0
 59 67  1  0
 59 69  1  0
 60 66  1  0
 60 62  1  0
 61 67  1  0
 62 63  2  0
 62 61  1  0
 64 58  2  0
 65 64  1  0
 65 60  2  0
 66 59  1  0
 67 57  1  0
 69 71  2  0
 70 69  1  0
 72 70  1  0
 73 82  2  0
 73 78  1  0
 74 70  1  0
 74 78  1  0
 75 74  1  0
 76 77  1  0
 76 75  1  0
 77 73  1  0
 78 79  2  0
 79 80  1  0
 81 80  2  0
 82 81  1  0
 83 57  1  0
 83 88  1  0
 83 84  1  0
 84 87  1  1
 84 85  1  0
 86 84  1  0
 88 91  1  0
 89 93  1  0
 89 88  1  0
 90 89  2  0
 93 92  1  0
 95 93  1  0
 95 96  1  0
 95 94  1  0
M  ISO  4  13 100  22 100  55 101  56 101
M  END
>  <TORSDO>  (36) 
F 20

>  <SCORE>  (36) 
-13.100

>  <name>  (36) 
35

>  <ligand_id>  (36) 
35

>  <original_smiles>  (36) 
[H]Oc1c([H])c(C([H])([H])Oc2c([H])c([H])c3c(c2[H])C([H])([H])N(C(=O)C([H])(N([H])C(=O)C([H])(N([H])C([H])([H])[H])C([H])([H])[H])C(C([H])([H])[H])(C([H])([H])[H])C([H])([H])[H])C([H])(C(=O)N([H])C2([H])c4c([H])c([H])c([H])c([H])c4C([H])([H])C([H])([H])C2([H])[H])C3([H])[H])c(O[H])n1-c1c([H])c([H])c(N(C(=O)N2C([H])([H])C([H])([H])C([H])([H])C([H])(n3nc(-c4c([H])c([H])c(Oc5c([H])c([H])c(F)c([H])c5F)c([H])c4[H])c(C(=O)N([H])[H])c3N([H])[H])C2([H])[H])C([H])([H])[H])c(F)c1[H]

>  <smiles>  (36) 
[H]Oc1c([H])c(C([H])([H])Oc2c([H])c([H])c3c(c2[H])C([H])([H])N(C(=O)C([H])(N([H])C(=O)C([H])(N([H])C([H])([H])[H])C([H])([H])[H])C(C([H])([H])[H])(C([H])([H])[H])C([H])([H])[H])C([H])(C(=O)N([H])C2([H])c4c([H])c([H])c([H])c([H])c4C([H])([H])C([H])([H])C2([H])[H])C3([H])[H])c(O[H])n1-c1c([H])c([H])c(N(C(=O)N2C([H])([H])C([H])([H])C([H])([H])C([H])(n3nc(-c4c([H])c([H])c(Oc5c([H])c([H])c(F)c([H])c5F)c([H])c4[H])c(C(=O)N([H])[H])c3N([H])[H])C2([H])[H])C([H])([H])[H])c(F)c1[H]

$$$$
36:0:0
     RDKit          3D

 93102  0  0  1  0  0  0  0  0999 V2000
  -30.7580  -22.3320   19.4690 C   0  0  0  0  0  0  0  0  0  0  0  0
  -30.4060  -23.8250   19.4490 C   0  0  0  0  0  2  0  0  0  0  0  0
  -28.6850  -22.4670   20.4120 C   0  0  0  0  0  2  0  0  0  0  0  0
  -29.1840  -23.9630   20.3580 C   0  0  0  0  0  3  0  0  0  0  0  0
  -29.8170  -21.5640   20.0670 N   0  0  0  0  0  0  0  0  0  0  0  0
  -31.8070  -21.9400   18.9510 O   0  0  0  0  0  0  0  0  0  0  0  0
  -31.0370  -19.3130   20.1850 C   0  0  0  0  0  3  0  0  0  0  0  0
  -31.0600  -17.8890   20.2810 C   0  0  0  0  0  3  0  0  0  0  0  0
  -28.6700  -17.9000   20.4830 C   0  0  0  0  0  3  0  0  0  0  0  0
  -29.8340  -20.0870   20.2070 C   0  0  0  0  0  0  0  0  0  0  0  0
  -29.8680  -17.1350   20.4240 C   0  0  0  0  0  0  0  0  0  0  0  0
  -28.6460  -19.3220   20.3770 C   0  0  0  0  0  0  0  0  0  0  0  0
  -27.4410  -19.9400   20.4270 F   0  0  0  0  0  0  0  0  0  0  0  0
  -30.5740  -14.6500   20.0720 C   0  0  0  0  0  0  0  0  0  0  0  0
  -30.2930  -12.4560   18.9360 C   0  0  0  0  0  2  0  0  0  0  0  0
  -29.2760  -12.6390   17.7870 C   0  0  0  0  0  2  0  0  0  0  0  0
  -27.8290  -12.4720   18.2970 C   0  0  0  0  0  2  0  0  0  0  0  0
  -27.5560  -13.2910   19.5870 C   0  0  0  0  0  3  0  0  0  0  0  0
  -28.6760  -13.0740   20.6290 C   0  0  0  0  0  2  0  0  0  0  0  0
  -29.9540  -13.4310   19.9910 N   0  0  0  0  0  0  0  0  0  0  0  0
  -31.7070  -14.8250   19.6120 O   0  0  0  0  0  0  0  0  0  0  0  0
  -29.7900  -15.6750   20.5330 N   0  0  0  0  0  0  0  0  0  0  0  0
  -28.9080  -15.3350   20.8850 H   0  0  0  0  0  0  0  0  0  0  0  0
  -25.2130  -13.8890   20.4590 C   0  0  0  0  0  0  0  0  0  0  0  0
  -24.1620  -13.1140   20.8710 C   0  0  0  0  0  0  0  0  0  0  0  0
  -24.6090  -11.7610   20.7720 C   0  0  0  0  0  0  0  0  0  0  0  0
  -26.2330  -13.0070   20.1380 N   0  0  0  0  0  0  0  0  0  0  0  0
  -25.8780  -11.7210   20.3850 N   0  0  0  0  0  0  0  0  0  0  0  0
  -23.8830  -10.4990   20.9660 C   0  0  0  0  0  0  0  0  0  0  0  0
  -24.3310   -9.5230   21.8830 C   0  0  0  0  0  3  0  0  0  0  0  0
  -23.6070   -8.3250   22.0650 C   0  0  0  0  0  3  0  0  0  0  0  0
  -22.4200   -8.0950   21.3290 C   0  0  0  0  0  0  0  0  0  0  0  0
  -21.9920   -9.0590   20.4000 C   0  0  0  0  0  3  0  0  0  0  0  0
  -22.7160  -10.2490   20.2150 C   0  0  0  0  0  3  0  0  0  0  0  0
  -21.6660   -6.9510   21.4210 O   0  0  0  0  0  0  0  0  0  0  0  0
  -21.5920   -6.2290   22.5860 C   0  0  0  0  0  0  0  0  0  0  0  0
  -21.1160   -6.7990   23.7860 C   0  0  0  0  0  3  0  0  0  0  0  0
  -20.9920   -6.0020   24.9430 C   0  0  0  0  0  3  0  0  0  0  0  0
  -21.3340   -4.6370   24.8980 C   0  0  0  0  0  0  0  0  0  0  0  0
  -21.8020   -4.0670   23.7010 C   0  0  0  0  0  3  0  0  0  0  0  0
  -21.9280   -4.8610   22.5470 C   0  0  0  0  0  0  0  0  0  0  0  0
  -22.3610   -4.3020   21.3910 F   0  0  0  0  0  0  0  0  0  0  0  0
  -21.2070   -3.8690   26.0050 F   0  0  0  0  0  0  0  0  0  0  0  0
  -22.7880  -13.5930   21.2400 C   0  0  0  0  0  0  0  0  0  0  0  0
  -22.1070  -12.8780   22.1280 N   0  0  0  0  0  0  0  0  0  0  0  0
  -22.3300  -14.6360   20.7760 O   0  0  0  0  0  0  0  0  0  0  0  0
  -22.4930  -12.0340   22.5260 H   0  0  0  0  0  0  0  0  0  0  0  0
  -21.1860  -13.1790   22.4160 H   0  0  0  0  0  0  0  0  0  0  0  0
  -25.3770  -15.2630   20.3080 N   0  0  0  0  0  0  0  0  0  0  0  0
  -24.6090  -15.9090   20.4560 H   0  0  0  0  0  0  0  0  0  0  0  0
  -26.1760  -15.6950   19.8620 H   0  0  0  0  0  0  0  0  0  0  0  0
  -28.1240  -25.0620   19.9240 C   0  0  0  0  0  2  0  0  0  0  0  0
  -28.3690  -26.5050   20.1400 O   0  0  0  0  0  0  0  0  0  0  0  0
  -24.6270  -31.8520   23.2150 C   0  0  0  0  0  0  0  0  0  0  0  0
  -27.2510  -27.3540   20.0920 C   0  0  0  0  0  0  0  0  0  0  0  0
  -23.4280  -30.4810   21.5490 C   0  0  0  0  0  3  0  0  0  0  0  0
  -24.8820  -28.9600   20.1030 C   0  0  0  0  0  0  0  0  0  0  0  0
  -25.9680  -30.8060   21.3780 C   0  0  0  0  0  2  0  0  0  0  0  0
  -26.0500  -29.4400   20.7100 C   0  0  0  0  0  0  0  0  0  0  0  0
  -27.2370  -28.6490   20.6950 C   0  0  0  0  0  3  0  0  0  0  0  0
  -26.0580  -26.9320   19.4570 C   0  0  0  0  0  3  0  0  0  0  0  0
  -24.8880  -27.7110   19.4680 C   0  0  0  0  0  3  0  0  0  0  0  0
  -23.6440  -29.8300   20.1600 C   0  0  0  0  0  2  0  0  0  0  0  0
  -24.6940  -31.0620   22.1050 N   0  0  0  0  0  0  0  0  0  0  0  0
  -23.5420  -32.1220   23.7500 O   0  0  0  0  0  0  0  0  0  0  0  0
  -22.7630  -29.4480   22.4890 C   0  0  0  0  0  0  0  0  0  0  0  0
  -21.4360  -29.2810   22.3610 N   0  0  0  0  0  0  0  0  0  0  0  0
  -23.4390  -28.8000   23.2920 O   0  0  0  0  0  0  0  0  0  0  0  0
  -20.9500  -29.8550   21.6850 H   0  0  0  0  0  0  0  0  0  0  0  0
  -18.0470  -28.1210   22.8620 C   0  0  0  0  0  0  0  0  0  0  0  0
  -20.6110  -28.3360   23.1150 C   0  0  0  0  0  3  0  0  0  0  0  0
  -20.6870  -26.9190   22.5020 C   0  0  0  0  0  2  0  0  0  0  0  0
  -19.5700  -26.6380   21.4900 C   0  0  0  0  0  2  0  0  0  0  0  0
  -18.1970  -26.7880   22.1510 C   0  0  0  0  0  2  0  0  0  0  0  0
  -19.1800  -28.8560   23.3020 C   0  0  0  0  0  0  0  0  0  0  0  0
  -18.9850  -30.1060   23.9280 C   0  0  0  0  0  3  0  0  0  0  0  0
  -17.6890  -30.6220   24.1180 C   0  0  0  0  0  3  0  0  0  0  0  0
  -16.5700  -29.8840   23.6960 C   0  0  0  0  0  3  0  0  0  0  0  0
  -16.7490  -28.6360   23.0730 C   0  0  0  0  0  3  0  0  0  0  0  0
  -25.9080  -32.4730   23.8530 C   0  0  0  0  0  3  0  0  0  0  0  0
  -25.6000  -33.8680   24.1960 N   0  0  0  0  0  0  0  0  0  0  0  0
  -25.9190  -34.9260   23.4390 C   0  0  0  0  0  0  0  0  0  0  0  0
  -26.5730  -34.8310   22.3970 O   0  0  0  0  0  0  0  0  0  0  0  0
  -25.0150  -34.0150   25.0050 H   0  0  0  0  0  0  0  0  0  0  0  0
  -24.1720  -36.7120   23.1350 C   0  0  0  0  0  1  0  0  0  0  0  0
  -25.4360  -36.3110   23.9140 C   0  0  0  0  0  3  0  0  0  0  0  0
  -27.5820  -37.2080   24.7000 C   0  0  0  0  0  1  0  0  0  0  0  0
  -26.4600  -37.3700   23.7780 N   0  0  0  0  0  0  0  0  0  0  0  0
  -26.0520  -38.2880   23.9340 H   0  0  0  0  0  0  0  0  0  0  0  0
  -26.4120  -31.6850   25.1230 C   0  0  1  0  0  0  0  0  0  0  0  0
  -25.3080  -31.4400   26.1800 C   0  0  0  0  0  1  0  0  0  0  0  0
  -26.9930  -30.3100   24.7190 C   0  0  0  0  0  1  0  0  0  0  0  0
  -27.5590  -32.4680   25.8030 C   0  0  0  0  0  1  0  0  0  0  0  0
  1  5  1  0
  2  1  1  0
  2  4  1  0
  4 52  1  0
  4  3  1  0
  5 10  1  0
  5  3  1  0
  6  1  2  0
  7 10  2  0
  7  8  1  0
  8 11  2  0
 10 12  1  0
 11  9  1  0
 11 22  1  0
 12 13  1  0
 12  9  2  0
 14 22  1  0
 15 20  1  0
 16 17  1  0
 16 15  1  0
 18 17  1  0
 18 27  1  0
 18 19  1  0
 20 14  1  0
 20 19  1  0
 21 14  2  0
 22 23  1  0
 24 25  2  0
 25 44  1  0
 26 25  1  0
 26 29  1  0
 27 28  1  0
 27 24  1  0
 28 26  2  0
 29 30  1  0
 30 31  2  0
 32 35  1  0
 32 31  1  0
 33 32  2  0
 34 33  1  0
 34 29  2  0
 35 36  1  0
 36 37  1  0
 37 38  2  0
 39 38  1  0
 39 43  1  0
 40 39  2  0
 41 36  2  0
 41 40  1  0
 42 41  1  0
 44 45  1  0
 45 48  1  0
 45 47  1  0
 46 44  2  0
 49 50  1  0
 49 24  1  0
 51 49  1  0
 52 53  1  0
 54 65  2  0
 55 53  1  0
 55 60  1  0
 56 64  1  0
 56 66  1  0
 57 63  1  0
 57 59  1  0
 58 64  1  0
 59 58  1  0
 60 59  2  0
 61 62  1  0
 61 55  2  0
 62 57  2  0
 63 56  1  0
 64 54  1  0
 66 68  2  0
 67 66  1  0
 69 67  1  0
 70 79  2  0
 70 75  1  0
 71 67  1  0
 71 75  1  0
 72 71  1  0
 73 74  1  0
 73 72  1  0
 74 70  1  0
 75 76  2  0
 76 77  1  0
 78 77  2  0
 79 78  1  0
 80 54  1  0
 80 81  1  0
 80 90  1  0
 81 84  1  0
 82 86  1  0
 82 81  1  0
 83 82  2  0
 86 85  1  0
 88 86  1  0
 88 89  1  0
 88 87  1  0
 90 93  1  1
 90 91  1  0
 92 90  1  0
M  ISO  4  14 100  22 100  52 101  53 101
M  END
>  <TORSDO>  (37) 
F 18

>  <SCORE>  (37) 
-14.681

>  <name>  (37) 
36

>  <ligand_id>  (37) 
36

>  <original_smiles>  (37) 
[H]c1c([H])c([H])c2c(c1[H])C([H])([H])C([H])([H])C([H])([H])C2([H])N([H])C(=O)C1([H])N(C(=O)C([H])(N([H])C(=O)C([H])(N([H])C([H])([H])[H])C([H])([H])[H])C(C([H])([H])[H])(C([H])([H])[H])C([H])([H])[H])C([H])([H])c2c([H])c(OC([H])([H])C3([H])C([H])([H])C(=O)N(c4c([H])c([H])c(N([H])C(=O)N5C([H])([H])C([H])([H])C([H])([H])C([H])(n6nc(-c7c([H])c([H])c(Oc8c([H])c([H])c(F)c([H])c8F)c([H])c7[H])c(C(=O)N([H])[H])c6N([H])[H])C5([H])[H])c([H])c4F)C3([H])[H])c([H])c([H])c2C1([H])[H]

>  <smiles>  (37) 
[H]c1c([H])c([H])c2c(c1[H])C([H])([H])C([H])([H])C([H])([H])C2([H])N([H])C(=O)C1([H])N(C(=O)C([H])(N([H])C(=O)C([H])(N([H])C([H])([H])[H])C([H])([H])[H])C(C([H])([H])[H])(C([H])([H])[H])C([H])([H])[H])C([H])([H])c2c([H])c(OC([H])([H])C3([H])C([H])([H])C(=O)N(c4c([H])c([H])c(N([H])C(=O)N5C([H])([H])C([H])([H])C([H])([H])C([H])(n6nc(-c7c([H])c([H])c(Oc8c([H])c([H])c(F)c([H])c8F)c([H])c7[H])c(C(=O)N([H])[H])c6N([H])[H])C5([H])[H])c([H])c4F)C3([H])[H])c([H])c([H])c2C1([H])[H]

$$$$
37:0:0
     RDKit          3D

 95104  0  0  1  0  0  0  0  0999 V2000
  -29.6530  -22.1260   21.6960 C   0  0  0  0  0  0  0  0  0  0  0  0
  -29.2690  -23.6130   21.5740 C   0  0  0  0  0  2  0  0  0  0  0  0
  -29.6260  -22.5520   19.4540 C   0  0  0  0  0  2  0  0  0  0  0  0
  -28.8650  -23.7900   20.1050 C   0  0  0  0  0  3  0  0  0  0  0  0
  -29.7730  -21.5020   20.5020 N   0  0  0  0  0  0  0  0  0  0  0  0
  -29.8390  -21.6000   22.7980 O   0  0  0  0  0  0  0  0  0  0  0  0
  -31.2380  -19.4650   19.8750 C   0  0  0  0  0  3  0  0  0  0  0  0
  -31.4700  -18.0440   19.9150 C   0  0  0  0  0  3  0  0  0  0  0  0
  -29.0340  -19.1150   20.7370 C   0  0  0  0  0  3  0  0  0  0  0  0
  -30.0230  -20.0500   20.3390 C   0  0  0  0  0  0  0  0  0  0  0  0
  -30.5020  -17.1090   20.4000 C   0  0  0  0  0  0  0  0  0  0  0  0
  -29.2480  -17.7070   20.7520 C   0  0  0  0  0  0  0  0  0  0  0  0
  -31.1440  -14.7060   19.7070 C   0  0  0  0  0  0  0  0  0  0  0  0
  -30.6660  -12.5460   18.5450 C   0  0  0  0  0  2  0  0  0  0  0  0
  -29.6030  -12.7460   17.4440 C   0  0  0  0  0  2  0  0  0  0  0  0
  -28.1820  -12.6270   18.0240 C   0  0  0  0  0  2  0  0  0  0  0  0
  -28.0030  -13.4530   19.3240 C   0  0  0  0  0  3  0  0  0  0  0  0
  -29.1640  -13.2170   20.3140 C   0  0  0  0  0  2  0  0  0  0  0  0
  -30.4190  -13.5380   19.6160 N   0  0  0  0  0  0  0  0  0  0  0  0
  -32.1520  -14.8660   19.0150 O   0  0  0  0  0  0  0  0  0  0  0  0
  -31.1100  -15.2690   22.0150 C   0  0  0  0  0  1  0  0  0  0  0  0
  -30.7580  -15.6580   20.6320 N   0  0  0  0  0  0  0  0  0  0  0  0
  -25.7290  -14.1210   20.3220 C   0  0  0  0  0  0  0  0  0  0  0  0
  -24.6660  -13.3780   20.7610 C   0  0  0  0  0  0  0  0  0  0  0  0
  -25.0520  -12.0120   20.6120 C   0  0  0  0  0  0  0  0  0  0  0  0
  -26.6990  -13.2070   19.9370 N   0  0  0  0  0  0  0  0  0  0  0  0
  -26.3000  -11.9290   20.1690 N   0  0  0  0  0  0  0  0  0  0  0  0
  -24.2820  -10.7770   20.8240 C   0  0  0  0  0  0  0  0  0  0  0  0
  -24.7160   -9.7820   21.7270 C   0  0  0  0  0  3  0  0  0  0  0  0
  -23.9500   -8.6120   21.9250 C   0  0  0  0  0  3  0  0  0  0  0  0
  -22.7360   -8.4300   21.2200 C   0  0  0  0  0  0  0  0  0  0  0  0
  -22.3200   -9.4160   20.3100 C   0  0  0  0  0  3  0  0  0  0  0  0
  -23.0840  -10.5780   20.1100 C   0  0  0  0  0  3  0  0  0  0  0  0
  -21.9380   -7.3150   21.3310 O   0  0  0  0  0  0  0  0  0  0  0  0
  -21.8420   -6.6100   22.5030 C   0  0  0  0  0  0  0  0  0  0  0  0
  -21.4430   -7.2240   23.7100 C   0  0  0  0  0  3  0  0  0  0  0  0
  -21.2890   -6.4500   24.8770 C   0  0  0  0  0  3  0  0  0  0  0  0
  -21.5230   -5.0620   24.8390 C   0  0  0  0  0  0  0  0  0  0  0  0
  -21.9150   -4.4470   23.6370 C   0  0  0  0  0  3  0  0  0  0  0  0
  -22.0720   -5.2190   22.4710 C   0  0  0  0  0  0  0  0  0  0  0  0
  -22.4250   -4.6170   21.3100 F   0  0  0  0  0  0  0  0  0  0  0  0
  -21.3710   -4.3170   25.9580 F   0  0  0  0  0  0  0  0  0  0  0  0
  -23.3340  -13.9050   21.2100 C   0  0  0  0  0  0  0  0  0  0  0  0
  -22.6940  -13.2210   22.1540 N   0  0  0  0  0  0  0  0  0  0  0  0
  -22.8760  -14.9580   20.7650 O   0  0  0  0  0  0  0  0  0  0  0  0
  -23.0800  -12.3670   22.5230 H   0  0  0  0  0  0  0  0  0  0  0  0
  -21.8070  -13.5500   22.5030 H   0  0  0  0  0  0  0  0  0  0  0  0
  -25.9440  -15.4900   20.2000 N   0  0  0  0  0  0  0  0  0  0  0  0
  -25.2550  -16.1730   20.4930 H   0  0  0  0  0  0  0  0  0  0  0  0
  -26.8420  -15.9070   19.9840 H   0  0  0  0  0  0  0  0  0  0  0  0
  -28.1560  -16.9170   21.1130 N   0  0  0  0  0  0  0  0  0  0  0  0
  -28.3390  -15.9510   21.3430 H   0  0  0  0  0  0  0  0  0  0  0  0
  -27.4350  -17.3260   21.6960 H   0  0  0  0  0  0  0  0  0  0  0  0
  -29.0550  -25.2410   19.4410 C   0  0  0  0  0  2  0  0  0  0  0  0
  -28.7670  -26.5190   20.1450 O   0  0  0  0  0  0  0  0  0  0  0  0
  -24.5740  -31.6070   23.0430 C   0  0  0  0  0  0  0  0  0  0  0  0
  -27.5790  -27.2620   20.0230 C   0  0  0  0  0  0  0  0  0  0  0  0
  -23.5230  -30.1600   21.3380 C   0  0  0  0  0  3  0  0  0  0  0  0
  -25.1160  -28.7240   19.9430 C   0  0  0  0  0  0  0  0  0  0  0  0
  -26.0420  -30.6400   21.2540 C   0  0  0  0  0  2  0  0  0  0  0  0
  -26.2280  -29.2790   20.5880 C   0  0  0  0  0  0  0  0  0  0  0  0
  -27.4610  -28.5590   20.6130 C   0  0  0  0  0  3  0  0  0  0  0  0
  -26.4360  -26.7500   19.3690 C   0  0  0  0  0  3  0  0  0  0  0  0
  -25.2200  -27.4640   19.3280 C   0  0  0  0  0  3  0  0  0  0  0  0
  -23.8310  -29.5240   19.9560 C   0  0  0  0  0  2  0  0  0  0  0  0
  -24.7270  -30.8250   21.9320 N   0  0  0  0  0  0  0  0  0  0  0  0
  -23.4560  -31.8040   23.5410 O   0  0  0  0  0  0  0  0  0  0  0  0
  -22.8940  -29.0910   22.2610 C   0  0  0  0  0  0  0  0  0  0  0  0
  -21.5830  -28.8420   22.0990 N   0  0  0  0  0  0  0  0  0  0  0  0
  -23.5830  -28.4900   23.0900 O   0  0  0  0  0  0  0  0  0  0  0  0
  -21.0820  -29.3870   21.4110 H   0  0  0  0  0  0  0  0  0  0  0  0
  -18.2610  -27.4550   22.4990 C   0  0  0  0  0  0  0  0  0  0  0  0
  -20.7970  -27.8420   22.8260 C   0  0  0  0  0  3  0  0  0  0  0  0
  -20.9850  -26.4330   22.2150 C   0  0  0  0  0  2  0  0  0  0  0  0
  -19.9220  -26.0810   21.1690 C   0  0  0  0  0  2  0  0  0  0  0  0
  -18.5220  -26.1370   21.7910 C   0  0  0  0  0  2  0  0  0  0  0  0
  -19.3300  -28.2640   22.9710 C   0  0  0  0  0  0  0  0  0  0  0  0
  -19.0350  -29.4950   23.5940 C   0  0  0  0  0  3  0  0  0  0  0  0
  -17.7040  -29.9220   23.7480 C   0  0  0  0  0  3  0  0  0  0  0  0
  -16.6480  -29.1140   23.2900 C   0  0  0  0  0  3  0  0  0  0  0  0
  -16.9270  -27.8820   22.6730 C   0  0  0  0  0  3  0  0  0  0  0  0
  -25.7880  -32.3110   23.7230 C   0  0  0  0  0  3  0  0  0  0  0  0
  -26.3220  -31.5440   24.9950 C   0  0  1  0  0  0  0  0  0  0  0  0
  -25.2200  -31.1720   26.0140 C   0  0  0  0  0  1  0  0  0  0  0  0
  -27.0410  -30.2390   24.5810 C   0  0  0  0  0  1  0  0  0  0  0  0
  -27.3720  -32.4140   25.7270 C   0  0  0  0  0  1  0  0  0  0  0  0
  -25.3630  -33.6720   24.0860 N   0  0  0  0  0  0  0  0  0  0  0  0
  -25.6280  -34.7730   23.3710 C   0  0  0  0  0  0  0  0  0  0  0  0
  -26.3250  -34.7550   22.3520 O   0  0  0  0  0  0  0  0  0  0  0  0
  -24.7320  -33.7480   24.8710 H   0  0  0  0  0  0  0  0  0  0  0  0
  -23.7750  -36.4460   23.0390 C   0  0  0  0  0  1  0  0  0  0  0  0
  -25.0300  -36.1080   23.8600 C   0  0  0  0  0  3  0  0  0  0  0  0
  -27.0780  -37.1250   24.7530 C   0  0  0  0  0  1  0  0  0  0  0  0
  -25.9810  -37.2400   23.7970 N   0  0  0  0  0  0  0  0  0  0  0  0
  -25.5050  -38.1220   23.9630 H   0  0  0  0  0  0  0  0  0  0  0  0
  1  6  2  0
  2  1  1  0
  3  4  1  0
  3  5  1  0
  4 54  1  0
  4  2  1  0
  5  1  1  0
  7  8  2  0
  7 10  1  0
  8 11  1  0
  9 12  1  0
 10  5  1  0
 10  9  2  0
 11 22  1  0
 11 12  2  0
 12 51  1  0
 13 22  1  0
 14 19  1  0
 15 16  1  0
 15 14  1  0
 17 16  1  0
 17 26  1  0
 17 18  1  0
 19 13  1  0
 19 18  1  0
 20 13  2  0
 22 21  1  0
 23 24  2  0
 24 43  1  0
 25 24  1  0
 25 28  1  0
 26 27  1  0
 26 23  1  0
 27 25  2  0
 28 29  1  0
 29 30  2  0
 31 34  1  0
 31 30  1  0
 32 31  2  0
 33 32  1  0
 33 28  2  0
 34 35  1  0
 35 36  1  0
 36 37  2  0
 38 37  1  0
 38 42  1  0
 39 38  2  0
 40 35  2  0
 40 39  1  0
 41 40  1  0
 43 44  1  0
 44 47  1  0
 44 46  1  0
 45 43  2  0
 48 23  1  0
 48 49  1  0
 50 48  1  0
 51 52  1  0
 51 53  1  0
 54 55  1  0
 56 67  2  0
 57 55  1  0
 57 62  1  0
 58 66  1  0
 58 68  1  0
 59 65  1  0
 59 61  1  0
 60 66  1  0
 61 62  2  0
 61 60  1  0
 63 57  2  0
 64 63  1  0
 64 59  2  0
 65 58  1  0
 66 56  1  0
 68 70  2  0
 69 68  1  0
 71 69  1  0
 72 81  2  0
 72 77  1  0
 73 69  1  0
 73 77  1  0
 74 73  1  0
 75 76  1  0
 75 74  1  0
 76 72  1  0
 77 78  2  0
 78 79  1  0
 80 79  2  0
 81 80  1  0
 82 56  1  0
 82 87  1  0
 82 83  1  0
 83 86  1  1
 83 84  1  0
 85 83  1  0
 87 90  1  0
 88 92  1  0
 88 87  1  0
 89 88  2  0
 92 91  1  0
 94 92  1  0
 94 95  1  0
 94 93  1  0
M  ISO  4  13 100  22 100  54 101  55 101
M  END
>  <TORSDO>  (38) 
F 19

>  <SCORE>  (38) 
-12.819

>  <name>  (38) 
37

>  <ligand_id>  (38) 
37

>  <original_smiles>  (38) 
[H]c1c([H])c([H])c2c(c1[H])C([H])([H])C([H])([H])C([H])([H])C2([H])N([H])C(=O)C1([H])N(C(=O)C([H])(N([H])C(=O)C([H])(N([H])C([H])([H])[H])C([H])([H])[H])C(C([H])([H])[H])(C([H])([H])[H])C([H])([H])[H])C([H])([H])c2c([H])c(OC([H])([H])C3([H])C([H])([H])C(=O)N(c4c([H])c([H])c(N(C(=O)N5C([H])([H])C([H])([H])C([H])([H])C([H])(n6nc(-c7c([H])c([H])c(Oc8c([H])c([H])c(F)c([H])c8F)c([H])c7[H])c(C(=O)N([H])[H])c6N([H])[H])C5([H])[H])C([H])([H])[H])c(N([H])[H])c4[H])C3([H])[H])c([H])c([H])c2C1([H])[H]

>  <smiles>  (38) 
[H]c1c([H])c([H])c2c(c1[H])C([H])([H])C([H])([H])C([H])([H])C2([H])N([H])C(=O)C1([H])N(C(=O)C([H])(N([H])C(=O)C([H])(N([H])C([H])([H])[H])C([H])([H])[H])C(C([H])([H])[H])(C([H])([H])[H])C([H])([H])[H])C([H])([H])c2c([H])c(OC([H])([H])C3([H])C([H])([H])C(=O)N(c4c([H])c([H])c(N(C(=O)N5C([H])([H])C([H])([H])C([H])([H])C([H])(n6nc(-c7c([H])c([H])c(Oc8c([H])c([H])c(F)c([H])c8F)c([H])c7[H])c(C(=O)N([H])[H])c6N([H])[H])C5([H])[H])C([H])([H])[H])c(N([H])[H])c4[H])C3([H])[H])c([H])c([H])c2C1([H])[H]

$$$$
38:0:0
     RDKit          3D

 95103  0  0  1  0  0  0  0  0999 V2000
  -30.8890  -18.9820   19.5470 C   0  0  0  0  0  3  0  0  0  0  0  0
  -30.5030  -20.3880   19.4950 C   0  0  0  0  0  3  0  0  0  0  0  0
  -29.0930  -18.5180   21.0040 C   0  0  0  0  0  3  0  0  0  0  0  0
  -30.1940  -17.9470   20.2800 C   0  0  0  0  0  0  0  0  0  0  0  0
  -29.3580  -20.9300   20.1670 C   0  0  0  0  0  0  0  0  0  0  0  0
  -28.6910  -19.9140   20.9390 C   0  0  0  0  0  0  0  0  0  0  0  0
  -31.0470  -15.3570   20.6040 C   0  0  0  0  0  0  0  0  0  0  0  0
  -31.1130  -12.8870   19.9710 C   0  0  0  0  0  2  0  0  0  0  0  0
  -30.2890  -12.5450   18.7060 C   0  0  0  0  0  2  0  0  0  0  0  0
  -28.7900  -12.3800   19.0260 C   0  0  0  0  0  2  0  0  0  0  0  0
  -28.2410  -13.4360   20.0220 C   0  0  0  0  0  3  0  0  0  0  0  0
  -29.2030  -13.6750   21.2030 C   0  0  0  0  0  2  0  0  0  0  0  0
  -30.4950  -14.0700   20.6220 N   0  0  0  0  0  0  0  0  0  0  0  0
  -32.2780  -15.4230   20.6960 O   0  0  0  0  0  0  0  0  0  0  0  0
  -29.9550  -16.2180   18.6920 C   0  0  0  0  0  0  0  0  0  0  0  0
  -28.6670  -16.8590   18.1630 C   0  0  0  0  0  1  0  0  0  0  0  0
  -30.3290  -16.4410   19.9820 N   0  0  0  0  0  0  0  0  0  0  0  0
  -30.6700  -15.6470   17.8640 O   0  0  0  0  0  0  0  0  0  0  0  0
  -25.8170  -14.0190   20.5960 C   0  0  0  0  0  0  0  0  0  0  0  0
  -24.7310  -13.2410   20.8890 C   0  0  0  0  0  0  0  0  0  0  0  0
  -25.2060  -11.8930   20.9130 C   0  0  0  0  0  0  0  0  0  0  0  0
  -26.8790  -13.1430   20.4460 N   0  0  0  0  0  0  0  0  0  0  0  0
  -26.5170  -11.8620   20.7080 N   0  0  0  0  0  0  0  0  0  0  0  0
  -24.4780  -10.6280   21.0590 C   0  0  0  0  0  0  0  0  0  0  0  0
  -24.8320   -9.6840   22.0460 C   0  0  0  0  0  3  0  0  0  0  0  0
  -24.1040   -8.4820   22.1810 C   0  0  0  0  0  3  0  0  0  0  0  0
  -23.0070   -8.2180   21.3270 C   0  0  0  0  0  0  0  0  0  0  0  0
  -22.6740   -9.1510   20.3300 C   0  0  0  0  0  3  0  0  0  0  0  0
  -23.4030  -10.3440   20.1930 C   0  0  0  0  0  3  0  0  0  0  0  0
  -22.2580   -7.0670   21.3690 O   0  0  0  0  0  0  0  0  0  0  0  0
  -22.0780   -6.3680   22.5350 C   0  0  0  0  0  0  0  0  0  0  0  0
  -21.4630   -6.9490   23.6650 C   0  0  0  0  0  3  0  0  0  0  0  0
  -21.2360   -6.1730   24.8200 C   0  0  0  0  0  3  0  0  0  0  0  0
  -21.6140   -4.8180   24.8430 C   0  0  0  0  0  0  0  0  0  0  0  0
  -22.2230   -4.2360   23.7170 C   0  0  0  0  0  3  0  0  0  0  0  0
  -22.4510   -5.0090   22.5660 C   0  0  0  0  0  0  0  0  0  0  0  0
  -23.0190   -4.4390   21.4750 F   0  0  0  0  0  0  0  0  0  0  0  0
  -21.3890   -4.0690   25.9480 F   0  0  0  0  0  0  0  0  0  0  0  0
  -23.3140  -13.7110   21.0430 C   0  0  0  0  0  0  0  0  0  0  0  0
  -22.5280  -13.0260   21.8650 N   0  0  0  0  0  0  0  0  0  0  0  0
  -22.9110  -14.7210   20.4680 O   0  0  0  0  0  0  0  0  0  0  0  0
  -22.8660  -12.2090   22.3510 H   0  0  0  0  0  0  0  0  0  0  0  0
  -21.5740  -13.3240   22.0100 H   0  0  0  0  0  0  0  0  0  0  0  0
  -25.9830  -15.3880   20.4200 N   0  0  0  0  0  0  0  0  0  0  0  0
  -25.2050  -16.0360   20.4840 H   0  0  0  0  0  0  0  0  0  0  0  0
  -26.8590  -15.8420   20.2060 H   0  0  0  0  0  0  0  0  0  0  0  0
  -28.9990  -23.5890   19.4830 C   0  0  0  0  0  0  0  0  0  0  0  0
  -28.7940  -22.3550   20.1430 N   0  0  0  0  0  0  0  0  0  0  0  0
  -29.9420  -23.7200   18.6970 O   0  0  0  0  0  0  0  0  0  0  0  0
  -28.0310  -22.4360   20.8010 H   0  0  0  0  0  0  0  0  0  0  0  0
  -27.9910  -24.8800   19.7230 C   0  0  0  0  0  2  0  0  0  0  0  0
  -28.2600  -26.3280   19.2190 O   0  0  0  0  0  0  0  0  0  0  0  0
  -24.9640  -31.6430   23.1340 C   0  0  0  0  0  0  0  0  0  0  0  0
  -27.2410  -27.3370   19.3670 C   0  0  0  0  0  0  0  0  0  0  0  0
  -23.6470  -30.5320   21.3720 C   0  0  0  0  0  3  0  0  0  0  0  0
  -24.9770  -29.1320   19.6790 C   0  0  0  0  0  0  0  0  0  0  0  0
  -26.2000  -30.7410   21.1310 C   0  0  0  0  0  2  0  0  0  0  0  0
  -26.1960  -29.4530   20.2910 C   0  0  0  0  0  0  0  0  0  0  0  0
  -27.3300  -28.5750   20.1190 C   0  0  0  0  0  3  0  0  0  0  0  0
  -26.0030  -27.1280   18.7220 C   0  0  0  0  0  3  0  0  0  0  0  0
  -24.8920  -27.9830   18.8800 C   0  0  0  0  0  3  0  0  0  0  0  0
  -23.7860  -30.0490   19.9040 C   0  0  0  0  0  2  0  0  0  0  0  0
  -24.9590  -30.9840   21.9350 N   0  0  0  0  0  0  0  0  0  0  0  0
  -23.9120  -31.8840   23.7450 O   0  0  0  0  0  0  0  0  0  0  0  0
  -22.9700  -29.4200   22.2130 C   0  0  0  0  0  0  0  0  0  0  0  0
  -21.6350  -29.2990   22.1080 N   0  0  0  0  0  0  0  0  0  0  0  0
  -23.6480  -28.6740   22.9250 O   0  0  0  0  0  0  0  0  0  0  0  0
  -21.1450  -29.9530   21.5140 H   0  0  0  0  0  0  0  0  0  0  0  0
  -18.2340  -28.1510   22.5930 C   0  0  0  0  0  0  0  0  0  0  0  0
  -20.8100  -28.2880   22.7750 C   0  0  0  0  0  3  0  0  0  0  0  0
  -20.8310  -26.9510   21.9990 C   0  0  0  0  0  2  0  0  0  0  0  0
  -19.6760  -26.8130   21.0010 C   0  0  0  0  0  2  0  0  0  0  0  0
  -18.3300  -26.9090   21.7230 C   0  0  0  0  0  2  0  0  0  0  0  0
  -19.3970  -28.8070   23.0730 C   0  0  0  0  0  0  0  0  0  0  0  0
  -19.2510  -29.9770   23.8510 C   0  0  0  0  0  3  0  0  0  0  0  0
  -17.9740  -30.4870   24.1510 C   0  0  0  0  0  3  0  0  0  0  0  0
  -16.8250  -29.8270   23.6840 C   0  0  0  0  0  3  0  0  0  0  0  0
  -16.9560  -28.6590   22.9100 C   0  0  0  0  0  3  0  0  0  0  0  0
  -26.2910  -32.1420   23.7840 C   0  0  0  0  0  3  0  0  0  0  0  0
  -26.8520  -31.1550   24.8820 C   0  0  1  0  0  0  0  0  0  0  0  0
  -25.8130  -30.7680   25.9610 C   0  0  0  0  0  1  0  0  0  0  0  0
  -27.3640  -29.8460   24.2360 C   0  0  0  0  0  1  0  0  0  0  0  0
  -28.0650  -31.7980   25.5930 C   0  0  0  0  0  1  0  0  0  0  0  0
  -26.0310  -33.4660   24.3710 N   0  0  0  0  0  0  0  0  0  0  0  0
  -26.3640  -34.6310   23.8010 C   0  0  0  0  0  0  0  0  0  0  0  0
  -26.9890  -34.7010   22.7400 O   0  0  0  0  0  0  0  0  0  0  0  0
  -25.4740  -33.4860   25.2120 H   0  0  0  0  0  0  0  0  0  0  0  0
  -24.6960  -36.5160   23.8360 C   0  0  0  0  0  1  0  0  0  0  0  0
  -25.9380  -35.9260   24.5230 C   0  0  0  0  0  3  0  0  0  0  0  0
  -28.1170  -36.5770   25.4500 C   0  0  0  0  0  1  0  0  0  0  0  0
  -27.0070  -36.9480   24.5780 N   0  0  0  0  0  0  0  0  0  0  0  0
  -26.6350  -37.8390   24.8980 H   0  0  0  0  0  0  0  0  0  0  0  0
  -27.5410  -20.2880   21.6370 N   0  0  0  0  0  0  0  0  0  0  0  0
  -26.9890  -19.5330   22.0300 H   0  0  0  0  0  0  0  0  0  0  0  0
  -26.9350  -20.9650   21.1870 H   0  0  0  0  0  0  0  0  0  0  0  0
  1  4  1  0
  2  1  2  0
  2  5  1  0
  4  3  2  0
  5  6  2  0
  6  3  1  0
  6 93  1  0
  7 13  1  0
  7 14  2  0
  8 13  1  0
  9 10  1  0
  9  8  1  0
 11 10  1  0
 11 22  1  0
 11 12  1  0
 13 12  1  0
 15 17  1  0
 16 15  1  0
 17  4  1  0
 17  7  1  0
 18 15  2  0
 19 20  2  0
 20 21  1  0
 20 39  1  0
 21 24  1  0
 22 19  1  0
 22 23  1  0
 23 21  2  0
 24 25  1  0
 25 26  2  0
 27 30  1  0
 27 26  1  0
 28 27  2  0
 29 28  1  0
 29 24  2  0
 30 31  1  0
 31 36  2  0
 31 32  1  0
 32 33  2  0
 33 34  1  0
 34 38  1  0
 35 34  2  0
 36 35  1  0
 37 36  1  0
 39 40  1  0
 40 43  1  0
 40 42  1  0
 41 39  2  0
 44 45  1  0
 44 19  1  0
 46 44  1  0
 47 51  1  0
 47 48  1  0
 48  5  1  0
 48 50  1  0
 49 47  2  0
 52 54  1  0
 52 51  1  0
 53 64  2  0
 54 59  1  0
 55 63  1  0
 55 65  1  0
 56 62  1  0
 56 58  1  0
 57 63  1  0
 58 57  1  0
 59 58  2  0
 60 61  1  0
 60 54  2  0
 61 56  2  0
 62 55  1  0
 63 53  1  0
 65 67  2  0
 66 65  1  0
 68 66  1  0
 69 78  2  0
 69 74  1  0
 70 66  1  0
 70 74  1  0
 71 70  1  0
 72 73  1  0
 72 71  1  0
 73 69  1  0
 74 75  2  0
 75 76  1  0
 77 76  2  0
 78 77  1  0
 79 53  1  0
 79 84  1  0
 79 80  1  0
 80 83  1  1
 80 81  1  0
 82 80  1  0
 84 87  1  0
 85 84  1  0
 85 89  1  0
 86 85  2  0
 89 88  1  0
 89 91  1  0
 91 92  1  0
 91 90  1  0
 93 94  1  0
 95 93  1  0
M  ISO  4   7 100  17 100  51 101  52 101
M  END
>  <TORSDO>  (39) 
F 19

>  <SCORE>  (39) 
-10.036

>  <name>  (39) 
38

>  <ligand_id>  (39) 
38

>  <original_smiles>  (39) 
[H]c1c([H])c([H])c2c(c1[H])C([H])([H])C([H])([H])C([H])([H])C2([H])N([H])C(=O)C1([H])N(C(=O)C([H])(N([H])C(=O)C([H])(N([H])C([H])([H])[H])C([H])([H])[H])C(C([H])([H])[H])(C([H])([H])[H])C([H])([H])[H])C([H])([H])c2c([H])c(OC([H])([H])C(=O)N([H])c3c([H])c([H])c(N(C(=O)N4C([H])([H])C([H])([H])C([H])([H])C([H])(n5nc(-c6c([H])c([H])c(Oc7c([H])c([H])c(F)c([H])c7F)c([H])c6[H])c(C(=O)N([H])[H])c5N([H])[H])C4([H])[H])C(=O)C([H])([H])[H])c([H])c3N([H])[H])c([H])c([H])c2C1([H])[H]

>  <smiles>  (39) 
[H]c1c([H])c([H])c2c(c1[H])C([H])([H])C([H])([H])C([H])([H])C2([H])N([H])C(=O)C1([H])N(C(=O)C([H])(N([H])C(=O)C([H])(N([H])C([H])([H])[H])C([H])([H])[H])C(C([H])([H])[H])(C([H])([H])[H])C([H])([H])[H])C([H])([H])c2c([H])c(OC([H])([H])C(=O)N([H])c3c([H])c([H])c(N(C(=O)N4C([H])([H])C([H])([H])C([H])([H])C([H])(n5nc(-c6c([H])c([H])c(Oc7c([H])c([H])c(F)c([H])c7F)c([H])c6[H])c(C(=O)N([H])[H])c5N([H])[H])C4([H])[H])C(=O)C([H])([H])[H])c([H])c3N([H])[H])c([H])c([H])c2C1([H])[H]

$$$$
39:0:0
     RDKit          3D

 96104  0  0  1  0  0  0  0  0999 V2000
  -30.4050  -18.0880   21.7970 C   0  0  0  0  0  3  0  0  0  0  0  0
  -29.6740  -19.4070   19.4410 C   0  0  0  0  0  3  0  0  0  0  0  0
  -30.3060  -19.5100   21.7650 C   0  0  0  0  0  0  0  0  0  0  0  0
  -30.1500  -17.2820   20.6580 C   0  0  0  0  0  0  0  0  0  0  0  0
  -29.9250  -20.2130   20.5890 C   0  0  0  0  0  0  0  0  0  0  0  0
  -29.7810  -17.9790   19.4740 C   0  0  0  0  0  0  0  0  0  0  0  0
  -29.4760  -17.2680   18.3610 F   0  0  0  0  0  0  0  0  0  0  0  0
  -30.8110  -14.8160   20.2520 C   0  0  0  0  0  0  0  0  0  0  0  0
  -30.5900  -12.5770   19.1840 C   0  0  0  0  0  2  0  0  0  0  0  0
  -29.6210  -12.7050   17.9870 C   0  0  0  0  0  2  0  0  0  0  0  0
  -28.1560  -12.5470   18.4410 C   0  0  0  0  0  2  0  0  0  0  0  0
  -27.8230  -13.4130   19.6860 C   0  0  0  0  0  3  0  0  0  0  0  0
  -28.8980  -13.2440   20.7820 C   0  0  0  0  0  2  0  0  0  0  0  0
  -30.2020  -13.5890   20.1890 N   0  0  0  0  0  0  0  0  0  0  0  0
  -31.9380  -15.0010   19.7810 O   0  0  0  0  0  0  0  0  0  0  0  0
  -30.0660  -15.8280   20.7900 N   0  0  0  0  0  0  0  0  0  0  0  0
  -29.2310  -15.5000   21.2480 H   0  0  0  0  0  0  0  0  0  0  0  0
  -25.4480  -14.0280   20.4550 C   0  0  0  0  0  0  0  0  0  0  0  0
  -24.3820  -13.2610   20.8370 C   0  0  0  0  0  0  0  0  0  0  0  0
  -24.8290  -11.9060   20.7790 C   0  0  0  0  0  0  0  0  0  0  0  0
  -26.4800  -13.1400   20.1910 N   0  0  0  0  0  0  0  0  0  0  0  0
  -26.1120  -11.8570   20.4440 N   0  0  0  0  0  0  0  0  0  0  0  0
  -24.0940  -10.6480   20.9680 C   0  0  0  0  0  0  0  0  0  0  0  0
  -24.5010   -9.6900   21.9230 C   0  0  0  0  0  3  0  0  0  0  0  0
  -23.7670   -8.4970   22.0990 C   0  0  0  0  0  3  0  0  0  0  0  0
  -22.6100   -8.2540   21.3200 C   0  0  0  0  0  0  0  0  0  0  0  0
  -22.2220   -9.2010   20.3560 C   0  0  0  0  0  3  0  0  0  0  0  0
  -22.9570  -10.3850   20.1780 C   0  0  0  0  0  3  0  0  0  0  0  0
  -21.8510   -7.1130   21.4040 O   0  0  0  0  0  0  0  0  0  0  0  0
  -21.7330   -6.4110   22.5770 C   0  0  0  0  0  0  0  0  0  0  0  0
  -21.1460   -6.9770   23.7290 C   0  0  0  0  0  3  0  0  0  0  0  0
  -20.9840   -6.1970   24.8910 C   0  0  0  0  0  3  0  0  0  0  0  0
  -21.3960   -4.8520   24.9020 C   0  0  0  0  0  0  0  0  0  0  0  0
  -21.9770   -4.2850   23.7530 C   0  0  0  0  0  3  0  0  0  0  0  0
  -22.1420   -5.0610   22.5930 C   0  0  0  0  0  0  0  0  0  0  0  0
  -22.6810   -4.5040   21.4830 F   0  0  0  0  0  0  0  0  0  0  0  0
  -21.2330   -4.1000   26.0160 F   0  0  0  0  0  0  0  0  0  0  0  0
  -22.9950  -13.7480   21.1440 C   0  0  0  0  0  0  0  0  0  0  0  0
  -22.2730  -13.0420   22.0070 N   0  0  0  0  0  0  0  0  0  0  0  0
  -22.5610  -14.7910   20.6550 O   0  0  0  0  0  0  0  0  0  0  0  0
  -22.6370  -12.1980   22.4240 H   0  0  0  0  0  0  0  0  0  0  0  0
  -21.3440  -13.3510   22.2550 H   0  0  0  0  0  0  0  0  0  0  0  0
  -25.6240  -15.3990   20.2910 N   0  0  0  0  0  0  0  0  0  0  0  0
  -24.8640  -16.0580   20.4170 H   0  0  0  0  0  0  0  0  0  0  0  0
  -26.4660  -15.8310   19.9310 H   0  0  0  0  0  0  0  0  0  0  0  0
  -29.1960  -22.6080   19.8970 C   0  0  0  0  0  0  0  0  0  0  0  0
  -29.8760  -21.6800   20.6400 N   0  0  0  0  0  0  0  0  0  0  0  0
  -28.4640  -22.2990   18.9510 O   0  0  0  0  0  0  0  0  0  0  0  0
  -30.3960  -22.0860   21.4060 H   0  0  0  0  0  0  0  0  0  0  0  0
  -29.4040  -24.1510   20.3280 C   0  0  0  0  0  0  0  0  0  0  0  0
  -30.3620  -24.4880   21.0360 O   0  0  0  0  0  0  0  0  0  0  0  0
  -28.3530  -25.2270   19.8470 C   0  0  0  0  0  2  0  0  0  0  0  0
  -28.5160  -26.6280   20.3230 O   0  0  0  0  0  0  0  0  0  0  0  0
  -24.6580  -31.9140   23.3750 C   0  0  0  0  0  0  0  0  0  0  0  0
  -27.3930  -27.4720   20.2520 C   0  0  0  0  0  0  0  0  0  0  0  0
  -23.5090  -30.5520   21.6680 C   0  0  0  0  0  3  0  0  0  0  0  0
  -25.0100  -29.0610   20.2320 C   0  0  0  0  0  0  0  0  0  0  0  0
  -26.0490  -30.9000   21.5570 C   0  0  0  0  0  2  0  0  0  0  0  0
  -26.1590  -29.5420   20.8730 C   0  0  0  0  0  0  0  0  0  0  0  0
  -27.3510  -28.7580   20.8770 C   0  0  0  0  0  3  0  0  0  0  0  0
  -26.2220  -27.0550   19.5760 C   0  0  0  0  0  3  0  0  0  0  0  0
  -25.0440  -27.8240   19.5750 C   0  0  0  0  0  3  0  0  0  0  0  0
  -23.7630  -29.9200   20.2740 C   0  0  0  0  0  2  0  0  0  0  0  0
  -24.7560  -31.1380   22.2580 N   0  0  0  0  0  0  0  0  0  0  0  0
  -23.5590  -32.1650   23.8910 O   0  0  0  0  0  0  0  0  0  0  0  0
  -22.8350  -29.4990   22.5810 C   0  0  0  0  0  0  0  0  0  0  0  0
  -21.5130  -29.3140   22.4170 N   0  0  0  0  0  0  0  0  0  0  0  0
  -23.4990  -28.8560   23.3970 O   0  0  0  0  0  0  0  0  0  0  0  0
  -21.0370  -29.8860   21.7350 H   0  0  0  0  0  0  0  0  0  0  0  0
  -18.1290  -28.1090   22.8350 C   0  0  0  0  0  0  0  0  0  0  0  0
  -20.6850  -28.3490   23.1420 C   0  0  0  0  0  3  0  0  0  0  0  0
  -20.7890  -26.9410   22.5110 C   0  0  0  0  0  2  0  0  0  0  0  0
  -19.6970  -26.6620   21.4730 C   0  0  0  0  0  2  0  0  0  0  0  0
  -18.3090  -26.7860   22.1070 C   0  0  0  0  0  2  0  0  0  0  0  0
  -19.2450  -28.8500   23.3070 C   0  0  0  0  0  0  0  0  0  0  0  0
  -19.0220  -30.0890   23.9470 C   0  0  0  0  0  3  0  0  0  0  0  0
  -17.7170  -30.5860   24.1180 C   0  0  0  0  0  3  0  0  0  0  0  0
  -16.6150  -29.8420   23.6630 C   0  0  0  0  0  3  0  0  0  0  0  0
  -16.8220  -28.6040   23.0270 C   0  0  0  0  0  3  0  0  0  0  0  0
  -25.9190  -32.5400   24.0460 C   0  0  0  0  0  3  0  0  0  0  0  0
  -26.3530  -31.7960   25.3690 C   0  0  1  0  0  0  0  0  0  0  0  0
  -25.1990  -31.5990   26.3790 C   0  0  0  0  0  1  0  0  0  0  0  0
  -26.9400  -30.4020   25.0460 C   0  0  0  0  0  1  0  0  0  0  0  0
  -27.4750  -32.5940   26.0740 C   0  0  0  0  0  1  0  0  0  0  0  0
  -25.6200  -33.9520   24.3220 N   0  0  0  0  0  0  0  0  0  0  0  0
  -25.9510  -34.9720   23.5190 C   0  0  0  0  0  0  0  0  0  0  0  0
  -26.6120  -34.8230   22.4870 O   0  0  0  0  0  0  0  0  0  0  0  0
  -25.0320  -34.1430   25.1210 H   0  0  0  0  0  0  0  0  0  0  0  0
  -24.2070  -36.7440   23.1370 C   0  0  0  0  0  1  0  0  0  0  0  0
  -25.4760  -36.3800   23.9240 C   0  0  0  0  0  3  0  0  0  0  0  0
  -27.6210  -37.3250   24.6560 C   0  0  0  0  0  1  0  0  0  0  0  0
  -26.5010  -37.4290   23.7250 N   0  0  0  0  0  0  0  0  0  0  0  0
  -26.0930  -38.3540   23.8200 H   0  0  0  0  0  0  0  0  0  0  0  0
  -30.5610  -20.2320   22.9330 N   0  0  0  0  0  0  0  0  0  0  0  0
  -30.6220  -19.7000   23.7950 H   0  0  0  0  0  0  0  0  0  0  0  0
  -30.0240  -21.0810   23.0690 H   0  0  0  0  0  0  0  0  0  0  0  0
  2  6  2  0
  2  5  1  0
  3  1  1  0
  3 94  1  0
  4 16  1  0
  4  1  2  0
  5 47  1  0
  5  3  2  0
  6  4  1  0
  7  6  1  0
  8 16  1  0
  9 14  1  0
 10 11  1  0
 10  9  1  0
 12 11  1  0
 12 21  1  0
 12 13  1  0
 14  8  1  0
 14 13  1  0
 15  8  2  0
 16 17  1  0
 18 19  2  0
 19 38  1  0
 20 19  1  0
 20 23  1  0
 21 22  1  0
 21 18  1  0
 22 20  2  0
 23 24  1  0
 24 25  2  0
 26 29  1  0
 26 25  1  0
 27 26  2  0
 28 27  1  0
 28 23  2  0
 29 30  1  0
 30 35  2  0
 30 31  1  0
 31 32  2  0
 32 33  1  0
 33 37  1  0
 34 33  2  0
 35 34  1  0
 36 35  1  0
 38 39  1  0
 39 42  1  0
 39 41  1  0
 40 38  2  0
 43 44  1  0
 43 18  1  0
 45 43  1  0
 46 50  1  0
 46 47  1  0
 47 49  1  0
 48 46  2  0
 50 51  2  0
 52 53  1  0
 52 50  1  0
 54 65  2  0
 55 53  1  0
 55 60  1  0
 56 64  1  0
 56 66  1  0
 57 63  1  0
 57 59  1  0
 58 64  1  0
 59 60  2  0
 59 58  1  0
 61 55  2  0
 62 61  1  0
 62 57  2  0
 63 56  1  0
 64 54  1  0
 66 68  2  0
 67 66  1  0
 69 67  1  0
 70 79  2  0
 70 75  1  0
 71 67  1  0
 71 75  1  0
 72 71  1  0
 73 74  1  0
 73 72  1  0
 74 70  1  0
 75 76  2  0
 76 77  1  0
 78 77  2  0
 79 78  1  0
 80 54  1  0
 80 85  1  0
 80 81  1  0
 81 84  1  1
 81 82  1  0
 83 81  1  0
 85 88  1  0
 86 90  1  0
 86 85  1  0
 87 86  2  0
 90 89  1  0
 92 93  1  0
 92 90  1  0
 92 91  1  0
 94 96  1  0
 94 95  1  0
M  ISO  4   8 100  16 100  52 101  53 101
M  END
>  <TORSDO>  (40) 
F 20

>  <SCORE>  (40) 
-14.052

>  <name>  (40) 
39

>  <ligand_id>  (40) 
39

>  <original_smiles>  (40) 
[H]c1c([H])c([H])c2c(c1[H])C([H])([H])C([H])([H])C([H])([H])C2([H])N([H])C(=O)C1([H])N(C(=O)C([H])(N([H])C(=O)C([H])(N([H])C([H])([H])[H])C([H])([H])[H])C(C([H])([H])[H])(C([H])([H])[H])C([H])([H])[H])C([H])([H])c2c([H])c(OC([H])([H])C(=O)C(=O)N([H])c3c([H])c(F)c(N([H])C(=O)N4C([H])([H])C([H])([H])C([H])([H])C([H])(n5nc(-c6c([H])c([H])c(Oc7c([H])c([H])c(F)c([H])c7F)c([H])c6[H])c(C(=O)N([H])[H])c5N([H])[H])C4([H])[H])c([H])c3N([H])[H])c([H])c([H])c2C1([H])[H]

>  <smiles>  (40) 
[H]c1c([H])c([H])c2c(c1[H])C([H])([H])C([H])([H])C([H])([H])C2([H])N([H])C(=O)C1([H])N(C(=O)C([H])(N([H])C(=O)C([H])(N([H])C([H])([H])[H])C([H])([H])[H])C(C([H])([H])[H])(C([H])([H])[H])C([H])([H])[H])C([H])([H])c2c([H])c(OC([H])([H])C(=O)C(=O)N([H])c3c([H])c(F)c(N([H])C(=O)N4C([H])([H])C([H])([H])C([H])([H])C([H])(n5nc(-c6c([H])c([H])c(Oc7c([H])c([H])c(F)c([H])c7F)c([H])c6[H])c(C(=O)N([H])[H])c5N([H])[H])C4([H])[H])c([H])c3N([H])[H])c([H])c([H])c2C1([H])[H]

$$$$
40:0:0
     RDKit          3D

 93101  0  0  1  0  0  0  0  0999 V2000
  -30.2190  -21.1060   20.5640 C   0  0  0  0  0  3  0  0  0  0  0  0
  -29.7490  -22.5180   20.5330 C   0  0  0  0  0  3  0  0  0  0  0  0
  -28.1950  -20.3300   19.8310 C   0  0  0  0  0  3  0  0  0  0  0  0
  -29.5100  -19.8590   20.2340 C   0  0  0  0  0  0  0  0  0  0  0  0
  -28.4330  -22.9820   20.1410 C   0  0  0  0  0  0  0  0  0  0  0  0
  -27.7110  -21.7450   19.7880 C   0  0  0  0  0  0  0  0  0  0  0  0
  -31.1620  -18.3530   21.5430 C   0  0  0  0  0  1  0  0  0  0  0  0
  -31.2100  -18.3620   19.0430 C   0  0  0  0  0  1  0  0  0  0  0  0
  -30.2820  -18.2770   20.2720 C   0  0  2  0  0  0  0  0  0  0  0  0
  -30.5080  -15.3680   20.1710 C   0  0  0  0  0  0  0  0  0  0  0  0
  -30.4440  -12.9390   19.2810 C   0  0  0  0  0  2  0  0  0  0  0  0
  -29.4980  -12.7290   18.0760 C   0  0  0  0  0  2  0  0  0  0  0  0
  -28.0620  -12.4510   18.5510 C   0  0  0  0  0  2  0  0  0  0  0  0
  -27.6310  -13.4020   19.6940 C   0  0  0  0  0  3  0  0  0  0  0  0
  -28.7070  -13.5650   20.7890 C   0  0  0  0  0  2  0  0  0  0  0  0
  -29.9110  -14.0780   20.1160 N   0  0  0  0  0  0  0  0  0  0  0  0
  -31.7240  -15.3220   19.9440 O   0  0  0  0  0  0  0  0  0  0  0  0
  -29.8040  -16.6770   20.2790 N   0  0  0  0  0  0  0  0  0  0  0  0
  -28.8070  -16.5660   20.3930 H   0  0  0  0  0  0  0  0  0  0  0  0
  -25.2810  -13.9280   20.5330 C   0  0  0  0  0  0  0  0  0  0  0  0
  -24.2350  -13.1370   20.9150 C   0  0  0  0  0  0  0  0  0  0  0  0
  -24.7080  -11.7900   20.8400 C   0  0  0  0  0  0  0  0  0  0  0  0
  -26.3210  -13.0650   20.2380 N   0  0  0  0  0  0  0  0  0  0  0  0
  -25.9900  -11.7710   20.4920 N   0  0  0  0  0  0  0  0  0  0  0  0
  -23.9920  -10.5200   21.0230 C   0  0  0  0  0  0  0  0  0  0  0  0
  -24.4240   -9.5540   21.9570 C   0  0  0  0  0  3  0  0  0  0  0  0
  -23.7060   -8.3510   22.1300 C   0  0  0  0  0  3  0  0  0  0  0  0
  -22.5400   -8.1040   21.3660 C   0  0  0  0  0  0  0  0  0  0  0  0
  -22.1270   -9.0600   20.4190 C   0  0  0  0  0  3  0  0  0  0  0  0
  -22.8460  -10.2540   20.2460 C   0  0  0  0  0  3  0  0  0  0  0  0
  -21.7930   -6.9560   21.4460 O   0  0  0  0  0  0  0  0  0  0  0  0
  -21.7040   -6.2350   22.6100 C   0  0  0  0  0  0  0  0  0  0  0  0
  -21.1840   -6.7950   23.7960 C   0  0  0  0  0  3  0  0  0  0  0  0
  -21.0460   -5.9990   24.9510 C   0  0  0  0  0  3  0  0  0  0  0  0
  -21.4200   -4.6420   24.9200 C   0  0  0  0  0  0  0  0  0  0  0  0
  -21.9330   -4.0810   23.7370 C   0  0  0  0  0  3  0  0  0  0  0  0
  -22.0710   -4.8740   22.5850 C   0  0  0  0  0  0  0  0  0  0  0  0
  -22.5460   -4.3220   21.4420 F   0  0  0  0  0  0  0  0  0  0  0  0
  -21.2800   -3.8740   26.0250 F   0  0  0  0  0  0  0  0  0  0  0  0
  -22.8440  -13.6010   21.2300 C   0  0  0  0  0  0  0  0  0  0  0  0
  -22.1410  -12.8880   22.1040 N   0  0  0  0  0  0  0  0  0  0  0  0
  -22.3860  -14.6310   20.7350 O   0  0  0  0  0  0  0  0  0  0  0  0
  -22.5230  -12.0550   22.5260 H   0  0  0  0  0  0  0  0  0  0  0  0
  -21.2080  -13.1820   22.3540 H   0  0  0  0  0  0  0  0  0  0  0  0
  -25.4300  -15.3030   20.3830 N   0  0  0  0  0  0  0  0  0  0  0  0
  -24.6610  -15.9480   20.5370 H   0  0  0  0  0  0  0  0  0  0  0  0
  -26.2580  -15.7570   20.0200 H   0  0  0  0  0  0  0  0  0  0  0  0
  -26.4040  -21.9160   19.3330 N   0  0  0  0  0  0  0  0  0  0  0  0
  -26.0010  -21.1340   18.8290 H   0  0  0  0  0  0  0  0  0  0  0  0
  -26.2110  -22.7890   18.8540 H   0  0  0  0  0  0  0  0  0  0  0  0
  -27.7520  -24.3760   20.1080 N   0  0  0  0  0  0  0  0  0  0  0  0
  -26.7420  -24.3420   20.0180 H   0  0  0  0  0  0  0  0  0  0  0  0
  -28.2170  -25.9670   20.1840 O   0  0  0  0  0  0  0  0  0  0  0  0
  -24.5940  -31.8600   23.2350 C   0  0  0  0  0  0  0  0  0  0  0  0
  -27.2020  -27.0580   20.1600 C   0  0  0  0  0  0  0  0  0  0  0  0
  -23.4300  -30.5050   21.5400 C   0  0  0  0  0  3  0  0  0  0  0  0
  -24.9070  -28.9330   20.1100 C   0  0  0  0  0  0  0  0  0  0  0  0
  -25.9980  -30.7160   21.4550 C   0  0  0  0  0  2  0  0  0  0  0  0
  -26.0790  -29.3200   20.7730 C   0  0  0  0  0  0  0  0  0  0  0  0
  -27.2190  -28.4000   20.7830 C   0  0  0  0  0  3  0  0  0  0  0  0
  -26.0090  -26.8270   19.4410 C   0  0  0  0  0  3  0  0  0  0  0  0
  -24.8950  -27.7060   19.4270 C   0  0  0  0  0  3  0  0  0  0  0  0
  -23.6900  -29.8550   20.1520 C   0  0  0  0  0  2  0  0  0  0  0  0
  -24.6930  -31.0540   22.1300 N   0  0  0  0  0  0  0  0  0  0  0  0
  -23.4960  -32.1390   23.7430 O   0  0  0  0  0  0  0  0  0  0  0  0
  -22.7180  -29.4850   22.4660 C   0  0  0  0  0  0  0  0  0  0  0  0
  -21.3910  -29.3210   22.3100 N   0  0  0  0  0  0  0  0  0  0  0  0
  -23.3670  -28.8430   23.2960 O   0  0  0  0  0  0  0  0  0  0  0  0
  -20.9200  -29.8920   21.6220 H   0  0  0  0  0  0  0  0  0  0  0  0
  -17.9940  -28.1240   22.7430 C   0  0  0  0  0  0  0  0  0  0  0  0
  -20.5510  -28.3680   23.0450 C   0  0  0  0  0  3  0  0  0  0  0  0
  -20.6510  -26.9510   22.4320 C   0  0  0  0  0  2  0  0  0  0  0  0
  -19.5600  -26.6660   21.3950 C   0  0  0  0  0  2  0  0  0  0  0  0
  -18.1720  -26.7970   22.0280 C   0  0  0  0  0  2  0  0  0  0  0  0
  -19.1100  -28.8700   23.2070 C   0  0  0  0  0  0  0  0  0  0  0  0
  -18.8870  -30.1120   23.8390 C   0  0  0  0  0  3  0  0  0  0  0  0
  -17.5810  -30.6100   24.0090 C   0  0  0  0  0  3  0  0  0  0  0  0
  -16.4790  -29.8610   23.5610 C   0  0  0  0  0  3  0  0  0  0  0  0
  -16.6860  -28.6190   22.9340 C   0  0  0  0  0  3  0  0  0  0  0  0
  -25.8540  -32.4870   23.9050 C   0  0  0  0  0  3  0  0  0  0  0  0
  -26.3120  -31.7140   25.2040 C   0  0  1  0  0  0  0  0  0  0  0  0
  -25.1790  -31.4940   26.2320 C   0  0  0  0  0  1  0  0  0  0  0  0
  -26.8940  -30.3280   24.8460 C   0  0  0  0  0  1  0  0  0  0  0  0
  -27.4470  -32.4960   25.9070 C   0  0  0  0  0  1  0  0  0  0  0  0
  -25.5450  -33.8890   24.2340 N   0  0  0  0  0  0  0  0  0  0  0  0
  -25.8610  -34.9440   23.4700 C   0  0  0  0  0  0  0  0  0  0  0  0
  -26.5080  -34.8390   22.4260 O   0  0  0  0  0  0  0  0  0  0  0  0
  -24.9820  -34.0440   25.0560 H   0  0  0  0  0  0  0  0  0  0  0  0
  -24.1070  -36.7240   23.1770 C   0  0  0  0  0  1  0  0  0  0  0  0
  -25.3850  -36.3340   23.9380 C   0  0  0  0  0  3  0  0  0  0  0  0
  -27.5410  -37.2470   24.6760 C   0  0  0  0  0  1  0  0  0  0  0  0
  -26.4030  -37.3950   23.7730 N   0  0  0  0  0  0  0  0  0  0  0  0
  -25.9950  -38.3140   23.9290 H   0  0  0  0  0  0  0  0  0  0  0  0
  2  1  1  0
  3  4  1  0
  4  9  1  0
  4  1  2  0
  5  2  2  0
  6  3  2  0
  6  5  1  0
  9  8  1  6
  9 18  1  0
  9  7  1  0
 10 18  1  0
 11 16  1  0
 12 13  1  0
 12 11  1  0
 14 13  1  0
 14 23  1  0
 14 15  1  0
 16 10  1  0
 16 15  1  0
 17 10  2  0
 18 19  1  0
 20 21  2  0
 21 40  1  0
 22 21  1  0
 22 25  1  0
 23 24  1  0
 23 20  1  0
 24 22  2  0
 25 26  1  0
 26 27  2  0
 28 31  1  0
 28 27  1  0
 29 28  2  0
 30 29  1  0
 30 25  2  0
 31 32  1  0
 32 33  1  0
 33 34  2  0
 35 34  1  0
 35 39  1  0
 36 35  2  0
 37 32  2  0
 37 36  1  0
 38 37  1  0
 40 41  1  0
 41 44  1  0
 41 43  1  0
 42 40  2  0
 45 20  1  0
 45 46  1  0
 47 45  1  0
 48  6  1  0
 49 48  1  0
 50 48  1  0
 51  5  1  0
 51 53  1  0
 52 51  1  0
 54 65  2  0
 55 53  1  0
 55 60  1  0
 56 64  1  0
 56 66  1  0
 57 63  1  0
 57 59  1  0
 58 64  1  0
 59 60  2  0
 59 58  1  0
 61 55  2  0
 62 61  1  0
 62 57  2  0
 63 56  1  0
 64 54  1  0
 66 68  2  0
 67 66  1  0
 69 67  1  0
 70 79  2  0
 70 75  1  0
 71 67  1  0
 71 75  1  0
 72 71  1  0
 73 74  1  0
 73 72  1  0
 74 70  1  0
 75 76  2  0
 76 77  1  0
 78 77  2  0
 79 78  1  0
 80 54  1  0
 80 85  1  0
 80 81  1  0
 81 84  1  1
 81 82  1  0
 83 81  1  0
 85 88  1  0
 86 90  1  0
 86 85  1  0
 87 86  2  0
 90 89  1  0
 92 93  1  0
 92 90  1  0
 92 91  1  0
M  ISO  4  10 100  18 100  51 101  53 101
M  END
>  <TORSDO>  (41) 
F 19

>  <SCORE>  (41) 
-16.049

>  <name>  (41) 
40

>  <ligand_id>  (41) 
40

>  <original_smiles>  (41) 
[H]c1c([H])c([H])c2c(c1[H])C([H])([H])C([H])([H])C([H])([H])C2([H])N([H])C(=O)C1([H])N(C(=O)C([H])(N([H])C(=O)C([H])(N([H])C([H])([H])[H])C([H])([H])[H])C(C([H])([H])[H])(C([H])([H])[H])C([H])([H])[H])C([H])([H])c2c([H])c(ON([H])c3c([H])c([H])c(C(N([H])C(=O)N4C([H])([H])C([H])([H])C([H])([H])C([H])(n5nc(-c6c([H])c([H])c(Oc7c([H])c([H])c(F)c([H])c7F)c([H])c6[H])c(C(=O)N([H])[H])c5N([H])[H])C4([H])[H])(C([H])([H])[H])C([H])([H])[H])c([H])c3N([H])[H])c([H])c([H])c2C1([H])[H]

>  <smiles>  (41) 
[H]c1c([H])c([H])c2c(c1[H])C([H])([H])C([H])([H])C([H])([H])C2([H])N([H])C(=O)C1([H])N(C(=O)C([H])(N([H])C(=O)C([H])(N([H])C([H])([H])[H])C([H])([H])[H])C(C([H])([H])[H])(C([H])([H])[H])C([H])([H])[H])C([H])([H])c2c([H])c(ON([H])c3c([H])c([H])c(C(N([H])C(=O)N4C([H])([H])C([H])([H])C([H])([H])C([H])(n5nc(-c6c([H])c([H])c(Oc7c([H])c([H])c(F)c([H])c7F)c([H])c6[H])c(C(=O)N([H])[H])c5N([H])[H])C4([H])[H])(C([H])([H])[H])C([H])([H])[H])c([H])c3N([H])[H])c([H])c([H])c2C1([H])[H]

$$$$
41:0:0
     RDKit          3D

 98106  0  0  1  0  0  0  0  0999 V2000
  -29.1330  -19.0010   20.5500 C   0  0  0  0  0  3  0  0  0  0  0  0
  -30.8060  -21.1150   19.7650 C   0  0  0  0  0  3  0  0  0  0  0  0
  -30.4870  -18.6730   20.2810 C   0  0  0  0  0  0  0  0  0  0  0  0
  -28.6380  -20.3390   20.4490 C   0  0  0  0  0  0  0  0  0  0  0  0
  -31.3100  -19.7820   19.8630 C   0  0  0  0  0  0  0  0  0  0  0  0
  -29.4630  -21.4360   20.0700 C   0  0  0  0  0  0  0  0  0  0  0  0
  -31.0470  -14.8570   20.1410 C   0  0  0  0  0  0  0  0  0  0  0  0
  -30.6730  -12.6020   19.1580 C   0  0  0  0  0  2  0  0  0  0  0  0
  -29.7280  -12.6790   17.9450 C   0  0  0  0  0  2  0  0  0  0  0  0
  -28.2650  -12.5560   18.4070 C   0  0  0  0  0  2  0  0  0  0  0  0
  -27.9300  -13.4900   19.6010 C   0  0  0  0  0  3  0  0  0  0  0  0
  -29.0080  -13.4350   20.7050 C   0  0  0  0  0  2  0  0  0  0  0  0
  -30.3020  -13.7070   20.0690 N   0  0  0  0  0  0  0  0  0  0  0  0
  -32.2300  -14.8140   19.7940 O   0  0  0  0  0  0  0  0  0  0  0  0
  -31.0760  -17.2670   20.5890 C   0  0  0  0  0  0  0  0  0  0  0  0
  -30.4240  -16.0730   20.3520 N   0  0  0  0  0  0  0  0  0  0  0  0
  -32.2160  -17.2700   21.0730 O   0  0  0  0  0  0  0  0  0  0  0  0
  -29.4240  -16.1040   20.2480 H   0  0  0  0  0  0  0  0  0  0  0  0
  -25.5770  -14.1410   20.3850 C   0  0  0  0  0  0  0  0  0  0  0  0
  -24.4990  -13.3940   20.7750 C   0  0  0  0  0  0  0  0  0  0  0  0
  -24.9250  -12.0310   20.7300 C   0  0  0  0  0  0  0  0  0  0  0  0
  -26.5920  -13.2360   20.1240 N   0  0  0  0  0  0  0  0  0  0  0  0
  -26.2080  -11.9610   20.3950 N   0  0  0  0  0  0  0  0  0  0  0  0
  -24.1690  -10.7880   20.9300 C   0  0  0  0  0  0  0  0  0  0  0  0
  -24.5680   -9.8240   21.8820 C   0  0  0  0  0  3  0  0  0  0  0  0
  -23.8120   -8.6470   22.0690 C   0  0  0  0  0  3  0  0  0  0  0  0
  -22.6420   -8.4250   21.3050 C   0  0  0  0  0  0  0  0  0  0  0  0
  -22.2620   -9.3760   20.3420 C   0  0  0  0  0  3  0  0  0  0  0  0
  -23.0180  -10.5450   20.1520 C   0  0  0  0  0  3  0  0  0  0  0  0
  -21.8600   -7.2990   21.4000 O   0  0  0  0  0  0  0  0  0  0  0  0
  -21.7580   -6.5900   22.5710 C   0  0  0  0  0  0  0  0  0  0  0  0
  -21.2360   -7.1670   23.7480 C   0  0  0  0  0  3  0  0  0  0  0  0
  -21.0840   -6.3840   24.9100 C   0  0  0  0  0  3  0  0  0  0  0  0
  -21.4470   -5.0230   24.8930 C   0  0  0  0  0  0  0  0  0  0  0  0
  -21.9640   -4.4460   23.7200 C   0  0  0  0  0  3  0  0  0  0  0  0
  -22.1160   -5.2270   22.5610 C   0  0  0  0  0  0  0  0  0  0  0  0
  -22.5940   -4.6600   21.4270 F   0  0  0  0  0  0  0  0  0  0  0  0
  -21.2960   -4.2670   26.0050 F   0  0  0  0  0  0  0  0  0  0  0  0
  -23.1210  -13.9080   21.0740 C   0  0  0  0  0  0  0  0  0  0  0  0
  -22.3900  -13.2280   21.9500 N   0  0  0  0  0  0  0  0  0  0  0  0
  -22.7020  -14.9480   20.5670 O   0  0  0  0  0  0  0  0  0  0  0  0
  -22.7430  -12.3860   22.3820 H   0  0  0  0  0  0  0  0  0  0  0  0
  -21.4660  -13.5540   22.1930 H   0  0  0  0  0  0  0  0  0  0  0  0
  -25.7720  -15.5070   20.2050 N   0  0  0  0  0  0  0  0  0  0  0  0
  -25.0200  -16.1770   20.3270 H   0  0  0  0  0  0  0  0  0  0  0  0
  -26.6130  -15.9230   19.8280 H   0  0  0  0  0  0  0  0  0  0  0  0
  -29.3680  -24.0480   19.9790 C   0  0  0  0  0  0  0  0  0  0  0  0
  -28.8710  -22.7680   19.9250 N   0  0  0  0  0  0  0  0  0  0  0  0
  -30.5240  -24.3060   20.3270 O   0  0  0  0  0  0  0  0  0  0  0  0
  -27.8800  -22.7270   19.7280 H   0  0  0  0  0  0  0  0  0  0  0  0
  -28.3810  -25.2070   19.5580 C   0  0  0  0  0  2  0  0  0  0  0  0
  -28.6240  -26.6150   19.9860 O   0  0  0  0  0  0  0  0  0  0  0  0
  -24.5440  -31.6850   23.1550 C   0  0  0  0  0  0  0  0  0  0  0  0
  -27.4980  -27.4640   19.9210 C   0  0  0  0  0  0  0  0  0  0  0  0
  -23.4850  -30.3540   21.3690 C   0  0  0  0  0  3  0  0  0  0  0  0
  -25.0700  -28.9880   19.9090 C   0  0  0  0  0  0  0  0  0  0  0  0
  -26.0150  -30.7950   21.3340 C   0  0  0  0  0  2  0  0  0  0  0  0
  -26.1900  -29.4720   20.5960 C   0  0  0  0  0  0  0  0  0  0  0  0
  -27.4090  -28.7230   20.5970 C   0  0  0  0  0  3  0  0  0  0  0  0
  -26.3510  -27.0550   19.1970 C   0  0  0  0  0  3  0  0  0  0  0  0
  -25.1540  -27.7850   19.2000 C   0  0  0  0  0  3  0  0  0  0  0  0
  -23.7930  -29.7980   19.9570 C   0  0  0  0  0  2  0  0  0  0  0  0
  -24.6980  -30.9580   22.0100 N   0  0  0  0  0  0  0  0  0  0  0  0
  -23.4250  -31.8750   23.6530 O   0  0  0  0  0  0  0  0  0  0  0  0
  -22.8320  -29.2390   22.2210 C   0  0  0  0  0  0  0  0  0  0  0  0
  -21.5090  -29.0580   22.0680 N   0  0  0  0  0  0  0  0  0  0  0  0
  -23.5140  -28.5450   22.9790 O   0  0  0  0  0  0  0  0  0  0  0  0
  -21.0170  -29.6740   21.4360 H   0  0  0  0  0  0  0  0  0  0  0  0
  -18.1250  -27.8670   22.5370 C   0  0  0  0  0  0  0  0  0  0  0  0
  -20.6960  -28.0440   22.7430 C   0  0  0  0  0  3  0  0  0  0  0  0
  -20.7460  -26.6970   21.9870 C   0  0  0  0  0  2  0  0  0  0  0  0
  -19.6020  -26.5270   20.9810 C   0  0  0  0  0  2  0  0  0  0  0  0
  -18.2470  -26.6130   21.6890 C   0  0  0  0  0  2  0  0  0  0  0  0
  -19.2740  -28.5470   23.0190 C   0  0  0  0  0  0  0  0  0  0  0  0
  -19.1040  -29.7270   23.7750 C   0  0  0  0  0  3  0  0  0  0  0  0
  -17.8170  -30.2270   24.0510 C   0  0  0  0  0  3  0  0  0  0  0  0
  -16.6820  -29.5420   23.5840 C   0  0  0  0  0  3  0  0  0  0  0  0
  -16.8370  -28.3620   22.8340 C   0  0  0  0  0  3  0  0  0  0  0  0
  -25.7650  -32.3300   23.8790 C   0  0  0  0  0  3  0  0  0  0  0  0
  -26.1910  -31.5560   25.1860 C   0  0  1  0  0  0  0  0  0  0  0  0
  -25.0210  -31.2920   26.1620 C   0  0  0  0  0  1  0  0  0  0  0  0
  -26.8260  -30.1910   24.8330 C   0  0  0  0  0  1  0  0  0  0  0  0
  -27.2720  -32.3620   25.9430 C   0  0  0  0  0  1  0  0  0  0  0  0
  -25.4090  -33.7210   24.1940 N   0  0  0  0  0  0  0  0  0  0  0  0
  -25.7370  -34.7800   23.4420 C   0  0  0  0  0  0  0  0  0  0  0  0
  -26.4410  -34.6920   22.4320 O   0  0  0  0  0  0  0  0  0  0  0  0
  -24.7870  -33.8620   24.9760 H   0  0  0  0  0  0  0  0  0  0  0  0
  -23.9590  -36.5150   23.0460 C   0  0  0  0  0  1  0  0  0  0  0  0
  -25.2000  -36.1570   23.8790 C   0  0  0  0  0  3  0  0  0  0  0  0
  -27.2790  -37.1310   24.7500 C   0  0  0  0  0  1  0  0  0  0  0  0
  -26.2010  -37.2410   23.7710 N   0  0  0  0  0  0  0  0  0  0  0  0
  -25.7600  -38.1500   23.8850 H   0  0  0  0  0  0  0  0  0  0  0  0
  -27.2990  -20.5820   20.7570 N   0  0  0  0  0  0  0  0  0  0  0  0
  -26.7950  -19.8320   21.2180 H   0  0  0  0  0  0  0  0  0  0  0  0
  -27.0920  -21.4750   21.1910 H   0  0  0  0  0  0  0  0  0  0  0  0
  -32.6580  -19.6270   19.5180 N   0  0  0  0  0  0  0  0  0  0  0  0
  -33.2400  -20.4590   19.4810 H   0  0  0  0  0  0  0  0  0  0  0  0
  -33.1510  -18.8340   19.9220 H   0  0  0  0  0  0  0  0  0  0  0  0
  2  5  2  0
  2  6  1  0
  3  1  2  0
  3 15  1  0
  4  1  1  0
  4 93  1  0
  5  3  1  0
  6  4  2  0
  7 16  1  0
  8 13  1  0
  9 10  1  0
  9  8  1  0
 11 10  1  0
 11 22  1  0
 11 12  1  0
 13  7  1  0
 13 12  1  0
 14  7  2  0
 15 17  2  0
 16 15  1  0
 18 16  1  0
 19 20  2  0
 20 39  1  0
 21 20  1  0
 21 24  1  0
 22 19  1  0
 22 23  1  0
 23 21  2  0
 24 25  1  0
 25 26  2  0
 27 30  1  0
 27 26  1  0
 28 27  2  0
 29 28  1  0
 29 24  2  0
 30 31  1  0
 31 32  1  0
 32 33  2  0
 34 33  1  0
 34 38  1  0
 35 34  2  0
 36 31  2  0
 36 35  1  0
 37 36  1  0
 39 40  1  0
 40 43  1  0
 40 42  1  0
 41 39  2  0
 44 45  1  0
 44 19  1  0
 46 44  1  0
 47 49  2  0
 48 47  1  0
 48  6  1  0
 50 48  1  0
 51 47  1  0
 51 52  1  0
 53 64  2  0
 54 52  1  0
 54 59  1  0
 55 63  1  0
 55 65  1  0
 56 62  1  0
 56 58  1  0
 57 63  1  0
 58 59  2  0
 58 57  1  0
 60 61  1  0
 60 54  2  0
 61 56  2  0
 62 55  1  0
 63 53  1  0
 65 67  2  0
 66 65  1  0
 68 66  1  0
 69 78  2  0
 69 74  1  0
 70 66  1  0
 70 74  1  0
 71 70  1  0
 72 73  1  0
 72 71  1  0
 73 69  1  0
 74 75  2  0
 75 76  1  0
 77 76  2  0
 78 77  1  0
 79 53  1  0
 79 84  1  0
 79 80  1  0
 80 83  1  1
 80 81  1  0
 82 80  1  0
 84 87  1  0
 85 89  1  0
 85 84  1  0
 86 85  2  0
 89 88  1  0
 91 89  1  0
 91 92  1  0
 91 90  1  0
 93 95  1  0
 93 94  1  0
 96  5  1  0
 96 98  1  0
 97 96  1  0
M  ISO  4   7 100  16 100  51 101  52 101
M  END
>  <TORSDO>  (42) 
F 20

>  <SCORE>  (42) 
-13.680

>  <name>  (42) 
41

>  <ligand_id>  (42) 
41

>  <original_smiles>  (42) 
[H]c1c([H])c([H])c2c(c1[H])C([H])([H])C([H])([H])C([H])([H])C2([H])N([H])C(=O)C1([H])N(C(=O)C([H])(N([H])C(=O)C([H])(N([H])C([H])([H])[H])C([H])([H])[H])C(C([H])([H])[H])(C([H])([H])[H])C([H])([H])[H])C([H])([H])c2c([H])c(OC([H])([H])C(=O)N([H])c3c([H])c(N([H])[H])c(C(=O)N([H])C(=O)N4C([H])([H])C([H])([H])C([H])([H])C([H])(n5nc(-c6c([H])c([H])c(Oc7c([H])c([H])c(F)c([H])c7F)c([H])c6[H])c(C(=O)N([H])[H])c5N([H])[H])C4([H])[H])c([H])c3N([H])[H])c([H])c([H])c2C1([H])[H]

>  <smiles>  (42) 
[H]c1c([H])c([H])c2c(c1[H])C([H])([H])C([H])([H])C([H])([H])C2([H])N([H])C(=O)C1([H])N(C(=O)C([H])(N([H])C(=O)C([H])(N([H])C([H])([H])[H])C([H])([H])[H])C(C([H])([H])[H])(C([H])([H])[H])C([H])([H])[H])C([H])([H])c2c([H])c(OC([H])([H])C(=O)N([H])c3c([H])c(N([H])[H])c(C(=O)N([H])C(=O)N4C([H])([H])C([H])([H])C([H])([H])C([H])(n5nc(-c6c([H])c([H])c(Oc7c([H])c([H])c(F)c([H])c7F)c([H])c6[H])c(C(=O)N([H])[H])c5N([H])[H])C4([H])[H])c([H])c3N([H])[H])c([H])c([H])c2C1([H])[H]

$$$$
42:0:0
     RDKit          3D

 99108  0  0  1  0  0  0  0  0999 V2000
  -27.8640  -23.4370   21.2060 C   0  0  0  0  0  3  0  0  0  0  0  0
  -28.4270  -23.8360   19.9530 C   0  0  0  0  0  0  0  0  0  0  0  0
  -28.0580  -22.0850   21.3870 C   0  0  0  0  0  0  0  0  0  0  0  0
  -28.9390  -22.6280   19.4550 C   0  0  0  0  0  0  0  0  0  0  0  0
  -28.7590  -21.5180   20.3260 N   0  0  0  0  0  0  0  0  0  0  0  0
  -30.3700  -19.6440   20.8930 C   0  0  0  0  0  3  0  0  0  0  0  0
  -28.4110  -19.0560   19.6590 C   0  0  0  0  0  3  0  0  0  0  0  0
  -29.1840  -20.0980   20.2500 C   0  0  0  0  0  0  0  0  0  0  0  0
  -30.7360  -18.2610   20.9970 C   0  0  0  0  0  0  0  0  0  0  0  0
  -29.9250  -17.2060   20.4550 C   0  0  0  0  0  0  0  0  0  0  0  0
  -28.7670  -17.6660   19.7520 C   0  0  0  0  0  0  0  0  0  0  0  0
  -27.9310  -16.7500   19.2090 F   0  0  0  0  0  0  0  0  0  0  0  0
  -30.5950  -14.8000   19.8300 C   0  0  0  0  0  0  0  0  0  0  0  0
  -30.2230  -12.5880   18.7010 C   0  0  0  0  0  2  0  0  0  0  0  0
  -29.1560  -12.7200   17.5940 C   0  0  0  0  0  2  0  0  0  0  0  0
  -27.7400  -12.5310   18.1700 C   0  0  0  0  0  2  0  0  0  0  0  0
  -27.5170  -13.3800   19.4450 C   0  0  0  0  0  3  0  0  0  0  0  0
  -28.6800  -13.2250   20.4410 C   0  0  0  0  0  2  0  0  0  0  0  0
  -29.9280  -13.5930   19.7520 N   0  0  0  0  0  0  0  0  0  0  0  0
  -31.5920  -14.9940   19.1270 O   0  0  0  0  0  0  0  0  0  0  0  0
  -30.4730  -15.3880   22.1360 C   0  0  0  0  0  1  0  0  0  0  0  0
  -30.1680  -15.7560   20.7340 N   0  0  0  0  0  0  0  0  0  0  0  0
  -25.2570  -13.9790   20.5050 C   0  0  0  0  0  0  0  0  0  0  0  0
  -24.2220  -13.2030   20.9490 C   0  0  0  0  0  0  0  0  0  0  0  0
  -24.6360  -11.8480   20.7710 C   0  0  0  0  0  0  0  0  0  0  0  0
  -26.2340  -13.0940   20.0750 N   0  0  0  0  0  0  0  0  0  0  0  0
  -25.8740  -11.8030   20.2960 N   0  0  0  0  0  0  0  0  0  0  0  0
  -23.8990  -10.5930   20.9670 C   0  0  0  0  0  0  0  0  0  0  0  0
  -24.3650   -9.5920   21.8460 C   0  0  0  0  0  3  0  0  0  0  0  0
  -23.6280   -8.4020   22.0280 C   0  0  0  0  0  3  0  0  0  0  0  0
  -22.4130   -8.2050   21.3300 C   0  0  0  0  0  0  0  0  0  0  0  0
  -21.9660   -9.1970   20.4390 C   0  0  0  0  0  3  0  0  0  0  0  0
  -22.7010  -10.3790   20.2570 C   0  0  0  0  0  3  0  0  0  0  0  0
  -21.6430   -7.0700   21.4270 O   0  0  0  0  0  0  0  0  0  0  0  0
  -21.5820   -6.3390   22.5860 C   0  0  0  0  0  0  0  0  0  0  0  0
  -21.1540   -6.9080   23.8040 C   0  0  0  0  0  3  0  0  0  0  0  0
  -21.0380   -6.1030   24.9540 C   0  0  0  0  0  3  0  0  0  0  0  0
  -21.3410   -4.7300   24.8890 C   0  0  0  0  0  0  0  0  0  0  0  0
  -21.7620   -4.1600   23.6740 C   0  0  0  0  0  3  0  0  0  0  0  0
  -21.8820   -4.9630   22.5250 C   0  0  0  0  0  0  0  0  0  0  0  0
  -22.2680   -4.4030   21.3520 F   0  0  0  0  0  0  0  0  0  0  0  0
  -21.2230   -3.9550   25.9930 F   0  0  0  0  0  0  0  0  0  0  0  0
  -22.8840  -13.6900   21.4260 C   0  0  0  0  0  0  0  0  0  0  0  0
  -22.2590  -12.9770   22.3540 N   0  0  0  0  0  0  0  0  0  0  0  0
  -22.4070  -14.7460   21.0140 O   0  0  0  0  0  0  0  0  0  0  0  0
  -22.6550  -12.1210   22.7160 H   0  0  0  0  0  0  0  0  0  0  0  0
  -21.3660  -13.2930   22.7060 H   0  0  0  0  0  0  0  0  0  0  0  0
  -25.4340  -15.3550   20.4060 N   0  0  0  0  0  0  0  0  0  0  0  0
  -24.6930  -15.9980   20.6620 H   0  0  0  0  0  0  0  0  0  0  0  0
  -26.2470  -15.8180   20.0130 H   0  0  0  0  0  0  0  0  0  0  0  0
  -31.9230  -17.9620   21.6750 N   0  0  0  0  0  0  0  0  0  0  0  0
  -32.0310  -16.9990   21.9800 H   0  0  0  0  0  0  0  0  0  0  0  0
  -32.2630  -18.6220   22.3660 H   0  0  0  0  0  0  0  0  0  0  0  0
  -27.6550  -21.3090   22.4310 O   0  0  0  0  0  0  0  0  0  0  0  0
  -27.1270  -21.8520   23.0090 H   0  0  0  0  0  0  0  0  0  0  0  0
  -29.5660  -22.4460   18.2610 O   0  0  0  0  0  0  0  0  0  0  0  0
  -29.5720  -21.5160   18.0630 H   0  0  0  0  0  0  0  0  0  0  0  0
  -28.3960  -25.2630   19.2500 C   0  0  0  0  0  2  0  0  0  0  0  0
  -28.2560  -26.5570   19.9860 O   0  0  0  0  0  0  0  0  0  0  0  0
  -24.5130  -31.8880   23.0980 C   0  0  0  0  0  0  0  0  0  0  0  0
  -27.1210  -27.3920   19.9150 C   0  0  0  0  0  0  0  0  0  0  0  0
  -23.2980  -30.4940   21.4610 C   0  0  0  0  0  3  0  0  0  0  0  0
  -24.7380  -28.9930   19.9720 C   0  0  0  0  0  0  0  0  0  0  0  0
  -25.8260  -30.8550   21.2230 C   0  0  0  0  0  2  0  0  0  0  0  0
  -25.9090  -29.4800   20.5630 C   0  0  0  0  0  0  0  0  0  0  0  0
  -27.0970  -28.6880   20.5320 C   0  0  0  0  0  3  0  0  0  0  0  0
  -25.9270  -26.9700   19.2910 C   0  0  0  0  0  3  0  0  0  0  0  0
  -24.7550  -27.7490   19.3200 C   0  0  0  0  0  3  0  0  0  0  0  0
  -23.4920  -29.8490   20.0610 C   0  0  0  0  0  2  0  0  0  0  0  0
  -24.5670  -31.0980   21.9840 N   0  0  0  0  0  0  0  0  0  0  0  0
  -23.4350  -32.1340   23.6590 O   0  0  0  0  0  0  0  0  0  0  0  0
  -22.6720  -29.4490   22.4180 C   0  0  0  0  0  0  0  0  0  0  0  0
  -21.3530  -29.2230   22.2930 N   0  0  0  0  0  0  0  0  0  0  0  0
  -23.3720  -28.8470   23.2360 O   0  0  0  0  0  0  0  0  0  0  0  0
  -20.8420  -29.7730   21.6150 H   0  0  0  0  0  0  0  0  0  0  0  0
  -18.0350  -27.8510   22.7460 C   0  0  0  0  0  0  0  0  0  0  0  0
  -20.5710  -28.2480   23.0560 C   0  0  0  0  0  3  0  0  0  0  0  0
  -20.7560  -26.8180   22.4980 C   0  0  0  0  0  2  0  0  0  0  0  0
  -19.6910  -26.4290   21.4670 C   0  0  0  0  0  2  0  0  0  0  0  0
  -18.2920  -26.5070   22.0870 C   0  0  0  0  0  2  0  0  0  0  0  0
  -19.1040  -28.6750   23.1860 C   0  0  0  0  0  0  0  0  0  0  0  0
  -18.8080  -29.9300   23.7620 C   0  0  0  0  0  3  0  0  0  0  0  0
  -17.4750  -30.3640   23.8990 C   0  0  0  0  0  3  0  0  0  0  0  0
  -16.4200  -29.5390   23.4720 C   0  0  0  0  0  3  0  0  0  0  0  0
  -16.7010  -28.2820   22.9040 C   0  0  0  0  0  3  0  0  0  0  0  0
  -25.7940  -32.5340   23.7070 C   0  0  0  0  0  3  0  0  0  0  0  0
  -25.4660  -33.9190   24.0770 N   0  0  0  0  0  0  0  0  0  0  0  0
  -25.7570  -34.9970   23.3370 C   0  0  0  0  0  0  0  0  0  0  0  0
  -26.4040  -34.9320   22.2870 O   0  0  0  0  0  0  0  0  0  0  0  0
  -24.8990  -34.0440   24.9040 H   0  0  0  0  0  0  0  0  0  0  0  0
  -23.9970  -36.7730   23.0600 C   0  0  0  0  0  1  0  0  0  0  0  0
  -25.2580  -36.3670   23.8400 C   0  0  0  0  0  3  0  0  0  0  0  0
  -27.3940  -37.2640   24.6550 C   0  0  0  0  0  1  0  0  0  0  0  0
  -26.2720  -37.4390   23.7350 N   0  0  0  0  0  0  0  0  0  0  0  0
  -25.8570  -38.3510   23.9120 H   0  0  0  0  0  0  0  0  0  0  0  0
  -26.3550  -31.7460   24.9540 C   0  0  1  0  0  0  0  0  0  0  0  0
  -25.2890  -31.4550   26.0360 C   0  0  0  0  0  1  0  0  0  0  0  0
  -26.9650  -30.3960   24.5100 C   0  0  0  0  0  1  0  0  0  0  0  0
  -27.4990  -32.5530   25.6140 C   0  0  0  0  0  1  0  0  0  0  0  0
  1  3  2  0
  2  1  1  0
  3 54  1  0
  4  2  2  0
  4  5  1  0
  5  3  1  0
  6  9  1  0
  7 11  2  0
  7  8  1  0
  8  5  1  0
  8  6  2  0
  9 51  1  0
 10 22  1  0
 10  9  2  0
 11 10  1  0
 12 11  1  0
 13 22  1  0
 14 19  1  0
 15 16  1  0
 15 14  1  0
 17 16  1  0
 17 26  1  0
 17 18  1  0
 19 13  1  0
 19 18  1  0
 20 13  2  0
 22 21  1  0
 23 24  2  0
 24 43  1  0
 25 24  1  0
 25 28  1  0
 26 27  1  0
 26 23  1  0
 27 25  2  0
 28 29  1  0
 29 30  2  0
 31 34  1  0
 31 30  1  0
 32 31  2  0
 33 32  1  0
 33 28  2  0
 34 35  1  0
 35 36  1  0
 36 37  2  0
 38 37  1  0
 38 42  1  0
 39 38  2  0
 40 35  2  0
 40 39  1  0
 41 40  1  0
 43 44  1  0
 44 47  1  0
 44 46  1  0
 45 43  2  0
 48 23  1  0
 48 49  1  0
 50 48  1  0
 51 52  1  0
 51 53  1  0
 54 55  1  0
 56  4  1  0
 57 56  1  0
 58  2  1  0
 58 59  1  0
 60 71  2  0
 61 59  1  0
 61 66  1  0
 62 70  1  0
 62 72  1  0
 63 69  1  0
 63 65  1  0
 64 70  1  0
 65 64  1  0
 66 65  2  0
 67 68  1  0
 67 61  2  0
 68 63  2  0
 69 62  1  0
 70 60  1  0
 72 74  2  0
 73 72  1  0
 75 73  1  0
 76 85  2  0
 76 81  1  0
 77 73  1  0
 77 81  1  0
 78 77  1  0
 79 80  1  0
 79 78  1  0
 80 76  1  0
 81 82  2  0
 82 83  1  0
 84 83  2  0
 85 84  1  0
 86 60  1  0
 86 87  1  0
 86 96  1  0
 87 90  1  0
 88 92  1  0
 88 87  1  0
 89 88  2  0
 92 91  1  0
 94 92  1  0
 94 95  1  0
 94 93  1  0
 96 99  1  1
 96 97  1  0
 98 96  1  0
M  ISO  4  13 100  22 100  58 101  59 101
M  END
>  <TORSDO>  (43) 
F 21

>  <SCORE>  (43) 
-12.862

>  <name>  (43) 
42

>  <ligand_id>  (43) 
42

>  <original_smiles>  (43) 
[H]Oc1c([H])c(C([H])([H])Oc2c([H])c([H])c3c(c2[H])C([H])([H])N(C(=O)C([H])(N([H])C(=O)C([H])(N([H])C([H])([H])[H])C([H])([H])[H])C(C([H])([H])[H])(C([H])([H])[H])C([H])([H])[H])C([H])(C(=O)N([H])C2([H])c4c([H])c([H])c([H])c([H])c4C([H])([H])C([H])([H])C2([H])[H])C3([H])[H])c(O[H])n1-c1c([H])c(F)c(N(C(=O)N2C([H])([H])C([H])([H])C([H])([H])C([H])(n3nc(-c4c([H])c([H])c(Oc5c([H])c([H])c(F)c([H])c5F)c([H])c4[H])c(C(=O)N([H])[H])c3N([H])[H])C2([H])[H])C([H])([H])[H])c(N([H])[H])c1[H]

>  <smiles>  (43) 
[H]Oc1c([H])c(C([H])([H])Oc2c([H])c([H])c3c(c2[H])C([H])([H])N(C(=O)C([H])(N([H])C(=O)C([H])(N([H])C([H])([H])[H])C([H])([H])[H])C(C([H])([H])[H])(C([H])([H])[H])C([H])([H])[H])C([H])(C(=O)N([H])C2([H])c4c([H])c([H])c([H])c([H])c4C([H])([H])C([H])([H])C2([H])[H])C3([H])[H])c(O[H])n1-c1c([H])c(F)c(N(C(=O)N2C([H])([H])C([H])([H])C([H])([H])C([H])(n3nc(-c4c([H])c([H])c(Oc5c([H])c([H])c(F)c([H])c5F)c([H])c4[H])c(C(=O)N([H])[H])c3N([H])[H])C2([H])[H])C([H])([H])[H])c(N([H])[H])c1[H]

$$$$
43:0:0
     RDKit          3D

 94103  0  0  1  0  0  0  0  0999 V2000
  -27.4870  -21.1500   20.1530 C   0  0  0  0  0  0  0  0  0  0  0  0
  -26.5960  -22.3920   20.3470 C   0  0  0  0  0  3  0  0  0  0  0  0
  -27.2040  -23.7890   20.2400 C   0  0  0  0  0  3  0  0  0  0  0  0
  -29.4830  -22.6160   20.1490 C   0  0  0  0  0  2  0  0  0  0  0  0
  -28.6120  -23.9090   19.6540 C   0  0  1  0  0  0  0  0  0  0  0  0
  -28.5180  -23.8660   18.1190 C   0  0  0  0  0  1  0  0  0  0  0  0
  -28.8460  -21.2240   20.1680 N   0  0  0  0  0  0  0  0  0  0  0  0
  -26.8810  -20.0820   20.0000 O   0  0  0  0  0  0  0  0  0  0  0  0
  -29.4950  -19.1590   21.5320 C   0  0  0  0  0  3  0  0  0  0  0  0
  -30.1810  -19.1920   19.2470 C   0  0  0  0  0  3  0  0  0  0  0  0
  -29.9150  -17.7910   21.6430 C   0  0  0  0  0  3  0  0  0  0  0  0
  -30.5930  -17.8120   19.3590 C   0  0  0  0  0  3  0  0  0  0  0  0
  -29.5650  -19.9100   20.3200 C   0  0  0  0  0  0  0  0  0  0  0  0
  -30.4300  -17.0370   20.5490 C   0  0  0  0  0  0  0  0  0  0  0  0
  -31.0230  -14.6830   19.6700 C   0  0  0  0  0  0  0  0  0  0  0  0
  -30.5310  -12.5350   18.4680 C   0  0  0  0  0  2  0  0  0  0  0  0
  -29.4190  -12.6510   17.4000 C   0  0  0  0  0  2  0  0  0  0  0  0
  -28.0390  -12.4510   18.0430 C   0  0  0  0  0  2  0  0  0  0  0  0
  -27.8520  -13.3390   19.2970 C   0  0  0  0  0  3  0  0  0  0  0  0
  -29.0420  -13.1910   20.2690 C   0  0  0  0  0  2  0  0  0  0  0  0
  -30.2850  -13.5240   19.5500 N   0  0  0  0  0  0  0  0  0  0  0  0
  -31.9780  -14.8850   18.9100 O   0  0  0  0  0  0  0  0  0  0  0  0
  -30.9750  -15.0340   22.0580 C   0  0  0  0  0  1  0  0  0  0  0  0
  -30.7370  -15.5790   20.6910 N   0  0  0  0  0  0  0  0  0  0  0  0
  -25.6100  -13.9770   20.3670 C   0  0  0  0  0  0  0  0  0  0  0  0
  -24.5650  -13.2210   20.8310 C   0  0  0  0  0  0  0  0  0  0  0  0
  -24.9550  -11.8570   20.6580 C   0  0  0  0  0  0  0  0  0  0  0  0
  -26.5690  -13.0740   19.9420 N   0  0  0  0  0  0  0  0  0  0  0  0
  -26.1880  -11.7900   20.1710 N   0  0  0  0  0  0  0  0  0  0  0  0
  -24.2070  -10.6120   20.8700 C   0  0  0  0  0  0  0  0  0  0  0  0
  -24.6420   -9.6330   21.7900 C   0  0  0  0  0  3  0  0  0  0  0  0
  -23.8870   -8.4570   21.9920 C   0  0  0  0  0  3  0  0  0  0  0  0
  -22.6860   -8.2520   21.2740 C   0  0  0  0  0  0  0  0  0  0  0  0
  -22.2700   -9.2210   20.3450 C   0  0  0  0  0  3  0  0  0  0  0  0
  -23.0240  -10.3870   20.1400 C   0  0  0  0  0  3  0  0  0  0  0  0
  -21.9010   -7.1280   21.3860 O   0  0  0  0  0  0  0  0  0  0  0  0
  -21.7770   -6.4530   22.5750 C   0  0  0  0  0  0  0  0  0  0  0  0
  -21.2930   -7.0840   23.7430 C   0  0  0  0  0  3  0  0  0  0  0  0
  -21.1140   -6.3380   24.9250 C   0  0  0  0  0  3  0  0  0  0  0  0
  -21.4070   -4.9610   24.9390 C   0  0  0  0  0  0  0  0  0  0  0  0
  -21.8850   -4.3300   23.7770 C   0  0  0  0  0  3  0  0  0  0  0  0
  -22.0650   -5.0740   22.5990 C   0  0  0  0  0  0  0  0  0  0  0  0
  -22.5050   -4.4570   21.4750 F   0  0  0  0  0  0  0  0  0  0  0  0
  -21.2300   -4.2420   26.0720 F   0  0  0  0  0  0  0  0  0  0  0  0
  -23.2480  -13.7330   21.3300 C   0  0  0  0  0  0  0  0  0  0  0  0
  -22.6400  -13.0360   22.2840 N   0  0  0  0  0  0  0  0  0  0  0  0
  -22.7720  -14.7890   20.9120 O   0  0  0  0  0  0  0  0  0  0  0  0
  -23.0440  -12.1870   22.6470 H   0  0  0  0  0  0  0  0  0  0  0  0
  -21.7600  -13.3640   22.6550 H   0  0  0  0  0  0  0  0  0  0  0  0
  -25.8130  -15.3460   20.2560 N   0  0  0  0  0  0  0  0  0  0  0  0
  -25.1130  -16.0270   20.5320 H   0  0  0  0  0  0  0  0  0  0  0  0
  -26.6620  -15.7750   19.9040 H   0  0  0  0  0  0  0  0  0  0  0  0
  -29.1540  -25.3770   20.0950 C   0  0  0  0  0  2  0  0  0  0  0  0
  -28.7680  -26.6550   19.4380 O   0  0  0  0  0  0  0  0  0  0  0  0
  -24.5890  -31.4730   22.9450 C   0  0  0  0  0  0  0  0  0  0  0  0
  -27.5440  -27.3330   19.6070 C   0  0  0  0  0  0  0  0  0  0  0  0
  -23.4990  -30.1320   21.1690 C   0  0  0  0  0  3  0  0  0  0  0  0
  -25.0760  -28.7960   19.6490 C   0  0  0  0  0  0  0  0  0  0  0  0
  -26.0100  -30.6110   21.0760 C   0  0  0  0  0  2  0  0  0  0  0  0
  -26.1880  -29.2850   20.3490 C   0  0  0  0  0  0  0  0  0  0  0  0
  -27.4140  -28.5560   20.3380 C   0  0  0  0  0  3  0  0  0  0  0  0
  -26.4290  -26.9260   18.8450 C   0  0  0  0  0  3  0  0  0  0  0  0
  -25.2080  -27.6270   18.8760 C   0  0  0  0  0  3  0  0  0  0  0  0
  -23.7770  -29.5700   19.7440 C   0  0  0  0  0  2  0  0  0  0  0  0
  -24.7160  -30.7570   21.7870 N   0  0  0  0  0  0  0  0  0  0  0  0
  -23.4820  -31.6420   23.4780 O   0  0  0  0  0  0  0  0  0  0  0  0
  -22.8870  -29.0090   22.0400 C   0  0  0  0  0  0  0  0  0  0  0  0
  -21.5770  -28.7670   21.8760 N   0  0  0  0  0  0  0  0  0  0  0  0
  -23.5910  -28.3630   22.8210 O   0  0  0  0  0  0  0  0  0  0  0  0
  -21.0660  -29.3410   21.2210 H   0  0  0  0  0  0  0  0  0  0  0  0
  -18.2590  -27.3570   22.2840 C   0  0  0  0  0  0  0  0  0  0  0  0
  -20.8030  -27.7300   22.5610 C   0  0  0  0  0  3  0  0  0  0  0  0
  -20.9720  -26.3700   21.8470 C   0  0  0  0  0  2  0  0  0  0  0  0
  -19.8660  -26.1060   20.8190 C   0  0  0  0  0  2  0  0  0  0  0  0
  -18.5090  -26.0700   21.5190 C   0  0  0  0  0  2  0  0  0  0  0  0
  -19.3390  -28.1440   22.7650 C   0  0  0  0  0  0  0  0  0  0  0  0
  -19.0630  -29.3440   23.4500 C   0  0  0  0  0  3  0  0  0  0  0  0
  -17.7330  -29.7490   23.6710 C   0  0  0  0  0  3  0  0  0  0  0  0
  -16.6650  -28.9610   23.2110 C   0  0  0  0  0  3  0  0  0  0  0  0
  -16.9290  -27.7710   22.5120 C   0  0  0  0  0  3  0  0  0  0  0  0
  -25.8240  -32.1320   23.6340 C   0  0  0  0  0  3  0  0  0  0  0  0
  -25.4240  -33.4790   24.0660 N   0  0  0  0  0  0  0  0  0  0  0  0
  -25.6980  -34.6070   23.3970 C   0  0  0  0  0  0  0  0  0  0  0  0
  -26.3760  -34.6260   22.3670 O   0  0  0  0  0  0  0  0  0  0  0  0
  -24.8160  -33.5280   24.8670 H   0  0  0  0  0  0  0  0  0  0  0  0
  -23.8590  -36.3110   23.1710 C   0  0  0  0  0  1  0  0  0  0  0  0
  -25.1210  -35.9230   23.9590 C   0  0  0  0  0  3  0  0  0  0  0  0
  -27.1860  -36.8780   24.8770 C   0  0  0  0  0  1  0  0  0  0  0  0
  -26.0830  -37.0450   23.9360 N   0  0  0  0  0  0  0  0  0  0  0  0
  -25.6160  -37.9240   24.1490 H   0  0  0  0  0  0  0  0  0  0  0  0
  -26.3760  -31.3000   24.8590 C   0  0  1  0  0  0  0  0  0  0  0  0
  -25.2920  -30.9150   25.8940 C   0  0  0  0  0  1  0  0  0  0  0  0
  -27.0420  -29.9920   24.3760 C   0  0  0  0  0  1  0  0  0  0  0  0
  -27.4650  -32.1100   25.6040 C   0  0  0  0  0  1  0  0  0  0  0  0
  1  7  1  0
  1  2  1  0
  3  2  2  0
  4  7  1  0
  5  6  1  6
  5 53  1  0
  5  4  1  0
  5  3  1  0
  7 13  1  0
  8  1  2  0
  9 11  1  0
 10 12  2  0
 10 13  1  0
 12 14  1  0
 13  9  2  0
 14 24  1  0
 14 11  2  0
 15 24  1  0
 16 21  1  0
 17 18  1  0
 17 16  1  0
 19 18  1  0
 19 28  1  0
 19 20  1  0
 21 15  1  0
 21 20  1  0
 22 15  2  0
 24 23  1  0
 25 26  2  0
 26 45  1  0
 27 26  1  0
 27 30  1  0
 28 29  1  0
 28 25  1  0
 29 27  2  0
 30 31  1  0
 31 32  2  0
 33 36  1  0
 33 32  1  0
 34 33  2  0
 35 34  1  0
 35 30  2  0
 36 37  1  0
 37 42  2  0
 37 38  1  0
 38 39  2  0
 39 40  1  0
 40 44  1  0
 41 40  2  0
 42 41  1  0
 43 42  1  0
 45 46  1  0
 46 48  1  0
 46 49  1  0
 47 45  2  0
 50 25  1  0
 50 51  1  0
 52 50  1  0
 54 56  1  0
 54 53  1  0
 55 66  2  0
 56 61  1  0
 57 65  1  0
 57 67  1  0
 58 64  1  0
 58 60  1  0
 59 65  1  0
 60 59  1  0
 61 60  2  0
 62 63  1  0
 62 56  2  0
 63 58  2  0
 64 57  1  0
 65 55  1  0
 67 69  2  0
 68 67  1  0
 70 68  1  0
 71 80  2  0
 71 76  1  0
 72 68  1  0
 72 76  1  0
 73 72  1  0
 74 75  1  0
 74 73  1  0
 75 71  1  0
 76 77  2  0
 77 78  1  0
 79 78  2  0
 80 79  1  0
 81 55  1  0
 81 82  1  0
 81 91  1  0
 82 85  1  0
 83 87  1  0
 83 82  1  0
 84 83  2  0
 87 86  1  0
 89 87  1  0
 89 90  1  0
 89 88  1  0
 91 94  1  1
 91 92  1  0
 93 91  1  0
M  ISO  4  15 100  24 100  53 101  54 101
M  END
>  <TORSDO>  (44) 
F 18

>  <SCORE>  (44) 
-11.024

>  <name>  (44) 
43

>  <ligand_id>  (44) 
43

>  <original_smiles>  (44) 
[H]c1c([H])c([H])c2c(c1[H])C([H])([H])C([H])([H])C([H])([H])C2([H])N([H])C(=O)C1([H])N(C(=O)C([H])(N([H])C(=O)C([H])(N([H])C([H])([H])[H])C([H])([H])[H])C(C([H])([H])[H])(C([H])([H])[H])C([H])([H])[H])C([H])([H])c2c([H])c(OC([H])([H])C3(C([H])([H])[H])C([H])([H])N(c4c([H])c([H])c(N(C(=O)N5C([H])([H])C([H])([H])C([H])([H])C([H])(n6nc(-c7c([H])c([H])c(Oc8c([H])c([H])c(F)c([H])c8F)c([H])c7[H])c(C(=O)N([H])[H])c6N([H])[H])C5([H])[H])C([H])([H])[H])c([H])c4[H])C(=O)C([H])([H])C3([H])[H])c([H])c([H])c2C1([H])[H]

>  <smiles>  (44) 
[H]c1c([H])c([H])c2c(c1[H])C([H])([H])C([H])([H])C([H])([H])C2([H])N([H])C(=O)C1([H])N(C(=O)C([H])(N([H])C(=O)C([H])(N([H])C([H])([H])[H])C([H])([H])[H])C(C([H])([H])[H])(C([H])([H])[H])C([H])([H])[H])C([H])([H])c2c([H])c(OC([H])([H])C3(C([H])([H])[H])C([H])([H])N(c4c([H])c([H])c(N(C(=O)N5C([H])([H])C([H])([H])C([H])([H])C([H])(n6nc(-c7c([H])c([H])c(Oc8c([H])c([H])c(F)c([H])c8F)c([H])c7[H])c(C(=O)N([H])[H])c6N([H])[H])C5([H])[H])C([H])([H])[H])c([H])c4[H])C(=O)C([H])([H])C3([H])[H])c([H])c([H])c2C1([H])[H]

$$$$
44:0:0
     RDKit          3D

 94102  0  0  1  0  0  0  0  0999 V2000
  -30.3380  -21.6960   19.8600 C   0  0  0  0  0  0  0  0  0  0  0  0
  -29.4330  -24.0150   20.0060 C   0  0  0  0  0  0  0  0  0  0  0  0
  -29.3330  -22.6270   20.0180 N   0  0  0  0  0  0  0  0  0  0  0  0
  -31.5040  -22.0420   19.6410 O   0  0  0  0  0  0  0  0  0  0  0  0
  -30.5040  -24.6120   19.8360 O   0  0  0  0  0  0  0  0  0  0  0  0
  -28.4090  -22.2500   20.1530 H   0  0  0  0  0  0  0  0  0  0  0  0
  -31.0600  -19.2980   19.2470 C   0  0  0  0  0  3  0  0  0  0  0  0
  -31.0470  -17.8760   19.3750 C   0  0  0  0  0  3  0  0  0  0  0  0
  -29.1290  -19.4860   20.6580 C   0  0  0  0  0  3  0  0  0  0  0  0
  -30.1200  -20.1580   19.8910 C   0  0  0  0  0  0  0  0  0  0  0  0
  -30.0730  -17.2100   20.1620 C   0  0  0  0  0  0  0  0  0  0  0  0
  -29.1030  -18.0580   20.7760 C   0  0  0  0  0  0  0  0  0  0  0  0
  -28.1250  -17.4830   21.5170 F   0  0  0  0  0  0  0  0  0  0  0  0
  -30.7380  -14.6990   19.8820 C   0  0  0  0  0  0  0  0  0  0  0  0
  -30.4510  -12.4830   18.7880 C   0  0  0  0  0  2  0  0  0  0  0  0
  -29.4140  -12.6470   17.6540 C   0  0  0  0  0  2  0  0  0  0  0  0
  -27.9780  -12.4770   18.1910 C   0  0  0  0  0  2  0  0  0  0  0  0
  -27.7220  -13.2940   19.4860 C   0  0  0  0  0  3  0  0  0  0  0  0
  -28.8670  -13.1070   20.5070 C   0  0  0  0  0  2  0  0  0  0  0  0
  -30.1240  -13.4730   19.8360 N   0  0  0  0  0  0  0  0  0  0  0  0
  -31.8690  -14.8560   19.4120 O   0  0  0  0  0  0  0  0  0  0  0  0
  -29.9730  -15.7520   20.3250 N   0  0  0  0  0  0  0  0  0  0  0  0
  -29.1320  -15.4630   20.8030 H   0  0  0  0  0  0  0  0  0  0  0  0
  -25.3960  -13.8710   20.4090 C   0  0  0  0  0  0  0  0  0  0  0  0
  -24.3590  -13.0870   20.8370 C   0  0  0  0  0  0  0  0  0  0  0  0
  -24.8120  -11.7370   20.7280 C   0  0  0  0  0  0  0  0  0  0  0  0
  -26.4150  -12.9970   20.0650 N   0  0  0  0  0  0  0  0  0  0  0  0
  -26.0740  -11.7070   20.3180 N   0  0  0  0  0  0  0  0  0  0  0  0
  -24.0960  -10.4720   20.9360 C   0  0  0  0  0  0  0  0  0  0  0  0
  -24.5350   -9.5220   21.8850 C   0  0  0  0  0  3  0  0  0  0  0  0
  -23.8200   -8.3210   22.0790 C   0  0  0  0  0  3  0  0  0  0  0  0
  -22.6530   -8.0600   21.3230 C   0  0  0  0  0  0  0  0  0  0  0  0
  -22.2330   -8.9990   20.3630 C   0  0  0  0  0  3  0  0  0  0  0  0
  -22.9490  -10.1910   20.1670 C   0  0  0  0  0  3  0  0  0  0  0  0
  -21.9090   -6.9090   21.4250 O   0  0  0  0  0  0  0  0  0  0  0  0
  -21.7770   -6.2400   22.6160 C   0  0  0  0  0  0  0  0  0  0  0  0
  -21.2270   -6.8580   23.7610 C   0  0  0  0  0  3  0  0  0  0  0  0
  -21.0450   -6.1140   24.9430 C   0  0  0  0  0  3  0  0  0  0  0  0
  -21.4010   -4.7540   24.9830 C   0  0  0  0  0  0  0  0  0  0  0  0
  -21.9450   -4.1350   23.8430 C   0  0  0  0  0  3  0  0  0  0  0  0
  -22.1280   -4.8760   22.6620 C   0  0  0  0  0  0  0  0  0  0  0  0
  -22.6320   -4.2690   21.5600 F   0  0  0  0  0  0  0  0  0  0  0  0
  -21.2180   -4.0360   26.1160 F   0  0  0  0  0  0  0  0  0  0  0  0
  -22.9890  -13.5600   21.2300 C   0  0  0  0  0  0  0  0  0  0  0  0
  -22.3330  -12.8500   22.1420 N   0  0  0  0  0  0  0  0  0  0  0  0
  -22.5130  -14.5960   20.7670 O   0  0  0  0  0  0  0  0  0  0  0  0
  -22.7330  -12.0130   22.5380 H   0  0  0  0  0  0  0  0  0  0  0  0
  -21.4190  -13.1520   22.4490 H   0  0  0  0  0  0  0  0  0  0  0  0
  -25.5520  -15.2460   20.2650 N   0  0  0  0  0  0  0  0  0  0  0  0
  -24.8010  -15.8970   20.4660 H   0  0  0  0  0  0  0  0  0  0  0  0
  -26.3710  -15.6960   19.8780 H   0  0  0  0  0  0  0  0  0  0  0  0
  -27.5540  -24.6720   21.6030 C   0  0  0  0  0  1  0  0  0  0  0  0
  -28.1560  -24.9330   20.2080 C   0  0  0  0  0  3  0  0  0  0  0  0
  -28.3820  -26.4110   20.0630 O   0  0  0  0  0  0  0  0  0  0  0  0
  -24.5580  -31.7300   23.1580 C   0  0  0  0  0  0  0  0  0  0  0  0
  -27.2640  -27.2680   20.0230 C   0  0  0  0  0  0  0  0  0  0  0  0
  -23.3940  -30.3590   21.4700 C   0  0  0  0  0  3  0  0  0  0  0  0
  -24.8830  -28.8660   20.0250 C   0  0  0  0  0  0  0  0  0  0  0  0
  -25.9340  -30.7090   21.3310 C   0  0  0  0  0  2  0  0  0  0  0  0
  -26.0410  -29.3490   20.6480 C   0  0  0  0  0  0  0  0  0  0  0  0
  -27.2360  -28.5630   20.6360 C   0  0  0  0  0  3  0  0  0  0  0  0
  -26.0830  -26.8520   19.3680 C   0  0  0  0  0  3  0  0  0  0  0  0
  -24.9090  -27.6250   19.3750 C   0  0  0  0  0  3  0  0  0  0  0  0
  -23.6360  -29.7240   20.0760 C   0  0  0  0  0  2  0  0  0  0  0  0
  -24.6470  -30.9490   22.0430 N   0  0  0  0  0  0  0  0  0  0  0  0
  -23.4640  -31.9810   23.6860 O   0  0  0  0  0  0  0  0  0  0  0  0
  -22.7340  -29.3080   22.3940 C   0  0  0  0  0  0  0  0  0  0  0  0
  -21.4140  -29.1090   22.2400 N   0  0  0  0  0  0  0  0  0  0  0  0
  -23.4100  -28.6770   23.2100 O   0  0  0  0  0  0  0  0  0  0  0  0
  -20.9260  -29.6740   21.5580 H   0  0  0  0  0  0  0  0  0  0  0  0
  -18.0450  -27.8650   22.6790 C   0  0  0  0  0  0  0  0  0  0  0  0
  -20.5980  -28.1430   22.9780 C   0  0  0  0  0  3  0  0  0  0  0  0
  -20.7180  -26.7290   22.3630 C   0  0  0  0  0  2  0  0  0  0  0  0
  -19.6280  -26.4240   21.3310 C   0  0  0  0  0  2  0  0  0  0  0  0
  -18.2390  -26.5380   21.9670 C   0  0  0  0  0  2  0  0  0  0  0  0
  -19.1520  -28.6270   23.1400 C   0  0  0  0  0  0  0  0  0  0  0  0
  -18.9160  -29.8700   23.7640 C   0  0  0  0  0  3  0  0  0  0  0  0
  -17.6040  -30.3530   23.9340 C   0  0  0  0  0  3  0  0  0  0  0  0
  -16.5120  -29.5890   23.4870 C   0  0  0  0  0  3  0  0  0  0  0  0
  -16.7330  -28.3470   22.8650 C   0  0  0  0  0  3  0  0  0  0  0  0
  -25.8250  -32.3640   23.8110 C   0  0  0  0  0  3  0  0  0  0  0  0
  -25.4960  -33.7560   24.1510 N   0  0  0  0  0  0  0  0  0  0  0  0
  -25.8280  -34.8190   23.4070 C   0  0  0  0  0  0  0  0  0  0  0  0
  -26.5090  -34.7330   22.3810 O   0  0  0  0  0  0  0  0  0  0  0  0
  -24.8830  -33.8950   24.9400 H   0  0  0  0  0  0  0  0  0  0  0  0
  -24.0860  -36.6010   23.0580 C   0  0  0  0  0  1  0  0  0  0  0  0
  -25.3240  -36.1990   23.8730 C   0  0  0  0  0  3  0  0  0  0  0  0
  -27.4390  -37.1030   24.7350 C   0  0  0  0  0  1  0  0  0  0  0  0
  -26.3480  -37.2630   23.7770 N   0  0  0  0  0  0  0  0  0  0  0  0
  -25.9320  -38.1780   23.9200 H   0  0  0  0  0  0  0  0  0  0  0  0
  -26.3210  -31.5790   25.0880 C   0  0  1  0  0  0  0  0  0  0  0  0
  -25.2070  -31.3150   26.1290 C   0  0  0  0  0  1  0  0  0  0  0  0
  -26.9280  -30.2130   24.6930 C   0  0  0  0  0  1  0  0  0  0  0  0
  -27.4490  -32.3750   25.7840 C   0  0  0  0  0  1  0  0  0  0  0  0
  1 10  1  0
  1  3  1  0
  2  3  1  0
  2 53  1  0
  3  6  1  0
  4  1  2  0
  5  2  2  0
  7  8  2  0
  7 10  1  0
  8 11  1  0
  9 12  1  0
 10  9  2  0
 11 22  1  0
 11 12  2  0
 12 13  1  0
 14 22  1  0
 15 20  1  0
 16 17  1  0
 16 15  1  0
 18 17  1  0
 18 27  1  0
 18 19  1  0
 20 14  1  0
 20 19  1  0
 21 14  2  0
 22 23  1  0
 24 25  2  0
 25 44  1  0
 26 25  1  0
 26 29  1  0
 27 28  1  0
 27 24  1  0
 28 26  2  0
 29 30  1  0
 30 31  2  0
 32 35  1  0
 32 31  1  0
 33 32  2  0
 34 33  1  0
 34 29  2  0
 35 36  1  0
 36 41  2  0
 36 37  1  0
 37 38  2  0
 38 39  1  0
 39 43  1  0
 40 39  2  0
 41 40  1  0
 42 41  1  0
 44 45  1  0
 45 48  1  0
 45 47  1  0
 46 44  2  0
 49 24  1  0
 49 50  1  0
 51 49  1  0
 53 52  1  0
 54 53  1  0
 55 66  2  0
 56 54  1  0
 56 61  1  0
 57 65  1  0
 57 67  1  0
 58 64  1  0
 58 60  1  0
 59 65  1  0
 60 59  1  0
 61 60  2  0
 62 63  1  0
 62 56  2  0
 63 58  2  0
 64 57  1  0
 65 55  1  0
 67 69  2  0
 68 67  1  0
 70 68  1  0
 71 80  2  0
 71 76  1  0
 72 68  1  0
 72 76  1  0
 73 72  1  0
 74 75  1  0
 74 73  1  0
 75 71  1  0
 76 77  2  0
 77 78  1  0
 79 78  2  0
 80 79  1  0
 81 55  1  0
 81 82  1  0
 81 91  1  0
 82 85  1  0
 83 87  1  0
 83 82  1  0
 84 83  2  0
 87 86  1  0
 89 87  1  0
 89 90  1  0
 89 88  1  0
 91 94  1  1
 91 92  1  0
 93 91  1  0
M  ISO  4  14 100  22 100  53 101  54 101
M  END
>  <TORSDO>  (45) 
F 18

>  <SCORE>  (45) 
-13.687

>  <name>  (45) 
44

>  <ligand_id>  (45) 
44

>  <original_smiles>  (45) 
[H]c1c([H])c([H])c2c(c1[H])C([H])([H])C([H])([H])C([H])([H])C2([H])N([H])C(=O)C1([H])N(C(=O)C([H])(N([H])C(=O)C([H])(N([H])C([H])([H])[H])C([H])([H])[H])C(C([H])([H])[H])(C([H])([H])[H])C([H])([H])[H])C([H])([H])c2c([H])c(OC([H])(C(=O)N([H])C(=O)c3c([H])c([H])c(N([H])C(=O)N4C([H])([H])C([H])([H])C([H])([H])C([H])(n5nc(-c6c([H])c([H])c(Oc7c([H])c([H])c(F)c([H])c7F)c([H])c6[H])c(C(=O)N([H])[H])c5N([H])[H])C4([H])[H])c(F)c3[H])C([H])([H])[H])c([H])c([H])c2C1([H])[H]

>  <smiles>  (45) 
[H]c1c([H])c([H])c2c(c1[H])C([H])([H])C([H])([H])C([H])([H])C2([H])N([H])C(=O)C1([H])N(C(=O)C([H])(N([H])C(=O)C([H])(N([H])C([H])([H])[H])C([H])([H])[H])C(C([H])([H])[H])(C([H])([H])[H])C([H])([H])[H])C([H])([H])c2c([H])c(OC([H])(C(=O)N([H])C(=O)c3c([H])c([H])c(N([H])C(=O)N4C([H])([H])C([H])([H])C([H])([H])C([H])(n5nc(-c6c([H])c([H])c(Oc7c([H])c([H])c(F)c([H])c7F)c([H])c6[H])c(C(=O)N([H])[H])c5N([H])[H])C4([H])[H])c(F)c3[H])C([H])([H])[H])c([H])c([H])c2C1([H])[H]

$$$$
45:0:0
     RDKit          3D

 99108  0  0  1  0  0  0  0  0999 V2000
  -27.3390  -23.4340   20.2080 C   0  0  0  0  0  3  0  0  0  0  0  0
  -28.5430  -23.9190   19.6330 C   0  0  0  0  0  0  0  0  0  0  0  0
  -27.4120  -22.0720   20.3430 C   0  0  0  0  0  0  0  0  0  0  0  0
  -29.3230  -22.7580   19.5080 C   0  0  0  0  0  0  0  0  0  0  0  0
  -28.6600  -21.5660   19.9380 N   0  0  0  0  0  0  0  0  0  0  0  0
  -28.4870  -19.1810   20.8250 C   0  0  0  0  0  3  0  0  0  0  0  0
  -30.0950  -19.5560   19.1060 C   0  0  0  0  0  3  0  0  0  0  0  0
  -29.0930  -20.1330   19.9530 C   0  0  0  0  0  0  0  0  0  0  0  0
  -28.7880  -17.7890   20.8220 C   0  0  0  0  0  0  0  0  0  0  0  0
  -29.7770  -17.2260   19.9740 C   0  0  0  0  0  0  0  0  0  0  0  0
  -30.4350  -18.1550   19.1110 C   0  0  0  0  0  0  0  0  0  0  0  0
  -31.3740  -17.7140   18.2410 F   0  0  0  0  0  0  0  0  0  0  0  0
  -30.6760  -14.7730   19.4880 C   0  0  0  0  0  0  0  0  0  0  0  0
  -30.3660  -12.5500   18.4030 C   0  0  0  0  0  2  0  0  0  0  0  0
  -29.2510  -12.7060   17.3420 C   0  0  0  0  0  2  0  0  0  0  0  0
  -27.8510  -12.5360   17.9690 C   0  0  0  0  0  2  0  0  0  0  0  0
  -27.6820  -13.3530   19.2790 C   0  0  0  0  0  3  0  0  0  0  0  0
  -28.8850  -13.1410   20.2220 C   0  0  0  0  0  2  0  0  0  0  0  0
  -30.0980  -13.5270   19.4780 N   0  0  0  0  0  0  0  0  0  0  0  0
  -31.7680  -14.9710   18.9430 O   0  0  0  0  0  0  0  0  0  0  0  0
  -29.9000  -15.7600   20.0390 N   0  0  0  0  0  0  0  0  0  0  0  0
  -29.1170  -15.3800   20.5490 H   0  0  0  0  0  0  0  0  0  0  0  0
  -25.4480  -13.9510   20.4030 C   0  0  0  0  0  0  0  0  0  0  0  0
  -24.4150  -13.1750   20.8520 C   0  0  0  0  0  0  0  0  0  0  0  0
  -24.8150  -11.8210   20.6360 C   0  0  0  0  0  0  0  0  0  0  0  0
  -26.4120  -13.0670   19.9390 N   0  0  0  0  0  0  0  0  0  0  0  0
  -26.0430  -11.7760   20.1360 N   0  0  0  0  0  0  0  0  0  0  0  0
  -24.0770  -10.5670   20.8260 C   0  0  0  0  0  0  0  0  0  0  0  0
  -24.5350   -9.5660   21.7100 C   0  0  0  0  0  3  0  0  0  0  0  0
  -23.7970   -8.3770   21.8890 C   0  0  0  0  0  3  0  0  0  0  0  0
  -22.5850   -8.1800   21.1850 C   0  0  0  0  0  0  0  0  0  0  0  0
  -22.1430   -9.1700   20.2890 C   0  0  0  0  0  3  0  0  0  0  0  0
  -22.8820  -10.3510   20.1090 C   0  0  0  0  0  3  0  0  0  0  0  0
  -21.8140   -7.0460   21.2760 O   0  0  0  0  0  0  0  0  0  0  0  0
  -21.7090   -6.3390   22.4470 C   0  0  0  0  0  0  0  0  0  0  0  0
  -21.2480   -6.9380   23.6410 C   0  0  0  0  0  3  0  0  0  0  0  0
  -21.0900   -6.1560   24.8030 C   0  0  0  0  0  3  0  0  0  0  0  0
  -21.3830   -4.7800   24.7720 C   0  0  0  0  0  0  0  0  0  0  0  0
  -21.8350   -4.1820   23.5830 C   0  0  0  0  0  3  0  0  0  0  0  0
  -21.9960   -4.9600   22.4230 C   0  0  0  0  0  0  0  0  0  0  0  0
  -22.4130   -4.3750   21.2730 F   0  0  0  0  0  0  0  0  0  0  0  0
  -21.2230   -4.0270   25.8870 F   0  0  0  0  0  0  0  0  0  0  0  0
  -23.0960  -13.6610   21.3770 C   0  0  0  0  0  0  0  0  0  0  0  0
  -22.4930  -12.9220   22.3030 N   0  0  0  0  0  0  0  0  0  0  0  0
  -22.6130  -14.7290   21.0040 O   0  0  0  0  0  0  0  0  0  0  0  0
  -22.8970  -12.0550   22.6220 H   0  0  0  0  0  0  0  0  0  0  0  0
  -21.6150  -13.2290   22.6960 H   0  0  0  0  0  0  0  0  0  0  0  0
  -25.6430  -15.3270   20.3420 N   0  0  0  0  0  0  0  0  0  0  0  0
  -24.9560  -15.9550   20.7430 H   0  0  0  0  0  0  0  0  0  0  0  0
  -26.5590  -15.7550   20.2720 H   0  0  0  0  0  0  0  0  0  0  0  0
  -28.0700  -16.9400   21.6740 N   0  0  0  0  0  0  0  0  0  0  0  0
  -27.4280  -17.3890   22.3190 H   0  0  0  0  0  0  0  0  0  0  0  0
  -28.6190  -16.2390   22.1600 H   0  0  0  0  0  0  0  0  0  0  0  0
  -26.3990  -21.2650   20.7660 O   0  0  0  0  0  0  0  0  0  0  0  0
  -25.6420  -21.8110   20.9440 H   0  0  0  0  0  0  0  0  0  0  0  0
  -30.5820  -22.6680   18.9980 O   0  0  0  0  0  0  0  0  0  0  0  0
  -30.8740  -23.5440   18.7730 H   0  0  0  0  0  0  0  0  0  0  0  0
  -28.7760  -25.4030   19.1280 C   0  0  0  0  0  2  0  0  0  0  0  0
  -28.4990  -26.5910   19.9720 O   0  0  0  0  0  0  0  0  0  0  0  0
  -24.5100  -31.7340   23.0780 C   0  0  0  0  0  0  0  0  0  0  0  0
  -27.3240  -27.3600   19.9080 C   0  0  0  0  0  0  0  0  0  0  0  0
  -23.3660  -30.3230   21.4040 C   0  0  0  0  0  3  0  0  0  0  0  0
  -24.8820  -28.8620   19.9430 C   0  0  0  0  0  0  0  0  0  0  0  0
  -25.8890  -30.7510   21.2320 C   0  0  0  0  0  2  0  0  0  0  0  0
  -26.0260  -29.3900   20.5530 C   0  0  0  0  0  0  0  0  0  0  0  0
  -27.2430  -28.6450   20.5340 C   0  0  0  0  0  3  0  0  0  0  0  0
  -26.1530  -26.8800   19.2820 C   0  0  0  0  0  3  0  0  0  0  0  0
  -24.9470  -27.6110   19.3050 C   0  0  0  0  0  3  0  0  0  0  0  0
  -23.6080  -29.6810   20.0110 C   0  0  0  0  0  2  0  0  0  0  0  0
  -24.6060  -30.9520   21.9620 N   0  0  0  0  0  0  0  0  0  0  0  0
  -23.4170  -31.9550   23.6180 O   0  0  0  0  0  0  0  0  0  0  0  0
  -22.7420  -29.2630   22.3410 C   0  0  0  0  0  0  0  0  0  0  0  0
  -21.4250  -29.0340   22.2020 N   0  0  0  0  0  0  0  0  0  0  0  0
  -23.4420  -28.6500   23.1500 O   0  0  0  0  0  0  0  0  0  0  0  0
  -20.9160  -29.5850   21.5260 H   0  0  0  0  0  0  0  0  0  0  0  0
  -18.1030  -27.6790   22.6460 C   0  0  0  0  0  0  0  0  0  0  0  0
  -20.6430  -28.0450   22.9460 C   0  0  0  0  0  3  0  0  0  0  0  0
  -20.8160  -26.6320   22.3450 C   0  0  0  0  0  2  0  0  0  0  0  0
  -19.7390  -26.2820   21.3130 C   0  0  0  0  0  2  0  0  0  0  0  0
  -18.3450  -26.3530   21.9450 C   0  0  0  0  0  2  0  0  0  0  0  0
  -19.1820  -28.4810   23.1020 C   0  0  0  0  0  0  0  0  0  0  0  0
  -18.9020  -29.7230   23.7130 C   0  0  0  0  0  3  0  0  0  0  0  0
  -17.5750  -30.1620   23.8760 C   0  0  0  0  0  3  0  0  0  0  0  0
  -16.5090  -29.3550   23.4390 C   0  0  0  0  0  3  0  0  0  0  0  0
  -16.7740  -28.1160   22.8290 C   0  0  0  0  0  3  0  0  0  0  0  0
  -25.7670  -32.4010   23.7190 C   0  0  0  0  0  3  0  0  0  0  0  0
  -25.3970  -33.7710   24.1050 N   0  0  0  0  0  0  0  0  0  0  0  0
  -25.6750  -34.8670   23.3870 C   0  0  0  0  0  0  0  0  0  0  0  0
  -26.3410  -34.8380   22.3490 O   0  0  0  0  0  0  0  0  0  0  0  0
  -24.8040  -33.8670   24.9170 H   0  0  0  0  0  0  0  0  0  0  0  0
  -23.8670  -36.5950   23.1100 C   0  0  0  0  0  1  0  0  0  0  0  0
  -25.1260  -36.2110   23.9050 C   0  0  0  0  0  3  0  0  0  0  0  0
  -27.2200  -37.1530   24.7730 C   0  0  0  0  0  1  0  0  0  0  0  0
  -26.1070  -37.3160   23.8410 N   0  0  0  0  0  0  0  0  0  0  0  0
  -25.6580  -38.2070   24.0360 H   0  0  0  0  0  0  0  0  0  0  0  0
  -26.3280  -31.6070   24.9630 C   0  0  1  0  0  0  0  0  0  0  0  0
  -25.2510  -31.2760   26.0230 C   0  0  0  0  0  1  0  0  0  0  0  0
  -26.9760  -30.2760   24.5170 C   0  0  0  0  0  1  0  0  0  0  0  0
  -27.4410  -32.4320   25.6540 C   0  0  0  0  0  1  0  0  0  0  0  0
  1  3  2  0
  2  1  1  0
  3 54  1  0
  4  2  2  0
  4  5  1  0
  5  8  1  0
  5  3  1  0
  7 11  2  0
  7  8  1  0
  8  6  2  0
  9  6  1  0
  9 51  1  0
 10 21  1  0
 10  9  2  0
 11 10  1  0
 12 11  1  0
 13 21  1  0
 14 19  1  0
 15 16  1  0
 15 14  1  0
 17 16  1  0
 17 26  1  0
 17 18  1  0
 19 13  1  0
 19 18  1  0
 20 13  2  0
 21 22  1  0
 23 24  2  0
 24 43  1  0
 25 28  1  0
 25 24  1  0
 26 27  1  0
 26 23  1  0
 27 25  2  0
 28 29  1  0
 29 30  2  0
 31 34  1  0
 31 30  1  0
 32 31  2  0
 33 32  1  0
 33 28  2  0
 34 35  1  0
 35 36  1  0
 36 37  2  0
 38 37  1  0
 38 42  1  0
 39 38  2  0
 40 35  2  0
 40 39  1  0
 41 40  1  0
 43 44  1  0
 44 46  1  0
 44 47  1  0
 45 43  2  0
 48 23  1  0
 48 49  1  0
 50 48  1  0
 51 53  1  0
 51 52  1  0
 54 55  1  0
 56  4  1  0
 57 56  1  0
 58  2  1  0
 58 59  1  0
 60 71  2  0
 61 59  1  0
 61 66  1  0
 62 70  1  0
 62 72  1  0
 63 69  1  0
 63 65  1  0
 64 70  1  0
 65 64  1  0
 66 65  2  0
 67 68  1  0
 67 61  2  0
 68 63  2  0
 69 62  1  0
 70 60  1  0
 72 74  2  0
 73 72  1  0
 75 73  1  0
 76 85  2  0
 76 81  1  0
 77 73  1  0
 77 81  1  0
 78 77  1  0
 79 80  1  0
 79 78  1  0
 80 76  1  0
 81 82  2  0
 82 83  1  0
 84 83  2  0
 85 84  1  0
 86 60  1  0
 86 87  1  0
 86 96  1  0
 87 90  1  0
 88 92  1  0
 88 87  1  0
 89 88  2  0
 92 91  1  0
 94 92  1  0
 94 95  1  0
 94 93  1  0
 96 99  1  1
 96 97  1  0
 98 96  1  0
M  ISO  4  13 100  21 100  58 101  59 101
M  END
>  <TORSDO>  (46) 
F 21

>  <SCORE>  (46) 
-10.315

>  <name>  (46) 
45

>  <ligand_id>  (46) 
45

>  <original_smiles>  (46) 
[H]Oc1c([H])c(C([H])([H])Oc2c([H])c([H])c3c(c2[H])C([H])([H])N(C(=O)C([H])(N([H])C(=O)C([H])(N([H])C([H])([H])[H])C([H])([H])[H])C(C([H])([H])[H])(C([H])([H])[H])C([H])([H])[H])C([H])(C(=O)N([H])C2([H])c4c([H])c([H])c([H])c([H])c4C([H])([H])C([H])([H])C2([H])[H])C3([H])[H])c(O[H])n1-c1c([H])c(F)c(N([H])C(=O)N2C([H])([H])C([H])([H])C([H])([H])C([H])(n3nc(-c4c([H])c([H])c(Oc5c([H])c([H])c(F)c([H])c5F)c([H])c4[H])c(C(=O)N([H])[H])c3N([H])[H])C2([H])[H])c(N([H])[H])c1[H]

>  <smiles>  (46) 
[H]Oc1c([H])c(C([H])([H])Oc2c([H])c([H])c3c(c2[H])C([H])([H])N(C(=O)C([H])(N([H])C(=O)C([H])(N([H])C([H])([H])[H])C([H])([H])[H])C(C([H])([H])[H])(C([H])([H])[H])C([H])([H])[H])C([H])(C(=O)N([H])C2([H])c4c([H])c([H])c([H])c([H])c4C([H])([H])C([H])([H])C2([H])[H])C3([H])[H])c(O[H])n1-c1c([H])c(F)c(N([H])C(=O)N2C([H])([H])C([H])([H])C([H])([H])C([H])(n3nc(-c4c([H])c([H])c(Oc5c([H])c([H])c(F)c([H])c5F)c([H])c4[H])c(C(=O)N([H])[H])c3N([H])[H])C2([H])[H])c(N([H])[H])c1[H]

$$$$
46:0:0
     RDKit          3D

 91 99  0  0  1  0  0  0  0  0999 V2000
  -28.9600  -23.7540   20.4320 C   0  0  0  0  0  0  0  0  0  0  0  0
  -28.9190  -22.5180   19.8100 N   0  0  0  0  0  0  0  0  0  0  0  0
  -29.6710  -23.9660   21.4180 O   0  0  0  0  0  0  0  0  0  0  0  0
  -28.4110  -22.5420   18.9350 H   0  0  0  0  0  0  0  0  0  0  0  0
  -29.8810  -20.7340   21.3340 C   0  0  0  0  0  3  0  0  0  0  0  0
  -30.2440  -19.3230   21.3330 C   0  0  0  0  0  0  0  0  0  0  0  0
  -30.0890  -18.6870   20.1160 C   0  0  0  0  0  0  0  0  0  0  0  0
  -29.4110  -21.2510   20.1410 C   0  0  0  0  0  0  0  0  0  0  0  0
  -30.7910  -18.6280   22.5420 C   0  0  0  0  0  1  0  0  0  0  0  0
  -29.4080  -19.8910   18.9920 S   0  0  0  0  0  0  0  0  0  0  0  0
  -30.5850  -17.2830   19.6080 C   0  0  0  0  0  2  0  0  0  0  0  0
  -30.8200  -14.7560   19.9230 C   0  0  0  0  0  0  0  0  0  0  0  0
  -30.5010  -12.4910   18.9460 C   0  0  0  0  0  2  0  0  0  0  0  0
  -29.5110  -12.5860   17.7650 C   0  0  0  0  0  2  0  0  0  0  0  0
  -28.0630  -12.4360   18.2670 C   0  0  0  0  0  2  0  0  0  0  0  0
  -27.7610  -13.3350   19.4970 C   0  0  0  0  0  3  0  0  0  0  0  0
  -28.8720  -13.2480   20.5680 C   0  0  0  0  0  2  0  0  0  0  0  0
  -30.1450  -13.5590   19.9080 N   0  0  0  0  0  0  0  0  0  0  0  0
  -31.9840  -14.8050   19.5190 O   0  0  0  0  0  0  0  0  0  0  0  0
  -30.1250  -15.9320   20.1340 N   0  0  0  0  0  0  0  0  0  0  0  0
  -29.1660  -15.8550   20.4370 H   0  0  0  0  0  0  0  0  0  0  0  0
  -25.4260  -13.9490   20.3620 C   0  0  0  0  0  0  0  0  0  0  0  0
  -24.3690  -13.1860   20.7750 C   0  0  0  0  0  0  0  0  0  0  0  0
  -24.8060  -11.8290   20.6940 C   0  0  0  0  0  0  0  0  0  0  0  0
  -26.4410  -13.0590   20.0540 N   0  0  0  0  0  0  0  0  0  0  0  0
  -26.0780  -11.7760   20.3170 N   0  0  0  0  0  0  0  0  0  0  0  0
  -24.0680  -10.5740   20.8980 C   0  0  0  0  0  0  0  0  0  0  0  0
  -24.4930   -9.6110   21.8400 C   0  0  0  0  0  3  0  0  0  0  0  0
  -23.7550   -8.4240   22.0320 C   0  0  0  0  0  3  0  0  0  0  0  0
  -22.5790   -8.1890   21.2830 C   0  0  0  0  0  0  0  0  0  0  0  0
  -22.1730   -9.1410   20.3300 C   0  0  0  0  0  3  0  0  0  0  0  0
  -22.9100  -10.3200   20.1360 C   0  0  0  0  0  3  0  0  0  0  0  0
  -21.8130   -7.0530   21.3830 O   0  0  0  0  0  0  0  0  0  0  0  0
  -21.7020   -6.3620   22.5630 C   0  0  0  0  0  0  0  0  0  0  0  0
  -21.2210   -6.9730   23.7410 C   0  0  0  0  0  3  0  0  0  0  0  0
  -21.0580   -6.2080   24.9140 C   0  0  0  0  0  3  0  0  0  0  0  0
  -21.3650   -4.8350   24.9080 C   0  0  0  0  0  0  0  0  0  0  0  0
  -21.8390   -4.2240   23.7340 C   0  0  0  0  0  3  0  0  0  0  0  0
  -22.0030   -4.9850   22.5640 C   0  0  0  0  0  0  0  0  0  0  0  0
  -22.4400   -4.3870   21.4300 F   0  0  0  0  0  0  0  0  0  0  0  0
  -21.2010   -4.0980   26.0320 F   0  0  0  0  0  0  0  0  0  0  0  0
  -22.9960  -13.6800   21.1270 C   0  0  0  0  0  0  0  0  0  0  0  0
  -22.3070  -12.9870   22.0270 N   0  0  0  0  0  0  0  0  0  0  0  0
  -22.5460  -14.7170   20.6410 O   0  0  0  0  0  0  0  0  0  0  0  0
  -22.6860  -12.1480   22.4400 H   0  0  0  0  0  0  0  0  0  0  0  0
  -21.3890  -13.3010   22.3060 H   0  0  0  0  0  0  0  0  0  0  0  0
  -25.6030  -15.3210   20.2000 N   0  0  0  0  0  0  0  0  0  0  0  0
  -24.8520  -15.9820   20.3590 H   0  0  0  0  0  0  0  0  0  0  0  0
  -26.4340  -15.7520   19.8160 H   0  0  0  0  0  0  0  0  0  0  0  0
  -28.0300  -24.9190   19.8610 C   0  0  0  0  0  2  0  0  0  0  0  0
  -28.2630  -26.3550   20.2470 O   0  0  0  0  0  0  0  0  0  0  0  0
  -24.5440  -31.8430   23.1910 C   0  0  0  0  0  0  0  0  0  0  0  0
  -27.1750  -27.2580   20.1490 C   0  0  0  0  0  0  0  0  0  0  0  0
  -23.3520  -30.4330   21.5570 C   0  0  0  0  0  3  0  0  0  0  0  0
  -24.8130  -28.8970   20.1270 C   0  0  0  0  0  0  0  0  0  0  0  0
  -25.8950  -30.7550   21.3820 C   0  0  0  0  0  2  0  0  0  0  0  0
  -25.9810  -29.3740   20.7360 C   0  0  0  0  0  0  0  0  0  0  0  0
  -27.1610  -28.5630   20.7450 C   0  0  0  0  0  3  0  0  0  0  0  0
  -25.9900  -26.8710   19.4760 C   0  0  0  0  0  3  0  0  0  0  0  0
  -24.8230  -27.6530   19.4870 C   0  0  0  0  0  3  0  0  0  0  0  0
  -23.5710  -29.7650   20.1760 C   0  0  0  0  0  2  0  0  0  0  0  0
  -24.6160  -31.0300   22.1000 N   0  0  0  0  0  0  0  0  0  0  0  0
  -23.4580  -32.1150   23.7240 O   0  0  0  0  0  0  0  0  0  0  0  0
  -22.6970  -29.4130   22.5180 C   0  0  0  0  0  0  0  0  0  0  0  0
  -21.3760  -29.2070   22.3760 N   0  0  0  0  0  0  0  0  0  0  0  0
  -23.3760  -28.8080   23.3520 O   0  0  0  0  0  0  0  0  0  0  0  0
  -20.8850  -29.7470   21.6770 H   0  0  0  0  0  0  0  0  0  0  0  0
  -18.0210  -27.9250   22.8240 C   0  0  0  0  0  0  0  0  0  0  0  0
  -20.5650  -28.2620   23.1480 C   0  0  0  0  0  3  0  0  0  0  0  0
  -20.7200  -26.8220   22.6060 C   0  0  0  0  0  2  0  0  0  0  0  0
  -19.6520  -26.4470   21.5740 C   0  0  0  0  0  2  0  0  0  0  0  0
  -18.2520  -26.5670   22.1820 C   0  0  0  0  0  2  0  0  0  0  0  0
  -19.1080  -28.7280   23.2630 C   0  0  0  0  0  0  0  0  0  0  0  0
  -18.8390  -29.9960   23.8220 C   0  0  0  0  0  3  0  0  0  0  0  0
  -17.5170  -30.4630   23.9470 C   0  0  0  0  0  3  0  0  0  0  0  0
  -16.4450  -29.6570   23.5250 C   0  0  0  0  0  3  0  0  0  0  0  0
  -16.6980  -28.3900   22.9690 C   0  0  0  0  0  3  0  0  0  0  0  0
  -25.8220  -32.4890   23.8120 C   0  0  0  0  0  3  0  0  0  0  0  0
  -26.3490  -31.7210   25.0860 C   0  0  1  0  0  0  0  0  0  0  0  0
  -25.2590  -31.4700   26.1550 C   0  0  0  0  0  1  0  0  0  0  0  0
  -26.9470  -30.3510   24.6940 C   0  0  0  0  0  1  0  0  0  0  0  0
  -27.4910  -32.5290   25.7470 C   0  0  0  0  0  1  0  0  0  0  0  0
  -25.4970  -33.8830   24.1450 N   0  0  0  0  0  0  0  0  0  0  0  0
  -25.8150  -34.9420   23.3890 C   0  0  0  0  0  0  0  0  0  0  0  0
  -26.4830  -34.8480   22.3540 O   0  0  0  0  0  0  0  0  0  0  0  0
  -24.9050  -34.0290   24.9490 H   0  0  0  0  0  0  0  0  0  0  0  0
  -24.0680  -36.7180   23.0460 C   0  0  0  0  0  1  0  0  0  0  0  0
  -25.3160  -36.3240   23.8520 C   0  0  0  0  0  3  0  0  0  0  0  0
  -27.4420  -37.2300   24.6800 C   0  0  0  0  0  1  0  0  0  0  0  0
  -26.3370  -37.3880   23.7380 N   0  0  0  0  0  0  0  0  0  0  0  0
  -25.9220  -38.3040   23.8880 H   0  0  0  0  0  0  0  0  0  0  0  0
  1  3  2  0
  2  8  1  0
  2  1  1  0
  4  2  1  0
  6  5  1  0
  6  9  1  0
  7  6  2  0
  8  5  2  0
 10  7  1  0
 10  8  1  0
 11  7  1  0
 11 20  1  0
 12 20  1  0
 13 18  1  0
 14 15  1  0
 14 13  1  0
 16 15  1  0
 16 25  1  0
 16 17  1  0
 18 12  1  0
 18 17  1  0
 19 12  2  0
 20 21  1  0
 22 23  2  0
 23 42  1  0
 24 23  1  0
 24 27  1  0
 25 26  1  0
 25 22  1  0
 26 24  2  0
 27 28  1  0
 28 29  2  0
 30 33  1  0
 30 29  1  0
 31 30  2  0
 32 31  1  0
 32 27  2  0
 33 34  1  0
 34 39  2  0
 34 35  1  0
 35 36  2  0
 37 36  1  0
 37 41  1  0
 38 37  2  0
 39 38  1  0
 40 39  1  0
 42 43  1  0
 43 46  1  0
 43 45  1  0
 44 42  2  0
 47 48  1  0
 47 22  1  0
 49 47  1  0
 50 51  1  0
 50  1  1  0
 52 63  2  0
 53 51  1  0
 53 58  1  0
 54 62  1  0
 54 64  1  0
 55 61  1  0
 55 57  1  0
 56 62  1  0
 57 58  2  0
 57 56  1  0
 59 60  1  0
 59 53  2  0
 60 55  2  0
 61 54  1  0
 62 52  1  0
 64 66  2  0
 65 64  1  0
 67 65  1  0
 68 77  2  0
 68 73  1  0
 69 65  1  0
 69 73  1  0
 70 69  1  0
 71 72  1  0
 71 70  1  0
 72 68  1  0
 73 74  2  0
 74 75  1  0
 76 75  2  0
 77 76  1  0
 78 52  1  0
 78 83  1  0
 78 79  1  0
 79 82  1  1
 79 80  1  0
 81 79  1  0
 83 86  1  0
 84 88  1  0
 84 83  1  0
 85 84  2  0
 88 87  1  0
 90 88  1  0
 90 91  1  0
 90 89  1  0
M  ISO  4  12 100  20 100  50 101  51 101
M  END
>  <TORSDO>  (47) 
F 19

>  <SCORE>  (47) 
-13.795

>  <name>  (47) 
46

>  <ligand_id>  (47) 
46

>  <original_smiles>  (47) 
[H]c1c([H])c([H])c2c(c1[H])C([H])([H])C([H])([H])C([H])([H])C2([H])N([H])C(=O)C1([H])N(C(=O)C([H])(N([H])C(=O)C([H])(N([H])C([H])([H])[H])C([H])([H])[H])C(C([H])([H])[H])(C([H])([H])[H])C([H])([H])[H])C([H])([H])c2c([H])c(OC([H])([H])C(=O)N([H])c3sc(C([H])([H])N([H])C(=O)N4C([H])([H])C([H])([H])C([H])([H])C([H])(n5nc(-c6c([H])c([H])c(Oc7c([H])c([H])c(F)c([H])c7F)c([H])c6[H])c(C(=O)N([H])[H])c5N([H])[H])C4([H])[H])c(C([H])([H])[H])c3[H])c([H])c([H])c2C1([H])[H]

>  <smiles>  (47) 
[H]c1c([H])c([H])c2c(c1[H])C([H])([H])C([H])([H])C([H])([H])C2([H])N([H])C(=O)C1([H])N(C(=O)C([H])(N([H])C(=O)C([H])(N([H])C([H])([H])[H])C([H])([H])[H])C(C([H])([H])[H])(C([H])([H])[H])C([H])([H])[H])C([H])([H])c2c([H])c(OC([H])([H])C(=O)N([H])c3sc(C([H])([H])N([H])C(=O)N4C([H])([H])C([H])([H])C([H])([H])C([H])(n5nc(-c6c([H])c([H])c(Oc7c([H])c([H])c(F)c([H])c7F)c([H])c6[H])c(C(=O)N([H])[H])c5N([H])[H])C4([H])[H])c(C([H])([H])[H])c3[H])c([H])c([H])c2C1([H])[H]

$$$$
47:0:0
     RDKit          3D

 95103  0  0  1  0  0  0  0  0999 V2000
  -29.6360  -21.3290   21.7780 C   0  0  0  0  0  0  0  0  0  0  0  0
  -29.3580  -21.3240   23.0830 N   0  0  0  0  0  4  0  0  0  0  0  0
  -29.3880  -22.5260   21.1850 N   0  0  0  0  0  0  0  0  0  0  0  0
  -29.4550  -20.4580   23.5950 H   0  0  0  0  0  0  0  0  0  0  0  0
  -29.0840  -22.1420   23.6000 H   0  0  0  0  0  0  0  0  0  0  0  0
  -28.9220  -23.1900   21.7830 H   0  0  0  0  0  0  0  0  0  0  0  0
  -29.3350  -19.3890   20.1900 C   0  0  0  0  0  3  0  0  0  0  0  0
  -29.4850  -17.9960   19.9540 C   0  0  0  0  0  3  0  0  0  0  0  0
  -31.2810  -17.9010   21.5840 C   0  0  0  0  0  3  0  0  0  0  0  0
  -30.0920  -20.0340   21.1950 C   0  0  0  0  0  0  0  0  0  0  0  0
  -30.4160  -17.2240   20.6950 C   0  0  0  0  0  0  0  0  0  0  0  0
  -31.1210  -19.2860   21.8340 C   0  0  0  0  0  0  0  0  0  0  0  0
  -31.9020  -19.8650   22.7800 F   0  0  0  0  0  0  0  0  0  0  0  0
  -31.0420  -14.8170   20.2190 C   0  0  0  0  0  0  0  0  0  0  0  0
  -30.7980  -12.6000   19.1470 C   0  0  0  0  0  2  0  0  0  0  0  0
  -29.8240  -12.7410   17.9590 C   0  0  0  0  0  2  0  0  0  0  0  0
  -28.3560  -12.6090   18.4150 C   0  0  0  0  0  2  0  0  0  0  0  0
  -28.0330  -13.4770   19.6600 C   0  0  0  0  0  3  0  0  0  0  0  0
  -29.1110  -13.2810   20.7500 C   0  0  0  0  0  2  0  0  0  0  0  0
  -30.4200  -13.6040   20.1540 N   0  0  0  0  0  0  0  0  0  0  0  0
  -32.1540  -15.0270   19.7270 O   0  0  0  0  0  0  0  0  0  0  0  0
  -30.2840  -15.7980   20.7530 N   0  0  0  0  0  0  0  0  0  0  0  0
  -29.3930  -15.4710   21.0950 H   0  0  0  0  0  0  0  0  0  0  0  0
  -25.6590  -14.1160   20.4280 C   0  0  0  0  0  0  0  0  0  0  0  0
  -24.5840  -13.3540   20.8030 C   0  0  0  0  0  0  0  0  0  0  0  0
  -25.0190  -11.9970   20.7340 C   0  0  0  0  0  0  0  0  0  0  0  0
  -26.6840  -13.2200   20.1610 N   0  0  0  0  0  0  0  0  0  0  0  0
  -26.3010  -11.9400   20.3980 N   0  0  0  0  0  0  0  0  0  0  0  0
  -24.2730  -10.7450   20.9140 C   0  0  0  0  0  0  0  0  0  0  0  0
  -24.6330   -9.8090   21.9080 C   0  0  0  0  0  3  0  0  0  0  0  0
  -23.8900   -8.6200   22.0770 C   0  0  0  0  0  3  0  0  0  0  0  0
  -22.7730   -8.3580   21.2500 C   0  0  0  0  0  0  0  0  0  0  0  0
  -22.4320   -9.2820   20.2450 C   0  0  0  0  0  3  0  0  0  0  0  0
  -23.1760  -10.4620   20.0750 C   0  0  0  0  0  3  0  0  0  0  0  0
  -22.0070   -7.2190   21.3220 O   0  0  0  0  0  0  0  0  0  0  0  0
  -21.7810   -6.5780   22.5130 C   0  0  0  0  0  0  0  0  0  0  0  0
  -21.1230   -7.2130   23.5890 C   0  0  0  0  0  3  0  0  0  0  0  0
  -20.8520   -6.4950   24.7710 C   0  0  0  0  0  3  0  0  0  0  0  0
  -21.2270   -5.1420   24.8750 C   0  0  0  0  0  0  0  0  0  0  0  0
  -21.8790   -4.5070   23.8030 C   0  0  0  0  0  3  0  0  0  0  0  0
  -22.1520   -5.2230   22.6250 C   0  0  0  0  0  0  0  0  0  0  0  0
  -22.7620   -4.6000   21.5880 F   0  0  0  0  0  0  0  0  0  0  0  0
  -20.9570   -4.4500   26.0070 F   0  0  0  0  0  0  0  0  0  0  0  0
  -23.2020  -13.8540   21.1100 C   0  0  0  0  0  0  0  0  0  0  0  0
  -22.4800  -13.1580   21.9830 N   0  0  0  0  0  0  0  0  0  0  0  0
  -22.7710  -14.8930   20.6150 O   0  0  0  0  0  0  0  0  0  0  0  0
  -22.8450  -12.3180   22.4090 H   0  0  0  0  0  0  0  0  0  0  0  0
  -21.5540  -13.4750   22.2330 H   0  0  0  0  0  0  0  0  0  0  0  0
  -25.8400  -15.4860   20.2780 N   0  0  0  0  0  0  0  0  0  0  0  0
  -25.0730  -16.1380   20.3980 H   0  0  0  0  0  0  0  0  0  0  0  0
  -26.6850  -15.9320   19.9450 H   0  0  0  0  0  0  0  0  0  0  0  0
  -29.5270  -23.0590   19.8090 C   0  0  0  0  0  2  0  0  0  0  0  0
  -29.6460  -24.6290   19.7770 C   0  0  0  0  0  3  0  0  0  0  0  0
  -28.3080  -25.4320   19.7380 C   0  0  0  0  0  3  0  0  0  0  0  0
  -28.4510  -26.8800   19.8020 O   0  0  0  0  0  0  0  0  0  0  0  0
  -24.6330  -31.8500   23.2730 C   0  0  0  0  0  0  0  0  0  0  0  0
  -27.2810  -27.6330   19.8520 C   0  0  0  0  0  0  0  0  0  0  0  0
  -23.4190  -30.5400   21.5660 C   0  0  0  0  0  3  0  0  0  0  0  0
  -24.8680  -29.1320   20.0110 C   0  0  0  0  0  0  0  0  0  0  0  0
  -25.9410  -30.9470   21.3480 C   0  0  0  0  0  2  0  0  0  0  0  0
  -26.0360  -29.6230   20.6080 C   0  0  0  0  0  0  0  0  0  0  0  0
  -27.2450  -28.8850   20.5230 C   0  0  0  0  0  3  0  0  0  0  0  0
  -26.0870  -27.1750   19.2450 C   0  0  0  0  0  3  0  0  0  0  0  0
  -24.8910  -27.9080   19.3270 C   0  0  0  0  0  3  0  0  0  0  0  0
  -23.6170  -29.9720   20.1370 C   0  0  0  0  0  2  0  0  0  0  0  0
  -24.6840  -31.1250   22.1190 N   0  0  0  0  0  0  0  0  0  0  0  0
  -23.5570  -32.0640   23.8470 O   0  0  0  0  0  0  0  0  0  0  0  0
  -22.8090  -29.4400   22.4670 C   0  0  0  0  0  0  0  0  0  0  0  0
  -21.4970  -29.1950   22.3130 N   0  0  0  0  0  0  0  0  0  0  0  0
  -23.5120  -28.8150   23.2670 O   0  0  0  0  0  0  0  0  0  0  0  0
  -20.9840  -29.7600   21.6500 H   0  0  0  0  0  0  0  0  0  0  0  0
  -18.1910  -27.7750   22.6760 C   0  0  0  0  0  0  0  0  0  0  0  0
  -20.7190  -28.1840   23.0300 C   0  0  0  0  0  3  0  0  0  0  0  0
  -20.9280  -26.7820   22.4140 C   0  0  0  0  0  2  0  0  0  0  0  0
  -19.8750  -26.4240   21.3590 C   0  0  0  0  0  2  0  0  0  0  0  0
  -18.4700  -26.4630   21.9640 C   0  0  0  0  0  2  0  0  0  0  0  0
  -19.2470  -28.5900   23.1620 C   0  0  0  0  0  0  0  0  0  0  0  0
  -18.9300  -29.8180   23.7840 C   0  0  0  0  0  3  0  0  0  0  0  0
  -17.5920  -30.2320   23.9240 C   0  0  0  0  0  3  0  0  0  0  0  0
  -16.5500  -29.4140   23.4500 C   0  0  0  0  0  3  0  0  0  0  0  0
  -16.8510  -28.1860   22.8330 C   0  0  0  0  0  3  0  0  0  0  0  0
  -25.9180  -32.4640   23.9080 C   0  0  0  0  0  3  0  0  0  0  0  0
  -26.4320  -31.6690   25.1700 C   0  0  1  0  0  0  0  0  0  0  0  0
  -25.3350  -31.3990   26.2270 C   0  0  0  0  0  1  0  0  0  0  0  0
  -27.0240  -30.3040   24.7480 C   0  0  0  0  0  1  0  0  0  0  0  0
  -27.5740  -32.4550   25.8540 C   0  0  0  0  0  1  0  0  0  0  0  0
  -25.6140  -33.8580   24.2610 N   0  0  0  0  0  0  0  0  0  0  0  0
  -25.9590  -34.9210   23.5240 C   0  0  0  0  0  0  0  0  0  0  0  0
  -26.6370  -34.8320   22.4980 O   0  0  0  0  0  0  0  0  0  0  0  0
  -25.0180  -34.0040   25.0620 H   0  0  0  0  0  0  0  0  0  0  0  0
  -24.2480  -36.7270   23.1790 C   0  0  0  0  0  1  0  0  0  0  0  0
  -25.4750  -36.3040   24.0010 C   0  0  0  0  0  3  0  0  0  0  0  0
  -27.5990  -37.1620   24.8840 C   0  0  0  0  0  1  0  0  0  0  0  0
  -26.5170  -37.3520   23.9210 N   0  0  0  0  0  0  0  0  0  0  0  0
  -26.1140  -38.2720   24.0730 H   0  0  0  0  0  0  0  0  0  0  0  0
  1  2  2  0
  2  4  1  0
  2  5  1  0
  3  1  1  0
  3  6  1  0
  7 10  1  0
  8  7  2  0
  8 11  1  0
  9 12  1  0
 10  1  1  0
 10 12  2  0
 11 22  1  0
 11  9  2  0
 12 13  1  0
 14 22  1  0
 15 20  1  0
 16 17  1  0
 16 15  1  0
 18 17  1  0
 18 27  1  0
 18 19  1  0
 20 14  1  0
 20 19  1  0
 21 14  2  0
 22 23  1  0
 24 25  2  0
 25 44  1  0
 26 25  1  0
 26 29  1  0
 27 28  1  0
 27 24  1  0
 28 26  2  0
 29 30  1  0
 30 31  2  0
 32 35  1  0
 32 31  1  0
 33 32  2  0
 34 33  1  0
 34 29  2  0
 35 36  1  0
 36 41  2  0
 36 37  1  0
 37 38  2  0
 38 39  1  0
 39 43  1  0
 40 39  2  0
 41 40  1  0
 42 41  1  0
 44 45  1  0
 45 48  1  0
 45 47  1  0
 46 44  2  0
 49 50  1  0
 49 24  1  0
 51 49  1  0
 52  3  1  0
 53 52  1  0
 54 53  2  0
 54 55  1  0
 55 57  1  0
 56 67  2  0
 57 62  1  0
 58 66  1  0
 58 68  1  0
 59 65  1  0
 59 61  1  0
 60 66  1  0
 61 60  1  0
 62 61  2  0
 63 64  1  0
 63 57  2  0
 64 59  2  0
 65 58  1  0
 66 56  1  0
 68 70  2  0
 69 68  1  0
 71 69  1  0
 72 81  2  0
 72 77  1  0
 73 69  1  0
 73 77  1  0
 74 73  1  0
 75 76  1  0
 75 74  1  0
 76 72  1  0
 77 78  2  0
 78 79  1  0
 80 79  2  0
 81 80  1  0
 82 56  1  0
 82 87  1  0
 82 83  1  0
 83 86  1  1
 83 84  1  0
 85 83  1  0
 87 90  1  0
 88 92  1  0
 88 87  1  0
 89 88  2  0
 92 91  1  0
 94 92  1  0
 94 95  1  0
 94 93  1  0
M  ISO  4  14 100  22 100  54 101  55 101
M  END
>  <TORSDO>  (48) 
F 20

>  <SCORE>  (48) 
-13.703

>  <name>  (48) 
47

>  <ligand_id>  (48) 
47

>  <original_smiles>  (48) 
[H]c1c([H])c([H])c2c(c1[H])C([H])([H])C([H])([H])C([H])([H])C2([H])N([H])C(=O)C1([H])N(C(=O)C([H])(N([H])C(=O)C([H])(N([H])C([H])([H])[H])C([H])([H])[H])C(C([H])([H])[H])(C([H])([H])[H])C([H])([H])[H])C([H])([H])c2c([H])c(OC([H])([H])C([H])([H])C([H])([H])[N+]([H])=C(c3c([H])c([H])c(N([H])C(=O)N4C([H])([H])C([H])([H])C([H])([H])C([H])(n5nc(-c6c([H])c([H])c(Oc7c([H])c([H])c(F)c([H])c7F)c([H])c6[H])c(C(=O)N([H])[H])c5N([H])[H])C4([H])[H])c([H])c3F)N([H])[H])c([H])c([H])c2C1([H])[H]

>  <smiles>  (48) 
[H]c1c([H])c([H])c2c(c1[H])C([H])([H])C([H])([H])C([H])([H])C2([H])N([H])C(=O)C1([H])N(C(=O)C([H])(N([H])C(=O)C([H])(N([H])C([H])([H])[H])C([H])([H])[H])C(C([H])([H])[H])(C([H])([H])[H])C([H])([H])[H])C([H])([H])c2c([H])c(OC([H])([H])C([H])([H])C([H])([H])[N+]([H])=C(c3c([H])c([H])c(N([H])C(=O)N4C([H])([H])C([H])([H])C([H])([H])C([H])(n5nc(-c6c([H])c([H])c(Oc7c([H])c([H])c(F)c([H])c7F)c([H])c6[H])c(C(=O)N([H])[H])c5N([H])[H])C4([H])[H])c([H])c3F)N([H])[H])c([H])c([H])c2C1([H])[H]

$$$$
48:0:0
     RDKit          3D

 94103  0  0  1  0  0  0  0  0999 V2000
  -30.7850  -22.2790   19.4620 C   0  0  0  0  0  0  0  0  0  0  0  0
  -30.3230  -23.7410   19.4890 C   0  0  0  0  0  2  0  0  0  0  0  0
  -28.5950  -22.2050   20.1140 C   0  0  0  0  0  2  0  0  0  0  0  0
  -29.0120  -23.7280   20.2700 C   0  0  0  0  0  3  0  0  0  0  0  0
  -29.8070  -21.3950   19.7850 N   0  0  0  0  0  0  0  0  0  0  0  0
  -31.9560  -22.0160   19.1760 O   0  0  0  0  0  0  0  0  0  0  0  0
  -31.0230  -19.1780   19.2980 C   0  0  0  0  0  3  0  0  0  0  0  0
  -31.1500  -17.7610   19.3970 C   0  0  0  0  0  3  0  0  0  0  0  0
  -28.8870  -19.0830   20.3640 C   0  0  0  0  0  3  0  0  0  0  0  0
  -29.9060  -19.9090   19.8120 C   0  0  0  0  0  0  0  0  0  0  0  0
  -30.1650  -16.9470   20.0190 C   0  0  0  0  0  0  0  0  0  0  0  0
  -29.0080  -17.6610   20.4630 C   0  0  0  0  0  0  0  0  0  0  0  0
  -27.9900  -16.9730   21.0330 F   0  0  0  0  0  0  0  0  0  0  0  0
  -30.7160  -14.5320   19.4060 C   0  0  0  0  0  0  0  0  0  0  0  0
  -30.1390  -12.4270   18.1840 C   0  0  0  0  0  2  0  0  0  0  0  0
  -29.0050  -12.6650   17.1640 C   0  0  0  0  0  2  0  0  0  0  0  0
  -27.6300  -12.4990   17.8360 C   0  0  0  0  0  2  0  0  0  0  0  0
  -27.5260  -13.2840   19.1710 C   0  0  0  0  0  3  0  0  0  0  0  0
  -28.7530  -13.0350   20.0690 C   0  0  0  0  0  2  0  0  0  0  0  0
  -29.9620  -13.3830   19.3030 N   0  0  0  0  0  0  0  0  0  0  0  0
  -31.6990  -14.6890   18.6750 O   0  0  0  0  0  0  0  0  0  0  0  0
  -30.3630  -15.5070   20.3230 N   0  0  0  0  0  0  0  0  0  0  0  0
  -25.3540  -13.8820   20.4020 C   0  0  0  0  0  0  0  0  0  0  0  0
  -24.3250  -13.1140   20.8760 C   0  0  0  0  0  0  0  0  0  0  0  0
  -24.6870  -11.7590   20.6030 C   0  0  0  0  0  0  0  0  0  0  0  0
  -26.2770  -12.9960   19.8700 N   0  0  0  0  0  0  0  0  0  0  0  0
  -25.8930  -11.7060   20.0490 N   0  0  0  0  0  0  0  0  0  0  0  0
  -23.9280  -10.5140   20.7840 C   0  0  0  0  0  0  0  0  0  0  0  0
  -24.4320   -9.4460   21.5590 C   0  0  0  0  0  3  0  0  0  0  0  0
  -23.6750   -8.2680   21.7340 C   0  0  0  0  0  3  0  0  0  0  0  0
  -22.3990   -8.1480   21.1330 C   0  0  0  0  0  0  0  0  0  0  0  0
  -21.9120   -9.2050   20.3420 C   0  0  0  0  0  3  0  0  0  0  0  0
  -22.6690  -10.3750   20.1660 C   0  0  0  0  0  3  0  0  0  0  0  0
  -21.6050   -7.0310   21.2240 O   0  0  0  0  0  0  0  0  0  0  0  0
  -21.6560   -6.2000   22.3150 C   0  0  0  0  0  0  0  0  0  0  0  0
  -21.4180   -6.6710   23.6230 C   0  0  0  0  0  3  0  0  0  0  0  0
  -21.4110   -5.7700   24.7060 C   0  0  0  0  0  3  0  0  0  0  0  0
  -21.6330   -4.3980   24.4830 C   0  0  0  0  0  0  0  0  0  0  0  0
  -21.8660   -3.9260   23.1790 C   0  0  0  0  0  3  0  0  0  0  0  0
  -21.8740   -4.8240   22.0980 C   0  0  0  0  0  0  0  0  0  0  0  0
  -22.0770   -4.3600   20.8410 F   0  0  0  0  0  0  0  0  0  0  0  0
  -21.6200   -3.5300   25.5220 F   0  0  0  0  0  0  0  0  0  0  0  0
  -23.0370  -13.6110   21.4640 C   0  0  0  0  0  0  0  0  0  0  0  0
  -22.4560  -12.8590   22.3920 N   0  0  0  0  0  0  0  0  0  0  0  0
  -22.5620  -14.6980   21.1380 O   0  0  0  0  0  0  0  0  0  0  0  0
  -22.8560  -11.9770   22.6750 H   0  0  0  0  0  0  0  0  0  0  0  0
  -21.5990  -13.1710   22.8260 H   0  0  0  0  0  0  0  0  0  0  0  0
  -25.5730  -15.2560   20.3600 N   0  0  0  0  0  0  0  0  0  0  0  0
  -24.9070  -15.9240   20.7320 H   0  0  0  0  0  0  0  0  0  0  0  0
  -26.4240  -15.6900   20.0230 H   0  0  0  0  0  0  0  0  0  0  0  0
  -31.0800  -14.1510   22.2860 C   0  0  0  0  0  2  0  0  0  0  0  0
  -30.6090  -15.2720   21.7010 C   0  0  0  0  0  3  0  0  0  0  0  0
  -27.9600  -24.8510   19.8570 C   0  0  0  0  0  2  0  0  0  0  0  0
  -28.2080  -26.2980   20.0920 O   0  0  0  0  0  0  0  0  0  0  0  0
  -24.4490  -31.7200   23.0410 C   0  0  0  0  0  0  0  0  0  0  0  0
  -27.0980  -27.1600   20.0160 C   0  0  0  0  0  0  0  0  0  0  0  0
  -23.2620  -30.3100   21.4010 C   0  0  0  0  0  3  0  0  0  0  0  0
  -24.7280  -28.7690   19.9860 C   0  0  0  0  0  0  0  0  0  0  0  0
  -25.8020  -30.6390   21.2320 C   0  0  0  0  0  2  0  0  0  0  0  0
  -25.8910  -29.2610   20.5900 C   0  0  0  0  0  0  0  0  0  0  0  0
  -27.0810  -28.4690   20.5960 C   0  0  0  0  0  3  0  0  0  0  0  0
  -25.9080  -26.7320   19.3800 C   0  0  0  0  0  3  0  0  0  0  0  0
  -24.7380  -27.5100   19.3720 C   0  0  0  0  0  3  0  0  0  0  0  0
  -23.4870  -29.6370   20.0230 C   0  0  0  0  0  2  0  0  0  0  0  0
  -24.5230  -30.9080   21.9480 N   0  0  0  0  0  0  0  0  0  0  0  0
  -23.3610  -31.9950   23.5680 O   0  0  0  0  0  0  0  0  0  0  0  0
  -22.6000  -29.2910   22.3600 C   0  0  0  0  0  0  0  0  0  0  0  0
  -21.2730  -29.1160   22.2350 N   0  0  0  0  0  0  0  0  0  0  0  0
  -23.2790  -28.6610   23.1750 O   0  0  0  0  0  0  0  0  0  0  0  0
  -20.7850  -29.6780   21.5510 H   0  0  0  0  0  0  0  0  0  0  0  0
  -17.8890  -27.9530   22.7610 C   0  0  0  0  0  0  0  0  0  0  0  0
  -20.4520  -28.1810   23.0060 C   0  0  0  0  0  3  0  0  0  0  0  0
  -20.5310  -26.7540   22.4170 C   0  0  0  0  0  2  0  0  0  0  0  0
  -19.4160  -26.4520   21.4110 C   0  0  0  0  0  2  0  0  0  0  0  0
  -18.0420  -26.6080   22.0710 C   0  0  0  0  0  2  0  0  0  0  0  0
  -19.0200  -28.6990   23.1850 C   0  0  0  0  0  0  0  0  0  0  0  0
  -18.8230  -29.9590   23.7900 C   0  0  0  0  0  3  0  0  0  0  0  0
  -17.5260  -30.4740   23.9740 C   0  0  0  0  0  3  0  0  0  0  0  0
  -16.4080  -29.7260   23.5650 C   0  0  0  0  0  3  0  0  0  0  0  0
  -16.5900  -28.4670   22.9660 C   0  0  0  0  0  3  0  0  0  0  0  0
  -25.7250  -32.3620   23.6680 C   0  0  0  0  0  3  0  0  0  0  0  0
  -26.2650  -31.5700   24.9210 C   0  0  1  0  0  0  0  0  0  0  0  0
  -25.1830  -31.2820   25.9890 C   0  0  0  0  0  1  0  0  0  0  0  0
  -26.8750  -30.2160   24.4920 C   0  0  0  0  0  1  0  0  0  0  0  0
  -27.4020  -32.3720   25.5980 C   0  0  0  0  0  1  0  0  0  0  0  0
  -25.3920  -33.7460   24.0350 N   0  0  0  0  0  0  0  0  0  0  0  0
  -25.6820  -34.8210   23.2920 C   0  0  0  0  0  0  0  0  0  0  0  0
  -26.3310  -34.7550   22.2440 O   0  0  0  0  0  0  0  0  0  0  0  0
  -24.8120  -33.8690   24.8520 H   0  0  0  0  0  0  0  0  0  0  0  0
  -23.9060  -36.5800   23.0160 C   0  0  0  0  0  1  0  0  0  0  0  0
  -25.1740  -36.1880   23.7900 C   0  0  0  0  0  3  0  0  0  0  0  0
  -27.3070  -37.1060   24.5900 C   0  0  0  0  0  1  0  0  0  0  0  0
  -26.1800  -37.2670   23.6750 N   0  0  0  0  0  0  0  0  0  0  0  0
  -25.7570  -38.1750   23.8510 H   0  0  0  0  0  0  0  0  0  0  0  0
  1  2  1  0
  1  5  1  0
  2  4  1  0
  3  4  1  0
  4 53  1  0
  5 10  1  0
  5  3  1  0
  6  1  2  0
  7  8  2  0
  7 10  1  0
  8 11  1  0
  9 12  1  0
 10  9  2  0
 11 22  1  0
 11 12  2  0
 12 13  1  0
 14 22  1  0
 15 20  1  0
 16 17  1  0
 16 15  1  0
 18 17  1  0
 18 26  1  0
 18 19  1  0
 20 14  1  0
 20 19  1  0
 21 14  2  0
 22 52  1  0
 23 24  2  0
 24 43  1  0
 25 28  1  0
 25 24  1  0
 26 27  1  0
 26 23  1  0
 27 25  2  0
 28 29  1  0
 29 30  2  0
 31 34  1  0
 31 30  1  0
 32 31  2  0
 33 32  1  0
 33 28  2  0
 34 35  1  0
 35 36  1  0
 36 37  2  0
 38 37  1  0
 38 42  1  0
 39 38  2  0
 40 35  2  0
 40 39  1  0
 41 40  1  0
 43 44  1  0
 44 46  1  0
 44 47  1  0
 45 43  2  0
 48 23  1  0
 48 49  1  0
 50 48  1  0
 52 51  2  0
 53 54  1  0
 55 66  2  0
 56 54  1  0
 56 61  1  0
 57 65  1  0
 57 67  1  0
 58 64  1  0
 58 60  1  0
 59 65  1  0
 60 61  2  0
 60 59  1  0
 62 56  2  0
 63 62  1  0
 63 58  2  0
 64 57  1  0
 65 55  1  0
 67 69  2  0
 68 67  1  0
 70 68  1  0
 71 80  2  0
 71 76  1  0
 72 68  1  0
 72 76  1  0
 73 72  1  0
 74 75  1  0
 74 73  1  0
 75 71  1  0
 76 77  2  0
 77 78  1  0
 79 78  2  0
 80 79  1  0
 81 55  1  0
 81 86  1  0
 81 82  1  0
 82 85  1  1
 82 83  1  0
 84 82  1  0
 86 89  1  0
 87 91  1  0
 87 86  1  0
 88 87  2  0
 91 90  1  0
 93 91  1  0
 93 94  1  0
 93 92  1  0
M  ISO  4  14 100  22 100  53 101  54 101
M  END
>  <TORSDO>  (49) 
F 19

>  <SCORE>  (49) 
-11.476

>  <name>  (49) 
48

>  <ligand_id>  (49) 
48

>  <original_smiles>  (49) 
[H]C([H])=C([H])N(C(=O)N1C([H])([H])C([H])([H])C([H])([H])C([H])(n2nc(-c3c([H])c([H])c(Oc4c([H])c([H])c(F)c([H])c4F)c([H])c3[H])c(C(=O)N([H])[H])c2N([H])[H])C1([H])[H])c1c([H])c([H])c(N2C(=O)C([H])([H])C([H])(C([H])([H])Oc3c([H])c([H])c4c(c3[H])C([H])([H])N(C(=O)C([H])(N([H])C(=O)C([H])(N([H])C([H])([H])[H])C([H])([H])[H])C(C([H])([H])[H])(C([H])([H])[H])C([H])([H])[H])C([H])(C(=O)N([H])C3([H])c5c([H])c([H])c([H])c([H])c5C([H])([H])C([H])([H])C3([H])[H])C4([H])[H])C2([H])[H])c([H])c1F

>  <smiles>  (49) 
[H]C([H])=C([H])N(C(=O)N1C([H])([H])C([H])([H])C([H])([H])C([H])(n2nc(-c3c([H])c([H])c(Oc4c([H])c([H])c(F)c([H])c4F)c([H])c3[H])c(C(=O)N([H])[H])c2N([H])[H])C1([H])[H])c1c([H])c([H])c(N2C(=O)C([H])([H])C([H])(C([H])([H])Oc3c([H])c([H])c4c(c3[H])C([H])([H])N(C(=O)C([H])(N([H])C(=O)C([H])(N([H])C([H])([H])[H])C([H])([H])[H])C(C([H])([H])[H])(C([H])([H])[H])C([H])([H])[H])C([H])(C(=O)N([H])C3([H])c5c([H])c([H])c([H])c([H])c5C([H])([H])C([H])([H])C3([H])[H])C4([H])[H])C2([H])[H])c([H])c1F

$$$$
49:0:0
     RDKit          3D

 96104  0  0  1  0  0  0  0  0999 V2000
  -28.5530  -18.2860   20.3630 C   0  0  0  0  0  3  0  0  0  0  0  0
  -30.2850  -19.9450   19.9780 C   0  0  0  0  0  3  0  0  0  0  0  0
  -29.9250  -18.5390   20.1850 C   0  0  0  0  0  0  0  0  0  0  0  0
  -27.6150  -19.3370   20.3560 C   0  0  0  0  0  0  0  0  0  0  0  0
  -27.9930  -20.6970   20.1880 C   0  0  0  0  0  0  0  0  0  0  0  0
  -29.3530  -21.0720   19.9630 C   0  0  0  0  0  0  0  0  0  0  0  0
  -31.3750  -14.9210   20.8450 C   0  0  0  0  0  0  0  0  0  0  0  0
  -31.3280  -12.4730   20.3360 C   0  0  0  0  0  2  0  0  0  0  0  0
  -30.5800  -12.2570   19.0020 C   0  0  0  0  0  2  0  0  0  0  0  0
  -29.0680  -12.1130   19.2530 C   0  0  0  0  0  2  0  0  0  0  0  0
  -28.5140  -13.2190   20.1910 C   0  0  0  0  0  3  0  0  0  0  0  0
  -29.4010  -13.4200   21.4390 C   0  0  0  0  0  2  0  0  0  0  0  0
  -30.7630  -13.6900   20.9670 N   0  0  0  0  0  0  0  0  0  0  0  0
  -32.6020  -14.9400   20.7040 O   0  0  0  0  0  0  0  0  0  0  0  0
  -30.9490  -17.3590   20.2970 C   0  0  0  0  0  0  0  0  0  0  0  0
  -30.5840  -16.0640   20.6820 N   0  0  0  0  0  0  0  0  0  0  0  0
  -32.1160  -17.6420   20.0080 O   0  0  0  0  0  0  0  0  0  0  0  0
  -29.5990  -15.9270   20.8310 H   0  0  0  0  0  0  0  0  0  0  0  0
  -26.0880  -13.9010   20.6540 C   0  0  0  0  0  0  0  0  0  0  0  0
  -24.9650  -13.1680   20.9260 C   0  0  0  0  0  0  0  0  0  0  0  0
  -25.3820  -11.8040   20.9740 C   0  0  0  0  0  0  0  0  0  0  0  0
  -27.1190  -12.9830   20.5460 N   0  0  0  0  0  0  0  0  0  0  0  0
  -26.6960  -11.7180   20.8050 N   0  0  0  0  0  0  0  0  0  0  0  0
  -24.5970  -10.5690   21.1110 C   0  0  0  0  0  0  0  0  0  0  0  0
  -24.9390   -9.5770   22.0560 C   0  0  0  0  0  3  0  0  0  0  0  0
  -24.1560   -8.4080   22.1820 C   0  0  0  0  0  3  0  0  0  0  0  0
  -23.0150   -8.2270   21.3650 C   0  0  0  0  0  0  0  0  0  0  0  0
  -22.6920   -9.2070   20.4090 C   0  0  0  0  0  3  0  0  0  0  0  0
  -23.4750  -10.3660   20.2820 C   0  0  0  0  0  3  0  0  0  0  0  0
  -22.2110   -7.1120   21.4000 O   0  0  0  0  0  0  0  0  0  0  0  0
  -22.0930   -6.3450   22.5310 C   0  0  0  0  0  0  0  0  0  0  0  0
  -21.6570   -6.8890   23.7590 C   0  0  0  0  0  3  0  0  0  0  0  0
  -21.4850   -6.0520   24.8790 C   0  0  0  0  0  3  0  0  0  0  0  0
  -21.7380   -4.6700   24.7700 C   0  0  0  0  0  0  0  0  0  0  0  0
  -22.1660   -4.1260   23.5470 C   0  0  0  0  0  3  0  0  0  0  0  0
  -22.3410   -4.9610   22.4300 C   0  0  0  0  0  0  0  0  0  0  0  0
  -22.7320   -4.4290   21.2480 F   0  0  0  0  0  0  0  0  0  0  0  0
  -21.5660   -3.8630   25.8430 F   0  0  0  0  0  0  0  0  0  0  0  0
  -23.5640  -13.6960   21.0320 C   0  0  0  0  0  0  0  0  0  0  0  0
  -22.7300  -13.0600   21.8480 N   0  0  0  0  0  0  0  0  0  0  0  0
  -23.2140  -14.7090   20.4270 O   0  0  0  0  0  0  0  0  0  0  0  0
  -23.0200  -12.2410   22.3600 H   0  0  0  0  0  0  0  0  0  0  0  0
  -21.7870  -13.4010   21.9610 H   0  0  0  0  0  0  0  0  0  0  0  0
  -26.3120  -15.2600   20.4600 N   0  0  0  0  0  0  0  0  0  0  0  0
  -25.5400  -15.9170   20.4210 H   0  0  0  0  0  0  0  0  0  0  0  0
  -27.1720  -15.6470   20.0940 H   0  0  0  0  0  0  0  0  0  0  0  0
  -26.2620  -19.0350   20.5160 N   0  0  0  0  0  0  0  0  0  0  0  0
  -25.9930  -18.0820   20.2980 H   0  0  0  0  0  0  0  0  0  0  0  0
  -25.6610  -19.7000   20.0400 H   0  0  0  0  0  0  0  0  0  0  0  0
  -26.9490  -21.6170   20.3030 N   0  0  0  0  0  0  0  0  0  0  0  0
  -27.2180  -22.5200   20.6660 H   0  0  0  0  0  0  0  0  0  0  0  0
  -26.1880  -21.2250   20.8450 H   0  0  0  0  0  0  0  0  0  0  0  0
  -29.7990  -22.4280   19.7380 O   0  0  0  0  0  0  0  0  0  0  0  0
  -29.0050  -23.6980   19.9370 C   0  0  0  0  0  2  0  0  0  0  0  0
  -29.5510  -25.1300   19.3800 C   0  0  0  0  0  2  0  0  0  0  0  0
  -29.2860  -26.4890   19.9850 O   0  0  0  0  0  0  0  0  0  0  0  0
  -24.8040  -31.2400   23.1260 C   0  0  0  0  0  0  0  0  0  0  0  0
  -28.0740  -27.2120   19.8990 C   0  0  0  0  0  0  0  0  0  0  0  0
  -23.8510  -29.8380   21.3290 C   0  0  0  0  0  3  0  0  0  0  0  0
  -25.5400  -28.5700   19.8730 C   0  0  0  0  0  0  0  0  0  0  0  0
  -26.3450  -30.4490   21.3070 C   0  0  0  0  0  2  0  0  0  0  0  0
  -26.6150  -29.1360   20.5680 C   0  0  0  0  0  0  0  0  0  0  0  0
  -27.8810  -28.4680   20.5720 C   0  0  0  0  0  3  0  0  0  0  0  0
  -26.9690  -26.7040   19.1840 C   0  0  0  0  0  3  0  0  0  0  0  0
  -25.7210  -27.3650   19.1730 C   0  0  0  0  0  3  0  0  0  0  0  0
  -24.2070  -29.2950   19.9180 C   0  0  0  0  0  2  0  0  0  0  0  0
  -25.0140  -30.5270   21.9790 N   0  0  0  0  0  0  0  0  0  0  0  0
  -23.6720  -31.3480   23.6200 O   0  0  0  0  0  0  0  0  0  0  0  0
  -23.2710  -28.6850   22.1820 C   0  0  0  0  0  0  0  0  0  0  0  0
  -21.9890  -28.3480   21.9530 N   0  0  0  0  0  0  0  0  0  0  0  0
  -23.9740  -28.0990   23.0100 O   0  0  0  0  0  0  0  0  0  0  0  0
  -21.4740  -28.8830   21.2690 H   0  0  0  0  0  0  0  0  0  0  0  0
  -18.7890  -26.6690   22.1210 C   0  0  0  0  0  0  0  0  0  0  0  0
  -21.2570  -27.2620   22.6090 C   0  0  0  0  0  3  0  0  0  0  0  0
  -21.6030  -25.8960   21.9760 C   0  0  0  0  0  2  0  0  0  0  0  0
  -20.6360  -25.4840   20.8630 C   0  0  0  0  0  2  0  0  0  0  0  0
  -19.2040  -25.3990   21.3980 C   0  0  0  0  0  2  0  0  0  0  0  0
  -19.7520  -27.5510   22.6750 C   0  0  0  0  0  0  0  0  0  0  0  0
  -19.3140  -28.7330   23.3110 C   0  0  0  0  0  3  0  0  0  0  0  0
  -17.9420  -29.0380   23.3950 C   0  0  0  0  0  3  0  0  0  0  0  0
  -16.9900  -28.1530   22.8570 C   0  0  0  0  0  3  0  0  0  0  0  0
  -17.4140  -26.9710   22.2260 C   0  0  0  0  0  3  0  0  0  0  0  0
  -25.9720  -31.9700   23.8600 C   0  0  0  0  0  3  0  0  0  0  0  0
  -25.5230  -33.3370   24.1610 N   0  0  0  0  0  0  0  0  0  0  0  0
  -25.8560  -34.4230   23.4520 C   0  0  0  0  0  0  0  0  0  0  0  0
  -26.6380  -34.3860   22.4990 O   0  0  0  0  0  0  0  0  0  0  0  0
  -24.8350  -33.4330   24.8930 H   0  0  0  0  0  0  0  0  0  0  0  0
  -24.0470  -36.0930   22.9220 C   0  0  0  0  0  1  0  0  0  0  0  0
  -25.2190  -35.7660   23.8630 C   0  0  0  0  0  3  0  0  0  0  0  0
  -27.1790  -36.7910   24.9310 C   0  0  0  0  0  1  0  0  0  0  0  0
  -26.1770  -36.8930   23.8730 N   0  0  0  0  0  0  0  0  0  0  0  0
  -25.6910  -37.7790   23.9830 H   0  0  0  0  0  0  0  0  0  0  0  0
  -26.4300  -31.2360   25.1790 C   0  0  1  0  0  0  0  0  0  0  0  0
  -25.2700  -30.9200   26.1510 C   0  0  0  0  0  1  0  0  0  0  0  0
  -27.1420  -29.9040   24.8470 C   0  0  0  0  0  1  0  0  0  0  0  0
  -27.4590  -32.1100   25.9330 C   0  0  0  0  0  1  0  0  0  0  0  0
  2  3  1  0
  3 15  1  0
  3  1  2  0
  4  1  1  0
  4 47  1  0
  5 50  1  0
  5  4  2  0
  6  2  2  0
  6  5  1  0
  7 13  1  0
  8 13  1  0
  9 10  1  0
  9  8  1  0
 11 10  1  0
 11 22  1  0
 11 12  1  0
 13 12  1  0
 14  7  2  0
 15 16  1  0
 16 18  1  0
 16  7  1  0
 17 15  2  0
 19 20  2  0
 20 21  1  0
 20 39  1  0
 21 24  1  0
 22 19  1  0
 22 23  1  0
 23 21  2  0
 24 25  1  0
 25 26  2  0
 27 30  1  0
 27 26  1  0
 28 27  2  0
 29 28  1  0
 29 24  2  0
 30 31  1  0
 31 32  1  0
 32 33  2  0
 34 33  1  0
 34 38  1  0
 35 34  2  0
 36 31  2  0
 36 35  1  0
 37 36  1  0
 39 40  1  0
 40 43  1  0
 40 42  1  0
 41 39  2  0
 44 19  1  0
 45 44  1  0
 46 44  1  0
 48 47  1  0
 49 47  1  0
 50 51  1  0
 50 52  1  0
 53 54  1  0
 53  6  1  0
 55 54  1  0
 55 56  1  0
 57 68  2  0
 58 56  1  0
 58 63  1  0
 59 67  1  0
 59 69  1  0
 60 66  1  0
 60 62  1  0
 61 67  1  0
 62 63  2  0
 62 61  1  0
 64 58  2  0
 65 64  1  0
 65 60  2  0
 66 59  1  0
 67 57  1  0
 69 71  2  0
 70 69  1  0
 72 70  1  0
 73 82  2  0
 73 78  1  0
 74 70  1  0
 74 78  1  0
 75 74  1  0
 76 77  1  0
 76 75  1  0
 77 73  1  0
 78 79  2  0
 79 80  1  0
 81 80  2  0
 82 81  1  0
 83 57  1  0
 83 84  1  0
 83 93  1  0
 84 87  1  0
 85 89  1  0
 85 84  1  0
 86 85  2  0
 89 88  1  0
 89 91  1  0
 91 92  1  0
 91 90  1  0
 93 96  1  1
 93 94  1  0
 95 93  1  0
M  ISO  4   7 100  16 100  55 101  56 101
M  END
>  <TORSDO>  (50) 
F 21

>  <SCORE>  (50) 
-10.078

>  <name>  (50) 
49

>  <ligand_id>  (50) 
49

>  <original_smiles>  (50) 
[H]c1c([H])c([H])c2c(c1[H])C([H])([H])C([H])([H])C([H])([H])C2([H])N([H])C(=O)C1([H])N(C(=O)C([H])(N([H])C(=O)C([H])(N([H])C([H])([H])[H])C([H])([H])[H])C(C([H])([H])[H])(C([H])([H])[H])C([H])([H])[H])C([H])([H])c2c([H])c(OC([H])([H])C([H])([H])Oc3c([H])c(C(=O)N([H])C(=O)N4C([H])([H])C([H])([H])C([H])([H])C([H])(n5nc(-c6c([H])c([H])c(Oc7c([H])c([H])c(F)c([H])c7F)c([H])c6[H])c(C(=O)N([H])[H])c5N([H])[H])C4([H])[H])c([H])c(N([H])[H])c3N([H])[H])c([H])c([H])c2C1([H])[H]

>  <smiles>  (50) 
[H]c1c([H])c([H])c2c(c1[H])C([H])([H])C([H])([H])C([H])([H])C2([H])N([H])C(=O)C1([H])N(C(=O)C([H])(N([H])C(=O)C([H])(N([H])C([H])([H])[H])C([H])([H])[H])C(C([H])([H])[H])(C([H])([H])[H])C([H])([H])[H])C([H])([H])c2c([H])c(OC([H])([H])C([H])([H])Oc3c([H])c(C(=O)N([H])C(=O)N4C([H])([H])C([H])([H])C([H])([H])C([H])(n5nc(-c6c([H])c([H])c(Oc7c([H])c([H])c(F)c([H])c7F)c([H])c6[H])c(C(=O)N([H])[H])c5N([H])[H])C4([H])[H])c([H])c(N([H])[H])c3N([H])[H])c([H])c([H])c2C1([H])[H]

$$$$
50:0:0
     RDKit          3D

 99107  0  0  1  0  0  0  0  0999 V2000
  -30.5480  -18.1610   22.3960 C   0  0  0  0  0  3  0  0  0  0  0  0
  -30.3170  -19.7580   20.5640 C   0  0  0  0  0  3  0  0  0  0  0  0
  -30.3370  -18.4090   21.0230 C   0  0  0  0  0  0  0  0  0  0  0  0
  -30.7660  -19.2340   23.2870 C   0  0  0  0  0  0  0  0  0  0  0  0
  -30.5210  -20.8470   21.4540 C   0  0  0  0  0  0  0  0  0  0  0  0
  -30.7640  -20.5690   22.8190 C   0  0  0  0  0  0  0  0  0  0  0  0
  -29.5660  -23.0080   20.6810 C   0  0  0  0  0  0  0  0  0  0  0  0
  -30.6030  -22.1980   20.9850 N   0  0  0  0  0  0  0  0  0  0  0  0
  -28.4070  -22.5890   20.6310 O   0  0  0  0  0  0  0  0  0  0  0  0
  -31.5210  -22.6230   21.0140 H   0  0  0  0  0  0  0  0  0  0  0  0
  -30.7280  -24.6210   19.1030 C   0  0  0  0  0  1  0  0  0  0  0  0
  -29.8670  -24.5080   20.3760 C   0  0  0  0  0  3  0  0  0  0  0  0
  -28.5680  -25.3620   20.2320 C   0  0  0  0  0  2  0  0  0  0  0  0
  -28.7160  -26.8060   20.3030 O   0  0  0  0  0  0  0  0  0  0  0  0
  -24.6760  -31.8680   23.3260 C   0  0  0  0  0  0  0  0  0  0  0  0
  -27.5390  -27.5450   20.2430 C   0  0  0  0  0  0  0  0  0  0  0  0
  -23.5590  -30.4570   21.6330 C   0  0  0  0  0  3  0  0  0  0  0  0
  -25.0960  -29.0030   20.2150 C   0  0  0  0  0  0  0  0  0  0  0  0
  -26.0800  -30.9030   21.5010 C   0  0  0  0  0  2  0  0  0  0  0  0
  -26.2280  -29.5470   20.8340 C   0  0  0  0  0  0  0  0  0  0  0  0
  -27.4540  -28.8310   20.8360 C   0  0  0  0  0  3  0  0  0  0  0  0
  -26.3780  -27.0290   19.6150 C   0  0  0  0  0  3  0  0  0  0  0  0
  -25.1680  -27.7430   19.6010 C   0  0  0  0  0  3  0  0  0  0  0  0
  -23.8220  -29.8170   20.2470 C   0  0  0  0  0  2  0  0  0  0  0  0
  -24.7880  -31.0920   22.2100 N   0  0  0  0  0  0  0  0  0  0  0  0
  -23.5720  -32.0900   23.8440 O   0  0  0  0  0  0  0  0  0  0  0  0
  -22.9250  -29.3940   22.5590 C   0  0  0  0  0  0  0  0  0  0  0  0
  -21.6190  -29.1400   22.3740 N   0  0  0  0  0  0  0  0  0  0  0  0
  -23.6060  -28.7990   23.3990 O   0  0  0  0  0  0  0  0  0  0  0  0
  -21.1300  -29.6750   21.6710 H   0  0  0  0  0  0  0  0  0  0  0  0
  -18.2980  -27.7460   22.7050 C   0  0  0  0  0  0  0  0  0  0  0  0
  -20.8210  -28.1530   23.1030 C   0  0  0  0  0  3  0  0  0  0  0  0
  -21.0330  -26.7310   22.5330 C   0  0  0  0  0  2  0  0  0  0  0  0
  -20.0020  -26.3480   21.4660 C   0  0  0  0  0  2  0  0  0  0  0  0
  -18.5840  -26.4110   22.0400 C   0  0  0  0  0  2  0  0  0  0  0  0
  -19.3480  -28.5710   23.1900 C   0  0  0  0  0  0  0  0  0  0  0  0
  -19.0280  -29.8180   23.7690 C   0  0  0  0  0  3  0  0  0  0  0  0
  -17.6910  -30.2440   23.8700 C   0  0  0  0  0  3  0  0  0  0  0  0
  -16.6540  -29.4180   23.4010 C   0  0  0  0  0  3  0  0  0  0  0  0
  -16.9580  -28.1710   22.8260 C   0  0  0  0  0  3  0  0  0  0  0  0
  -25.9200  -32.5340   23.9870 C   0  0  0  0  0  3  0  0  0  0  0  0
  -25.5710  -33.9330   24.2700 N   0  0  0  0  0  0  0  0  0  0  0  0
  -25.9040  -34.9720   23.4940 C   0  0  0  0  0  0  0  0  0  0  0  0
  -26.6070  -34.8570   22.4860 O   0  0  0  0  0  0  0  0  0  0  0  0
  -24.9420  -34.0930   25.0420 H   0  0  0  0  0  0  0  0  0  0  0  0
  -24.1400  -36.7140   23.0550 C   0  0  0  0  0  1  0  0  0  0  0  0
  -25.3740  -36.3600   23.9020 C   0  0  0  0  0  3  0  0  0  0  0  0
  -27.4680  -37.3240   24.7490 C   0  0  0  0  0  1  0  0  0  0  0  0
  -26.3820  -37.4360   23.7780 N   0  0  0  0  0  0  0  0  0  0  0  0
  -25.9490  -38.3500   23.8880 H   0  0  0  0  0  0  0  0  0  0  0  0
  -26.3920  -31.8000   25.3030 C   0  0  1  0  0  0  0  0  0  0  0  0
  -25.2590  -31.5620   26.3270 C   0  0  0  0  0  1  0  0  0  0  0  0
  -27.0180  -30.4260   24.9660 C   0  0  0  0  0  1  0  0  0  0  0  0
  -27.4920  -32.6340   26.0000 C   0  0  0  0  0  1  0  0  0  0  0  0
  -31.0300  -18.9930   24.6360 N   0  0  0  0  0  0  0  0  0  0  0  0
  -31.3490  -18.0600   24.8740 H   0  0  0  0  0  0  0  0  0  0  0  0
  -31.6120  -19.7070   25.0620 H   0  0  0  0  0  0  0  0  0  0  0  0
  -31.0160  -21.5960   23.7290 N   0  0  0  0  0  0  0  0  0  0  0  0
  -30.7280  -21.3700   24.6730 H   0  0  0  0  0  0  0  0  0  0  0  0
  -30.6850  -22.5080   23.4420 H   0  0  0  0  0  0  0  0  0  0  0  0
  -30.2060  -17.2560   20.0120 C   0  0  0  0  0  2  0  0  0  0  0  0
  -30.6250  -14.8100   20.2340 C   0  0  0  0  0  0  0  0  0  0  0  0
  -30.3940  -12.5320   19.3260 C   0  0  0  0  0  2  0  0  0  0  0  0
  -29.4580  -12.5950   18.0990 C   0  0  0  0  0  2  0  0  0  0  0  0
  -27.9860  -12.4440   18.5310 C   0  0  0  0  0  2  0  0  0  0  0  0
  -27.6110  -13.3840   19.7100 C   0  0  0  0  0  3  0  0  0  0  0  0
  -28.6690  -13.3260   20.8380 C   0  0  0  0  0  2  0  0  0  0  0  0
  -29.9840  -13.6070   20.2460 N   0  0  0  0  0  0  0  0  0  0  0  0
  -31.7660  -14.9400   19.7860 O   0  0  0  0  0  0  0  0  0  0  0  0
  -29.8760  -15.9000   20.5150 N   0  0  0  0  0  0  0  0  0  0  0  0
  -28.9410  -15.7430   20.8600 H   0  0  0  0  0  0  0  0  0  0  0  0
  -25.2290  -13.9810   20.4780 C   0  0  0  0  0  0  0  0  0  0  0  0
  -24.1680  -13.2060   20.8620 C   0  0  0  0  0  0  0  0  0  0  0  0
  -24.6280  -11.8540   20.8110 C   0  0  0  0  0  0  0  0  0  0  0  0
  -26.2680  -13.1020   20.2160 N   0  0  0  0  0  0  0  0  0  0  0  0
  -25.9120  -11.8170   20.4770 N   0  0  0  0  0  0  0  0  0  0  0  0
  -23.9040  -10.5910   21.0050 C   0  0  0  0  0  0  0  0  0  0  0  0
  -24.3460   -9.6210   21.9320 C   0  0  0  0  0  3  0  0  0  0  0  0
  -23.6220   -8.4240   22.1150 C   0  0  0  0  0  3  0  0  0  0  0  0
  -22.4430   -8.1870   21.3700 C   0  0  0  0  0  0  0  0  0  0  0  0
  -22.0200   -9.1460   20.4310 C   0  0  0  0  0  3  0  0  0  0  0  0
  -22.7450  -10.3350   20.2480 C   0  0  0  0  0  3  0  0  0  0  0  0
  -21.6880   -7.0430   21.4620 O   0  0  0  0  0  0  0  0  0  0  0  0
  -21.6570   -6.2910   22.6070 C   0  0  0  0  0  0  0  0  0  0  0  0
  -21.2310   -6.8280   23.8430 C   0  0  0  0  0  3  0  0  0  0  0  0
  -21.1480   -6.0010   24.9790 C   0  0  0  0  0  3  0  0  0  0  0  0
  -21.4800   -4.6370   24.8860 C   0  0  0  0  0  0  0  0  0  0  0  0
  -21.8990   -4.0980   23.6570 C   0  0  0  0  0  3  0  0  0  0  0  0
  -21.9840   -4.9210   22.5210 C   0  0  0  0  0  0  0  0  0  0  0  0
  -22.3680   -4.3920   21.3340 F   0  0  0  0  0  0  0  0  0  0  0  0
  -21.3960   -3.8410   25.9780 F   0  0  0  0  0  0  0  0  0  0  0  0
  -22.7760  -13.6830   21.1650 C   0  0  0  0  0  0  0  0  0  0  0  0
  -22.0610  -12.9790   22.0330 N   0  0  0  0  0  0  0  0  0  0  0  0
  -22.3320  -14.7140   20.6630 O   0  0  0  0  0  0  0  0  0  0  0  0
  -22.4350  -12.1460   22.4640 H   0  0  0  0  0  0  0  0  0  0  0  0
  -21.1260  -13.2820   22.2730 H   0  0  0  0  0  0  0  0  0  0  0  0
  -25.3910  -15.3540   20.3100 N   0  0  0  0  0  0  0  0  0  0  0  0
  -24.6260  -16.0070   20.4440 H   0  0  0  0  0  0  0  0  0  0  0  0
  -26.2310  -15.7960   19.9590 H   0  0  0  0  0  0  0  0  0  0  0  0
  1  4  1  0
  2  3  1  0
  2  5  2  0
  3  1  2  0
  4 55  1  0
  5  6  1  0
  6  4  2  0
  6 58  1  0
  7  8  1  0
  8 10  1  0
  8  5  1  0
  9  7  2  0
 12 11  1  0
 12  7  1  0
 13 14  1  0
 13 12  1  0
 15 26  2  0
 16 14  1  0
 16 21  1  0
 17 25  1  0
 17 27  1  0
 18 24  1  0
 18 20  1  0
 19 25  1  0
 20 21  2  0
 20 19  1  0
 22 16  2  0
 23 22  1  0
 23 18  2  0
 24 17  1  0
 25 15  1  0
 27 29  2  0
 28 27  1  0
 30 28  1  0
 31 40  2  0
 31 36  1  0
 32 28  1  0
 32 36  1  0
 33 32  1  0
 34 35  1  0
 34 33  1  0
 35 31  1  0
 36 37  2  0
 37 38  1  0
 39 38  2  0
 40 39  1  0
 41 15  1  0
 41 42  1  0
 41 51  1  0
 42 45  1  0
 43 47  1  0
 43 42  1  0
 44 43  2  0
 47 46  1  0
 49 50  1  0
 49 47  1  0
 49 48  1  0
 51 54  1  1
 51 52  1  0
 53 51  1  0
 55 56  1  0
 55 57  1  0
 58 59  1  0
 60 58  1  0
 61 70  1  0
 61  3  1  0
 62 68  1  0
 62 70  1  0
 63 68  1  0
 64 65  1  0
 64 63  1  0
 66 65  1  0
 66 75  1  0
 66 67  1  0
 68 67  1  0
 69 62  2  0
 70 71  1  0
 72 73  2  0
 73 92  1  0
 74 73  1  0
 74 77  1  0
 75 76  1  0
 75 72  1  0
 76 74  2  0
 77 78  1  0
 78 79  2  0
 80 83  1  0
 80 79  1  0
 81 80  2  0
 82 81  1  0
 82 77  2  0
 83 84  1  0
 84 85  1  0
 85 86  2  0
 87 86  1  0
 87 91  1  0
 88 87  2  0
 89 84  2  0
 89 88  1  0
 90 89  1  0
 92 93  1  0
 93 96  1  0
 93 95  1  0
 94 92  2  0
 97 98  1  0
 97 72  1  0
 99 97  1  0
M  ISO  4  13 101  14 101  62 100  70 100
M  END
>  <TORSDO>  (51) 
F 22

>  <SCORE>  (51) 
-12.770

>  <name>  (51) 
50

>  <ligand_id>  (51) 
50

>  <original_smiles>  (51) 
[H]c1c([H])c([H])c2c(c1[H])C([H])([H])C([H])([H])C([H])([H])C2([H])N([H])C(=O)C1([H])N(C(=O)C([H])(N([H])C(=O)C([H])(N([H])C([H])([H])[H])C([H])([H])[H])C(C([H])([H])[H])(C([H])([H])[H])C([H])([H])[H])C([H])([H])c2c([H])c(OC([H])([H])C([H])(C(=O)N([H])c3c([H])c(C([H])([H])N([H])C(=O)N4C([H])([H])C([H])([H])C([H])([H])C([H])(n5nc(-c6c([H])c([H])c(Oc7c([H])c([H])c(F)c([H])c7F)c([H])c6[H])c(C(=O)N([H])[H])c5N([H])[H])C4([H])[H])c([H])c(N([H])[H])c3N([H])[H])C([H])([H])[H])c([H])c([H])c2C1([H])[H]

>  <smiles>  (51) 
[H]c1c([H])c([H])c2c(c1[H])C([H])([H])C([H])([H])C([H])([H])C2([H])N([H])C(=O)C1([H])N(C(=O)C([H])(N([H])C(=O)C([H])(N([H])C([H])([H])[H])C([H])([H])[H])C(C([H])([H])[H])(C([H])([H])[H])C([H])([H])[H])C([H])([H])c2c([H])c(OC([H])([H])C([H])(C(=O)N([H])c3c([H])c(C([H])([H])N([H])C(=O)N4C([H])([H])C([H])([H])C([H])([H])C([H])(n5nc(-c6c([H])c([H])c(Oc7c([H])c([H])c(F)c([H])c7F)c([H])c6[H])c(C(=O)N([H])[H])c5N([H])[H])C4([H])[H])c([H])c(N([H])[H])c3N([H])[H])C([H])([H])[H])c([H])c([H])c2C1([H])[H]

$$$$
51:0:0
     RDKit          3D

 95103  0  0  1  0  0  0  0  0999 V2000
  -29.1840  -23.0200   20.6130 C   0  0  0  0  0  0  0  0  0  0  0  0
  -29.9120  -22.0920   19.9540 N   0  0  0  0  0  0  0  0  0  0  0  0
  -28.5130  -22.7690   21.6170 O   0  0  0  0  0  0  0  0  0  0  0  0
  -30.3850  -22.4850   19.1490 H   0  0  0  0  0  0  0  0  0  0  0  0
  -31.2570  -18.6140   19.5130 C   0  0  0  0  0  3  0  0  0  0  0  0
  -30.8670  -19.9520   19.2670 C   0  0  0  0  0  3  0  0  0  0  0  0
  -29.8640  -20.0670   21.4760 C   0  0  0  0  0  3  0  0  0  0  0  0
  -30.9870  -18.0010   20.7580 C   0  0  0  0  0  0  0  0  0  0  0  0
  -30.1920  -20.7110   20.2530 C   0  0  0  0  0  0  0  0  0  0  0  0
  -30.2610  -18.7330   21.7270 C   0  0  0  0  0  0  0  0  0  0  0  0
  -29.9740  -18.1750   22.9290 F   0  0  0  0  0  0  0  0  0  0  0  0
  -31.5930  -16.6320   21.0970 C   0  0  0  0  0  2  0  0  0  0  0  0
  -31.3450  -14.4370   19.9110 C   0  0  0  0  0  0  0  0  0  0  0  0
  -30.8460  -12.2680   18.8360 C   0  0  0  0  0  2  0  0  0  0  0  0
  -29.8510  -12.4590   17.6750 C   0  0  0  0  0  2  0  0  0  0  0  0
  -28.4000  -12.4130   18.1900 C   0  0  0  0  0  2  0  0  0  0  0  0
  -28.1730  -13.3300   19.4220 C   0  0  0  0  0  3  0  0  0  0  0  0
  -29.2730  -13.1070   20.4840 C   0  0  0  0  0  2  0  0  0  0  0  0
  -30.5790  -13.3150   19.8350 N   0  0  0  0  0  0  0  0  0  0  0  0
  -32.4120  -14.5600   19.3050 O   0  0  0  0  0  0  0  0  0  0  0  0
  -30.8530  -15.4360   20.6650 N   0  0  0  0  0  0  0  0  0  0  0  0
  -29.9580  -15.2740   21.1000 H   0  0  0  0  0  0  0  0  0  0  0  0
  -25.8890  -14.1070   20.3160 C   0  0  0  0  0  0  0  0  0  0  0  0
  -24.7830  -13.4120   20.7290 C   0  0  0  0  0  0  0  0  0  0  0  0
  -25.1220  -12.0280   20.6150 C   0  0  0  0  0  0  0  0  0  0  0  0
  -26.8360  -13.1520   19.9820 N   0  0  0  0  0  0  0  0  0  0  0  0
  -26.3810  -11.8940   20.2180 N   0  0  0  0  0  0  0  0  0  0  0  0
  -24.3010  -10.8250   20.8060 C   0  0  0  0  0  0  0  0  0  0  0  0
  -24.6770   -9.8120   21.7160 C   0  0  0  0  0  3  0  0  0  0  0  0
  -23.8630   -8.6740   21.8950 C   0  0  0  0  0  3  0  0  0  0  0  0
  -22.6590   -8.5390   21.1650 C   0  0  0  0  0  0  0  0  0  0  0  0
  -22.3010   -9.5400   20.2420 C   0  0  0  0  0  3  0  0  0  0  0  0
  -23.1160  -10.6690   20.0600 C   0  0  0  0  0  3  0  0  0  0  0  0
  -21.8180   -7.4570   21.2540 O   0  0  0  0  0  0  0  0  0  0  0  0
  -21.6850   -6.7430   22.4190 C   0  0  0  0  0  0  0  0  0  0  0  0
  -21.2650   -7.3510   23.6220 C   0  0  0  0  0  3  0  0  0  0  0  0
  -21.0750   -6.5660   24.7770 C   0  0  0  0  0  3  0  0  0  0  0  0
  -21.2980   -5.1770   24.7300 C   0  0  0  0  0  0  0  0  0  0  0  0
  -21.7110   -4.5690   23.5310 C   0  0  0  0  0  3  0  0  0  0  0  0
  -21.9020   -5.3510   22.3780 C   0  0  0  0  0  0  0  0  0  0  0  0
  -22.2800   -4.7580   21.2210 F   0  0  0  0  0  0  0  0  0  0  0  0
  -21.1080   -4.4210   25.8360 F   0  0  0  0  0  0  0  0  0  0  0  0
  -23.4540  -13.9940   21.1160 C   0  0  0  0  0  0  0  0  0  0  0  0
  -22.7370  -13.3350   22.0210 N   0  0  0  0  0  0  0  0  0  0  0  0
  -23.0650  -15.0650   20.6530 O   0  0  0  0  0  0  0  0  0  0  0  0
  -23.0660  -12.4650   22.4140 H   0  0  0  0  0  0  0  0  0  0  0  0
  -21.8480  -13.7050   22.3230 H   0  0  0  0  0  0  0  0  0  0  0  0
  -26.1620  -15.4650   20.1810 N   0  0  0  0  0  0  0  0  0  0  0  0
  -25.4700  -16.1810   20.3750 H   0  0  0  0  0  0  0  0  0  0  0  0
  -27.0320  -15.8400   19.8220 H   0  0  0  0  0  0  0  0  0  0  0  0
  -28.6260  -25.4020   20.5430 C   0  0  0  0  0  3  0  0  0  0  0  0
  -29.2840  -24.3540   19.9980 C   0  0  0  0  0  0  0  0  0  0  0  0
  -30.0280  -24.5360   18.8940 O   0  0  0  0  0  0  0  0  0  0  0  0
  -29.9600  -25.4560   18.6700 H   0  0  0  0  0  0  0  0  0  0  0  0
  -28.6780  -26.6880   20.0440 O   0  0  0  0  0  0  0  0  0  0  0  0
  -24.6170  -31.6390   23.2030 C   0  0  0  0  0  0  0  0  0  0  0  0
  -27.4940  -27.3910   20.0620 C   0  0  0  0  0  0  0  0  0  0  0  0
  -23.4930  -30.2140   21.5240 C   0  0  0  0  0  3  0  0  0  0  0  0
  -25.0310  -28.7770   20.0800 C   0  0  0  0  0  0  0  0  0  0  0  0
  -26.0000  -30.7000   21.3530 C   0  0  0  0  0  2  0  0  0  0  0  0
  -26.1580  -29.3470   20.6870 C   0  0  0  0  0  0  0  0  0  0  0  0
  -27.3950  -28.6610   20.6740 C   0  0  0  0  0  3  0  0  0  0  0  0
  -26.3510  -26.8340   19.4510 C   0  0  0  0  0  3  0  0  0  0  0  0
  -25.1220  -27.5190   19.4580 C   0  0  0  0  0  3  0  0  0  0  0  0
  -23.7450  -29.5710   20.1340 C   0  0  0  0  0  2  0  0  0  0  0  0
  -24.7200  -30.8660   22.0850 N   0  0  0  0  0  0  0  0  0  0  0  0
  -23.5210  -31.8450   23.7420 O   0  0  0  0  0  0  0  0  0  0  0  0
  -22.8850  -29.1420   22.4590 C   0  0  0  0  0  0  0  0  0  0  0  0
  -21.5770  -28.8830   22.3030 N   0  0  0  0  0  0  0  0  0  0  0  0
  -23.5900  -28.5480   23.2790 O   0  0  0  0  0  0  0  0  0  0  0  0
  -21.0670  -29.4170   21.6130 H   0  0  0  0  0  0  0  0  0  0  0  0
  -18.2870  -27.4320   22.6640 C   0  0  0  0  0  0  0  0  0  0  0  0
  -20.8030  -27.8880   23.0460 C   0  0  0  0  0  3  0  0  0  0  0  0
  -21.0410  -26.4670   22.4860 C   0  0  0  0  0  2  0  0  0  0  0  0
  -20.0150  -26.0550   21.4270 C   0  0  0  0  0  2  0  0  0  0  0  0
  -18.5970  -26.0970   22.0070 C   0  0  0  0  0  2  0  0  0  0  0  0
  -19.3240  -28.2790   23.1370 C   0  0  0  0  0  0  0  0  0  0  0  0
  -18.9830  -29.5250   23.7080 C   0  0  0  0  0  3  0  0  0  0  0  0
  -17.6390  -29.9270   23.8090 C   0  0  0  0  0  3  0  0  0  0  0  0
  -16.6160  -29.0760   23.3570 C   0  0  0  0  0  3  0  0  0  0  0  0
  -16.9400  -27.8300   22.7910 C   0  0  0  0  0  3  0  0  0  0  0  0
  -25.8660  -32.3210   23.8450 C   0  0  0  0  0  3  0  0  0  0  0  0
  -26.3880  -31.5750   25.1340 C   0  0  1  0  0  0  0  0  0  0  0  0
  -25.2840  -31.2920   26.1790 C   0  0  0  0  0  1  0  0  0  0  0  0
  -27.0360  -30.2230   24.7550 C   0  0  0  0  0  1  0  0  0  0  0  0
  -27.4860  -32.4210   25.8190 C   0  0  0  0  0  1  0  0  0  0  0  0
  -25.5020  -33.7070   24.1590 N   0  0  0  0  0  0  0  0  0  0  0  0
  -25.8440  -34.7690   23.4190 C   0  0  0  0  0  0  0  0  0  0  0  0
  -26.5680  -34.6880   22.4230 O   0  0  0  0  0  0  0  0  0  0  0  0
  -24.8710  -33.8440   24.9340 H   0  0  0  0  0  0  0  0  0  0  0  0
  -24.0790  -36.5030   22.9790 C   0  0  0  0  0  1  0  0  0  0  0  0
  -25.2920  -36.1410   23.8510 C   0  0  0  0  0  3  0  0  0  0  0  0
  -27.3580  -37.0910   24.7760 C   0  0  0  0  0  1  0  0  0  0  0  0
  -26.2960  -37.2260   23.7830 N   0  0  0  0  0  0  0  0  0  0  0  0
  -25.8560  -38.1330   23.9120 H   0  0  0  0  0  0  0  0  0  0  0  0
  1  3  2  0
  2  9  1  0
  2  1  1  0
  4  2  1  0
  5  8  1  0
  6  5  2  0
  6  9  1  0
  7 10  1  0
  8 12  1  0
  8 10  2  0
  9  7  2  0
 10 11  1  0
 13 21  1  0
 14 19  1  0
 15 16  1  0
 15 14  1  0
 17 16  1  0
 17 26  1  0
 17 18  1  0
 19 13  1  0
 19 18  1  0
 20 13  2  0
 21 12  1  0
 21 22  1  0
 23 24  2  0
 24 43  1  0
 25 24  1  0
 25 28  1  0
 26 27  1  0
 26 23  1  0
 27 25  2  0
 28 29  1  0
 29 30  2  0
 31 34  1  0
 31 30  1  0
 32 31  2  0
 33 32  1  0
 33 28  2  0
 34 35  1  0
 35 36  1  0
 36 37  2  0
 38 37  1  0
 38 42  1  0
 39 38  2  0
 40 35  2  0
 40 39  1  0
 41 40  1  0
 43 44  1  0
 44 47  1  0
 44 46  1  0
 45 43  2  0
 48 23  1  0
 48 49  1  0
 50 48  1  0
 52 51  2  0
 52  1  1  0
 53 52  1  0
 54 53  1  0
 55 57  1  0
 55 51  1  0
 56 67  2  0
 57 62  1  0
 58 66  1  0
 58 68  1  0
 59 65  1  0
 59 61  1  0
 60 66  1  0
 61 60  1  0
 62 61  2  0
 63 64  1  0
 63 57  2  0
 64 59  2  0
 65 58  1  0
 66 56  1  0
 68 70  2  0
 69 68  1  0
 71 69  1  0
 72 81  2  0
 72 77  1  0
 73 69  1  0
 73 77  1  0
 74 73  1  0
 75 76  1  0
 75 74  1  0
 76 72  1  0
 77 78  2  0
 78 79  1  0
 80 79  2  0
 81 80  1  0
 82 56  1  0
 82 87  1  0
 82 83  1  0
 83 86  1  1
 83 84  1  0
 85 83  1  0
 87 90  1  0
 88 92  1  0
 88 87  1  0
 89 88  2  0
 92 91  1  0
 94 92  1  0
 94 95  1  0
 94 93  1  0
M  ISO  4  13 100  21 100  51 101  55 101
M  END
>  <TORSDO>  (52) 
F 20

>  <SCORE>  (52) 
-12.439

>  <name>  (52) 
51

>  <ligand_id>  (52) 
51

>  <original_smiles>  (52) 
[H]OC(C(=O)N([H])c1c([H])c([H])c(C([H])([H])N([H])C(=O)N2C([H])([H])C([H])([H])C([H])([H])C([H])(n3nc(-c4c([H])c([H])c(Oc5c([H])c([H])c(F)c([H])c5F)c([H])c4[H])c(C(=O)N([H])[H])c3N([H])[H])C2([H])[H])c(F)c1[H])=C([H])Oc1c([H])c([H])c2c(c1[H])C([H])([H])N(C(=O)C([H])(N([H])C(=O)C([H])(N([H])C([H])([H])[H])C([H])([H])[H])C(C([H])([H])[H])(C([H])([H])[H])C([H])([H])[H])C([H])(C(=O)N([H])C1([H])c3c([H])c([H])c([H])c([H])c3C([H])([H])C([H])([H])C1([H])[H])C2([H])[H]

>  <smiles>  (52) 
[H]OC(C(=O)N([H])c1c([H])c([H])c(C([H])([H])N([H])C(=O)N2C([H])([H])C([H])([H])C([H])([H])C([H])(n3nc(-c4c([H])c([H])c(Oc5c([H])c([H])c(F)c([H])c5F)c([H])c4[H])c(C(=O)N([H])[H])c3N([H])[H])C2([H])[H])c(F)c1[H])=C([H])Oc1c([H])c([H])c2c(c1[H])C([H])([H])N(C(=O)C([H])(N([H])C(=O)C([H])(N([H])C([H])([H])[H])C([H])([H])[H])C(C([H])([H])[H])(C([H])([H])[H])C([H])([H])[H])C([H])(C(=O)N([H])C1([H])c3c([H])c([H])c([H])c([H])c3C([H])([H])C([H])([H])C1([H])[H])C2([H])[H]

$$$$
52:0:0
     RDKit          3D

 94103  0  0  1  0  0  0  0  0999 V2000
  -29.0160  -22.5500   20.0250 C   0  0  0  0  0  3  0  0  0  0  0  0
  -29.0550  -23.9110   20.2830 C   0  0  0  0  0  0  0  0  0  0  0  0
  -30.9570  -21.9840   21.3410 C   0  0  0  0  0  0  0  0  0  0  0  0
  -30.1990  -24.4570   21.1090 C   0  0  0  0  0  2  0  0  0  0  0  0
  -30.8440  -23.3730   21.9920 C   0  0  0  0  0  2  0  0  0  0  0  0
  -29.9880  -21.5780   20.4740 N   0  0  0  0  0  0  0  0  0  0  0  0
  -31.9190  -21.2790   21.6670 O   0  0  0  0  0  0  0  0  0  0  0  0
  -31.0180  -19.4330   19.5530 C   0  0  0  0  0  3  0  0  0  0  0  0
  -31.1390  -18.0040   19.5750 C   0  0  0  0  0  3  0  0  0  0  0  0
  -29.0650  -17.8780   20.7660 C   0  0  0  0  0  3  0  0  0  0  0  0
  -29.9380  -20.1290   20.1780 C   0  0  0  0  0  0  0  0  0  0  0  0
  -30.1920  -17.1730   20.2410 C   0  0  0  0  0  0  0  0  0  0  0  0
  -28.9370  -19.3000   20.7400 C   0  0  0  0  0  0  0  0  0  0  0  0
  -27.8670  -19.8700   21.3490 F   0  0  0  0  0  0  0  0  0  0  0  0
  -30.8430  -14.7210   19.6850 C   0  0  0  0  0  0  0  0  0  0  0  0
  -30.3970  -12.5530   18.5110 C   0  0  0  0  0  2  0  0  0  0  0  0
  -29.3290  -12.7390   17.4100 C   0  0  0  0  0  2  0  0  0  0  0  0
  -27.9050  -12.6060   17.9880 C   0  0  0  0  0  2  0  0  0  0  0  0
  -27.7190  -13.4330   19.2860 C   0  0  0  0  0  3  0  0  0  0  0  0
  -28.8780  -13.1860   20.2670 C   0  0  0  0  0  2  0  0  0  0  0  0
  -30.1350  -13.5400   19.5840 N   0  0  0  0  0  0  0  0  0  0  0  0
  -31.8720  -14.8780   19.0180 O   0  0  0  0  0  0  0  0  0  0  0  0
  -30.4090  -15.4050   21.9590 C   0  0  0  0  0  1  0  0  0  0  0  0
  -30.3630  -15.7230   20.5200 N   0  0  0  0  0  0  0  0  0  0  0  0
  -25.4510  -14.0940   20.2980 C   0  0  0  0  0  0  0  0  0  0  0  0
  -24.4040  -13.3500   20.7670 C   0  0  0  0  0  0  0  0  0  0  0  0
  -24.8020  -11.9840   20.6400 C   0  0  0  0  0  0  0  0  0  0  0  0
  -26.4220  -13.1840   19.9120 N   0  0  0  0  0  0  0  0  0  0  0  0
  -26.0440  -11.9070   20.1760 N   0  0  0  0  0  0  0  0  0  0  0  0
  -24.0490  -10.7450   20.8730 C   0  0  0  0  0  0  0  0  0  0  0  0
  -24.4920   -9.7720   21.7960 C   0  0  0  0  0  3  0  0  0  0  0  0
  -23.7430   -8.5960   22.0130 C   0  0  0  0  0  3  0  0  0  0  0  0
  -22.5330   -8.3860   21.3120 C   0  0  0  0  0  0  0  0  0  0  0  0
  -22.1060   -9.3470   20.3780 C   0  0  0  0  0  3  0  0  0  0  0  0
  -22.8550  -10.5140   20.1580 C   0  0  0  0  0  3  0  0  0  0  0  0
  -21.7490   -7.2650   21.4430 O   0  0  0  0  0  0  0  0  0  0  0  0
  -21.6590   -6.5860   22.6320 C   0  0  0  0  0  0  0  0  0  0  0  0
  -21.2360   -7.2170   23.8220 C   0  0  0  0  0  3  0  0  0  0  0  0
  -21.0910   -6.4640   25.0040 C   0  0  0  0  0  3  0  0  0  0  0  0
  -21.3600   -5.0820   24.9970 C   0  0  0  0  0  0  0  0  0  0  0  0
  -21.7760   -4.4520   23.8100 C   0  0  0  0  0  3  0  0  0  0  0  0
  -21.9220   -5.2020   22.6310 C   0  0  0  0  0  0  0  0  0  0  0  0
  -22.3040   -4.5860   21.4860 F   0  0  0  0  0  0  0  0  0  0  0  0
  -21.2150   -4.3550   26.1290 F   0  0  0  0  0  0  0  0  0  0  0  0
  -23.0690  -13.8720   21.2140 C   0  0  0  0  0  0  0  0  0  0  0  0
  -22.4360  -13.1960   22.1680 N   0  0  0  0  0  0  0  0  0  0  0  0
  -22.6040  -14.9150   20.7550 O   0  0  0  0  0  0  0  0  0  0  0  0
  -22.8310  -12.3550   22.5610 H   0  0  0  0  0  0  0  0  0  0  0  0
  -21.5450  -13.5260   22.5090 H   0  0  0  0  0  0  0  0  0  0  0  0
  -25.6480  -15.4630   20.1440 N   0  0  0  0  0  0  0  0  0  0  0  0
  -24.9120  -16.1310   20.3480 H   0  0  0  0  0  0  0  0  0  0  0  0
  -26.4600  -15.8850   19.7110 H   0  0  0  0  0  0  0  0  0  0  0  0
  -27.9970  -24.9730   19.8070 C   0  0  0  0  0  2  0  0  0  0  0  0
  -28.2130  -26.4270   20.0800 O   0  0  0  0  0  0  0  0  0  0  0  0
  -24.4170  -31.7820   23.1230 C   0  0  0  0  0  0  0  0  0  0  0  0
  -27.0910  -27.2800   20.0220 C   0  0  0  0  0  0  0  0  0  0  0  0
  -23.2290  -30.3580   21.4990 C   0  0  0  0  0  3  0  0  0  0  0  0
  -24.6950  -28.8530   20.0450 C   0  0  0  0  0  0  0  0  0  0  0  0
  -25.7600  -30.7340   21.2840 C   0  0  0  0  0  2  0  0  0  0  0  0
  -25.8610  -29.3600   20.6310 C   0  0  0  0  0  0  0  0  0  0  0  0
  -27.0630  -28.5850   20.6120 C   0  0  0  0  0  3  0  0  0  0  0  0
  -25.9010  -26.8420   19.3960 C   0  0  0  0  0  3  0  0  0  0  0  0
  -24.7180  -27.6000   19.4150 C   0  0  0  0  0  3  0  0  0  0  0  0
  -23.4390  -29.6960   20.1130 C   0  0  0  0  0  2  0  0  0  0  0  0
  -24.4890  -30.9760   22.0250 N   0  0  0  0  0  0  0  0  0  0  0  0
  -23.3340  -32.0300   23.6720 O   0  0  0  0  0  0  0  0  0  0  0  0
  -22.6070  -29.3200   22.4640 C   0  0  0  0  0  0  0  0  0  0  0  0
  -21.2920  -29.0750   22.3260 N   0  0  0  0  0  0  0  0  0  0  0  0
  -23.3060  -28.7380   23.2980 O   0  0  0  0  0  0  0  0  0  0  0  0
  -20.7850  -29.5980   21.6270 H   0  0  0  0  0  0  0  0  0  0  0  0
  -17.9770  -27.6980   22.7820 C   0  0  0  0  0  0  0  0  0  0  0  0
  -20.5090  -28.1110   23.1010 C   0  0  0  0  0  3  0  0  0  0  0  0
  -20.7080  -26.6750   22.5650 C   0  0  0  0  0  2  0  0  0  0  0  0
  -19.6510  -26.2650   21.5340 C   0  0  0  0  0  2  0  0  0  0  0  0
  -18.2480  -26.3450   22.1430 C   0  0  0  0  0  2  0  0  0  0  0  0
  -19.0410  -28.5340   23.2170 C   0  0  0  0  0  0  0  0  0  0  0  0
  -18.7340  -29.7940   23.7730 C   0  0  0  0  0  3  0  0  0  0  0  0
  -17.3990  -30.2220   23.8980 C   0  0  0  0  0  3  0  0  0  0  0  0
  -16.3510  -29.3830   23.4790 C   0  0  0  0  0  3  0  0  0  0  0  0
  -16.6410  -28.1230   22.9270 C   0  0  0  0  0  3  0  0  0  0  0  0
  -25.6910  -32.4490   23.7290 C   0  0  0  0  0  3  0  0  0  0  0  0
  -25.3460  -33.8370   24.0690 N   0  0  0  0  0  0  0  0  0  0  0  0
  -25.6340  -34.9010   23.3090 C   0  0  0  0  0  0  0  0  0  0  0  0
  -26.2860  -34.8200   22.2640 O   0  0  0  0  0  0  0  0  0  0  0  0
  -24.7680  -33.9730   24.8860 H   0  0  0  0  0  0  0  0  0  0  0  0
  -23.8530  -36.6490   22.9900 C   0  0  0  0  0  1  0  0  0  0  0  0
  -25.1170  -36.2740   23.7800 C   0  0  0  0  0  3  0  0  0  0  0  0
  -27.2400  -37.2120   24.5870 C   0  0  0  0  0  1  0  0  0  0  0  0
  -26.1200  -37.3550   23.6590 N   0  0  0  0  0  0  0  0  0  0  0  0
  -25.6900  -38.2630   23.8160 H   0  0  0  0  0  0  0  0  0  0  0  0
  -26.2450  -31.6900   24.9960 C   0  0  1  0  0  0  0  0  0  0  0  0
  -25.1720  -31.4090   26.0740 C   0  0  0  0  0  1  0  0  0  0  0  0
  -26.8710  -30.3350   24.5930 C   0  0  0  0  0  1  0  0  0  0  0  0
  -27.3730  -32.5200   25.6540 C   0  0  0  0  0  1  0  0  0  0  0  0
  1  2  2  0
  1  6  1  0
  2  4  1  0
  3  7  2  0
  3  5  1  0
  4  5  1  0
  6  3  1  0
  8  9  2  0
  8 11  1  0
  9 12  1  0
 11  6  1  0
 11 13  2  0
 12 24  1  0
 12 10  2  0
 13 10  1  0
 13 14  1  0
 15 24  1  0
 16 21  1  0
 17 18  1  0
 17 16  1  0
 19 18  1  0
 19 28  1  0
 19 20  1  0
 21 15  1  0
 21 20  1  0
 22 15  2  0
 24 23  1  0
 25 26  2  0
 26 45  1  0
 27 26  1  0
 27 30  1  0
 28 29  1  0
 28 25  1  0
 29 27  2  0
 30 31  1  0
 31 32  2  0
 33 36  1  0
 33 32  1  0
 34 33  2  0
 35 34  1  0
 35 30  2  0
 36 37  1  0
 37 38  1  0
 38 39  2  0
 40 39  1  0
 40 44  1  0
 41 40  2  0
 42 37  2  0
 42 41  1  0
 43 42  1  0
 45 46  1  0
 46 49  1  0
 46 48  1  0
 47 45  2  0
 50 25  1  0
 50 51  1  0
 52 50  1  0
 53 54  1  0
 53  2  1  0
 55 66  2  0
 56 54  1  0
 56 61  1  0
 57 65  1  0
 57 67  1  0
 58 64  1  0
 58 60  1  0
 59 65  1  0
 60 59  1  0
 61 60  2  0
 62 63  1  0
 62 56  2  0
 63 58  2  0
 64 57  1  0
 65 55  1  0
 67 69  2  0
 68 67  1  0
 70 68  1  0
 71 80  2  0
 71 76  1  0
 72 68  1  0
 72 76  1  0
 73 72  1  0
 74 75  1  0
 74 73  1  0
 75 71  1  0
 76 77  2  0
 77 78  1  0
 79 78  2  0
 80 79  1  0
 81 55  1  0
 81 82  1  0
 81 91  1  0
 82 85  1  0
 83 87  1  0
 83 82  1  0
 84 83  2  0
 87 86  1  0
 89 87  1  0
 89 90  1  0
 89 88  1  0
 91 94  1  1
 91 92  1  0
 93 91  1  0
M  ISO  4  15 100  24 100  53 101  54 101
M  END
>  <TORSDO>  (53) 
F 18

>  <SCORE>  (53) 
-12.859

>  <name>  (53) 
52

>  <ligand_id>  (53) 
52

>  <original_smiles>  (53) 
[H]C1=C(C([H])([H])Oc2c([H])c([H])c3c(c2[H])C([H])([H])N(C(=O)C([H])(N([H])C(=O)C([H])(N([H])C([H])([H])[H])C([H])([H])[H])C(C([H])([H])[H])(C([H])([H])[H])C([H])([H])[H])C([H])(C(=O)N([H])C2([H])c4c([H])c([H])c([H])c([H])c4C([H])([H])C([H])([H])C2([H])[H])C3([H])[H])C([H])([H])C([H])([H])C(=O)N1c1c([H])c([H])c(N(C(=O)N2C([H])([H])C([H])([H])C([H])([H])C([H])(n3nc(-c4c([H])c([H])c(Oc5c([H])c([H])c(F)c([H])c5F)c([H])c4[H])c(C(=O)N([H])[H])c3N([H])[H])C2([H])[H])C([H])([H])[H])c([H])c1F

>  <smiles>  (53) 
[H]C1=C(C([H])([H])Oc2c([H])c([H])c3c(c2[H])C([H])([H])N(C(=O)C([H])(N([H])C(=O)C([H])(N([H])C([H])([H])[H])C([H])([H])[H])C(C([H])([H])[H])(C([H])([H])[H])C([H])([H])[H])C([H])(C(=O)N([H])C2([H])c4c([H])c([H])c([H])c([H])c4C([H])([H])C([H])([H])C2([H])[H])C3([H])[H])C([H])([H])C([H])([H])C(=O)N1c1c([H])c([H])c(N(C(=O)N2C([H])([H])C([H])([H])C([H])([H])C([H])(n3nc(-c4c([H])c([H])c(Oc5c([H])c([H])c(F)c([H])c5F)c([H])c4[H])c(C(=O)N([H])[H])c3N([H])[H])C2([H])[H])C([H])([H])[H])c([H])c1F

$$$$
53:0:0
     RDKit          3D

 95104  0  0  1  0  0  0  0  0999 V2000
  -29.0720  -22.6250   20.0770 C   0  0  0  0  0  3  0  0  0  0  0  0
  -29.2310  -23.9970   20.1580 C   0  0  0  0  0  0  0  0  0  0  0  0
  -31.4340  -24.4470   19.1120 C   0  0  0  0  0  0  0  0  0  0  0  0
  -30.6020  -24.6110   20.3760 C   0  0  0  0  0  2  0  0  0  0  0  0
  -31.5160  -23.0490   18.5000 C   0  0  0  0  0  2  0  0  0  0  0  0
  -31.4290  -21.9050   19.5360 C   0  0  0  0  0  2  0  0  0  0  0  0
  -30.0770  -21.5990   20.0520 N   0  0  0  0  0  0  0  0  0  0  0  0
  -32.0140  -25.4070   18.5990 O   0  0  0  0  0  0  0  0  0  0  0  0
  -31.0320  -19.3610   20.7120 C   0  0  0  0  0  3  0  0  0  0  0  0
  -30.9950  -17.9380   20.8180 C   0  0  0  0  0  3  0  0  0  0  0  0
  -28.7170  -17.9850   20.0800 C   0  0  0  0  0  3  0  0  0  0  0  0
  -29.9350  -20.1610   20.2530 C   0  0  0  0  0  0  0  0  0  0  0  0
  -29.8300  -17.2000   20.4940 C   0  0  0  0  0  0  0  0  0  0  0  0
  -28.7600  -19.4100   19.9520 C   0  0  0  0  0  0  0  0  0  0  0  0
  -27.6490  -20.0380   19.4920 F   0  0  0  0  0  0  0  0  0  0  0  0
  -30.5400  -14.6890   20.4100 C   0  0  0  0  0  0  0  0  0  0  0  0
  -30.3540  -12.4420   19.3600 C   0  0  0  0  0  2  0  0  0  0  0  0
  -29.4060  -12.5560   18.1450 C   0  0  0  0  0  2  0  0  0  0  0  0
  -27.9340  -12.3890   18.5760 C   0  0  0  0  0  2  0  0  0  0  0  0
  -27.5690  -13.2590   19.8070 C   0  0  0  0  0  3  0  0  0  0  0  0
  -28.6280  -13.1170   20.9240 C   0  0  0  0  0  2  0  0  0  0  0  0
  -29.9360  -13.4600   20.3440 N   0  0  0  0  0  0  0  0  0  0  0  0
  -31.7200  -14.8420   20.0760 O   0  0  0  0  0  0  0  0  0  0  0  0
  -29.6920  -15.7460   20.6420 N   0  0  0  0  0  0  0  0  0  0  0  0
  -28.7480  -15.4320   20.8040 H   0  0  0  0  0  0  0  0  0  0  0  0
  -25.1750  -13.8610   20.5210 C   0  0  0  0  0  0  0  0  0  0  0  0
  -24.1070  -13.0900   20.8920 C   0  0  0  0  0  0  0  0  0  0  0  0
  -24.5680  -11.7390   20.8640 C   0  0  0  0  0  0  0  0  0  0  0  0
  -26.2190  -12.9800   20.2900 N   0  0  0  0  0  0  0  0  0  0  0  0
  -25.8600  -11.6990   20.5570 N   0  0  0  0  0  0  0  0  0  0  0  0
  -23.8420  -10.4770   21.0520 C   0  0  0  0  0  0  0  0  0  0  0  0
  -24.2750   -9.5080   21.9840 C   0  0  0  0  0  3  0  0  0  0  0  0
  -23.5490   -8.3100   22.1610 C   0  0  0  0  0  3  0  0  0  0  0  0
  -22.3750   -8.0740   21.4060 C   0  0  0  0  0  0  0  0  0  0  0  0
  -21.9600   -9.0320   20.4640 C   0  0  0  0  0  3  0  0  0  0  0  0
  -22.6870  -10.2210   20.2860 C   0  0  0  0  0  3  0  0  0  0  0  0
  -21.6190   -6.9290   21.4920 O   0  0  0  0  0  0  0  0  0  0  0  0
  -21.5730   -6.1830   22.6430 C   0  0  0  0  0  0  0  0  0  0  0  0
  -21.1420   -6.7330   23.8710 C   0  0  0  0  0  3  0  0  0  0  0  0
  -21.0430   -5.9120   25.0120 C   0  0  0  0  0  3  0  0  0  0  0  0
  -21.3650   -4.5450   24.9280 C   0  0  0  0  0  0  0  0  0  0  0  0
  -21.7900   -3.9960   23.7050 C   0  0  0  0  0  3  0  0  0  0  0  0
  -21.8910   -4.8120   22.5660 C   0  0  0  0  0  0  0  0  0  0  0  0
  -22.2800   -4.2740   21.3860 F   0  0  0  0  0  0  0  0  0  0  0  0
  -21.2620   -3.7550   26.0220 F   0  0  0  0  0  0  0  0  0  0  0  0
  -22.7080  -13.5690   21.1560 C   0  0  0  0  0  0  0  0  0  0  0  0
  -21.9770  -12.8780   22.0250 N   0  0  0  0  0  0  0  0  0  0  0  0
  -22.2720  -14.5910   20.6280 O   0  0  0  0  0  0  0  0  0  0  0  0
  -22.3440  -12.0530   22.4760 H   0  0  0  0  0  0  0  0  0  0  0  0
  -21.0390  -13.1800   22.2440 H   0  0  0  0  0  0  0  0  0  0  0  0
  -25.3380  -15.2310   20.3380 N   0  0  0  0  0  0  0  0  0  0  0  0
  -24.5580  -15.8730   20.4200 H   0  0  0  0  0  0  0  0  0  0  0  0
  -26.1590  -15.6610   19.9350 H   0  0  0  0  0  0  0  0  0  0  0  0
  -28.0740  -25.0340   19.9460 C   0  0  0  0  0  2  0  0  0  0  0  0
  -28.3090  -26.4810   20.1950 O   0  0  0  0  0  0  0  0  0  0  0  0
  -24.6130  -31.8950   23.2580 C   0  0  0  0  0  0  0  0  0  0  0  0
  -27.1920  -27.3360   20.1630 C   0  0  0  0  0  0  0  0  0  0  0  0
  -23.3950  -30.5080   21.6200 C   0  0  0  0  0  3  0  0  0  0  0  0
  -24.8310  -28.9610   20.1810 C   0  0  0  0  0  0  0  0  0  0  0  0
  -25.9360  -30.8160   21.4250 C   0  0  0  0  0  2  0  0  0  0  0  0
  -26.0070  -29.4410   20.7710 C   0  0  0  0  0  0  0  0  0  0  0  0
  -27.1900  -28.6400   20.7520 C   0  0  0  0  0  3  0  0  0  0  0  0
  -25.9850  -26.9140   19.5550 C   0  0  0  0  0  3  0  0  0  0  0  0
  -24.8220  -27.7020   19.5670 C   0  0  0  0  0  3  0  0  0  0  0  0
  -23.5980  -29.8400   20.2370 C   0  0  0  0  0  2  0  0  0  0  0  0
  -24.6670  -31.0900   22.1580 N   0  0  0  0  0  0  0  0  0  0  0  0
  -23.5330  -32.1760   23.7980 O   0  0  0  0  0  0  0  0  0  0  0  0
  -22.7320  -29.4900   22.5790 C   0  0  0  0  0  0  0  0  0  0  0  0
  -21.4060  -29.3150   22.4540 N   0  0  0  0  0  0  0  0  0  0  0  0
  -23.4110  -28.8600   23.3940 O   0  0  0  0  0  0  0  0  0  0  0  0
  -20.9160  -29.8730   21.7680 H   0  0  0  0  0  0  0  0  0  0  0  0
  -18.0270  -28.1260   22.9560 C   0  0  0  0  0  0  0  0  0  0  0  0
  -20.5860  -28.3790   23.2250 C   0  0  0  0  0  3  0  0  0  0  0  0
  -20.6850  -26.9470   22.6500 C   0  0  0  0  0  2  0  0  0  0  0  0
  -19.5820  -26.6270   21.6360 C   0  0  0  0  0  2  0  0  0  0  0  0
  -18.2010  -26.7760   22.2810 C   0  0  0  0  0  2  0  0  0  0  0  0
  -19.1480  -28.8850   23.3850 C   0  0  0  0  0  0  0  0  0  0  0  0
  -18.9320  -30.1500   23.9770 C   0  0  0  0  0  3  0  0  0  0  0  0
  -17.6280  -30.6540   24.1440 C   0  0  0  0  0  3  0  0  0  0  0  0
  -16.5220  -29.8910   23.7310 C   0  0  0  0  0  3  0  0  0  0  0  0
  -16.7220  -28.6290   23.1430 C   0  0  0  0  0  3  0  0  0  0  0  0
  -25.9010  -32.5210   23.8740 C   0  0  0  0  0  3  0  0  0  0  0  0
  -25.5990  -33.9200   24.2080 N   0  0  0  0  0  0  0  0  0  0  0  0
  -25.9150  -34.9710   23.4390 C   0  0  0  0  0  0  0  0  0  0  0  0
  -26.5620  -34.8650   22.3940 O   0  0  0  0  0  0  0  0  0  0  0  0
  -25.0220  -34.0760   25.0200 H   0  0  0  0  0  0  0  0  0  0  0  0
  -24.1740  -36.7610   23.1290 C   0  0  0  0  0  1  0  0  0  0  0  0
  -25.4400  -36.3610   23.9040 C   0  0  0  0  0  3  0  0  0  0  0  0
  -27.5960  -37.2530   24.6670 C   0  0  0  0  0  1  0  0  0  0  0  0
  -26.4660  -37.4160   23.7570 N   0  0  0  0  0  0  0  0  0  0  0  0
  -26.0620  -38.3350   23.9130 H   0  0  0  0  0  0  0  0  0  0  0  0
  -26.4170  -31.7460   25.1480 C   0  0  1  0  0  0  0  0  0  0  0  0
  -25.3260  -31.5170   26.2200 C   0  0  0  0  0  1  0  0  0  0  0  0
  -26.9890  -30.3640   24.7550 C   0  0  0  0  0  1  0  0  0  0  0  0
  -27.5750  -32.5320   25.8070 C   0  0  0  0  0  1  0  0  0  0  0  0
  1  2  2  0
  2  4  1  0
  3  4  1  0
  5  3  1  0
  5  6  1  0
  6  7  1  0
  7  1  1  0
  7 12  1  0
  8  3  2  0
  9 10  1  0
 11 13  1  0
 12  9  2  0
 13 24  1  0
 13 10  2  0
 14 11  2  0
 14 12  1  0
 15 14  1  0
 16 24  1  0
 17 22  1  0
 18 19  1  0
 18 17  1  0
 20 19  1  0
 20 29  1  0
 20 21  1  0
 22 16  1  0
 22 21  1  0
 23 16  2  0
 24 25  1  0
 26 27  2  0
 27 46  1  0
 28 27  1  0
 28 31  1  0
 29 26  1  0
 29 30  1  0
 30 28  2  0
 31 32  1  0
 32 33  2  0
 34 37  1  0
 34 33  1  0
 35 34  2  0
 36 35  1  0
 36 31  2  0
 37 38  1  0
 38 39  1  0
 39 40  2  0
 41 40  1  0
 41 45  1  0
 42 41  2  0
 43 38  2  0
 43 42  1  0
 44 43  1  0
 46 47  1  0
 47 50  1  0
 47 49  1  0
 48 46  2  0
 51 52  1  0
 51 26  1  0
 53 51  1  0
 54  2  1  0
 54 55  1  0
 56 67  2  0
 57 55  1  0
 57 62  1  0
 58 66  1  0
 58 68  1  0
 59 65  1  0
 59 61  1  0
 60 66  1  0
 61 60  1  0
 62 61  2  0
 63 64  1  0
 63 57  2  0
 64 59  2  0
 65 58  1  0
 66 56  1  0
 68 70  2  0
 69 68  1  0
 71 69  1  0
 72 81  2  0
 72 77  1  0
 73 69  1  0
 73 77  1  0
 74 73  1  0
 75 76  1  0
 75 74  1  0
 76 72  1  0
 77 78  2  0
 78 79  1  0
 80 79  2  0
 81 80  1  0
 82 56  1  0
 82 83  1  0
 82 92  1  0
 83 86  1  0
 84 88  1  0
 84 83  1  0
 85 84  2  0
 88 87  1  0
 90 88  1  0
 90 91  1  0
 90 89  1  0
 92 95  1  1
 92 93  1  0
 94 92  1  0
M  ISO  4  16 100  24 100  54 101  55 101
M  END
>  <TORSDO>  (54) 
F 18

>  <SCORE>  (54) 
-14.986

>  <name>  (54) 
53

>  <ligand_id>  (54) 
53

>  <original_smiles>  (54) 
[H]C1=C(C([H])([H])Oc2c([H])c([H])c3c(c2[H])C([H])([H])N(C(=O)C([H])(N([H])C(=O)C([H])(N([H])C([H])([H])[H])C([H])([H])[H])C(C([H])([H])[H])(C([H])([H])[H])C([H])([H])[H])C([H])(C(=O)N([H])C2([H])c4c([H])c([H])c([H])c([H])c4C([H])([H])C([H])([H])C2([H])[H])C3([H])[H])C([H])([H])C(=O)C([H])([H])C([H])([H])N1c1c([H])c([H])c(N([H])C(=O)N2C([H])([H])C([H])([H])C([H])([H])C([H])(n3nc(-c4c([H])c([H])c(Oc5c([H])c([H])c(F)c([H])c5F)c([H])c4[H])c(C(=O)N([H])[H])c3N([H])[H])C2([H])[H])c([H])c1F

>  <smiles>  (54) 
[H]C1=C(C([H])([H])Oc2c([H])c([H])c3c(c2[H])C([H])([H])N(C(=O)C([H])(N([H])C(=O)C([H])(N([H])C([H])([H])[H])C([H])([H])[H])C(C([H])([H])[H])(C([H])([H])[H])C([H])([H])[H])C([H])(C(=O)N([H])C2([H])c4c([H])c([H])c([H])c([H])c4C([H])([H])C([H])([H])C2([H])[H])C3([H])[H])C([H])([H])C(=O)C([H])([H])C([H])([H])N1c1c([H])c([H])c(N([H])C(=O)N2C([H])([H])C([H])([H])C([H])([H])C([H])(n3nc(-c4c([H])c([H])c(Oc5c([H])c([H])c(F)c([H])c5F)c([H])c4[H])c(C(=O)N([H])[H])c3N([H])[H])C2([H])[H])c([H])c1F

$$$$
54:0:0
     RDKit          3D

 95103  0  0  1  0  0  0  0  0999 V2000
  -30.9880  -19.5840   20.1210 C   0  0  0  0  0  3  0  0  0  0  0  0
  -28.2690  -20.0660   20.2660 C   0  0  0  0  0  3  0  0  0  0  0  0
  -30.1420  -18.4470   20.2810 C   0  0  0  0  0  0  0  0  0  0  0  0
  -29.1200  -21.2030   20.1410 C   0  0  0  0  0  0  0  0  0  0  0  0
  -30.5110  -20.9340   20.0270 C   0  0  0  0  0  0  0  0  0  0  0  0
  -28.7550  -18.7220   20.3390 C   0  0  0  0  0  0  0  0  0  0  0  0
  -27.8710  -17.7030   20.4770 F   0  0  0  0  0  0  0  0  0  0  0  0
  -30.7890  -14.6480   20.0520 C   0  0  0  0  0  0  0  0  0  0  0  0
  -30.4010  -12.4160   19.0250 C   0  0  0  0  0  2  0  0  0  0  0  0
  -29.4100  -12.5190   17.8490 C   0  0  0  0  0  2  0  0  0  0  0  0
  -27.9650  -12.3710   18.3590 C   0  0  0  0  0  2  0  0  0  0  0  0
  -27.6680  -13.2690   19.5910 C   0  0  0  0  0  3  0  0  0  0  0  0
  -28.7850  -13.1900   20.6540 C   0  0  0  0  0  2  0  0  0  0  0  0
  -30.0530  -13.4910   19.9810 N   0  0  0  0  0  0  0  0  0  0  0  0
  -31.9600  -14.6220   19.6690 O   0  0  0  0  0  0  0  0  0  0  0  0
  -30.7930  -17.0600   20.5020 C   0  0  0  0  0  0  0  0  0  0  0  0
  -30.1560  -15.8510   20.3020 N   0  0  0  0  0  0  0  0  0  0  0  0
  -31.9810  -17.1030   20.8480 O   0  0  0  0  0  0  0  0  0  0  0  0
  -29.1510  -15.8680   20.2740 H   0  0  0  0  0  0  0  0  0  0  0  0
  -25.3380  -13.8740   20.4730 C   0  0  0  0  0  0  0  0  0  0  0  0
  -24.2800  -13.1060   20.8770 C   0  0  0  0  0  0  0  0  0  0  0  0
  -24.7180  -11.7490   20.7840 C   0  0  0  0  0  0  0  0  0  0  0  0
  -26.3520  -12.9870   20.1550 N   0  0  0  0  0  0  0  0  0  0  0  0
  -25.9890  -11.7010   20.4040 N   0  0  0  0  0  0  0  0  0  0  0  0
  -23.9810  -10.4930   20.9780 C   0  0  0  0  0  0  0  0  0  0  0  0
  -24.4330   -9.5020   21.8770 C   0  0  0  0  0  3  0  0  0  0  0  0
  -23.6950   -8.3130   22.0610 C   0  0  0  0  0  3  0  0  0  0  0  0
  -22.4910   -8.1060   21.3460 C   0  0  0  0  0  0  0  0  0  0  0  0
  -22.0580   -9.0860   20.4350 C   0  0  0  0  0  3  0  0  0  0  0  0
  -22.7960  -10.2660   20.2490 C   0  0  0  0  0  3  0  0  0  0  0  0
  -21.7240   -6.9710   21.4410 O   0  0  0  0  0  0  0  0  0  0  0  0
  -21.7000   -6.2110   22.5830 C   0  0  0  0  0  0  0  0  0  0  0  0
  -21.2950   -6.7450   23.8260 C   0  0  0  0  0  3  0  0  0  0  0  0
  -21.2190   -5.9120   24.9600 C   0  0  0  0  0  3  0  0  0  0  0  0
  -21.5380   -4.5460   24.8530 C   0  0  0  0  0  0  0  0  0  0  0  0
  -21.9370   -4.0100   23.6150 C   0  0  0  0  0  3  0  0  0  0  0  0
  -22.0150   -4.8400   22.4830 C   0  0  0  0  0  0  0  0  0  0  0  0
  -22.3790   -4.3160   21.2880 F   0  0  0  0  0  0  0  0  0  0  0  0
  -21.4590   -3.7420   25.9390 F   0  0  0  0  0  0  0  0  0  0  0  0
  -22.9080  -13.5980   21.2370 C   0  0  0  0  0  0  0  0  0  0  0  0
  -22.2150  -12.8870   22.1200 N   0  0  0  0  0  0  0  0  0  0  0  0
  -22.4610  -14.6450   20.7720 O   0  0  0  0  0  0  0  0  0  0  0  0
  -22.5920  -12.0400   22.5180 H   0  0  0  0  0  0  0  0  0  0  0  0
  -21.2950  -13.1950   22.4020 H   0  0  0  0  0  0  0  0  0  0  0  0
  -25.5140  -15.2470   20.3270 N   0  0  0  0  0  0  0  0  0  0  0  0
  -24.7710  -15.9090   20.5190 H   0  0  0  0  0  0  0  0  0  0  0  0
  -26.3670  -15.6940   20.0150 H   0  0  0  0  0  0  0  0  0  0  0  0
  -28.8890  -23.8070   20.3910 C   0  0  0  0  0  0  0  0  0  0  0  0
  -28.5230  -22.5380   20.0030 N   0  0  0  0  0  0  0  0  0  0  0  0
  -29.8660  -24.0480   21.1070 O   0  0  0  0  0  0  0  0  0  0  0  0
  -27.6260  -22.5320   19.5380 H   0  0  0  0  0  0  0  0  0  0  0  0
  -27.9500  -24.9790   19.9140 C   0  0  0  0  0  2  0  0  0  0  0  0
  -28.2670  -26.3910   20.2670 O   0  0  0  0  0  0  0  0  0  0  0  0
  -24.5730  -31.8690   23.2090 C   0  0  0  0  0  0  0  0  0  0  0  0
  -27.1860  -27.2910   20.1780 C   0  0  0  0  0  0  0  0  0  0  0  0
  -23.3830  -30.4780   21.5570 C   0  0  0  0  0  3  0  0  0  0  0  0
  -24.8420  -28.9350   20.1400 C   0  0  0  0  0  0  0  0  0  0  0  0
  -25.9290  -30.7820   21.4050 C   0  0  0  0  0  2  0  0  0  0  0  0
  -26.0080  -29.4050   20.7570 C   0  0  0  0  0  0  0  0  0  0  0  0
  -27.1850  -28.5930   20.7710 C   0  0  0  0  0  3  0  0  0  0  0  0
  -25.9970  -26.8970   19.5140 C   0  0  0  0  0  3  0  0  0  0  0  0
  -24.8390  -27.6870   19.5100 C   0  0  0  0  0  3  0  0  0  0  0  0
  -23.6090  -29.8120   20.1770 C   0  0  0  0  0  2  0  0  0  0  0  0
  -24.6470  -31.0600   22.1140 N   0  0  0  0  0  0  0  0  0  0  0  0
  -23.4830  -32.1500   23.7300 O   0  0  0  0  0  0  0  0  0  0  0  0
  -22.7070  -29.4580   22.5050 C   0  0  0  0  0  0  0  0  0  0  0  0
  -21.3790  -29.3020   22.3770 N   0  0  0  0  0  0  0  0  0  0  0  0
  -23.3760  -28.8120   23.3160 O   0  0  0  0  0  0  0  0  0  0  0  0
  -20.9000  -29.8720   21.6960 H   0  0  0  0  0  0  0  0  0  0  0  0
  -17.9750  -28.1910   22.9020 C   0  0  0  0  0  0  0  0  0  0  0  0
  -20.5440  -28.3720   23.1390 C   0  0  0  0  0  3  0  0  0  0  0  0
  -20.5960  -26.9500   22.5340 C   0  0  0  0  0  2  0  0  0  0  0  0
  -19.4700  -26.6800   21.5290 C   0  0  0  0  0  2  0  0  0  0  0  0
  -18.1020  -26.8520   22.1960 C   0  0  0  0  0  2  0  0  0  0  0  0
  -19.1210  -28.9120   23.3310 C   0  0  0  0  0  0  0  0  0  0  0  0
  -18.9470  -30.1690   23.9510 C   0  0  0  0  0  3  0  0  0  0  0  0
  -17.6600  -30.7040   24.1460 C   0  0  0  0  0  3  0  0  0  0  0  0
  -16.5280  -29.9800   23.7340 C   0  0  0  0  0  3  0  0  0  0  0  0
  -16.6870  -28.7250   23.1170 C   0  0  0  0  0  3  0  0  0  0  0  0
  -25.8500  -32.4960   23.8460 C   0  0  0  0  0  3  0  0  0  0  0  0
  -26.3420  -31.7270   25.1340 C   0  0  1  0  0  0  0  0  0  0  0  0
  -25.2300  -31.4990   26.1850 C   0  0  0  0  0  1  0  0  0  0  0  0
  -26.9240  -30.3450   24.7560 C   0  0  0  0  0  1  0  0  0  0  0  0
  -27.4870  -32.5180   25.8090 C   0  0  0  0  0  1  0  0  0  0  0  0
  -25.5440  -33.8970   24.1650 N   0  0  0  0  0  0  0  0  0  0  0  0
  -25.8980  -34.9450   23.4100 C   0  0  0  0  0  0  0  0  0  0  0  0
  -26.5860  -34.8340   22.3920 O   0  0  0  0  0  0  0  0  0  0  0  0
  -24.9340  -34.0580   24.9540 H   0  0  0  0  0  0  0  0  0  0  0  0
  -24.2020  -36.7580   23.0010 C   0  0  0  0  0  1  0  0  0  0  0  0
  -25.4100  -36.3380   23.8530 C   0  0  0  0  0  3  0  0  0  0  0  0
  -27.5180  -37.2040   24.7660 C   0  0  0  0  0  1  0  0  0  0  0  0
  -26.4580  -37.3790   23.7780 N   0  0  0  0  0  0  0  0  0  0  0  0
  -26.0560  -38.3040   23.9050 H   0  0  0  0  0  0  0  0  0  0  0  0
  -32.7180  -21.7630   19.5180 C   0  0  0  0  0  1  0  0  0  0  0  0
  -31.3450  -22.0060   19.7900 O   0  0  0  0  0  0  0  0  0  0  0  0
  1  3  1  0
  2  6  1  0
  3  6  2  0
  3 16  1  0
  4  2  2  0
  5  1  2  0
  5  4  1  0
  6  7  1  0
  8 17  1  0
  9 14  1  0
 10 11  1  0
 10  9  1  0
 12 11  1  0
 12 23  1  0
 12 13  1  0
 14  8  1  0
 14 13  1  0
 15  8  2  0
 16 18  2  0
 17 16  1  0
 19 17  1  0
 20 21  2  0
 21 40  1  0
 22 21  1  0
 22 25  1  0
 23 24  1  0
 23 20  1  0
 24 22  2  0
 25 26  1  0
 26 27  2  0
 28 31  1  0
 28 27  1  0
 29 28  2  0
 30 29  1  0
 30 25  2  0
 31 32  1  0
 32 33  1  0
 33 34  2  0
 35 34  1  0
 35 39  1  0
 36 35  2  0
 37 32  2  0
 37 36  1  0
 38 37  1  0
 40 41  1  0
 41 44  1  0
 41 43  1  0
 42 40  2  0
 45 20  1  0
 45 46  1  0
 47 45  1  0
 48 50  2  0
 49  4  1  0
 49 48  1  0
 51 49  1  0
 52 53  1  0
 52 48  1  0
 54 65  2  0
 55 53  1  0
 55 60  1  0
 56 64  1  0
 56 66  1  0
 57 63  1  0
 57 59  1  0
 58 64  1  0
 59 60  2  0
 59 58  1  0
 61 55  2  0
 62 61  1  0
 62 57  2  0
 63 56  1  0
 64 54  1  0
 66 68  2  0
 67 66  1  0
 69 67  1  0
 70 79  2  0
 70 75  1  0
 71 67  1  0
 71 75  1  0
 72 71  1  0
 73 74  1  0
 73 72  1  0
 74 70  1  0
 75 76  2  0
 76 77  1  0
 78 77  2  0
 79 78  1  0
 80 54  1  0
 80 85  1  0
 80 81  1  0
 81 84  1  1
 81 82  1  0
 83 81  1  0
 85 88  1  0
 86 90  1  0
 86 85  1  0
 87 86  2  0
 90 89  1  0
 92 90  1  0
 92 93  1  0
 92 91  1  0
 94 95  1  0
 95  5  1  0
M  ISO  4   8 100  17 100  52 101  53 101
M  END
>  <TORSDO>  (55) 
F 19

>  <SCORE>  (55) 
-14.634

>  <name>  (55) 
54

>  <ligand_id>  (55) 
54

>  <original_smiles>  (55) 
[H]c1c([H])c([H])c2c(c1[H])C([H])([H])C([H])([H])C([H])([H])C2([H])N([H])C(=O)C1([H])N(C(=O)C([H])(N([H])C(=O)C([H])(N([H])C([H])([H])[H])C([H])([H])[H])C(C([H])([H])[H])(C([H])([H])[H])C([H])([H])[H])C([H])([H])c2c([H])c(OC([H])([H])C(=O)N([H])c3c([H])c(F)c(C(=O)N([H])C(=O)N4C([H])([H])C([H])([H])C([H])([H])C([H])(n5nc(-c6c([H])c([H])c(Oc7c([H])c([H])c(F)c([H])c7F)c([H])c6[H])c(C(=O)N([H])[H])c5N([H])[H])C4([H])[H])c([H])c3OC([H])([H])[H])c([H])c([H])c2C1([H])[H]

>  <smiles>  (55) 
[H]c1c([H])c([H])c2c(c1[H])C([H])([H])C([H])([H])C([H])([H])C2([H])N([H])C(=O)C1([H])N(C(=O)C([H])(N([H])C(=O)C([H])(N([H])C([H])([H])[H])C([H])([H])[H])C(C([H])([H])[H])(C([H])([H])[H])C([H])([H])[H])C([H])([H])c2c([H])c(OC([H])([H])C(=O)N([H])c3c([H])c(F)c(C(=O)N([H])C(=O)N4C([H])([H])C([H])([H])C([H])([H])C([H])(n5nc(-c6c([H])c([H])c(Oc7c([H])c([H])c(F)c([H])c7F)c([H])c6[H])c(C(=O)N([H])[H])c5N([H])[H])C4([H])[H])c([H])c3OC([H])([H])[H])c([H])c([H])c2C1([H])[H]

$$$$
55:0:0
     RDKit          3D

 96105  0  0  1  0  0  0  0  0999 V2000
  -29.0850  -22.6240   20.1750 C   0  0  0  0  0  3  0  0  0  0  0  0
  -28.8830  -23.9030   19.6850 C   0  0  0  0  0  0  0  0  0  0  0  0
  -29.2130  -24.1250   18.2570 C   0  0  0  0  0  0  0  0  0  0  0  0
  -29.4300  -22.8820   17.3920 C   0  0  0  0  0  2  0  0  0  0  0  0
  -30.1880  -21.7690   18.1390 C   0  0  0  0  0  2  0  0  0  0  0  0
  -29.6440  -21.5060   19.4770 N   0  0  0  0  0  0  0  0  0  0  0  0
  -29.2910  -25.2320   17.7190 O   0  0  0  0  0  0  0  0  0  0  0  0
  -30.9500  -19.3570   19.5220 C   0  0  0  0  0  3  0  0  0  0  0  0
  -31.0830  -17.9510   19.7370 C   0  0  0  0  0  3  0  0  0  0  0  0
  -28.8810  -17.9310   20.6880 C   0  0  0  0  0  3  0  0  0  0  0  0
  -29.7800  -20.1080   19.8580 C   0  0  0  0  0  0  0  0  0  0  0  0
  -30.0360  -17.1870   20.3110 C   0  0  0  0  0  0  0  0  0  0  0  0
  -28.7470  -19.3410   20.4730 C   0  0  0  0  0  0  0  0  0  0  0  0
  -30.8250  -14.7080   20.0190 C   0  0  0  0  0  0  0  0  0  0  0  0
  -30.5630  -12.4940   18.9150 C   0  0  0  0  0  2  0  0  0  0  0  0
  -29.5380  -12.6630   17.7700 C   0  0  0  0  0  2  0  0  0  0  0  0
  -28.0960  -12.4910   18.2900 C   0  0  0  0  0  2  0  0  0  0  0  0
  -27.8250  -13.3090   19.5810 C   0  0  0  0  0  3  0  0  0  0  0  0
  -28.9550  -13.1080   20.6160 C   0  0  0  0  0  2  0  0  0  0  0  0
  -30.2240  -13.4750   19.9660 N   0  0  0  0  0  0  0  0  0  0  0  0
  -31.9480  -14.8910   19.5410 O   0  0  0  0  0  0  0  0  0  0  0  0
  -30.0420  -15.7290   20.5030 N   0  0  0  0  0  0  0  0  0  0  0  0
  -29.2130  -15.3740   20.9520 H   0  0  0  0  0  0  0  0  0  0  0  0
  -25.4930  -13.8920   20.4920 C   0  0  0  0  0  0  0  0  0  0  0  0
  -24.4470  -13.1100   20.9020 C   0  0  0  0  0  0  0  0  0  0  0  0
  -24.8910  -11.7580   20.7750 C   0  0  0  0  0  0  0  0  0  0  0  0
  -26.5090  -13.0160   20.1440 N   0  0  0  0  0  0  0  0  0  0  0  0
  -26.1560  -11.7240   20.3730 N   0  0  0  0  0  0  0  0  0  0  0  0
  -24.1660  -10.4940   20.9590 C   0  0  0  0  0  0  0  0  0  0  0  0
  -24.5890   -9.5310   21.9010 C   0  0  0  0  0  3  0  0  0  0  0  0
  -23.8650   -8.3310   22.0710 C   0  0  0  0  0  3  0  0  0  0  0  0
  -22.7050   -8.0860   21.2990 C   0  0  0  0  0  0  0  0  0  0  0  0
  -22.3030   -9.0390   20.3470 C   0  0  0  0  0  3  0  0  0  0  0  0
  -23.0270  -10.2300   20.1730 C   0  0  0  0  0  3  0  0  0  0  0  0
  -21.9540   -6.9380   21.3780 O   0  0  0  0  0  0  0  0  0  0  0  0
  -21.7980   -6.2600   22.5600 C   0  0  0  0  0  0  0  0  0  0  0  0
  -21.2200   -6.8660   23.6970 C   0  0  0  0  0  3  0  0  0  0  0  0
  -21.0150   -6.1120   24.8700 C   0  0  0  0  0  3  0  0  0  0  0  0
  -21.3800   -4.7520   24.9050 C   0  0  0  0  0  0  0  0  0  0  0  0
  -21.9510   -4.1460   23.7730 C   0  0  0  0  0  3  0  0  0  0  0  0
  -22.1570   -4.8980   22.6030 C   0  0  0  0  0  0  0  0  0  0  0  0
  -22.6880   -4.3030   21.5080 F   0  0  0  0  0  0  0  0  0  0  0  0
  -21.1770   -4.0250   26.0280 F   0  0  0  0  0  0  0  0  0  0  0  0
  -23.0790  -13.5850   21.2960 C   0  0  0  0  0  0  0  0  0  0  0  0
  -22.4060  -12.8550   22.1780 N   0  0  0  0  0  0  0  0  0  0  0  0
  -22.6160  -14.6370   20.8560 O   0  0  0  0  0  0  0  0  0  0  0  0
  -22.7940  -12.0030   22.5550 H   0  0  0  0  0  0  0  0  0  0  0  0
  -21.4900  -13.1530   22.4820 H   0  0  0  0  0  0  0  0  0  0  0  0
  -25.6580  -15.2680   20.3660 N   0  0  0  0  0  0  0  0  0  0  0  0
  -24.8990  -15.9160   20.5490 H   0  0  0  0  0  0  0  0  0  0  0  0
  -26.4680  -15.7160   19.9570 H   0  0  0  0  0  0  0  0  0  0  0  0
  -27.5450  -19.9590   20.8200 N   0  0  0  0  0  0  0  0  0  0  0  0
  -26.7070  -19.3890   20.8340 H   0  0  0  0  0  0  0  0  0  0  0  0
  -27.3980  -20.8620   20.3800 H   0  0  0  0  0  0  0  0  0  0  0  0
  -28.2650  -25.1110   20.4920 C   0  0  0  0  0  2  0  0  0  0  0  0
  -28.4580  -26.5150   20.0420 O   0  0  0  0  0  0  0  0  0  0  0  0
  -24.6580  -31.8330   23.1130 C   0  0  0  0  0  0  0  0  0  0  0  0
  -27.3310  -27.3460   20.0250 C   0  0  0  0  0  0  0  0  0  0  0  0
  -23.4740  -30.4370   21.4560 C   0  0  0  0  0  3  0  0  0  0  0  0
  -24.9460  -28.9180   20.0170 C   0  0  0  0  0  0  0  0  0  0  0  0
  -26.0090  -30.7920   21.2790 C   0  0  0  0  0  2  0  0  0  0  0  0
  -26.1070  -29.4210   20.6210 C   0  0  0  0  0  0  0  0  0  0  0  0
  -27.3050  -28.6480   20.6110 C   0  0  0  0  0  3  0  0  0  0  0  0
  -26.1530  -26.8940   19.3930 C   0  0  0  0  0  3  0  0  0  0  0  0
  -24.9720  -27.6600   19.3930 C   0  0  0  0  0  3  0  0  0  0  0  0
  -23.6980  -29.7750   20.0700 C   0  0  0  0  0  2  0  0  0  0  0  0
  -24.7310  -31.0370   22.0070 N   0  0  0  0  0  0  0  0  0  0  0  0
  -23.5700  -32.0930   23.6470 O   0  0  0  0  0  0  0  0  0  0  0  0
  -22.8210  -29.4040   22.4040 C   0  0  0  0  0  0  0  0  0  0  0  0
  -21.4930  -29.2330   22.2890 N   0  0  0  0  0  0  0  0  0  0  0  0
  -23.5070  -28.7590   23.2010 O   0  0  0  0  0  0  0  0  0  0  0  0
  -20.9980  -29.8050   21.6190 H   0  0  0  0  0  0  0  0  0  0  0  0
  -18.1110  -28.0790   22.8450 C   0  0  0  0  0  0  0  0  0  0  0  0
  -20.6790  -28.2850   23.0520 C   0  0  0  0  0  3  0  0  0  0  0  0
  -20.7400  -26.8720   22.4270 C   0  0  0  0  0  2  0  0  0  0  0  0
  -19.6050  -26.6020   21.4340 C   0  0  0  0  0  2  0  0  0  0  0  0
  -18.2440  -26.7500   22.1190 C   0  0  0  0  0  2  0  0  0  0  0  0
  -19.2550  -28.8060   23.2680 C   0  0  0  0  0  0  0  0  0  0  0  0
  -19.0740  -30.0520   23.9070 C   0  0  0  0  0  3  0  0  0  0  0  0
  -17.7840  -30.5700   24.1260 C   0  0  0  0  0  3  0  0  0  0  0  0
  -16.6550  -29.8380   23.7180 C   0  0  0  0  0  3  0  0  0  0  0  0
  -16.8190  -28.5950   23.0830 C   0  0  0  0  0  3  0  0  0  0  0  0
  -25.9320  -32.4720   23.7460 C   0  0  0  0  0  3  0  0  0  0  0  0
  -26.4610  -31.6860   25.0080 C   0  0  1  0  0  0  0  0  0  0  0  0
  -25.3700  -31.4120   26.0710 C   0  0  0  0  0  1  0  0  0  0  0  0
  -27.0650  -30.3250   24.5910 C   0  0  0  0  0  1  0  0  0  0  0  0
  -27.5990  -32.4850   25.6850 C   0  0  0  0  0  1  0  0  0  0  0  0
  -25.6030  -33.8590   24.1010 N   0  0  0  0  0  0  0  0  0  0  0  0
  -25.9270  -34.9320   23.3660 C   0  0  0  0  0  0  0  0  0  0  0  0
  -26.6030  -34.8580   22.3380 O   0  0  0  0  0  0  0  0  0  0  0  0
  -24.9990  -33.9910   24.9000 H   0  0  0  0  0  0  0  0  0  0  0  0
  -24.1890  -36.7190   23.0280 C   0  0  0  0  0  1  0  0  0  0  0  0
  -25.4190  -36.3050   23.8500 C   0  0  0  0  0  3  0  0  0  0  0  0
  -27.5280  -37.1910   24.7430 C   0  0  0  0  0  1  0  0  0  0  0  0
  -26.4450  -37.3690   23.7800 N   0  0  0  0  0  0  0  0  0  0  0  0
  -26.0270  -38.2820   23.9370 H   0  0  0  0  0  0  0  0  0  0  0  0
  2  1  2  0
  2 55  1  0
  3  2  1  0
  4  5  1  0
  4  3  1  0
  5  6  1  0
  6 11  1  0
  6  1  1  0
  7  3  2  0
  8  9  2  0
  8 11  1  0
  9 12  1  0
 11 13  2  0
 12 22  1  0
 12 10  2  0
 13 10  1  0
 13 52  1  0
 14 22  1  0
 15 20  1  0
 16 17  1  0
 16 15  1  0
 18 17  1  0
 18 27  1  0
 18 19  1  0
 20 14  1  0
 20 19  1  0
 21 14  2  0
 22 23  1  0
 24 25  2  0
 25 44  1  0
 26 25  1  0
 26 29  1  0
 27 28  1  0
 27 24  1  0
 28 26  2  0
 29 30  1  0
 30 31  2  0
 32 35  1  0
 32 31  1  0
 33 32  2  0
 34 33  1  0
 34 29  2  0
 35 36  1  0
 36 41  2  0
 36 37  1  0
 37 38  2  0
 38 39  1  0
 39 43  1  0
 40 39  2  0
 41 40  1  0
 42 41  1  0
 44 45  1  0
 45 48  1  0
 45 47  1  0
 46 44  2  0
 49 24  1  0
 49 50  1  0
 51 49  1  0
 52 53  1  0
 54 52  1  0
 56 55  1  0
 57 68  2  0
 58 56  1  0
 58 63  1  0
 59 67  1  0
 59 69  1  0
 60 66  1  0
 60 62  1  0
 61 67  1  0
 62 61  1  0
 63 62  2  0
 64 65  1  0
 64 58  2  0
 65 60  2  0
 66 59  1  0
 67 57  1  0
 69 71  2  0
 70 69  1  0
 72 70  1  0
 73 82  2  0
 73 78  1  0
 74 70  1  0
 74 78  1  0
 75 74  1  0
 76 77  1  0
 76 75  1  0
 77 73  1  0
 78 79  2  0
 79 80  1  0
 81 80  2  0
 82 81  1  0
 83 57  1  0
 83 88  1  0
 83 84  1  0
 84 87  1  1
 84 85  1  0
 86 84  1  0
 88 91  1  0
 89 93  1  0
 89 88  1  0
 90 89  2  0
 93 92  1  0
 95 93  1  0
 95 96  1  0
 95 94  1  0
M  ISO  4  14 100  22 100  55 101  56 101
M  END
>  <TORSDO>  (56) 
F 19

>  <SCORE>  (56) 
-14.042

>  <name>  (56) 
55

>  <ligand_id>  (56) 
55

>  <original_smiles>  (56) 
[H]C1=C(C([H])([H])Oc2c([H])c([H])c3c(c2[H])C([H])([H])N(C(=O)C([H])(N([H])C(=O)C([H])(N([H])C([H])([H])[H])C([H])([H])[H])C(C([H])([H])[H])(C([H])([H])[H])C([H])([H])[H])C([H])(C(=O)N([H])C2([H])c4c([H])c([H])c([H])c([H])c4C([H])([H])C([H])([H])C2([H])[H])C3([H])[H])C(=O)C([H])([H])C([H])([H])N1c1c([H])c([H])c(N([H])C(=O)N2C([H])([H])C([H])([H])C([H])([H])C([H])(n3nc(-c4c([H])c([H])c(Oc5c([H])c([H])c(F)c([H])c5F)c([H])c4[H])c(C(=O)N([H])[H])c3N([H])[H])C2([H])[H])c([H])c1N([H])[H]

>  <smiles>  (56) 
[H]C1=C(C([H])([H])Oc2c([H])c([H])c3c(c2[H])C([H])([H])N(C(=O)C([H])(N([H])C(=O)C([H])(N([H])C([H])([H])[H])C([H])([H])[H])C(C([H])([H])[H])(C([H])([H])[H])C([H])([H])[H])C([H])(C(=O)N([H])C2([H])c4c([H])c([H])c([H])c([H])c4C([H])([H])C([H])([H])C2([H])[H])C3([H])[H])C(=O)C([H])([H])C([H])([H])N1c1c([H])c([H])c(N([H])C(=O)N2C([H])([H])C([H])([H])C([H])([H])C([H])(n3nc(-c4c([H])c([H])c(Oc5c([H])c([H])c(F)c([H])c5F)c([H])c4[H])c(C(=O)N([H])[H])c3N([H])[H])C2([H])[H])c([H])c1N([H])[H]

$$$$
56:0:0
     RDKit          3D

 95103  0  0  1  0  0  0  0  0999 V2000
  -30.7160  -18.4290   18.9950 C   0  0  0  0  0  3  0  0  0  0  0  0
  -29.4560  -20.0950   20.8360 C   0  0  0  0  0  3  0  0  0  0  0  0
  -30.3640  -17.7460   20.2070 C   0  0  0  0  0  0  0  0  0  0  0  0
  -30.4390  -19.8300   18.7180 C   0  0  0  0  0  0  0  0  0  0  0  0
  -29.6860  -18.6860   21.1040 C   0  0  0  0  0  0  0  0  0  0  0  0
  -29.8010  -20.7510   19.6230 C   0  0  0  0  0  0  0  0  0  0  0  0
  -30.6870  -16.1910   20.5890 C   0  0  0  0  0  3  0  0  0  0  0  0
  -30.6090  -15.8950   21.8190 N   0  0  0  0  0  2  0  0  0  0  0  0
  -30.3460  -16.7370   22.3310 H   0  0  0  0  0  0  0  0  0  0  0  0
  -31.2080  -14.9500   19.6490 C   0  0  0  0  0  0  0  0  0  0  0  0
  -30.8490  -12.6820   18.5740 C   0  0  0  0  0  2  0  0  0  0  0  0
  -29.7860  -12.7870   17.4540 C   0  0  0  0  0  2  0  0  0  0  0  0
  -28.3630  -12.6290   18.0240 C   0  0  0  0  0  2  0  0  0  0  0  0
  -28.1500  -13.4850   19.2980 C   0  0  0  0  0  3  0  0  0  0  0  0
  -29.3100  -13.3070   20.2970 C   0  0  0  0  0  2  0  0  0  0  0  0
  -30.5530  -13.7130   19.6130 N   0  0  0  0  0  0  0  0  0  0  0  0
  -32.2590  -15.0640   19.0060 O   0  0  0  0  0  0  0  0  0  0  0  0
  -25.9090  -14.1510   20.3500 C   0  0  0  0  0  0  0  0  0  0  0  0
  -24.8400  -13.4150   20.7830 C   0  0  0  0  0  0  0  0  0  0  0  0
  -25.1990  -12.0460   20.5860 C   0  0  0  0  0  0  0  0  0  0  0  0
  -26.8520  -13.2340   19.9180 N   0  0  0  0  0  0  0  0  0  0  0  0
  -26.4390  -11.9560   20.1200 N   0  0  0  0  0  0  0  0  0  0  0  0
  -24.4090  -10.8190   20.7630 C   0  0  0  0  0  0  0  0  0  0  0  0
  -24.8220   -9.7940   21.6420 C   0  0  0  0  0  3  0  0  0  0  0  0
  -24.0350   -8.6340   21.8070 C   0  0  0  0  0  3  0  0  0  0  0  0
  -22.8220   -8.4900   21.0930 C   0  0  0  0  0  0  0  0  0  0  0  0
  -22.4270   -9.5030   20.2030 C   0  0  0  0  0  3  0  0  0  0  0  0
  -23.2130  -10.6560   20.0350 C   0  0  0  0  0  3  0  0  0  0  0  0
  -22.0070   -7.3870   21.1710 O   0  0  0  0  0  0  0  0  0  0  0  0
  -21.8770   -6.6690   22.3320 C   0  0  0  0  0  0  0  0  0  0  0  0
  -21.4100   -7.2600   23.5260 C   0  0  0  0  0  3  0  0  0  0  0  0
  -21.2260   -6.4690   24.6780 C   0  0  0  0  0  3  0  0  0  0  0  0
  -21.4980   -5.0890   24.6370 C   0  0  0  0  0  0  0  0  0  0  0  0
  -21.9590   -4.4970   23.4480 C   0  0  0  0  0  3  0  0  0  0  0  0
  -22.1450   -5.2840   22.2970 C   0  0  0  0  0  0  0  0  0  0  0  0
  -22.5680   -4.7060   21.1480 F   0  0  0  0  0  0  0  0  0  0  0  0
  -21.3150   -4.3270   25.7410 F   0  0  0  0  0  0  0  0  0  0  0  0
  -23.5220  -13.9530   21.2600 C   0  0  0  0  0  0  0  0  0  0  0  0
  -22.8570  -13.2350   22.1580 N   0  0  0  0  0  0  0  0  0  0  0  0
  -23.0980  -15.0400   20.8720 O   0  0  0  0  0  0  0  0  0  0  0  0
  -23.2150  -12.3520   22.4910 H   0  0  0  0  0  0  0  0  0  0  0  0
  -21.9770  -13.5750   22.5190 H   0  0  0  0  0  0  0  0  0  0  0  0
  -26.1490  -15.5200   20.2670 N   0  0  0  0  0  0  0  0  0  0  0  0
  -25.4530  -16.2080   20.5280 H   0  0  0  0  0  0  0  0  0  0  0  0
  -26.9930  -15.9330   19.8900 H   0  0  0  0  0  0  0  0  0  0  0  0
  -30.8180  -20.3410   17.4790 N   0  0  0  0  0  0  0  0  0  0  0  0
  -30.9020  -19.7000   16.6960 H   0  0  0  0  0  0  0  0  0  0  0  0
  -30.4050  -21.2310   17.2180 H   0  0  0  0  0  0  0  0  0  0  0  0
  -29.1560  -18.2770   22.3330 N   0  0  0  0  0  0  0  0  0  0  0  0
  -28.5950  -18.9620   22.8310 H   0  0  0  0  0  0  0  0  0  0  0  0
  -28.6860  -17.3750   22.3410 H   0  0  0  0  0  0  0  0  0  0  0  0
  -29.4900  -22.1210   19.2270 O   0  0  0  0  0  0  0  0  0  0  0  0
  -29.2290  -23.3670   20.0730 C   0  0  0  0  0  2  0  0  0  0  0  0
  -28.4040  -24.6980   19.4780 C   0  0  0  0  0  2  0  0  0  0  0  0
  -28.5180  -26.1890   19.8890 O   0  0  0  0  0  0  0  0  0  0  0  0
  -24.6840  -31.6060   23.0220 C   0  0  0  0  0  0  0  0  0  0  0  0
  -27.4170  -27.1120   19.8250 C   0  0  0  0  0  0  0  0  0  0  0  0
  -23.5250  -30.2230   21.3440 C   0  0  0  0  0  3  0  0  0  0  0  0
  -25.0210  -28.7540   19.8590 C   0  0  0  0  0  0  0  0  0  0  0  0
  -26.0650  -30.5890   21.1790 C   0  0  0  0  0  2  0  0  0  0  0  0
  -26.1830  -29.2250   20.4820 C   0  0  0  0  0  0  0  0  0  0  0  0
  -27.3780  -28.4170   20.4560 C   0  0  0  0  0  3  0  0  0  0  0  0
  -26.2300  -26.7490   19.1460 C   0  0  0  0  0  3  0  0  0  0  0  0
  -25.0550  -27.5300   19.1770 C   0  0  0  0  0  3  0  0  0  0  0  0
  -23.7620  -29.6000   19.9420 C   0  0  0  0  0  2  0  0  0  0  0  0
  -24.7760  -30.8260   21.9030 N   0  0  0  0  0  0  0  0  0  0  0  0
  -23.5920  -31.8350   23.5640 O   0  0  0  0  0  0  0  0  0  0  0  0
  -22.8890  -29.1590   22.2740 C   0  0  0  0  0  0  0  0  0  0  0  0
  -21.5650  -28.9600   22.1600 N   0  0  0  0  0  0  0  0  0  0  0  0
  -23.5900  -28.5200   23.0630 O   0  0  0  0  0  0  0  0  0  0  0  0
  -21.0540  -29.5310   21.5000 H   0  0  0  0  0  0  0  0  0  0  0  0
  -18.2180  -27.6790   22.6870 C   0  0  0  0  0  0  0  0  0  0  0  0
  -20.7780  -27.9740   22.9070 C   0  0  0  0  0  3  0  0  0  0  0  0
  -20.8890  -26.5720   22.2660 C   0  0  0  0  0  2  0  0  0  0  0  0
  -19.7700  -26.2750   21.2640 C   0  0  0  0  0  2  0  0  0  0  0  0
  -18.4010  -26.3650   21.9450 C   0  0  0  0  0  2  0  0  0  0  0  0
  -19.3330  -28.4420   23.1240 C   0  0  0  0  0  0  0  0  0  0  0  0
  -19.1060  -29.6720   23.7790 C   0  0  0  0  0  3  0  0  0  0  0  0
  -17.7970  -30.1390   24.0010 C   0  0  0  0  0  3  0  0  0  0  0  0
  -16.6970  -29.3730   23.5780 C   0  0  0  0  0  3  0  0  0  0  0  0
  -16.9080  -28.1440   22.9270 C   0  0  0  0  0  3  0  0  0  0  0  0
  -25.9440  -32.2660   23.6630 C   0  0  0  0  0  3  0  0  0  0  0  0
  -25.5880  -33.6450   24.0310 N   0  0  0  0  0  0  0  0  0  0  0  0
  -25.8860  -34.7310   23.3070 C   0  0  0  0  0  0  0  0  0  0  0  0
  -26.5570  -34.6800   22.2730 O   0  0  0  0  0  0  0  0  0  0  0  0
  -24.9900  -33.7560   24.8380 H   0  0  0  0  0  0  0  0  0  0  0  0
  -24.1000  -36.4810   23.0150 C   0  0  0  0  0  1  0  0  0  0  0  0
  -25.3580  -36.0910   23.8070 C   0  0  0  0  0  3  0  0  0  0  0  0
  -27.4620  -37.0270   24.6630 C   0  0  0  0  0  1  0  0  0  0  0  0
  -26.3560  -37.1790   23.7200 N   0  0  0  0  0  0  0  0  0  0  0  0
  -25.9200  -38.0820   23.8870 H   0  0  0  0  0  0  0  0  0  0  0  0
  -26.4820  -31.4810   24.9220 C   0  0  1  0  0  0  0  0  0  0  0  0
  -25.3960  -31.1870   25.9830 C   0  0  0  0  0  1  0  0  0  0  0  0
  -27.1060  -30.1300   24.5030 C   0  0  0  0  0  1  0  0  0  0  0  0
  -27.6070  -32.2930   25.6040 C   0  0  0  0  0  1  0  0  0  0  0  0
  1  3  1  0
  2  5  1  0
  3  7  1  0
  3  5  2  0
  4  1  2  0
  4  6  1  0
  5 49  1  0
  6  2  2  0
  7 10  1  0
  7  8  1  0
  8  9  1  0
 11 16  1  0
 12 13  1  0
 12 11  1  0
 14 13  1  0
 14 21  1  0
 14 15  1  0
 16 10  1  0
 16 15  1  0
 17 10  2  0
 18 19  2  0
 19 38  1  0
 20 23  1  0
 20 19  1  0
 21 22  1  0
 21 18  1  0
 22 20  2  0
 23 24  1  0
 24 25  2  0
 26 29  1  0
 26 25  1  0
 27 26  2  0
 28 27  1  0
 28 23  2  0
 29 30  1  0
 30 31  1  0
 31 32  2  0
 33 32  1  0
 33 37  1  0
 34 33  2  0
 35 30  2  0
 35 34  1  0
 36 35  1  0
 38 39  1  0
 39 41  1  0
 39 42  1  0
 40 38  2  0
 43 18  1  0
 43 44  1  0
 45 43  1  0
 46  4  1  0
 47 46  1  0
 48 46  1  0
 49 51  1  0
 49 50  1  0
 52  6  1  0
 52 53  1  0
 54 55  1  0
 54 53  1  0
 56 67  2  0
 57 55  1  0
 57 62  1  0
 58 66  1  0
 58 68  1  0
 59 65  1  0
 59 61  1  0
 60 66  1  0
 61 60  1  0
 62 61  2  0
 63 64  1  0
 63 57  2  0
 64 59  2  0
 65 58  1  0
 66 56  1  0
 68 70  2  0
 69 68  1  0
 71 69  1  0
 72 81  2  0
 72 77  1  0
 73 69  1  0
 73 77  1  0
 74 73  1  0
 75 76  1  0
 75 74  1  0
 76 72  1  0
 77 78  2  0
 78 79  1  0
 80 79  2  0
 81 80  1  0
 82 56  1  0
 82 83  1  0
 82 92  1  0
 83 86  1  0
 84 88  1  0
 84 83  1  0
 85 84  2  0
 88 87  1  0
 90 88  1  0
 90 91  1  0
 90 89  1  0
 92 95  1  1
 92 93  1  0
 94 92  1  0
M  ISO  4   7 100  10 100  54 101  55 101
M  END
>  <TORSDO>  (57) 
F 22

>  <SCORE>  (57) 
-10.596

>  <name>  (57) 
56

>  <ligand_id>  (57) 
56

>  <original_smiles>  (57) 
[H]N=C(C(=O)N1C([H])([H])C([H])([H])C([H])([H])C([H])(n2nc(-c3c([H])c([H])c(Oc4c([H])c([H])c(F)c([H])c4F)c([H])c3[H])c(C(=O)N([H])[H])c2N([H])[H])C1([H])[H])c1c([H])c(N([H])[H])c(OC([H])([H])C([H])([H])Oc2c([H])c([H])c3c(c2[H])C([H])([H])N(C(=O)C([H])(N([H])C(=O)C([H])(N([H])C([H])([H])[H])C([H])([H])[H])C(C([H])([H])[H])(C([H])([H])[H])C([H])([H])[H])C([H])(C(=O)N([H])C2([H])c4c([H])c([H])c([H])c([H])c4C([H])([H])C([H])([H])C2([H])[H])C3([H])[H])c([H])c1N([H])[H]

>  <smiles>  (57) 
[H]N=C(C(=O)N1C([H])([H])C([H])([H])C([H])([H])C([H])(n2nc(-c3c([H])c([H])c(Oc4c([H])c([H])c(F)c([H])c4F)c([H])c3[H])c(C(=O)N([H])[H])c2N([H])[H])C1([H])[H])c1c([H])c(N([H])[H])c(OC([H])([H])C([H])([H])Oc2c([H])c([H])c3c(c2[H])C([H])([H])N(C(=O)C([H])(N([H])C(=O)C([H])(N([H])C([H])([H])[H])C([H])([H])[H])C(C([H])([H])[H])(C([H])([H])[H])C([H])([H])[H])C([H])(C(=O)N([H])C2([H])c4c([H])c([H])c([H])c([H])c4C([H])([H])C([H])([H])C2([H])[H])C3([H])[H])c([H])c1N([H])[H]

$$$$
57:0:0
     RDKit          3D

 95103  0  0  1  0  0  0  0  0999 V2000
  -29.9320  -19.3280   20.6910 C   0  0  0  0  0  3  0  0  0  0  0  0
  -29.5880  -20.7240   20.6860 C   0  0  0  0  0  3  0  0  0  0  0  0
  -29.5990  -18.4480   19.6120 C   0  0  0  0  0  0  0  0  0  0  0  0
  -28.9230  -21.3270   19.5860 C   0  0  0  0  0  0  0  0  0  0  0  0
  -28.5860  -20.4510   18.5180 C   0  0  0  0  0  0  0  0  0  0  0  0
  -28.9030  -19.0610   18.5320 C   0  0  0  0  0  0  0  0  0  0  0  0
  -28.5630  -18.3270   17.4410 F   0  0  0  0  0  0  0  0  0  0  0  0
  -30.6890  -14.7500   20.2140 C   0  0  0  0  0  0  0  0  0  0  0  0
  -30.4340  -12.5150   19.1540 C   0  0  0  0  0  2  0  0  0  0  0  0
  -29.4730  -12.6340   17.9520 C   0  0  0  0  0  2  0  0  0  0  0  0
  -28.0080  -12.4650   18.4040 C   0  0  0  0  0  2  0  0  0  0  0  0
  -27.6650  -13.3100   19.6610 C   0  0  0  0  0  3  0  0  0  0  0  0
  -28.7460  -13.1400   20.7430 C   0  0  0  0  0  2  0  0  0  0  0  0
  -30.0250  -13.5410   20.1390 N   0  0  0  0  0  0  0  0  0  0  0  0
  -31.8850  -14.7730   19.9000 O   0  0  0  0  0  0  0  0  0  0  0  0
  -30.1610  -17.0080   19.4360 C   0  0  0  0  0  0  0  0  0  0  0  0
  -29.1460  -16.1670   21.5180 C   0  0  0  0  0  1  0  0  0  0  0  0
  -29.9660  -15.9440   20.3170 N   0  0  0  0  0  0  0  0  0  0  0  0
  -30.7900  -16.8500   18.3810 O   0  0  0  0  0  0  0  0  0  0  0  0
  -25.2820  -13.8830   20.4220 C   0  0  0  0  0  0  0  0  0  0  0  0
  -24.2290  -13.1010   20.8110 C   0  0  0  0  0  0  0  0  0  0  0  0
  -24.7030  -11.7540   20.7760 C   0  0  0  0  0  0  0  0  0  0  0  0
  -26.3300  -13.0130   20.1730 N   0  0  0  0  0  0  0  0  0  0  0  0
  -25.9890  -11.7280   20.4480 N   0  0  0  0  0  0  0  0  0  0  0  0
  -23.9900  -10.4860   20.9740 C   0  0  0  0  0  0  0  0  0  0  0  0
  -24.4320   -9.5290   21.9160 C   0  0  0  0  0  3  0  0  0  0  0  0
  -23.7180   -8.3260   22.1030 C   0  0  0  0  0  3  0  0  0  0  0  0
  -22.5480   -8.0700   21.3500 C   0  0  0  0  0  0  0  0  0  0  0  0
  -22.1250   -9.0160   20.3990 C   0  0  0  0  0  3  0  0  0  0  0  0
  -22.8400  -10.2100   20.2080 C   0  0  0  0  0  3  0  0  0  0  0  0
  -21.8080   -6.9170   21.4490 O   0  0  0  0  0  0  0  0  0  0  0  0
  -21.7470   -6.1950   22.6140 C   0  0  0  0  0  0  0  0  0  0  0  0
  -21.2850   -6.7650   23.8210 C   0  0  0  0  0  3  0  0  0  0  0  0
  -21.1740   -5.9690   24.9790 C   0  0  0  0  0  3  0  0  0  0  0  0
  -21.5150   -4.6040   24.9310 C   0  0  0  0  0  0  0  0  0  0  0  0
  -21.9680   -4.0330   23.7280 C   0  0  0  0  0  3  0  0  0  0  0  0
  -22.0810   -4.8260   22.5730 C   0  0  0  0  0  0  0  0  0  0  0  0
  -22.5000   -4.2660   21.4120 F   0  0  0  0  0  0  0  0  0  0  0  0
  -21.3990   -3.8380   26.0390 F   0  0  0  0  0  0  0  0  0  0  0  0
  -22.8300  -13.5670   21.0980 C   0  0  0  0  0  0  0  0  0  0  0  0
  -22.1160  -12.8700   21.9730 N   0  0  0  0  0  0  0  0  0  0  0  0
  -22.3780  -14.5870   20.5770 O   0  0  0  0  0  0  0  0  0  0  0  0
  -22.4930  -12.0470   22.4190 H   0  0  0  0  0  0  0  0  0  0  0  0
  -21.1770  -13.1630   22.2040 H   0  0  0  0  0  0  0  0  0  0  0  0
  -25.4280  -15.2540   20.2330 N   0  0  0  0  0  0  0  0  0  0  0  0
  -24.6500  -15.8950   20.3420 H   0  0  0  0  0  0  0  0  0  0  0  0
  -26.2580  -15.6990   19.8610 H   0  0  0  0  0  0  0  0  0  0  0  0
  -27.9720  -20.9960   17.3850 N   0  0  0  0  0  0  0  0  0  0  0  0
  -28.0160  -20.3820   16.5790 H   0  0  0  0  0  0  0  0  0  0  0  0
  -28.3090  -21.9190   17.1460 H   0  0  0  0  0  0  0  0  0  0  0  0
  -28.5670  -22.7110   19.4240 N   0  0  0  0  0  0  0  0  0  0  0  0
  -27.9290  -22.8460   18.6450 H   0  0  0  0  0  0  0  0  0  0  0  0
  -28.7410  -23.8990   20.3150 C   0  0  0  0  0  2  0  0  0  0  0  0
  -28.5580  -25.3020   19.5680 C   0  0  0  0  0  2  0  0  0  0  0  0
  -28.4130  -26.5660   20.3300 O   0  0  0  0  0  0  0  0  0  0  0  0
  -24.6050  -31.9410   23.2980 C   0  0  0  0  0  0  0  0  0  0  0  0
  -27.2610  -27.3700   20.2720 C   0  0  0  0  0  0  0  0  0  0  0  0
  -23.4200  -30.5260   21.6630 C   0  0  0  0  0  3  0  0  0  0  0  0
  -24.8830  -28.9720   20.2600 C   0  0  0  0  0  0  0  0  0  0  0  0
  -25.9610  -30.8500   21.4940 C   0  0  0  0  0  2  0  0  0  0  0  0
  -26.0480  -29.4690   20.8550 C   0  0  0  0  0  0  0  0  0  0  0  0
  -27.2370  -28.6810   20.8510 C   0  0  0  0  0  3  0  0  0  0  0  0
  -26.0560  -26.9160   19.6850 C   0  0  0  0  0  3  0  0  0  0  0  0
  -24.8880  -27.7000   19.6720 C   0  0  0  0  0  3  0  0  0  0  0  0
  -23.6440  -29.8420   20.2910 C   0  0  0  0  0  2  0  0  0  0  0  0
  -24.6820  -31.1230   22.2100 N   0  0  0  0  0  0  0  0  0  0  0  0
  -23.5150  -32.2210   23.8220 O   0  0  0  0  0  0  0  0  0  0  0  0
  -22.7540  -29.5130   22.6230 C   0  0  0  0  0  0  0  0  0  0  0  0
  -21.4300  -29.3270   22.4800 N   0  0  0  0  0  0  0  0  0  0  0  0
  -23.4240  -28.8980   23.4550 O   0  0  0  0  0  0  0  0  0  0  0  0
  -20.9460  -29.8730   21.7810 H   0  0  0  0  0  0  0  0  0  0  0  0
  -18.0500  -28.1310   22.9510 C   0  0  0  0  0  0  0  0  0  0  0  0
  -20.6040  -28.3960   23.2490 C   0  0  0  0  0  3  0  0  0  0  0  0
  -20.7140  -26.9580   22.6880 C   0  0  0  0  0  2  0  0  0  0  0  0
  -19.6250  -26.6260   21.6640 C   0  0  0  0  0  2  0  0  0  0  0  0
  -18.2350  -26.7760   22.2910 C   0  0  0  0  0  2  0  0  0  0  0  0
  -19.1620  -28.8990   23.3860 C   0  0  0  0  0  0  0  0  0  0  0  0
  -18.9350  -30.1680   23.9630 C   0  0  0  0  0  3  0  0  0  0  0  0
  -17.6260  -30.6660   24.1120 C   0  0  0  0  0  3  0  0  0  0  0  0
  -16.5280  -29.8950   23.6940 C   0  0  0  0  0  3  0  0  0  0  0  0
  -16.7410  -28.6310   23.1150 C   0  0  0  0  0  3  0  0  0  0  0  0
  -25.8800  -32.5800   23.9270 C   0  0  0  0  0  3  0  0  0  0  0  0
  -26.3810  -31.8270   25.2210 C   0  0  1  0  0  0  0  0  0  0  0  0
  -25.2750  -31.6010   26.2770 C   0  0  0  0  0  1  0  0  0  0  0  0
  -26.9670  -30.4450   24.8540 C   0  0  0  0  0  1  0  0  0  0  0  0
  -27.5220  -32.6310   25.8880 C   0  0  0  0  0  1  0  0  0  0  0  0
  -25.5700  -33.9840   24.2350 N   0  0  0  0  0  0  0  0  0  0  0  0
  -25.9040  -35.0260   23.4610 C   0  0  0  0  0  0  0  0  0  0  0  0
  -26.5760  -34.9080   22.4330 O   0  0  0  0  0  0  0  0  0  0  0  0
  -24.9770  -34.1530   25.0340 H   0  0  0  0  0  0  0  0  0  0  0  0
  -24.1700  -36.8080   23.0780 C   0  0  0  0  0  1  0  0  0  0  0  0
  -25.4120  -36.4210   23.8970 C   0  0  0  0  0  3  0  0  0  0  0  0
  -27.5370  -37.3260   24.7230 C   0  0  0  0  0  1  0  0  0  0  0  0
  -26.4400  -37.4750   23.7700 N   0  0  0  0  0  0  0  0  0  0  0  0
  -26.0310  -38.3960   23.9000 H   0  0  0  0  0  0  0  0  0  0  0  0
  2  1  1  0
  3  1  2  0
  4  2  2  0
  5  6  2  0
  5  4  1  0
  6  3  1  0
  7  6  1  0
  8 18  1  0
  9 14  1  0
 10 11  1  0
 10  9  1  0
 12 11  1  0
 12 23  1  0
 12 13  1  0
 14  8  1  0
 14 13  1  0
 15  8  2  0
 16  3  1  0
 16 18  1  0
 18 17  1  0
 19 16  2  0
 20 21  2  0
 21 40  1  0
 22 21  1  0
 22 25  1  0
 23 20  1  0
 23 24  1  0
 24 22  2  0
 25 26  1  0
 26 27  2  0
 28 31  1  0
 28 27  1  0
 29 28  2  0
 30 29  1  0
 30 25  2  0
 31 32  1  0
 32 33  1  0
 33 34  2  0
 35 34  1  0
 35 39  1  0
 36 35  2  0
 37 32  2  0
 37 36  1  0
 38 37  1  0
 40 41  1  0
 41 44  1  0
 41 43  1  0
 42 40  2  0
 45 46  1  0
 45 20  1  0
 47 45  1  0
 48  5  1  0
 49 48  1  0
 50 48  1  0
 51  4  1  0
 51 53  1  0
 52 51  1  0
 54 53  1  0
 54 55  1  0
 56 67  2  0
 57 55  1  0
 57 62  1  0
 58 66  1  0
 58 68  1  0
 59 65  1  0
 59 61  1  0
 60 66  1  0
 61 60  1  0
 62 61  2  0
 63 57  2  0
 64 63  1  0
 64 59  2  0
 65 58  1  0
 66 56  1  0
 68 70  2  0
 69 68  1  0
 71 69  1  0
 72 81  2  0
 72 77  1  0
 73 69  1  0
 73 77  1  0
 74 73  1  0
 75 76  1  0
 75 74  1  0
 76 72  1  0
 77 78  2  0
 78 79  1  0
 80 79  2  0
 81 80  1  0
 82 56  1  0
 82 87  1  0
 82 83  1  0
 83 86  1  1
 83 84  1  0
 85 83  1  0
 87 90  1  0
 88 92  1  0
 88 87  1  0
 89 88  2  0
 92 91  1  0
 94 92  1  0
 94 95  1  0
 94 93  1  0
M  ISO  4   8 100  18 100  54 101  55 101
M  END
>  <TORSDO>  (58) 
F 20

>  <SCORE>  (58) 
-13.941

>  <name>  (58) 
57

>  <ligand_id>  (58) 
57

>  <original_smiles>  (58) 
[H]c1c([H])c([H])c2c(c1[H])C([H])([H])C([H])([H])C([H])([H])C2([H])N([H])C(=O)C1([H])N(C(=O)C([H])(N([H])C(=O)C([H])(N([H])C([H])([H])[H])C([H])([H])[H])C(C([H])([H])[H])(C([H])([H])[H])C([H])([H])[H])C([H])([H])c2c([H])c(OC([H])([H])C([H])([H])N([H])c3c([H])c([H])c(C(=O)N(C(=O)N4C([H])([H])C([H])([H])C([H])([H])C([H])(n5nc(-c6c([H])c([H])c(Oc7c([H])c([H])c(F)c([H])c7F)c([H])c6[H])c(C(=O)N([H])[H])c5N([H])[H])C4([H])[H])C([H])([H])[H])c(F)c3N([H])[H])c([H])c([H])c2C1([H])[H]

>  <smiles>  (58) 
[H]c1c([H])c([H])c2c(c1[H])C([H])([H])C([H])([H])C([H])([H])C2([H])N([H])C(=O)C1([H])N(C(=O)C([H])(N([H])C(=O)C([H])(N([H])C([H])([H])[H])C([H])([H])[H])C(C([H])([H])[H])(C([H])([H])[H])C([H])([H])[H])C([H])([H])c2c([H])c(OC([H])([H])C([H])([H])N([H])c3c([H])c([H])c(C(=O)N(C(=O)N4C([H])([H])C([H])([H])C([H])([H])C([H])(n5nc(-c6c([H])c([H])c(Oc7c([H])c([H])c(F)c([H])c7F)c([H])c6[H])c(C(=O)N([H])[H])c5N([H])[H])C4([H])[H])C([H])([H])[H])c(F)c3N([H])[H])c([H])c([H])c2C1([H])[H]

$$$$
58:0:0
     RDKit          3D

101110  0  0  1  0  0  0  0  0999 V2000
  -29.3060  -19.1550   19.5190 C   0  0  0  0  0  3  0  0  0  0  0  0
  -30.5570  -18.4390   21.8930 C   0  0  0  0  0  3  0  0  0  0  0  0
  -29.6330  -17.7920   19.7500 C   0  0  0  0  0  0  0  0  0  0  0  0
  -29.5310  -20.1820   20.4660 C   0  0  0  0  0  0  0  0  0  0  0  0
  -30.2410  -17.3890   20.9800 C   0  0  0  0  0  0  0  0  0  0  0  0
  -30.2230  -19.8050   21.6500 C   0  0  0  0  0  0  0  0  0  0  0  0
  -31.1010  -14.9590   21.0110 C   0  0  0  0  0  0  0  0  0  0  0  0
  -31.0120  -12.6310   20.1290 C   0  0  0  0  0  2  0  0  0  0  0  0
  -30.2010  -12.6250   18.8120 C   0  0  0  0  0  2  0  0  0  0  0  0
  -28.6940  -12.4880   19.0870 C   0  0  0  0  0  2  0  0  0  0  0  0
  -28.2010  -13.4510   20.2020 C   0  0  0  0  0  3  0  0  0  0  0  0
  -29.1380  -13.4170   21.4340 C   0  0  0  0  0  2  0  0  0  0  0  0
  -30.5020  -13.7250   20.9810 N   0  0  0  0  0  0  0  0  0  0  0  0
  -32.2580  -15.1260   20.6190 O   0  0  0  0  0  0  0  0  0  0  0  0
  -30.3260  -15.9980   21.4400 N   0  0  0  0  0  0  0  0  0  0  0  0
  -29.5320  -15.6910   21.9830 H   0  0  0  0  0  0  0  0  0  0  0  0
  -25.7560  -14.0790   20.6930 C   0  0  0  0  0  0  0  0  0  0  0  0
  -24.6530  -13.3240   20.9740 C   0  0  0  0  0  0  0  0  0  0  0  0
  -25.1010  -11.9660   21.0010 C   0  0  0  0  0  0  0  0  0  0  0  0
  -26.8100  -13.1880   20.5660 N   0  0  0  0  0  0  0  0  0  0  0  0
  -26.4130  -11.9120   20.8080 N   0  0  0  0  0  0  0  0  0  0  0  0
  -24.3470  -10.7150   21.1460 C   0  0  0  0  0  0  0  0  0  0  0  0
  -24.6920   -9.7580   22.1280 C   0  0  0  0  0  3  0  0  0  0  0  0
  -23.9440   -8.5710   22.2640 C   0  0  0  0  0  3  0  0  0  0  0  0
  -22.8350   -8.3280   21.4220 C   0  0  0  0  0  0  0  0  0  0  0  0
  -22.5060   -9.2730   20.4330 C   0  0  0  0  0  3  0  0  0  0  0  0
  -23.2540  -10.4540   20.2910 C   0  0  0  0  0  3  0  0  0  0  0  0
  -22.0650   -7.1910   21.4640 O   0  0  0  0  0  0  0  0  0  0  0  0
  -21.9080   -6.4710   22.6210 C   0  0  0  0  0  0  0  0  0  0  0  0
  -21.3670   -7.0500   23.7900 C   0  0  0  0  0  3  0  0  0  0  0  0
  -21.1560   -6.2560   24.9350 C   0  0  0  0  0  3  0  0  0  0  0  0
  -21.4780   -4.8870   24.9120 C   0  0  0  0  0  0  0  0  0  0  0  0
  -22.0120   -4.3080   23.7480 C   0  0  0  0  0  3  0  0  0  0  0  0
  -22.2230   -5.0980   22.6050 C   0  0  0  0  0  0  0  0  0  0  0  0
  -22.7180   -4.5290   21.4790 F   0  0  0  0  0  0  0  0  0  0  0  0
  -21.2670   -4.1220   26.0110 F   0  0  0  0  0  0  0  0  0  0  0  0
  -23.2410  -13.8150   21.1140 C   0  0  0  0  0  0  0  0  0  0  0  0
  -22.4370  -13.1470   21.9350 N   0  0  0  0  0  0  0  0  0  0  0  0
  -22.8560  -14.8300   20.5310 O   0  0  0  0  0  0  0  0  0  0  0  0
  -22.7580  -12.3230   22.4220 H   0  0  0  0  0  0  0  0  0  0  0  0
  -21.4860  -13.4560   22.0720 H   0  0  0  0  0  0  0  0  0  0  0  0
  -25.9580  -15.4470   20.5220 N   0  0  0  0  0  0  0  0  0  0  0  0
  -25.2040  -16.1180   20.6030 H   0  0  0  0  0  0  0  0  0  0  0  0
  -26.8560  -15.8690   20.3390 H   0  0  0  0  0  0  0  0  0  0  0  0
  -27.0180  -23.6550   19.8340 C   0  0  0  0  0  0  0  0  0  0  0  0
  -26.5340  -22.3090   20.3450 C   0  0  0  0  0  2  0  0  0  0  0  0
  -27.4700  -21.2020   19.8820 C   0  0  0  0  0  2  0  0  0  0  0  0
  -29.2350  -22.7980   20.7750 C   0  0  0  0  0  2  0  0  0  0  0  0
  -28.5030  -24.0500   20.0600 C   0  0  0  0  0  3  0  0  0  0  0  0
  -28.8720  -21.4370   20.2480 N   0  0  0  0  0  0  0  0  0  0  0  0
  -26.2100  -24.3490   19.2250 O   0  0  0  0  0  0  0  0  0  0  0  0
  -28.6690  -25.5160   20.7230 C   0  0  0  0  0  2  0  0  0  0  0  0
  -28.7100  -26.8110   19.9670 O   0  0  0  0  0  0  0  0  0  0  0  0
  -24.6510  -31.8500   23.1550 C   0  0  0  0  0  0  0  0  0  0  0  0
  -27.5750  -27.6220   19.9700 C   0  0  0  0  0  0  0  0  0  0  0  0
  -23.5620  -30.4590   21.4290 C   0  0  0  0  0  3  0  0  0  0  0  0
  -25.1270  -29.0780   19.9690 C   0  0  0  0  0  0  0  0  0  0  0  0
  -26.0760  -30.9550   21.3090 C   0  0  0  0  0  2  0  0  0  0  0  0
  -26.2500  -29.6120   20.6140 C   0  0  0  0  0  0  0  0  0  0  0  0
  -27.4790  -28.8890   20.6170 C   0  0  0  0  0  3  0  0  0  0  0  0
  -26.4520  -27.1750   19.2620 C   0  0  0  0  0  3  0  0  0  0  0  0
  -25.2180  -27.8520   19.2940 C   0  0  0  0  0  3  0  0  0  0  0  0
  -23.8420  -29.8730   20.0210 C   0  0  0  0  0  2  0  0  0  0  0  0
  -24.7790  -31.1050   22.0200 N   0  0  0  0  0  0  0  0  0  0  0  0
  -23.5430  -32.0280   23.6830 O   0  0  0  0  0  0  0  0  0  0  0  0
  -22.9530  -29.3520   22.3270 C   0  0  0  0  0  0  0  0  0  0  0  0
  -21.6400  -29.1090   22.1800 N   0  0  0  0  0  0  0  0  0  0  0  0
  -23.6630  -28.7120   23.1070 O   0  0  0  0  0  0  0  0  0  0  0  0
  -21.1230  -29.6780   21.5220 H   0  0  0  0  0  0  0  0  0  0  0  0
  -18.3230  -27.7420   22.6240 C   0  0  0  0  0  0  0  0  0  0  0  0
  -20.8690  -28.0920   22.8960 C   0  0  0  0  0  3  0  0  0  0  0  0
  -21.0290  -26.7080   22.2280 C   0  0  0  0  0  2  0  0  0  0  0  0
  -19.9310  -26.4020   21.2020 C   0  0  0  0  0  2  0  0  0  0  0  0
  -18.5510  -26.4470   21.8620 C   0  0  0  0  0  2  0  0  0  0  0  0
  -19.4120  -28.5220   23.0950 C   0  0  0  0  0  0  0  0  0  0  0  0
  -19.1440  -29.7340   23.7690 C   0  0  0  0  0  3  0  0  0  0  0  0
  -17.8210  -30.1660   23.9750 C   0  0  0  0  0  3  0  0  0  0  0  0
  -16.7470  -29.3830   23.5210 C   0  0  0  0  0  3  0  0  0  0  0  0
  -16.9990  -28.1720   22.8520 C   0  0  0  0  0  3  0  0  0  0  0  0
  -25.8820  -32.5290   23.8290 C   0  0  0  0  0  3  0  0  0  0  0  0
  -26.3950  -31.7530   25.1050 C   0  0  1  0  0  0  0  0  0  0  0  0
  -25.2810  -31.4460   26.1300 C   0  0  0  0  0  1  0  0  0  0  0  0
  -27.0560  -30.4100   24.7140 C   0  0  0  0  0  1  0  0  0  0  0  0
  -27.4870  -32.5880   25.8130 C   0  0  0  0  0  1  0  0  0  0  0  0
  -25.4910  -33.9010   24.1740 N   0  0  0  0  0  0  0  0  0  0  0  0
  -25.7810  -34.9810   23.4370 C   0  0  0  0  0  0  0  0  0  0  0  0
  -26.4720  -34.9310   22.4160 O   0  0  0  0  0  0  0  0  0  0  0  0
  -24.8710  -34.0110   24.9630 H   0  0  0  0  0  0  0  0  0  0  0  0
  -23.9580  -36.6760   23.0890 C   0  0  0  0  0  1  0  0  0  0  0  0
  -25.2130  -36.3310   23.9060 C   0  0  0  0  0  3  0  0  0  0  0  0
  -27.2880  -37.3250   24.7640 C   0  0  0  0  0  1  0  0  0  0  0  0
  -26.1850  -37.4430   23.8140 N   0  0  0  0  0  0  0  0  0  0  0  0
  -25.7260  -38.3370   23.9670 H   0  0  0  0  0  0  0  0  0  0  0  0
  -29.2070  -16.8180   18.6960 C   0  0  0  0  0  0  0  0  0  0  0  0
  -27.8940  -16.7230   18.5300 N   0  0  0  0  0  0  0  0  0  0  0  0
  -30.0060  -16.1660   18.0270 O   0  0  0  0  0  0  0  0  0  0  0  0
  -27.2790  -17.3050   19.0770 H   0  0  0  0  0  0  0  0  0  0  0  0
  -27.5040  -16.1020   17.8340 H   0  0  0  0  0  0  0  0  0  0  0  0
  -30.4970  -20.7540   22.6360 N   0  0  0  0  0  0  0  0  0  0  0  0
  -31.2630  -20.5640   23.2700 H   0  0  0  0  0  0  0  0  0  0  0  0
  -30.4740  -21.7210   22.3390 H   0  0  0  0  0  0  0  0  0  0  0  0
  1  3  2  0
  1  4  1  0
  3  5  1  0
  4  6  2  0
  5 15  1  0
  5  2  2  0
  6  2  1  0
  6 99  1  0
  7 15  1  0
  8 13  1  0
  9 10  1  0
  9  8  1  0
 11 10  1  0
 11 20  1  0
 11 12  1  0
 13  7  1  0
 13 12  1  0
 14  7  2  0
 15 16  1  0
 17 18  2  0
 18 19  1  0
 18 37  1  0
 19 22  1  0
 20 17  1  0
 20 21  1  0
 21 19  2  0
 22 23  1  0
 23 24  2  0
 25 28  1  0
 25 24  1  0
 26 25  2  0
 27 26  1  0
 27 22  2  0
 28 29  1  0
 29 30  1  0
 30 31  2  0
 32 31  1  0
 32 36  1  0
 33 32  2  0
 34 29  2  0
 34 33  1  0
 35 34  1  0
 37 38  1  0
 38 41  1  0
 38 40  1  0
 39 37  2  0
 42 43  1  0
 42 17  1  0
 44 42  1  0
 45 49  1  0
 45 46  1  0
 47 50  1  0
 47 46  1  0
 49 52  1  0
 49 48  1  0
 50  4  1  0
 50 48  1  0
 51 45  2  0
 53 55  1  0
 53 52  1  0
 54 65  2  0
 55 60  1  0
 56 64  1  0
 56 66  1  0
 57 63  1  0
 57 59  1  0
 58 64  1  0
 59 60  2  0
 59 58  1  0
 61 62  1  0
 61 55  2  0
 62 57  2  0
 63 56  1  0
 64 54  1  0
 66 68  2  0
 67 66  1  0
 69 67  1  0
 70 79  2  0
 70 75  1  0
 71 67  1  0
 71 75  1  0
 72 71  1  0
 73 74  1  0
 73 72  1  0
 74 70  1  0
 75 76  2  0
 76 77  1  0
 78 77  2  0
 79 78  1  0
 80 54  1  0
 80 85  1  0
 80 81  1  0
 81 84  1  1
 81 82  1  0
 83 81  1  0
 85 88  1  0
 86 90  1  0
 86 85  1  0
 87 86  2  0
 90 89  1  0
 92 90  1  0
 92 93  1  0
 92 91  1  0
 94  3  1  0
 95 94  1  0
 95 97  1  0
 96 94  2  0
 98 95  1  0
 99100  1  0
101 99  1  0
M  ISO  4   7 100  15 100  52 101  53 101
M  END
>  <TORSDO>  (59) 
F 20

>  <SCORE>  (59) 
-12.576

>  <name>  (59) 
58

>  <ligand_id>  (59) 
58

>  <original_smiles>  (59) 
[H]c1c([H])c([H])c2c(c1[H])C([H])([H])C([H])([H])C([H])([H])C2([H])N([H])C(=O)C1([H])N(C(=O)C([H])(N([H])C(=O)C([H])(N([H])C([H])([H])[H])C([H])([H])[H])C(C([H])([H])[H])(C([H])([H])[H])C([H])([H])[H])C([H])([H])c2c([H])c(OC([H])([H])C3([H])C(=O)C([H])([H])C([H])([H])N(c4c([H])c(C(=O)N([H])[H])c(N([H])C(=O)N5C([H])([H])C([H])([H])C([H])([H])C([H])(n6nc(-c7c([H])c([H])c(Oc8c([H])c([H])c(F)c([H])c8F)c([H])c7[H])c(C(=O)N([H])[H])c6N([H])[H])C5([H])[H])c([H])c4N([H])[H])C3([H])[H])c([H])c([H])c2C1([H])[H]

>  <smiles>  (59) 
[H]c1c([H])c([H])c2c(c1[H])C([H])([H])C([H])([H])C([H])([H])C2([H])N([H])C(=O)C1([H])N(C(=O)C([H])(N([H])C(=O)C([H])(N([H])C([H])([H])[H])C([H])([H])[H])C(C([H])([H])[H])(C([H])([H])[H])C([H])([H])[H])C([H])([H])c2c([H])c(OC([H])([H])C3([H])C(=O)C([H])([H])C([H])([H])N(c4c([H])c(C(=O)N([H])[H])c(N([H])C(=O)N5C([H])([H])C([H])([H])C([H])([H])C([H])(n6nc(-c7c([H])c([H])c(Oc8c([H])c([H])c(F)c([H])c8F)c([H])c7[H])c(C(=O)N([H])[H])c6N([H])[H])C5([H])[H])c([H])c4N([H])[H])C3([H])[H])c([H])c([H])c2C1([H])[H]

$$$$
59:0:0
     RDKit          3D

 99107  0  0  1  0  0  0  0  0999 V2000
  -29.3740  -18.9850   20.3730 C   0  0  0  0  0  3  0  0  0  0  0  0
  -31.4560  -18.1210   19.5110 C   0  0  0  0  0  3  0  0  0  0  0  0
  -29.7330  -20.4250   20.1660 C   0  0  0  0  0  0  0  0  0  0  0  0
  -30.2230  -17.7760   20.1060 C   0  0  0  0  0  0  0  0  0  0  0  0
  -31.8590  -19.4610   19.3150 C   0  0  0  0  0  0  0  0  0  0  0  0
  -31.0560  -20.5800   19.6620 C   0  0  0  0  0  0  0  0  0  0  0  0
  -30.6150  -15.0550   20.0550 C   0  0  0  0  0  0  0  0  0  0  0  0
  -30.4030  -12.7700   18.9420 C   0  0  0  0  0  2  0  0  0  0  0  0
  -29.3880  -12.7960   17.7750 C   0  0  0  0  0  2  0  0  0  0  0  0
  -27.9500  -12.5640   18.2790 C   0  0  0  0  0  2  0  0  0  0  0  0
  -27.6350  -13.3900   19.5530 C   0  0  0  0  0  3  0  0  0  0  0  0
  -28.7660  -13.2630   20.5900 C   0  0  0  0  0  2  0  0  0  0  0  0
  -29.9840  -13.7970   19.9500 N   0  0  0  0  0  0  0  0  0  0  0  0
  -31.7720  -15.0770   19.6200 O   0  0  0  0  0  0  0  0  0  0  0  0
  -29.0850  -16.1840   21.6380 C   0  0  0  0  0  1  0  0  0  0  0  0
  -29.9430  -16.2850   20.4530 N   0  0  0  0  0  0  0  0  0  0  0  0
  -25.2980  -13.9310   20.4550 C   0  0  0  0  0  0  0  0  0  0  0  0
  -24.2630  -13.1380   20.8650 C   0  0  0  0  0  0  0  0  0  0  0  0
  -24.7270  -11.7920   20.7530 C   0  0  0  0  0  0  0  0  0  0  0  0
  -26.3260  -13.0680   20.1150 N   0  0  0  0  0  0  0  0  0  0  0  0
  -25.9950  -11.7730   20.3590 N   0  0  0  0  0  0  0  0  0  0  0  0
  -24.0160  -10.5220   20.9430 C   0  0  0  0  0  0  0  0  0  0  0  0
  -24.4590   -9.5580   21.8770 C   0  0  0  0  0  3  0  0  0  0  0  0
  -23.7440   -8.3530   22.0550 C   0  0  0  0  0  3  0  0  0  0  0  0
  -22.5730   -8.1050   21.3010 C   0  0  0  0  0  0  0  0  0  0  0  0
  -22.1510   -9.0550   20.3550 C   0  0  0  0  0  3  0  0  0  0  0  0
  -22.8650  -10.2510   20.1740 C   0  0  0  0  0  3  0  0  0  0  0  0
  -21.8290   -6.9520   21.3900 O   0  0  0  0  0  0  0  0  0  0  0  0
  -21.7150   -6.2560   22.5670 C   0  0  0  0  0  0  0  0  0  0  0  0
  -21.1780   -6.8450   23.7320 C   0  0  0  0  0  3  0  0  0  0  0  0
  -21.0140   -6.0740   24.9000 C   0  0  0  0  0  3  0  0  0  0  0  0
  -21.3780   -4.7140   24.9040 C   0  0  0  0  0  0  0  0  0  0  0  0
  -21.9070   -4.1240   23.7430 C   0  0  0  0  0  3  0  0  0  0  0  0
  -22.0740   -4.8930   22.5780 C   0  0  0  0  0  0  0  0  0  0  0  0
  -22.5640   -4.3120   21.4550 F   0  0  0  0  0  0  0  0  0  0  0  0
  -21.2140   -3.9720   26.0240 F   0  0  0  0  0  0  0  0  0  0  0  0
  -22.8840  -13.5990   21.2420 C   0  0  0  0  0  0  0  0  0  0  0  0
  -22.2110  -12.8730   22.1290 N   0  0  0  0  0  0  0  0  0  0  0  0
  -22.4110  -14.6390   20.7830 O   0  0  0  0  0  0  0  0  0  0  0  0
  -22.6080  -12.0360   22.5280 H   0  0  0  0  0  0  0  0  0  0  0  0
  -21.2860  -13.1610   22.4120 H   0  0  0  0  0  0  0  0  0  0  0  0
  -25.4440  -15.3090   20.3180 N   0  0  0  0  0  0  0  0  0  0  0  0
  -24.6930  -15.9590   20.5290 H   0  0  0  0  0  0  0  0  0  0  0  0
  -26.2720  -15.7660   19.9590 H   0  0  0  0  0  0  0  0  0  0  0  0
  -33.1250  -19.6910   18.7710 N   0  0  0  0  0  0  0  0  0  0  0  0
  -33.5730  -20.5630   19.0230 H   0  0  0  0  0  0  0  0  0  0  0  0
  -33.7760  -18.9140   18.7780 H   0  0  0  0  0  0  0  0  0  0  0  0
  -31.6490  -21.8290   19.4690 N   0  0  0  0  0  0  0  0  0  0  0  0
  -32.4400  -21.9310   20.0940 H   0  0  0  0  0  0  0  0  0  0  0  0
  -32.1140  -21.8090   18.5650 H   0  0  0  0  0  0  0  0  0  0  0  0
  -28.7710  -21.7290   20.4100 C   0  0  0  0  0  0  0  0  0  0  0  0
  -27.5960  -21.4790   20.6850 O   0  0  0  0  0  0  0  0  0  0  0  0
  -29.1780  -23.3860   20.4110 C   0  0  0  0  0  3  0  0  0  0  0  0
  -29.8580  -23.5820   21.7070 N   0  0  0  0  0  4  0  0  0  0  0  0
  -29.2490  -23.3400   22.4690 H   0  0  0  0  0  0  0  0  0  0  0  0
  -30.1490  -24.5370   21.8130 H   0  0  0  0  0  0  0  0  0  0  0  0
  -30.6700  -22.9910   21.7470 H   0  0  0  0  0  0  0  0  0  0  0  0
  -28.0670  -24.6450   20.1990 C   0  0  0  0  0  2  0  0  0  0  0  0
  -28.3220  -26.1910   20.3010 O   0  0  0  0  0  0  0  0  0  0  0  0
  -24.6480  -31.8990   23.2360 C   0  0  0  0  0  0  0  0  0  0  0  0
  -27.2580  -27.1740   20.2290 C   0  0  0  0  0  0  0  0  0  0  0  0
  -23.4640  -30.4970   21.5930 C   0  0  0  0  0  3  0  0  0  0  0  0
  -24.9240  -28.9210   20.1770 C   0  0  0  0  0  0  0  0  0  0  0  0
  -26.0200  -30.7620   21.4470 C   0  0  0  0  0  2  0  0  0  0  0  0
  -26.0990  -29.3690   20.7950 C   0  0  0  0  0  0  0  0  0  0  0  0
  -27.2650  -28.5120   20.8050 C   0  0  0  0  0  3  0  0  0  0  0  0
  -26.0580  -26.8350   19.5640 C   0  0  0  0  0  3  0  0  0  0  0  0
  -24.9200  -27.6690   19.5440 C   0  0  0  0  0  3  0  0  0  0  0  0
  -23.6930  -29.8160   20.2180 C   0  0  0  0  0  2  0  0  0  0  0  0
  -24.7300  -31.0750   22.1470 N   0  0  0  0  0  0  0  0  0  0  0  0
  -23.5570  -32.1850   23.7540 O   0  0  0  0  0  0  0  0  0  0  0  0
  -22.7820  -29.4910   22.5530 C   0  0  0  0  0  0  0  0  0  0  0  0
  -21.4540  -29.3190   22.4200 N   0  0  0  0  0  0  0  0  0  0  0  0
  -23.4480  -28.8650   23.3810 O   0  0  0  0  0  0  0  0  0  0  0  0
  -20.9710  -29.8740   21.7280 H   0  0  0  0  0  0  0  0  0  0  0  0
  -18.0650  -28.1440   22.9350 C   0  0  0  0  0  0  0  0  0  0  0  0
  -20.6280  -28.3810   23.1870 C   0  0  0  0  0  3  0  0  0  0  0  0
  -20.7120  -26.9540   22.5990 C   0  0  0  0  0  2  0  0  0  0  0  0
  -19.6000  -26.6500   21.5900 C   0  0  0  0  0  2  0  0  0  0  0  0
  -18.2240  -26.8000   22.2430 C   0  0  0  0  0  2  0  0  0  0  0  0
  -19.1930  -28.8940   23.3630 C   0  0  0  0  0  0  0  0  0  0  0  0
  -18.9860  -30.1510   23.9710 C   0  0  0  0  0  3  0  0  0  0  0  0
  -17.6860  -30.6600   24.1500 C   0  0  0  0  0  3  0  0  0  0  0  0
  -16.5730  -29.9070   23.7370 C   0  0  0  0  0  3  0  0  0  0  0  0
  -16.7640  -28.6500   23.1370 C   0  0  0  0  0  3  0  0  0  0  0  0
  -25.9200  -32.5410   23.8700 C   0  0  0  0  0  3  0  0  0  0  0  0
  -25.6020  -33.9380   24.2020 N   0  0  0  0  0  0  0  0  0  0  0  0
  -25.9210  -34.9960   23.4430 C   0  0  0  0  0  0  0  0  0  0  0  0
  -26.5810  -34.8960   22.4060 O   0  0  0  0  0  0  0  0  0  0  0  0
  -25.0150  -34.0900   25.0090 H   0  0  0  0  0  0  0  0  0  0  0  0
  -24.1740  -36.7750   23.1190 C   0  0  0  0  0  1  0  0  0  0  0  0
  -25.4350  -36.3830   23.9070 C   0  0  0  0  0  3  0  0  0  0  0  0
  -27.5760  -37.2860   24.7020 C   0  0  0  0  0  1  0  0  0  0  0  0
  -26.4600  -37.4430   23.7720 N   0  0  0  0  0  0  0  0  0  0  0  0
  -26.0510  -38.3620   23.9150 H   0  0  0  0  0  0  0  0  0  0  0  0
  -26.4210  -31.7740   25.1560 C   0  0  1  0  0  0  0  0  0  0  0  0
  -25.3130  -31.5300   26.2080 C   0  0  0  0  0  1  0  0  0  0  0  0
  -27.0210  -30.4000   24.7780 C   0  0  0  0  0  1  0  0  0  0  0  0
  -27.5610  -32.5760   25.8280 C   0  0  0  0  0  1  0  0  0  0  0  0
  2  4  1  0
  3  1  1  0
  3 51  1  0
  4  1  2  0
  4 16  1  0
  5  2  2  0
  5  6  1  0
  6  3  2  0
  7 16  1  0
  8 13  1  0
  9 10  1  0
  9  8  1  0
 11 10  1  0
 11 20  1  0
 11 12  1  0
 13  7  1  0
 13 12  1  0
 14  7  2  0
 16 15  1  0
 17 18  2  0
 18 37  1  0
 19 18  1  0
 19 22  1  0
 20 21  1  0
 20 17  1  0
 21 19  2  0
 22 23  1  0
 23 24  2  0
 25 28  1  0
 25 24  1  0
 26 25  2  0
 27 26  1  0
 27 22  2  0
 28 29  1  0
 29 34  2  0
 29 30  1  0
 30 31  2  0
 31 32  1  0
 32 36  1  0
 33 32  2  0
 34 33  1  0
 35 34  1  0
 37 38  1  0
 38 41  1  0
 38 40  1  0
 39 37  2  0
 42 17  1  0
 42 43  1  0
 44 42  1  0
 45 47  1  0
 45 46  1  0
 45  5  1  0
 48  6  1  0
 48 49  1  0
 50 48  1  0
 51 53  1  0
 51 52  2  0
 53 58  1  0
 53 54  1  0
 54 57  1  0
 54 56  1  0
 54 55  1  0
 58 59  1  0
 60 71  2  0
 61 59  1  0
 61 66  1  0
 62 70  1  0
 62 72  1  0
 63 69  1  0
 63 65  1  0
 64 70  1  0
 65 66  2  0
 65 64  1  0
 67 61  2  0
 68 67  1  0
 68 63  2  0
 69 62  1  0
 70 60  1  0
 72 74  2  0
 73 72  1  0
 75 73  1  0
 76 85  2  0
 76 81  1  0
 77 73  1  0
 77 81  1  0
 78 77  1  0
 79 80  1  0
 79 78  1  0
 80 76  1  0
 81 82  2  0
 82 83  1  0
 84 83  2  0
 85 84  1  0
 86 60  1  0
 86 87  1  0
 86 96  1  0
 87 90  1  0
 88 92  1  0
 88 87  1  0
 89 88  2  0
 92 91  1  0
 94 92  1  0
 94 95  1  0
 94 93  1  0
 96 99  1  1
 96 97  1  0
 98 96  1  0
M  ISO  4   7 100  16 100  58 101  59 101
M  END
>  <TORSDO>  (60) 
F 22

>  <SCORE>  (60) 
-13.513

>  <name>  (60) 
59

>  <ligand_id>  (60) 
59

>  <original_smiles>  (60) 
[H]c1c([H])c([H])c2c(c1[H])C([H])([H])C([H])([H])C([H])([H])C2([H])N([H])C(=O)C1([H])N(C(=O)C([H])(N([H])C(=O)C([H])(N([H])C([H])([H])[H])C([H])([H])[H])C(C([H])([H])[H])(C([H])([H])[H])C([H])([H])[H])C([H])([H])c2c([H])c(OC([H])([H])C([H])(C(=O)c3c([H])c(N(C(=O)N4C([H])([H])C([H])([H])C([H])([H])C([H])(n5nc(-c6c([H])c([H])c(Oc7c([H])c([H])c(F)c([H])c7F)c([H])c6[H])c(C(=O)N([H])[H])c5N([H])[H])C4([H])[H])C([H])([H])[H])c([H])c(N([H])[H])c3N([H])[H])[N+]([H])([H])[H])c([H])c([H])c2C1([H])[H]

>  <smiles>  (60) 
[H]c1c([H])c([H])c2c(c1[H])C([H])([H])C([H])([H])C([H])([H])C2([H])N([H])C(=O)C1([H])N(C(=O)C([H])(N([H])C(=O)C([H])(N([H])C([H])([H])[H])C([H])([H])[H])C(C([H])([H])[H])(C([H])([H])[H])C([H])([H])[H])C([H])([H])c2c([H])c(OC([H])([H])C([H])(C(=O)c3c([H])c(N(C(=O)N4C([H])([H])C([H])([H])C([H])([H])C([H])(n5nc(-c6c([H])c([H])c(Oc7c([H])c([H])c(F)c([H])c7F)c([H])c6[H])c(C(=O)N([H])[H])c5N([H])[H])C4([H])[H])C([H])([H])[H])c([H])c(N([H])[H])c3N([H])[H])[N+]([H])([H])[H])c([H])c([H])c2C1([H])[H]

$$$$
60:0:0
     RDKit          3D

 98106  0  0  1  0  0  0  0  0999 V2000
  -29.2310  -18.7270   20.7900 C   0  0  0  0  0  3  0  0  0  0  0  0
  -29.2610  -20.1020   21.1270 C   0  0  0  0  0  3  0  0  0  0  0  0
  -30.2410  -18.1480   19.9840 C   0  0  0  0  0  0  0  0  0  0  0  0
  -31.3250  -18.9740   19.5720 C   0  0  0  0  0  0  0  0  0  0  0  0
  -31.3610  -20.3390   19.9370 C   0  0  0  0  0  0  0  0  0  0  0  0
  -30.3200  -20.9290   20.6840 C   0  0  0  0  0  0  0  0  0  0  0  0
  -32.4350  -21.1240   19.5130 N   0  0  0  0  0  0  0  0  0  0  0  0
  -33.3110  -20.6170   19.4870 H   0  0  0  0  0  0  0  0  0  0  0  0
  -32.5200  -21.9990   20.0200 H   0  0  0  0  0  0  0  0  0  0  0  0
  -32.3630  -18.5220   18.7520 N   0  0  0  0  0  0  0  0  0  0  0  0
  -32.1520  -17.7480   18.1350 H   0  0  0  0  0  0  0  0  0  0  0  0
  -32.7980  -19.2870   18.2450 H   0  0  0  0  0  0  0  0  0  0  0  0
  -28.8830  -16.6890   18.4480 C   0  0  0  0  0  1  0  0  0  0  0  0
  -30.0600  -16.7170   19.4370 C   0  0  0  0  0  3  0  0  0  0  0  0
  -30.6830  -14.5350   20.4130 C   0  0  0  0  0  0  0  0  0  0  0  0
  -30.3880  -12.3470   19.3630 C   0  0  0  0  0  2  0  0  0  0  0  0
  -29.4680  -12.5600   18.1420 C   0  0  0  0  0  2  0  0  0  0  0  0
  -27.9870  -12.4410   18.5520 C   0  0  0  0  0  2  0  0  0  0  0  0
  -27.6360  -13.2750   19.8140 C   0  0  0  0  0  3  0  0  0  0  0  0
  -28.6860  -13.0860   20.9340 C   0  0  0  0  0  2  0  0  0  0  0  0
  -30.0150  -13.3530   20.3680 N   0  0  0  0  0  0  0  0  0  0  0  0
  -31.8720  -14.6420   20.1040 O   0  0  0  0  0  0  0  0  0  0  0  0
  -29.8880  -15.6240   20.4210 N   0  0  0  0  0  0  0  0  0  0  0  0
  -28.9470  -15.4670   20.7430 H   0  0  0  0  0  0  0  0  0  0  0  0
  -25.2290  -13.8730   20.4970 C   0  0  0  0  0  0  0  0  0  0  0  0
  -24.1620  -13.0980   20.8590 C   0  0  0  0  0  0  0  0  0  0  0  0
  -24.6320  -11.7490   20.8450 C   0  0  0  0  0  0  0  0  0  0  0  0
  -26.2810  -12.9960   20.2840 N   0  0  0  0  0  0  0  0  0  0  0  0
  -25.9250  -11.7140   20.5540 N   0  0  0  0  0  0  0  0  0  0  0  0
  -23.9110  -10.4840   21.0360 C   0  0  0  0  0  0  0  0  0  0  0  0
  -24.3460   -9.5210   21.9750 C   0  0  0  0  0  3  0  0  0  0  0  0
  -23.6250   -8.3210   22.1540 C   0  0  0  0  0  3  0  0  0  0  0  0
  -22.4560   -8.0740   21.3960 C   0  0  0  0  0  0  0  0  0  0  0  0
  -22.0390   -9.0270   20.4490 C   0  0  0  0  0  3  0  0  0  0  0  0
  -22.7610  -10.2180   20.2660 C   0  0  0  0  0  3  0  0  0  0  0  0
  -21.7070   -6.9260   21.4860 O   0  0  0  0  0  0  0  0  0  0  0  0
  -21.6650   -6.1820   22.6370 C   0  0  0  0  0  0  0  0  0  0  0  0
  -21.2370   -6.7320   23.8650 C   0  0  0  0  0  3  0  0  0  0  0  0
  -21.1430   -5.9140   25.0090 C   0  0  0  0  0  3  0  0  0  0  0  0
  -21.4670   -4.5470   24.9240 C   0  0  0  0  0  0  0  0  0  0  0  0
  -21.8880   -3.9960   23.7010 C   0  0  0  0  0  3  0  0  0  0  0  0
  -21.9830   -4.8110   22.5600 C   0  0  0  0  0  0  0  0  0  0  0  0
  -22.3690   -4.2710   21.3790 F   0  0  0  0  0  0  0  0  0  0  0  0
  -21.3690   -3.7590   26.0210 F   0  0  0  0  0  0  0  0  0  0  0  0
  -22.7580  -13.5700   21.1100 C   0  0  0  0  0  0  0  0  0  0  0  0
  -22.0240  -12.8760   21.9740 N   0  0  0  0  0  0  0  0  0  0  0  0
  -22.3210  -14.5880   20.5770 O   0  0  0  0  0  0  0  0  0  0  0  0
  -22.3930  -12.0520   22.4250 H   0  0  0  0  0  0  0  0  0  0  0  0
  -21.0820  -13.1730   22.1850 H   0  0  0  0  0  0  0  0  0  0  0  0
  -25.3860  -15.2430   20.3080 N   0  0  0  0  0  0  0  0  0  0  0  0
  -24.6080  -15.8870   20.3960 H   0  0  0  0  0  0  0  0  0  0  0  0
  -26.2260  -15.6840   19.9600 H   0  0  0  0  0  0  0  0  0  0  0  0
  -30.4100  -22.2850   20.9400 O   0  0  0  0  0  0  0  0  0  0  0  0
  -29.1840  -23.0130   21.0450 C   0  0  0  0  0  2  0  0  0  0  0  0
  -29.4210  -24.5090   20.7570 C   0  0  0  0  0  0  0  0  0  0  0  0
  -30.5130  -25.0530   20.9690 O   0  0  0  0  0  0  0  0  0  0  0  0
  -28.2260  -25.2890   20.1880 C   0  0  0  0  0  2  0  0  0  0  0  0
  -28.4030  -26.7150   20.2740 O   0  0  0  0  0  0  0  0  0  0  0  0
  -24.5890  -31.9270   23.2570 C   0  0  0  0  0  0  0  0  0  0  0  0
  -27.2400  -27.4590   20.2190 C   0  0  0  0  0  0  0  0  0  0  0  0
  -23.3900  -30.5200   21.6160 C   0  0  0  0  0  3  0  0  0  0  0  0
  -24.8490  -28.9770   20.2040 C   0  0  0  0  0  0  0  0  0  0  0  0
  -25.9180  -30.8740   21.4290 C   0  0  0  0  0  2  0  0  0  0  0  0
  -26.0060  -29.5000   20.7970 C   0  0  0  0  0  0  0  0  0  0  0  0
  -27.2050  -28.7500   20.7990 C   0  0  0  0  0  3  0  0  0  0  0  0
  -26.0630  -26.9600   19.6100 C   0  0  0  0  0  3  0  0  0  0  0  0
  -24.8730  -27.7080   19.6060 C   0  0  0  0  0  3  0  0  0  0  0  0
  -23.6050  -29.8360   20.2400 C   0  0  0  0  0  2  0  0  0  0  0  0
  -24.6500  -31.1220   22.1590 N   0  0  0  0  0  0  0  0  0  0  0  0
  -23.5050  -32.2050   23.7890 O   0  0  0  0  0  0  0  0  0  0  0  0
  -22.7330  -29.5020   22.5770 C   0  0  0  0  0  0  0  0  0  0  0  0
  -21.4090  -29.3200   22.4410 N   0  0  0  0  0  0  0  0  0  0  0  0
  -23.4100  -28.8820   23.4000 O   0  0  0  0  0  0  0  0  0  0  0  0
  -20.9250  -29.8730   21.7490 H   0  0  0  0  0  0  0  0  0  0  0  0
  -18.0300  -28.1380   22.9240 C   0  0  0  0  0  0  0  0  0  0  0  0
  -20.5860  -28.3870   23.2100 C   0  0  0  0  0  3  0  0  0  0  0  0
  -20.6870  -26.9540   22.6380 C   0  0  0  0  0  2  0  0  0  0  0  0
  -19.5900  -26.6320   21.6190 C   0  0  0  0  0  2  0  0  0  0  0  0
  -18.2050  -26.7850   22.2540 C   0  0  0  0  0  2  0  0  0  0  0  0
  -19.1490  -28.8970   23.3580 C   0  0  0  0  0  0  0  0  0  0  0  0
  -18.9320  -30.1630   23.9410 C   0  0  0  0  0  3  0  0  0  0  0  0
  -17.6280  -30.6720   24.0950 C   0  0  0  0  0  3  0  0  0  0  0  0
  -16.5230  -29.9090   23.6800 C   0  0  0  0  0  3  0  0  0  0  0  0
  -16.7250  -28.6440   23.0990 C   0  0  0  0  0  3  0  0  0  0  0  0
  -25.8720  -32.5590   23.8800 C   0  0  0  0  0  3  0  0  0  0  0  0
  -25.5650  -33.9600   24.1990 N   0  0  0  0  0  0  0  0  0  0  0  0
  -25.9040  -35.0050   23.4350 C   0  0  0  0  0  0  0  0  0  0  0  0
  -26.5810  -34.8940   22.4080 O   0  0  0  0  0  0  0  0  0  0  0  0
  -24.9660  -34.1210   24.9950 H   0  0  0  0  0  0  0  0  0  0  0  0
  -24.1830  -36.7980   23.0490 C   0  0  0  0  0  1  0  0  0  0  0  0
  -25.4140  -36.3980   23.8770 C   0  0  0  0  0  3  0  0  0  0  0  0
  -27.5450  -37.2800   24.7230 C   0  0  0  0  0  1  0  0  0  0  0  0
  -26.4500  -37.4480   23.7710 N   0  0  0  0  0  0  0  0  0  0  0  0
  -26.0440  -38.3690   23.9160 H   0  0  0  0  0  0  0  0  0  0  0  0
  -26.3830  -31.7930   25.1620 C   0  0  1  0  0  0  0  0  0  0  0  0
  -25.2830  -31.5600   26.2250 C   0  0  0  0  0  1  0  0  0  0  0  0
  -26.9660  -30.4130   24.7760 C   0  0  0  0  0  1  0  0  0  0  0  0
  -27.5300  -32.5890   25.8260 C   0  0  0  0  0  1  0  0  0  0  0  0
  1  2  1  0
  3  1  2  0
  4  5  2  0
  4  3  1  0
  5  6  1  0
  6 53  1  0
  6  2  2  0
  7  5  1  0
  7  9  1  0
  8  7  1  0
 10  4  1  0
 11 10  1  0
 12 10  1  0
 14 13  1  0
 14  3  1  0
 14 23  1  0
 15 23  1  0
 16 21  1  0
 17 18  1  0
 17 16  1  0
 19 18  1  0
 19 28  1  0
 19 20  1  0
 21 15  1  0
 21 20  1  0
 22 15  2  0
 23 24  1  0
 25 26  2  0
 26 45  1  0
 27 26  1  0
 27 30  1  0
 28 25  1  0
 28 29  1  0
 29 27  2  0
 30 31  1  0
 31 32  2  0
 33 36  1  0
 33 32  1  0
 34 33  2  0
 35 34  1  0
 35 30  2  0
 36 37  1  0
 37 38  1  0
 38 39  2  0
 40 39  1  0
 40 44  1  0
 41 40  2  0
 42 37  2  0
 42 41  1  0
 43 42  1  0
 45 46  1  0
 46 49  1  0
 46 48  1  0
 47 45  2  0
 50 51  1  0
 50 25  1  0
 52 50  1  0
 53 54  1  0
 55 56  2  0
 55 54  1  0
 57 58  1  0
 57 55  1  0
 59 70  2  0
 60 58  1  0
 60 65  1  0
 61 69  1  0
 61 71  1  0
 62 68  1  0
 62 64  1  0
 63 69  1  0
 64 65  2  0
 64 63  1  0
 66 60  2  0
 67 66  1  0
 67 62  2  0
 68 61  1  0
 69 59  1  0
 71 73  2  0
 72 71  1  0
 74 72  1  0
 75 84  2  0
 75 80  1  0
 76 72  1  0
 76 80  1  0
 77 76  1  0
 78 79  1  0
 78 77  1  0
 79 75  1  0
 80 81  2  0
 81 82  1  0
 83 82  2  0
 84 83  1  0
 85 59  1  0
 85 86  1  0
 85 95  1  0
 86 89  1  0
 87 91  1  0
 87 86  1  0
 88 87  2  0
 91 90  1  0
 93 91  1  0
 93 94  1  0
 93 92  1  0
 95 98  1  1
 95 96  1  0
 97 95  1  0
M  ISO  4  15 100  23 100  57 101  58 101
M  END
>  <TORSDO>  (61) 
F 23

>  <SCORE>  (61) 
-12.982

>  <name>  (61) 
60

>  <ligand_id>  (61) 
60

>  <original_smiles>  (61) 
[H]c1c([H])c([H])c2c(c1[H])C([H])([H])C([H])([H])C([H])([H])C2([H])N([H])C(=O)C1([H])N(C(=O)C([H])(N([H])C(=O)C([H])(N([H])C([H])([H])[H])C([H])([H])[H])C(C([H])([H])[H])(C([H])([H])[H])C([H])([H])[H])C([H])([H])c2c([H])c(OC([H])([H])C(=O)C([H])([H])Oc3c([H])c([H])c(C([H])(N([H])C(=O)N4C([H])([H])C([H])([H])C([H])([H])C([H])(n5nc(-c6c([H])c([H])c(Oc7c([H])c([H])c(F)c([H])c7F)c([H])c6[H])c(C(=O)N([H])[H])c5N([H])[H])C4([H])[H])C([H])([H])[H])c(N([H])[H])c3N([H])[H])c([H])c([H])c2C1([H])[H]

>  <smiles>  (61) 
[H]c1c([H])c([H])c2c(c1[H])C([H])([H])C([H])([H])C([H])([H])C2([H])N([H])C(=O)C1([H])N(C(=O)C([H])(N([H])C(=O)C([H])(N([H])C([H])([H])[H])C([H])([H])[H])C(C([H])([H])[H])(C([H])([H])[H])C([H])([H])[H])C([H])([H])c2c([H])c(OC([H])([H])C(=O)C([H])([H])Oc3c([H])c([H])c(C([H])(N([H])C(=O)N4C([H])([H])C([H])([H])C([H])([H])C([H])(n5nc(-c6c([H])c([H])c(Oc7c([H])c([H])c(F)c([H])c7F)c([H])c6[H])c(C(=O)N([H])[H])c5N([H])[H])C4([H])[H])C([H])([H])[H])c(N([H])[H])c3N([H])[H])c([H])c([H])c2C1([H])[H]

$$$$
61:0:0
     RDKit          3D

 98106  0  0  1  0  0  0  0  0999 V2000
  -28.7710  -18.3220   20.0310 C   0  0  0  0  0  3  0  0  0  0  0  0
  -27.9520  -19.4160   20.3780 C   0  0  0  0  0  3  0  0  0  0  0  0
  -30.5900  -19.2650   21.3300 C   0  0  0  0  0  3  0  0  0  0  0  0
  -30.1280  -18.2790   20.4300 C   0  0  0  0  0  0  0  0  0  0  0  0
  -28.4790  -20.4800   21.1440 C   0  0  0  0  0  0  0  0  0  0  0  0
  -29.7830  -20.3590   21.6810 C   0  0  0  0  0  0  0  0  0  0  0  0
  -27.1780  -22.4630   20.4080 C   0  0  0  0  0  0  0  0  0  0  0  0
  -27.8430  -21.7410   21.3240 N   0  0  0  0  0  0  0  0  0  0  0  0
  -26.4340  -21.9710   19.5550 O   0  0  0  0  0  0  0  0  0  0  0  0
  -28.2860  -22.2720   22.0630 H   0  0  0  0  0  0  0  0  0  0  0  0
  -27.3460  -23.9910   20.4740 C   0  0  0  0  0  2  0  0  0  0  0  0
  -28.1600  -24.5260   19.2560 C   0  0  0  0  0  2  0  0  0  0  0  0
  -28.9710  -25.8260   19.5070 C   0  0  0  0  0  2  0  0  0  0  0  0
  -28.5950  -27.0550   18.8740 O   0  0  0  0  0  0  0  0  0  0  0  0
  -24.6110  -31.4590   22.8960 C   0  0  0  0  0  0  0  0  0  0  0  0
  -27.3680  -27.6170   19.1470 C   0  0  0  0  0  0  0  0  0  0  0  0
  -23.4080  -30.1550   21.1740 C   0  0  0  0  0  3  0  0  0  0  0  0
  -24.8770  -28.9090   19.5090 C   0  0  0  0  0  0  0  0  0  0  0  0
  -25.8800  -30.7380   20.8750 C   0  0  0  0  0  2  0  0  0  0  0  0
  -26.0320  -29.4600   20.0720 C   0  0  0  0  0  0  0  0  0  0  0  0
  -27.2810  -28.8180   19.8940 C   0  0  0  0  0  3  0  0  0  0  0  0
  -26.1880  -27.0780   18.5850 C   0  0  0  0  0  3  0  0  0  0  0  0
  -24.9480  -27.7190   18.7700 C   0  0  0  0  0  3  0  0  0  0  0  0
  -23.5790  -29.6550   19.7190 C   0  0  0  0  0  2  0  0  0  0  0  0
  -24.6530  -30.7940   21.7090 N   0  0  0  0  0  0  0  0  0  0  0  0
  -23.5500  -31.5780   23.5250 O   0  0  0  0  0  0  0  0  0  0  0  0
  -22.9140  -28.9760   22.0390 C   0  0  0  0  0  0  0  0  0  0  0  0
  -21.6200  -28.6380   21.9060 N   0  0  0  0  0  0  0  0  0  0  0  0
  -23.6870  -28.3640   22.7820 O   0  0  0  0  0  0  0  0  0  0  0  0
  -21.0530  -29.1880   21.2750 H   0  0  0  0  0  0  0  0  0  0  0  0
  -18.4520  -26.9390   22.2370 C   0  0  0  0  0  0  0  0  0  0  0  0
  -20.9380  -27.5430   22.5970 C   0  0  0  0  0  3  0  0  0  0  0  0
  -21.2620  -26.1810   21.9390 C   0  0  0  0  0  2  0  0  0  0  0  0
  -20.2400  -25.7730   20.8760 C   0  0  0  0  0  2  0  0  0  0  0  0
  -18.8390  -25.6770   21.4820 C   0  0  0  0  0  2  0  0  0  0  0  0
  -19.4400  -27.8230   22.7470 C   0  0  0  0  0  0  0  0  0  0  0  0
  -19.0280  -29.0030   23.4080 C   0  0  0  0  0  3  0  0  0  0  0  0
  -17.6620  -29.2980   23.5660 C   0  0  0  0  0  3  0  0  0  0  0  0
  -16.6910  -28.4100   23.0750 C   0  0  0  0  0  3  0  0  0  0  0  0
  -17.0870  -27.2330   22.4170 C   0  0  0  0  0  3  0  0  0  0  0  0
  -25.8790  -32.1260   23.5100 C   0  0  0  0  0  3  0  0  0  0  0  0
  -25.4910  -33.4620   23.9800 N   0  0  0  0  0  0  0  0  0  0  0  0
  -25.7380  -34.5990   23.3170 C   0  0  0  0  0  0  0  0  0  0  0  0
  -26.3910  -34.6370   22.2700 O   0  0  0  0  0  0  0  0  0  0  0  0
  -24.8980  -33.5000   24.7980 H   0  0  0  0  0  0  0  0  0  0  0  0
  -23.8850  -36.2940   23.1610 C   0  0  0  0  0  1  0  0  0  0  0  0
  -25.1700  -35.9040   23.9120 C   0  0  0  0  0  3  0  0  0  0  0  0
  -27.2620  -36.8500   24.7780 C   0  0  0  0  0  1  0  0  0  0  0  0
  -26.1270  -37.0310   23.8780 N   0  0  0  0  0  0  0  0  0  0  0  0
  -25.6660  -37.9040   24.1190 H   0  0  0  0  0  0  0  0  0  0  0  0
  -26.5160  -31.2840   24.6830 C   0  0  1  0  0  0  0  0  0  0  0  0
  -25.5020  -30.8810   25.7800 C   0  0  0  0  0  1  0  0  0  0  0  0
  -27.1630  -29.9910   24.1370 C   0  0  0  0  0  1  0  0  0  0  0  0
  -27.6480  -32.0960   25.3530 C   0  0  0  0  0  1  0  0  0  0  0  0
  -32.5430  -17.4450   20.3000 C   0  0  0  0  0  1  0  0  0  0  0  0
  -31.1020  -17.5490   18.2580 C   0  0  0  0  0  1  0  0  0  0  0  0
  -31.0860  -17.2650   19.7900 C   0  0  2  0  0  0  0  0  0  0  0  0
  -31.2570  -14.7530   19.7520 C   0  0  0  0  0  0  0  0  0  0  0  0
  -30.8640  -12.4650   18.9610 C   0  0  0  0  0  2  0  0  0  0  0  0
  -29.8870  -12.5100   17.7730 C   0  0  0  0  0  2  0  0  0  0  0  0
  -28.4370  -12.4280   18.2860 C   0  0  0  0  0  2  0  0  0  0  0  0
  -28.1360  -13.4470   19.4170 C   0  0  0  0  0  3  0  0  0  0  0  0
  -29.2370  -13.4260   20.5030 C   0  0  0  0  0  2  0  0  0  0  0  0
  -30.5370  -13.6040   19.8360 N   0  0  0  0  0  0  0  0  0  0  0  0
  -32.3810  -14.7810   19.2470 O   0  0  0  0  0  0  0  0  0  0  0  0
  -30.6180  -15.8920   20.0720 N   0  0  0  0  0  0  0  0  0  0  0  0
  -29.6920  -15.7920   20.4610 H   0  0  0  0  0  0  0  0  0  0  0  0
  -25.8500  -14.1560   20.3680 C   0  0  0  0  0  0  0  0  0  0  0  0
  -24.7580  -13.4320   20.7600 C   0  0  0  0  0  0  0  0  0  0  0  0
  -25.1140  -12.0570   20.5930 C   0  0  0  0  0  0  0  0  0  0  0  0
  -26.8080  -13.2280   19.9870 N   0  0  0  0  0  0  0  0  0  0  0  0
  -26.3720  -11.9560   20.1810 N   0  0  0  0  0  0  0  0  0  0  0  0
  -24.3160  -10.8350   20.7450 C   0  0  0  0  0  0  0  0  0  0  0  0
  -24.7440   -9.7680   21.5670 C   0  0  0  0  0  3  0  0  0  0  0  0
  -23.9480   -8.6120   21.7120 C   0  0  0  0  0  3  0  0  0  0  0  0
  -22.7070   -8.5160   21.0370 C   0  0  0  0  0  0  0  0  0  0  0  0
  -22.2970   -9.5680   20.2020 C   0  0  0  0  0  3  0  0  0  0  0  0
  -23.0930  -10.7170   20.0530 C   0  0  0  0  0  3  0  0  0  0  0  0
  -21.8810   -7.4190   21.0980 O   0  0  0  0  0  0  0  0  0  0  0  0
  -21.8690   -6.5870   22.1890 C   0  0  0  0  0  0  0  0  0  0  0  0
  -21.5850   -7.0640   23.4870 C   0  0  0  0  0  3  0  0  0  0  0  0
  -21.5140   -6.1630   24.5690 C   0  0  0  0  0  3  0  0  0  0  0  0
  -21.7160   -4.7860   24.3540 C   0  0  0  0  0  0  0  0  0  0  0  0
  -21.9910   -4.3080   23.0600 C   0  0  0  0  0  3  0  0  0  0  0  0
  -22.0640   -5.2060   21.9810 C   0  0  0  0  0  0  0  0  0  0  0  0
  -22.3100   -4.7380   20.7340 F   0  0  0  0  0  0  0  0  0  0  0  0
  -21.6380   -3.9200   25.3910 F   0  0  0  0  0  0  0  0  0  0  0  0
  -23.4240  -13.9750   21.1810 C   0  0  0  0  0  0  0  0  0  0  0  0
  -22.7190  -13.2670   22.0560 N   0  0  0  0  0  0  0  0  0  0  0  0
  -23.0190  -15.0610   20.7690 O   0  0  0  0  0  0  0  0  0  0  0  0
  -23.0630  -12.3880   22.4100 H   0  0  0  0  0  0  0  0  0  0  0  0
  -21.8270  -13.6120   22.3810 H   0  0  0  0  0  0  0  0  0  0  0  0
  -26.1070  -15.5230   20.2910 N   0  0  0  0  0  0  0  0  0  0  0  0
  -25.4130  -16.2210   20.5350 H   0  0  0  0  0  0  0  0  0  0  0  0
  -26.9800  -15.9230   19.9740 H   0  0  0  0  0  0  0  0  0  0  0  0
  -30.3090  -21.3640   22.4960 N   0  0  0  0  0  0  0  0  0  0  0  0
  -31.2480  -21.1930   22.8440 H   0  0  0  0  0  0  0  0  0  0  0  0
  -29.7140  -21.6610   23.2650 H   0  0  0  0  0  0  0  0  0  0  0  0
  1  2  2  0
  1  4  1  0
  2  5  1  0
  3  6  1  0
  4  3  2  0
  5  8  1  0
  5  6  2  0
  6 96  1  0
  7 11  1  0
  7  8  1  0
  8 10  1  0
  9  7  2  0
 12 13  1  0
 12 11  1  0
 14 16  1  0
 14 13  1  0
 15 26  2  0
 16 21  1  0
 17 25  1  0
 17 27  1  0
 18 24  1  0
 18 20  1  0
 19 25  1  0
 20 19  1  0
 21 20  2  0
 22 23  1  0
 22 16  2  0
 23 18  2  0
 24 17  1  0
 25 15  1  0
 27 29  2  0
 28 27  1  0
 30 28  1  0
 31 40  2  0
 31 36  1  0
 32 28  1  0
 32 36  1  0
 33 32  1  0
 34 35  1  0
 34 33  1  0
 35 31  1  0
 36 37  2  0
 37 38  1  0
 39 38  2  0
 40 39  1  0
 41 15  1  0
 41 42  1  0
 41 51  1  0
 42 45  1  0
 43 47  1  0
 43 42  1  0
 44 43  2  0
 47 46  1  0
 49 47  1  0
 49 50  1  0
 49 48  1  0
 51 54  1  1
 51 52  1  0
 53 51  1  0
 57 56  1  6
 57 66  1  0
 57 55  1  0
 57  4  1  0
 58 64  1  0
 58 66  1  0
 59 64  1  0
 60 61  1  0
 60 59  1  0
 62 61  1  0
 62 71  1  0
 62 63  1  0
 64 63  1  0
 65 58  2  0
 66 67  1  0
 68 69  2  0
 69 88  1  0
 70 73  1  0
 70 69  1  0
 71 72  1  0
 71 68  1  0
 72 70  2  0
 73 74  1  0
 74 75  2  0
 76 79  1  0
 76 75  1  0
 77 76  2  0
 78 77  1  0
 78 73  2  0
 79 80  1  0
 80 81  1  0
 81 82  2  0
 83 82  1  0
 83 87  1  0
 84 83  2  0
 85 80  2  0
 85 84  1  0
 86 85  1  0
 88 89  1  0
 89 92  1  0
 89 91  1  0
 90 88  2  0
 93 68  1  0
 93 94  1  0
 95 93  1  0
 96 97  1  0
 96 98  1  0
M  ISO  4  13 101  14 101  58 100  66 100
M  END
>  <TORSDO>  (62) 
F 22

>  <SCORE>  (62) 
-11.172

>  <name>  (62) 
61

>  <ligand_id>  (62) 
61

>  <original_smiles>  (62) 
[H]c1c([H])c([H])c2c(c1[H])C([H])([H])C([H])([H])C([H])([H])C2([H])N([H])C(=O)C1([H])N(C(=O)C([H])(N([H])C(=O)C([H])(N([H])C([H])([H])[H])C([H])([H])[H])C(C([H])([H])[H])(C([H])([H])[H])C([H])([H])[H])C([H])([H])c2c([H])c(OC([H])([H])C([H])([H])C([H])([H])C(=O)N([H])c3c([H])c([H])c(C(N([H])C(=O)N4C([H])([H])C([H])([H])C([H])([H])C([H])(n5nc(-c6c([H])c([H])c(Oc7c([H])c([H])c(F)c([H])c7F)c([H])c6[H])c(C(=O)N([H])[H])c5N([H])[H])C4([H])[H])(C([H])([H])[H])C([H])([H])[H])c([H])c3N([H])[H])c([H])c([H])c2C1([H])[H]

>  <smiles>  (62) 
[H]c1c([H])c([H])c2c(c1[H])C([H])([H])C([H])([H])C([H])([H])C2([H])N([H])C(=O)C1([H])N(C(=O)C([H])(N([H])C(=O)C([H])(N([H])C([H])([H])[H])C([H])([H])[H])C(C([H])([H])[H])(C([H])([H])[H])C([H])([H])[H])C([H])([H])c2c([H])c(OC([H])([H])C([H])([H])C([H])([H])C(=O)N([H])c3c([H])c([H])c(C(N([H])C(=O)N4C([H])([H])C([H])([H])C([H])([H])C([H])(n5nc(-c6c([H])c([H])c(Oc7c([H])c([H])c(F)c([H])c7F)c([H])c6[H])c(C(=O)N([H])[H])c5N([H])[H])C4([H])[H])(C([H])([H])[H])C([H])([H])[H])c([H])c3N([H])[H])c([H])c([H])c2C1([H])[H]

$$$$
62:0:0
     RDKit          3D

 95104  0  0  1  0  0  0  0  0999 V2000
  -31.1560  -22.0000   21.4200 C   0  0  0  0  0  0  0  0  0  0  0  0
  -31.3490  -23.5230   21.4980 C   0  0  0  0  0  2  0  0  0  0  0  0
  -30.0700  -24.3350   21.2710 C   0  0  0  0  0  2  0  0  0  0  0  0
  -29.1570  -22.3590   19.9980 C   0  0  0  0  0  2  0  0  0  0  0  0
  -29.4450  -23.9330   19.9400 C   0  0  0  0  0  3  0  0  0  0  0  0
  -30.2290  -21.4580   20.5760 N   0  0  0  0  0  0  0  0  0  0  0  0
  -31.8950  -21.3180   22.1400 O   0  0  0  0  0  0  0  0  0  0  0  0
  -31.3480  -19.1800   20.5330 C   0  0  0  0  0  3  0  0  0  0  0  0
  -31.3100  -17.7580   20.5600 C   0  0  0  0  0  3  0  0  0  0  0  0
  -28.9520  -19.2690   20.3520 C   0  0  0  0  0  3  0  0  0  0  0  0
  -30.1740  -19.9860   20.4550 C   0  0  0  0  0  0  0  0  0  0  0  0
  -30.0830  -17.0490   20.5050 C   0  0  0  0  0  0  0  0  0  0  0  0
  -28.8980  -17.8330   20.3930 C   0  0  0  0  0  0  0  0  0  0  0  0
  -30.6740  -14.5520   20.0520 C   0  0  0  0  0  0  0  0  0  0  0  0
  -30.3590  -12.3540   18.9280 C   0  0  0  0  0  2  0  0  0  0  0  0
  -29.3570  -12.5390   17.7670 C   0  0  0  0  0  2  0  0  0  0  0  0
  -27.9050  -12.3920   18.2650 C   0  0  0  0  0  2  0  0  0  0  0  0
  -27.6290  -13.2260   19.5450 C   0  0  0  0  0  3  0  0  0  0  0  0
  -28.7380  -13.0130   20.6000 C   0  0  0  0  0  2  0  0  0  0  0  0
  -30.0260  -13.3460   19.9700 N   0  0  0  0  0  0  0  0  0  0  0  0
  -31.8030  -14.7010   19.5740 O   0  0  0  0  0  0  0  0  0  0  0  0
  -29.9410  -15.5910   20.5560 N   0  0  0  0  0  0  0  0  0  0  0  0
  -29.0610  -15.2970   20.9520 H   0  0  0  0  0  0  0  0  0  0  0  0
  -25.2790  -13.8510   20.3760 C   0  0  0  0  0  0  0  0  0  0  0  0
  -24.2200  -13.0890   20.7870 C   0  0  0  0  0  0  0  0  0  0  0  0
  -24.6610  -11.7320   20.7220 C   0  0  0  0  0  0  0  0  0  0  0  0
  -26.2990  -12.9590   20.0880 N   0  0  0  0  0  0  0  0  0  0  0  0
  -25.9350  -11.6780   20.3530 N   0  0  0  0  0  0  0  0  0  0  0  0
  -23.9260  -10.4780   20.9340 C   0  0  0  0  0  0  0  0  0  0  0  0
  -24.3770   -9.5030   21.8510 C   0  0  0  0  0  3  0  0  0  0  0  0
  -23.6420   -8.3140   22.0510 C   0  0  0  0  0  3  0  0  0  0  0  0
  -22.4420   -8.0910   21.3330 C   0  0  0  0  0  0  0  0  0  0  0  0
  -22.0110   -9.0550   20.4040 C   0  0  0  0  0  3  0  0  0  0  0  0
  -22.7460  -10.2350   20.2030 C   0  0  0  0  0  3  0  0  0  0  0  0
  -21.6780   -6.9550   21.4430 O   0  0  0  0  0  0  0  0  0  0  0  0
  -21.6320   -6.2280   22.6050 C   0  0  0  0  0  0  0  0  0  0  0  0
  -21.2500   -6.8100   23.8340 C   0  0  0  0  0  3  0  0  0  0  0  0
  -21.1490   -6.0110   24.9900 C   0  0  0  0  0  3  0  0  0  0  0  0
  -21.4180   -4.6320   24.9200 C   0  0  0  0  0  0  0  0  0  0  0  0
  -21.7940   -4.0490   23.6960 C   0  0  0  0  0  3  0  0  0  0  0  0
  -21.8970   -4.8460   22.5410 C   0  0  0  0  0  0  0  0  0  0  0  0
  -22.2390   -4.2750   21.3610 F   0  0  0  0  0  0  0  0  0  0  0  0
  -21.3130   -3.8620   26.0280 F   0  0  0  0  0  0  0  0  0  0  0  0
  -22.8450  -13.5830   21.1330 C   0  0  0  0  0  0  0  0  0  0  0  0
  -22.1550  -12.8950   22.0370 N   0  0  0  0  0  0  0  0  0  0  0  0
  -22.3930  -14.6140   20.6380 O   0  0  0  0  0  0  0  0  0  0  0  0
  -22.5350  -12.0610   22.4590 H   0  0  0  0  0  0  0  0  0  0  0  0
  -21.2340  -13.2080   22.3110 H   0  0  0  0  0  0  0  0  0  0  0  0
  -25.4520  -15.2210   20.2050 N   0  0  0  0  0  0  0  0  0  0  0  0
  -24.6970  -15.8810   20.3570 H   0  0  0  0  0  0  0  0  0  0  0  0
  -26.3070  -15.6630   19.8920 H   0  0  0  0  0  0  0  0  0  0  0  0
  -26.5030  -17.8410   20.1450 C   0  0  0  0  0  1  0  0  0  0  0  0
  -27.7150  -17.1230   20.3480 O   0  0  0  0  0  0  0  0  0  0  0  0
  -28.2360  -24.8890   19.5550 C   0  0  0  0  0  2  0  0  0  0  0  0
  -28.4180  -26.3580   19.6170 O   0  0  0  0  0  0  0  0  0  0  0  0
  -24.5490  -31.4840   22.9110 C   0  0  0  0  0  0  0  0  0  0  0  0
  -27.2640  -27.1590   19.6230 C   0  0  0  0  0  0  0  0  0  0  0  0
  -23.3670  -30.1240   21.2220 C   0  0  0  0  0  3  0  0  0  0  0  0
  -24.8460  -28.6880   19.7130 C   0  0  0  0  0  0  0  0  0  0  0  0
  -25.8920  -30.5320   21.0240 C   0  0  0  0  0  2  0  0  0  0  0  0
  -26.0070  -29.1890   20.3160 C   0  0  0  0  0  0  0  0  0  0  0  0
  -27.2190  -28.4380   20.2600 C   0  0  0  0  0  3  0  0  0  0  0  0
  -26.0760  -26.7090   19.0030 C   0  0  0  0  0  3  0  0  0  0  0  0
  -24.8820  -27.4530   19.0490 C   0  0  0  0  0  3  0  0  0  0  0  0
  -23.5840  -29.5180   19.8110 C   0  0  0  0  0  2  0  0  0  0  0  0
  -24.6210  -30.7280   21.7760 N   0  0  0  0  0  0  0  0  0  0  0  0
  -23.4640  -31.7030   23.4690 O   0  0  0  0  0  0  0  0  0  0  0  0
  -22.7480  -29.0450   22.1410 C   0  0  0  0  0  0  0  0  0  0  0  0
  -21.4170  -28.8730   22.0590 N   0  0  0  0  0  0  0  0  0  0  0  0
  -23.4600  -28.3690   22.8870 O   0  0  0  0  0  0  0  0  0  0  0  0
  -20.9020  -29.4730   21.4310 H   0  0  0  0  0  0  0  0  0  0  0  0
  -18.0600  -27.6700   22.6550 C   0  0  0  0  0  0  0  0  0  0  0  0
  -20.6310  -27.8860   22.8000 C   0  0  0  0  0  3  0  0  0  0  0  0
  -20.6840  -26.5020   22.1140 C   0  0  0  0  0  2  0  0  0  0  0  0
  -19.5220  -26.2670   21.1410 C   0  0  0  0  0  2  0  0  0  0  0  0
  -18.1810  -26.3740   21.8710 C   0  0  0  0  0  2  0  0  0  0  0  0
  -19.2100  -28.3870   23.0790 C   0  0  0  0  0  0  0  0  0  0  0  0
  -19.0410  -29.6030   23.7750 C   0  0  0  0  0  3  0  0  0  0  0  0
  -17.7540  -30.1020   24.0520 C   0  0  0  0  0  3  0  0  0  0  0  0
  -16.6190  -29.3790   23.6450 C   0  0  0  0  0  3  0  0  0  0  0  0
  -16.7730  -28.1650   22.9520 C   0  0  0  0  0  3  0  0  0  0  0  0
  -25.8210  -32.1230   23.5480 C   0  0  0  0  0  3  0  0  0  0  0  0
  -26.3840  -31.3000   24.7730 C   0  0  1  0  0  0  0  0  0  0  0  0
  -25.3200  -30.9740   25.8450 C   0  0  0  0  0  1  0  0  0  0  0  0
  -27.0000  -29.9640   24.2980 C   0  0  0  0  0  1  0  0  0  0  0  0
  -27.5240  -32.0920   25.4560 C   0  0  0  0  0  1  0  0  0  0  0  0
  -25.4700  -33.4890   23.9610 N   0  0  0  0  0  0  0  0  0  0  0  0
  -25.7630  -34.5940   23.2630 C   0  0  0  0  0  0  0  0  0  0  0  0
  -26.4280  -34.5720   22.2240 O   0  0  0  0  0  0  0  0  0  0  0  0
  -24.8760  -33.5780   24.7720 H   0  0  0  0  0  0  0  0  0  0  0  0
  -23.9750  -36.3480   23.0280 C   0  0  0  0  0  1  0  0  0  0  0  0
  -25.2350  -35.9370   23.8030 C   0  0  0  0  0  3  0  0  0  0  0  0
  -27.3500  -36.8410   24.6670 C   0  0  0  0  0  1  0  0  0  0  0  0
  -26.2330  -37.0280   23.7450 N   0  0  0  0  0  0  0  0  0  0  0  0
  -25.7980  -37.9230   23.9520 H   0  0  0  0  0  0  0  0  0  0  0  0
  1  2  1  0
  1  7  2  0
  3  2  1  0
  4  6  1  0
  5 54  1  0
  5  4  1  0
  5  3  1  0
  6  1  1  0
  8  9  1  0
 10 13  2  0
 10 11  1  0
 11  8  2  0
 11  6  1  0
 12 22  1  0
 12  9  2  0
 13 12  1  0
 14 22  1  0
 15 20  1  0
 16 17  1  0
 16 15  1  0
 18 17  1  0
 18 27  1  0
 18 19  1  0
 20 14  1  0
 20 19  1  0
 21 14  2  0
 22 23  1  0
 24 25  2  0
 25 44  1  0
 26 25  1  0
 26 29  1  0
 27 28  1  0
 27 24  1  0
 28 26  2  0
 29 30  1  0
 30 31  2  0
 32 35  1  0
 32 31  1  0
 33 32  2  0
 34 33  1  0
 34 29  2  0
 35 36  1  0
 36 37  1  0
 37 38  2  0
 39 38  1  0
 39 43  1  0
 40 39  2  0
 41 36  2  0
 41 40  1  0
 42 41  1  0
 44 45  1  0
 45 48  1  0
 45 47  1  0
 46 44  2  0
 49 50  1  0
 49 24  1  0
 51 49  1  0
 52 53  1  0
 53 13  1  0
 54 55  1  0
 55 57  1  0
 56 67  2  0
 57 62  1  0
 58 66  1  0
 58 68  1  0
 59 65  1  0
 59 61  1  0
 60 66  1  0
 61 60  1  0
 62 61  2  0
 63 64  1  0
 63 57  2  0
 64 59  2  0
 65 58  1  0
 66 56  1  0
 68 70  2  0
 69 68  1  0
 71 69  1  0
 72 81  2  0
 72 77  1  0
 73 69  1  0
 73 77  1  0
 74 73  1  0
 75 76  1  0
 75 74  1  0
 76 72  1  0
 77 78  2  0
 78 79  1  0
 80 79  2  0
 81 80  1  0
 82 56  1  0
 82 87  1  0
 82 83  1  0
 83 86  1  1
 83 84  1  0
 85 83  1  0
 87 90  1  0
 88 92  1  0
 88 87  1  0
 89 88  2  0
 92 91  1  0
 94 92  1  0
 94 95  1  0
 94 93  1  0
M  ISO  4  14 100  22 100  54 101  55 101
M  END
>  <TORSDO>  (63) 
F 19

>  <SCORE>  (63) 
-13.534

>  <name>  (63) 
62

>  <ligand_id>  (63) 
62

>  <original_smiles>  (63) 
[H]c1c([H])c([H])c2c(c1[H])C([H])([H])C([H])([H])C([H])([H])C2([H])N([H])C(=O)C1([H])N(C(=O)C([H])(N([H])C(=O)C([H])(N([H])C([H])([H])[H])C([H])([H])[H])C(C([H])([H])[H])(C([H])([H])[H])C([H])([H])[H])C([H])([H])c2c([H])c(OC([H])([H])C3([H])C([H])([H])N(c4c([H])c([H])c(N([H])C(=O)N5C([H])([H])C([H])([H])C([H])([H])C([H])(n6nc(-c7c([H])c([H])c(Oc8c([H])c([H])c(F)c([H])c8F)c([H])c7[H])c(C(=O)N([H])[H])c6N([H])[H])C5([H])[H])c(OC([H])([H])[H])c4[H])C(=O)C([H])([H])C3([H])[H])c([H])c([H])c2C1([H])[H]

>  <smiles>  (63) 
[H]c1c([H])c([H])c2c(c1[H])C([H])([H])C([H])([H])C([H])([H])C2([H])N([H])C(=O)C1([H])N(C(=O)C([H])(N([H])C(=O)C([H])(N([H])C([H])([H])[H])C([H])([H])[H])C(C([H])([H])[H])(C([H])([H])[H])C([H])([H])[H])C([H])([H])c2c([H])c(OC([H])([H])C3([H])C([H])([H])N(c4c([H])c([H])c(N([H])C(=O)N5C([H])([H])C([H])([H])C([H])([H])C([H])(n6nc(-c7c([H])c([H])c(Oc8c([H])c([H])c(F)c([H])c8F)c([H])c7[H])c(C(=O)N([H])[H])c6N([H])[H])C5([H])[H])c(OC([H])([H])[H])c4[H])C(=O)C([H])([H])C3([H])[H])c([H])c([H])c2C1([H])[H]

$$$$
63:0:0
     RDKit          3D

 96100  0  0  1  0  0  0  0  0999 V2000
  -31.1040  -28.3910   22.5250 C   0  0  0  0  0  0  0  0  0  0  0  0
  -32.1000  -28.6200   21.3130 C   0  0  0  0  0  2  0  0  0  0  0  0
  -31.5230  -28.4530   19.8380 C   0  0  0  0  0  2  0  0  0  0  0  0
  -29.5110  -29.2430   21.0120 C   0  0  0  0  0  2  0  0  0  0  0  0
  -30.0200  -28.2370   19.9350 C   0  0  0  0  0  3  0  0  0  0  0  0
  -29.7660  -28.5390   22.2830 N   0  0  0  0  0  0  0  0  0  0  0  0
  -31.5600  -28.1180   23.6370 O   0  0  0  0  0  0  0  0  0  0  0  0
  -26.5200  -24.8520   21.6480 C   0  0  0  0  0  1  0  0  0  0  0  0
  -27.3910  -27.5860   21.4320 C   0  0  0  0  0  1  0  0  0  0  0  0
  -29.1320  -25.9220   23.3240 C   0  0  0  0  0  3  0  0  0  0  0  0
  -27.7600  -23.3000   21.8880 C   0  0  0  0  0  1  0  0  0  0  0  0
  -28.8030  -27.4780   22.5340 C   0  0  0  0  0  3  0  0  0  0  0  0
  -28.7060  -24.2390   22.9910 C   0  0  0  0  0  0  0  0  0  0  0  0
  -29.4770  -23.4300   23.7540 F   0  0  0  0  0  0  0  0  0  0  0  0
  -29.5740  -17.2150   20.5540 C   0  0  0  0  0  2  0  0  0  0  0  0
  -30.2480  -14.3370   19.3130 C   0  0  0  0  0  2  0  0  0  0  0  0
  -29.6740  -13.2920   18.1780 C   0  0  0  0  0  2  0  0  0  0  0  0
  -28.4950  -12.4350   18.6300 C   0  0  0  0  0  2  0  0  0  0  0  0
  -27.7590  -13.3340   19.6220 C   0  0  0  0  0  3  0  0  0  0  0  0
  -28.6030  -14.2100   20.6980 C   0  0  0  0  0  2  0  0  0  0  0  0
  -29.3430  -15.5220   20.1480 N   0  0  0  0  0  0  0  0  0  0  0  0
  -30.8350  -16.8970   20.3770 O   0  0  0  0  0  1  0  0  0  0  0  0
  -28.0610  -20.9880   21.3200 C   0  0  0  0  0  2  0  0  0  0  0  0
  -28.6990  -19.0520   20.9240 N   0  0  0  0  0  1  0  0  0  0  0  0
  -26.8830  -20.8090   20.9910 O   0  0  0  0  0  0  0  0  0  0  0  0
  -27.7620  -18.7000   20.7790 H   0  0  0  0  0  0  0  0  0  0  0  0
  -25.3950  -13.5280   20.3450 C   0  0  0  0  0  0  0  0  0  0  0  0
  -24.4000  -12.6720   20.6970 C   0  0  0  0  0  0  0  0  0  0  0  0
  -24.9550  -11.3540   20.6350 C   0  0  0  0  0  0  0  0  0  0  0  0
  -26.5100  -12.7620   20.1220 N   0  0  0  0  0  0  0  0  0  0  0  0
  -26.2600  -11.4260   20.3230 N   0  0  0  0  0  0  0  0  0  0  0  0
  -24.2750  -10.0540   20.8090 C   0  0  0  0  0  0  0  0  0  0  0  0
  -24.6080   -9.1670   21.8570 C   0  0  0  0  0  3  0  0  0  0  0  0
  -23.9020   -7.9540   22.0270 C   0  0  0  0  0  3  0  0  0  0  0  0
  -22.8460   -7.6130   21.1490 C   0  0  0  0  0  0  0  0  0  0  0  0
  -22.5270   -8.4910   20.0980 C   0  0  0  0  0  3  0  0  0  0  0  0
  -23.2340   -9.6940   19.9270 C   0  0  0  0  0  3  0  0  0  0  0  0
  -22.1240   -6.4440   21.2210 O   0  0  0  0  0  0  0  0  0  0  0  0
  -21.7830   -5.8760   22.4240 C   0  0  0  0  0  0  0  0  0  0  0  0
  -20.9880   -6.5590   23.3710 C   0  0  0  0  0  3  0  0  0  0  0  0
  -20.6030   -5.9150   24.5630 C   0  0  0  0  0  3  0  0  0  0  0  0
  -20.9990   -4.5860   24.8070 C   0  0  0  0  0  0  0  0  0  0  0  0
  -21.7850   -3.9020   23.8620 C   0  0  0  0  0  3  0  0  0  0  0  0
  -22.1720   -4.5430   22.6730 C   0  0  0  0  0  0  0  0  0  0  0  0
  -22.9100   -3.8700   21.7580 F   0  0  0  0  0  0  0  0  0  0  0  0
  -20.6250   -3.9660   25.9500 F   0  0  0  0  0  0  0  0  0  0  0  0
  -22.9820  -13.0770   20.9650 C   0  0  0  0  0  0  0  0  0  0  0  0
  -22.3000  -12.3560   21.8450 N   0  0  0  0  0  0  0  0  0  0  0  0
  -22.5000  -14.0850   20.4480 O   0  0  0  0  0  0  0  0  0  0  0  0
  -22.7110  -11.5460   22.2840 H   0  0  0  0  0  0  0  0  0  0  0  0
  -21.3510  -12.6090   22.0810 H   0  0  0  0  0  0  0  0  0  0  0  0
  -25.4470  -14.9080   20.1610 N   0  0  0  0  0  0  0  0  0  0  0  0
  -24.6290  -15.5020   20.2520 H   0  0  0  0  0  0  0  0  0  0  0  0
  -26.2690  -15.4040   19.8390 H   0  0  0  0  0  0  0  0  0  0  0  0
  -29.0630  -27.6510   18.8430 C   0  0  0  0  0  2  0  0  0  0  0  0
  -28.7720  -26.2390   19.1320 O   0  0  0  0  0  0  0  0  0  0  0  0
  -24.1090  -30.9340   23.4290 C   0  0  0  0  0  0  0  0  0  0  0  0
  -27.5410  -25.8210   19.4740 C   0  0  0  0  0  3  0  0  0  0  0  0
  -23.0850  -29.5000   21.7730 C   0  0  0  0  0  3  0  0  0  0  0  0
  -24.4130  -27.1480   20.8320 C   0  0  0  0  0  0  0  0  0  0  0  0
  -25.2120  -28.4410   22.7210 C   0  0  0  0  0  2  0  0  0  0  0  0
  -25.3730  -26.6050   22.0920 C   0  0  0  0  0  2  0  0  0  0  0  0
  -27.6660  -25.6090   21.0220 C   0  0  0  0  0  2  0  0  0  0  0  0
  -26.2000  -26.3400   18.7920 C   0  0  0  0  0  3  0  0  0  0  0  0
  -24.8470  -26.8700   19.3870 C   0  0  0  0  0  3  0  0  0  0  0  0
  -23.4780  -28.4890   20.6620 C   0  0  0  0  0  3  0  0  0  0  0  0
  -24.2510  -29.7550   22.6060 N   0  0  0  0  0  0  0  0  0  0  0  0
  -22.9900  -31.4610   23.6350 O   0  0  0  0  0  0  0  0  0  0  0  0
  -22.0620  -28.8180   22.6570 C   0  0  0  0  0  0  0  0  0  0  0  0
  -20.7710  -28.8490   22.3250 N   0  0  0  0  0  0  0  0  0  0  0  0
  -22.4710  -28.1880   23.6330 O   0  0  0  0  0  0  0  0  0  0  0  0
  -20.4600  -29.3950   21.5340 H   0  0  0  0  0  0  0  0  0  0  0  0
  -17.2830  -27.9640   22.6060 C   0  0  0  0  0  0  0  0  0  0  0  0
  -19.8210  -27.9520   22.9750 C   0  0  0  0  0  3  0  0  0  0  0  0
  -19.8200  -26.5730   22.2760 C   0  0  0  0  0  2  0  0  0  0  0  0
  -18.7500  -26.4620   21.1900 C   0  0  0  0  0  2  0  0  0  0  0  0
  -17.3650  -26.6780   21.8020 C   0  0  0  0  0  2  0  0  0  0  0  0
  -18.4430  -28.5800   23.1380 C   0  0  0  0  0  0  0  0  0  0  0  0
  -18.3270  -29.7920   23.8520 C   0  0  0  0  0  3  0  0  0  0  0  0
  -17.0680  -30.3880   24.0400 C   0  0  0  0  0  3  0  0  0  0  0  0
  -15.9170  -29.7690   23.5240 C   0  0  0  0  0  3  0  0  0  0  0  0
  -16.0250  -28.5600   22.8140 C   0  0  0  0  0  3  0  0  0  0  0  0
  -25.2510  -31.7300   24.1940 C   0  0  0  0  0  3  0  0  0  0  0  0
  -24.9660  -33.2130   24.2570 N   0  0  0  0  0  0  0  0  0  0  0  0
  -25.6010  -34.2280   23.6280 C   0  0  0  0  0  0  0  0  0  0  0  0
  -26.5130  -34.0260   22.8250 O   0  0  0  0  0  0  0  0  0  0  0  0
  -24.1770  -33.4600   24.8390 H   0  0  0  0  0  0  0  0  0  0  0  0
  -24.1900  -36.1950   22.8460 C   0  0  0  0  0  1  0  0  0  0  0  0
  -25.1710  -35.6990   23.9240 C   0  0  0  0  0  3  0  0  0  0  0  0
  -27.1490  -36.4930   25.1710 C   0  0  0  0  0  1  0  0  0  0  0  0
  -26.2950  -36.6650   24.0020 N   0  0  0  0  0  0  0  0  0  0  0  0
  -25.9470  -37.6200   24.0010 H   0  0  0  0  0  0  0  0  0  0  0  0
  -25.4440  -31.2380   25.6810 C   0  0  1  0  0  0  0  0  0  0  0  0
  -24.1150  -31.1650   26.4700 C   0  0  0  0  0  1  0  0  0  0  0  0
  -26.1220  -29.8610   25.7570 C   0  0  0  0  0  1  0  0  0  0  0  0
  -26.3950  -32.1830   26.4490 C   0  0  0  0  0  1  0  0  0  0  0  0
  1  7  2  0
  2  1  1  0
  3  5  1  0
  3  2  1  0
  4  6  1  0
  5 55  1  0
  5  4  1  0
  6  1  1  0
  6 12  1  0
 11 13  1  0
 12  9  1  0
 12 10  1  0
 13 10  2  0
 13 14  1  0
 16 21  1  0
 17 18  1  0
 17 16  1  0
 19 18  1  0
 19 30  1  0
 19 20  1  0
 21 15  1  0
 21 20  1  0
 22 15  1  0
 25 23  2  0
 26 24  1  0
 27 28  2  0
 28 47  1  0
 29 28  1  0
 29 32  1  0
 30 31  1  0
 30 27  1  0
 31 29  2  0
 32 33  1  0
 33 34  2  0
 35 38  1  0
 35 34  1  0
 36 35  2  0
 37 36  1  0
 37 32  2  0
 38 39  1  0
 39 44  2  0
 39 40  1  0
 40 41  2  0
 41 42  1  0
 42 46  1  0
 43 42  2  0
 44 43  1  0
 45 44  1  0
 47 48  1  0
 48 51  1  0
 48 50  1  0
 49 47  2  0
 52 53  1  0
 52 27  1  0
 54 52  1  0
 55 56  1  0
 56 58  1  0
 57 68  2  0
 58 64  1  0
 58 63  1  0
 59 67  1  0
 59 69  1  0
 60 62  1  0
 62 61  1  0
 63  8  1  0
 64 65  2  0
 65 60  1  0
 66 60  2  0
 66 59  1  0
 67 61  1  0
 67 57  1  0
 69 71  2  0
 70 69  1  0
 72 70  1  0
 73 82  2  0
 73 78  1  0
 74 70  1  0
 74 78  1  0
 75 74  1  0
 76 77  1  0
 76 75  1  0
 77 73  1  0
 78 79  2  0
 79 80  1  0
 81 80  2  0
 82 81  1  0
 83 57  1  0
 83 84  1  0
 83 93  1  0
 84 87  1  0
 85 89  1  0
 85 84  1  0
 86 85  2  0
 89 88  1  0
 89 91  1  0
 91 90  1  0
 92 91  1  0
 93 95  1  6
 93 96  1  0
 93 94  1  0
M  ISO  4  15 100  24 100  55 101  56 101
M  END
>  <TORSDO>  (64) 
F 18

>  <SCORE>  (64) 
-8.636

>  <name>  (64) 
63

>  <ligand_id>  (64) 
63

>  <original_smiles>  (64) 
[H]c1c([H])c([H])c2c(c1[H])C([H])([H])C([H])([H])C([H])([H])C2([H])N([H])C(=O)C1([H])N(C(=O)C([H])(N([H])C(=O)C([H])(N([H])C([H])([H])[H])C([H])([H])[H])C(C([H])([H])[H])(C([H])([H])[H])C([H])([H])[H])C([H])([H])c2c([H])c(OC([H])([H])C3([H])C([H])([H])N(c4c([H])c([H])c(C(=O)N([H])C(=O)N5C([H])([H])C([H])([H])C([H])([H])C([H])(n6nc(-c7c([H])c([H])c(Oc8c([H])c([H])c(F)c([H])c8F)c([H])c7[H])c(C(=O)N([H])[H])c6N([H])[H])C5([H])[H])c(F)c4[H])C(=O)C([H])([H])C3([H])[H])c([H])c([H])c2C1([H])[H]

>  <smiles>  (64) 
[H]c1c([H])c([H])c2c(c1[H])C([H])([H])C([H])([H])C([H])([H])C2([H])N([H])C(=O)C1([H])N(C(=O)C([H])(N([H])C(=O)C([H])(N([H])C([H])([H])[H])C([H])([H])[H])C(C([H])([H])[H])(C([H])([H])[H])C([H])([H])[H])C([H])([H])c2c([H])c(OC([H])([H])C3([H])C([H])([H])N(c4c([H])c([H])c(C(=O)N([H])C(=O)N5C([H])([H])C([H])([H])C([H])([H])C([H])(n6nc(-c7c([H])c([H])c(Oc8c([H])c([H])c(F)c([H])c8F)c([H])c7[H])c(C(=O)N([H])[H])c6N([H])[H])C5([H])[H])c(F)c4[H])C(=O)C([H])([H])C3([H])[H])c([H])c([H])c2C1([H])[H]

$$$$
64:0:0
     RDKit          3D

 96105  0  0  1  0  0  0  0  0999 V2000
  -31.6620  -23.3750   18.8390 C   0  0  0  0  0  0  0  0  0  0  0  0
  -29.3030  -22.4540   20.2180 C   0  0  0  0  0  0  0  0  0  0  0  0
  -30.6100  -24.4450   19.1150 C   0  0  0  0  0  2  0  0  0  0  0  0
  -31.6860  -22.1850   19.8020 C   0  0  0  0  0  2  0  0  0  0  0  0
  -29.5650  -24.0310   20.1810 C   0  0  0  0  0  3  0  0  0  0  0  0
  -30.3500  -21.5760   19.9600 N   0  0  0  0  0  0  0  0  0  0  0  0
  -32.4440  -23.4680   17.8920 O   0  0  0  0  0  0  0  0  0  0  0  0
  -28.1690  -22.0610   20.4940 O   0  0  0  0  0  0  0  0  0  0  0  0
  -31.3420  -19.4060   20.7430 C   0  0  0  0  0  3  0  0  0  0  0  0
  -31.4340  -17.9860   20.8000 C   0  0  0  0  0  3  0  0  0  0  0  0
  -29.4970  -17.8190   19.3960 C   0  0  0  0  0  3  0  0  0  0  0  0
  -29.4230  -19.2470   19.2960 C   0  0  0  0  0  0  0  0  0  0  0  0
  -30.3260  -20.0950   20.0140 C   0  0  0  0  0  0  0  0  0  0  0  0
  -30.4920  -17.1460   20.1550 C   0  0  0  0  0  0  0  0  0  0  0  0
  -28.3660  -19.8260   18.3700 C   0  0  0  0  0  1  0  0  0  0  0  0
  -30.9540  -14.6700   19.7500 C   0  0  0  0  0  0  0  0  0  0  0  0
  -30.5420  -12.5670   18.4430 C   0  0  0  0  0  2  0  0  0  0  0  0
  -29.4020  -12.7970   17.4240 C   0  0  0  0  0  2  0  0  0  0  0  0
  -28.0090  -12.5880   18.0630 C   0  0  0  0  0  2  0  0  0  0  0  0
  -27.8860  -13.2970   19.4380 C   0  0  0  0  0  3  0  0  0  0  0  0
  -29.1040  -12.9350   20.3030 C   0  0  0  0  0  2  0  0  0  0  0  0
  -30.3020  -13.4520   19.6140 N   0  0  0  0  0  0  0  0  0  0  0  0
  -31.9800  -14.8700   19.0850 O   0  0  0  0  0  0  0  0  0  0  0  0
  -30.3800  -15.7170   20.4840 N   0  0  0  0  0  0  0  0  0  0  0  0
  -25.7020  -13.8400   20.6720 C   0  0  0  0  0  0  0  0  0  0  0  0
  -24.6760  -13.0490   21.1110 C   0  0  0  0  0  0  0  0  0  0  0  0
  -25.0440  -11.7100   20.7820 C   0  0  0  0  0  0  0  0  0  0  0  0
  -26.6320  -12.9800   20.1120 N   0  0  0  0  0  0  0  0  0  0  0  0
  -26.2510  -11.6840   20.2310 N   0  0  0  0  0  0  0  0  0  0  0  0
  -24.2960  -10.4530   20.9110 C   0  0  0  0  0  0  0  0  0  0  0  0
  -24.7790   -9.3790   21.6900 C   0  0  0  0  0  3  0  0  0  0  0  0
  -24.0300   -8.1890   21.8110 C   0  0  0  0  0  3  0  0  0  0  0  0
  -22.7820   -8.0650   21.1560 C   0  0  0  0  0  0  0  0  0  0  0  0
  -22.3160   -9.1290   20.3640 C   0  0  0  0  0  3  0  0  0  0  0  0
  -23.0670  -10.3100   20.2380 C   0  0  0  0  0  3  0  0  0  0  0  0
  -21.9970   -6.9390   21.1970 O   0  0  0  0  0  0  0  0  0  0  0  0
  -21.9640   -6.1250   22.3010 C   0  0  0  0  0  0  0  0  0  0  0  0
  -21.5960   -6.6080   23.5750 C   0  0  0  0  0  3  0  0  0  0  0  0
  -21.5090   -5.7200   24.6660 C   0  0  0  0  0  3  0  0  0  0  0  0
  -21.7790   -4.3510   24.4860 C   0  0  0  0  0  0  0  0  0  0  0  0
  -22.1380   -3.8680   23.2150 C   0  0  0  0  0  3  0  0  0  0  0  0
  -22.2270   -4.7510   22.1250 C   0  0  0  0  0  0  0  0  0  0  0  0
  -22.5550   -4.2770   20.9000 F   0  0  0  0  0  0  0  0  0  0  0  0
  -21.6870   -3.4970   25.5300 F   0  0  0  0  0  0  0  0  0  0  0  0
  -23.3840  -13.5160   21.7160 C   0  0  0  0  0  0  0  0  0  0  0  0
  -22.8070  -12.7190   22.6080 N   0  0  0  0  0  0  0  0  0  0  0  0
  -22.9050  -14.6150   21.4380 O   0  0  0  0  0  0  0  0  0  0  0  0
  -23.2120  -11.8260   22.8510 H   0  0  0  0  0  0  0  0  0  0  0  0
  -21.9460  -13.0040   23.0530 H   0  0  0  0  0  0  0  0  0  0  0  0
  -25.9120  -15.2150   20.6840 N   0  0  0  0  0  0  0  0  0  0  0  0
  -25.2150  -15.8630   21.0330 H   0  0  0  0  0  0  0  0  0  0  0  0
  -26.7230  -15.6730   20.2930 H   0  0  0  0  0  0  0  0  0  0  0  0
  -29.9540  -16.5490   22.9070 C   0  0  0  0  0  1  0  0  0  0  0  0
  -29.7780  -15.4680   21.8160 C   0  0  0  0  0  2  0  0  0  0  0  0
  -28.3000  -24.9820   20.0560 C   0  0  0  0  0  2  0  0  0  0  0  0
  -28.4770  -26.4440   20.2010 O   0  0  0  0  0  0  0  0  0  0  0  0
  -24.5790  -31.7670   23.1150 C   0  0  0  0  0  0  0  0  0  0  0  0
  -27.3330  -27.2570   20.1280 C   0  0  0  0  0  0  0  0  0  0  0  0
  -23.4330  -30.3490   21.4470 C   0  0  0  0  0  3  0  0  0  0  0  0
  -24.9410  -28.8210   20.0610 C   0  0  0  0  0  0  0  0  0  0  0  0
  -25.9680  -30.7110   21.3210 C   0  0  0  0  0  2  0  0  0  0  0  0
  -26.0850  -29.3330   20.6810 C   0  0  0  0  0  0  0  0  0  0  0  0
  -27.2850  -28.5610   20.7070 C   0  0  0  0  0  3  0  0  0  0  0  0
  -26.1580  -26.7930   19.4900 C   0  0  0  0  0  3  0  0  0  0  0  0
  -24.9770  -27.5550   19.4590 C   0  0  0  0  0  3  0  0  0  0  0  0
  -23.6900  -29.6750   20.0740 C   0  0  0  0  0  2  0  0  0  0  0  0
  -24.6770  -30.9590   22.0200 N   0  0  0  0  0  0  0  0  0  0  0  0
  -23.4790  -32.0320   23.6220 O   0  0  0  0  0  0  0  0  0  0  0  0
  -22.7630  -29.3250   22.3940 C   0  0  0  0  0  0  0  0  0  0  0  0
  -21.4360  -29.1570   22.2620 N   0  0  0  0  0  0  0  0  0  0  0  0
  -23.4340  -28.6850   23.2070 O   0  0  0  0  0  0  0  0  0  0  0  0
  -20.9530  -29.7270   21.5820 H   0  0  0  0  0  0  0  0  0  0  0  0
  -18.0450  -27.9990   22.7530 C   0  0  0  0  0  0  0  0  0  0  0  0
  -20.6070  -28.2150   23.0170 C   0  0  0  0  0  3  0  0  0  0  0  0
  -20.6870  -26.7940   22.4130 C   0  0  0  0  0  2  0  0  0  0  0  0
  -19.5760  -26.5060   21.3980 C   0  0  0  0  0  2  0  0  0  0  0  0
  -18.1990  -26.6590   22.0510 C   0  0  0  0  0  2  0  0  0  0  0  0
  -19.1760  -28.7360   23.1910 C   0  0  0  0  0  0  0  0  0  0  0  0
  -18.9780  -29.9900   23.8080 C   0  0  0  0  0  3  0  0  0  0  0  0
  -17.6810  -30.5070   23.9900 C   0  0  0  0  0  3  0  0  0  0  0  0
  -16.5640  -29.7660   23.5650 C   0  0  0  0  0  3  0  0  0  0  0  0
  -16.7460  -28.5140   22.9530 C   0  0  0  0  0  3  0  0  0  0  0  0
  -25.8380  -32.4140   23.7680 C   0  0  0  0  0  3  0  0  0  0  0  0
  -26.3790  -31.6070   25.0110 C   0  0  1  0  0  0  0  0  0  0  0  0
  -25.2940  -31.2850   26.0640 C   0  0  0  0  0  1  0  0  0  0  0  0
  -27.0090  -30.2680   24.5590 C   0  0  0  0  0  1  0  0  0  0  0  0
  -27.5010  -32.4100   25.7100 C   0  0  0  0  0  1  0  0  0  0  0  0
  -25.4810  -33.7860   24.1560 N   0  0  0  0  0  0  0  0  0  0  0  0
  -25.7690  -34.8800   23.4370 C   0  0  0  0  0  0  0  0  0  0  0  0
  -26.4320  -34.8410   22.3970 O   0  0  0  0  0  0  0  0  0  0  0  0
  -24.8880  -33.8880   24.9670 H   0  0  0  0  0  0  0  0  0  0  0  0
  -23.9770  -36.6240   23.1620 C   0  0  0  0  0  1  0  0  0  0  0  0
  -25.2350  -36.2310   23.9520 C   0  0  0  0  0  3  0  0  0  0  0  0
  -27.3380  -37.1580   24.8180 C   0  0  0  0  0  1  0  0  0  0  0  0
  -26.2300  -37.3230   23.8800 N   0  0  0  0  0  0  0  0  0  0  0  0
  -25.7920  -38.2220   24.0620 H   0  0  0  0  0  0  0  0  0  0  0  0
  1  3  1  0
  1  4  1  0
  2  8  2  0
  3  5  1  0
  4  6  1  0
  5 55  1  0
  5  2  1  0
  6 13  1  0
  6  2  1  0
  7  1  2  0
  9 10  1  0
 11 14  1  0
 12 11  2  0
 12 13  1  0
 13  9  2  0
 14 24  1  0
 14 10  2  0
 15 12  1  0
 16 24  1  0
 17 22  1  0
 18 19  1  0
 18 17  1  0
 20 19  1  0
 20 28  1  0
 20 21  1  0
 22 16  1  0
 22 21  1  0
 23 16  2  0
 24 54  1  0
 25 50  1  0
 25 26  2  0
 26 45  1  0
 27 30  1  0
 27 26  1  0
 28 29  1  0
 28 25  1  0
 29 27  2  0
 30 31  1  0
 31 32  2  0
 33 36  1  0
 33 32  1  0
 34 33  2  0
 35 34  1  0
 35 30  2  0
 36 37  1  0
 37 38  1  0
 38 39  2  0
 40 39  1  0
 40 44  1  0
 41 40  2  0
 42 37  2  0
 42 41  1  0
 43 42  1  0
 45 46  1  0
 46 48  1  0
 46 49  1  0
 47 45  2  0
 50 51  1  0
 52 50  1  0
 54 53  1  0
 55 56  1  0
 57 68  2  0
 58 56  1  0
 58 63  1  0
 59 67  1  0
 59 69  1  0
 60 66  1  0
 60 62  1  0
 61 67  1  0
 62 63  2  0
 62 61  1  0
 64 58  2  0
 65 64  1  0
 65 60  2  0
 66 59  1  0
 67 57  1  0
 69 71  2  0
 70 69  1  0
 72 70  1  0
 73 82  2  0
 73 78  1  0
 74 70  1  0
 74 78  1  0
 75 74  1  0
 76 77  1  0
 76 75  1  0
 77 73  1  0
 78 79  2  0
 79 80  1  0
 81 80  2  0
 82 81  1  0
 83 57  1  0
 83 88  1  0
 83 84  1  0
 84 87  1  1
 84 85  1  0
 86 84  1  0
 88 91  1  0
 89 93  1  0
 89 88  1  0
 90 89  2  0
 93 92  1  0
 95 93  1  0
 95 96  1  0
 95 94  1  0
M  ISO  4  16 100  24 100  55 101  56 101
M  END
>  <TORSDO>  (65) 
F 19

>  <SCORE>  (65) 
-10.973

>  <name>  (65) 
64

>  <ligand_id>  (65) 
64

>  <original_smiles>  (65) 
[H]c1c([H])c([H])c2c(c1[H])C([H])([H])C([H])([H])C([H])([H])C2([H])N([H])C(=O)C1([H])N(C(=O)C([H])(N([H])C(=O)C([H])(N([H])C([H])([H])[H])C([H])([H])[H])C(C([H])([H])[H])(C([H])([H])[H])C([H])([H])[H])C([H])([H])c2c([H])c(OC([H])([H])C3([H])C(=O)N(c4c([H])c([H])c(N(C(=O)N5C([H])([H])C([H])([H])C([H])([H])C([H])(n6nc(-c7c([H])c([H])c(Oc8c([H])c([H])c(F)c([H])c8F)c([H])c7[H])c(C(=O)N([H])[H])c6N([H])[H])C5([H])[H])C([H])([H])C([H])([H])[H])c([H])c4C([H])([H])[H])C([H])([H])C(=O)C3([H])[H])c([H])c([H])c2C1([H])[H]

>  <smiles>  (65) 
[H]c1c([H])c([H])c2c(c1[H])C([H])([H])C([H])([H])C([H])([H])C2([H])N([H])C(=O)C1([H])N(C(=O)C([H])(N([H])C(=O)C([H])(N([H])C([H])([H])[H])C([H])([H])[H])C(C([H])([H])[H])(C([H])([H])[H])C([H])([H])[H])C([H])([H])c2c([H])c(OC([H])([H])C3([H])C(=O)N(c4c([H])c([H])c(N(C(=O)N5C([H])([H])C([H])([H])C([H])([H])C([H])(n6nc(-c7c([H])c([H])c(Oc8c([H])c([H])c(F)c([H])c8F)c([H])c7[H])c(C(=O)N([H])[H])c6N([H])[H])C5([H])[H])C([H])([H])C([H])([H])[H])c([H])c4C([H])([H])[H])C([H])([H])C(=O)C3([H])[H])c([H])c([H])c2C1([H])[H]

$$$$
65:0:0
     RDKit          3D

 90 98  0  0  1  0  0  0  0  0999 V2000
  -28.4100  -18.9060   18.1400 C   0  0  0  0  0  3  0  0  0  0  0  0
  -29.0000  -17.8100   18.8130 C   0  0  0  0  0  3  0  0  0  0  0  0
  -28.4520  -20.2350   18.6260 C   0  0  0  0  0  3  0  0  0  0  0  0
  -29.7040  -19.3910   20.5090 C   0  0  0  0  0  3  0  0  0  0  0  0
  -29.6630  -17.9490   20.0500 C   0  0  0  0  0  0  0  0  0  0  0  0
  -29.1140  -20.5970   19.8220 C   0  0  0  0  0  0  0  0  0  0  0  0
  -30.0520  -16.5450   20.8140 C   0  0  0  0  0  0  0  0  0  0  0  0
  -29.8070  -16.5480   22.0560 N   0  0  0  0  0  0  0  0  0  0  0  0
  -29.4010  -17.4310   22.3400 H   0  0  0  0  0  0  0  0  0  0  0  0
  -30.7490  -15.1260   20.1930 C   0  0  0  0  0  0  0  0  0  0  0  0
  -30.5860  -12.7570   19.2590 C   0  0  0  0  0  2  0  0  0  0  0  0
  -29.6460  -12.7320   18.0290 C   0  0  0  0  0  2  0  0  0  0  0  0
  -28.1850  -12.5290   18.4690 C   0  0  0  0  0  2  0  0  0  0  0  0
  -27.8030  -13.4420   19.6630 C   0  0  0  0  0  3  0  0  0  0  0  0
  -28.8670  -13.4320   20.7810 C   0  0  0  0  0  2  0  0  0  0  0  0
  -30.1410  -13.8550   20.1810 N   0  0  0  0  0  0  0  0  0  0  0  0
  -31.9000  -15.1680   19.7400 O   0  0  0  0  0  0  0  0  0  0  0  0
  -25.4370  -14.0400   20.4240 C   0  0  0  0  0  0  0  0  0  0  0  0
  -24.3680  -13.2770   20.8040 C   0  0  0  0  0  0  0  0  0  0  0  0
  -24.8170  -11.9210   20.7680 C   0  0  0  0  0  0  0  0  0  0  0  0
  -26.4680  -13.1520   20.1720 N   0  0  0  0  0  0  0  0  0  0  0  0
  -26.1050  -11.8710   20.4440 N   0  0  0  0  0  0  0  0  0  0  0  0
  -24.0770  -10.6670   20.9660 C   0  0  0  0  0  0  0  0  0  0  0  0
  -24.5070   -9.6930   21.8940 C   0  0  0  0  0  3  0  0  0  0  0  0
  -23.7660   -8.5060   22.0810 C   0  0  0  0  0  3  0  0  0  0  0  0
  -22.5790   -8.2860   21.3410 C   0  0  0  0  0  0  0  0  0  0  0  0
  -22.1680   -9.2490   20.4040 C   0  0  0  0  0  3  0  0  0  0  0  0
  -22.9100  -10.4270   20.2140 C   0  0  0  0  0  3  0  0  0  0  0  0
  -21.8090   -7.1510   21.4370 O   0  0  0  0  0  0  0  0  0  0  0  0
  -21.7610   -6.4110   22.5910 C   0  0  0  0  0  0  0  0  0  0  0  0
  -21.3640   -6.9740   23.8230 C   0  0  0  0  0  3  0  0  0  0  0  0
  -21.2600   -6.1610   24.9680 C   0  0  0  0  0  3  0  0  0  0  0  0
  -21.5450   -4.7850   24.8840 C   0  0  0  0  0  0  0  0  0  0  0  0
  -21.9350   -4.2210   23.6570 C   0  0  0  0  0  3  0  0  0  0  0  0
  -22.0400   -5.0310   22.5130 C   0  0  0  0  0  0  0  0  0  0  0  0
  -22.3960   -4.4780   21.3290 F   0  0  0  0  0  0  0  0  0  0  0  0
  -21.4390   -4.0010   25.9820 F   0  0  0  0  0  0  0  0  0  0  0  0
  -22.9800  -13.7710   21.0870 C   0  0  0  0  0  0  0  0  0  0  0  0
  -22.2550  -13.0900   21.9670 N   0  0  0  0  0  0  0  0  0  0  0  0
  -22.5490  -14.7970   20.5640 O   0  0  0  0  0  0  0  0  0  0  0  0
  -22.6180  -12.2610   22.4130 H   0  0  0  0  0  0  0  0  0  0  0  0
  -21.3230  -13.4040   22.1990 H   0  0  0  0  0  0  0  0  0  0  0  0
  -25.6140  -15.4100   20.2480 N   0  0  0  0  0  0  0  0  0  0  0  0
  -24.8560  -16.0720   20.3830 H   0  0  0  0  0  0  0  0  0  0  0  0
  -26.4730  -15.8480   19.9440 H   0  0  0  0  0  0  0  0  0  0  0  0
  -28.3630  -23.1340   20.0100 C   0  0  0  0  0  3  0  0  0  0  0  0
  -26.9010  -22.8280   20.2510 C   0  0  0  0  0  1  0  0  0  0  0  0
  -29.2660  -22.1000   20.0520 N   0  0  0  0  0  2  0  0  0  0  0  0
  -28.5280  -24.7570   19.4930 C   0  0  0  0  0  2  0  0  0  0  0  0
  -28.2960  -26.1420   20.2110 O   0  0  0  0  0  0  0  0  0  0  0  0
  -24.5930  -31.8350   23.0890 C   0  0  0  0  0  0  0  0  0  0  0  0
  -27.2400  -27.1270   20.0470 C   0  0  0  0  0  0  0  0  0  0  0  0
  -23.4160  -30.4270   21.4420 C   0  0  0  0  0  3  0  0  0  0  0  0
  -24.8900  -28.8680   20.0070 C   0  0  0  0  0  0  0  0  0  0  0  0
  -25.9660  -30.7130   21.2900 C   0  0  0  0  0  2  0  0  0  0  0  0
  -26.0580  -29.3200   20.6300 C   0  0  0  0  0  0  0  0  0  0  0  0
  -27.2250  -28.4620   20.6400 C   0  0  0  0  0  3  0  0  0  0  0  0
  -26.0490  -26.7870   19.3720 C   0  0  0  0  0  3  0  0  0  0  0  0
  -24.9000  -27.6180   19.3620 C   0  0  0  0  0  3  0  0  0  0  0  0
  -23.6500  -29.7520   20.0600 C   0  0  0  0  0  2  0  0  0  0  0  0
  -24.6780  -31.0150   21.9950 N   0  0  0  0  0  0  0  0  0  0  0  0
  -23.5010  -32.1060   23.6140 O   0  0  0  0  0  0  0  0  0  0  0  0
  -22.7440  -29.4140   22.4020 C   0  0  0  0  0  0  0  0  0  0  0  0
  -21.4160  -29.2340   22.2770 N   0  0  0  0  0  0  0  0  0  0  0  0
  -23.4200  -28.7910   23.2250 O   0  0  0  0  0  0  0  0  0  0  0  0
  -20.9250  -29.7880   21.5900 H   0  0  0  0  0  0  0  0  0  0  0  0
  -18.0500  -27.9880   22.7700 C   0  0  0  0  0  0  0  0  0  0  0  0
  -20.6040  -28.2860   23.0450 C   0  0  0  0  0  3  0  0  0  0  0  0
  -20.7260  -26.8550   22.4700 C   0  0  0  0  0  2  0  0  0  0  0  0
  -19.6320  -26.5190   21.4510 C   0  0  0  0  0  2  0  0  0  0  0  0
  -18.2460  -26.6430   22.0910 C   0  0  0  0  0  2  0  0  0  0  0  0
  -19.1560  -28.7650   23.2030 C   0  0  0  0  0  0  0  0  0  0  0  0
  -18.9160  -30.0220   23.8000 C   0  0  0  0  0  3  0  0  0  0  0  0
  -17.6030  -30.5020   23.9670 C   0  0  0  0  0  3  0  0  0  0  0  0
  -16.5120  -29.7210   23.5480 C   0  0  0  0  0  3  0  0  0  0  0  0
  -16.7350  -28.4660   22.9560 C   0  0  0  0  0  3  0  0  0  0  0  0
  -25.8600  -32.4870   23.7240 C   0  0  0  0  0  3  0  0  0  0  0  0
  -26.3910  -31.7070   24.9890 C   0  0  1  0  0  0  0  0  0  0  0  0
  -25.3050  -31.4390   26.0570 C   0  0  0  0  0  1  0  0  0  0  0  0
  -26.9960  -30.3440   24.5840 C   0  0  0  0  0  1  0  0  0  0  0  0
  -27.5310  -32.5110   25.6590 C   0  0  0  0  0  1  0  0  0  0  0  0
  -25.5190  -33.8730   24.0850 N   0  0  0  0  0  0  0  0  0  0  0  0
  -25.8340  -34.9530   23.3580 C   0  0  0  0  0  0  0  0  0  0  0  0
  -26.5060  -34.8890   22.3250 O   0  0  0  0  0  0  0  0  0  0  0  0
  -24.9180  -33.9950   24.8880 H   0  0  0  0  0  0  0  0  0  0  0  0
  -24.0800  -36.7330   23.0500 C   0  0  0  0  0  1  0  0  0  0  0  0
  -25.3240  -36.3220   23.8530 C   0  0  0  0  0  3  0  0  0  0  0  0
  -27.4430  -37.2180   24.7150 C   0  0  0  0  0  1  0  0  0  0  0  0
  -26.3410  -37.3950   23.7730 N   0  0  0  0  0  0  0  0  0  0  0  0
  -25.9200  -38.3040   23.9450 H   0  0  0  0  0  0  0  0  0  0  0  0
  1  3  2  0
  1  2  1  0
  2  5  2  0
  3  6  1  0
  5  4  1  0
  5  7  1  0
  6 48  1  0
  6  4  2  0
  7  8  2  0
  8  9  1  0
 10  7  1  0
 11 16  1  0
 12 13  1  0
 12 11  1  0
 14 13  1  0
 14 21  1  0
 14 15  1  0
 16 10  1  0
 16 15  1  0
 17 10  2  0
 18 19  2  0
 19 38  1  0
 20 19  1  0
 20 23  1  0
 21 18  1  0
 21 22  1  0
 22 20  2  0
 23 24  1  0
 24 25  2  0
 26 29  1  0
 26 25  1  0
 27 26  2  0
 28 27  1  0
 28 23  2  0
 29 30  1  0
 30 31  1  0
 31 32  2  0
 33 32  1  0
 33 37  1  0
 34 33  2  0
 35 30  2  0
 35 34  1  0
 36 35  1  0
 38 39  1  0
 39 42  1  0
 39 41  1  0
 40 38  2  0
 43 44  1  0
 43 18  1  0
 45 43  1  0
 46 48  1  0
 46 47  1  0
 49 46  1  0
 49 50  1  0
 51 62  2  0
 52 50  1  0
 52 57  1  0
 53 61  1  0
 53 63  1  0
 54 60  1  0
 54 56  1  0
 55 61  1  0
 56 57  2  0
 56 55  1  0
 58 52  2  0
 59 58  1  0
 59 54  2  0
 60 53  1  0
 61 51  1  0
 63 65  2  0
 64 63  1  0
 66 64  1  0
 67 76  2  0
 67 72  1  0
 68 64  1  0
 68 72  1  0
 69 68  1  0
 70 71  1  0
 70 69  1  0
 71 67  1  0
 72 73  2  0
 73 74  1  0
 75 74  2  0
 76 75  1  0
 77 51  1  0
 77 82  1  0
 77 78  1  0
 78 81  1  1
 78 79  1  0
 80 78  1  0
 82 85  1  0
 83 87  1  0
 83 82  1  0
 84 83  2  0
 87 86  1  0
 89 87  1  0
 89 90  1  0
 89 88  1  0
M  ISO  4   7 100  10 100  49 101  50 101
M  END
>  <TORSDO>  (66) 
F 19

>  <SCORE>  (66) 
-15.594

>  <name>  (66) 
65

>  <ligand_id>  (66) 
65

>  <original_smiles>  (66) 
[H]N=C(C(=O)N1C([H])([H])C([H])([H])C([H])([H])C([H])(n2nc(-c3c([H])c([H])c(Oc4c([H])c([H])c(F)c([H])c4F)c([H])c3[H])c(C(=O)N([H])[H])c2N([H])[H])C1([H])[H])c1c([H])c([H])c([H])c(N=C(C([H])([H])[H])C([H])([H])Oc2c([H])c([H])c3c(c2[H])C([H])([H])N(C(=O)C([H])(N([H])C(=O)C([H])(N([H])C([H])([H])[H])C([H])([H])[H])C(C([H])([H])[H])(C([H])([H])[H])C([H])([H])[H])C([H])(C(=O)N([H])C2([H])c4c([H])c([H])c([H])c([H])c4C([H])([H])C([H])([H])C2([H])[H])C3([H])[H])c1[H]

>  <smiles>  (66) 
[H]N=C(C(=O)N1C([H])([H])C([H])([H])C([H])([H])C([H])(n2nc(-c3c([H])c([H])c(Oc4c([H])c([H])c(F)c([H])c4F)c([H])c3[H])c(C(=O)N([H])[H])c2N([H])[H])C1([H])[H])c1c([H])c([H])c([H])c(N=C(C([H])([H])[H])C([H])([H])Oc2c([H])c([H])c3c(c2[H])C([H])([H])N(C(=O)C([H])(N([H])C(=O)C([H])(N([H])C([H])([H])[H])C([H])([H])[H])C(C([H])([H])[H])(C([H])([H])[H])C([H])([H])[H])C([H])(C(=O)N([H])C2([H])c4c([H])c([H])c([H])c([H])c4C([H])([H])C([H])([H])C2([H])[H])C3([H])[H])c1[H]

$$$$
66:0:0
     RDKit          3D

 98106  0  0  1  0  0  0  0  0999 V2000
  -27.2230  -19.4840   19.9800 C   0  0  0  0  0  3  0  0  0  0  0  0
  -28.4560  -20.1360   20.0630 C   0  0  0  0  0  3  0  0  0  0  0  0
  -28.3700  -17.3640   20.0500 C   0  0  0  0  0  3  0  0  0  0  0  0
  -29.6640  -17.9570   20.0640 C   0  0  0  0  0  0  0  0  0  0  0  0
  -27.1750  -18.0930   20.0280 C   0  0  0  0  0  0  0  0  0  0  0  0
  -29.6970  -19.4690   20.2320 C   0  0  0  0  0  0  0  0  0  0  0  0
  -30.9880  -21.8160   20.8990 C   0  0  0  0  0  0  0  0  0  0  0  0
  -30.8120  -20.4580   20.4680 N   0  0  0  0  0  0  0  0  0  0  0  0
  -31.9810  -22.3810   20.4400 O   0  0  0  0  0  0  0  0  0  0  0  0
  -31.6730  -20.1430   20.0450 H   0  0  0  0  0  0  0  0  0  0  0  0
  -29.7900  -23.9660   22.0560 C   0  0  0  0  0  3  0  0  0  0  0  0
  -30.0910  -22.5850   21.8730 C   0  0  0  0  0  0  0  0  0  0  0  0
  -29.5080  -21.8080   22.7970 O   0  0  0  0  0  0  0  0  0  0  0  0
  -29.0170  -22.3680   23.3830 H   0  0  0  0  0  0  0  0  0  0  0  0
  -30.1660  -25.2640   21.5540 O   0  0  0  0  0  0  0  0  0  0  0  0
  -26.1300  -30.8090   24.2550 C   0  0  0  0  0  0  0  0  0  0  0  0
  -29.1720  -26.2850   21.4330 C   0  0  0  0  0  0  0  0  0  0  0  0
  -25.2540  -29.5830   22.3040 C   0  0  0  0  0  3  0  0  0  0  0  0
  -26.9260  -28.0710   21.0770 C   0  0  0  0  0  0  0  0  0  0  0  0
  -27.7920  -29.7820   22.6640 C   0  0  0  0  0  2  0  0  0  0  0  0
  -27.9670  -28.4410   21.9390 C   0  0  0  0  0  0  0  0  0  0  0  0
  -29.0970  -27.5610   22.1100 C   0  0  0  0  0  3  0  0  0  0  0  0
  -28.1200  -26.0070   20.5380 C   0  0  0  0  0  3  0  0  0  0  0  0
  -27.0140  -26.8650   20.3650 C   0  0  0  0  0  3  0  0  0  0  0  0
  -25.7300  -29.0000   20.9480 C   0  0  0  0  0  2  0  0  0  0  0  0
  -26.4000  -30.0740   23.1340 N   0  0  0  0  0  0  0  0  0  0  0  0
  -24.9670  -31.0900   24.5810 O   0  0  0  0  0  0  0  0  0  0  0  0
  -24.3790  -28.5300   23.0310 C   0  0  0  0  0  0  0  0  0  0  0  0
  -23.1010  -28.4140   22.6290 N   0  0  0  0  0  0  0  0  0  0  0  0
  -24.8610  -27.8250   23.9200 O   0  0  0  0  0  0  0  0  0  0  0  0
  -22.7700  -29.0450   21.9120 H   0  0  0  0  0  0  0  0  0  0  0  0
  -19.6520  -27.3310   22.3970 C   0  0  0  0  0  0  0  0  0  0  0  0
  -22.1260  -27.4480   23.1440 C   0  0  0  0  0  3  0  0  0  0  0  0
  -22.2880  -26.0700   22.4590 C   0  0  0  0  0  2  0  0  0  0  0  0
  -21.3820  -25.8960   21.2370 C   0  0  0  0  0  2  0  0  0  0  0  0
  -19.9100  -26.0430   21.6350 C   0  0  0  0  0  2  0  0  0  0  0  0
  -20.6950  -27.9960   23.0950 C   0  0  0  0  0  0  0  0  0  0  0  0
  -20.4070  -29.2030   23.7650 C   0  0  0  0  0  3  0  0  0  0  0  0
  -19.1100  -29.7490   23.7450 C   0  0  0  0  0  3  0  0  0  0  0  0
  -18.0800  -29.0820   23.0600 C   0  0  0  0  0  3  0  0  0  0  0  0
  -18.3500  -27.8730   22.3940 C   0  0  0  0  0  3  0  0  0  0  0  0
  -27.2720  -31.3490   25.1710 C   0  0  0  0  0  3  0  0  0  0  0  0
  -27.0200  -32.7790   25.4020 N   0  0  0  0  0  0  0  0  0  0  0  0
  -27.6020  -33.7770   24.7220 C   0  0  0  0  0  0  0  0  0  0  0  0
  -28.4700  -33.5840   23.8660 O   0  0  0  0  0  0  0  0  0  0  0  0
  -26.2790  -33.0070   26.0500 H   0  0  0  0  0  0  0  0  0  0  0  0
  -26.1320  -35.6860   23.9930 C   0  0  0  0  0  1  0  0  0  0  0  0
  -27.1520  -35.2160   25.0430 C   0  0  0  0  0  3  0  0  0  0  0  0
  -29.1400  -35.9780   26.2690 C   0  0  0  0  0  1  0  0  0  0  0  0
  -28.2710  -36.1810   25.1110 N   0  0  0  0  0  0  0  0  0  0  0  0
  -27.9230  -37.1360   25.1400 H   0  0  0  0  0  0  0  0  0  0  0  0
  -27.3810  -30.5790   26.5450 C   0  0  1  0  0  0  0  0  0  0  0  0
  -26.0410  -30.4800   27.3120 C   0  0  0  0  0  1  0  0  0  0  0  0
  -27.9070  -29.1420   26.3280 C   0  0  0  0  0  1  0  0  0  0  0  0
  -28.4040  -31.2900   27.4620 C   0  0  0  0  0  1  0  0  0  0  0  0
  -25.9510  -17.4310   20.0150 N   0  0  0  0  0  0  0  0  0  0  0  0
  -25.1080  -17.9460   19.7830 H   0  0  0  0  0  0  0  0  0  0  0  0
  -25.9160  -16.4580   19.7260 H   0  0  0  0  0  0  0  0  0  0  0  0
  -31.0140  -16.5960   18.3470 C   0  0  0  0  0  1  0  0  0  0  0  0
  -30.7880  -16.7890   19.8520 C   0  0  0  0  0  3  0  0  0  0  0  0
  -31.4310  -14.2790   20.8690 C   0  0  0  0  0  0  0  0  0  0  0  0
  -31.5030  -11.7550   20.7530 C   0  0  0  0  0  2  0  0  0  0  0  0
  -30.8100  -11.2600   19.4610 C   0  0  0  0  0  2  0  0  0  0  0  0
  -29.2910  -11.1150   19.6740 C   0  0  0  0  0  2  0  0  0  0  0  0
  -28.6760  -12.3460   20.3890 C   0  0  0  0  0  3  0  0  0  0  0  0
  -29.5020  -12.7770   21.6200 C   0  0  0  0  0  2  0  0  0  0  0  0
  -30.8670  -13.0400   21.1490 N   0  0  0  0  0  0  0  0  0  0  0  0
  -32.6590  -14.3450   20.7600 O   0  0  0  0  0  0  0  0  0  0  0  0
  -30.5930  -15.3610   20.5090 N   0  0  0  0  0  0  0  0  0  0  0  0
  -29.6210  -15.1250   20.6340 H   0  0  0  0  0  0  0  0  0  0  0  0
  -26.2410  -13.0710   20.7010 C   0  0  0  0  0  0  0  0  0  0  0  0
  -25.1040  -12.3720   20.9990 C   0  0  0  0  0  0  0  0  0  0  0  0
  -25.5100  -11.0170   21.1910 C   0  0  0  0  0  0  0  0  0  0  0  0
  -27.2690  -12.1440   20.7160 N   0  0  0  0  0  0  0  0  0  0  0  0
  -26.8280  -10.9110   21.0780 N   0  0  0  0  0  0  0  0  0  0  0  0
  -24.7120   -9.8050   21.4150 C   0  0  0  0  0  0  0  0  0  0  0  0
  -24.6550   -9.1820   22.6810 C   0  0  0  0  0  3  0  0  0  0  0  0
  -23.8650   -8.0280   22.8760 C   0  0  0  0  0  3  0  0  0  0  0  0
  -23.1190   -7.4900   21.8010 C   0  0  0  0  0  0  0  0  0  0  0  0
  -23.1990   -8.1000   20.5370 C   0  0  0  0  0  3  0  0  0  0  0  0
  -23.9900   -9.2440   20.3440 C   0  0  0  0  0  3  0  0  0  0  0  0
  -22.3430   -6.3590   21.8910 O   0  0  0  0  0  0  0  0  0  0  0  0
  -21.4860   -6.1550   22.9430 C   0  0  0  0  0  0  0  0  0  0  0  0
  -20.4190   -7.0400   23.2170 C   0  0  0  0  0  3  0  0  0  0  0  0
  -19.5220   -6.7570   24.2640 C   0  0  0  0  0  3  0  0  0  0  0  0
  -19.6810   -5.5880   25.0320 C   0  0  0  0  0  0  0  0  0  0  0  0
  -20.7400   -4.7030   24.7570 C   0  0  0  0  0  3  0  0  0  0  0  0
  -21.6370   -4.9850   23.7140 C   0  0  0  0  0  0  0  0  0  0  0  0
  -22.6420   -4.1200   23.4390 F   0  0  0  0  0  0  0  0  0  0  0  0
  -18.8140   -5.3100   26.0330 F   0  0  0  0  0  0  0  0  0  0  0  0
  -23.7040  -12.9140   21.0030 C   0  0  0  0  0  0  0  0  0  0  0  0
  -22.8360  -12.3590   21.8410 N   0  0  0  0  0  0  0  0  0  0  0  0
  -23.3850  -13.8670   20.2940 O   0  0  0  0  0  0  0  0  0  0  0  0
  -23.1040  -11.5890   22.4370 H   0  0  0  0  0  0  0  0  0  0  0  0
  -21.8910  -12.7110   21.8890 H   0  0  0  0  0  0  0  0  0  0  0  0
  -26.4850  -14.4060   20.3920 N   0  0  0  0  0  0  0  0  0  0  0  0
  -25.7330  -15.0830   20.3270 H   0  0  0  0  0  0  0  0  0  0  0  0
  -27.3780  -14.7850   20.1140 H   0  0  0  0  0  0  0  0  0  0  0  0
  1  5  2  0
  1  2  1  0
  2  6  2  0
  3  4  2  0
  4  6  1  0
  5  3  1  0
  6  8  1  0
  7 12  1  0
  8  7  1  0
  9  7  2  0
 10  8  1  0
 12 11  2  0
 12 13  1  0
 13 14  1  0
 15 11  1  0
 16 27  2  0
 17 15  1  0
 17 22  1  0
 18 28  1  0
 18 26  1  0
 19 21  1  0
 20 26  1  0
 21 22  2  0
 21 20  1  0
 23 17  2  0
 24 23  1  0
 24 19  2  0
 25 19  1  0
 25 18  1  0
 26 16  1  0
 28 30  2  0
 29 28  1  0
 31 29  1  0
 32 37  1  0
 33 29  1  0
 34 33  1  0
 35 36  1  0
 35 34  1  0
 36 32  1  0
 37 33  1  0
 37 38  2  0
 39 38  1  0
 40 39  2  0
 41 32  2  0
 41 40  1  0
 42 16  1  0
 42 43  1  0
 42 52  1  0
 43 46  1  0
 44 48  1  0
 44 43  1  0
 45 44  2  0
 48 47  1  0
 48 50  1  0
 50 51  1  0
 50 49  1  0
 52 53  1  1
 52 55  1  0
 54 52  1  0
 56  5  1  0
 57 56  1  0
 58 56  1  0
 60 59  1  0
 60  4  1  0
 60 69  1  0
 61 67  1  0
 62 67  1  0
 63 64  1  0
 63 62  1  0
 65 64  1  0
 65 74  1  0
 65 66  1  0
 67 66  1  0
 68 61  2  0
 69 70  1  0
 69 61  1  0
 71 74  1  0
 71 72  2  0
 72 91  1  0
 72 73  1  0
 73 76  1  0
 74 75  1  0
 75 73  2  0
 76 77  1  0
 77 78  2  0
 79 82  1  0
 79 78  1  0
 80 79  2  0
 81 80  1  0
 81 76  2  0
 82 83  1  0
 83 84  2  0
 83 88  1  0
 84 85  1  0
 85 86  2  0
 86 90  1  0
 87 86  1  0
 88 87  2  0
 89 88  1  0
 91 92  1  0
 92 95  1  0
 92 94  1  0
 93 91  2  0
 96 71  1  0
 97 96  1  0
 98 96  1  0
M  ISO  4  11 101  15 101  61 100  69 100
M  END
>  <TORSDO>  (67) 
F 21

>  <SCORE>  (67) 
-9.576

>  <name>  (67) 
66

>  <ligand_id>  (67) 
66

>  <original_smiles>  (67) 
[H]OC(C(=O)N([H])c1c([H])c([H])c(N([H])[H])c([H])c1C([H])(N([H])C(=O)N1C([H])([H])C([H])([H])C([H])([H])C([H])(n2nc(-c3c([H])c([H])c(Oc4c([H])c([H])c(F)c([H])c4F)c([H])c3[H])c(C(=O)N([H])[H])c2N([H])[H])C1([H])[H])C([H])([H])[H])=C([H])Oc1c([H])c([H])c2c(c1[H])C([H])([H])N(C(=O)C([H])(N([H])C(=O)C([H])(N([H])C([H])([H])[H])C([H])([H])[H])C(C([H])([H])[H])(C([H])([H])[H])C([H])([H])[H])C([H])(C(=O)N([H])C1([H])c3c([H])c([H])c([H])c([H])c3C([H])([H])C([H])([H])C1([H])[H])C2([H])[H]

>  <smiles>  (67) 
[H]OC(C(=O)N([H])c1c([H])c([H])c(N([H])[H])c([H])c1C([H])(N([H])C(=O)N1C([H])([H])C([H])([H])C([H])([H])C([H])(n2nc(-c3c([H])c([H])c(Oc4c([H])c([H])c(F)c([H])c4F)c([H])c3[H])c(C(=O)N([H])[H])c2N([H])[H])C1([H])[H])C([H])([H])[H])=C([H])Oc1c([H])c([H])c2c(c1[H])C([H])([H])N(C(=O)C([H])(N([H])C(=O)C([H])(N([H])C([H])([H])[H])C([H])([H])[H])C(C([H])([H])[H])(C([H])([H])[H])C([H])([H])[H])C([H])(C(=O)N([H])C1([H])c3c([H])c([H])c([H])c([H])c3C([H])([H])C([H])([H])C1([H])[H])C2([H])[H]

$$$$
67:0:0
     RDKit          3D

101109  0  0  1  0  0  0  0  0999 V2000
  -28.7040  -18.1220   19.8090 O   0  0  0  0  0  0  0  0  0  0  0  0
  -31.9230  -17.8370   21.6380 C   0  0  0  0  0  3  0  0  0  0  0  0
  -30.4290  -19.7920   20.2810 C   0  0  0  0  0  3  0  0  0  0  0  0
  -32.4180  -19.1520   21.5310 C   0  0  0  0  0  0  0  0  0  0  0  0
  -30.6810  -17.4820   21.0500 C   0  0  0  0  0  0  0  0  0  0  0  0
  -31.6790  -20.1220   20.8360 C   0  0  0  0  0  0  0  0  0  0  0  0
  -29.9150  -18.4720   20.3770 C   0  0  0  0  0  0  0  0  0  0  0  0
  -30.9890  -15.0520   20.8630 C   0  0  0  0  0  0  0  0  0  0  0  0
  -30.9410  -12.6780   20.2000 C   0  0  0  0  0  2  0  0  0  0  0  0
  -30.1330  -12.5190   18.8980 C   0  0  0  0  0  2  0  0  0  0  0  0
  -28.6360  -12.3330   19.2110 C   0  0  0  0  0  2  0  0  0  0  0  0
  -28.0940  -13.3870   20.2140 C   0  0  0  0  0  3  0  0  0  0  0  0
  -29.0370  -13.5440   21.4300 C   0  0  0  0  0  2  0  0  0  0  0  0
  -30.3880  -13.8330   20.9250 N   0  0  0  0  0  0  0  0  0  0  0  0
  -32.1470  -15.1940   20.4590 O   0  0  0  0  0  0  0  0  0  0  0  0
  -30.2210  -16.1290   21.1210 N   0  0  0  0  0  0  0  0  0  0  0  0
  -29.2310  -15.9770   21.2410 H   0  0  0  0  0  0  0  0  0  0  0  0
  -25.6570  -13.9440   20.8300 C   0  0  0  0  0  0  0  0  0  0  0  0
  -24.5830  -13.1480   21.1280 C   0  0  0  0  0  0  0  0  0  0  0  0
  -25.0620  -11.8030   21.0840 C   0  0  0  0  0  0  0  0  0  0  0  0
  -26.7240  -13.0820   20.6240 N   0  0  0  0  0  0  0  0  0  0  0  0
  -26.3660  -11.7890   20.8360 N   0  0  0  0  0  0  0  0  0  0  0  0
  -24.3420  -10.5280   21.2080 C   0  0  0  0  0  0  0  0  0  0  0  0
  -24.7120   -9.5640   22.1720 C   0  0  0  0  0  3  0  0  0  0  0  0
  -23.9960   -8.3530   22.2850 C   0  0  0  0  0  3  0  0  0  0  0  0
  -22.8960   -8.0970   21.4330 C   0  0  0  0  0  0  0  0  0  0  0  0
  -22.5460   -9.0500   20.4610 C   0  0  0  0  0  3  0  0  0  0  0  0
  -23.2620  -10.2530   20.3460 C   0  0  0  0  0  3  0  0  0  0  0  0
  -22.1570   -6.9390   21.4550 O   0  0  0  0  0  0  0  0  0  0  0  0
  -21.9580   -6.2330   22.6140 C   0  0  0  0  0  0  0  0  0  0  0  0
  -21.3340   -6.8100   23.7410 C   0  0  0  0  0  3  0  0  0  0  0  0
  -21.0840   -6.0280   24.8860 C   0  0  0  0  0  3  0  0  0  0  0  0
  -21.4500   -4.6670   24.9050 C   0  0  0  0  0  0  0  0  0  0  0  0
  -22.0670   -4.0900   23.7810 C   0  0  0  0  0  3  0  0  0  0  0  0
  -22.3170   -4.8690   22.6380 C   0  0  0  0  0  0  0  0  0  0  0  0
  -22.8910   -4.3020   21.5500 F   0  0  0  0  0  0  0  0  0  0  0  0
  -21.2040   -3.9130   26.0010 F   0  0  0  0  0  0  0  0  0  0  0  0
  -23.1670  -13.6010   21.3450 C   0  0  0  0  0  0  0  0  0  0  0  0
  -22.4080  -12.8830   22.1650 N   0  0  0  0  0  0  0  0  0  0  0  0
  -22.7390  -14.6290   20.8200 O   0  0  0  0  0  0  0  0  0  0  0  0
  -22.7640  -12.0560   22.6220 H   0  0  0  0  0  0  0  0  0  0  0  0
  -21.4560  -13.1700   22.3440 H   0  0  0  0  0  0  0  0  0  0  0  0
  -25.8090  -15.3200   20.6970 N   0  0  0  0  0  0  0  0  0  0  0  0
  -25.0260  -15.9560   20.7920 H   0  0  0  0  0  0  0  0  0  0  0  0
  -26.6680  -15.7840   20.4280 H   0  0  0  0  0  0  0  0  0  0  0  0
  -33.6330  -19.5240   22.1080 N   0  0  0  0  0  0  0  0  0  0  0  0
  -33.9200  -19.0000   22.9280 H   0  0  0  0  0  0  0  0  0  0  0  0
  -33.6950  -20.5240   22.2740 H   0  0  0  0  0  0  0  0  0  0  0  0
  -32.2090  -21.4050   20.6910 N   0  0  0  0  0  0  0  0  0  0  0  0
  -31.8460  -21.9550   19.9220 H   0  0  0  0  0  0  0  0  0  0  0  0
  -33.2250  -21.4240   20.6970 H   0  0  0  0  0  0  0  0  0  0  0  0
  -28.2310  -18.9150   18.7120 C   0  0  0  0  0  2  0  0  0  0  0  0
  -27.3040  -20.0890   19.1280 C   0  0  0  0  0  2  0  0  0  0  0  0
  -27.5180  -22.3250   17.9540 C   0  0  0  0  0  0  0  0  0  0  0  0
  -26.3530  -20.4710   16.8750 C   0  0  0  0  0  1  0  0  0  0  0  0
  -27.0980  -21.0340   18.0110 N   0  0  0  0  0  0  0  0  0  0  0  0
  -27.4820  -22.9570   16.8930 O   0  0  0  0  0  0  0  0  0  0  0  0
  -27.9770  -23.0620   19.2310 C   0  0  0  0  0  2  0  0  0  0  0  0
  -28.1830  -24.5960   19.0390 C   0  0  0  0  0  2  0  0  0  0  0  0
  -28.1720  -25.4010   20.3590 C   0  0  0  0  0  2  0  0  0  0  0  0
  -28.2600  -26.8260   20.1800 O   0  0  0  0  0  0  0  0  0  0  0  0
  -24.5460  -32.0170   23.3700 C   0  0  0  0  0  0  0  0  0  0  0  0
  -27.0850  -27.5520   20.2160 C   0  0  0  0  0  0  0  0  0  0  0  0
  -23.2980  -30.6390   21.7410 C   0  0  0  0  0  3  0  0  0  0  0  0
  -24.7060  -29.0870   20.2890 C   0  0  0  0  0  0  0  0  0  0  0  0
  -25.8260  -30.9660   21.5030 C   0  0  0  0  0  2  0  0  0  0  0  0
  -25.8830  -29.5970   20.8520 C   0  0  0  0  0  0  0  0  0  0  0  0
  -27.0770  -28.8400   20.8020 C   0  0  0  0  0  3  0  0  0  0  0  0
  -25.8820  -27.0520   19.6680 C   0  0  0  0  0  3  0  0  0  0  0  0
  -24.6980  -27.8130   19.6980 C   0  0  0  0  0  3  0  0  0  0  0  0
  -23.4770  -29.9630   20.3560 C   0  0  0  0  0  2  0  0  0  0  0  0
  -24.5760  -31.2220   22.2640 N   0  0  0  0  0  0  0  0  0  0  0  0
  -23.4760  -32.3010   23.9250 O   0  0  0  0  0  0  0  0  0  0  0  0
  -22.6490  -29.6220   22.7070 C   0  0  0  0  0  0  0  0  0  0  0  0
  -21.3330  -29.4050   22.5500 N   0  0  0  0  0  0  0  0  0  0  0  0
  -23.3260  -29.0300   23.5510 O   0  0  0  0  0  0  0  0  0  0  0  0
  -20.8490  -29.9320   21.8370 H   0  0  0  0  0  0  0  0  0  0  0  0
  -17.9860  -28.1050   22.9490 C   0  0  0  0  0  0  0  0  0  0  0  0
  -20.5190  -28.4650   23.3190 C   0  0  0  0  0  3  0  0  0  0  0  0
  -20.6990  -27.0210   22.7940 C   0  0  0  0  0  2  0  0  0  0  0  0
  -19.6520  -26.6270   21.7490 C   0  0  0  0  0  2  0  0  0  0  0  0
  -18.2390  -26.7410   22.3290 C   0  0  0  0  0  2  0  0  0  0  0  0
  -19.0580  -28.9210   23.3990 C   0  0  0  0  0  0  0  0  0  0  0  0
  -18.7690  -30.1950   23.9340 C   0  0  0  0  0  3  0  0  0  0  0  0
  -17.4400  -30.6530   24.0290 C   0  0  0  0  0  3  0  0  0  0  0  0
  -16.3840  -29.8340   23.5970 C   0  0  0  0  0  3  0  0  0  0  0  0
  -16.6570  -28.5620   23.0620 C   0  0  0  0  0  3  0  0  0  0  0  0
  -25.8470  -32.6310   23.9760 C   0  0  0  0  0  3  0  0  0  0  0  0
  -26.3550  -31.8640   25.2590 C   0  0  1  0  0  0  0  0  0  0  0  0
  -25.2620  -31.6570   26.3330 C   0  0  0  0  0  1  0  0  0  0  0  0
  -26.9110  -30.4730   24.8810 C   0  0  0  0  0  1  0  0  0  0  0  0
  -27.5240  -32.6430   25.9070 C   0  0  0  0  0  1  0  0  0  0  0  0
  -25.5710  -34.0390   24.2890 N   0  0  0  0  0  0  0  0  0  0  0  0
  -25.9160  -35.0720   23.5090 C   0  0  0  0  0  0  0  0  0  0  0  0
  -26.5720  -34.9380   22.4720 O   0  0  0  0  0  0  0  0  0  0  0  0
  -24.9930  -34.2180   25.0970 H   0  0  0  0  0  0  0  0  0  0  0  0
  -24.2180  -36.8880   23.1430 C   0  0  0  0  0  1  0  0  0  0  0  0
  -25.4610  -36.4770   23.9470 C   0  0  0  0  0  3  0  0  0  0  0  0
  -27.6210  -37.3350   24.7400 C   0  0  0  0  0  1  0  0  0  0  0  0
  -26.5130  -37.5080   23.8020 N   0  0  0  0  0  0  0  0  0  0  0  0
  -26.1290  -38.4400   23.9320 H   0  0  0  0  0  0  0  0  0  0  0  0
  1  7  1  0
  3  7  2  0
  3  6  1  0
  4  2  1  0
  4 46  1  0
  5 16  1  0
  5  2  2  0
  6  4  2  0
  7  5  1  0
  8 14  1  0
  8 16  1  0
  9 14  1  0
 10 11  1  0
 10  9  1  0
 12 11  1  0
 12 21  1  0
 12 13  1  0
 14 13  1  0
 15  8  2  0
 16 17  1  0
 18 19  2  0
 19 38  1  0
 20 19  1  0
 20 23  1  0
 21 18  1  0
 21 22  1  0
 22 20  2  0
 23 24  1  0
 24 25  2  0
 26 29  1  0
 26 25  1  0
 27 26  2  0
 28 27  1  0
 28 23  2  0
 29 30  1  0
 30 35  2  0
 30 31  1  0
 31 32  2  0
 32 33  1  0
 33 37  1  0
 34 33  2  0
 35 34  1  0
 36 35  1  0
 38 39  1  0
 39 42  1  0
 39 41  1  0
 40 38  2  0
 43 44  1  0
 43 18  1  0
 45 43  1  0
 46 48  1  0
 46 47  1  0
 49 51  1  0
 49  6  1  0
 50 49  1  0
 52 53  1  0
 52  1  1  0
 54 56  1  0
 54 58  1  0
 55 56  1  0
 56 53  1  0
 57 54  2  0
 59 58  1  0
 59 60  1  0
 61 63  1  0
 61 60  1  0
 62 73  2  0
 63 68  1  0
 64 72  1  0
 64 74  1  0
 65 71  1  0
 65 67  1  0
 66 72  1  0
 67 66  1  0
 68 67  2  0
 69 70  1  0
 69 63  2  0
 70 65  2  0
 71 64  1  0
 72 62  1  0
 74 76  2  0
 75 74  1  0
 77 75  1  0
 78 87  2  0
 78 83  1  0
 79 75  1  0
 79 83  1  0
 80 79  1  0
 81 82  1  0
 81 80  1  0
 82 78  1  0
 83 84  2  0
 84 85  1  0
 86 85  2  0
 87 86  1  0
 88 62  1  0
 88 93  1  0
 88 89  1  0
 89 92  1  1
 89 90  1  0
 91 89  1  0
 93 96  1  0
 94 98  1  0
 94 93  1  0
 95 94  2  0
 98 97  1  0
100101  1  0
100 98  1  0
100 99  1  0
M  ISO  4   8 100  16 100  60 101  61 101
M  END
>  <TORSDO>  (68) 
F 25

>  <SCORE>  (68) 
-11.314

>  <name>  (68) 
67

>  <ligand_id>  (68) 
67

>  <original_smiles>  (68) 
[H]c1c([H])c([H])c2c(c1[H])C([H])([H])C([H])([H])C([H])([H])C2([H])N([H])C(=O)C1([H])N(C(=O)C([H])(N([H])C(=O)C([H])(N([H])C([H])([H])[H])C([H])([H])[H])C(C([H])([H])[H])(C([H])([H])[H])C([H])([H])[H])C([H])([H])c2c([H])c(OC([H])([H])C([H])([H])C([H])([H])C(=O)N(C([H])([H])[H])C([H])([H])C([H])([H])Oc3c([H])c(N([H])[H])c(N([H])[H])c([H])c3N([H])C(=O)N3C([H])([H])C([H])([H])C([H])([H])C([H])(n4nc(-c5c([H])c([H])c(Oc6c([H])c([H])c(F)c([H])c6F)c([H])c5[H])c(C(=O)N([H])[H])c4N([H])[H])C3([H])[H])c([H])c([H])c2C1([H])[H]

>  <smiles>  (68) 
[H]c1c([H])c([H])c2c(c1[H])C([H])([H])C([H])([H])C([H])([H])C2([H])N([H])C(=O)C1([H])N(C(=O)C([H])(N([H])C(=O)C([H])(N([H])C([H])([H])[H])C([H])([H])[H])C(C([H])([H])[H])(C([H])([H])[H])C([H])([H])[H])C([H])([H])c2c([H])c(OC([H])([H])C([H])([H])C([H])([H])C(=O)N(C([H])([H])[H])C([H])([H])C([H])([H])Oc3c([H])c(N([H])[H])c(N([H])[H])c([H])c3N([H])C(=O)N3C([H])([H])C([H])([H])C([H])([H])C([H])(n4nc(-c5c([H])c([H])c(Oc6c([H])c([H])c(F)c([H])c6F)c([H])c5[H])c(C(=O)N([H])[H])c4N([H])[H])C3([H])[H])c([H])c([H])c2C1([H])[H]

$$$$
68:0:0
     RDKit          3D

 98107  0  0  1  0  0  0  0  0999 V2000
  -29.6790  -23.6970   18.9950 C   0  0  0  0  0  3  0  0  0  0  0  0
  -28.8370  -23.8540   20.1350 C   0  0  0  0  0  0  0  0  0  0  0  0
  -30.0540  -22.3780   18.8850 C   0  0  0  0  0  0  0  0  0  0  0  0
  -28.7770  -22.5600   20.6630 C   0  0  0  0  0  0  0  0  0  0  0  0
  -29.5130  -21.6040   19.9150 N   0  0  0  0  0  0  0  0  0  0  0  0
  -30.9340  -19.4810   20.0350 C   0  0  0  0  0  3  0  0  0  0  0  0
  -31.0820  -18.0600   20.1590 C   0  0  0  0  0  3  0  0  0  0  0  0
  -28.5660  -19.2870   20.3530 C   0  0  0  0  0  3  0  0  0  0  0  0
  -29.6730  -20.1470   20.1110 C   0  0  0  0  0  0  0  0  0  0  0  0
  -29.9620  -17.2140   20.3860 C   0  0  0  0  0  0  0  0  0  0  0  0
  -28.7080  -17.8730   20.5000 C   0  0  0  0  0  0  0  0  0  0  0  0
  -30.7580  -14.7400   20.0230 C   0  0  0  0  0  0  0  0  0  0  0  0
  -30.5230  -12.5290   18.8990 C   0  0  0  0  0  2  0  0  0  0  0  0
  -29.4950  -12.6830   17.7540 C   0  0  0  0  0  2  0  0  0  0  0  0
  -28.0560  -12.4860   18.2740 C   0  0  0  0  0  2  0  0  0  0  0  0
  -27.7700  -13.2980   19.5660 C   0  0  0  0  0  3  0  0  0  0  0  0
  -28.9030  -13.1150   20.6000 C   0  0  0  0  0  2  0  0  0  0  0  0
  -30.1660  -13.5040   19.9500 N   0  0  0  0  0  0  0  0  0  0  0  0
  -31.8860  -14.9380   19.5600 O   0  0  0  0  0  0  0  0  0  0  0  0
  -29.9600  -15.7500   20.4930 N   0  0  0  0  0  0  0  0  0  0  0  0
  -29.0780  -15.4120   20.8430 H   0  0  0  0  0  0  0  0  0  0  0  0
  -25.4190  -13.8340   20.4580 C   0  0  0  0  0  0  0  0  0  0  0  0
  -24.3860  -13.0330   20.8600 C   0  0  0  0  0  0  0  0  0  0  0  0
  -24.8610  -11.6910   20.7470 C   0  0  0  0  0  0  0  0  0  0  0  0
  -26.4590  -12.9790   20.1270 N   0  0  0  0  0  0  0  0  0  0  0  0
  -26.1300  -11.6820   20.3570 N   0  0  0  0  0  0  0  0  0  0  0  0
  -24.1610  -10.4140   20.9350 C   0  0  0  0  0  0  0  0  0  0  0  0
  -24.5750   -9.4800   21.9100 C   0  0  0  0  0  3  0  0  0  0  0  0
  -23.8730   -8.2670   22.0840 C   0  0  0  0  0  3  0  0  0  0  0  0
  -22.7430   -7.9800   21.2810 C   0  0  0  0  0  0  0  0  0  0  0  0
  -22.3490   -8.9030   20.2970 C   0  0  0  0  0  3  0  0  0  0  0  0
  -23.0520  -10.1070   20.1220 C   0  0  0  0  0  3  0  0  0  0  0  0
  -22.0160   -6.8170   21.3600 O   0  0  0  0  0  0  0  0  0  0  0  0
  -21.8240   -6.1690   22.5530 C   0  0  0  0  0  0  0  0  0  0  0  0
  -21.1870   -6.7930   23.6470 C   0  0  0  0  0  3  0  0  0  0  0  0
  -20.9480   -6.0680   24.8310 C   0  0  0  0  0  3  0  0  0  0  0  0
  -21.3360   -4.7170   24.9200 C   0  0  0  0  0  0  0  0  0  0  0  0
  -21.9660   -4.0920   23.8310 C   0  0  0  0  0  3  0  0  0  0  0  0
  -22.2070   -4.8150   22.6490 C   0  0  0  0  0  0  0  0  0  0  0  0
  -22.7950   -4.2010   21.5950 F   0  0  0  0  0  0  0  0  0  0  0  0
  -21.0990   -4.0180   26.0550 F   0  0  0  0  0  0  0  0  0  0  0  0
  -23.0050  -13.4820   21.2450 C   0  0  0  0  0  0  0  0  0  0  0  0
  -22.3440  -12.7440   22.1300 N   0  0  0  0  0  0  0  0  0  0  0  0
  -22.5250  -14.5240   20.8000 O   0  0  0  0  0  0  0  0  0  0  0  0
  -22.7480  -11.9020   22.5110 H   0  0  0  0  0  0  0  0  0  0  0  0
  -21.4220  -13.0270   22.4300 H   0  0  0  0  0  0  0  0  0  0  0  0
  -25.5500  -15.2130   20.3350 N   0  0  0  0  0  0  0  0  0  0  0  0
  -24.7920  -15.8330   20.5970 H   0  0  0  0  0  0  0  0  0  0  0  0
  -26.4350  -15.7100   20.2520 H   0  0  0  0  0  0  0  0  0  0  0  0
  -27.5750  -17.1010   20.7650 N   0  0  0  0  0  0  0  0  0  0  0  0
  -26.7270  -17.6320   20.9320 H   0  0  0  0  0  0  0  0  0  0  0  0
  -27.6900  -16.4220   21.5100 H   0  0  0  0  0  0  0  0  0  0  0  0
  -30.8260  -21.8150   17.9140 O   0  0  0  0  0  0  0  0  0  0  0  0
  -31.0860  -22.5060   17.3120 H   0  0  0  0  0  0  0  0  0  0  0  0
  -28.1050  -22.1530   21.7780 O   0  0  0  0  0  0  0  0  0  0  0  0
  -27.7030  -22.9130   22.1810 H   0  0  0  0  0  0  0  0  0  0  0  0
  -28.1230  -25.1630   20.6440 C   0  0  0  0  0  2  0  0  0  0  0  0
  -28.3550  -26.4830   20.0040 O   0  0  0  0  0  0  0  0  0  0  0  0
  -24.6140  -31.8520   23.0990 C   0  0  0  0  0  0  0  0  0  0  0  0
  -27.2540  -27.3530   19.9910 C   0  0  0  0  0  0  0  0  0  0  0  0
  -23.4220  -30.4770   21.4300 C   0  0  0  0  0  3  0  0  0  0  0  0
  -24.8850  -28.9530   19.9870 C   0  0  0  0  0  0  0  0  0  0  0  0
  -25.9600  -30.8070   21.2640 C   0  0  0  0  0  2  0  0  0  0  0  0
  -26.0500  -29.4390   20.5980 C   0  0  0  0  0  0  0  0  0  0  0  0
  -27.2400  -28.6500   20.5900 C   0  0  0  0  0  3  0  0  0  0  0  0
  -26.0720  -26.9230   19.3510 C   0  0  0  0  0  3  0  0  0  0  0  0
  -24.8990  -27.7000   19.3540 C   0  0  0  0  0  3  0  0  0  0  0  0
  -23.6450  -29.8220   20.0410 C   0  0  0  0  0  2  0  0  0  0  0  0
  -24.6830  -31.0610   21.9880 N   0  0  0  0  0  0  0  0  0  0  0  0
  -23.5270  -32.1190   23.6320 O   0  0  0  0  0  0  0  0  0  0  0  0
  -22.7550  -29.4450   22.3700 C   0  0  0  0  0  0  0  0  0  0  0  0
  -21.4280  -29.2780   22.2430 N   0  0  0  0  0  0  0  0  0  0  0  0
  -23.4320  -28.7980   23.1750 O   0  0  0  0  0  0  0  0  0  0  0  0
  -20.9410  -29.8500   21.5680 H   0  0  0  0  0  0  0  0  0  0  0  0
  -18.0400  -28.1150   22.7480 C   0  0  0  0  0  0  0  0  0  0  0  0
  -20.6050  -28.3310   22.9960 C   0  0  0  0  0  3  0  0  0  0  0  0
  -20.6810  -26.9140   22.3790 C   0  0  0  0  0  2  0  0  0  0  0  0
  -19.5630  -26.6370   21.3690 C   0  0  0  0  0  2  0  0  0  0  0  0
  -18.1900  -26.7820   22.0330 C   0  0  0  0  0  2  0  0  0  0  0  0
  -19.1740  -28.8490   23.1860 C   0  0  0  0  0  0  0  0  0  0  0  0
  -18.9790  -30.0970   23.8160 C   0  0  0  0  0  3  0  0  0  0  0  0
  -17.6830  -30.6110   24.0100 C   0  0  0  0  0  3  0  0  0  0  0  0
  -16.5630  -29.8730   23.5870 C   0  0  0  0  0  3  0  0  0  0  0  0
  -16.7430  -28.6260   22.9620 C   0  0  0  0  0  3  0  0  0  0  0  0
  -25.8920  -32.4770   23.7370 C   0  0  0  0  0  3  0  0  0  0  0  0
  -25.5710  -33.8610   24.1130 N   0  0  0  0  0  0  0  0  0  0  0  0
  -25.9070  -34.9420   23.3970 C   0  0  0  0  0  0  0  0  0  0  0  0
  -26.5900  -34.8790   22.3700 O   0  0  0  0  0  0  0  0  0  0  0  0
  -24.9660  -33.9830   24.9120 H   0  0  0  0  0  0  0  0  0  0  0  0
  -24.1910  -36.7510   23.0680 C   0  0  0  0  0  1  0  0  0  0  0  0
  -25.4070  -36.3110   23.8980 C   0  0  0  0  0  3  0  0  0  0  0  0
  -27.5120  -37.1620   24.8360 C   0  0  0  0  0  1  0  0  0  0  0  0
  -26.4440  -37.3660   23.8600 N   0  0  0  0  0  0  0  0  0  0  0  0
  -26.0330  -38.2800   24.0260 H   0  0  0  0  0  0  0  0  0  0  0  0
  -26.4190  -31.6690   24.9880 C   0  0  1  0  0  0  0  0  0  0  0  0
  -25.3290  -31.3850   26.0480 C   0  0  0  0  0  1  0  0  0  0  0  0
  -27.0170  -30.3130   24.5510 C   0  0  0  0  0  1  0  0  0  0  0  0
  -27.5600  -32.4550   25.6750 C   0  0  0  0  0  1  0  0  0  0  0  0
  1  2  1  0
  2 57  1  0
  2  4  2  0
  3  1  2  0
  3  5  1  0
  4 55  1  0
  5  9  1  0
  5  4  1  0
  6  9  2  0
  6  7  1  0
  7 10  2  0
  8 11  2  0
  9  8  1  0
 10 20  1  0
 10 11  1  0
 11 50  1  0
 12 20  1  0
 13 18  1  0
 14 15  1  0
 14 13  1  0
 16 15  1  0
 16 25  1  0
 16 17  1  0
 18 12  1  0
 18 17  1  0
 19 12  2  0
 20 21  1  0
 22 23  2  0
 23 42  1  0
 24 23  1  0
 24 27  1  0
 25 26  1  0
 25 22  1  0
 26 24  2  0
 27 28  1  0
 28 29  2  0
 30 33  1  0
 30 29  1  0
 31 30  2  0
 32 31  1  0
 32 27  2  0
 33 34  1  0
 34 39  2  0
 34 35  1  0
 35 36  2  0
 36 37  1  0
 37 41  1  0
 38 37  2  0
 39 38  1  0
 40 39  1  0
 42 43  1  0
 43 46  1  0
 43 45  1  0
 44 42  2  0
 47 22  1  0
 47 48  1  0
 49 47  1  0
 50 51  1  0
 50 52  1  0
 53  3  1  0
 54 53  1  0
 55 56  1  0
 58 57  1  0
 59 70  2  0
 60 58  1  0
 60 65  1  0
 61 69  1  0
 61 71  1  0
 62 68  1  0
 62 64  1  0
 63 69  1  0
 64 63  1  0
 65 64  2  0
 66 67  1  0
 66 60  2  0
 67 62  2  0
 68 61  1  0
 69 59  1  0
 71 73  2  0
 72 71  1  0
 74 72  1  0
 75 84  2  0
 75 80  1  0
 76 72  1  0
 76 80  1  0
 77 76  1  0
 78 79  1  0
 78 77  1  0
 79 75  1  0
 80 81  2  0
 81 82  1  0
 83 82  2  0
 84 83  1  0
 85 59  1  0
 85 86  1  0
 85 95  1  0
 86 89  1  0
 87 91  1  0
 87 86  1  0
 88 87  2  0
 91 90  1  0
 93 91  1  0
 93 94  1  0
 93 92  1  0
 95 98  1  1
 95 96  1  0
 97 95  1  0
M  ISO  4  12 100  20 100  57 101  58 101
M  END
>  <TORSDO>  (69) 
F 21

>  <SCORE>  (69) 
-13.657

>  <name>  (69) 
68

>  <ligand_id>  (69) 
68

>  <original_smiles>  (69) 
[H]Oc1c([H])c(C([H])([H])Oc2c([H])c([H])c3c(c2[H])C([H])([H])N(C(=O)C([H])(N([H])C(=O)C([H])(N([H])C([H])([H])[H])C([H])([H])[H])C(C([H])([H])[H])(C([H])([H])[H])C([H])([H])[H])C([H])(C(=O)N([H])C2([H])c4c([H])c([H])c([H])c([H])c4C([H])([H])C([H])([H])C2([H])[H])C3([H])[H])c(O[H])n1-c1c([H])c([H])c(N([H])C(=O)N2C([H])([H])C([H])([H])C([H])([H])C([H])(n3nc(-c4c([H])c([H])c(Oc5c([H])c([H])c(F)c([H])c5F)c([H])c4[H])c(C(=O)N([H])[H])c3N([H])[H])C2([H])[H])c(N([H])[H])c1[H]

>  <smiles>  (69) 
[H]Oc1c([H])c(C([H])([H])Oc2c([H])c([H])c3c(c2[H])C([H])([H])N(C(=O)C([H])(N([H])C(=O)C([H])(N([H])C([H])([H])[H])C([H])([H])[H])C(C([H])([H])[H])(C([H])([H])[H])C([H])([H])[H])C([H])(C(=O)N([H])C2([H])c4c([H])c([H])c([H])c([H])c4C([H])([H])C([H])([H])C2([H])[H])C3([H])[H])c(O[H])n1-c1c([H])c([H])c(N([H])C(=O)N2C([H])([H])C([H])([H])C([H])([H])C([H])(n3nc(-c4c([H])c([H])c(Oc5c([H])c([H])c(F)c([H])c5F)c([H])c4[H])c(C(=O)N([H])[H])c3N([H])[H])C2([H])[H])c(N([H])[H])c1[H]

$$$$
69:0:0
     RDKit          3D

 97106  0  0  1  0  0  0  0  0999 V2000
  -28.2170  -24.2170   21.5410 C   0  0  0  0  0  3  0  0  0  0  0  0
  -28.5900  -24.2840   20.1630 C   0  0  0  0  0  0  0  0  0  0  0  0
  -28.4060  -22.9290   21.9710 C   0  0  0  0  0  0  0  0  0  0  0  0
  -28.9490  -22.9970   19.8300 C   0  0  0  0  0  0  0  0  0  0  0  0
  -28.8730  -22.1430   20.9280 N   0  0  0  0  0  0  0  0  0  0  0  0
  -30.9710  -19.1280   21.6600 C   0  0  0  0  0  3  0  0  0  0  0  0
  -29.1530  -18.4380   20.2080 C   0  0  0  0  0  3  0  0  0  0  0  0
  -30.4500  -20.4370   21.7080 C   0  0  0  0  0  3  0  0  0  0  0  0
  -28.6240  -19.7540   20.2620 C   0  0  0  0  0  3  0  0  0  0  0  0
  -30.3490  -18.1100   20.8950 C   0  0  0  0  0  0  0  0  0  0  0  0
  -29.2880  -20.7750   20.9850 C   0  0  0  0  0  0  0  0  0  0  0  0
  -30.8990  -14.5670   19.8240 C   0  0  0  0  0  0  0  0  0  0  0  0
  -30.3880  -12.4190   18.7210 C   0  0  0  0  0  2  0  0  0  0  0  0
  -29.3520  -12.6320   17.6050 C   0  0  0  0  0  2  0  0  0  0  0  0
  -27.9310  -12.4840   18.1770 C   0  0  0  0  0  2  0  0  0  0  0  0
  -27.7140  -13.3240   19.4650 C   0  0  0  0  0  3  0  0  0  0  0  0
  -28.8790  -13.1620   20.4680 C   0  0  0  0  0  2  0  0  0  0  0  0
  -30.1340  -13.4380   19.7570 N   0  0  0  0  0  0  0  0  0  0  0  0
  -31.9660  -14.6240   19.2070 O   0  0  0  0  0  0  0  0  0  0  0  0
  -31.0830  -16.8000   20.6830 C   0  0  0  0  0  0  0  0  0  0  0  0
  -30.3850  -15.6600   20.4430 N   0  0  0  0  0  0  0  0  0  0  0  0
  -32.3190  -16.8370   20.7670 O   0  0  0  0  0  0  0  0  0  0  0  0
  -29.4100  -15.6600   20.6840 H   0  0  0  0  0  0  0  0  0  0  0  0
  -25.4260  -13.8990   20.4820 C   0  0  0  0  0  0  0  0  0  0  0  0
  -24.3940  -13.1160   20.9220 C   0  0  0  0  0  0  0  0  0  0  0  0
  -24.8290  -11.7630   20.7620 C   0  0  0  0  0  0  0  0  0  0  0  0
  -26.4240  -13.0250   20.0810 N   0  0  0  0  0  0  0  0  0  0  0  0
  -26.0760  -11.7320   20.3080 N   0  0  0  0  0  0  0  0  0  0  0  0
  -24.1060  -10.5000   20.9600 C   0  0  0  0  0  0  0  0  0  0  0  0
  -24.5520   -9.5310   21.8870 C   0  0  0  0  0  3  0  0  0  0  0  0
  -23.8300   -8.3330   22.0760 C   0  0  0  0  0  3  0  0  0  0  0  0
  -22.6470   -8.0940   21.3360 C   0  0  0  0  0  0  0  0  0  0  0  0
  -22.2210   -9.0500   20.3970 C   0  0  0  0  0  3  0  0  0  0  0  0
  -22.9440  -10.2400   20.2070 C   0  0  0  0  0  3  0  0  0  0  0  0
  -21.8940   -6.9490   21.4330 O   0  0  0  0  0  0  0  0  0  0  0  0
  -21.7670   -6.2680   22.6180 C   0  0  0  0  0  0  0  0  0  0  0  0
  -21.2400   -6.8800   23.7750 C   0  0  0  0  0  3  0  0  0  0  0  0
  -21.0630   -6.1240   24.9530 C   0  0  0  0  0  3  0  0  0  0  0  0
  -21.4050   -4.7590   24.9720 C   0  0  0  0  0  0  0  0  0  0  0  0
  -21.9240   -4.1470   23.8180 C   0  0  0  0  0  3  0  0  0  0  0  0
  -22.1040   -4.9000   22.6430 C   0  0  0  0  0  0  0  0  0  0  0  0
  -22.5860   -4.2990   21.5290 F   0  0  0  0  0  0  0  0  0  0  0  0
  -21.2280   -4.0320   26.0990 F   0  0  0  0  0  0  0  0  0  0  0  0
  -23.0450  -13.5890   21.3770 C   0  0  0  0  0  0  0  0  0  0  0  0
  -22.4170  -12.8630   22.2970 N   0  0  0  0  0  0  0  0  0  0  0  0
  -22.5590  -14.6380   20.9550 O   0  0  0  0  0  0  0  0  0  0  0  0
  -22.8230  -12.0120   22.6570 H   0  0  0  0  0  0  0  0  0  0  0  0
  -21.5160  -13.1610   22.6440 H   0  0  0  0  0  0  0  0  0  0  0  0
  -25.5960  -15.2750   20.3670 N   0  0  0  0  0  0  0  0  0  0  0  0
  -24.8670  -15.9380   20.6080 H   0  0  0  0  0  0  0  0  0  0  0  0
  -26.4270  -15.7180   19.9980 H   0  0  0  0  0  0  0  0  0  0  0  0
  -28.2220  -22.4020   23.2140 O   0  0  0  0  0  0  0  0  0  0  0  0
  -27.8850  -23.0890   23.7800 H   0  0  0  0  0  0  0  0  0  0  0  0
  -29.3950  -22.5310   18.6290 O   0  0  0  0  0  0  0  0  0  0  0  0
  -29.5790  -21.6040   18.7300 H   0  0  0  0  0  0  0  0  0  0  0  0
  -28.6350  -25.5090   19.2470 C   0  0  0  0  0  2  0  0  0  0  0  0
  -28.4580  -26.7940   19.8810 O   0  0  0  0  0  0  0  0  0  0  0  0
  -24.5150  -31.7680   23.0880 C   0  0  0  0  0  0  0  0  0  0  0  0
  -27.2430  -27.4600   19.8750 C   0  0  0  0  0  0  0  0  0  0  0  0
  -23.3230  -30.3730   21.4250 C   0  0  0  0  0  3  0  0  0  0  0  0
  -24.8000  -28.9090   19.9460 C   0  0  0  0  0  0  0  0  0  0  0  0
  -25.8320  -30.8100   21.1960 C   0  0  0  0  0  2  0  0  0  0  0  0
  -25.9490  -29.4510   20.5310 C   0  0  0  0  0  0  0  0  0  0  0  0
  -27.1690  -28.7340   20.4940 C   0  0  0  0  0  3  0  0  0  0  0  0
  -26.0690  -26.9340   19.2860 C   0  0  0  0  0  3  0  0  0  0  0  0
  -24.8580  -27.6520   19.3180 C   0  0  0  0  0  3  0  0  0  0  0  0
  -23.5320  -29.7290   20.0280 C   0  0  0  0  0  2  0  0  0  0  0  0
  -24.5760  -30.9990   21.9630 N   0  0  0  0  0  0  0  0  0  0  0  0
  -23.4350  -31.9940   23.6530 O   0  0  0  0  0  0  0  0  0  0  0  0
  -22.7140  -29.3130   22.3710 C   0  0  0  0  0  0  0  0  0  0  0  0
  -21.3950  -29.0900   22.2530 N   0  0  0  0  0  0  0  0  0  0  0  0
  -23.4260  -28.6940   23.1670 O   0  0  0  0  0  0  0  0  0  0  0  0
  -20.8790  -29.6440   21.5850 H   0  0  0  0  0  0  0  0  0  0  0  0
  -18.0720  -27.7640   22.7490 C   0  0  0  0  0  0  0  0  0  0  0  0
  -20.6200  -28.1090   23.0110 C   0  0  0  0  0  3  0  0  0  0  0  0
  -20.7720  -26.6930   22.4080 C   0  0  0  0  0  2  0  0  0  0  0  0
  -19.6770  -26.3530   21.3940 C   0  0  0  0  0  2  0  0  0  0  0  0
  -18.2940  -26.4350   22.0470 C   0  0  0  0  0  2  0  0  0  0  0  0
  -19.1650  -28.5570   23.1880 C   0  0  0  0  0  0  0  0  0  0  0  0
  -18.9050  -29.8000   23.8040 C   0  0  0  0  0  3  0  0  0  0  0  0
  -17.5860  -30.2510   23.9880 C   0  0  0  0  0  3  0  0  0  0  0  0
  -16.5070  -29.4560   23.5640 C   0  0  0  0  0  3  0  0  0  0  0  0
  -16.7510  -28.2140   22.9510 C   0  0  0  0  0  3  0  0  0  0  0  0
  -25.7910  -32.4220   23.7040 C   0  0  0  0  0  3  0  0  0  0  0  0
  -26.3520  -31.6330   24.9510 C   0  0  1  0  0  0  0  0  0  0  0  0
  -25.2860  -31.3250   26.0280 C   0  0  0  0  0  1  0  0  0  0  0  0
  -26.9690  -30.2870   24.5060 C   0  0  0  0  0  1  0  0  0  0  0  0
  -27.4930  -32.4390   25.6190 C   0  0  0  0  0  1  0  0  0  0  0  0
  -25.4500  -33.8020   24.0750 N   0  0  0  0  0  0  0  0  0  0  0  0
  -25.7390  -34.8830   23.3370 C   0  0  0  0  0  0  0  0  0  0  0  0
  -26.3950  -34.8260   22.2940 O   0  0  0  0  0  0  0  0  0  0  0  0
  -24.8630  -33.9190   24.8890 H   0  0  0  0  0  0  0  0  0  0  0  0
  -23.9590  -36.6380   23.0470 C   0  0  0  0  0  1  0  0  0  0  0  0
  -25.2170  -36.2450   23.8370 C   0  0  0  0  0  3  0  0  0  0  0  0
  -27.3290  -37.1710   24.6770 C   0  0  0  0  0  1  0  0  0  0  0  0
  -26.2180  -37.3300   23.7440 N   0  0  0  0  0  0  0  0  0  0  0  0
  -25.7850  -38.2340   23.9170 H   0  0  0  0  0  0  0  0  0  0  0  0
  1  3  2  0
  2  1  1  0
  3 52  1  0
  4  2  2  0
  4  5  1  0
  5 11  1  0
  5  3  1  0
  6  8  1  0
  7  9  2  0
  7 10  1  0
  9 11  1  0
 10  6  2  0
 11  8  2  0
 12 21  1  0
 13 18  1  0
 14 15  1  0
 14 13  1  0
 16 15  1  0
 16 27  1  0
 16 17  1  0
 18 12  1  0
 18 17  1  0
 19 12  2  0
 20 22  2  0
 20 10  1  0
 21 20  1  0
 21 23  1  0
 24 25  2  0
 25 44  1  0
 26 25  1  0
 26 29  1  0
 27 28  1  0
 27 24  1  0
 28 26  2  0
 29 30  1  0
 30 31  2  0
 32 35  1  0
 32 31  1  0
 33 32  2  0
 34 33  1  0
 34 29  2  0
 35 36  1  0
 36 41  2  0
 36 37  1  0
 37 38  2  0
 38 39  1  0
 39 43  1  0
 40 39  2  0
 41 40  1  0
 42 41  1  0
 44 45  1  0
 45 48  1  0
 45 47  1  0
 46 44  2  0
 49 24  1  0
 49 50  1  0
 51 49  1  0
 52 53  1  0
 54 55  1  0
 54  4  1  0
 56 57  1  0
 56  2  1  0
 58 69  2  0
 59 57  1  0
 59 64  1  0
 60 68  1  0
 60 70  1  0
 61 67  1  0
 61 63  1  0
 62 68  1  0
 63 62  1  0
 64 63  2  0
 65 66  1  0
 65 59  2  0
 66 61  2  0
 67 60  1  0
 68 58  1  0
 70 72  2  0
 71 70  1  0
 73 71  1  0
 74 83  2  0
 74 79  1  0
 75 71  1  0
 75 79  1  0
 76 75  1  0
 77 78  1  0
 77 76  1  0
 78 74  1  0
 79 80  2  0
 80 81  1  0
 82 81  2  0
 83 82  1  0
 84 58  1  0
 84 89  1  0
 84 85  1  0
 85 88  1  1
 85 86  1  0
 87 85  1  0
 89 92  1  0
 90 94  1  0
 90 89  1  0
 91 90  2  0
 94 93  1  0
 96 94  1  0
 96 97  1  0
 96 95  1  0
M  ISO  4  12 100  21 100  56 101  57 101
M  END
>  <TORSDO>  (70) 
F 20

>  <SCORE>  (70) 
-13.339

>  <name>  (70) 
69

>  <ligand_id>  (70) 
69

>  <original_smiles>  (70) 
[H]Oc1c([H])c(C([H])([H])Oc2c([H])c([H])c3c(c2[H])C([H])([H])N(C(=O)C([H])(N([H])C(=O)C([H])(N([H])C([H])([H])[H])C([H])([H])[H])C(C([H])([H])[H])(C([H])([H])[H])C([H])([H])[H])C([H])(C(=O)N([H])C2([H])c4c([H])c([H])c([H])c([H])c4C([H])([H])C([H])([H])C2([H])[H])C3([H])[H])c(O[H])n1-c1c([H])c([H])c(C(=O)N([H])C(=O)N2C([H])([H])C([H])([H])C([H])([H])C([H])(n3nc(-c4c([H])c([H])c(Oc5c([H])c([H])c(F)c([H])c5F)c([H])c4[H])c(C(=O)N([H])[H])c3N([H])[H])C2([H])[H])c([H])c1[H]

>  <smiles>  (70) 
[H]Oc1c([H])c(C([H])([H])Oc2c([H])c([H])c3c(c2[H])C([H])([H])N(C(=O)C([H])(N([H])C(=O)C([H])(N([H])C([H])([H])[H])C([H])([H])[H])C(C([H])([H])[H])(C([H])([H])[H])C([H])([H])[H])C([H])(C(=O)N([H])C2([H])c4c([H])c([H])c([H])c([H])c4C([H])([H])C([H])([H])C2([H])[H])C3([H])[H])c(O[H])n1-c1c([H])c([H])c(C(=O)N([H])C(=O)N2C([H])([H])C([H])([H])C([H])([H])C([H])(n3nc(-c4c([H])c([H])c(Oc5c([H])c([H])c(F)c([H])c5F)c([H])c4[H])c(C(=O)N([H])[H])c3N([H])[H])C2([H])[H])c([H])c1[H]

$$$$
70:0:0
     RDKit          3D

 96105  0  0  1  0  0  0  0  0999 V2000
  -31.2260  -18.8480   23.2890 C   0  0  0  0  0  3  0  0  0  0  0  0
  -30.9250  -20.1380   22.7920 C   0  0  0  0  0  3  0  0  0  0  0  0
  -31.0660  -17.6880   22.5040 C   0  0  0  0  0  3  0  0  0  0  0  0
  -30.4650  -20.3410   21.4690 C   0  0  0  0  0  0  0  0  0  0  0  0
  -30.6020  -17.7650   21.1790 C   0  0  0  0  0  0  0  0  0  0  0  0
  -30.3310  -19.1240   20.6770 C   0  0  0  0  0  0  0  0  0  0  0  0
  -29.8770  -19.2630   19.4140 F   0  0  0  0  0  0  0  0  0  0  0  0
  -31.0000  -15.2640   20.4650 C   0  0  0  0  0  0  0  0  0  0  0  0
  -30.8450  -13.0160   19.3270 C   0  0  0  0  0  2  0  0  0  0  0  0
  -29.8960  -13.0510   18.1100 C   0  0  0  0  0  2  0  0  0  0  0  0
  -28.4390  -12.7770   18.5440 C   0  0  0  0  0  2  0  0  0  0  0  0
  -28.0180  -13.5900   19.7950 C   0  0  0  0  0  3  0  0  0  0  0  0
  -29.1050  -13.5830   20.8980 C   0  0  0  0  0  2  0  0  0  0  0  0
  -30.3640  -14.0400   20.2830 N   0  0  0  0  0  0  0  0  0  0  0  0
  -32.2270  -15.2960   20.3300 O   0  0  0  0  0  0  0  0  0  0  0  0
  -29.1460  -16.6380   19.7450 C   0  0  0  0  0  0  0  0  0  0  0  0
  -30.2850  -16.4910   20.4480 N   0  0  0  0  0  0  0  0  0  0  0  0
  -28.0920  -16.9480   20.3130 O   0  0  0  0  0  0  0  0  0  0  0  0
  -25.6170  -14.1010   20.5320 C   0  0  0  0  0  0  0  0  0  0  0  0
  -24.5770  -13.2830   20.8690 C   0  0  0  0  0  0  0  0  0  0  0  0
  -25.0990  -11.9560   20.8250 C   0  0  0  0  0  0  0  0  0  0  0  0
  -26.6980  -13.2610   20.2950 N   0  0  0  0  0  0  0  0  0  0  0  0
  -26.3940  -11.9680   20.5390 N   0  0  0  0  0  0  0  0  0  0  0  0
  -24.4300  -10.6650   20.9780 C   0  0  0  0  0  0  0  0  0  0  0  0
  -24.7990   -9.7630   22.0000 C   0  0  0  0  0  3  0  0  0  0  0  0
  -24.1270   -8.5320   22.1370 C   0  0  0  0  0  3  0  0  0  0  0  0
  -23.0760   -8.1960   21.2510 C   0  0  0  0  0  0  0  0  0  0  0  0
  -22.7280   -9.0900   20.2230 C   0  0  0  0  0  3  0  0  0  0  0  0
  -23.4020  -10.3120   20.0830 C   0  0  0  0  0  3  0  0  0  0  0  0
  -22.3860   -7.0110   21.2940 O   0  0  0  0  0  0  0  0  0  0  0  0
  -22.1250   -6.3750   22.4810 C   0  0  0  0  0  0  0  0  0  0  0  0
  -21.3590   -6.9790   23.5000 C   0  0  0  0  0  3  0  0  0  0  0  0
  -21.0600   -6.2620   24.6760 C   0  0  0  0  0  3  0  0  0  0  0  0
  -21.5190   -4.9410   24.8320 C   0  0  0  0  0  0  0  0  0  0  0  0
  -22.2780   -4.3360   23.8160 C   0  0  0  0  0  3  0  0  0  0  0  0
  -22.5790   -5.0510   22.6430 C   0  0  0  0  0  0  0  0  0  0  0  0
  -23.2950   -4.4560   21.6580 F   0  0  0  0  0  0  0  0  0  0  0  0
  -21.2260   -4.2480   25.9570 F   0  0  0  0  0  0  0  0  0  0  0  0
  -23.1590  -13.7050   21.1260 C   0  0  0  0  0  0  0  0  0  0  0  0
  -22.4440  -12.9810   21.9790 N   0  0  0  0  0  0  0  0  0  0  0  0
  -22.6900  -14.7160   20.6020 O   0  0  0  0  0  0  0  0  0  0  0  0
  -22.8260  -12.1640   22.4300 H   0  0  0  0  0  0  0  0  0  0  0  0
  -21.4960  -13.2590   22.1950 H   0  0  0  0  0  0  0  0  0  0  0  0
  -25.7080  -15.4780   20.3830 N   0  0  0  0  0  0  0  0  0  0  0  0
  -24.9050  -16.0850   20.5000 H   0  0  0  0  0  0  0  0  0  0  0  0
  -26.5700  -15.9990   20.2090 H   0  0  0  0  0  0  0  0  0  0  0  0
  -28.2590  -16.8700   17.4940 C   0  0  0  0  0  2  0  0  0  0  0  0
  -29.2790  -16.5140   18.2960 C   0  0  0  0  0  3  0  0  0  0  0  0
  -30.2270  -22.2590   19.7750 C   0  0  0  0  0  0  0  0  0  0  0  0
  -29.7110  -23.7100   19.6750 C   0  0  0  0  0  2  0  0  0  0  0  0
  -29.6920  -22.8760   21.9010 C   0  0  0  0  0  2  0  0  0  0  0  0
  -29.7520  -24.2540   21.1050 C   0  0  0  0  0  3  0  0  0  0  0  0
  -30.1360  -21.7370   21.0210 N   0  0  0  0  0  0  0  0  0  0  0  0
  -30.7090  -21.7090   18.7840 O   0  0  0  0  0  0  0  0  0  0  0  0
  -28.7160  -25.4420   21.4520 C   0  0  0  0  0  2  0  0  0  0  0  0
  -28.8660  -26.8140   20.8830 O   0  0  0  0  0  0  0  0  0  0  0  0
  -24.7800  -32.1730   23.5280 C   0  0  0  0  0  0  0  0  0  0  0  0
  -27.7190  -27.6230   20.7740 C   0  0  0  0  0  0  0  0  0  0  0  0
  -23.7200  -30.6950   21.8550 C   0  0  0  0  0  3  0  0  0  0  0  0
  -25.3050  -29.1530   20.5600 C   0  0  0  0  0  0  0  0  0  0  0  0
  -26.2510  -31.0960   21.8080 C   0  0  0  0  0  2  0  0  0  0  0  0
  -26.4180  -29.7020   21.2100 C   0  0  0  0  0  0  0  0  0  0  0  0
  -27.6300  -28.9510   21.2980 C   0  0  0  0  0  3  0  0  0  0  0  0
  -26.5860  -27.1260   20.0910 C   0  0  0  0  0  3  0  0  0  0  0  0
  -25.3940  -27.8750   19.9840 C   0  0  0  0  0  3  0  0  0  0  0  0
  -24.0340  -29.9800   20.5130 C   0  0  0  0  0  2  0  0  0  0  0  0
  -24.9320  -31.3420   22.4560 N   0  0  0  0  0  0  0  0  0  0  0  0
  -23.6590  -32.4260   23.9920 O   0  0  0  0  0  0  0  0  0  0  0  0
  -23.0290  -29.6880   22.8050 C   0  0  0  0  0  0  0  0  0  0  0  0
  -21.7310  -29.4260   22.5680 N   0  0  0  0  0  0  0  0  0  0  0  0
  -23.6630  -29.1400   23.7100 O   0  0  0  0  0  0  0  0  0  0  0  0
  -21.2850  -29.9060   21.7990 H   0  0  0  0  0  0  0  0  0  0  0  0
  -18.3970  -28.0480   22.8210 C   0  0  0  0  0  0  0  0  0  0  0  0
  -20.8990  -28.4790   23.3090 C   0  0  0  0  0  3  0  0  0  0  0  0
  -21.1410  -27.0320   22.8190 C   0  0  0  0  0  2  0  0  0  0  0  0
  -20.1600  -26.5930   21.7290 C   0  0  0  0  0  2  0  0  0  0  0  0
  -18.7160  -26.6840   22.2320 C   0  0  0  0  0  2  0  0  0  0  0  0
  -19.4230  -28.8980   23.3110 C   0  0  0  0  0  0  0  0  0  0  0  0
  -19.0750  -30.1700   23.8150 C   0  0  0  0  0  3  0  0  0  0  0  0
  -17.7330  -30.5930   23.8370 C   0  0  0  0  0  3  0  0  0  0  0  0
  -16.7190  -29.7400   23.3680 C   0  0  0  0  0  3  0  0  0  0  0  0
  -17.0520  -28.4700   22.8640 C   0  0  0  0  0  3  0  0  0  0  0  0
  -26.0030  -32.8630   24.2100 C   0  0  0  0  0  3  0  0  0  0  0  0
  -26.4170  -32.1890   25.5750 C   0  0  1  0  0  0  0  0  0  0  0  0
  -25.2370  -31.9700   26.5510 C   0  0  0  0  0  1  0  0  0  0  0  0
  -27.0830  -30.8170   25.3270 C   0  0  0  0  0  1  0  0  0  0  0  0
  -27.4710  -33.0670   26.2950 C   0  0  0  0  0  1  0  0  0  0  0  0
  -25.6590  -34.2760   24.4190 N   0  0  0  0  0  0  0  0  0  0  0  0
  -26.0280  -35.2780   23.6100 C   0  0  0  0  0  0  0  0  0  0  0  0
  -26.7620  -35.1120   22.6320 O   0  0  0  0  0  0  0  0  0  0  0  0
  -25.0250  -34.4780   25.1770 H   0  0  0  0  0  0  0  0  0  0  0  0
  -24.3070  -37.0160   23.0210 C   0  0  0  0  0  1  0  0  0  0  0  0
  -25.4990  -36.6870   23.9350 C   0  0  0  0  0  3  0  0  0  0  0  0
  -27.5690  -37.6600   24.8260 C   0  0  0  0  0  1  0  0  0  0  0  0
  -26.5250  -37.7460   23.8100 N   0  0  0  0  0  0  0  0  0  0  0  0
  -26.1010  -38.6680   23.8670 H   0  0  0  0  0  0  0  0  0  0  0  0
  2  1  1  0
  3  1  2  0
  4  2  2  0
  5  3  1  0
  6  5  2  0
  6  4  1  0
  7  6  1  0
  9 14  1  0
 10 11  1  0
 10  9  1  0
 12 11  1  0
 12 22  1  0
 12 13  1  0
 14  8  1  0
 14 13  1  0
 15  8  2  0
 16 18  2  0
 16 17  1  0
 17  8  1  0
 17  5  1  0
 19 20  2  0
 20 39  1  0
 21 20  1  0
 21 24  1  0
 22 19  1  0
 22 23  1  0
 23 21  2  0
 24 25  1  0
 25 26  2  0
 27 30  1  0
 27 26  1  0
 28 27  2  0
 29 28  1  0
 29 24  2  0
 30 31  1  0
 31 36  2  0
 31 32  1  0
 32 33  2  0
 33 34  1  0
 34 38  1  0
 35 34  2  0
 36 35  1  0
 37 36  1  0
 39 40  1  0
 40 43  1  0
 40 42  1  0
 41 39  2  0
 44 45  1  0
 44 19  1  0
 46 44  1  0
 47 48  2  0
 48 16  1  0
 49 53  1  0
 50 49  1  0
 50 52  1  0
 52 55  1  0
 52 51  1  0
 53  4  1  0
 53 51  1  0
 54 49  2  0
 56 55  1  0
 57 68  2  0
 58 56  1  0
 58 63  1  0
 59 67  1  0
 59 69  1  0
 60 62  1  0
 61 67  1  0
 62 63  2  0
 62 61  1  0
 64 58  2  0
 65 64  1  0
 65 60  2  0
 66 60  1  0
 66 59  1  0
 67 57  1  0
 69 71  2  0
 70 69  1  0
 72 70  1  0
 73 82  2  0
 73 78  1  0
 74 70  1  0
 74 78  1  0
 75 74  1  0
 76 77  1  0
 76 75  1  0
 77 73  1  0
 78 79  2  0
 79 80  1  0
 81 80  2  0
 82 81  1  0
 83 57  1  0
 83 88  1  0
 83 84  1  0
 84 87  1  1
 84 85  1  0
 86 84  1  0
 88 91  1  0
 89 93  1  0
 89 88  1  0
 90 89  2  0
 93 92  1  0
 95 96  1  0
 95 93  1  0
 95 94  1  0
M  ISO  4   8 100  17 100  55 101  56 101
M  END
>  <TORSDO>  (71) 
F 19

>  <SCORE>  (71) 
-10.883

>  <name>  (71) 
70

>  <ligand_id>  (71) 
70

>  <original_smiles>  (71) 
[H]C([H])=C([H])C(=O)N(C(=O)N1C([H])([H])C([H])([H])C([H])([H])C([H])(n2nc(-c3c([H])c([H])c(Oc4c([H])c([H])c(F)c([H])c4F)c([H])c3[H])c(C(=O)N([H])[H])c2N([H])[H])C1([H])[H])c1c([H])c([H])c([H])c(N2C(=O)C([H])([H])C([H])(C([H])([H])Oc3c([H])c([H])c4c(c3[H])C([H])([H])N(C(=O)C([H])(N([H])C(=O)C([H])(N([H])C([H])([H])[H])C([H])([H])[H])C(C([H])([H])[H])(C([H])([H])[H])C([H])([H])[H])C([H])(C(=O)N([H])C3([H])c5c([H])c([H])c([H])c([H])c5C([H])([H])C([H])([H])C3([H])[H])C4([H])[H])C2([H])[H])c1F

>  <smiles>  (71) 
[H]C([H])=C([H])C(=O)N(C(=O)N1C([H])([H])C([H])([H])C([H])([H])C([H])(n2nc(-c3c([H])c([H])c(Oc4c([H])c([H])c(F)c([H])c4F)c([H])c3[H])c(C(=O)N([H])[H])c2N([H])[H])C1([H])[H])c1c([H])c([H])c([H])c(N2C(=O)C([H])([H])C([H])(C([H])([H])Oc3c([H])c([H])c4c(c3[H])C([H])([H])N(C(=O)C([H])(N([H])C(=O)C([H])(N([H])C([H])([H])[H])C([H])([H])[H])C(C([H])([H])[H])(C([H])([H])[H])C([H])([H])[H])C([H])(C(=O)N([H])C3([H])c5c([H])c([H])c([H])c([H])c5C([H])([H])C([H])([H])C3([H])[H])C4([H])[H])C2([H])[H])c1F

$$$$
71:0:0
     RDKit          3D

 94102  0  0  1  0  0  0  0  0999 V2000
  -29.4140  -21.1620   20.9530 C   0  0  0  0  0  0  0  0  0  0  0  0
  -29.1430  -22.3620   20.2950 N   0  0  0  0  0  0  0  0  0  0  0  0
  -29.4860  -21.1160   22.1810 O   0  0  0  0  0  0  0  0  0  0  0  0
  -29.0800  -22.2540   19.2920 H   0  0  0  0  0  0  0  0  0  0  0  0
  -29.6210  -18.5010   20.8240 C   0  0  0  0  0  3  0  0  0  0  0  0
  -30.0590  -19.8480   18.8400 C   0  0  0  0  0  3  0  0  0  0  0  0
  -30.3410  -17.4080   18.7810 C   0  0  0  0  0  3  0  0  0  0  0  0
  -29.6630  -19.8180   20.1960 C   0  0  0  0  0  0  0  0  0  0  0  0
  -29.9640  -17.2640   20.1360 C   0  0  0  0  0  0  0  0  0  0  0  0
  -30.3980  -18.6620   18.1360 C   0  0  0  0  0  0  0  0  0  0  0  0
  -30.5910  -14.7540   20.3830 C   0  0  0  0  0  0  0  0  0  0  0  0
  -30.3660  -12.4760   19.3880 C   0  0  0  0  0  2  0  0  0  0  0  0
  -29.4500  -12.5920   18.1500 C   0  0  0  0  0  2  0  0  0  0  0  0
  -27.9690  -12.4530   18.5530 C   0  0  0  0  0  2  0  0  0  0  0  0
  -27.6010  -13.3110   19.7960 C   0  0  0  0  0  3  0  0  0  0  0  0
  -28.6510  -13.1890   20.9220 C   0  0  0  0  0  2  0  0  0  0  0  0
  -29.9570  -13.5280   20.3480 N   0  0  0  0  0  0  0  0  0  0  0  0
  -31.7610  -14.8440   19.9990 O   0  0  0  0  0  0  0  0  0  0  0  0
  -29.8660  -15.8930   20.7060 N   0  0  0  0  0  0  0  0  0  0  0  0
  -29.0330  -15.7120   21.2470 H   0  0  0  0  0  0  0  0  0  0  0  0
  -25.2010  -13.9010   20.4880 C   0  0  0  0  0  0  0  0  0  0  0  0
  -24.1310  -13.1310   20.8560 C   0  0  0  0  0  0  0  0  0  0  0  0
  -24.5960  -11.7800   20.8410 C   0  0  0  0  0  0  0  0  0  0  0  0
  -26.2490  -13.0220   20.2720 N   0  0  0  0  0  0  0  0  0  0  0  0
  -25.8900  -11.7400   20.5440 N   0  0  0  0  0  0  0  0  0  0  0  0
  -23.8650  -10.5210   21.0360 C   0  0  0  0  0  0  0  0  0  0  0  0
  -24.2970   -9.5530   21.9690 C   0  0  0  0  0  3  0  0  0  0  0  0
  -23.5670   -8.3580   22.1530 C   0  0  0  0  0  3  0  0  0  0  0  0
  -22.3920   -8.1210   21.4030 C   0  0  0  0  0  0  0  0  0  0  0  0
  -21.9790   -9.0770   20.4580 C   0  0  0  0  0  3  0  0  0  0  0  0
  -22.7070  -10.2630   20.2730 C   0  0  0  0  0  3  0  0  0  0  0  0
  -21.6330   -6.9790   21.4960 O   0  0  0  0  0  0  0  0  0  0  0  0
  -21.5980   -6.2320   22.6460 C   0  0  0  0  0  0  0  0  0  0  0  0
  -21.1960   -6.7840   23.8820 C   0  0  0  0  0  3  0  0  0  0  0  0
  -21.1040   -5.9610   25.0220 C   0  0  0  0  0  3  0  0  0  0  0  0
  -21.4040   -4.5890   24.9300 C   0  0  0  0  0  0  0  0  0  0  0  0
  -21.7950   -4.0370   23.6980 C   0  0  0  0  0  3  0  0  0  0  0  0
  -21.8890   -4.8550   22.5590 C   0  0  0  0  0  0  0  0  0  0  0  0
  -22.2470   -4.3130   21.3710 F   0  0  0  0  0  0  0  0  0  0  0  0
  -21.3090   -3.7980   26.0240 F   0  0  0  0  0  0  0  0  0  0  0  0
  -22.7310  -13.6120   21.1110 C   0  0  0  0  0  0  0  0  0  0  0  0
  -21.9950  -12.9250   21.9770 N   0  0  0  0  0  0  0  0  0  0  0  0
  -22.3010  -14.6320   20.5740 O   0  0  0  0  0  0  0  0  0  0  0  0
  -22.3580  -12.1040   22.4380 H   0  0  0  0  0  0  0  0  0  0  0  0
  -21.0540  -13.2280   22.1840 H   0  0  0  0  0  0  0  0  0  0  0  0
  -25.3650  -15.2700   20.3000 N   0  0  0  0  0  0  0  0  0  0  0  0
  -24.6050  -15.9280   20.4140 H   0  0  0  0  0  0  0  0  0  0  0  0
  -26.2170  -15.7090   19.9730 H   0  0  0  0  0  0  0  0  0  0  0  0
  -30.9560  -19.8760   16.1280 C   0  0  0  0  0  1  0  0  0  0  0  0
  -30.7980  -18.6390   16.8150 O   0  0  0  0  0  0  0  0  0  0  0  0
  -29.0590  -23.9970   22.2830 C   0  0  0  0  0  1  0  0  0  0  0  0
  -29.1540  -23.8430   20.7530 C   0  0  0  0  0  3  0  0  0  0  0  0
  -28.1340  -24.9120   20.0760 C   0  0  0  0  0  2  0  0  0  0  0  0
  -28.3090  -26.4000   20.2710 O   0  0  0  0  0  0  0  0  0  0  0  0
  -24.6020  -31.8850   23.2490 C   0  0  0  0  0  0  0  0  0  0  0  0
  -27.2020  -27.2860   20.1880 C   0  0  0  0  0  0  0  0  0  0  0  0
  -23.3940  -30.4890   21.6090 C   0  0  0  0  0  3  0  0  0  0  0  0
  -24.8430  -28.9370   20.1690 C   0  0  0  0  0  0  0  0  0  0  0  0
  -25.9360  -30.7950   21.4220 C   0  0  0  0  0  2  0  0  0  0  0  0
  -26.0120  -29.4130   20.7730 C   0  0  0  0  0  0  0  0  0  0  0  0
  -27.1950  -28.6010   20.7680 C   0  0  0  0  0  3  0  0  0  0  0  0
  -26.0130  -26.8860   19.5380 C   0  0  0  0  0  3  0  0  0  0  0  0
  -24.8510  -27.6860   19.5320 C   0  0  0  0  0  3  0  0  0  0  0  0
  -23.6080  -29.8190   20.2250 C   0  0  0  0  0  2  0  0  0  0  0  0
  -24.6630  -31.0760   22.1500 N   0  0  0  0  0  0  0  0  0  0  0  0
  -23.5200  -32.1630   23.7870 O   0  0  0  0  0  0  0  0  0  0  0  0
  -22.7300  -29.4740   22.5710 C   0  0  0  0  0  0  0  0  0  0  0  0
  -21.4030  -29.2970   22.4480 N   0  0  0  0  0  0  0  0  0  0  0  0
  -23.4100  -28.8500   23.3900 O   0  0  0  0  0  0  0  0  0  0  0  0
  -20.9140  -29.8550   21.7620 H   0  0  0  0  0  0  0  0  0  0  0  0
  -18.0300  -28.0810   22.9470 C   0  0  0  0  0  0  0  0  0  0  0  0
  -20.5860  -28.3570   23.2190 C   0  0  0  0  0  3  0  0  0  0  0  0
  -20.6970  -26.9240   22.6480 C   0  0  0  0  0  2  0  0  0  0  0  0
  -19.5980  -26.5920   21.6340 C   0  0  0  0  0  2  0  0  0  0  0  0
  -18.2150  -26.7310   22.2730 C   0  0  0  0  0  2  0  0  0  0  0  0
  -19.1430  -28.8510   23.3760 C   0  0  0  0  0  0  0  0  0  0  0  0
  -18.9160  -30.1120   23.9670 C   0  0  0  0  0  3  0  0  0  0  0  0
  -17.6070  -30.6060   24.1290 C   0  0  0  0  0  3  0  0  0  0  0  0
  -16.5090  -29.8350   23.7140 C   0  0  0  0  0  3  0  0  0  0  0  0
  -16.7200  -28.5730   23.1300 C   0  0  0  0  0  3  0  0  0  0  0  0
  -25.8840  -32.5160   23.8690 C   0  0  0  0  0  3  0  0  0  0  0  0
  -26.4010  -31.7460   25.1480 C   0  0  1  0  0  0  0  0  0  0  0  0
  -25.3100  -31.5130   26.2190 C   0  0  0  0  0  1  0  0  0  0  0  0
  -26.9780  -30.3660   24.7560 C   0  0  0  0  0  1  0  0  0  0  0  0
  -27.5560  -32.5370   25.8070 C   0  0  0  0  0  1  0  0  0  0  0  0
  -25.5780  -33.9170   24.2000 N   0  0  0  0  0  0  0  0  0  0  0  0
  -25.9070  -34.9700   23.4390 C   0  0  0  0  0  0  0  0  0  0  0  0
  -26.5700  -34.8640   22.4030 O   0  0  0  0  0  0  0  0  0  0  0  0
  -24.9930  -34.0730   25.0070 H   0  0  0  0  0  0  0  0  0  0  0  0
  -24.1770  -36.7650   23.1020 C   0  0  0  0  0  1  0  0  0  0  0  0
  -25.4270  -36.3600   23.9010 C   0  0  0  0  0  3  0  0  0  0  0  0
  -27.5710  -37.2450   24.7050 C   0  0  0  0  0  1  0  0  0  0  0  0
  -26.4580  -37.4120   23.7750 N   0  0  0  0  0  0  0  0  0  0  0  0
  -26.0540  -38.3330   23.9240 H   0  0  0  0  0  0  0  0  0  0  0  0
  1  3  2  0
  2 52  1  0
  2  1  1  0
  4  2  1  0
  6  8  2  0
  7  9  1  0
  8  5  1  0
  8  1  1  0
  9 19  1  0
  9  5  2  0
 10  7  2  0
 10  6  1  0
 11 19  1  0
 12 17  1  0
 13 14  1  0
 13 12  1  0
 15 14  1  0
 15 24  1  0
 15 16  1  0
 17 11  1  0
 17 16  1  0
 18 11  2  0
 19 20  1  0
 21 22  2  0
 22 41  1  0
 23 22  1  0
 23 26  1  0
 24 21  1  0
 24 25  1  0
 25 23  2  0
 26 27  1  0
 27 28  2  0
 29 32  1  0
 29 28  1  0
 30 29  2  0
 31 30  1  0
 31 26  2  0
 32 33  1  0
 33 34  1  0
 34 35  2  0
 36 35  1  0
 36 40  1  0
 37 36  2  0
 38 33  2  0
 38 37  1  0
 39 38  1  0
 41 42  1  0
 42 45  1  0
 42 44  1  0
 43 41  2  0
 46 47  1  0
 46 21  1  0
 48 46  1  0
 49 50  1  0
 50 10  1  0
 52 51  1  0
 53 54  1  0
 53 52  1  0
 55 66  2  0
 56 54  1  0
 56 61  1  0
 57 65  1  0
 57 67  1  0
 58 64  1  0
 58 60  1  0
 59 65  1  0
 60 59  1  0
 61 60  2  0
 62 56  2  0
 63 62  1  0
 63 58  2  0
 64 57  1  0
 65 55  1  0
 67 69  2  0
 68 67  1  0
 70 68  1  0
 71 80  2  0
 71 76  1  0
 72 68  1  0
 72 76  1  0
 73 72  1  0
 74 75  1  0
 74 73  1  0
 75 71  1  0
 76 77  2  0
 77 78  1  0
 79 78  2  0
 80 79  1  0
 81 55  1  0
 81 86  1  0
 81 82  1  0
 82 85  1  1
 82 83  1  0
 84 82  1  0
 86 89  1  0
 87 91  1  0
 87 86  1  0
 88 87  2  0
 91 90  1  0
 93 91  1  0
 93 94  1  0
 93 92  1  0
M  ISO  4  11 100  19 100  53 101  54 101
M  END
>  <TORSDO>  (72) 
F 20

>  <SCORE>  (72) 
-14.015

>  <name>  (72) 
71

>  <ligand_id>  (72) 
71

>  <original_smiles>  (72) 
[H]c1c([H])c([H])c2c(c1[H])C([H])([H])C([H])([H])C([H])([H])C2([H])N([H])C(=O)C1([H])N(C(=O)C([H])(N([H])C(=O)C([H])(N([H])C([H])([H])[H])C([H])([H])[H])C(C([H])([H])[H])(C([H])([H])[H])C([H])([H])[H])C([H])([H])c2c([H])c(OC([H])([H])C([H])(N([H])C(=O)c3c([H])c(OC([H])([H])[H])c([H])c(N([H])C(=O)N4C([H])([H])C([H])([H])C([H])([H])C([H])(n5nc(-c6c([H])c([H])c(Oc7c([H])c([H])c(F)c([H])c7F)c([H])c6[H])c(C(=O)N([H])[H])c5N([H])[H])C4([H])[H])c3[H])C([H])([H])[H])c([H])c([H])c2C1([H])[H]

>  <smiles>  (72) 
[H]c1c([H])c([H])c2c(c1[H])C([H])([H])C([H])([H])C([H])([H])C2([H])N([H])C(=O)C1([H])N(C(=O)C([H])(N([H])C(=O)C([H])(N([H])C([H])([H])[H])C([H])([H])[H])C(C([H])([H])[H])(C([H])([H])[H])C([H])([H])[H])C([H])([H])c2c([H])c(OC([H])([H])C([H])(N([H])C(=O)c3c([H])c(OC([H])([H])[H])c([H])c(N([H])C(=O)N4C([H])([H])C([H])([H])C([H])([H])C([H])(n5nc(-c6c([H])c([H])c(Oc7c([H])c([H])c(F)c([H])c7F)c([H])c6[H])c(C(=O)N([H])[H])c5N([H])[H])C4([H])[H])c3[H])C([H])([H])[H])c([H])c([H])c2C1([H])[H]

$$$$
72:0:0
     RDKit          3D

 92101  0  0  1  0  0  0  0  0999 V2000
  -28.8860  -22.6280   20.4360 C   0  0  0  0  0  3  0  0  0  0  0  0
  -30.9810  -22.2090   21.5330 C   0  0  0  0  0  3  0  0  0  0  0  0
  -29.9280  -21.6560   20.8870 C   0  0  0  0  0  0  0  0  0  0  0  0
  -29.0040  -24.0010   20.4910 C   0  0  0  0  0  0  0  0  0  0  0  0
  -31.1700  -23.6870   21.8300 C   0  0  0  0  0  3  0  0  0  0  0  0
  -30.2680  -24.6440   21.0280 C   0  0  0  0  0  3  0  0  0  0  0  0
  -28.7260  -19.4110   20.3150 C   0  0  0  0  0  3  0  0  0  0  0  0
  -31.0010  -19.2850   21.0650 C   0  0  0  0  0  3  0  0  0  0  0  0
  -28.6820  -17.9820   20.2800 C   0  0  0  0  0  3  0  0  0  0  0  0
  -30.9650  -17.8620   21.0100 C   0  0  0  0  0  3  0  0  0  0  0  0
  -29.8820  -20.1190   20.7400 C   0  0  0  0  0  0  0  0  0  0  0  0
  -29.7950  -17.1630   20.6290 C   0  0  0  0  0  0  0  0  0  0  0  0
  -30.5080  -14.6650   20.4140 C   0  0  0  0  0  0  0  0  0  0  0  0
  -30.3390  -12.4080   19.3800 C   0  0  0  0  0  2  0  0  0  0  0  0
  -29.3990  -12.5180   18.1580 C   0  0  0  0  0  2  0  0  0  0  0  0
  -27.9250  -12.3480   18.5810 C   0  0  0  0  0  2  0  0  0  0  0  0
  -27.5510  -13.2270   19.8030 C   0  0  0  0  0  3  0  0  0  0  0  0
  -28.6020  -13.0910   20.9280 C   0  0  0  0  0  2  0  0  0  0  0  0
  -29.9140  -13.4330   20.3530 N   0  0  0  0  0  0  0  0  0  0  0  0
  -31.6800  -14.8330   20.0600 O   0  0  0  0  0  0  0  0  0  0  0  0
  -29.6530  -15.7080   20.6720 N   0  0  0  0  0  0  0  0  0  0  0  0
  -28.7100  -15.3880   20.8240 H   0  0  0  0  0  0  0  0  0  0  0  0
  -25.1570  -13.8340   20.5180 C   0  0  0  0  0  0  0  0  0  0  0  0
  -24.0860  -13.0660   20.8870 C   0  0  0  0  0  0  0  0  0  0  0  0
  -24.5420  -11.7120   20.8510 C   0  0  0  0  0  0  0  0  0  0  0  0
  -26.2000  -12.9510   20.2830 N   0  0  0  0  0  0  0  0  0  0  0  0
  -25.8320  -11.6680   20.5410 N   0  0  0  0  0  0  0  0  0  0  0  0
  -23.8090  -10.4520   21.0360 C   0  0  0  0  0  0  0  0  0  0  0  0
  -24.2260   -9.4880   21.9790 C   0  0  0  0  0  3  0  0  0  0  0  0
  -23.4950   -8.2920   22.1510 C   0  0  0  0  0  3  0  0  0  0  0  0
  -22.3330   -8.0530   21.3800 C   0  0  0  0  0  0  0  0  0  0  0  0
  -21.9340   -9.0080   20.4280 C   0  0  0  0  0  3  0  0  0  0  0  0
  -22.6650  -10.1940   20.2530 C   0  0  0  0  0  3  0  0  0  0  0  0
  -21.5780   -6.9090   21.4610 O   0  0  0  0  0  0  0  0  0  0  0  0
  -21.5100   -6.1700   22.6140 C   0  0  0  0  0  0  0  0  0  0  0  0
  -21.0260   -6.7180   23.8230 C   0  0  0  0  0  3  0  0  0  0  0  0
  -20.9060   -5.9050   24.9660 C   0  0  0  0  0  3  0  0  0  0  0  0
  -21.2630   -4.5450   24.9060 C   0  0  0  0  0  0  0  0  0  0  0  0
  -21.7400   -3.9950   23.7030 C   0  0  0  0  0  3  0  0  0  0  0  0
  -21.8620   -4.8060   22.5600 C   0  0  0  0  0  0  0  0  0  0  0  0
  -22.3020   -4.2680   21.3990 F   0  0  0  0  0  0  0  0  0  0  0  0
  -21.1410   -3.7610   26.0020 F   0  0  0  0  0  0  0  0  0  0  0  0
  -22.6910  -13.5490   21.1550 C   0  0  0  0  0  0  0  0  0  0  0  0
  -21.9530  -12.8530   22.0140 N   0  0  0  0  0  0  0  0  0  0  0  0
  -22.2610  -14.5800   20.6370 O   0  0  0  0  0  0  0  0  0  0  0  0
  -22.3120  -12.0200   22.4560 H   0  0  0  0  0  0  0  0  0  0  0  0
  -21.0150  -13.1590   22.2310 H   0  0  0  0  0  0  0  0  0  0  0  0
  -25.3270  -15.2030   20.3400 N   0  0  0  0  0  0  0  0  0  0  0  0
  -24.5490  -15.8480   20.4300 H   0  0  0  0  0  0  0  0  0  0  0  0
  -26.1440  -15.6250   19.9220 H   0  0  0  0  0  0  0  0  0  0  0  0
  -27.9110  -25.0100   20.0080 C   0  0  0  0  0  2  0  0  0  0  0  0
  -28.1800  -26.4650   20.0980 O   0  0  0  0  0  0  0  0  0  0  0  0
  -24.5550  -31.8850   23.1620 C   0  0  0  0  0  0  0  0  0  0  0  0
  -27.0690  -27.3240   20.0500 C   0  0  0  0  0  0  0  0  0  0  0  0
  -23.3020  -30.4860   21.5640 C   0  0  0  0  0  3  0  0  0  0  0  0
  -24.7080  -28.9370   20.0950 C   0  0  0  0  0  0  0  0  0  0  0  0
  -25.8310  -30.8110   21.2950 C   0  0  0  0  0  2  0  0  0  0  0  0
  -25.8950  -29.4280   20.6560 C   0  0  0  0  0  0  0  0  0  0  0  0
  -27.0780  -28.6320   20.6240 C   0  0  0  0  0  3  0  0  0  0  0  0
  -25.8600  -26.8950   19.4540 C   0  0  0  0  0  3  0  0  0  0  0  0
  -24.6920  -27.6770   19.4810 C   0  0  0  0  0  3  0  0  0  0  0  0
  -23.4740  -29.8090   20.1780 C   0  0  0  0  0  2  0  0  0  0  0  0
  -24.5850  -31.0770   22.0640 N   0  0  0  0  0  0  0  0  0  0  0  0
  -23.4880  -32.1630   23.7260 O   0  0  0  0  0  0  0  0  0  0  0  0
  -22.6690  -29.4700   22.5460 C   0  0  0  0  0  0  0  0  0  0  0  0
  -21.3430  -29.2760   22.4410 N   0  0  0  0  0  0  0  0  0  0  0  0
  -23.3680  -28.8580   23.3590 O   0  0  0  0  0  0  0  0  0  0  0  0
  -20.8390  -29.8180   21.7550 H   0  0  0  0  0  0  0  0  0  0  0  0
  -17.9890  -28.0400   22.9940 C   0  0  0  0  0  0  0  0  0  0  0  0
  -20.5450  -28.3410   23.2360 C   0  0  0  0  0  3  0  0  0  0  0  0
  -20.6620  -26.9010   22.6820 C   0  0  0  0  0  2  0  0  0  0  0  0
  -19.5540  -26.5470   21.6850 C   0  0  0  0  0  2  0  0  0  0  0  0
  -18.1770  -26.6820   22.3410 C   0  0  0  0  0  2  0  0  0  0  0  0
  -19.1010  -28.8260   23.4000 C   0  0  0  0  0  0  0  0  0  0  0  0
  -18.8680  -30.0940   23.9740 C   0  0  0  0  0  3  0  0  0  0  0  0
  -17.5580  -30.5800   24.1450 C   0  0  0  0  0  3  0  0  0  0  0  0
  -16.4600  -29.7920   23.7540 C   0  0  0  0  0  3  0  0  0  0  0  0
  -16.6780  -28.5240   23.1860 C   0  0  0  0  0  3  0  0  0  0  0  0
  -25.8550  -32.5160   23.7480 C   0  0  0  0  0  3  0  0  0  0  0  0
  -25.5480  -33.9070   24.1110 N   0  0  0  0  0  0  0  0  0  0  0  0
  -25.8570  -34.9740   23.3640 C   0  0  0  0  0  0  0  0  0  0  0  0
  -26.5010  -34.8890   22.3130 O   0  0  0  0  0  0  0  0  0  0  0  0
  -24.9700  -34.0430   24.9280 H   0  0  0  0  0  0  0  0  0  0  0  0
  -24.1330  -36.7820   23.0710 C   0  0  0  0  0  1  0  0  0  0  0  0
  -25.3810  -36.3530   23.8600 C   0  0  0  0  0  3  0  0  0  0  0  0
  -27.5250  -37.2170   24.6960 C   0  0  0  0  0  1  0  0  0  0  0  0
  -26.4170  -37.4060   23.7620 N   0  0  0  0  0  0  0  0  0  0  0  0
  -26.0150  -38.3240   23.9260 H   0  0  0  0  0  0  0  0  0  0  0  0
  -26.4230  -31.7270   24.9900 C   0  0  1  0  0  0  0  0  0  0  0  0
  -25.3700  -31.4620   26.0930 C   0  0  0  0  0  1  0  0  0  0  0  0
  -26.9990  -30.3600   24.5490 C   0  0  0  0  0  1  0  0  0  0  0  0
  -27.5930  -32.5160   25.6220 C   0  0  0  0  0  1  0  0  0  0  0  0
  1  4  2  0
  1  3  1  0
  2  5  1  0
  3  2  2  0
  4  6  1  0
  6  5  2  0
  7 11  1  0
  9  7  2  0
  9 12  1  0
 10  8  1  0
 11  3  1  0
 11  8  2  0
 12 21  1  0
 12 10  2  0
 13 21  1  0
 14 19  1  0
 15 16  1  0
 15 14  1  0
 17 16  1  0
 17 26  1  0
 17 18  1  0
 19 13  1  0
 19 18  1  0
 20 13  2  0
 21 22  1  0
 23 24  2  0
 24 43  1  0
 25 24  1  0
 25 28  1  0
 26 23  1  0
 26 27  1  0
 27 25  2  0
 28 29  1  0
 29 30  2  0
 31 34  1  0
 31 30  1  0
 32 31  2  0
 33 32  1  0
 33 28  2  0
 34 35  1  0
 35 36  1  0
 36 37  2  0
 38 37  1  0
 38 42  1  0
 39 38  2  0
 40 35  2  0
 40 39  1  0
 41 40  1  0
 43 44  1  0
 44 47  1  0
 44 46  1  0
 45 43  2  0
 48 49  1  0
 48 23  1  0
 50 48  1  0
 51 52  1  0
 51  4  1  0
 53 64  2  0
 54 52  1  0
 54 59  1  0
 55 63  1  0
 55 65  1  0
 56 62  1  0
 56 58  1  0
 57 63  1  0
 58 57  1  0
 59 58  2  0
 60 61  1  0
 60 54  2  0
 61 56  2  0
 62 55  1  0
 63 53  1  0
 65 67  2  0
 66 65  1  0
 68 66  1  0
 69 78  2  0
 69 74  1  0
 70 66  1  0
 70 74  1  0
 71 70  1  0
 72 73  1  0
 72 71  1  0
 73 69  1  0
 74 75  2  0
 75 76  1  0
 77 76  2  0
 78 77  1  0
 79 53  1  0
 79 80  1  0
 79 89  1  0
 80 83  1  0
 81 85  1  0
 81 80  1  0
 82 81  2  0
 85 84  1  0
 87 85  1  0
 87 88  1  0
 87 86  1  0
 89 92  1  1
 89 90  1  0
 91 89  1  0
M  ISO  4  13 100  21 100  51 101  52 101
M  END
>  <TORSDO>  (73) 
F 18

>  <SCORE>  (73) 
-14.360

>  <name>  (73) 
72

>  <ligand_id>  (73) 
72

>  <original_smiles>  (73) 
[H]C1=C(C([H])([H])Oc2c([H])c([H])c3c(c2[H])C([H])([H])N(C(=O)C([H])(N([H])C(=O)C([H])(N([H])C([H])([H])[H])C([H])([H])[H])C(C([H])([H])[H])(C([H])([H])[H])C([H])([H])[H])C([H])(C(=O)N([H])C2([H])c4c([H])c([H])c([H])c([H])c4C([H])([H])C([H])([H])C2([H])[H])C3([H])[H])C([H])([H])C([H])([H])C([H])=C1c1c([H])c([H])c(N([H])C(=O)N2C([H])([H])C([H])([H])C([H])([H])C([H])(n3nc(-c4c([H])c([H])c(Oc5c([H])c([H])c(F)c([H])c5F)c([H])c4[H])c(C(=O)N([H])[H])c3N([H])[H])C2([H])[H])c([H])c1[H]

>  <smiles>  (73) 
[H]C1=C(C([H])([H])Oc2c([H])c([H])c3c(c2[H])C([H])([H])N(C(=O)C([H])(N([H])C(=O)C([H])(N([H])C([H])([H])[H])C([H])([H])[H])C(C([H])([H])[H])(C([H])([H])[H])C([H])([H])[H])C([H])(C(=O)N([H])C2([H])c4c([H])c([H])c([H])c([H])c4C([H])([H])C([H])([H])C2([H])[H])C3([H])[H])C([H])([H])C([H])([H])C([H])=C1c1c([H])c([H])c(N([H])C(=O)N2C([H])([H])C([H])([H])C([H])([H])C([H])(n3nc(-c4c([H])c([H])c(Oc5c([H])c([H])c(F)c([H])c5F)c([H])c4[H])c(C(=O)N([H])[H])c3N([H])[H])C2([H])[H])c([H])c1[H]

$$$$
73:0:0
     RDKit          3D

101110  0  0  1  0  0  0  0  0999 V2000
  -30.0540  -19.4230   19.3550 C   0  0  0  0  0  3  0  0  0  0  0  0
  -29.7540  -19.4640   21.7130 C   0  0  0  0  0  3  0  0  0  0  0  0
  -30.4270  -18.0360   19.3970 C   0  0  0  0  0  0  0  0  0  0  0  0
  -29.7080  -20.1870   20.4970 C   0  0  0  0  0  0  0  0  0  0  0  0
  -30.5140  -17.3010   20.6450 C   0  0  0  0  0  0  0  0  0  0  0  0
  -30.1310  -18.0810   21.7970 C   0  0  0  0  0  0  0  0  0  0  0  0
  -31.4230  -14.9010   20.0010 C   0  0  0  0  0  0  0  0  0  0  0  0
  -31.0310  -12.7230   18.8410 C   0  0  0  0  0  2  0  0  0  0  0  0
  -30.0110  -12.8730   17.6960 C   0  0  0  0  0  2  0  0  0  0  0  0
  -28.5780  -12.7030   18.2290 C   0  0  0  0  0  2  0  0  0  0  0  0
  -28.3100  -13.5540   19.4980 C   0  0  0  0  0  3  0  0  0  0  0  0
  -29.4400  -13.3970   20.5410 C   0  0  0  0  0  2  0  0  0  0  0  0
  -30.7100  -13.7300   19.8810 N   0  0  0  0  0  0  0  0  0  0  0  0
  -32.4930  -15.0210   19.4010 O   0  0  0  0  0  0  0  0  0  0  0  0
  -31.5580  -15.6050   22.2120 C   0  0  0  0  0  1  0  0  0  0  0  0
  -31.0000  -15.8890   20.8730 N   0  0  0  0  0  0  0  0  0  0  0  0
  -26.0050  -14.1430   20.4540 C   0  0  0  0  0  0  0  0  0  0  0  0
  -24.9540  -13.3690   20.8570 C   0  0  0  0  0  0  0  0  0  0  0  0
  -25.3780  -12.0140   20.7000 C   0  0  0  0  0  0  0  0  0  0  0  0
  -27.0040  -13.2630   20.0750 N   0  0  0  0  0  0  0  0  0  0  0  0
  -26.6380  -11.9720   20.2820 N   0  0  0  0  0  0  0  0  0  0  0  0
  -24.6360  -10.7550   20.8640 C   0  0  0  0  0  0  0  0  0  0  0  0
  -25.0230   -9.7870   21.8160 C   0  0  0  0  0  3  0  0  0  0  0  0
  -24.2810   -8.5950   21.9670 C   0  0  0  0  0  3  0  0  0  0  0  0
  -23.1360   -8.3640   21.1690 C   0  0  0  0  0  0  0  0  0  0  0  0
  -22.7690   -9.3200   20.2060 C   0  0  0  0  0  3  0  0  0  0  0  0
  -23.5130  -10.5020   20.0500 C   0  0  0  0  0  3  0  0  0  0  0  0
  -22.3710   -7.2240   21.2300 O   0  0  0  0  0  0  0  0  0  0  0  0
  -22.1240   -6.5880   22.4190 C   0  0  0  0  0  0  0  0  0  0  0  0
  -21.5170   -7.2520   23.5080 C   0  0  0  0  0  3  0  0  0  0  0  0
  -21.2130   -6.5420   24.6850 C   0  0  0  0  0  3  0  0  0  0  0  0
  -21.5100   -5.1690   24.7770 C   0  0  0  0  0  0  0  0  0  0  0  0
  -22.1140   -4.5050   23.6930 C   0  0  0  0  0  3  0  0  0  0  0  0
  -22.4160   -5.2130   22.5180 C   0  0  0  0  0  0  0  0  0  0  0  0
  -22.9750   -4.5640   21.4670 F   0  0  0  0  0  0  0  0  0  0  0  0
  -21.2140   -4.4810   25.9050 F   0  0  0  0  0  0  0  0  0  0  0  0
  -23.5950  -13.8530   21.2750 C   0  0  0  0  0  0  0  0  0  0  0  0
  -22.9470  -13.1400   22.1900 N   0  0  0  0  0  0  0  0  0  0  0  0
  -23.1230  -14.8980   20.8270 O   0  0  0  0  0  0  0  0  0  0  0  0
  -23.3380  -12.2880   22.5630 H   0  0  0  0  0  0  0  0  0  0  0  0
  -22.0430  -13.4490   22.5190 H   0  0  0  0  0  0  0  0  0  0  0  0
  -26.1870  -15.5210   20.3520 N   0  0  0  0  0  0  0  0  0  0  0  0
  -25.4420  -16.1780   20.5550 H   0  0  0  0  0  0  0  0  0  0  0  0
  -27.0440  -15.9700   20.0580 H   0  0  0  0  0  0  0  0  0  0  0  0
  -27.7680  -21.5130   20.0330 C   0  0  0  0  0  0  0  0  0  0  0  0
  -29.7150  -22.7340   20.7150 C   0  0  0  0  0  0  0  0  0  0  0  0
  -26.8860  -22.7640   20.1120 C   0  0  0  0  0  2  0  0  0  0  0  0
  -27.6440  -24.0830   19.9890 C   0  0  0  0  0  2  0  0  0  0  0  0
  -28.9070  -24.1120   20.8450 C   0  0  0  0  0  3  0  0  0  0  0  0
  -29.0790  -21.5300   20.4130 N   0  0  0  0  0  0  0  0  0  0  0  0
  -27.2130  -20.4910   19.6080 O   0  0  0  0  0  0  0  0  0  0  0  0
  -30.9320  -22.7610   20.9230 O   0  0  0  0  0  0  0  0  0  0  0  0
  -29.6420  -25.5600   20.9390 C   0  0  0  0  0  2  0  0  0  0  0  0
  -29.4480  -26.7390   20.0520 O   0  0  0  0  0  0  0  0  0  0  0  0
  -24.9500  -31.5240   23.1480 C   0  0  0  0  0  0  0  0  0  0  0  0
  -28.2510  -27.4660   20.0680 C   0  0  0  0  0  0  0  0  0  0  0  0
  -24.0170  -30.0840   21.3690 C   0  0  0  0  0  3  0  0  0  0  0  0
  -25.7240  -28.8010   19.9640 C   0  0  0  0  0  0  0  0  0  0  0  0
  -26.5030  -30.7040   21.3630 C   0  0  0  0  0  2  0  0  0  0  0  0
  -26.7840  -29.3730   20.6810 C   0  0  0  0  0  0  0  0  0  0  0  0
  -28.0460  -28.7090   20.7470 C   0  0  0  0  0  3  0  0  0  0  0  0
  -27.1940  -26.9960   19.2670 C   0  0  0  0  0  3  0  0  0  0  0  0
  -25.9340  -27.6160   19.2460 C   0  0  0  0  0  3  0  0  0  0  0  0
  -24.3870  -29.5150   19.9740 C   0  0  0  0  0  2  0  0  0  0  0  0
  -25.1680  -30.7920   22.0180 N   0  0  0  0  0  0  0  0  0  0  0  0
  -23.8150  -31.6400   23.6320 O   0  0  0  0  0  0  0  0  0  0  0  0
  -23.4370  -28.9430   22.2390 C   0  0  0  0  0  0  0  0  0  0  0  0
  -22.1600  -28.5950   22.0060 N   0  0  0  0  0  0  0  0  0  0  0  0
  -24.1370  -28.3740   23.0810 O   0  0  0  0  0  0  0  0  0  0  0  0
  -21.6470  -29.1090   21.3030 H   0  0  0  0  0  0  0  0  0  0  0  0
  -18.9460  -26.9510   22.2190 C   0  0  0  0  0  0  0  0  0  0  0  0
  -21.4270  -27.5230   22.6790 C   0  0  0  0  0  3  0  0  0  0  0  0
  -21.7540  -26.1480   22.0520 C   0  0  0  0  0  2  0  0  0  0  0  0
  -20.7700  -25.7370   20.9520 C   0  0  0  0  0  2  0  0  0  0  0  0
  -19.3430  -25.6710   21.5010 C   0  0  0  0  0  2  0  0  0  0  0  0
  -19.9250  -27.8290   22.7580 C   0  0  0  0  0  0  0  0  0  0  0  0
  -19.5020  -29.0220   23.3830 C   0  0  0  0  0  3  0  0  0  0  0  0
  -18.1340  -29.3420   23.4760 C   0  0  0  0  0  3  0  0  0  0  0  0
  -17.1710  -28.4610   22.9550 C   0  0  0  0  0  3  0  0  0  0  0  0
  -17.5760  -27.2680   22.3330 C   0  0  0  0  0  3  0  0  0  0  0  0
  -26.1130  -32.2710   23.8750 C   0  0  0  0  0  3  0  0  0  0  0  0
  -25.6350  -33.6170   24.2090 N   0  0  0  0  0  0  0  0  0  0  0  0
  -25.8820  -34.7160   23.4830 C   0  0  0  0  0  0  0  0  0  0  0  0
  -26.6080  -34.7100   22.4850 O   0  0  0  0  0  0  0  0  0  0  0  0
  -25.0010  -33.6920   24.9910 H   0  0  0  0  0  0  0  0  0  0  0  0
  -23.9800  -36.3060   23.0680 C   0  0  0  0  0  1  0  0  0  0  0  0
  -25.2180  -36.0300   23.9370 C   0  0  0  0  0  3  0  0  0  0  0  0
  -27.1930  -37.1350   24.8900 C   0  0  0  0  0  1  0  0  0  0  0  0
  -26.1260  -37.1970   23.8940 N   0  0  0  0  0  0  0  0  0  0  0  0
  -25.6080  -38.0590   24.0390 H   0  0  0  0  0  0  0  0  0  0  0  0
  -26.6180  -31.5210   25.1660 C   0  0  1  0  0  0  0  0  0  0  0  0
  -25.4830  -31.1390   26.1440 C   0  0  0  0  0  1  0  0  0  0  0  0
  -27.3710  -30.2240   24.7870 C   0  0  0  0  0  1  0  0  0  0  0  0
  -27.6260  -32.4100   25.9310 C   0  0  0  0  0  1  0  0  0  0  0  0
  -30.5810  -18.1300   24.1560 C   0  0  0  0  0  1  0  0  0  0  0  0
  -30.0710  -17.4430   23.0190 O   0  0  0  0  0  0  0  0  0  0  0  0
  -30.6790  -17.4460   18.0130 C   0  0  0  0  0  2  0  0  0  0  0  0
  -29.4180  -17.0200   17.3840 N   0  0  0  0  0  4  0  0  0  0  0  0
  -28.9630  -16.2950   17.9050 H   0  0  0  0  0  0  0  0  0  0  0  0
  -29.5940  -16.6870   16.4530 H   0  0  0  0  0  0  0  0  0  0  0  0
  -28.7920  -17.8010   17.3240 H   0  0  0  0  0  0  0  0  0  0  0  0
  1  3  2  0
  1  4  1  0
  2  6  1  0
  3  5  1  0
  4  2  2  0
  5 16  1  0
  5  6  2  0
  6 96  1  0
  7 16  1  0
  8 13  1  0
  9 10  1  0
  9  8  1  0
 11 10  1  0
 11 20  1  0
 11 12  1  0
 13  7  1  0
 13 12  1  0
 14  7  2  0
 16 15  1  0
 17 18  2  0
 18 37  1  0
 19 18  1  0
 19 22  1  0
 20 21  1  0
 20 17  1  0
 21 19  2  0
 22 23  1  0
 23 24  2  0
 25 28  1  0
 25 24  1  0
 26 25  2  0
 27 26  1  0
 27 22  2  0
 28 29  1  0
 29 34  2  0
 29 30  1  0
 30 31  2  0
 31 32  1  0
 32 36  1  0
 33 32  2  0
 34 33  1  0
 35 34  1  0
 37 38  1  0
 38 41  1  0
 38 40  1  0
 39 37  2  0
 42 17  1  0
 42 43  1  0
 44 42  1  0
 45 47  1  0
 45 50  1  0
 46 49  1  0
 46 52  2  0
 48 47  1  0
 48 49  1  0
 49 53  1  0
 50  4  1  0
 50 46  1  0
 51 45  2  0
 54 56  1  0
 54 53  1  0
 55 66  2  0
 56 61  1  0
 57 65  1  0
 57 67  1  0
 58 64  1  0
 58 60  1  0
 59 65  1  0
 60 61  2  0
 60 59  1  0
 62 56  2  0
 63 62  1  0
 63 58  2  0
 64 57  1  0
 65 55  1  0
 67 69  2  0
 68 67  1  0
 70 68  1  0
 71 80  2  0
 71 76  1  0
 72 68  1  0
 72 76  1  0
 73 72  1  0
 74 75  1  0
 74 73  1  0
 75 71  1  0
 76 77  2  0
 77 78  1  0
 79 78  2  0
 80 79  1  0
 81 55  1  0
 81 82  1  0
 81 91  1  0
 82 85  1  0
 83 87  1  0
 83 82  1  0
 84 83  2  0
 87 86  1  0
 89 87  1  0
 89 90  1  0
 89 88  1  0
 91 94  1  1
 91 92  1  0
 93 91  1  0
 96 95  1  0
 97  3  1  0
 98 99  1  0
 98 97  1  0
100 98  1  0
101 98  1  0
M  ISO  4   7 100  16 100  53 101  54 101
M  END
>  <TORSDO>  (74) 
F 21

>  <SCORE>  (74) 
-8.410

>  <name>  (74) 
73

>  <ligand_id>  (74) 
73

>  <original_smiles>  (74) 
[H]c1c([H])c([H])c2c(c1[H])C([H])([H])C([H])([H])C([H])([H])C2([H])N([H])C(=O)C1([H])N(C(=O)C([H])(N([H])C(=O)C([H])(N([H])C([H])([H])[H])C([H])([H])[H])C(C([H])([H])[H])(C([H])([H])[H])C([H])([H])[H])C([H])([H])c2c([H])c(OC([H])([H])C3([H])C(=O)N(c4c([H])c(OC([H])([H])[H])c(N(C(=O)N5C([H])([H])C([H])([H])C([H])([H])C([H])(n6nc(-c7c([H])c([H])c(Oc8c([H])c([H])c(F)c([H])c8F)c([H])c7[H])c(C(=O)N([H])[H])c6N([H])[H])C5([H])[H])C([H])([H])[H])c(C([H])([H])[N+]([H])([H])[H])c4[H])C(=O)C([H])([H])C3([H])[H])c([H])c([H])c2C1([H])[H]

>  <smiles>  (74) 
[H]c1c([H])c([H])c2c(c1[H])C([H])([H])C([H])([H])C([H])([H])C2([H])N([H])C(=O)C1([H])N(C(=O)C([H])(N([H])C(=O)C([H])(N([H])C([H])([H])[H])C([H])([H])[H])C(C([H])([H])[H])(C([H])([H])[H])C([H])([H])[H])C([H])([H])c2c([H])c(OC([H])([H])C3([H])C(=O)N(c4c([H])c(OC([H])([H])[H])c(N(C(=O)N5C([H])([H])C([H])([H])C([H])([H])C([H])(n6nc(-c7c([H])c([H])c(Oc8c([H])c([H])c(F)c([H])c8F)c([H])c7[H])c(C(=O)N([H])[H])c6N([H])[H])C5([H])[H])C([H])([H])[H])c(C([H])([H])[N+]([H])([H])[H])c4[H])C(=O)C([H])([H])C3([H])[H])c([H])c([H])c2C1([H])[H]

$$$$
74:0:0
     RDKit          3D

 84 90  0  0  1  0  0  0  0  0999 V2000
  -28.8750  -21.8250   20.2810 C   0  0  0  0  0  1  0  0  0  0  0  0
  -28.7000  -20.3040   20.2550 N   0  0  0  0  0  2  0  0  0  0  0  0
  -30.1670  -15.9320   20.2040 C   0  0  0  0  0  0  0  0  0  0  0  0
  -30.3270  -13.3440   19.3900 C   0  0  0  0  0  2  0  0  0  0  0  0
  -29.4580  -12.8400   18.1980 C   0  0  0  0  0  2  0  0  0  0  0  0
  -28.0540  -12.4340   18.6660 C   0  0  0  0  0  2  0  0  0  0  0  0
  -27.5110  -13.4410   19.7000 C   0  0  0  0  0  3  0  0  0  0  0  0
  -28.5300  -13.8420   20.7980 C   0  0  0  0  0  2  0  0  0  0  0  0
  -29.6610  -14.5350   20.1200 N   0  0  0  0  0  0  0  0  0  0  0  0
  -31.4060  -15.8200   20.0680 O   0  0  0  0  0  0  0  0  0  0  0  0
  -29.6640  -18.9280   20.2590 C   0  0  0  0  0  0  0  0  0  0  0  0
  -29.4120  -17.3500   20.2520 N   0  0  0  0  0  0  0  0  0  0  0  0
  -30.8670  -19.1860   20.2650 O   0  0  0  0  0  0  0  0  0  0  0  0
  -28.4180  -17.1840   20.2750 H   0  0  0  0  0  0  0  0  0  0  0  0
  -25.1510  -13.9290   20.4850 C   0  0  0  0  0  0  0  0  0  0  0  0
  -24.1030  -13.1340   20.8470 C   0  0  0  0  0  0  0  0  0  0  0  0
  -24.5890  -11.7900   20.8050 C   0  0  0  0  0  0  0  0  0  0  0  0
  -26.2050  -13.0740   20.2300 N   0  0  0  0  0  0  0  0  0  0  0  0
  -25.8820  -11.7780   20.4890 N   0  0  0  0  0  0  0  0  0  0  0  0
  -23.8730  -10.5190   20.9850 C   0  0  0  0  0  0  0  0  0  0  0  0
  -24.2900   -9.5630   21.9370 C   0  0  0  0  0  3  0  0  0  0  0  0
  -23.5690   -8.3610   22.1080 C   0  0  0  0  0  3  0  0  0  0  0  0
  -22.4160   -8.1070   21.3280 C   0  0  0  0  0  0  0  0  0  0  0  0
  -22.0170   -9.0520   20.3670 C   0  0  0  0  0  3  0  0  0  0  0  0
  -22.7400  -10.2450   20.1940 C   0  0  0  0  0  3  0  0  0  0  0  0
  -21.6680   -6.9560   21.4080 O   0  0  0  0  0  0  0  0  0  0  0  0
  -21.5730   -6.2380   22.5740 C   0  0  0  0  0  0  0  0  0  0  0  0
  -21.0450   -6.8030   23.7550 C   0  0  0  0  0  3  0  0  0  0  0  0
  -20.9010   -6.0100   24.9110 C   0  0  0  0  0  3  0  0  0  0  0  0
  -21.2740   -4.6540   24.8860 C   0  0  0  0  0  0  0  0  0  0  0  0
  -21.7950   -4.0880   23.7090 C   0  0  0  0  0  3  0  0  0  0  0  0
  -21.9400   -4.8780   22.5560 C   0  0  0  0  0  0  0  0  0  0  0  0
  -22.4230   -4.3220   21.4180 F   0  0  0  0  0  0  0  0  0  0  0  0
  -21.1290   -3.8890   25.9940 F   0  0  0  0  0  0  0  0  0  0  0  0
  -22.7010  -13.5950   21.1140 C   0  0  0  0  0  0  0  0  0  0  0  0
  -21.9800  -12.8930   21.9810 N   0  0  0  0  0  0  0  0  0  0  0  0
  -22.2540  -14.6150   20.5910 O   0  0  0  0  0  0  0  0  0  0  0  0
  -22.3560  -12.0690   22.4270 H   0  0  0  0  0  0  0  0  0  0  0  0
  -21.0390  -13.1850   22.2040 H   0  0  0  0  0  0  0  0  0  0  0  0
  -25.2930  -15.3040   20.3130 N   0  0  0  0  0  0  0  0  0  0  0  0
  -24.5140  -15.9430   20.4240 H   0  0  0  0  0  0  0  0  0  0  0  0
  -26.1270  -15.7500   19.9550 H   0  0  0  0  0  0  0  0  0  0  0  0
  -27.8830  -23.5720   20.2260 C   0  0  0  0  0  1  0  0  0  0  0  0
  -28.1080  -25.3850   20.3450 O   0  0  0  0  0  0  0  0  0  0  0  0
  -24.6770  -31.8880   23.2500 C   0  0  0  0  0  0  0  0  0  0  0  0
  -27.1650  -26.6700   20.2950 C   0  0  0  0  0  0  0  0  0  0  0  0
  -23.4860  -30.4900   21.6200 C   0  0  0  0  0  3  0  0  0  0  0  0
  -24.9240  -28.8020   20.2230 C   0  0  0  0  0  0  0  0  0  0  0  0
  -26.0710  -30.5770   21.5140 C   0  0  0  0  0  2  0  0  0  0  0  0
  -26.1260  -29.1270   20.8630 C   0  0  0  0  0  0  0  0  0  0  0  0
  -27.2240  -28.0940   20.8620 C   0  0  0  0  0  3  0  0  0  0  0  0
  -25.9290  -26.5890   19.5960 C   0  0  0  0  0  3  0  0  0  0  0  0
  -24.8730  -27.5600   19.5630 C   0  0  0  0  0  3  0  0  0  0  0  0
  -23.7290  -29.7760   20.2570 C   0  0  0  0  0  2  0  0  0  0  0  0
  -24.7710  -31.0220   22.1800 N   0  0  0  0  0  0  0  0  0  0  0  0
  -23.5830  -32.2030   23.7510 O   0  0  0  0  0  0  0  0  0  0  0  0
  -22.7510  -29.5320   22.5980 C   0  0  0  0  0  0  0  0  0  0  0  0
  -21.4180  -29.3800   22.4620 N   0  0  0  0  0  0  0  0  0  0  0  0
  -23.3940  -28.9210   23.4540 O   0  0  0  0  0  0  0  0  0  0  0  0
  -20.9470  -29.9220   21.7520 H   0  0  0  0  0  0  0  0  0  0  0  0
  -18.0250  -28.1670   22.9620 C   0  0  0  0  0  0  0  0  0  0  0  0
  -20.5840  -28.4520   23.2370 C   0  0  0  0  0  3  0  0  0  0  0  0
  -20.6940  -27.0110   22.6830 C   0  0  0  0  0  2  0  0  0  0  0  0
  -19.6010  -26.6740   21.6630 C   0  0  0  0  0  2  0  0  0  0  0  0
  -18.2140  -26.8140   22.2950 C   0  0  0  0  0  2  0  0  0  0  0  0
  -19.1370  -28.9420   23.3900 C   0  0  0  0  0  0  0  0  0  0  0  0
  -18.9020  -30.2030   23.9800 C   0  0  0  0  0  3  0  0  0  0  0  0
  -17.5920  -30.6910   24.1420 C   0  0  0  0  0  3  0  0  0  0  0  0
  -16.4960  -29.9150   23.7250 C   0  0  0  0  0  3  0  0  0  0  0  0
  -16.7140  -28.6540   23.1420 C   0  0  0  0  0  3  0  0  0  0  0  0
  -25.9390  -32.5400   23.8950 C   0  0  0  0  0  3  0  0  0  0  0  0
  -25.6200  -33.9450   24.2250 N   0  0  0  0  0  0  0  0  0  0  0  0
  -25.9280  -35.0080   23.4700 C   0  0  0  0  0  0  0  0  0  0  0  0
  -26.5640  -34.9110   22.4180 O   0  0  0  0  0  0  0  0  0  0  0  0
  -25.0470  -34.0920   25.0430 H   0  0  0  0  0  0  0  0  0  0  0  0
  -24.1750  -36.8030   23.2160 C   0  0  0  0  0  1  0  0  0  0  0  0
  -25.4620  -36.4000   23.9530 C   0  0  0  0  0  3  0  0  0  0  0  0
  -27.6300  -37.3130   24.6660 C   0  0  0  0  0  1  0  0  0  0  0  0
  -26.4810  -37.4600   23.7780 N   0  0  0  0  0  0  0  0  0  0  0  0
  -26.0750  -38.3790   23.9340 H   0  0  0  0  0  0  0  0  0  0  0  0
  -26.4240  -31.7880   25.1970 C   0  0  1  0  0  0  0  0  0  0  0  0
  -25.3100  -31.5780   26.2500 C   0  0  0  0  0  1  0  0  0  0  0  0
  -27.0030  -30.3970   24.8540 C   0  0  0  0  0  1  0  0  0  0  0  0
  -27.5690  -32.5850   25.8650 C   0  0  0  0  0  1  0  0  0  0  0  0
  2 11  1  0
  2  1  1  0
  3 12  1  0
  4  9  1  0
  5  6  1  0
  5  4  1  0
  7  6  1  0
  7 18  1  0
  7  8  1  0
  9  3  1  0
  9  8  1  0
 10  3  2  0
 11 13  2  0
 12 11  1  0
 12 14  1  0
 15 16  2  0
 16 35  1  0
 17 16  1  0
 17 20  1  0
 18 15  1  0
 18 19  1  0
 19 17  2  0
 20 21  1  0
 21 22  2  0
 23 26  1  0
 23 22  1  0
 24 23  2  0
 25 24  1  0
 25 20  2  0
 26 27  1  0
 27 28  1  0
 28 29  2  0
 30 29  1  0
 30 34  1  0
 31 30  2  0
 32 27  2  0
 32 31  1  0
 33 32  1  0
 35 36  1  0
 36 39  1  0
 36 38  1  0
 37 35  2  0
 40 41  1  0
 40 15  1  0
 42 40  1  0
 43 44  1  0
 45 56  2  0
 46 44  1  0
 46 51  1  0
 47 55  1  0
 47 57  1  0
 48 54  1  0
 48 50  1  0
 49 55  1  0
 50 49  1  0
 51 50  2  0
 52 46  2  0
 53 52  1  0
 53 48  2  0
 54 47  1  0
 55 45  1  0
 57 59  2  0
 58 57  1  0
 60 58  1  0
 61 70  2  0
 61 66  1  0
 62 58  1  0
 62 66  1  0
 63 62  1  0
 64 65  1  0
 64 63  1  0
 65 61  1  0
 66 67  2  0
 67 68  1  0
 69 68  2  0
 70 69  1  0
 71 45  1  0
 71 72  1  0
 71 81  1  0
 72 75  1  0
 73 77  1  0
 73 72  1  0
 74 73  2  0
 77 76  1  0
 79 80  1  0
 79 77  1  0
 79 78  1  0
 81 84  1  1
 81 82  1  0
 83 81  1  0
M  ISO  4   3 100  12 100  43 101  44 101
M  END
>  <TORSDO>  (75) 
F 17

>  <SCORE>  (75) 
-16.280

>  <name>  (75) 
74

>  <ligand_id>  (75) 
74

>  <original_smiles>  (75) 
[H]C(=NC(=O)N([H])C(=O)N1C([H])([H])C([H])([H])C([H])([H])C([H])(n2nc(-c3c([H])c([H])c(Oc4c([H])c([H])c(F)c([H])c4F)c([H])c3[H])c(C(=O)N([H])[H])c2N([H])[H])C1([H])[H])C([H])([H])Oc1c([H])c([H])c2c(c1[H])C([H])([H])N(C(=O)C([H])(N([H])C(=O)C([H])(N([H])C([H])([H])[H])C([H])([H])[H])C(C([H])([H])[H])(C([H])([H])[H])C([H])([H])[H])C([H])(C(=O)N([H])C1([H])c3c([H])c([H])c([H])c([H])c3C([H])([H])C([H])([H])C1([H])[H])C2([H])[H]

>  <smiles>  (75) 
[H]C(=NC(=O)N([H])C(=O)N1C([H])([H])C([H])([H])C([H])([H])C([H])(n2nc(-c3c([H])c([H])c(Oc4c([H])c([H])c(F)c([H])c4F)c([H])c3[H])c(C(=O)N([H])[H])c2N([H])[H])C1([H])[H])C([H])([H])Oc1c([H])c([H])c2c(c1[H])C([H])([H])N(C(=O)C([H])(N([H])C(=O)C([H])(N([H])C([H])([H])[H])C([H])([H])[H])C(C([H])([H])[H])(C([H])([H])[H])C([H])([H])[H])C([H])(C(=O)N([H])C1([H])c3c([H])c([H])c([H])c([H])c3C([H])([H])C([H])([H])C1([H])[H])C2([H])[H]

$$$$
75:0:0
     RDKit          3D

 96105  0  0  1  0  0  0  0  0999 V2000
  -29.1520  -23.5450   18.7050 C   0  0  0  0  0  3  0  0  0  0  0  0
  -28.7340  -23.7220   20.0570 C   0  0  0  0  0  0  0  0  0  0  0  0
  -29.4990  -22.2280   18.5010 C   0  0  0  0  0  0  0  0  0  0  0  0
  -28.8800  -22.4370   20.5970 C   0  0  0  0  0  0  0  0  0  0  0  0
  -29.3470  -21.4690   19.6650 N   0  0  0  0  0  0  0  0  0  0  0  0
  -30.7390  -19.3540   19.2680 C   0  0  0  0  0  3  0  0  0  0  0  0
  -30.9860  -17.9480   19.4120 C   0  0  0  0  0  3  0  0  0  0  0  0
  -28.7180  -19.1470   20.5220 C   0  0  0  0  0  3  0  0  0  0  0  0
  -29.6030  -20.0160   19.8260 C   0  0  0  0  0  0  0  0  0  0  0  0
  -30.1220  -17.0910   20.1530 C   0  0  0  0  0  0  0  0  0  0  0  0
  -28.9660  -17.7470   20.6820 C   0  0  0  0  0  0  0  0  0  0  0  0
  -28.0480  -17.0240   21.3690 F   0  0  0  0  0  0  0  0  0  0  0  0
  -30.8700  -14.6630   19.6430 C   0  0  0  0  0  0  0  0  0  0  0  0
  -30.4360  -12.4800   18.4930 C   0  0  0  0  0  2  0  0  0  0  0  0
  -29.3500  -12.6560   17.4100 C   0  0  0  0  0  2  0  0  0  0  0  0
  -27.9420  -12.4950   18.0140 C   0  0  0  0  0  2  0  0  0  0  0  0
  -27.7610  -13.3130   19.3190 C   0  0  0  0  0  3  0  0  0  0  0  0
  -28.9460  -13.1060   20.2850 C   0  0  0  0  0  2  0  0  0  0  0  0
  -30.1800  -13.4690   19.5670 N   0  0  0  0  0  0  0  0  0  0  0  0
  -31.8950  -14.8230   18.9730 O   0  0  0  0  0  0  0  0  0  0  0  0
  -30.6810  -15.4160   21.9060 C   0  0  0  0  0  1  0  0  0  0  0  0
  -30.4070  -15.6660   20.4800 N   0  0  0  0  0  0  0  0  0  0  0  0
  -25.5180  -13.9200   20.4120 C   0  0  0  0  0  0  0  0  0  0  0  0
  -24.4770  -13.1530   20.8610 C   0  0  0  0  0  0  0  0  0  0  0  0
  -24.8690  -11.7950   20.6540 C   0  0  0  0  0  0  0  0  0  0  0  0
  -26.4790  -13.0310   19.9610 N   0  0  0  0  0  0  0  0  0  0  0  0
  -26.1020  -11.7410   20.1640 N   0  0  0  0  0  0  0  0  0  0  0  0
  -24.1190  -10.5460   20.8390 C   0  0  0  0  0  0  0  0  0  0  0  0
  -24.5610   -9.5420   21.7280 C   0  0  0  0  0  3  0  0  0  0  0  0
  -23.8100   -8.3600   21.9030 C   0  0  0  0  0  3  0  0  0  0  0  0
  -22.6020   -8.1730   21.1890 C   0  0  0  0  0  0  0  0  0  0  0  0
  -22.1790   -9.1650   20.2870 C   0  0  0  0  0  3  0  0  0  0  0  0
  -22.9300  -10.3390   20.1100 C   0  0  0  0  0  3  0  0  0  0  0  0
  -21.8220   -7.0450   21.2740 O   0  0  0  0  0  0  0  0  0  0  0  0
  -21.7050   -6.3370   22.4430 C   0  0  0  0  0  0  0  0  0  0  0  0
  -21.2260   -6.9320   23.6310 C   0  0  0  0  0  3  0  0  0  0  0  0
  -21.0570   -6.1510   24.7910 C   0  0  0  0  0  3  0  0  0  0  0  0
  -21.3560   -4.7770   24.7650 C   0  0  0  0  0  0  0  0  0  0  0  0
  -21.8280   -4.1800   23.5820 C   0  0  0  0  0  3  0  0  0  0  0  0
  -21.9990   -4.9590   22.4240 C   0  0  0  0  0  0  0  0  0  0  0  0
  -22.4330   -4.3750   21.2810 F   0  0  0  0  0  0  0  0  0  0  0  0
  -21.1880   -4.0240   25.8780 F   0  0  0  0  0  0  0  0  0  0  0  0
  -23.1550  -13.6520   21.3690 C   0  0  0  0  0  0  0  0  0  0  0  0
  -22.5420  -12.9260   22.2960 N   0  0  0  0  0  0  0  0  0  0  0  0
  -22.6800  -14.7180   20.9770 O   0  0  0  0  0  0  0  0  0  0  0  0
  -22.9420  -12.0630   22.6330 H   0  0  0  0  0  0  0  0  0  0  0  0
  -21.6590  -13.2380   22.6760 H   0  0  0  0  0  0  0  0  0  0  0  0
  -25.7190  -15.2940   20.3300 N   0  0  0  0  0  0  0  0  0  0  0  0
  -25.0240  -15.9660   20.6290 H   0  0  0  0  0  0  0  0  0  0  0  0
  -26.5650  -15.7280   19.9810 H   0  0  0  0  0  0  0  0  0  0  0  0
  -29.9100  -21.6540   17.3360 O   0  0  0  0  0  0  0  0  0  0  0  0
  -29.9600  -22.3370   16.6750 H   0  0  0  0  0  0  0  0  0  0  0  0
  -28.6220  -22.0450   21.8770 O   0  0  0  0  0  0  0  0  0  0  0  0
  -28.3330  -22.8040   22.3710 H   0  0  0  0  0  0  0  0  0  0  0  0
  -28.1770  -25.0390   20.7370 C   0  0  0  0  0  2  0  0  0  0  0  0
  -28.3890  -26.3910   20.1510 O   0  0  0  0  0  0  0  0  0  0  0  0
  -24.4740  -31.7660   23.0390 C   0  0  0  0  0  0  0  0  0  0  0  0
  -27.2680  -27.2340   20.1080 C   0  0  0  0  0  0  0  0  0  0  0  0
  -23.3420  -30.3090   21.3960 C   0  0  0  0  0  3  0  0  0  0  0  0
  -24.8640  -28.7770   20.0220 C   0  0  0  0  0  0  0  0  0  0  0  0
  -25.8720  -30.6980   21.2530 C   0  0  0  0  0  2  0  0  0  0  0  0
  -26.0060  -29.3120   20.6320 C   0  0  0  0  0  0  0  0  0  0  0  0
  -27.2160  -28.5530   20.6620 C   0  0  0  0  0  3  0  0  0  0  0  0
  -26.1050  -26.7520   19.4750 C   0  0  0  0  0  3  0  0  0  0  0  0
  -24.9150  -27.5040   19.4340 C   0  0  0  0  0  3  0  0  0  0  0  0
  -23.6020  -29.6150   20.0330 C   0  0  0  0  0  2  0  0  0  0  0  0
  -24.5810  -30.9420   21.9540 N   0  0  0  0  0  0  0  0  0  0  0  0
  -23.3720  -32.0200   23.5480 O   0  0  0  0  0  0  0  0  0  0  0  0
  -22.6860  -29.2910   22.3600 C   0  0  0  0  0  0  0  0  0  0  0  0
  -21.3620  -29.1000   22.2310 N   0  0  0  0  0  0  0  0  0  0  0  0
  -23.3690  -28.6750   23.1810 O   0  0  0  0  0  0  0  0  0  0  0  0
  -20.8700  -29.6450   21.5360 H   0  0  0  0  0  0  0  0  0  0  0  0
  -17.9930  -27.8890   22.7530 C   0  0  0  0  0  0  0  0  0  0  0  0
  -20.5530  -28.1560   23.0030 C   0  0  0  0  0  3  0  0  0  0  0  0
  -20.6560  -26.7270   22.4210 C   0  0  0  0  0  2  0  0  0  0  0  0
  -19.5480  -26.4060   21.4140 C   0  0  0  0  0  2  0  0  0  0  0  0
  -18.1700  -26.5450   22.0680 C   0  0  0  0  0  2  0  0  0  0  0  0
  -19.1130  -28.6530   23.1780 C   0  0  0  0  0  0  0  0  0  0  0  0
  -18.8940  -29.9130   23.7770 C   0  0  0  0  0  3  0  0  0  0  0  0
  -17.5890  -30.4090   23.9550 C   0  0  0  0  0  3  0  0  0  0  0  0
  -16.4840  -29.6410   23.5470 C   0  0  0  0  0  3  0  0  0  0  0  0
  -16.6870  -28.3820   22.9520 C   0  0  0  0  0  3  0  0  0  0  0  0
  -25.7260  -32.4430   23.6770 C   0  0  0  0  0  3  0  0  0  0  0  0
  -26.2790  -31.6670   24.9350 C   0  0  1  0  0  0  0  0  0  0  0  0
  -25.1990  -31.3480   25.9960 C   0  0  0  0  0  1  0  0  0  0  0  0
  -26.9310  -30.3310   24.5130 C   0  0  0  0  0  1  0  0  0  0  0  0
  -27.3930  -32.5000   25.6130 C   0  0  0  0  0  1  0  0  0  0  0  0
  -25.3530  -33.8170   24.0400 N   0  0  0  0  0  0  0  0  0  0  0  0
  -25.6200  -34.9000   23.2970 C   0  0  0  0  0  0  0  0  0  0  0  0
  -26.2750  -34.8490   22.2520 O   0  0  0  0  0  0  0  0  0  0  0  0
  -24.7710  -33.9300   24.8570 H   0  0  0  0  0  0  0  0  0  0  0  0
  -23.7950  -36.6080   23.0090 C   0  0  0  0  0  1  0  0  0  0  0  0
  -25.0710  -36.2530   23.7890 C   0  0  0  0  0  3  0  0  0  0  0  0
  -27.1750  -37.2320   24.5940 C   0  0  0  0  0  1  0  0  0  0  0  0
  -26.0470  -37.3610   23.6750 N   0  0  0  0  0  0  0  0  0  0  0  0
  -25.5960  -38.2550   23.8520 H   0  0  0  0  0  0  0  0  0  0  0  0
  1  2  1  0
  2  4  2  0
  2 55  1  0
  3  1  2  0
  3  5  1  0
  4 53  1  0
  5  9  1  0
  5  4  1  0
  6  7  2  0
  6  9  1  0
  7 10  1  0
  8 11  1  0
  9  8  2  0
 10 22  1  0
 10 11  2  0
 11 12  1  0
 13 22  1  0
 14 19  1  0
 15 16  1  0
 15 14  1  0
 17 16  1  0
 17 26  1  0
 17 18  1  0
 19 13  1  0
 19 18  1  0
 20 13  2  0
 22 21  1  0
 23 24  2  0
 24 43  1  0
 25 28  1  0
 25 24  1  0
 26 27  1  0
 26 23  1  0
 27 25  2  0
 28 29  1  0
 29 30  2  0
 31 34  1  0
 31 30  1  0
 32 31  2  0
 33 32  1  0
 33 28  2  0
 34 35  1  0
 35 36  1  0
 36 37  2  0
 38 37  1  0
 38 42  1  0
 39 38  2  0
 40 35  2  0
 40 39  1  0
 41 40  1  0
 43 44  1  0
 44 46  1  0
 44 47  1  0
 45 43  2  0
 48 23  1  0
 48 49  1  0
 50 48  1  0
 51  3  1  0
 52 51  1  0
 53 54  1  0
 56 55  1  0
 57 68  2  0
 58 56  1  0
 58 63  1  0
 59 67  1  0
 59 69  1  0
 60 66  1  0
 60 62  1  0
 61 67  1  0
 62 63  2  0
 62 61  1  0
 64 58  2  0
 65 64  1  0
 65 60  2  0
 66 59  1  0
 67 57  1  0
 69 71  2  0
 70 69  1  0
 72 70  1  0
 73 82  2  0
 73 78  1  0
 74 70  1  0
 74 78  1  0
 75 74  1  0
 76 77  1  0
 76 75  1  0
 77 73  1  0
 78 79  2  0
 79 80  1  0
 81 80  2  0
 82 81  1  0
 83 57  1  0
 83 88  1  0
 83 84  1  0
 84 87  1  1
 84 85  1  0
 86 84  1  0
 88 91  1  0
 89 93  1  0
 89 88  1  0
 90 89  2  0
 93 92  1  0
 95 93  1  0
 95 96  1  0
 95 94  1  0
M  ISO  4  13 100  22 100  55 101  56 101
M  END
>  <TORSDO>  (76) 
F 20

>  <SCORE>  (76) 
-13.100

>  <name>  (76) 
75

>  <ligand_id>  (76) 
75

>  <original_smiles>  (76) 
[H]Oc1c([H])c(C([H])([H])Oc2c([H])c([H])c3c(c2[H])C([H])([H])N(C(=O)C([H])(N([H])C(=O)C([H])(N([H])C([H])([H])[H])C([H])([H])[H])C(C([H])([H])[H])(C([H])([H])[H])C([H])([H])[H])C([H])(C(=O)N([H])C2([H])c4c([H])c([H])c([H])c([H])c4C([H])([H])C([H])([H])C2([H])[H])C3([H])[H])c(O[H])n1-c1c([H])c([H])c(N(C(=O)N2C([H])([H])C([H])([H])C([H])([H])C([H])(n3nc(-c4c([H])c([H])c(Oc5c([H])c([H])c(F)c([H])c5F)c([H])c4[H])c(C(=O)N([H])[H])c3N([H])[H])C2([H])[H])C([H])([H])[H])c(F)c1[H]

>  <smiles>  (76) 
[H]Oc1c([H])c(C([H])([H])Oc2c([H])c([H])c3c(c2[H])C([H])([H])N(C(=O)C([H])(N([H])C(=O)C([H])(N([H])C([H])([H])[H])C([H])([H])[H])C(C([H])([H])[H])(C([H])([H])[H])C([H])([H])[H])C([H])(C(=O)N([H])C2([H])c4c([H])c([H])c([H])c([H])c4C([H])([H])C([H])([H])C2([H])[H])C3([H])[H])c(O[H])n1-c1c([H])c([H])c(N(C(=O)N2C([H])([H])C([H])([H])C([H])([H])C([H])(n3nc(-c4c([H])c([H])c(Oc5c([H])c([H])c(F)c([H])c5F)c([H])c4[H])c(C(=O)N([H])[H])c3N([H])[H])C2([H])[H])C([H])([H])[H])c(F)c1[H]

$$$$
76:0:0
     RDKit          3D

 97 96  0  0  1  0  0  0  0  0999 V2000
  -28.6980  -27.1200   18.1410 C   0  0  0  0  0  0  0  0  0  0  0  0
  -29.8550  -25.2240   18.3340 C   0  0  0  0  0  0  0  0  0  0  0  0
  -29.7830  -27.6950   19.1720 C   0  0  0  0  0  2  0  0  0  0  0  0
  -30.5000  -26.6000   20.0970 C   0  0  0  0  0  2  0  0  0  0  0  0
  -29.7780  -25.2970   19.8160 C   0  0  0  0  0  3  0  0  0  0  0  0
  -28.7220  -25.7540   17.8640 N   0  0  0  0  0  0  0  0  0  0  0  0
  -27.9290  -27.9350   17.6380 O   0  0  0  0  0  0  0  0  0  0  0  0
  -30.7950  -24.7250   17.7020 O   0  0  0  0  0  0  0  0  0  0  0  0
  -25.1070  -21.9510   17.8540 C   0  0  0  0  0  2  0  0  0  0  0  0
  -25.8920  -23.1260   17.9750 C   0  0  0  0  0  2  0  0  0  0  0  0
  -28.3840  -24.5130   15.9960 C   0  0  0  0  0  1  0  0  0  0  0  0
  -26.3970  -21.9120   18.0250 C   0  0  0  0  0  2  0  0  0  0  0  0
  -27.5800  -24.5410   17.1800 C   0  0  0  0  0  2  0  0  0  0  0  0
  -27.3240  -24.3130   16.9010 C   0  0  0  0  0  2  0  0  0  0  0  0
  -26.9150  -25.7490   15.8580 F   0  0  0  0  0 15  0  0  0  0  0  0
  -28.6760  -15.8500   20.2800 C   0  0  0  0  0  2  0  0  0  0  0  0
  -29.7980  -12.7650   20.7080 C   0  0  0  0  0  2  0  0  0  0  0  0
  -29.7400  -11.2300   20.0740 C   0  0  0  0  0  2  0  0  0  0  0  0
  -28.4930  -10.4120   20.3880 C   0  0  0  0  0  2  0  0  0  0  0  0
  -27.4240  -11.4710   20.6230 C   0  0  0  0  0  3  0  0  0  0  0  0
  -27.8040  -12.8900   21.3770 C   0  0  0  0  0  2  0  0  0  0  0  0
  -28.6370  -14.0470   20.5590 N   0  0  0  0  0  0  0  0  0  0  0  0
  -29.8640  -15.6250   20.8270 O   0  0  0  0  0  1  0  0  0  0  0  0
  -27.1760  -19.5600   18.5660 C   0  0  0  0  0  2  0  0  0  0  0  0
  -27.8460  -17.6640   19.4110 N   0  0  0  0  0  1  0  0  0  0  0  0
  -27.0220  -19.1190   17.4280 O   0  0  0  0  0  0  0  0  0  0  0  0
  -27.2820  -17.1230   18.7700 H   0  0  0  0  0  0  0  0  0  0  0  0
  -24.9640  -11.4750   20.3010 C   0  0  0  0  0  0  0  0  0  0  0  0
  -23.9190  -10.6610   20.6020 C   0  0  0  0  0  0  0  0  0  0  0  0
  -24.4540   -9.5560   21.3380 C   0  0  0  0  0  0  0  0  0  0  0  0
  -26.0800  -10.9220   20.8740 N   0  0  0  0  0  0  0  0  0  0  0  0
  -25.7750   -9.7430   21.5290 N   0  0  0  0  0  0  0  0  0  0  0  0
  -23.7510   -8.3330   21.8030 C   0  0  0  0  0  0  0  0  0  0  0  0
  -23.5500   -8.0540   23.1760 C   0  0  0  0  0  3  0  0  0  0  0  0
  -22.8240   -6.9090   23.5810 C   0  0  0  0  0  3  0  0  0  0  0  0
  -22.2850   -6.0260   22.6170 C   0  0  0  0  0  0  0  0  0  0  0  0
  -22.4950   -6.2980   21.2540 C   0  0  0  0  0  3  0  0  0  0  0  0
  -23.2210   -7.4330   20.8530 C   0  0  0  0  0  3  0  0  0  0  0  0
  -21.5980   -4.8720   22.9180 O   0  0  0  0  0  0  0  0  0  0  0  0
  -20.6320   -4.8340   23.8940 C   0  0  0  0  0  0  0  0  0  0  0  0
  -19.4070   -5.5220   23.7540 C   0  0  0  0  0  3  0  0  0  0  0  0
  -18.4150   -5.4040   24.7480 C   0  0  0  0  0  3  0  0  0  0  0  0
  -18.6400   -4.5930   25.8760 C   0  0  0  0  0  0  0  0  0  0  0  0
  -19.8550   -3.9010   26.0130 C   0  0  0  0  0  3  0  0  0  0  0  0
  -20.8460   -4.0160   25.0230 C   0  0  0  0  0  0  0  0  0  0  0  0
  -22.0070   -3.3280   25.1520 F   0  0  0  0  0  0  0  0  0  0  0  0
  -17.6850   -4.4760   26.8260 F   0  0  0  0  0  0  0  0  0  0  0  0
  -22.5190  -10.8780   20.1170 C   0  0  0  0  0  0  0  0  0  0  0  0
  -21.5300  -10.4780   20.9060 N   0  0  0  0  0  0  0  0  0  0  0  0
  -22.2970  -11.4740   19.0630 O   0  0  0  0  0  0  0  0  0  0  0  0
  -21.7120  -10.0030   21.7790 H   0  0  0  0  0  0  0  0  0  0  0  0
  -20.5710  -10.6440   20.6310 H   0  0  0  0  0  0  0  0  0  0  0  0
  -25.0770  -12.6380   19.5460 N   0  0  0  0  0  0  0  0  0  0  0  0
  -24.3130  -13.0910   19.0590 H   0  0  0  0  0  0  0  0  0  0  0  0
  -25.9680  -13.0920   19.3930 H   0  0  0  0  0  0  0  0  0  0  0  0
  -29.8590  -23.8580   20.3020 C   0  0  0  0  0  2  0  0  0  0  0  0
  -28.9480  -23.8560   21.4420 O   0  0  0  0  0  0  0  0  0  0  0  0
  -24.9420  -30.3660   25.3760 C   0  0  0  0  0  0  0  0  0  0  0  0
  -27.7520  -24.4070   21.3860 C   0  0  0  0  0  1  0  0  0  0  0  0
  -23.7430  -29.3570   23.3620 C   0  0  0  0  0  3  0  0  0  0  0  0
  -24.3610  -26.7100   22.0920 C   0  0  0  0  0  2  0  0  0  0  0  0
  -26.1020  -28.5610   23.7660 C   0  0  0  0  0  2  0  0  0  0  0  0
  -25.9510  -26.9760   23.1380 C   0  0  0  0  0  2  0  0  0  0  0  0
  -27.5480  -25.8200   22.9630 C   0  0  0  0  0 15  0  0  0  0  0  0
  -26.1160  -24.2890   19.7570 C   0  0  0  0  0 15  0  0  0  0  0  0
  -24.2650  -25.3520   20.4840 C   0  0  0  0  0 15  0  0  0  0  0  0
  -23.6920  -28.2640   22.1230 C   0  0  0  0  0  2  0  0  0  0  0  0
  -24.9660  -29.4760   24.2560 N   0  0  0  0  0  0  0  0  0  0  0  0
  -23.9250  -31.0190   25.6890 O   0  0  0  0  0  0  0  0  0  0  0  0
  -22.5700  -28.8890   24.1780 C   0  0  0  0  0  0  0  0  0  0  0  0
  -21.3530  -29.0470   23.6490 N   0  0  0  0  0  0  0  0  0  0  0  0
  -22.8000  -28.2320   25.1880 O   0  0  0  0  0  0  0  0  0  0  0  0
  -21.2420  -29.6010   22.8100 H   0  0  0  0  0  0  0  0  0  0  0  0
  -17.9780  -28.1290   22.8100 C   0  0  0  0  0  0  0  0  0  0  0  0
  -20.2230  -28.2310   24.0550 C   0  0  0  0  0  3  0  0  0  0  0  0
  -20.4290  -26.7650   23.6040 C   0  0  0  0  0  2  0  0  0  0  0  0
  -19.7940  -26.4640   22.2470 C   0  0  0  0  0  2  0  0  0  0  0  0
  -18.2880  -26.7290   22.3060 C   0  0  0  0  0  2  0  0  0  0  0  0
  -18.9030  -28.8490   23.6080 C   0  0  0  0  0  0  0  0  0  0  0  0
  -18.5920  -30.1650   24.0150 C   0  0  0  0  0  3  0  0  0  0  0  0
  -17.3690  -30.7550   23.6470 C   0  0  0  0  0  3  0  0  0  0  0  0
  -16.4440  -30.0290   22.8780 C   0  0  0  0  0  3  0  0  0  0  0  0
  -16.7480  -28.7200   22.4580 C   0  0  0  0  0  3  0  0  0  0  0  0
  -26.1400  -30.6100   26.3880 C   0  0  0  0  0  3  0  0  0  0  0  0
  -26.4010  -32.0750   26.5830 N   0  0  0  0  0  0  0  0  0  0  0  0
  -27.3970  -32.8070   26.0450 C   0  0  0  0  0  0  0  0  0  0  0  0
  -28.2270  -32.3080   25.2850 O   0  0  0  0  0  0  0  0  0  0  0  0
  -25.7170  -32.5630   27.1420 H   0  0  0  0  0  0  0  0  0  0  0  0
  -26.8290  -35.1540   25.2750 C   0  0  0  0  0  1  0  0  0  0  0  0
  -27.4960  -34.3210   26.3820 C   0  0  0  0  0  3  0  0  0  0  0  0
  -29.5100  -34.3430   27.8010 C   0  0  0  0  0  1  0  0  0  0  0  0
  -28.8840  -34.8100   26.5680 N   0  0  0  0  0  0  0  0  0  0  0  0
  -28.9130  -35.8240   26.5680 H   0  0  0  0  0  0  0  0  0  0  0  0
  -25.8790  -29.9770   27.8220 C   0  0  1  0  0  0  0  0  0  0  0  0
  -24.4990  -30.3500   28.4180 C   0  0  0  0  0  1  0  0  0  0  0  0
  -25.9390  -28.4370   27.7510 C   0  0  0  0  0  1  0  0  0  0  0  0
  -26.9760  -30.4040   28.8310 C   0  0  0  0  0  1  0  0  0  0  0  0
  1  3  1  0
  2  5  1  0
  3  4  1  0
  5  4  1  0
  5 56  1  0
  6  1  1  0
  6  2  1  0
  7  1  2  0
  8  2  2  0
  9 10  1  0
  9 12  1  0
 10 12  1  0
 11 14  1  0
 13  6  1  0
 14 13  1  0
 16 22  1  0
 16 23  1  0
 18 19  1  0
 18 17  1  0
 20 19  1  0
 20 31  1  0
 20 21  1  0
 22 17  1  0
 22 21  1  0
 26 24  2  0
 27 25  1  0
 28 29  2  0
 28 31  1  0
 29 30  1  0
 30 32  2  0
 30 33  1  0
 31 32  1  0
 33 34  1  0
 34 35  2  0
 36 39  1  0
 36 35  1  0
 37 36  2  0
 38 37  1  0
 38 33  2  0
 39 40  1  0
 40 45  1  0
 41 40  2  0
 41 42  1  0
 42 43  2  0
 43 44  1  0
 43 47  1  0
 45 46  1  0
 45 44  2  0
 48 29  1  0
 48 49  1  0
 49 51  1  0
 50 48  2  0
 52 49  1  0
 53 28  1  0
 54 53  1  0
 55 53  1  0
 56 57  1  0
 58 69  2  0
 59 57  1  0
 60 70  1  0
 60 68  1  0
 61 67  1  0
 61 63  1  0
 62 68  1  0
 63 62  1  0
 67 60  1  0
 68 58  1  0
 70 72  2  0
 71 70  1  0
 73 71  1  0
 74 79  1  0
 75 71  1  0
 76 75  1  0
 77 78  1  0
 77 76  1  0
 78 74  1  0
 79 80  2  0
 79 75  1  0
 81 80  1  0
 82 81  2  0
 83 74  2  0
 83 82  1  0
 84 58  1  0
 84 85  1  0
 84 94  1  0
 85 88  1  0
 86 90  1  0
 86 85  1  0
 87 86  2  0
 90 89  1  0
 90 92  1  0
 92 93  1  0
 92 91  1  0
 94 95  1  1
 94 97  1  0
 96 94  1  0
M  ISO  4  16 100  25 100  56 101  57 101
M  END
>  <TORSDO>  (77) 
F 18

>  <SCORE>  (77) 
-2.214

>  <name>  (77) 
76

>  <ligand_id>  (77) 
76

>  <original_smiles>  (77) 
[H]c1c([H])c([H])c2c(c1[H])C([H])([H])C([H])([H])C([H])([H])C2([H])N([H])C(=O)C1([H])N(C(=O)C([H])(N([H])C(=O)C([H])(N([H])C([H])([H])[H])C([H])([H])[H])C(C([H])([H])[H])(C([H])([H])[H])C([H])([H])[H])C([H])([H])c2c([H])c(OC([H])([H])C3([H])C(=O)N(c4c([H])c([H])c(C(=O)N([H])C(=O)N5C([H])([H])C([H])([H])C([H])([H])C([H])(n6nc(-c7c([H])c([H])c(Oc8c([H])c([H])c(F)c([H])c8F)c([H])c7[H])c(C(=O)N([H])[H])c6N([H])[H])C5([H])[H])c(F)c4[H])C(=O)C([H])([H])C3([H])[H])c([H])c([H])c2C1([H])[H]

>  <smiles>  (77) 
[H]c1c([H])c([H])c2c(c1[H])C([H])([H])C([H])([H])C([H])([H])C2([H])N([H])C(=O)C1([H])N(C(=O)C([H])(N([H])C(=O)C([H])(N([H])C([H])([H])[H])C([H])([H])[H])C(C([H])([H])[H])(C([H])([H])[H])C([H])([H])[H])C([H])([H])c2c([H])c(OC([H])([H])C3([H])C(=O)N(c4c([H])c([H])c(C(=O)N([H])C(=O)N5C([H])([H])C([H])([H])C([H])([H])C([H])(n6nc(-c7c([H])c([H])c(Oc8c([H])c([H])c(F)c([H])c8F)c([H])c7[H])c(C(=O)N([H])[H])c6N([H])[H])C5([H])[H])c(F)c4[H])C(=O)C([H])([H])C3([H])[H])c([H])c([H])c2C1([H])[H]

$$$$
77:0:0
     RDKit          3D

 97106  0  0  1  0  0  0  0  0999 V2000
  -31.0250  -21.9080   21.3890 C   0  0  0  0  0  0  0  0  0  0  0  0
  -31.1420  -23.4030   21.7210 C   0  0  0  0  0  2  0  0  0  0  0  0
  -29.8970  -24.2320   21.3850 C   0  0  0  0  0  2  0  0  0  0  0  0
  -29.2190  -22.4410   19.7570 C   0  0  0  0  0  2  0  0  0  0  0  0
  -29.4980  -24.0050   19.9320 C   0  0  0  0  0  3  0  0  0  0  0  0
  -30.1930  -21.4780   20.3970 N   0  0  0  0  0  0  0  0  0  0  0  0
  -31.7380  -21.1400   22.0460 O   0  0  0  0  0  0  0  0  0  0  0  0
  -28.9780  -19.2960   20.6090 C   0  0  0  0  0  3  0  0  0  0  0  0
  -31.1900  -17.8150   19.7410 C   0  0  0  0  0  3  0  0  0  0  0  0
  -28.9480  -17.8690   20.6360 C   0  0  0  0  0  0  0  0  0  0  0  0
  -30.1170  -20.0230   20.1870 C   0  0  0  0  0  0  0  0  0  0  0  0
  -30.0670  -17.0860   20.2220 C   0  0  0  0  0  0  0  0  0  0  0  0
  -31.2200  -19.2460   19.7200 C   0  0  0  0  0  0  0  0  0  0  0  0
  -27.6850  -17.1940   21.1430 C   0  0  0  0  0  1  0  0  0  0  0  0
  -30.7100  -14.6080   19.7250 C   0  0  0  0  0  0  0  0  0  0  0  0
  -30.3590  -12.4290   18.5840 C   0  0  0  0  0  2  0  0  0  0  0  0
  -29.2990  -12.6360   17.4790 C   0  0  0  0  0  2  0  0  0  0  0  0
  -27.8730  -12.4830   18.0440 C   0  0  0  0  0  2  0  0  0  0  0  0
  -27.6600  -13.2880   19.3540 C   0  0  0  0  0  3  0  0  0  0  0  0
  -28.8190  -13.0460   20.3470 C   0  0  0  0  0  2  0  0  0  0  0  0
  -30.0750  -13.3950   19.6620 N   0  0  0  0  0  0  0  0  0  0  0  0
  -31.8170  -14.7820   19.2070 O   0  0  0  0  0  0  0  0  0  0  0  0
  -29.9710  -15.6250   20.2670 N   0  0  0  0  0  0  0  0  0  0  0  0
  -29.1430  -15.2820   20.7250 H   0  0  0  0  0  0  0  0  0  0  0  0
  -25.3580  -13.9000   20.3180 C   0  0  0  0  0  0  0  0  0  0  0  0
  -24.3190  -13.1320   20.7700 C   0  0  0  0  0  0  0  0  0  0  0  0
  -24.7500  -11.7760   20.6450 C   0  0  0  0  0  0  0  0  0  0  0  0
  -26.3580  -13.0130   19.9560 N   0  0  0  0  0  0  0  0  0  0  0  0
  -26.0020  -11.7280   20.2080 N   0  0  0  0  0  0  0  0  0  0  0  0
  -24.0210  -10.5200   20.8590 C   0  0  0  0  0  0  0  0  0  0  0  0
  -24.4760   -9.5500   21.7780 C   0  0  0  0  0  3  0  0  0  0  0  0
  -23.7480   -8.3570   21.9790 C   0  0  0  0  0  3  0  0  0  0  0  0
  -22.5510   -8.1250   21.2600 C   0  0  0  0  0  0  0  0  0  0  0  0
  -22.1160   -9.0850   20.3280 C   0  0  0  0  0  3  0  0  0  0  0  0
  -22.8430  -10.2690   20.1250 C   0  0  0  0  0  3  0  0  0  0  0  0
  -21.7930   -6.9850   21.3720 O   0  0  0  0  0  0  0  0  0  0  0  0
  -21.6970   -6.2980   22.5550 C   0  0  0  0  0  0  0  0  0  0  0  0
  -21.2360   -6.9140   23.7390 C   0  0  0  0  0  3  0  0  0  0  0  0
  -21.0870   -6.1530   24.9150 C   0  0  0  0  0  3  0  0  0  0  0  0
  -21.3880   -4.7770   24.9090 C   0  0  0  0  0  0  0  0  0  0  0  0
  -21.8410   -4.1610   23.7290 C   0  0  0  0  0  3  0  0  0  0  0  0
  -21.9920   -4.9200   22.5550 C   0  0  0  0  0  0  0  0  0  0  0  0
  -22.4090   -4.3180   21.4150 F   0  0  0  0  0  0  0  0  0  0  0  0
  -21.2370   -4.0440   26.0360 F   0  0  0  0  0  0  0  0  0  0  0  0
  -22.9650  -13.6210   21.1970 C   0  0  0  0  0  0  0  0  0  0  0  0
  -22.3230  -12.9170   22.1230 N   0  0  0  0  0  0  0  0  0  0  0  0
  -22.4910  -14.6630   20.7460 O   0  0  0  0  0  0  0  0  0  0  0  0
  -22.7230  -12.0750   22.5100 H   0  0  0  0  0  0  0  0  0  0  0  0
  -21.4190  -13.2260   22.4500 H   0  0  0  0  0  0  0  0  0  0  0  0
  -25.5240  -15.2710   20.1620 N   0  0  0  0  0  0  0  0  0  0  0  0
  -24.7650  -15.9210   20.3340 H   0  0  0  0  0  0  0  0  0  0  0  0
  -26.3100  -15.6990   19.6880 H   0  0  0  0  0  0  0  0  0  0  0  0
  -32.3670  -19.8750   19.2350 N   0  0  0  0  0  0  0  0  0  0  0  0
  -33.2220  -19.3320   19.1500 H   0  0  0  0  0  0  0  0  0  0  0  0
  -32.5390  -20.8400   19.4920 H   0  0  0  0  0  0  0  0  0  0  0  0
  -28.3480  -25.0050   19.4850 C   0  0  0  0  0  2  0  0  0  0  0  0
  -28.5140  -26.4590   19.7070 O   0  0  0  0  0  0  0  0  0  0  0  0
  -24.5790  -31.5400   22.9900 C   0  0  0  0  0  0  0  0  0  0  0  0
  -27.3570  -27.2550   19.7030 C   0  0  0  0  0  0  0  0  0  0  0  0
  -23.4260  -30.1900   21.2760 C   0  0  0  0  0  3  0  0  0  0  0  0
  -24.9300  -28.7700   19.7770 C   0  0  0  0  0  0  0  0  0  0  0  0
  -25.9510  -30.6100   21.1130 C   0  0  0  0  0  2  0  0  0  0  0  0
  -26.0810  -29.2720   20.3960 C   0  0  0  0  0  0  0  0  0  0  0  0
  -27.2970  -28.5280   20.3490 C   0  0  0  0  0  3  0  0  0  0  0  0
  -26.1760  -26.8050   19.0660 C   0  0  0  0  0  3  0  0  0  0  0  0
  -24.9780  -27.5400   19.1040 C   0  0  0  0  0  3  0  0  0  0  0  0
  -23.6640  -29.5940   19.8640 C   0  0  0  0  0  2  0  0  0  0  0  0
  -24.6710  -30.7940   21.8520 N   0  0  0  0  0  0  0  0  0  0  0  0
  -23.4870  -31.7510   23.5380 O   0  0  0  0  0  0  0  0  0  0  0  0
  -22.7990  -29.1010   22.1800 C   0  0  0  0  0  0  0  0  0  0  0  0
  -21.4720  -28.9150   22.0710 N   0  0  0  0  0  0  0  0  0  0  0  0
  -23.5030  -28.4290   22.9380 O   0  0  0  0  0  0  0  0  0  0  0  0
  -20.9600  -29.5130   21.4370 H   0  0  0  0  0  0  0  0  0  0  0  0
  -18.1120  -27.6940   22.6220 C   0  0  0  0  0  0  0  0  0  0  0  0
  -20.6820  -27.9190   22.7960 C   0  0  0  0  0  3  0  0  0  0  0  0
  -20.7480  -26.5410   22.0990 C   0  0  0  0  0  2  0  0  0  0  0  0
  -19.6000  -26.3080   21.1110 C   0  0  0  0  0  2  0  0  0  0  0  0
  -18.2480  -26.4060   21.8280 C   0  0  0  0  0  2  0  0  0  0  0  0
  -19.2560  -28.4120   23.0640 C   0  0  0  0  0  0  0  0  0  0  0  0
  -19.0740  -29.6200   23.7710 C   0  0  0  0  0  3  0  0  0  0  0  0
  -17.7820  -30.1130   24.0340 C   0  0  0  0  0  3  0  0  0  0  0  0
  -16.6540  -29.3920   23.6080 C   0  0  0  0  0  3  0  0  0  0  0  0
  -16.8200  -28.1830   22.9100 C   0  0  0  0  0  3  0  0  0  0  0  0
  -25.8400  -32.1840   23.6460 C   0  0  0  0  0  3  0  0  0  0  0  0
  -26.3680  -31.3770   24.8960 C   0  0  1  0  0  0  0  0  0  0  0  0
  -25.2750  -31.0700   25.9460 C   0  0  0  0  0  1  0  0  0  0  0  0
  -26.9890  -30.0320   24.4560 C   0  0  0  0  0  1  0  0  0  0  0  0
  -27.4950  -32.1730   25.5960 C   0  0  0  0  0  1  0  0  0  0  0  0
  -25.4890  -33.5590   24.0290 N   0  0  0  0  0  0  0  0  0  0  0  0
  -25.7900  -34.6490   23.3110 C   0  0  0  0  0  0  0  0  0  0  0  0
  -26.4610  -34.6030   22.2750 O   0  0  0  0  0  0  0  0  0  0  0  0
  -24.8950  -33.6650   24.8370 H   0  0  0  0  0  0  0  0  0  0  0  0
  -24.0020  -36.3940   23.0300 C   0  0  0  0  0  1  0  0  0  0  0  0
  -25.2620  -36.0040   23.8190 C   0  0  0  0  0  3  0  0  0  0  0  0
  -27.3710  -36.9300   24.6680 C   0  0  0  0  0  1  0  0  0  0  0  0
  -26.2590  -37.0940   23.7370 N   0  0  0  0  0  0  0  0  0  0  0  0
  -25.8230  -37.9940   23.9180 H   0  0  0  0  0  0  0  0  0  0  0  0
  1  2  1  0
  1  7  2  0
  3  2  1  0
  4  5  1  0
  4  6  1  0
  5 56  1  0
  5  3  1  0
  6  1  1  0
  8 10  1  0
  9 12  1  0
 10 14  1  0
 11  6  1  0
 11  8  2  0
 12 23  1  0
 12 10  2  0
 13  9  2  0
 13 11  1  0
 15 23  1  0
 16 21  1  0
 17 18  1  0
 17 16  1  0
 19 18  1  0
 19 28  1  0
 19 20  1  0
 21 15  1  0
 21 20  1  0
 22 15  2  0
 23 24  1  0
 25 26  2  0
 26 45  1  0
 27 26  1  0
 27 30  1  0
 28 29  1  0
 28 25  1  0
 29 27  2  0
 30 31  1  0
 31 32  2  0
 33 36  1  0
 33 32  1  0
 34 33  2  0
 35 34  1  0
 35 30  2  0
 36 37  1  0
 37 38  1  0
 38 39  2  0
 40 39  1  0
 40 44  1  0
 41 40  2  0
 42 37  2  0
 42 41  1  0
 43 42  1  0
 45 46  1  0
 46 49  1  0
 46 48  1  0
 47 45  2  0
 50 25  1  0
 50 51  1  0
 52 50  1  0
 53 55  1  0
 53 13  1  0
 54 53  1  0
 56 57  1  0
 58 69  2  0
 59 57  1  0
 59 64  1  0
 60 68  1  0
 60 70  1  0
 61 67  1  0
 61 63  1  0
 62 68  1  0
 63 62  1  0
 64 63  2  0
 65 66  1  0
 65 59  2  0
 66 61  2  0
 67 60  1  0
 68 58  1  0
 70 72  2  0
 71 70  1  0
 73 71  1  0
 74 83  2  0
 74 79  1  0
 75 71  1  0
 75 79  1  0
 76 75  1  0
 77 78  1  0
 77 76  1  0
 78 74  1  0
 79 80  2  0
 80 81  1  0
 82 81  2  0
 83 82  1  0
 84 58  1  0
 84 89  1  0
 84 85  1  0
 85 88  1  1
 85 86  1  0
 87 85  1  0
 89 92  1  0
 90 94  1  0
 90 89  1  0
 91 90  2  0
 94 93  1  0
 96 94  1  0
 96 97  1  0
 96 95  1  0
M  ISO  4  15 100  23 100  56 101  57 101
M  END
>  <TORSDO>  (78) 
F 19

>  <SCORE>  (78) 
-12.241

>  <name>  (78) 
77

>  <ligand_id>  (78) 
77

>  <original_smiles>  (78) 
[H]c1c([H])c([H])c2c(c1[H])C([H])([H])C([H])([H])C([H])([H])C2([H])N([H])C(=O)C1([H])N(C(=O)C([H])(N([H])C(=O)C([H])(N([H])C([H])([H])[H])C([H])([H])[H])C(C([H])([H])[H])(C([H])([H])[H])C([H])([H])[H])C([H])([H])c2c([H])c(OC([H])([H])C3([H])C([H])([H])N(c4c([H])c(C([H])([H])[H])c(N([H])C(=O)N5C([H])([H])C([H])([H])C([H])([H])C([H])(n6nc(-c7c([H])c([H])c(Oc8c([H])c([H])c(F)c([H])c8F)c([H])c7[H])c(C(=O)N([H])[H])c6N([H])[H])C5([H])[H])c([H])c4N([H])[H])C(=O)C([H])([H])C3([H])[H])c([H])c([H])c2C1([H])[H]

>  <smiles>  (78) 
[H]c1c([H])c([H])c2c(c1[H])C([H])([H])C([H])([H])C([H])([H])C2([H])N([H])C(=O)C1([H])N(C(=O)C([H])(N([H])C(=O)C([H])(N([H])C([H])([H])[H])C([H])([H])[H])C(C([H])([H])[H])(C([H])([H])[H])C([H])([H])[H])C([H])([H])c2c([H])c(OC([H])([H])C3([H])C([H])([H])N(c4c([H])c(C([H])([H])[H])c(N([H])C(=O)N5C([H])([H])C([H])([H])C([H])([H])C([H])(n6nc(-c7c([H])c([H])c(Oc8c([H])c([H])c(F)c([H])c8F)c([H])c7[H])c(C(=O)N([H])[H])c6N([H])[H])C5([H])[H])c([H])c4N([H])[H])C(=O)C([H])([H])C3([H])[H])c([H])c([H])c2C1([H])[H]

$$$$
78:0:0
     RDKit          3D

 94102  0  0  1  0  0  0  0  0999 V2000
  -30.8540  -19.1690   20.9160 C   0  0  0  0  0  3  0  0  0  0  0  0
  -30.2490  -20.4290   20.7220 C   0  0  0  0  0  3  0  0  0  0  0  0
  -28.8970  -18.0570   20.0060 C   0  0  0  0  0  3  0  0  0  0  0  0
  -30.1980  -17.9660   20.5560 C   0  0  0  0  0  0  0  0  0  0  0  0
  -28.9540  -20.5220   20.1670 C   0  0  0  0  0  0  0  0  0  0  0  0
  -28.2880  -19.3210   19.8150 C   0  0  0  0  0  0  0  0  0  0  0  0
  -27.0430  -19.3850   19.2800 F   0  0  0  0  0  0  0  0  0  0  0  0
  -30.9070  -14.3940   19.9840 C   0  0  0  0  0  0  0  0  0  0  0  0
  -30.4810  -12.1780   18.9800 C   0  0  0  0  0  2  0  0  0  0  0  0
  -29.4910  -12.3060   17.8090 C   0  0  0  0  0  2  0  0  0  0  0  0
  -28.0390  -12.2180   18.3200 C   0  0  0  0  0  2  0  0  0  0  0  0
  -27.7720  -13.1450   19.5360 C   0  0  0  0  0  3  0  0  0  0  0  0
  -28.8800  -13.0210   20.6050 C   0  0  0  0  0  2  0  0  0  0  0  0
  -30.1670  -13.2520   19.9370 N   0  0  0  0  0  0  0  0  0  0  0  0
  -32.0210  -14.4530   19.4530 O   0  0  0  0  0  0  0  0  0  0  0  0
  -30.9100  -16.6500   20.7970 C   0  0  0  0  0  0  0  0  0  0  0  0
  -30.2860  -15.4980   20.4650 N   0  0  0  0  0  0  0  0  0  0  0  0
  -32.0700  -16.6860   21.2240 O   0  0  0  0  0  0  0  0  0  0  0  0
  -29.2830  -15.4830   20.4860 H   0  0  0  0  0  0  0  0  0  0  0  0
  -25.4720  -13.8360   20.4420 C   0  0  0  0  0  0  0  0  0  0  0  0
  -24.3950  -13.1060   20.8640 C   0  0  0  0  0  0  0  0  0  0  0  0
  -24.7780  -11.7350   20.7480 C   0  0  0  0  0  0  0  0  0  0  0  0
  -26.4470  -12.9140   20.1020 N   0  0  0  0  0  0  0  0  0  0  0  0
  -26.0390  -11.6410   20.3420 N   0  0  0  0  0  0  0  0  0  0  0  0
  -23.9980  -10.5060   20.9460 C   0  0  0  0  0  0  0  0  0  0  0  0
  -24.4460   -9.4780   21.8050 C   0  0  0  0  0  3  0  0  0  0  0  0
  -23.6700   -8.3140   21.9920 C   0  0  0  0  0  3  0  0  0  0  0  0
  -22.4320   -8.1710   21.3220 C   0  0  0  0  0  0  0  0  0  0  0  0
  -22.0020   -9.1870   20.4500 C   0  0  0  0  0  3  0  0  0  0  0  0
  -22.7770  -10.3430   20.2610 C   0  0  0  0  0  3  0  0  0  0  0  0
  -21.6230   -7.0650   21.4230 O   0  0  0  0  0  0  0  0  0  0  0  0
  -21.6240   -6.2730   22.5420 C   0  0  0  0  0  0  0  0  0  0  0  0
  -21.3080   -6.7880   23.8190 C   0  0  0  0  0  3  0  0  0  0  0  0
  -21.2520   -5.9230   24.9310 C   0  0  0  0  0  3  0  0  0  0  0  0
  -21.5040   -4.5470   24.7680 C   0  0  0  0  0  0  0  0  0  0  0  0
  -21.8170   -4.0340   23.4980 C   0  0  0  0  0  3  0  0  0  0  0  0
  -21.8720   -4.8940   22.3880 C   0  0  0  0  0  0  0  0  0  0  0  0
  -22.1520   -4.3910   21.1610 F   0  0  0  0  0  0  0  0  0  0  0  0
  -21.4430   -3.7160   25.8360 F   0  0  0  0  0  0  0  0  0  0  0  0
  -23.0510  -13.6450   21.2560 C   0  0  0  0  0  0  0  0  0  0  0  0
  -22.3540  -12.9560   22.1520 N   0  0  0  0  0  0  0  0  0  0  0  0
  -22.6330  -14.7100   20.8040 O   0  0  0  0  0  0  0  0  0  0  0  0
  -22.7090  -12.0910   22.5340 H   0  0  0  0  0  0  0  0  0  0  0  0
  -21.4560  -13.2990   22.4610 H   0  0  0  0  0  0  0  0  0  0  0  0
  -25.6900  -15.2030   20.2970 N   0  0  0  0  0  0  0  0  0  0  0  0
  -24.9390  -15.8710   20.4410 H   0  0  0  0  0  0  0  0  0  0  0  0
  -26.4950  -15.6080   19.8370 H   0  0  0  0  0  0  0  0  0  0  0  0
  -28.2990  -21.7550   19.9670 N   0  0  0  0  0  0  0  0  0  0  0  0
  -27.3710  -21.6980   19.5520 H   0  0  0  0  0  0  0  0  0  0  0  0
  -29.0490  -22.9910   19.6790 C   0  0  0  0  0  2  0  0  0  0  0  0
  -28.2580  -24.2930   19.9290 C   0  0  0  0  0  0  0  0  0  0  0  0
  -27.2200  -24.2910   20.6030 O   0  0  0  0  0  0  0  0  0  0  0  0
  -28.8200  -25.5790   19.2770 C   0  0  0  0  0  2  0  0  0  0  0  0
  -28.6180  -26.7630   20.0700 O   0  0  0  0  0  0  0  0  0  0  0  0
  -24.5850  -31.7110   23.1720 C   0  0  0  0  0  0  0  0  0  0  0  0
  -27.4200  -27.4470   20.0090 C   0  0  0  0  0  0  0  0  0  0  0  0
  -23.4660  -30.3690   21.4210 C   0  0  0  0  0  3  0  0  0  0  0  0
  -24.9990  -28.9140   19.9950 C   0  0  0  0  0  0  0  0  0  0  0  0
  -25.9910  -30.7690   21.3440 C   0  0  0  0  0  2  0  0  0  0  0  0
  -26.1230  -29.4290   20.6500 C   0  0  0  0  0  0  0  0  0  0  0  0
  -27.3350  -28.7040   20.6520 C   0  0  0  0  0  3  0  0  0  0  0  0
  -26.2730  -26.9480   19.3480 C   0  0  0  0  0  3  0  0  0  0  0  0
  -25.0670  -27.6710   19.3440 C   0  0  0  0  0  3  0  0  0  0  0  0
  -23.7410  -29.7510   20.0260 C   0  0  0  0  0  2  0  0  0  0  0  0
  -24.6960  -30.9610   22.0400 N   0  0  0  0  0  0  0  0  0  0  0  0
  -23.4780  -31.9440   23.6790 O   0  0  0  0  0  0  0  0  0  0  0  0
  -22.7920  -29.2960   22.3070 C   0  0  0  0  0  0  0  0  0  0  0  0
  -21.4650  -29.1510   22.1660 N   0  0  0  0  0  0  0  0  0  0  0  0
  -23.4600  -28.6010   23.0770 O   0  0  0  0  0  0  0  0  0  0  0  0
  -20.9880  -29.7700   21.5250 H   0  0  0  0  0  0  0  0  0  0  0  0
  -18.0520  -28.0710   22.6530 C   0  0  0  0  0  0  0  0  0  0  0  0
  -20.6250  -28.1810   22.8670 C   0  0  0  0  0  3  0  0  0  0  0  0
  -20.6400  -26.8100   22.1510 C   0  0  0  0  0  2  0  0  0  0  0  0
  -19.4950  -26.6410   21.1470 C   0  0  0  0  0  2  0  0  0  0  0  0
  -18.1420  -26.7870   21.8460 C   0  0  0  0  0  2  0  0  0  0  0  0
  -19.2190  -28.7350   23.1180 C   0  0  0  0  0  0  0  0  0  0  0  0
  -19.0810  -29.9460   23.8310 C   0  0  0  0  0  3  0  0  0  0  0  0
  -17.8060  -30.4870   24.0880 C   0  0  0  0  0  3  0  0  0  0  0  0
  -16.6550  -29.8180   23.6390 C   0  0  0  0  0  3  0  0  0  0  0  0
  -16.7790  -28.6130   22.9250 C   0  0  0  0  0  3  0  0  0  0  0  0
  -25.8340  -32.3300   23.8720 C   0  0  0  0  0  3  0  0  0  0  0  0
  -26.2650  -31.5540   25.1760 C   0  0  1  0  0  0  0  0  0  0  0  0
  -25.1110  -31.3250   26.1780 C   0  0  0  0  0  1  0  0  0  0  0  0
  -26.8550  -30.1710   24.8160 C   0  0  0  0  0  1  0  0  0  0  0  0
  -27.3870  -32.3330   25.9050 C   0  0  0  0  0  1  0  0  0  0  0  0
  -25.5180  -33.7310   24.1830 N   0  0  0  0  0  0  0  0  0  0  0  0
  -25.8910  -34.7800   23.4370 C   0  0  0  0  0  0  0  0  0  0  0  0
  -26.6100  -34.6700   22.4390 O   0  0  0  0  0  0  0  0  0  0  0  0
  -24.8930  -33.8920   24.9580 H   0  0  0  0  0  0  0  0  0  0  0  0
  -24.1810  -36.5710   22.9970 C   0  0  0  0  0  1  0  0  0  0  0  0
  -25.3860  -36.1720   23.8650 C   0  0  0  0  0  3  0  0  0  0  0  0
  -27.4780  -37.0630   24.7910 C   0  0  0  0  0  1  0  0  0  0  0  0
  -26.4250  -37.2230   23.7920 N   0  0  0  0  0  0  0  0  0  0  0  0
  -26.0140  -38.1450   23.9120 H   0  0  0  0  0  0  0  0  0  0  0  0
  2  1  1  0
  3  4  1  0
  4 16  1  0
  4  1  2  0
  5  2  2  0
  6  3  2  0
  6  5  1  0
  7  6  1  0
  8 17  1  0
  9 14  1  0
 10 11  1  0
 10  9  1  0
 12 11  1  0
 12 23  1  0
 12 13  1  0
 14  8  1  0
 14 13  1  0
 15  8  2  0
 16 18  2  0
 17 19  1  0
 17 16  1  0
 20 21  2  0
 21 40  1  0
 22 21  1  0
 22 25  1  0
 23 24  1  0
 23 20  1  0
 24 22  2  0
 25 26  1  0
 26 27  2  0
 28 31  1  0
 28 27  1  0
 29 28  2  0
 30 29  1  0
 30 25  2  0
 31 32  1  0
 32 33  1  0
 33 34  2  0
 35 34  1  0
 35 39  1  0
 36 35  2  0
 37 32  2  0
 37 36  1  0
 38 37  1  0
 40 41  1  0
 41 44  1  0
 41 43  1  0
 42 40  2  0
 45 46  1  0
 45 20  1  0
 47 45  1  0
 48  5  1  0
 49 48  1  0
 50 51  1  0
 50 48  1  0
 51 52  2  0
 53 51  1  0
 53 54  1  0
 55 66  2  0
 56 54  1  0
 56 61  1  0
 57 65  1  0
 57 67  1  0
 58 64  1  0
 58 60  1  0
 59 65  1  0
 60 61  2  0
 60 59  1  0
 62 56  2  0
 63 62  1  0
 63 58  2  0
 64 57  1  0
 65 55  1  0
 67 69  2  0
 68 67  1  0
 70 68  1  0
 71 80  2  0
 71 76  1  0
 72 68  1  0
 72 76  1  0
 73 72  1  0
 74 75  1  0
 74 73  1  0
 75 71  1  0
 76 77  2  0
 77 78  1  0
 79 78  2  0
 80 79  1  0
 81 55  1  0
 81 86  1  0
 81 82  1  0
 82 85  1  1
 82 83  1  0
 84 82  1  0
 86 89  1  0
 87 91  1  0
 87 86  1  0
 88 87  2  0
 91 90  1  0
 93 91  1  0
 93 94  1  0
 93 92  1  0
M  ISO  4   8 100  17 100  53 101  54 101
M  END
>  <TORSDO>  (79) 
F 20

>  <SCORE>  (79) 
-13.779

>  <name>  (79) 
78

>  <ligand_id>  (79) 
78

>  <original_smiles>  (79) 
[H]c1c([H])c([H])c2c(c1[H])C([H])([H])C([H])([H])C([H])([H])C2([H])N([H])C(=O)C1([H])N(C(=O)C([H])(N([H])C(=O)C([H])(N([H])C([H])([H])[H])C([H])([H])[H])C(C([H])([H])[H])(C([H])([H])[H])C([H])([H])[H])C([H])([H])c2c([H])c(OC([H])([H])C(=O)C([H])([H])N([H])c3c([H])c([H])c(C(=O)N([H])C(=O)N4C([H])([H])C([H])([H])C([H])([H])C([H])(n5nc(-c6c([H])c([H])c(Oc7c([H])c([H])c(F)c([H])c7F)c([H])c6[H])c(C(=O)N([H])[H])c5N([H])[H])C4([H])[H])c([H])c3F)c([H])c([H])c2C1([H])[H]

>  <smiles>  (79) 
[H]c1c([H])c([H])c2c(c1[H])C([H])([H])C([H])([H])C([H])([H])C2([H])N([H])C(=O)C1([H])N(C(=O)C([H])(N([H])C(=O)C([H])(N([H])C([H])([H])[H])C([H])([H])[H])C(C([H])([H])[H])(C([H])([H])[H])C([H])([H])[H])C([H])([H])c2c([H])c(OC([H])([H])C(=O)C([H])([H])N([H])c3c([H])c([H])c(C(=O)N([H])C(=O)N4C([H])([H])C([H])([H])C([H])([H])C([H])(n5nc(-c6c([H])c([H])c(Oc7c([H])c([H])c(F)c([H])c7F)c([H])c6[H])c(C(=O)N([H])[H])c5N([H])[H])C4([H])[H])c([H])c3F)c([H])c([H])c2C1([H])[H]

$$$$
79:0:0
     RDKit          3D

 94102  0  0  1  0  0  0  0  0999 V2000
  -30.4440  -20.9420   20.1620 C   0  0  0  0  0  3  0  0  0  0  0  0
  -28.2290  -20.0440   20.3390 C   0  0  0  0  0  3  0  0  0  0  0  0
  -30.1440  -18.4500   20.3590 C   0  0  0  0  0  0  0  0  0  0  0  0
  -30.9800  -19.6170   20.2030 C   0  0  0  0  0  0  0  0  0  0  0  0
  -29.0570  -21.2000   20.2420 C   0  0  0  0  0  0  0  0  0  0  0  0
  -28.7480  -18.7130   20.4050 C   0  0  0  0  0  0  0  0  0  0  0  0
  -32.4950  -19.5120   20.0640 C   0  0  0  0  0  1  0  0  0  0  0  0
  -27.8800  -17.6790   20.5310 F   0  0  0  0  0  0  0  0  0  0  0  0
  -30.7300  -14.6540   20.0350 C   0  0  0  0  0  0  0  0  0  0  0  0
  -30.3270  -12.4320   18.9880 C   0  0  0  0  0  2  0  0  0  0  0  0
  -29.3250  -12.5430   17.8220 C   0  0  0  0  0  2  0  0  0  0  0  0
  -27.8840  -12.3960   18.3440 C   0  0  0  0  0  2  0  0  0  0  0  0
  -27.6000  -13.2890   19.5830 C   0  0  0  0  0  3  0  0  0  0  0  0
  -28.7260  -13.2000   20.6360 C   0  0  0  0  0  2  0  0  0  0  0  0
  -29.9890  -13.5010   19.9520 N   0  0  0  0  0  0  0  0  0  0  0  0
  -31.9000  -14.6360   19.6420 O   0  0  0  0  0  0  0  0  0  0  0  0
  -30.7460  -17.0370   20.6070 C   0  0  0  0  0  0  0  0  0  0  0  0
  -30.1050  -15.8540   20.3070 N   0  0  0  0  0  0  0  0  0  0  0  0
  -31.8790  -17.0170   21.1060 O   0  0  0  0  0  0  0  0  0  0  0  0
  -29.1020  -15.8900   20.2280 H   0  0  0  0  0  0  0  0  0  0  0  0
  -25.2750  -13.9000   20.4790 C   0  0  0  0  0  0  0  0  0  0  0  0
  -24.2200  -13.1340   20.8910 C   0  0  0  0  0  0  0  0  0  0  0  0
  -24.6560  -11.7760   20.7980 C   0  0  0  0  0  0  0  0  0  0  0  0
  -26.2870  -13.0100   20.1550 N   0  0  0  0  0  0  0  0  0  0  0  0
  -25.9240  -11.7260   20.4120 N   0  0  0  0  0  0  0  0  0  0  0  0
  -23.9180  -10.5220   21.0000 C   0  0  0  0  0  0  0  0  0  0  0  0
  -24.3740   -9.5310   21.8970 C   0  0  0  0  0  3  0  0  0  0  0  0
  -23.6370   -8.3430   22.0890 C   0  0  0  0  0  3  0  0  0  0  0  0
  -22.4280   -8.1360   21.3830 C   0  0  0  0  0  0  0  0  0  0  0  0
  -21.9900   -9.1160   20.4730 C   0  0  0  0  0  3  0  0  0  0  0  0
  -22.7280  -10.2940   20.2790 C   0  0  0  0  0  3  0  0  0  0  0  0
  -21.6590   -7.0030   21.4850 O   0  0  0  0  0  0  0  0  0  0  0  0
  -21.6370   -6.2490   22.6310 C   0  0  0  0  0  0  0  0  0  0  0  0
  -21.2470   -6.7940   23.8740 C   0  0  0  0  0  3  0  0  0  0  0  0
  -21.1720   -5.9670   25.0130 C   0  0  0  0  0  3  0  0  0  0  0  0
  -21.4770   -4.5960   24.9100 C   0  0  0  0  0  0  0  0  0  0  0  0
  -21.8580   -4.0510   23.6720 C   0  0  0  0  0  3  0  0  0  0  0  0
  -21.9350   -4.8740   22.5350 C   0  0  0  0  0  0  0  0  0  0  0  0
  -22.2830   -4.3390   21.3400 F   0  0  0  0  0  0  0  0  0  0  0  0
  -21.3970   -3.8000   26.0010 F   0  0  0  0  0  0  0  0  0  0  0  0
  -22.8500  -13.6270   21.2590 C   0  0  0  0  0  0  0  0  0  0  0  0
  -22.1610  -12.9180   22.1470 N   0  0  0  0  0  0  0  0  0  0  0  0
  -22.4040  -14.6760   20.7960 O   0  0  0  0  0  0  0  0  0  0  0  0
  -22.5370  -12.0690   22.5420 H   0  0  0  0  0  0  0  0  0  0  0  0
  -21.2450  -13.2310   22.4360 H   0  0  0  0  0  0  0  0  0  0  0  0
  -25.4530  -15.2720   20.3280 N   0  0  0  0  0  0  0  0  0  0  0  0
  -24.7140  -15.9380   20.5210 H   0  0  0  0  0  0  0  0  0  0  0  0
  -26.3040  -15.7140   20.0030 H   0  0  0  0  0  0  0  0  0  0  0  0
  -28.9360  -23.8180   20.2750 C   0  0  0  0  0  0  0  0  0  0  0  0
  -28.4550  -22.5360   20.1450 N   0  0  0  0  0  0  0  0  0  0  0  0
  -30.0810  -24.0750   20.6620 O   0  0  0  0  0  0  0  0  0  0  0  0
  -27.4700  -22.5230   19.9200 H   0  0  0  0  0  0  0  0  0  0  0  0
  -27.9390  -24.9840   19.8970 C   0  0  0  0  0  2  0  0  0  0  0  0
  -28.2710  -26.4040   20.2000 O   0  0  0  0  0  0  0  0  0  0  0  0
  -24.5940  -31.8580   23.2200 C   0  0  0  0  0  0  0  0  0  0  0  0
  -27.1840  -27.3010   20.1320 C   0  0  0  0  0  0  0  0  0  0  0  0
  -23.3860  -30.4680   21.5790 C   0  0  0  0  0  3  0  0  0  0  0  0
  -24.8300  -28.9360   20.1360 C   0  0  0  0  0  0  0  0  0  0  0  0
  -25.9280  -30.7830   21.3920 C   0  0  0  0  0  2  0  0  0  0  0  0
  -26.0040  -29.4090   20.7360 C   0  0  0  0  0  0  0  0  0  0  0  0
  -27.1860  -28.6030   20.7290 C   0  0  0  0  0  3  0  0  0  0  0  0
  -25.9850  -26.9050   19.4880 C   0  0  0  0  0  3  0  0  0  0  0  0
  -24.8230  -27.6890   19.5040 C   0  0  0  0  0  3  0  0  0  0  0  0
  -23.5950  -29.8080   20.1940 C   0  0  0  0  0  2  0  0  0  0  0  0
  -24.6560  -31.0530   22.1200 N   0  0  0  0  0  0  0  0  0  0  0  0
  -23.5110  -32.1330   23.7570 O   0  0  0  0  0  0  0  0  0  0  0  0
  -22.7270  -29.4430   22.5320 C   0  0  0  0  0  0  0  0  0  0  0  0
  -21.4000  -29.2700   22.4130 N   0  0  0  0  0  0  0  0  0  0  0  0
  -23.4090  -28.8090   23.3420 O   0  0  0  0  0  0  0  0  0  0  0  0
  -20.9100  -29.8350   21.7330 H   0  0  0  0  0  0  0  0  0  0  0  0
  -18.0190  -28.0930   22.9360 C   0  0  0  0  0  0  0  0  0  0  0  0
  -20.5810  -28.3310   23.1830 C   0  0  0  0  0  3  0  0  0  0  0  0
  -20.6660  -26.9050   22.5940 C   0  0  0  0  0  2  0  0  0  0  0  0
  -19.5520  -26.5990   21.5880 C   0  0  0  0  0  2  0  0  0  0  0  0
  -18.1780  -26.7480   22.2470 C   0  0  0  0  0  2  0  0  0  0  0  0
  -19.1470  -28.8430   23.3610 C   0  0  0  0  0  0  0  0  0  0  0  0
  -18.9430  -30.1020   23.9650 C   0  0  0  0  0  3  0  0  0  0  0  0
  -17.6440  -30.6120   24.1480 C   0  0  0  0  0  3  0  0  0  0  0  0
  -16.5300  -29.8590   23.7390 C   0  0  0  0  0  3  0  0  0  0  0  0
  -16.7180  -28.6000   23.1390 C   0  0  0  0  0  3  0  0  0  0  0  0
  -25.8790  -32.4870   23.8400 C   0  0  0  0  0  3  0  0  0  0  0  0
  -25.5700  -33.8840   24.1740 N   0  0  0  0  0  0  0  0  0  0  0  0
  -25.8960  -34.9400   23.4170 C   0  0  0  0  0  0  0  0  0  0  0  0
  -26.5600  -34.8400   22.3810 O   0  0  0  0  0  0  0  0  0  0  0  0
  -24.9830  -34.0360   24.9830 H   0  0  0  0  0  0  0  0  0  0  0  0
  -24.1690  -36.7350   23.0690 C   0  0  0  0  0  1  0  0  0  0  0  0
  -25.4100  -36.3260   23.8800 C   0  0  0  0  0  3  0  0  0  0  0  0
  -27.5400  -37.2080   24.7220 C   0  0  0  0  0  1  0  0  0  0  0  0
  -26.4420  -37.3800   23.7740 N   0  0  0  0  0  0  0  0  0  0  0  0
  -26.0350  -38.3000   23.9230 H   0  0  0  0  0  0  0  0  0  0  0  0
  -26.3970  -31.7120   25.1120 C   0  0  1  0  0  0  0  0  0  0  0  0
  -25.3050  -31.4690   26.1810 C   0  0  0  0  0  1  0  0  0  0  0  0
  -26.9810  -30.3360   24.7150 C   0  0  0  0  0  1  0  0  0  0  0  0
  -27.5480  -32.5050   25.7750 C   0  0  0  0  0  1  0  0  0  0  0  0
  1  4  2  0
  1  5  1  0
  2  6  1  0
  3  6  2  0
  3 17  1  0
  4  3  1  0
  5  2  2  0
  6  8  1  0
  7  4  1  0
  9 18  1  0
 10 15  1  0
 11 12  1  0
 11 10  1  0
 13 12  1  0
 13 24  1  0
 13 14  1  0
 15  9  1  0
 15 14  1  0
 16  9  2  0
 17 19  2  0
 18 17  1  0
 20 18  1  0
 21 22  2  0
 22 41  1  0
 23 22  1  0
 23 26  1  0
 24 25  1  0
 24 21  1  0
 25 23  2  0
 26 27  1  0
 27 28  2  0
 29 32  1  0
 29 28  1  0
 30 29  2  0
 31 30  1  0
 31 26  2  0
 32 33  1  0
 33 34  1  0
 34 35  2  0
 36 35  1  0
 36 40  1  0
 37 36  2  0
 38 33  2  0
 38 37  1  0
 39 38  1  0
 41 42  1  0
 42 45  1  0
 42 44  1  0
 43 41  2  0
 46 21  1  0
 46 47  1  0
 48 46  1  0
 49 51  2  0
 50  5  1  0
 50 49  1  0
 52 50  1  0
 53 54  1  0
 53 49  1  0
 55 66  2  0
 56 54  1  0
 56 61  1  0
 57 65  1  0
 57 67  1  0
 58 64  1  0
 58 60  1  0
 59 65  1  0
 60 59  1  0
 61 60  2  0
 62 63  1  0
 62 56  2  0
 63 58  2  0
 64 57  1  0
 65 55  1  0
 67 69  2  0
 68 67  1  0
 70 68  1  0
 71 80  2  0
 71 76  1  0
 72 68  1  0
 72 76  1  0
 73 72  1  0
 74 75  1  0
 74 73  1  0
 75 71  1  0
 76 77  2  0
 77 78  1  0
 79 78  2  0
 80 79  1  0
 81 55  1  0
 81 82  1  0
 81 91  1  0
 82 85  1  0
 83 87  1  0
 83 82  1  0
 84 83  2  0
 87 86  1  0
 89 87  1  0
 89 90  1  0
 89 88  1  0
 91 94  1  1
 91 92  1  0
 93 91  1  0
M  ISO  4   9 100  18 100  53 101  54 101
M  END
>  <TORSDO>  (80) 
F 18

>  <SCORE>  (80) 
-14.979

>  <name>  (80) 
79

>  <ligand_id>  (80) 
79

>  <original_smiles>  (80) 
[H]c1c([H])c([H])c2c(c1[H])C([H])([H])C([H])([H])C([H])([H])C2([H])N([H])C(=O)C1([H])N(C(=O)C([H])(N([H])C(=O)C([H])(N([H])C([H])([H])[H])C([H])([H])[H])C(C([H])([H])[H])(C([H])([H])[H])C([H])([H])[H])C([H])([H])c2c([H])c(OC([H])([H])C(=O)N([H])c3c([H])c(F)c(C(=O)N([H])C(=O)N4C([H])([H])C([H])([H])C([H])([H])C([H])(n5nc(-c6c([H])c([H])c(Oc7c([H])c([H])c(F)c([H])c7F)c([H])c6[H])c(C(=O)N([H])[H])c5N([H])[H])C4([H])[H])c(C([H])([H])[H])c3[H])c([H])c([H])c2C1([H])[H]

>  <smiles>  (80) 
[H]c1c([H])c([H])c2c(c1[H])C([H])([H])C([H])([H])C([H])([H])C2([H])N([H])C(=O)C1([H])N(C(=O)C([H])(N([H])C(=O)C([H])(N([H])C([H])([H])[H])C([H])([H])[H])C(C([H])([H])[H])(C([H])([H])[H])C([H])([H])[H])C([H])([H])c2c([H])c(OC([H])([H])C(=O)N([H])c3c([H])c(F)c(C(=O)N([H])C(=O)N4C([H])([H])C([H])([H])C([H])([H])C([H])(n5nc(-c6c([H])c([H])c(Oc7c([H])c([H])c(F)c([H])c7F)c([H])c6[H])c(C(=O)N([H])[H])c5N([H])[H])C4([H])[H])c(C([H])([H])[H])c3[H])c([H])c([H])c2C1([H])[H]

$$$$
80:0:0
     RDKit          3D

 94102  0  0  1  0  0  0  0  0999 V2000
  -28.0360  -21.7060   20.3680 C   0  0  0  0  0  3  0  0  0  0  0  0
  -28.4580  -20.2840   20.2260 C   0  0  0  0  0  0  0  0  0  0  0  0
  -29.8080  -19.8190   19.9190 C   0  0  0  0  0  0  0  0  0  0  0  0
  -28.8110  -22.9450   20.2700 C   0  0  0  0  0  0  0  0  0  0  0  0
  -30.1580  -22.4790   19.9760 C   0  0  0  0  0  0  0  0  0  0  0  0
  -30.5990  -21.0550   19.8250 C   0  0  0  0  0  0  0  0  0  0  0  0
  -31.9220  -20.8800   19.5780 F   0  0  0  0  0  0  0  0  0  0  0  0
  -31.1260  -23.4690   19.8100 N   0  0  0  0  0  0  0  0  0  0  0  0
  -30.9210  -24.3730   20.2220 H   0  0  0  0  0  0  0  0  0  0  0  0
  -32.0900  -23.1720   19.9230 H   0  0  0  0  0  0  0  0  0  0  0  0
  -27.1440  -18.2490   19.6070 C   0  0  0  0  0  2  0  0  0  0  0  0
  -27.3790  -19.3020   20.4030 C   0  0  0  0  0  3  0  0  0  0  0  0
  -28.1490  -24.3460   20.4080 N   0  0  0  0  0  0  0  0  0  0  0  0
  -27.1570  -24.3320   20.6260 H   0  0  0  0  0  0  0  0  0  0  0  0
  -28.6100  -25.9320   20.3360 O   0  0  0  0  0  0  0  0  0  0  0  0
  -24.8860  -31.8190   23.3020 C   0  0  0  0  0  0  0  0  0  0  0  0
  -27.5890  -27.0140   20.3170 C   0  0  0  0  0  0  0  0  0  0  0  0
  -23.7720  -30.4570   21.5810 C   0  0  0  0  0  3  0  0  0  0  0  0
  -25.2870  -28.8810   20.2010 C   0  0  0  0  0  0  0  0  0  0  0  0
  -26.3400  -30.6750   21.5600 C   0  0  0  0  0  2  0  0  0  0  0  0
  -26.4420  -29.2750   20.8890 C   0  0  0  0  0  0  0  0  0  0  0  0
  -27.5870  -28.3610   20.9300 C   0  0  0  0  0  3  0  0  0  0  0  0
  -26.4100  -26.7730   19.5770 C   0  0  0  0  0  3  0  0  0  0  0  0
  -25.2950  -27.6490   19.5290 C   0  0  0  0  0  3  0  0  0  0  0  0
  -24.0670  -29.8010   20.2050 C   0  0  0  0  0  2  0  0  0  0  0  0
  -25.0180  -31.0080   22.2040 N   0  0  0  0  0  0  0  0  0  0  0  0
  -23.7730  -32.0990   23.7770 O   0  0  0  0  0  0  0  0  0  0  0  0
  -23.0330  -29.4420   22.4920 C   0  0  0  0  0  0  0  0  0  0  0  0
  -21.7060  -29.3000   22.3180 N   0  0  0  0  0  0  0  0  0  0  0  0
  -23.6610  -28.7830   23.3250 O   0  0  0  0  0  0  0  0  0  0  0  0
  -21.2530  -29.8840   21.6290 H   0  0  0  0  0  0  0  0  0  0  0  0
  -18.2740  -28.2160   22.7740 C   0  0  0  0  0  0  0  0  0  0  0  0
  -20.8440  -28.3520   23.0330 C   0  0  0  0  0  3  0  0  0  0  0  0
  -20.8780  -26.9570   22.3660 C   0  0  0  0  0  2  0  0  0  0  0  0
  -19.7580  -26.7500   21.3420 C   0  0  0  0  0  2  0  0  0  0  0  0
  -18.3880  -26.9090   22.0060 C   0  0  0  0  0  2  0  0  0  0  0  0
  -19.4270  -28.9010   23.2420 C   0  0  0  0  0  0  0  0  0  0  0  0
  -19.2620  -30.1250   23.9240 C   0  0  0  0  0  3  0  0  0  0  0  0
  -17.9800  -30.6650   24.1400 C   0  0  0  0  0  3  0  0  0  0  0  0
  -16.8430  -29.9760   23.6840 C   0  0  0  0  0  3  0  0  0  0  0  0
  -16.9900  -28.7530   23.0070 C   0  0  0  0  0  3  0  0  0  0  0  0
  -26.1260  -32.4480   24.0080 C   0  0  0  0  0  3  0  0  0  0  0  0
  -26.5700  -31.6550   25.3000 C   0  0  1  0  0  0  0  0  0  0  0  0
  -25.4120  -31.3710   26.2860 C   0  0  0  0  0  1  0  0  0  0  0  0
  -27.2080  -30.2990   24.9240 C   0  0  0  0  0  1  0  0  0  0  0  0
  -27.6540  -32.4560   26.0600 C   0  0  0  0  0  1  0  0  0  0  0  0
  -25.7910  -33.8400   24.3580 N   0  0  0  0  0  0  0  0  0  0  0  0
  -26.1270  -34.9150   23.6330 C   0  0  0  0  0  0  0  0  0  0  0  0
  -26.8130  -34.8400   22.6110 O   0  0  0  0  0  0  0  0  0  0  0  0
  -25.1830  -33.9690   25.1520 H   0  0  0  0  0  0  0  0  0  0  0  0
  -24.3840  -36.7030   23.3070 C   0  0  0  0  0  1  0  0  0  0  0  0
  -25.6240  -36.2920   24.1160 C   0  0  0  0  0  3  0  0  0  0  0  0
  -27.7380  -37.1900   24.9870 C   0  0  0  0  0  1  0  0  0  0  0  0
  -26.6470  -37.3570   24.0310 N   0  0  0  0  0  0  0  0  0  0  0  0
  -26.2280  -38.2710   24.1850 H   0  0  0  0  0  0  0  0  0  0  0  0
  -30.5440  -18.2250   19.8020 C   0  0  0  0  0  2  0  0  0  0  0  0
  -30.9250  -15.3440   19.8420 C   0  0  0  0  0  0  0  0  0  0  0  0
  -30.8420  -12.9110   18.9560 C   0  0  0  0  0  2  0  0  0  0  0  0
  -29.8330  -12.7090   17.7980 C   0  0  0  0  0  2  0  0  0  0  0  0
  -28.4250  -12.4220   18.3460 C   0  0  0  0  0  2  0  0  0  0  0  0
  -28.0520  -13.3710   19.5130 C   0  0  0  0  0  3  0  0  0  0  0  0
  -29.1830  -13.5250   20.5540 C   0  0  0  0  0  2  0  0  0  0  0  0
  -30.3580  -14.0400   19.8320 N   0  0  0  0  0  0  0  0  0  0  0  0
  -32.1180  -15.3520   19.5070 O   0  0  0  0  0  0  0  0  0  0  0  0
  -30.1850  -16.6140   20.0150 N   0  0  0  0  0  0  0  0  0  0  0  0
  -29.2250  -16.4610   20.2810 H   0  0  0  0  0  0  0  0  0  0  0  0
  -25.7770  -13.8920   20.5380 C   0  0  0  0  0  0  0  0  0  0  0  0
  -24.7390  -13.1000   20.9410 C   0  0  0  0  0  0  0  0  0  0  0  0
  -25.1700  -11.7520   20.7480 C   0  0  0  0  0  0  0  0  0  0  0  0
  -26.7720  -13.0280   20.1210 N   0  0  0  0  0  0  0  0  0  0  0  0
  -26.4250  -11.7280   20.3130 N   0  0  0  0  0  0  0  0  0  0  0  0
  -24.4350  -10.4890   20.8960 C   0  0  0  0  0  0  0  0  0  0  0  0
  -24.8280   -9.5100   21.8350 C   0  0  0  0  0  3  0  0  0  0  0  0
  -24.0910   -8.3140   21.9740 C   0  0  0  0  0  3  0  0  0  0  0  0
  -22.9470   -8.0890   21.1720 C   0  0  0  0  0  0  0  0  0  0  0  0
  -22.5730   -9.0560   20.2230 C   0  0  0  0  0  3  0  0  0  0  0  0
  -23.3100  -10.2440   20.0830 C   0  0  0  0  0  3  0  0  0  0  0  0
  -22.1850   -6.9460   21.2200 O   0  0  0  0  0  0  0  0  0  0  0  0
  -21.9510   -6.2860   22.4000 C   0  0  0  0  0  0  0  0  0  0  0  0
  -21.3090   -6.9130   23.4900 C   0  0  0  0  0  3  0  0  0  0  0  0
  -21.0260   -6.1770   24.6580 C   0  0  0  0  0  3  0  0  0  0  0  0
  -21.3760   -4.8150   24.7350 C   0  0  0  0  0  0  0  0  0  0  0  0
  -22.0100   -4.1880   23.6480 C   0  0  0  0  0  3  0  0  0  0  0  0
  -22.2940   -4.9210   22.4820 C   0  0  0  0  0  0  0  0  0  0  0  0
  -22.8860   -4.3070   21.4300 F   0  0  0  0  0  0  0  0  0  0  0  0
  -21.0970   -4.1050   25.8530 F   0  0  0  0  0  0  0  0  0  0  0  0
  -23.3850  -13.5730   21.3830 C   0  0  0  0  0  0  0  0  0  0  0  0
  -22.7330  -12.8260   22.2660 N   0  0  0  0  0  0  0  0  0  0  0  0
  -22.9180  -14.6380   20.9790 O   0  0  0  0  0  0  0  0  0  0  0  0
  -23.1280  -11.9640   22.6110 H   0  0  0  0  0  0  0  0  0  0  0  0
  -21.8280  -13.1200   22.6040 H   0  0  0  0  0  0  0  0  0  0  0  0
  -25.9470  -15.2690   20.4600 N   0  0  0  0  0  0  0  0  0  0  0  0
  -25.2000  -15.9150   20.6900 H   0  0  0  0  0  0  0  0  0  0  0  0
  -26.7470  -15.7220   20.0400 H   0  0  0  0  0  0  0  0  0  0  0  0
  2  1  2  0
  2 12  1  0
  3  2  1  0
  4  1  1  0
  4 13  1  0
  5  4  2  0
  6  3  2  0
  6  5  1  0
  7  6  1  0
  8 10  1  0
  8  5  1  0
  8  9  1  0
 11 12  2  0
 13 14  1  0
 15 13  1  0
 16 27  2  0
 17 15  1  0
 17 22  1  0
 18 26  1  0
 18 28  1  0
 19 25  1  0
 19 21  1  0
 20 26  1  0
 21 22  2  0
 21 20  1  0
 23 17  2  0
 24 23  1  0
 24 19  2  0
 25 18  1  0
 26 16  1  0
 28 30  2  0
 29 28  1  0
 31 29  1  0
 32 41  2  0
 32 37  1  0
 33 29  1  0
 33 37  1  0
 34 33  1  0
 35 36  1  0
 35 34  1  0
 36 32  1  0
 37 38  2  0
 38 39  1  0
 40 39  2  0
 41 40  1  0
 42 16  1  0
 42 47  1  0
 42 43  1  0
 43 46  1  1
 43 44  1  0
 45 43  1  0
 47 50  1  0
 48 52  1  0
 48 47  1  0
 49 48  2  0
 52 51  1  0
 54 52  1  0
 54 55  1  0
 54 53  1  0
 56  3  1  0
 56 65  1  0
 57 65  1  0
 58 63  1  0
 59 60  1  0
 59 58  1  0
 61 60  1  0
 61 70  1  0
 61 62  1  0
 63 57  1  0
 63 62  1  0
 64 57  2  0
 65 66  1  0
 67 68  2  0
 68 87  1  0
 69 72  1  0
 69 68  1  0
 70 71  1  0
 70 67  1  0
 71 69  2  0
 72 73  1  0
 73 74  2  0
 75 78  1  0
 75 74  1  0
 76 75  2  0
 77 76  1  0
 77 72  2  0
 78 79  1  0
 79 84  2  0
 79 80  1  0
 80 81  2  0
 81 82  1  0
 82 86  1  0
 83 82  2  0
 84 83  1  0
 85 84  1  0
 87 88  1  0
 88 91  1  0
 88 90  1  0
 89 87  2  0
 92 67  1  0
 92 93  1  0
 94 92  1  0
M  ISO  4  13 101  15 101  57 100  65 100
M  END
>  <TORSDO>  (81) 
F 20

>  <SCORE>  (81) 
-14.116

>  <name>  (81) 
80

>  <ligand_id>  (81) 
80

>  <original_smiles>  (81) 
[H]C([H])=C([H])c1c([H])c(N([H])Oc2c([H])c([H])c3c(c2[H])C([H])([H])N(C(=O)C([H])(N([H])C(=O)C([H])(N([H])C([H])([H])[H])C([H])([H])[H])C(C([H])([H])[H])(C([H])([H])[H])C([H])([H])[H])C([H])(C(=O)N([H])C2([H])c4c([H])c([H])c([H])c([H])c4C([H])([H])C([H])([H])C2([H])[H])C3([H])[H])c(N([H])[H])c(F)c1C([H])([H])N([H])C(=O)N1C([H])([H])C([H])([H])C([H])([H])C([H])(n2nc(-c3c([H])c([H])c(Oc4c([H])c([H])c(F)c([H])c4F)c([H])c3[H])c(C(=O)N([H])[H])c2N([H])[H])C1([H])[H]

>  <smiles>  (81) 
[H]C([H])=C([H])c1c([H])c(N([H])Oc2c([H])c([H])c3c(c2[H])C([H])([H])N(C(=O)C([H])(N([H])C(=O)C([H])(N([H])C([H])([H])[H])C([H])([H])[H])C(C([H])([H])[H])(C([H])([H])[H])C([H])([H])[H])C([H])(C(=O)N([H])C2([H])c4c([H])c([H])c([H])c([H])c4C([H])([H])C([H])([H])C2([H])[H])C3([H])[H])c(N([H])[H])c(F)c1C([H])([H])N([H])C(=O)N1C([H])([H])C([H])([H])C([H])([H])C([H])(n2nc(-c3c([H])c([H])c(Oc4c([H])c([H])c(F)c([H])c4F)c([H])c3[H])c(C(=O)N([H])[H])c2N([H])[H])C1([H])[H]

$$$$
81:0:0
     RDKit          3D

 97106  0  0  1  0  0  0  0  0999 V2000
  -30.1460  -23.7890   19.7310 C   0  0  0  0  0  3  0  0  0  0  0  0
  -28.9130  -23.8710   20.4430 C   0  0  0  0  0  0  0  0  0  0  0  0
  -28.6120  -22.5400   20.7630 C   0  0  0  0  0  0  0  0  0  0  0  0
  -30.5240  -22.4710   19.6520 C   0  0  0  0  0  0  0  0  0  0  0  0
  -27.4330  -22.0210   21.5270 C   0  0  0  0  0  1  0  0  0  0  0  0
  -29.6000  -21.6420   20.2810 N   0  0  0  0  0  0  0  0  0  0  0  0
  -30.8100  -19.4880   20.9070 C   0  0  0  0  0  3  0  0  0  0  0  0
  -30.8910  -18.0590   20.9810 C   0  0  0  0  0  3  0  0  0  0  0  0
  -28.6270  -19.3340   19.9160 C   0  0  0  0  0  3  0  0  0  0  0  0
  -29.6730  -20.1740   20.3830 C   0  0  0  0  0  0  0  0  0  0  0  0
  -29.8310  -17.2310   20.5230 C   0  0  0  0  0  0  0  0  0  0  0  0
  -28.7070  -17.9090   19.9770 C   0  0  0  0  0  0  0  0  0  0  0  0
  -30.5900  -14.7290   20.4570 C   0  0  0  0  0  0  0  0  0  0  0  0
  -30.4170  -12.4750   19.4120 C   0  0  0  0  0  2  0  0  0  0  0  0
  -29.4890  -12.5890   18.1820 C   0  0  0  0  0  2  0  0  0  0  0  0
  -28.0090  -12.4290   18.5870 C   0  0  0  0  0  2  0  0  0  0  0  0
  -27.6280  -13.2980   19.8150 C   0  0  0  0  0  3  0  0  0  0  0  0
  -28.6710  -13.1530   20.9460 C   0  0  0  0  0  2  0  0  0  0  0  0
  -29.9870  -13.4990   20.3840 N   0  0  0  0  0  0  0  0  0  0  0  0
  -31.7730  -14.8860   20.1390 O   0  0  0  0  0  0  0  0  0  0  0  0
  -29.7390  -15.7780   20.6890 N   0  0  0  0  0  0  0  0  0  0  0  0
  -28.7840  -15.4750   20.8030 H   0  0  0  0  0  0  0  0  0  0  0  0
  -25.2200  -13.9050   20.4820 C   0  0  0  0  0  0  0  0  0  0  0  0
  -24.1460  -13.1340   20.8340 C   0  0  0  0  0  0  0  0  0  0  0  0
  -24.6110  -11.7840   20.8280 C   0  0  0  0  0  0  0  0  0  0  0  0
  -26.2700  -13.0230   20.2780 N   0  0  0  0  0  0  0  0  0  0  0  0
  -25.9070  -11.7430   20.5470 N   0  0  0  0  0  0  0  0  0  0  0  0
  -23.8810  -10.5240   21.0170 C   0  0  0  0  0  0  0  0  0  0  0  0
  -24.2930   -9.5680   21.9710 C   0  0  0  0  0  3  0  0  0  0  0  0
  -23.5630   -8.3730   22.1470 C   0  0  0  0  0  3  0  0  0  0  0  0
  -22.4070   -8.1250   21.3700 C   0  0  0  0  0  0  0  0  0  0  0  0
  -22.0140   -9.0700   20.4050 C   0  0  0  0  0  3  0  0  0  0  0  0
  -22.7450  -10.2560   20.2270 C   0  0  0  0  0  3  0  0  0  0  0  0
  -21.6510   -6.9810   21.4530 O   0  0  0  0  0  0  0  0  0  0  0  0
  -21.5760   -6.2510   22.6130 C   0  0  0  0  0  0  0  0  0  0  0  0
  -21.1120   -6.8180   23.8200 C   0  0  0  0  0  3  0  0  0  0  0  0
  -20.9850   -6.0150   24.9720 C   0  0  0  0  0  3  0  0  0  0  0  0
  -21.3100   -4.6470   24.9160 C   0  0  0  0  0  0  0  0  0  0  0  0
  -21.7680   -4.0800   23.7140 C   0  0  0  0  0  3  0  0  0  0  0  0
  -21.8970   -4.8800   22.5640 C   0  0  0  0  0  0  0  0  0  0  0  0
  -22.3170   -4.3240   21.4030 F   0  0  0  0  0  0  0  0  0  0  0  0
  -21.1810   -3.8740   26.0190 F   0  0  0  0  0  0  0  0  0  0  0  0
  -22.7430  -13.6140   21.0730 C   0  0  0  0  0  0  0  0  0  0  0  0
  -21.9980  -12.9290   21.9330 N   0  0  0  0  0  0  0  0  0  0  0  0
  -22.3150  -14.6330   20.5320 O   0  0  0  0  0  0  0  0  0  0  0  0
  -22.3570  -12.1040   22.3920 H   0  0  0  0  0  0  0  0  0  0  0  0
  -21.0560  -13.2330   22.1340 H   0  0  0  0  0  0  0  0  0  0  0  0
  -25.3750  -15.2760   20.3040 N   0  0  0  0  0  0  0  0  0  0  0  0
  -24.5920  -15.9110   20.4120 H   0  0  0  0  0  0  0  0  0  0  0  0
  -26.2320  -15.7710   20.0530 H   0  0  0  0  0  0  0  0  0  0  0  0
  -27.6600  -17.1450   19.4580 N   0  0  0  0  0  0  0  0  0  0  0  0
  -26.9680  -17.6800   18.9450 H   0  0  0  0  0  0  0  0  0  0  0  0
  -27.9840  -16.3780   18.8810 H   0  0  0  0  0  0  0  0  0  0  0  0
  -31.6270  -21.9500   19.0480 O   0  0  0  0  0  0  0  0  0  0  0  0
  -32.1160  -22.6730   18.6680 H   0  0  0  0  0  0  0  0  0  0  0  0
  -28.0870  -25.1570   20.8250 C   0  0  0  0  0  2  0  0  0  0  0  0
  -28.3640  -26.4900   20.2260 O   0  0  0  0  0  0  0  0  0  0  0  0
  -24.6430  -31.9130   23.2500 C   0  0  0  0  0  0  0  0  0  0  0  0
  -27.2670  -27.3670   20.1920 C   0  0  0  0  0  0  0  0  0  0  0  0
  -23.4400  -30.5050   21.6190 C   0  0  0  0  0  3  0  0  0  0  0  0
  -24.8940  -28.9640   20.1850 C   0  0  0  0  0  0  0  0  0  0  0  0
  -25.9770  -30.8400   21.4230 C   0  0  0  0  0  2  0  0  0  0  0  0
  -26.0640  -29.4600   20.7790 C   0  0  0  0  0  0  0  0  0  0  0  0
  -27.2560  -28.6730   20.7720 C   0  0  0  0  0  3  0  0  0  0  0  0
  -26.0820  -26.9350   19.5570 C   0  0  0  0  0  3  0  0  0  0  0  0
  -24.9060  -27.7070   19.5650 C   0  0  0  0  0  3  0  0  0  0  0  0
  -23.6520  -29.8300   20.2390 C   0  0  0  0  0  2  0  0  0  0  0  0
  -24.7050  -31.1040   22.1540 N   0  0  0  0  0  0  0  0  0  0  0  0
  -23.5610  -32.1850   23.7900 O   0  0  0  0  0  0  0  0  0  0  0  0
  -22.7880  -29.4850   22.5840 C   0  0  0  0  0  0  0  0  0  0  0  0
  -21.4650  -29.2930   22.4570 N   0  0  0  0  0  0  0  0  0  0  0  0
  -23.4730  -28.8700   23.4050 O   0  0  0  0  0  0  0  0  0  0  0  0
  -20.9710  -29.8400   21.7660 H   0  0  0  0  0  0  0  0  0  0  0  0
  -18.1000  -28.0610   22.9580 C   0  0  0  0  0  0  0  0  0  0  0  0
  -20.6540  -28.3510   23.2330 C   0  0  0  0  0  3  0  0  0  0  0  0
  -20.7740  -26.9170   22.6680 C   0  0  0  0  0  2  0  0  0  0  0  0
  -19.6790  -26.5740   21.6530 C   0  0  0  0  0  2  0  0  0  0  0  0
  -18.2930  -26.7090   22.2920 C   0  0  0  0  0  2  0  0  0  0  0  0
  -19.2080  -28.8380   23.3860 C   0  0  0  0  0  0  0  0  0  0  0  0
  -18.9730  -30.1030   23.9680 C   0  0  0  0  0  3  0  0  0  0  0  0
  -17.6620  -30.5910   24.1270 C   0  0  0  0  0  3  0  0  0  0  0  0
  -16.5680  -29.8090   23.7160 C   0  0  0  0  0  3  0  0  0  0  0  0
  -16.7880  -28.5470   23.1380 C   0  0  0  0  0  3  0  0  0  0  0  0
  -25.9260  -32.5540   23.8650 C   0  0  0  0  0  3  0  0  0  0  0  0
  -26.4550  -31.7850   25.1380 C   0  0  1  0  0  0  0  0  0  0  0  0
  -25.3700  -31.5400   26.2120 C   0  0  0  0  0  1  0  0  0  0  0  0
  -27.0440  -30.4110   24.7420 C   0  0  0  0  0  1  0  0  0  0  0  0
  -27.6050  -32.5860   25.7930 C   0  0  0  0  0  1  0  0  0  0  0  0
  -25.6080  -33.9500   24.1990 N   0  0  0  0  0  0  0  0  0  0  0  0
  -25.9220  -35.0050   23.4360 C   0  0  0  0  0  0  0  0  0  0  0  0
  -26.5790  -34.9080   22.3960 O   0  0  0  0  0  0  0  0  0  0  0  0
  -25.0230  -34.0990   25.0070 H   0  0  0  0  0  0  0  0  0  0  0  0
  -24.1740  -36.7840   23.1060 C   0  0  0  0  0  1  0  0  0  0  0  0
  -25.4290  -36.3900   23.9000 C   0  0  0  0  0  3  0  0  0  0  0  0
  -27.5680  -37.2930   24.7010 C   0  0  0  0  0  1  0  0  0  0  0  0
  -26.4510  -37.4510   23.7720 N   0  0  0  0  0  0  0  0  0  0  0  0
  -26.0400  -38.3680   23.9260 H   0  0  0  0  0  0  0  0  0  0  0  0
  1  2  1  0
  2  3  2  0
  2 56  1  0
  3  5  1  0
  4  1  2  0
  4  6  1  0
  6 10  1  0
  6  3  1  0
  7  8  1  0
  9 12  2  0
  9 10  1  0
 10  7  2  0
 11 21  1  0
 11  8  2  0
 12 11  1  0
 13 21  1  0
 14 19  1  0
 15 16  1  0
 15 14  1  0
 17 16  1  0
 17 26  1  0
 17 18  1  0
 19 13  1  0
 19 18  1  0
 20 13  2  0
 21 22  1  0
 23 24  2  0
 24 43  1  0
 25 24  1  0
 25 28  1  0
 26 23  1  0
 26 27  1  0
 27 25  2  0
 28 29  1  0
 29 30  2  0
 31 34  1  0
 31 30  1  0
 32 31  2  0
 33 32  1  0
 33 28  2  0
 34 35  1  0
 35 36  1  0
 36 37  2  0
 38 37  1  0
 38 42  1  0
 39 38  2  0
 40 35  2  0
 40 39  1  0
 41 40  1  0
 43 44  1  0
 44 47  1  0
 44 46  1  0
 45 43  2  0
 48 49  1  0
 48 23  1  0
 50 48  1  0
 51 12  1  0
 52 51  1  0
 53 51  1  0
 54  4  1  0
 55 54  1  0
 57 56  1  0
 58 69  2  0
 59 57  1  0
 59 64  1  0
 60 68  1  0
 60 70  1  0
 61 67  1  0
 61 63  1  0
 62 68  1  0
 63 62  1  0
 64 63  2  0
 65 66  1  0
 65 59  2  0
 66 61  2  0
 67 60  1  0
 68 58  1  0
 70 72  2  0
 71 70  1  0
 73 71  1  0
 74 83  2  0
 74 79  1  0
 75 71  1  0
 75 79  1  0
 76 75  1  0
 77 78  1  0
 77 76  1  0
 78 74  1  0
 79 80  2  0
 80 81  1  0
 82 81  2  0
 83 82  1  0
 84 58  1  0
 84 89  1  0
 84 85  1  0
 85 88  1  1
 85 86  1  0
 87 85  1  0
 89 92  1  0
 90 94  1  0
 90 89  1  0
 91 90  2  0
 94 93  1  0
 96 94  1  0
 96 97  1  0
 96 95  1  0
M  ISO  4  13 100  21 100  56 101  57 101
M  END
>  <TORSDO>  (82) 
F 20

>  <SCORE>  (82) 
-14.409

>  <name>  (82) 
81

>  <ligand_id>  (82) 
81

>  <original_smiles>  (82) 
[H]Oc1c([H])c(C([H])([H])Oc2c([H])c([H])c3c(c2[H])C([H])([H])N(C(=O)C([H])(N([H])C(=O)C([H])(N([H])C([H])([H])[H])C([H])([H])[H])C(C([H])([H])[H])(C([H])([H])[H])C([H])([H])[H])C([H])(C(=O)N([H])C2([H])c4c([H])c([H])c([H])c([H])c4C([H])([H])C([H])([H])C2([H])[H])C3([H])[H])c(C([H])([H])[H])n1-c1c([H])c([H])c(N([H])C(=O)N2C([H])([H])C([H])([H])C([H])([H])C([H])(n3nc(-c4c([H])c([H])c(Oc5c([H])c([H])c(F)c([H])c5F)c([H])c4[H])c(C(=O)N([H])[H])c3N([H])[H])C2([H])[H])c(N([H])[H])c1[H]

>  <smiles>  (82) 
[H]Oc1c([H])c(C([H])([H])Oc2c([H])c([H])c3c(c2[H])C([H])([H])N(C(=O)C([H])(N([H])C(=O)C([H])(N([H])C([H])([H])[H])C([H])([H])[H])C(C([H])([H])[H])(C([H])([H])[H])C([H])([H])[H])C([H])(C(=O)N([H])C2([H])c4c([H])c([H])c([H])c([H])c4C([H])([H])C([H])([H])C2([H])[H])C3([H])[H])c(C([H])([H])[H])n1-c1c([H])c([H])c(N([H])C(=O)N2C([H])([H])C([H])([H])C([H])([H])C([H])(n3nc(-c4c([H])c([H])c(Oc5c([H])c([H])c(F)c([H])c5F)c([H])c4[H])c(C(=O)N([H])[H])c3N([H])[H])C2([H])[H])c(N([H])[H])c1[H]

$$$$
82:0:0
     RDKit          3D

 96104  0  0  1  0  0  0  0  0999 V2000
  -28.2590  -17.1110   20.6010 C   0  0  0  0  0  3  0  0  0  0  0  0
  -30.1480  -18.5590   20.1640 C   0  0  0  0  0  3  0  0  0  0  0  0
  -29.6650  -17.2380   20.5820 C   0  0  0  0  0  0  0  0  0  0  0  0
  -27.3930  -18.1690   20.2550 C   0  0  0  0  0  0  0  0  0  0  0  0
  -27.8900  -19.4300   19.8490 C   0  0  0  0  0  0  0  0  0  0  0  0
  -29.2820  -19.6890   19.7970 C   0  0  0  0  0  0  0  0  0  0  0  0
  -26.9680  -20.4040   19.4620 N   0  0  0  0  0  0  0  0  0  0  0  0
  -26.0010  -20.2720   19.7200 H   0  0  0  0  0  0  0  0  0  0  0  0
  -27.2710  -21.3660   19.4320 H   0  0  0  0  0  0  0  0  0  0  0  0
  -26.0130  -17.9680   20.3390 N   0  0  0  0  0  0  0  0  0  0  0  0
  -25.6570  -17.1390   20.8000 H   0  0  0  0  0  0  0  0  0  0  0  0
  -25.3960  -18.7680   20.3840 H   0  0  0  0  0  0  0  0  0  0  0  0
  -30.4140  -16.0690   21.3180 C   0  0  0  0  0  0  0  0  0  0  0  0
  -30.5740  -16.2290   22.5650 N   0  0  0  0  0  0  0  0  0  0  0  0
  -30.1800  -17.1120   22.8680 H   0  0  0  0  0  0  0  0  0  0  0  0
  -30.9960  -14.7100   20.6910 C   0  0  0  0  0  0  0  0  0  0  0  0
  -30.8500  -12.2760   20.0970 C   0  0  0  0  0  2  0  0  0  0  0  0
  -30.0500  -12.0870   18.7900 C   0  0  0  0  0  2  0  0  0  0  0  0
  -28.5470  -11.9770   19.0940 C   0  0  0  0  0  2  0  0  0  0  0  0
  -28.0560  -13.0840   20.0650 C   0  0  0  0  0  3  0  0  0  0  0  0
  -28.9860  -13.2340   21.2910 C   0  0  0  0  0  2  0  0  0  0  0  0
  -30.3430  -13.4920   20.7900 N   0  0  0  0  0  0  0  0  0  0  0  0
  -32.1400  -14.7370   20.2240 O   0  0  0  0  0  0  0  0  0  0  0  0
  -25.6570  -13.8170   20.5950 C   0  0  0  0  0  0  0  0  0  0  0  0
  -24.5260  -13.1170   20.9060 C   0  0  0  0  0  0  0  0  0  0  0  0
  -24.9090  -11.7420   20.9210 C   0  0  0  0  0  0  0  0  0  0  0  0
  -26.6650  -12.8790   20.4530 N   0  0  0  0  0  0  0  0  0  0  0  0
  -26.2150  -11.6230   20.7060 N   0  0  0  0  0  0  0  0  0  0  0  0
  -24.0930  -10.5310   21.0660 C   0  0  0  0  0  0  0  0  0  0  0  0
  -24.4330   -9.5170   21.9880 C   0  0  0  0  0  3  0  0  0  0  0  0
  -23.6200   -8.3720   22.1220 C   0  0  0  0  0  3  0  0  0  0  0  0
  -22.4540   -8.2320   21.3320 C   0  0  0  0  0  0  0  0  0  0  0  0
  -22.1340   -9.2320   20.3990 C   0  0  0  0  0  3  0  0  0  0  0  0
  -22.9460  -10.3710   20.2630 C   0  0  0  0  0  3  0  0  0  0  0  0
  -21.6180   -7.1420   21.3780 O   0  0  0  0  0  0  0  0  0  0  0  0
  -21.5210   -6.3570   22.4990 C   0  0  0  0  0  0  0  0  0  0  0  0
  -21.1430   -6.8880   23.7520 C   0  0  0  0  0  3  0  0  0  0  0  0
  -20.9870   -6.0350   24.8610 C   0  0  0  0  0  3  0  0  0  0  0  0
  -21.2010   -4.6500   24.7200 C   0  0  0  0  0  0  0  0  0  0  0  0
  -21.5720   -4.1180   23.4730 C   0  0  0  0  0  3  0  0  0  0  0  0
  -21.7290   -4.9690   22.3660 C   0  0  0  0  0  0  0  0  0  0  0  0
  -22.0660   -4.4480   21.1600 F   0  0  0  0  0  0  0  0  0  0  0  0
  -21.0440   -3.8280   25.7850 F   0  0  0  0  0  0  0  0  0  0  0  0
  -23.1470  -13.6850   21.0790 C   0  0  0  0  0  0  0  0  0  0  0  0
  -22.3260  -13.0570   21.9120 N   0  0  0  0  0  0  0  0  0  0  0  0
  -22.8070  -14.7230   20.5110 O   0  0  0  0  0  0  0  0  0  0  0  0
  -22.6140  -12.2190   22.3940 H   0  0  0  0  0  0  0  0  0  0  0  0
  -21.3980  -13.4210   22.0740 H   0  0  0  0  0  0  0  0  0  0  0  0
  -25.9070  -15.1680   20.3960 N   0  0  0  0  0  0  0  0  0  0  0  0
  -25.1790  -15.8710   20.4480 H   0  0  0  0  0  0  0  0  0  0  0  0
  -26.7930  -15.5630   20.1130 H   0  0  0  0  0  0  0  0  0  0  0  0
  -29.7330  -20.9610   19.3000 O   0  0  0  0  0  0  0  0  0  0  0  0
  -29.5310  -22.2770   20.0020 C   0  0  0  0  0  2  0  0  0  0  0  0
  -28.5370  -23.5220   19.5910 C   0  0  0  0  0  2  0  0  0  0  0  0
  -28.9620  -24.9130   18.8610 C   0  0  0  0  0  2  0  0  0  0  0  0
  -28.8100  -26.3020   19.4400 O   0  0  0  0  0  0  0  0  0  0  0  0
  -24.7710  -31.2000   22.9270 C   0  0  0  0  0  0  0  0  0  0  0  0
  -27.6450  -27.1060   19.4160 C   0  0  0  0  0  0  0  0  0  0  0  0
  -23.6610  -29.9420   21.1150 C   0  0  0  0  0  3  0  0  0  0  0  0
  -25.2070  -28.6330   19.5380 C   0  0  0  0  0  0  0  0  0  0  0  0
  -26.1870  -30.3910   21.0160 C   0  0  0  0  0  2  0  0  0  0  0  0
  -26.3420  -29.0950   20.2150 C   0  0  0  0  0  0  0  0  0  0  0  0
  -27.5580  -28.3440   20.1430 C   0  0  0  0  0  3  0  0  0  0  0  0
  -26.4850  -26.7100   18.7150 C   0  0  0  0  0  3  0  0  0  0  0  0
  -25.2860  -27.4540   18.7760 C   0  0  0  0  0  3  0  0  0  0  0  0
  -23.9270  -29.4400   19.6680 C   0  0  0  0  0  2  0  0  0  0  0  0
  -24.8920  -30.5240   21.7450 N   0  0  0  0  0  0  0  0  0  0  0  0
  -23.6680  -31.3630   23.4700 O   0  0  0  0  0  0  0  0  0  0  0  0
  -23.0360  -28.7920   21.9420 C   0  0  0  0  0  0  0  0  0  0  0  0
  -21.7180  -28.5820   21.7900 N   0  0  0  0  0  0  0  0  0  0  0  0
  -23.7390  -28.0970   22.6800 O   0  0  0  0  0  0  0  0  0  0  0  0
  -21.2080  -29.1990   21.1750 H   0  0  0  0  0  0  0  0  0  0  0  0
  -18.3870  -27.2120   22.1450 C   0  0  0  0  0  0  0  0  0  0  0  0
  -20.9380  -27.5240   22.4380 C   0  0  0  0  0  3  0  0  0  0  0  0
  -21.0840  -26.1840   21.6810 C   0  0  0  0  0  2  0  0  0  0  0  0
  -19.9860  -25.9580   20.6380 C   0  0  0  0  0  2  0  0  0  0  0  0
  -18.6060  -25.9680   21.3000 C   0  0  0  0  0  2  0  0  0  0  0  0
  -19.4820  -27.9510   22.6660 C   0  0  0  0  0  0  0  0  0  0  0  0
  -19.2250  -29.1170   23.4170 C   0  0  0  0  0  3  0  0  0  0  0  0
  -17.9040  -29.5460   23.6540 C   0  0  0  0  0  3  0  0  0  0  0  0
  -16.8240  -28.8020   23.1490 C   0  0  0  0  0  3  0  0  0  0  0  0
  -17.0660  -27.6370   22.4000 C   0  0  0  0  0  3  0  0  0  0  0  0
  -26.0100  -31.8210   23.6420 C   0  0  0  0  0  3  0  0  0  0  0  0
  -25.6170  -33.1440   24.1500 N   0  0  0  0  0  0  0  0  0  0  0  0
  -25.9080  -34.3070   23.5530 C   0  0  0  0  0  0  0  0  0  0  0  0
  -26.6050  -34.3790   22.5370 O   0  0  0  0  0  0  0  0  0  0  0  0
  -24.9950  -33.1570   24.9460 H   0  0  0  0  0  0  0  0  0  0  0  0
  -24.0940  -36.0450   23.3980 C   0  0  0  0  0  1  0  0  0  0  0  0
  -25.3380  -35.5950   24.1800 C   0  0  0  0  0  3  0  0  0  0  0  0
  -27.4060  -36.4640   25.1830 C   0  0  0  0  0  1  0  0  0  0  0  0
  -26.3160  -36.7040   24.2410 N   0  0  0  0  0  0  0  0  0  0  0  0
  -25.8590  -37.5740   24.5010 H   0  0  0  0  0  0  0  0  0  0  0  0
  -26.5640  -30.9220   24.8150 C   0  0  1  0  0  0  0  0  0  0  0  0
  -25.4810  -30.4960   25.8340 C   0  0  0  0  0  1  0  0  0  0  0  0
  -27.2200  -29.6370   24.2570 C   0  0  0  0  0  1  0  0  0  0  0  0
  -27.6700  -31.6860   25.5800 C   0  0  0  0  0  1  0  0  0  0  0  0
  2  3  2  0
  3  1  1  0
  3 13  1  0
  4 10  1  0
  4  1  2  0
  5  4  1  0
  6  5  2  0
  6  2  1  0
  7  8  1  0
  7  5  1  0
  9  7  1  0
 10 12  1  0
 10 11  1  0
 13 14  2  0
 14 15  1  0
 16 22  1  0
 16 13  1  0
 17 22  1  0
 18 19  1  0
 18 17  1  0
 20 19  1  0
 20 27  1  0
 20 21  1  0
 22 21  1  0
 23 16  2  0
 24 25  2  0
 25 26  1  0
 25 44  1  0
 26 29  1  0
 27 24  1  0
 27 28  1  0
 28 26  2  0
 29 30  1  0
 30 31  2  0
 32 35  1  0
 32 31  1  0
 33 32  2  0
 34 33  1  0
 34 29  2  0
 35 36  1  0
 36 37  1  0
 37 38  2  0
 39 38  1  0
 39 43  1  0
 40 39  2  0
 41 36  2  0
 41 40  1  0
 42 41  1  0
 44 45  1  0
 45 48  1  0
 45 47  1  0
 46 44  2  0
 49 50  1  0
 49 24  1  0
 51 49  1  0
 52  6  1  0
 52 53  1  0
 54 53  1  0
 55 56  1  0
 55 54  1  0
 57 68  2  0
 58 56  1  0
 58 63  1  0
 59 67  1  0
 59 69  1  0
 60 66  1  0
 60 62  1  0
 61 67  1  0
 62 61  1  0
 63 62  2  0
 64 65  1  0
 64 58  2  0
 65 60  2  0
 66 59  1  0
 67 57  1  0
 69 71  2  0
 70 69  1  0
 72 70  1  0
 73 82  2  0
 73 78  1  0
 74 70  1  0
 74 78  1  0
 75 74  1  0
 76 77  1  0
 76 75  1  0
 77 73  1  0
 78 79  2  0
 79 80  1  0
 81 80  2  0
 82 81  1  0
 83 57  1  0
 83 84  1  0
 83 93  1  0
 84 87  1  0
 85 84  1  0
 85 89  1  0
 86 85  2  0
 89 88  1  0
 89 91  1  0
 91 92  1  0
 91 90  1  0
 93 96  1  1
 93 94  1  0
 95 93  1  0
M  ISO  4  13 100  16 100  55 101  56 101
M  END
>  <TORSDO>  (83) 
F 23

>  <SCORE>  (83) 
-11.442

>  <name>  (83) 
82

>  <ligand_id>  (83) 
82

>  <original_smiles>  (83) 
[H]N=C(C(=O)N1C([H])([H])C([H])([H])C([H])([H])C([H])(n2nc(-c3c([H])c([H])c(Oc4c([H])c([H])c(F)c([H])c4F)c([H])c3[H])c(C(=O)N([H])[H])c2N([H])[H])C1([H])[H])c1c([H])c(OC([H])([H])C([H])([H])C([H])([H])Oc2c([H])c([H])c3c(c2[H])C([H])([H])N(C(=O)C([H])(N([H])C(=O)C([H])(N([H])C([H])([H])[H])C([H])([H])[H])C(C([H])([H])[H])(C([H])([H])[H])C([H])([H])[H])C([H])(C(=O)N([H])C2([H])c4c([H])c([H])c([H])c([H])c4C([H])([H])C([H])([H])C2([H])[H])C3([H])[H])c(N([H])[H])c(N([H])[H])c1[H]

>  <smiles>  (83) 
[H]N=C(C(=O)N1C([H])([H])C([H])([H])C([H])([H])C([H])(n2nc(-c3c([H])c([H])c(Oc4c([H])c([H])c(F)c([H])c4F)c([H])c3[H])c(C(=O)N([H])[H])c2N([H])[H])C1([H])[H])c1c([H])c(OC([H])([H])C([H])([H])C([H])([H])Oc2c([H])c([H])c3c(c2[H])C([H])([H])N(C(=O)C([H])(N([H])C(=O)C([H])(N([H])C([H])([H])[H])C([H])([H])[H])C(C([H])([H])[H])(C([H])([H])[H])C([H])([H])[H])C([H])(C(=O)N([H])C2([H])c4c([H])c([H])c([H])c([H])c4C([H])([H])C([H])([H])C2([H])[H])C3([H])[H])c(N([H])[H])c(N([H])[H])c1[H]

$$$$
83:0:0
     RDKit          3D

 97106  0  0  1  0  0  0  0  0999 V2000
  -30.5080  -21.8580   18.5050 C   0  0  0  0  0  0  0  0  0  0  0  0
  -30.5050  -23.3200   18.0320 C   0  0  0  0  0  2  0  0  0  0  0  0
  -30.1340  -24.3320   19.1200 C   0  0  0  0  0  2  0  0  0  0  0  0
  -28.9500  -22.4880   20.3430 C   0  0  0  0  0  2  0  0  0  0  0  0
  -28.7880  -23.9510   19.7280 C   0  0  0  0  0  3  0  0  0  0  0  0
  -29.6930  -21.4600   19.5220 N   0  0  0  0  0  0  0  0  0  0  0  0
  -31.2670  -21.0860   17.9080 O   0  0  0  0  0  0  0  0  0  0  0  0
  -30.8410  -18.2750   21.2960 C   0  0  0  0  0  3  0  0  0  0  0  0
  -30.6270  -19.6490   20.9820 C   0  0  0  0  0  3  0  0  0  0  0  0
  -29.3590  -17.6200   19.5220 C   0  0  0  0  0  3  0  0  0  0  0  0
  -30.2260  -17.2140   20.5720 C   0  0  0  0  0  0  0  0  0  0  0  0
  -29.7740  -20.0480   19.9240 C   0  0  0  0  0  0  0  0  0  0  0  0
  -29.1290  -18.9960   19.2060 C   0  0  0  0  0  0  0  0  0  0  0  0
  -30.3540  -15.7690   21.0680 C   0  0  0  0  0  0  0  0  0  0  0  0
  -30.0250  -15.5560   22.2730 N   0  0  0  0  0  0  0  0  0  0  0  0
  -29.6840  -16.4080   22.7030 H   0  0  0  0  0  0  0  0  0  0  0  0
  -30.9640  -14.6320   20.1620 C   0  0  0  0  0  0  0  0  0  0  0  0
  -30.6360  -12.4840   18.9430 C   0  0  0  0  0  2  0  0  0  0  0  0
  -29.6400  -12.7120   17.7820 C   0  0  0  0  0  2  0  0  0  0  0  0
  -28.1820  -12.5590   18.2610 C   0  0  0  0  0  2  0  0  0  0  0  0
  -27.9090  -13.3390   19.5730 C   0  0  0  0  0  3  0  0  0  0  0  0
  -29.0030  -13.0390   20.6160 C   0  0  0  0  0  2  0  0  0  0  0  0
  -30.3000  -13.4300   20.0330 N   0  0  0  0  0  0  0  0  0  0  0  0
  -32.0340  -14.8290   19.5730 O   0  0  0  0  0  0  0  0  0  0  0  0
  -25.5540  -13.9610   20.3930 C   0  0  0  0  0  0  0  0  0  0  0  0
  -24.4920  -13.1970   20.7880 C   0  0  0  0  0  0  0  0  0  0  0  0
  -24.9330  -11.8390   20.7120 C   0  0  0  0  0  0  0  0  0  0  0  0
  -26.5760  -13.0700   20.1000 N   0  0  0  0  0  0  0  0  0  0  0  0
  -26.2070  -11.7880   20.3480 N   0  0  0  0  0  0  0  0  0  0  0  0
  -24.1970  -10.5840   20.9070 C   0  0  0  0  0  0  0  0  0  0  0  0
  -24.6030   -9.6320   21.8680 C   0  0  0  0  0  3  0  0  0  0  0  0
  -23.8670   -8.4400   22.0490 C   0  0  0  0  0  3  0  0  0  0  0  0
  -22.7140   -8.1930   21.2670 C   0  0  0  0  0  0  0  0  0  0  0  0
  -22.3270   -9.1350   20.2970 C   0  0  0  0  0  3  0  0  0  0  0  0
  -23.0630  -10.3180   20.1150 C   0  0  0  0  0  3  0  0  0  0  0  0
  -21.9520   -7.0520   21.3560 O   0  0  0  0  0  0  0  0  0  0  0  0
  -21.8040   -6.3750   22.5390 C   0  0  0  0  0  0  0  0  0  0  0  0
  -21.2630   -6.9930   23.6890 C   0  0  0  0  0  3  0  0  0  0  0  0
  -21.0630   -6.2430   24.8640 C   0  0  0  0  0  3  0  0  0  0  0  0
  -21.3940   -4.8750   24.8920 C   0  0  0  0  0  0  0  0  0  0  0  0
  -21.9290   -4.2560   23.7470 C   0  0  0  0  0  3  0  0  0  0  0  0
  -22.1300   -5.0040   22.5740 C   0  0  0  0  0  0  0  0  0  0  0  0
  -22.6260   -4.3980   21.4680 F   0  0  0  0  0  0  0  0  0  0  0  0
  -21.1960   -4.1510   26.0190 F   0  0  0  0  0  0  0  0  0  0  0  0
  -23.1150  -13.6870   21.1300 C   0  0  0  0  0  0  0  0  0  0  0  0
  -22.4130  -12.9800   22.0100 N   0  0  0  0  0  0  0  0  0  0  0  0
  -22.6720  -14.7300   20.6520 O   0  0  0  0  0  0  0  0  0  0  0  0
  -22.7850  -12.1350   22.4160 H   0  0  0  0  0  0  0  0  0  0  0  0
  -21.4890  -13.2880   22.2810 H   0  0  0  0  0  0  0  0  0  0  0  0
  -25.7320  -15.3330   20.2390 N   0  0  0  0  0  0  0  0  0  0  0  0
  -24.9820  -15.9970   20.3960 H   0  0  0  0  0  0  0  0  0  0  0  0
  -26.5890  -15.7690   19.9240 H   0  0  0  0  0  0  0  0  0  0  0  0
  -28.2310  -19.2950   18.1800 N   0  0  0  0  0  0  0  0  0  0  0  0
  -27.8520  -18.5730   17.5750 H   0  0  0  0  0  0  0  0  0  0  0  0
  -28.1360  -20.2380   17.8220 H   0  0  0  0  0  0  0  0  0  0  0  0
  -28.2400  -25.0960   20.6770 C   0  0  0  0  0  2  0  0  0  0  0  0
  -28.3840  -26.4900   20.2280 O   0  0  0  0  0  0  0  0  0  0  0  0
  -24.6020  -31.8530   23.1840 C   0  0  0  0  0  0  0  0  0  0  0  0
  -27.2480  -27.2930   20.2100 C   0  0  0  0  0  0  0  0  0  0  0  0
  -23.4080  -30.4260   21.5600 C   0  0  0  0  0  3  0  0  0  0  0  0
  -24.8710  -28.8590   20.1680 C   0  0  0  0  0  0  0  0  0  0  0  0
  -25.9430  -30.7650   21.3740 C   0  0  0  0  0  2  0  0  0  0  0  0
  -26.0320  -29.3770   20.7530 C   0  0  0  0  0  0  0  0  0  0  0  0
  -27.2290  -28.6060   20.7600 C   0  0  0  0  0  3  0  0  0  0  0  0
  -26.0680  -26.8090   19.6070 C   0  0  0  0  0  3  0  0  0  0  0  0
  -24.8850  -27.5770   19.5930 C   0  0  0  0  0  3  0  0  0  0  0  0
  -23.6280  -29.7270   20.1950 C   0  0  0  0  0  2  0  0  0  0  0  0
  -24.6700  -31.0310   22.0980 N   0  0  0  0  0  0  0  0  0  0  0  0
  -23.5160  -32.1390   23.7100 O   0  0  0  0  0  0  0  0  0  0  0  0
  -22.7450  -29.4240   22.5330 C   0  0  0  0  0  0  0  0  0  0  0  0
  -21.4180  -29.2570   22.4130 N   0  0  0  0  0  0  0  0  0  0  0  0
  -23.4240  -28.7960   23.3500 O   0  0  0  0  0  0  0  0  0  0  0  0
  -20.9320  -29.8100   21.7210 H   0  0  0  0  0  0  0  0  0  0  0  0
  -18.0300  -28.1090   22.9480 C   0  0  0  0  0  0  0  0  0  0  0  0
  -20.5930  -28.3360   23.1950 C   0  0  0  0  0  3  0  0  0  0  0  0
  -20.6720  -26.9000   22.6270 C   0  0  0  0  0  2  0  0  0  0  0  0
  -19.5590  -26.5870   21.6230 C   0  0  0  0  0  2  0  0  0  0  0  0
  -18.1830  -26.7530   22.2770 C   0  0  0  0  0  2  0  0  0  0  0  0
  -19.1630  -28.8570   23.3620 C   0  0  0  0  0  0  0  0  0  0  0  0
  -18.9660  -30.1270   23.9480 C   0  0  0  0  0  3  0  0  0  0  0  0
  -17.6720  -30.6490   24.1210 C   0  0  0  0  0  3  0  0  0  0  0  0
  -16.5530  -29.8970   23.7220 C   0  0  0  0  0  3  0  0  0  0  0  0
  -16.7330  -28.6270   23.1430 C   0  0  0  0  0  3  0  0  0  0  0  0
  -25.8810  -32.4970   23.8020 C   0  0  0  0  0  3  0  0  0  0  0  0
  -26.4180  -31.7210   25.0680 C   0  0  1  0  0  0  0  0  0  0  0  0
  -25.3360  -31.4480   26.1390 C   0  0  0  0  0  1  0  0  0  0  0  0
  -27.0250  -30.3600   24.6560 C   0  0  0  0  0  1  0  0  0  0  0  0
  -27.5620  -32.5260   25.7300 C   0  0  0  0  0  1  0  0  0  0  0  0
  -25.5550  -33.8870   24.1460 N   0  0  0  0  0  0  0  0  0  0  0  0
  -25.8730  -34.9510   23.3960 C   0  0  0  0  0  0  0  0  0  0  0  0
  -26.5420  -34.8640   22.3630 O   0  0  0  0  0  0  0  0  0  0  0  0
  -24.9590  -34.0310   24.9480 H   0  0  0  0  0  0  0  0  0  0  0  0
  -24.1250  -36.7300   23.0590 C   0  0  0  0  0  1  0  0  0  0  0  0
  -25.3700  -36.3290   23.8680 C   0  0  0  0  0  3  0  0  0  0  0  0
  -27.4920  -37.2270   24.7120 C   0  0  0  0  0  1  0  0  0  0  0  0
  -26.3900  -37.3970   23.7700 N   0  0  0  0  0  0  0  0  0  0  0  0
  -25.9730  -38.3100   23.9300 H   0  0  0  0  0  0  0  0  0  0  0  0
  1  6  1  0
  2  1  1  0
  2  3  1  0
  3  5  1  0
  5  4  1  0
  5 56  1  0
  6 12  1  0
  6  4  1  0
  7  1  2  0
  9  8  1  0
 10 11  1  0
 11 14  1  0
 11  8  2  0
 12  9  2  0
 13 10  2  0
 13 12  1  0
 14 15  2  0
 15 16  1  0
 17 14  1  0
 18 23  1  0
 19 20  1  0
 19 18  1  0
 21 20  1  0
 21 28  1  0
 21 22  1  0
 23 17  1  0
 23 22  1  0
 24 17  2  0
 25 26  2  0
 26 45  1  0
 27 26  1  0
 27 30  1  0
 28 29  1  0
 28 25  1  0
 29 27  2  0
 30 31  1  0
 31 32  2  0
 33 36  1  0
 33 32  1  0
 34 33  2  0
 35 34  1  0
 35 30  2  0
 36 37  1  0
 37 42  2  0
 37 38  1  0
 38 39  2  0
 39 40  1  0
 40 44  1  0
 41 40  2  0
 42 41  1  0
 43 42  1  0
 45 46  1  0
 46 49  1  0
 46 48  1  0
 47 45  2  0
 50 25  1  0
 50 51  1  0
 52 50  1  0
 53 13  1  0
 54 53  1  0
 55 53  1  0
 57 56  1  0
 58 69  2  0
 59 57  1  0
 59 64  1  0
 60 68  1  0
 60 70  1  0
 61 67  1  0
 61 63  1  0
 62 68  1  0
 63 64  2  0
 63 62  1  0
 65 59  2  0
 66 65  1  0
 66 61  2  0
 67 60  1  0
 68 58  1  0
 70 72  2  0
 71 70  1  0
 73 71  1  0
 74 83  2  0
 74 79  1  0
 75 71  1  0
 75 79  1  0
 76 75  1  0
 77 78  1  0
 77 76  1  0
 78 74  1  0
 79 80  2  0
 80 81  1  0
 82 81  2  0
 83 82  1  0
 84 58  1  0
 84 89  1  0
 84 85  1  0
 85 88  1  1
 85 86  1  0
 87 85  1  0
 89 92  1  0
 90 94  1  0
 90 89  1  0
 91 90  2  0
 94 93  1  0
 96 94  1  0
 96 97  1  0
 96 95  1  0
M  ISO  4  14 100  17 100  56 101  57 101
M  END
>  <TORSDO>  (84) 
F 20

>  <SCORE>  (84) 
-13.754

>  <name>  (84) 
83

>  <ligand_id>  (84) 
83

>  <original_smiles>  (84) 
[H]N=C(C(=O)N1C([H])([H])C([H])([H])C([H])([H])C([H])(n2nc(-c3c([H])c([H])c(Oc4c([H])c([H])c(F)c([H])c4F)c([H])c3[H])c(C(=O)N([H])[H])c2N([H])[H])C1([H])[H])c1c([H])c([H])c(N2C(=O)C([H])([H])C([H])([H])C([H])(C([H])([H])Oc3c([H])c([H])c4c(c3[H])C([H])([H])N(C(=O)C([H])(N([H])C(=O)C([H])(N([H])C([H])([H])[H])C([H])([H])[H])C(C([H])([H])[H])(C([H])([H])[H])C([H])([H])[H])C([H])(C(=O)N([H])C3([H])c5c([H])c([H])c([H])c([H])c5C([H])([H])C([H])([H])C3([H])[H])C4([H])[H])C2([H])[H])c(N([H])[H])c1[H]

>  <smiles>  (84) 
[H]N=C(C(=O)N1C([H])([H])C([H])([H])C([H])([H])C([H])(n2nc(-c3c([H])c([H])c(Oc4c([H])c([H])c(F)c([H])c4F)c([H])c3[H])c(C(=O)N([H])[H])c2N([H])[H])C1([H])[H])c1c([H])c([H])c(N2C(=O)C([H])([H])C([H])([H])C([H])(C([H])([H])Oc3c([H])c([H])c4c(c3[H])C([H])([H])N(C(=O)C([H])(N([H])C(=O)C([H])(N([H])C([H])([H])[H])C([H])([H])[H])C(C([H])([H])[H])(C([H])([H])[H])C([H])([H])[H])C([H])(C(=O)N([H])C3([H])c5c([H])c([H])c([H])c([H])c5C([H])([H])C([H])([H])C3([H])[H])C4([H])[H])C2([H])[H])c(N([H])[H])c1[H]

$$$$
84:0:0
     RDKit          3D

 91 99  0  0  1  0  0  0  0  0999 V2000
  -30.7530  -19.6690   19.8490 C   0  0  0  0  0  3  0  0  0  0  0  0
  -30.2200  -20.9940   19.8930 C   0  0  0  0  0  3  0  0  0  0  0  0
  -28.0730  -20.0560   20.3910 C   0  0  0  0  0  3  0  0  0  0  0  0
  -29.9810  -18.4900   20.0960 C   0  0  0  0  0  0  0  0  0  0  0  0
  -28.8570  -21.2350   20.1970 C   0  0  0  0  0  0  0  0  0  0  0  0
  -28.6050  -18.7240   20.3500 C   0  0  0  0  0  0  0  0  0  0  0  0
  -27.7820  -17.6750   20.5970 F   0  0  0  0  0  0  0  0  0  0  0  0
  -30.7350  -14.6620   20.0380 C   0  0  0  0  0  0  0  0  0  0  0  0
  -30.3650  -12.3860   19.1050 C   0  0  0  0  0  2  0  0  0  0  0  0
  -29.3960  -12.4510   17.9080 C   0  0  0  0  0  2  0  0  0  0  0  0
  -27.9420  -12.3250   18.3980 C   0  0  0  0  0  2  0  0  0  0  0  0
  -27.6280  -13.2640   19.5930 C   0  0  0  0  0  3  0  0  0  0  0  0
  -28.7280  -13.2220   20.6780 C   0  0  0  0  0  2  0  0  0  0  0  0
  -30.0060  -13.4980   20.0150 N   0  0  0  0  0  0  0  0  0  0  0  0
  -31.9160  -14.6090   19.6850 O   0  0  0  0  0  0  0  0  0  0  0  0
  -30.7060  -17.1240   20.2460 C   0  0  0  0  0  0  0  0  0  0  0  0
  -30.0950  -15.8810   20.2130 N   0  0  0  0  0  0  0  0  0  0  0  0
  -31.9330  -17.2290   20.3730 O   0  0  0  0  0  0  0  0  0  0  0  0
  -29.0910  -15.8740   20.2730 H   0  0  0  0  0  0  0  0  0  0  0  0
  -25.2970  -13.9120   20.4430 C   0  0  0  0  0  0  0  0  0  0  0  0
  -24.2250  -13.1630   20.8460 C   0  0  0  0  0  0  0  0  0  0  0  0
  -24.6460  -11.7990   20.7730 C   0  0  0  0  0  0  0  0  0  0  0  0
  -26.3020  -13.0070   20.1460 N   0  0  0  0  0  0  0  0  0  0  0  0
  -25.9200  -11.7290   20.4080 N   0  0  0  0  0  0  0  0  0  0  0  0
  -23.8890  -10.5560   20.9740 C   0  0  0  0  0  0  0  0  0  0  0  0
  -24.3260   -9.5620   21.8780 C   0  0  0  0  0  3  0  0  0  0  0  0
  -23.5710   -8.3850   22.0670 C   0  0  0  0  0  3  0  0  0  0  0  0
  -22.3640   -8.1930   21.3540 C   0  0  0  0  0  0  0  0  0  0  0  0
  -21.9450   -9.1740   20.4400 C   0  0  0  0  0  3  0  0  0  0  0  0
  -22.7000  -10.3440   20.2480 C   0  0  0  0  0  3  0  0  0  0  0  0
  -21.5780   -7.0700   21.4560 O   0  0  0  0  0  0  0  0  0  0  0  0
  -21.5570   -6.3070   22.5960 C   0  0  0  0  0  0  0  0  0  0  0  0
  -21.1920   -6.8470   23.8480 C   0  0  0  0  0  3  0  0  0  0  0  0
  -21.1160   -6.0120   24.9800 C   0  0  0  0  0  3  0  0  0  0  0  0
  -21.3950   -4.6380   24.8620 C   0  0  0  0  0  0  0  0  0  0  0  0
  -21.7550   -4.0970   23.6150 C   0  0  0  0  0  3  0  0  0  0  0  0
  -21.8320   -4.9290   22.4840 C   0  0  0  0  0  0  0  0  0  0  0  0
  -22.1580   -4.3990   21.2810 F   0  0  0  0  0  0  0  0  0  0  0  0
  -21.3160   -3.8330   25.9480 F   0  0  0  0  0  0  0  0  0  0  0  0
  -22.8560  -13.6760   21.1840 C   0  0  0  0  0  0  0  0  0  0  0  0
  -22.1490  -12.9940   22.0770 N   0  0  0  0  0  0  0  0  0  0  0  0
  -22.4260  -14.7190   20.6930 O   0  0  0  0  0  0  0  0  0  0  0  0
  -22.5120  -12.1500   22.4970 H   0  0  0  0  0  0  0  0  0  0  0  0
  -21.2320  -13.3190   22.3470 H   0  0  0  0  0  0  0  0  0  0  0  0
  -25.4940  -15.2800   20.2830 N   0  0  0  0  0  0  0  0  0  0  0  0
  -24.7590  -15.9550   20.4600 H   0  0  0  0  0  0  0  0  0  0  0  0
  -26.3520  -15.7080   19.9590 H   0  0  0  0  0  0  0  0  0  0  0  0
  -28.7190  -23.7330   20.1860 C   0  0  0  0  0  3  0  0  0  0  0  0
  -28.2390  -22.5300   20.3760 N   0  0  0  0  0  0  0  0  0  0  0  0
  -27.9150  -25.0360   20.6020 C   0  0  0  0  0  2  0  0  0  0  0  0
  -28.2620  -26.3890   20.0790 O   0  0  0  0  0  0  0  0  0  0  0  0
  -24.5960  -31.8080   23.1660 C   0  0  0  0  0  0  0  0  0  0  0  0
  -27.1910  -27.2940   20.0400 C   0  0  0  0  0  0  0  0  0  0  0  0
  -23.3930  -30.4460   21.4960 C   0  0  0  0  0  3  0  0  0  0  0  0
  -24.8420  -28.9210   20.0420 C   0  0  0  0  0  0  0  0  0  0  0  0
  -25.9340  -30.7570   21.3270 C   0  0  0  0  0  2  0  0  0  0  0  0
  -26.0110  -29.3920   20.6550 C   0  0  0  0  0  0  0  0  0  0  0  0
  -27.1940  -28.5890   20.6460 C   0  0  0  0  0  3  0  0  0  0  0  0
  -26.0090  -26.8900   19.3840 C   0  0  0  0  0  3  0  0  0  0  0  0
  -24.8440  -27.6760   19.3950 C   0  0  0  0  0  3  0  0  0  0  0  0
  -23.6080  -29.7980   20.1030 C   0  0  0  0  0  2  0  0  0  0  0  0
  -24.6590  -31.0190   22.0530 N   0  0  0  0  0  0  0  0  0  0  0  0
  -23.5110  -32.0790   23.7020 O   0  0  0  0  0  0  0  0  0  0  0  0
  -22.7230  -29.4130   22.4340 C   0  0  0  0  0  0  0  0  0  0  0  0
  -21.3920  -29.2630   22.3190 N   0  0  0  0  0  0  0  0  0  0  0  0
  -23.3990  -28.7500   23.2240 O   0  0  0  0  0  0  0  0  0  0  0  0
  -20.9050  -29.8480   21.6550 H   0  0  0  0  0  0  0  0  0  0  0  0
  -17.9950  -28.1450   22.8590 C   0  0  0  0  0  0  0  0  0  0  0  0
  -20.5650  -28.3190   23.0740 C   0  0  0  0  0  3  0  0  0  0  0  0
  -20.6110  -26.9090   22.4400 C   0  0  0  0  0  2  0  0  0  0  0  0
  -19.4750  -26.6600   21.4430 C   0  0  0  0  0  2  0  0  0  0  0  0
  -18.1140  -26.8190   22.1270 C   0  0  0  0  0  2  0  0  0  0  0  0
  -19.1450  -28.8570   23.2890 C   0  0  0  0  0  0  0  0  0  0  0  0
  -18.9790  -30.1010   23.9360 C   0  0  0  0  0  3  0  0  0  0  0  0
  -17.6930  -30.6330   24.1530 C   0  0  0  0  0  3  0  0  0  0  0  0
  -16.5570  -29.9170   23.7380 C   0  0  0  0  0  3  0  0  0  0  0  0
  -16.7090  -28.6740   23.0970 C   0  0  0  0  0  3  0  0  0  0  0  0
  -25.8780  -32.4240   23.8040 C   0  0  0  0  0  3  0  0  0  0  0  0
  -25.5740  -33.8200   24.1530 N   0  0  0  0  0  0  0  0  0  0  0  0
  -25.9120  -34.8820   23.4100 C   0  0  0  0  0  0  0  0  0  0  0  0
  -26.5820  -34.7910   22.3790 O   0  0  0  0  0  0  0  0  0  0  0  0
  -24.9810  -33.9650   24.9570 H   0  0  0  0  0  0  0  0  0  0  0  0
  -24.1910  -36.6870   23.0830 C   0  0  0  0  0  1  0  0  0  0  0  0
  -25.4300  -36.2660   23.8880 C   0  0  0  0  0  3  0  0  0  0  0  0
  -27.5660  -37.1340   24.7340 C   0  0  0  0  0  1  0  0  0  0  0  0
  -26.4680  -37.3170   23.7890 N   0  0  0  0  0  0  0  0  0  0  0  0
  -26.0640  -38.2360   23.9460 H   0  0  0  0  0  0  0  0  0  0  0  0
  -26.3830  -31.6310   25.0720 C   0  0  1  0  0  0  0  0  0  0  0  0
  -25.2820  -31.3860   26.1290 C   0  0  0  0  0  1  0  0  0  0  0  0
  -26.9610  -30.2580   24.6640 C   0  0  0  0  0  1  0  0  0  0  0  0
  -27.5340  -32.4110   25.7510 C   0  0  0  0  0  1  0  0  0  0  0  0
  1  2  2  0
  1  4  1  0
  2  5  1  0
  4 16  1  0
  4  6  2  0
  5 49  1  0
  5  3  2  0
  6  3  1  0
  6  7  1  0
  8 17  1  0
  9 14  1  0
 10 11  1  0
 10  9  1  0
 12 11  1  0
 12 23  1  0
 12 13  1  0
 14  8  1  0
 14 13  1  0
 15  8  2  0
 16 18  2  0
 17 16  1  0
 17 19  1  0
 20 21  2  0
 21 40  1  0
 22 21  1  0
 22 25  1  0
 23 24  1  0
 23 20  1  0
 24 22  2  0
 25 26  1  0
 26 27  2  0
 28 31  1  0
 28 27  1  0
 29 28  2  0
 30 29  1  0
 30 25  2  0
 31 32  1  0
 32 33  1  0
 33 34  2  0
 35 34  1  0
 35 39  1  0
 36 35  2  0
 37 32  2  0
 37 36  1  0
 38 37  1  0
 40 41  1  0
 41 44  1  0
 41 43  1  0
 42 40  2  0
 45 20  1  0
 45 46  1  0
 47 45  1  0
 48 49  2  0
 48 50  1  0
 51 50  1  0
 52 63  2  0
 53 51  1  0
 53 58  1  0
 54 62  1  0
 54 64  1  0
 55 61  1  0
 55 57  1  0
 56 62  1  0
 57 56  1  0
 58 57  2  0
 59 60  1  0
 59 53  2  0
 60 55  2  0
 61 54  1  0
 62 52  1  0
 64 66  2  0
 65 64  1  0
 67 65  1  0
 68 77  2  0
 68 73  1  0
 69 65  1  0
 69 73  1  0
 70 69  1  0
 71 72  1  0
 71 70  1  0
 72 68  1  0
 73 74  2  0
 74 75  1  0
 76 75  2  0
 77 76  1  0
 78 52  1  0
 78 79  1  0
 78 88  1  0
 79 82  1  0
 80 84  1  0
 80 79  1  0
 81 80  2  0
 84 83  1  0
 86 84  1  0
 86 87  1  0
 86 85  1  0
 88 91  1  1
 88 89  1  0
 90 88  1  0
M  ISO  4   8 100  17 100  50 101  51 101
M  END
>  <TORSDO>  (85) 
F 18

>  <SCORE>  (85) 
-14.738

>  <name>  (85) 
84

>  <ligand_id>  (85) 
84

>  <original_smiles>  (85) 
[H]C(=Nc1c([H])c([H])c(C(=O)N([H])C(=O)N2C([H])([H])C([H])([H])C([H])([H])C([H])(n3nc(-c4c([H])c([H])c(Oc5c([H])c([H])c(F)c([H])c5F)c([H])c4[H])c(C(=O)N([H])[H])c3N([H])[H])C2([H])[H])c(F)c1[H])C([H])([H])Oc1c([H])c([H])c2c(c1[H])C([H])([H])N(C(=O)C([H])(N([H])C(=O)C([H])(N([H])C([H])([H])[H])C([H])([H])[H])C(C([H])([H])[H])(C([H])([H])[H])C([H])([H])[H])C([H])(C(=O)N([H])C1([H])c3c([H])c([H])c([H])c([H])c3C([H])([H])C([H])([H])C1([H])[H])C2([H])[H]

>  <smiles>  (85) 
[H]C(=Nc1c([H])c([H])c(C(=O)N([H])C(=O)N2C([H])([H])C([H])([H])C([H])([H])C([H])(n3nc(-c4c([H])c([H])c(Oc5c([H])c([H])c(F)c([H])c5F)c([H])c4[H])c(C(=O)N([H])[H])c3N([H])[H])C2([H])[H])c(F)c1[H])C([H])([H])Oc1c([H])c([H])c2c(c1[H])C([H])([H])N(C(=O)C([H])(N([H])C(=O)C([H])(N([H])C([H])([H])[H])C([H])([H])[H])C(C([H])([H])[H])(C([H])([H])[H])C([H])([H])[H])C([H])(C(=O)N([H])C1([H])c3c([H])c([H])c([H])c([H])c3C([H])([H])C([H])([H])C1([H])[H])C2([H])[H]

$$$$
85:0:0
     RDKit          3D

 99107  0  0  1  0  0  0  0  0999 V2000
  -30.0570  -20.8380   20.1260 C   0  0  0  0  0  3  0  0  0  0  0  0
  -29.8470  -22.2200   19.9900 C   0  0  0  0  0  3  0  0  0  0  0  0
  -31.0500  -22.1930   17.8710 C   0  0  0  0  0  3  0  0  0  0  0  0
  -30.7420  -20.1150   19.1270 C   0  0  0  0  0  0  0  0  0  0  0  0
  -31.2630  -20.8030   17.9960 C   0  0  0  0  0  0  0  0  0  0  0  0
  -30.3170  -22.9010   18.8440 C   0  0  0  0  0  0  0  0  0  0  0  0
  -32.0100  -20.0800   16.8830 C   0  0  0  0  0  1  0  0  0  0  0  0
  -29.0740  -25.0260   19.0790 C   0  0  0  0  0  0  0  0  0  0  0  0
  -30.1100  -24.2880   18.6500 N   0  0  0  0  0  0  0  0  0  0  0  0
  -28.1070  -24.5620   19.6940 O   0  0  0  0  0  0  0  0  0  0  0  0
  -30.7770  -24.7690   18.0590 H   0  0  0  0  0  0  0  0  0  0  0  0
  -29.1240  -26.5210   18.7560 C   0  0  0  0  0  2  0  0  0  0  0  0
  -28.7780  -27.2790   19.9180 O   0  0  0  0  0  0  0  0  0  0  0  0
  -24.5240  -31.9240   23.1820 C   0  0  0  0  0  0  0  0  0  0  0  0
  -27.5270  -27.8470   19.9500 C   0  0  0  0  0  0  0  0  0  0  0  0
  -23.4380  -30.5080   21.4660 C   0  0  0  0  0  3  0  0  0  0  0  0
  -25.0150  -29.1330   20.0090 C   0  0  0  0  0  0  0  0  0  0  0  0
  -25.9320  -31.0540   21.3250 C   0  0  0  0  0  2  0  0  0  0  0  0
  -26.1190  -29.7190   20.6390 C   0  0  0  0  0  0  0  0  0  0  0  0
  -27.3710  -29.0740   20.6240 C   0  0  0  0  0  3  0  0  0  0  0  0
  -26.4020  -27.2510   19.3360 C   0  0  0  0  0  3  0  0  0  0  0  0
  -25.1470  -27.8900   19.3640 C   0  0  0  0  0  3  0  0  0  0  0  0
  -23.7120  -29.8950   20.0660 C   0  0  0  0  0  2  0  0  0  0  0  0
  -24.6480  -31.1760   22.0510 N   0  0  0  0  0  0  0  0  0  0  0  0
  -23.4210  -32.0990   23.7170 O   0  0  0  0  0  0  0  0  0  0  0  0
  -22.8500  -29.4070   22.3750 C   0  0  0  0  0  0  0  0  0  0  0  0
  -21.5420  -29.1460   22.2240 N   0  0  0  0  0  0  0  0  0  0  0  0
  -23.5660  -28.7930   23.1710 O   0  0  0  0  0  0  0  0  0  0  0  0
  -21.0240  -29.7000   21.5560 H   0  0  0  0  0  0  0  0  0  0  0  0
  -18.2400  -27.7430   22.6480 C   0  0  0  0  0  0  0  0  0  0  0  0
  -20.7800  -28.1270   22.9440 C   0  0  0  0  0  3  0  0  0  0  0  0
  -20.9630  -26.7350   22.2970 C   0  0  0  0  0  2  0  0  0  0  0  0
  -19.8820  -26.4020   21.2630 C   0  0  0  0  0  2  0  0  0  0  0  0
  -18.4920  -26.4400   21.9060 C   0  0  0  0  0  2  0  0  0  0  0  0
  -19.3140  -28.5420   23.1200 C   0  0  0  0  0  0  0  0  0  0  0  0
  -19.0270  -29.7620   23.7700 C   0  0  0  0  0  3  0  0  0  0  0  0
  -17.6960  -30.1820   23.9540 C   0  0  0  0  0  3  0  0  0  0  0  0
  -16.6360  -29.3790   23.4990 C   0  0  0  0  0  3  0  0  0  0  0  0
  -16.9090  -28.1600   22.8510 C   0  0  0  0  0  3  0  0  0  0  0  0
  -25.7580  -32.6150   23.8450 C   0  0  0  0  0  3  0  0  0  0  0  0
  -25.3770  -33.9990   24.1480 N   0  0  0  0  0  0  0  0  0  0  0  0
  -25.6970  -35.0590   23.3930 C   0  0  0  0  0  0  0  0  0  0  0  0
  -26.4160  -34.9770   22.3930 O   0  0  0  0  0  0  0  0  0  0  0  0
  -24.7400  -34.1350   24.9190 H   0  0  0  0  0  0  0  0  0  0  0  0
  -23.9060  -36.7690   22.9460 C   0  0  0  0  0  1  0  0  0  0  0  0
  -25.1290  -36.4280   23.8130 C   0  0  0  0  0  3  0  0  0  0  0  0
  -27.1850  -37.4150   24.7200 C   0  0  0  0  0  1  0  0  0  0  0  0
  -26.1170  -37.5260   23.7310 N   0  0  0  0  0  0  0  0  0  0  0  0
  -25.6640  -38.4280   23.8520 H   0  0  0  0  0  0  0  0  0  0  0  0
  -26.2590  -31.8750   25.1460 C   0  0  1  0  0  0  0  0  0  0  0  0
  -25.1320  -31.5670   26.1600 C   0  0  0  0  0  1  0  0  0  0  0  0
  -26.9470  -30.5380   24.7840 C   0  0  0  0  0  1  0  0  0  0  0  0
  -27.3230  -32.7390   25.8630 C   0  0  0  0  0  1  0  0  0  0  0  0
  -30.9300  -18.6570   19.3330 C   0  0  0  0  0  0  0  0  0  0  0  0
  -31.9950  -18.0930   19.0570 O   0  0  0  0  0  0  0  0  0  0  0  0
  -29.6980  -17.8720   19.8560 C   0  0  0  0  0  3  0  0  0  0  0  0
  -30.3610  -15.8080   21.1030 C   0  0  0  0  0  0  0  0  0  0  0  0
  -30.0530  -16.4620   19.9750 N   0  0  0  0  0  0  0  0  0  0  0  0
  -30.1310  -16.2100   22.2460 O   0  0  0  0  0  0  0  0  0  0  0  0
  -30.3880  -16.0290   19.1270 H   0  0  0  0  0  0  0  0  0  0  0  0
  -31.1550  -14.5100   20.8090 C   0  0  0  0  0  0  0  0  0  0  0  0
  -30.7320  -12.6640   19.2790 C   0  0  0  0  0  2  0  0  0  0  0  0
  -29.7980  -13.2070   18.1770 C   0  0  0  0  0  2  0  0  0  0  0  0
  -28.3200  -13.0540   18.5930 C   0  0  0  0  0  2  0  0  0  0  0  0
  -28.0310  -13.5870   20.0200 C   0  0  0  0  0  3  0  0  0  0  0  0
  -29.0900  -13.0920   21.0300 C   0  0  0  0  0  2  0  0  0  0  0  0
  -30.4290  -13.4060   20.5080 N   0  0  0  0  0  0  0  0  0  0  0  0
  -32.3380  -14.6710   20.4980 O   0  0  0  0  0  0  0  0  0  0  0  0
  -25.6000  -14.1160   20.6750 C   0  0  0  0  0  0  0  0  0  0  0  0
  -24.5430  -13.3060   20.9900 C   0  0  0  0  0  0  0  0  0  0  0  0
  -25.0430  -11.9690   20.9400 C   0  0  0  0  0  0  0  0  0  0  0  0
  -26.6750  -13.2690   20.4530 N   0  0  0  0  0  0  0  0  0  0  0  0
  -26.3430  -11.9720   20.6740 N   0  0  0  0  0  0  0  0  0  0  0  0
  -24.3500  -10.6830   21.0780 C   0  0  0  0  0  0  0  0  0  0  0  0
  -24.7140   -9.7510   22.0750 C   0  0  0  0  0  3  0  0  0  0  0  0
  -24.0220   -8.5270   22.1980 C   0  0  0  0  0  3  0  0  0  0  0  0
  -22.9510   -8.2280   21.3220 C   0  0  0  0  0  0  0  0  0  0  0  0
  -22.6090   -9.1490   20.3160 C   0  0  0  0  0  3  0  0  0  0  0  0
  -23.3020  -10.3640   20.1920 C   0  0  0  0  0  3  0  0  0  0  0  0
  -22.2380   -7.0540   21.3500 O   0  0  0  0  0  0  0  0  0  0  0  0
  -21.9720   -6.4020   22.5270 C   0  0  0  0  0  0  0  0  0  0  0  0
  -21.2700   -7.0230   23.5810 C   0  0  0  0  0  3  0  0  0  0  0  0
  -20.9570   -6.2930   24.7450 C   0  0  0  0  0  3  0  0  0  0  0  0
  -21.3380   -4.9430   24.8540 C   0  0  0  0  0  0  0  0  0  0  0  0
  -22.0340   -4.3210   23.8030 C   0  0  0  0  0  3  0  0  0  0  0  0
  -22.3470   -5.0470   22.6410 C   0  0  0  0  0  0  0  0  0  0  0  0
  -22.9990   -4.4370   21.6230 F   0  0  0  0  0  0  0  0  0  0  0  0
  -21.0310   -4.2390   25.9690 F   0  0  0  0  0  0  0  0  0  0  0  0
  -23.1250  -13.7380   21.2300 C   0  0  0  0  0  0  0  0  0  0  0  0
  -22.4040  -13.0200   22.0840 N   0  0  0  0  0  0  0  0  0  0  0  0
  -22.6640  -14.7450   20.6980 O   0  0  0  0  0  0  0  0  0  0  0  0
  -22.7900  -12.2040   22.5360 H   0  0  0  0  0  0  0  0  0  0  0  0
  -21.4530  -13.2890   22.2900 H   0  0  0  0  0  0  0  0  0  0  0  0
  -25.7330  -15.4940   20.5420 N   0  0  0  0  0  0  0  0  0  0  0  0
  -24.9470  -16.1260   20.6430 H   0  0  0  0  0  0  0  0  0  0  0  0
  -26.5880  -15.9660   20.2760 H   0  0  0  0  0  0  0  0  0  0  0  0
  -28.8990  -17.7730   17.3590 C   0  0  0  0  0  1  0  0  0  0  0  0
  -27.3300  -17.1180   19.2120 C   0  0  0  0  0  1  0  0  0  0  0  0
  -28.5230  -18.0150   18.8400 C   0  0  0  0  0  3  0  0  0  0  0  0
  2  1  1  0
  3  5  2  0
  3  6  1  0
  4 54  1  0
  4  1  2  0
  5  4  1  0
  6  2  2  0
  7  5  1  0
  8 10  2  0
  9  6  1  0
  9  8  1  0
 11  9  1  0
 12  8  1  0
 12 13  1  0
 13 15  1  0
 14 25  2  0
 15 20  1  0
 16 24  1  0
 16 26  1  0
 17 23  1  0
 17 19  1  0
 18 24  1  0
 19 18  1  0
 20 19  2  0
 21 22  1  0
 21 15  2  0
 22 17  2  0
 23 16  1  0
 24 14  1  0
 26 28  2  0
 27 26  1  0
 29 27  1  0
 30 39  2  0
 30 35  1  0
 31 27  1  0
 31 35  1  0
 32 31  1  0
 33 34  1  0
 33 32  1  0
 34 30  1  0
 35 36  2  0
 36 37  1  0
 38 37  2  0
 39 38  1  0
 40 14  1  0
 40 41  1  0
 40 50  1  0
 41 44  1  0
 42 46  1  0
 42 41  1  0
 43 42  2  0
 46 45  1  0
 48 46  1  0
 48 49  1  0
 48 47  1  0
 50 53  1  1
 50 51  1  0
 52 50  1  0
 54 56  1  0
 55 54  2  0
 56 99  1  0
 56 58  1  0
 57 59  2  0
 58 57  1  0
 60 58  1  0
 61 57  1  0
 62 67  1  0
 63 64  1  0
 63 62  1  0
 65 64  1  0
 65 72  1  0
 65 66  1  0
 67 61  1  0
 67 66  1  0
 68 61  2  0
 69 70  2  0
 70 89  1  0
 71 70  1  0
 71 74  1  0
 72 73  1  0
 72 69  1  0
 73 71  2  0
 74 75  1  0
 75 76  2  0
 77 80  1  0
 77 76  1  0
 78 77  2  0
 79 78  1  0
 79 74  2  0
 80 81  1  0
 81 86  2  0
 81 82  1  0
 82 83  2  0
 83 84  1  0
 84 88  1  0
 85 84  2  0
 86 85  1  0
 87 86  1  0
 89 90  1  0
 90 93  1  0
 90 92  1  0
 91 89  2  0
 94 95  1  0
 94 69  1  0
 96 94  1  0
 97 99  1  0
 99 98  1  0
M  ISO  4  12 101  13 101  57 100  61 100
M  END
>  <TORSDO>  (86) 
F 22

>  <SCORE>  (86) 
-12.590

>  <name>  (86) 
85

>  <ligand_id>  (86) 
85

>  <original_smiles>  (86) 
[H]c1c([H])c([H])c2c(c1[H])C([H])([H])C([H])([H])C([H])([H])C2([H])N([H])C(=O)C1([H])N(C(=O)C([H])(N([H])C(=O)C([H])(N([H])C([H])([H])[H])C([H])([H])[H])C(C([H])([H])[H])(C([H])([H])[H])C([H])([H])[H])C([H])([H])c2c([H])c(OC([H])([H])C(=O)N([H])c3c([H])c([H])c(C(=O)C([H])(N([H])C(=O)C(=O)N4C([H])([H])C([H])([H])C([H])([H])C([H])(n5nc(-c6c([H])c([H])c(Oc7c([H])c([H])c(F)c([H])c7F)c([H])c6[H])c(C(=O)N([H])[H])c5N([H])[H])C4([H])[H])C([H])(C([H])([H])[H])C([H])([H])[H])c(C([H])([H])[H])c3[H])c([H])c([H])c2C1([H])[H]

>  <smiles>  (86) 
[H]c1c([H])c([H])c2c(c1[H])C([H])([H])C([H])([H])C([H])([H])C2([H])N([H])C(=O)C1([H])N(C(=O)C([H])(N([H])C(=O)C([H])(N([H])C([H])([H])[H])C([H])([H])[H])C(C([H])([H])[H])(C([H])([H])[H])C([H])([H])[H])C([H])([H])c2c([H])c(OC([H])([H])C(=O)N([H])c3c([H])c([H])c(C(=O)C([H])(N([H])C(=O)C(=O)N4C([H])([H])C([H])([H])C([H])([H])C([H])(n5nc(-c6c([H])c([H])c(Oc7c([H])c([H])c(F)c([H])c7F)c([H])c6[H])c(C(=O)N([H])[H])c5N([H])[H])C4([H])[H])C([H])(C([H])([H])[H])C([H])([H])[H])c(C([H])([H])[H])c3[H])c([H])c([H])c2C1([H])[H]

$$$$
86:0:0
     RDKit          3D

 96104  0  0  1  0  0  0  0  0999 V2000
  -28.7090  -22.7020   20.5450 C   0  0  0  0  0  0  0  0  0  0  0  0
  -29.7420  -21.8040   20.5180 N   0  0  0  0  0  0  0  0  0  0  0  0
  -27.5550  -22.3410   20.7910 O   0  0  0  0  0  0  0  0  0  0  0  0
  -30.6530  -22.2370   20.4470 H   0  0  0  0  0  0  0  0  0  0  0  0
  -30.9560  -18.1700   20.7920 C   0  0  0  0  0  3  0  0  0  0  0  0
  -28.6310  -19.5640   20.1250 C   0  0  0  0  0  3  0  0  0  0  0  0
  -29.8700  -17.3840   20.3140 C   0  0  0  0  0  0  0  0  0  0  0  0
  -28.6870  -18.1480   19.9990 C   0  0  0  0  0  0  0  0  0  0  0  0
  -29.7370  -20.3380   20.5390 C   0  0  0  0  0  0  0  0  0  0  0  0
  -30.9010  -19.5970   20.8860 C   0  0  0  0  0  0  0  0  0  0  0  0
  -27.4160  -17.5370   19.4310 C   0  0  0  0  0  1  0  0  0  0  0  0
  -32.0070  -20.2720   21.2800 F   0  0  0  0  0  0  0  0  0  0  0  0
  -30.0190  -15.8950   19.8970 C   0  0  0  0  0  0  0  0  0  0  0  0
  -29.6520  -15.6250   18.7150 N   0  0  0  0  0  0  0  0  0  0  0  0
  -29.2790  -16.4500   18.2620 H   0  0  0  0  0  0  0  0  0  0  0  0
  -30.7180  -14.7480   20.7400 C   0  0  0  0  0  0  0  0  0  0  0  0
  -30.5640  -12.4050   19.9290 C   0  0  0  0  0  2  0  0  0  0  0  0
  -29.7150  -12.3560   18.6380 C   0  0  0  0  0  2  0  0  0  0  0  0
  -28.2080  -12.2630   18.9620 C   0  0  0  0  0  2  0  0  0  0  0  0
  -27.7410  -13.2350   20.0780 C   0  0  0  0  0  3  0  0  0  0  0  0
  -28.7260  -13.2590   21.2660 C   0  0  0  0  0  2  0  0  0  0  0  0
  -30.0750  -13.5310   20.7450 N   0  0  0  0  0  0  0  0  0  0  0  0
  -31.9470  -14.8130   20.8080 O   0  0  0  0  0  0  0  0  0  0  0  0
  -25.3120  -13.8650   20.6360 C   0  0  0  0  0  0  0  0  0  0  0  0
  -24.2150  -13.1090   20.9340 C   0  0  0  0  0  0  0  0  0  0  0  0
  -24.6730  -11.7580   20.9740 C   0  0  0  0  0  0  0  0  0  0  0  0
  -26.3660  -12.9750   20.4950 N   0  0  0  0  0  0  0  0  0  0  0  0
  -25.9820  -11.7040   20.7700 N   0  0  0  0  0  0  0  0  0  0  0  0
  -23.9250  -10.5070   21.1380 C   0  0  0  0  0  0  0  0  0  0  0  0
  -24.3020   -9.5450   22.1000 C   0  0  0  0  0  3  0  0  0  0  0  0
  -23.5550   -8.3580   22.2510 C   0  0  0  0  0  3  0  0  0  0  0  0
  -22.4190   -8.1270   21.4420 C   0  0  0  0  0  0  0  0  0  0  0  0
  -22.0620   -9.0780   20.4690 C   0  0  0  0  0  3  0  0  0  0  0  0
  -22.8090  -10.2570   20.3150 C   0  0  0  0  0  3  0  0  0  0  0  0
  -21.6470   -6.9920   21.5030 O   0  0  0  0  0  0  0  0  0  0  0  0
  -21.5580   -6.2460   22.6500 C   0  0  0  0  0  0  0  0  0  0  0  0
  -21.1220   -6.8050   23.8710 C   0  0  0  0  0  3  0  0  0  0  0  0
  -20.9790   -5.9860   25.0090 C   0  0  0  0  0  3  0  0  0  0  0  0
  -21.2610   -4.6100   24.9260 C   0  0  0  0  0  0  0  0  0  0  0  0
  -21.6910   -4.0500   23.7100 C   0  0  0  0  0  3  0  0  0  0  0  0
  -21.8370   -4.8660   22.5740 C   0  0  0  0  0  0  0  0  0  0  0  0
  -22.2320   -4.3190   21.4000 F   0  0  0  0  0  0  0  0  0  0  0  0
  -21.1150   -3.8200   26.0160 F   0  0  0  0  0  0  0  0  0  0  0  0
  -22.8050  -13.6050   21.0770 C   0  0  0  0  0  0  0  0  0  0  0  0
  -22.0080  -12.9450   21.9090 N   0  0  0  0  0  0  0  0  0  0  0  0
  -22.4170  -14.6140   20.4890 O   0  0  0  0  0  0  0  0  0  0  0  0
  -22.3340  -12.1280   22.4060 H   0  0  0  0  0  0  0  0  0  0  0  0
  -21.0590  -13.2590   22.0520 H   0  0  0  0  0  0  0  0  0  0  0  0
  -25.4830  -15.2280   20.4530 N   0  0  0  0  0  0  0  0  0  0  0  0
  -24.7120  -15.8830   20.5050 H   0  0  0  0  0  0  0  0  0  0  0  0
  -26.3680  -15.6640   20.2360 H   0  0  0  0  0  0  0  0  0  0  0  0
  -28.1300  -25.1260   20.3730 C   0  0  0  0  0  3  0  0  0  0  0  0
  -29.0690  -24.1290   20.2840 C   0  0  0  0  0  0  0  0  0  0  0  0
  -30.3290  -24.4360   19.9440 O   0  0  0  0  0  0  0  0  0  0  0  0
  -30.3560  -25.3760   19.8140 H   0  0  0  0  0  0  0  0  0  0  0  0
  -28.3130  -26.5000   20.1140 O   0  0  0  0  0  0  0  0  0  0  0  0
  -24.6050  -31.8640   23.1950 C   0  0  0  0  0  0  0  0  0  0  0  0
  -27.1890  -27.3360   20.0980 C   0  0  0  0  0  0  0  0  0  0  0  0
  -23.3780  -30.4640   21.5710 C   0  0  0  0  0  3  0  0  0  0  0  0
  -24.8110  -28.9200   20.1220 C   0  0  0  0  0  0  0  0  0  0  0  0
  -25.9110  -30.7940   21.3500 C   0  0  0  0  0  2  0  0  0  0  0  0
  -25.9850  -29.4160   20.7060 C   0  0  0  0  0  0  0  0  0  0  0  0
  -27.1740  -28.6320   20.6900 C   0  0  0  0  0  3  0  0  0  0  0  0
  -25.9970  -26.8940   19.4760 C   0  0  0  0  0  3  0  0  0  0  0  0
  -24.8170  -27.6620   19.4990 C   0  0  0  0  0  3  0  0  0  0  0  0
  -23.5710  -29.7870   20.1890 C   0  0  0  0  0  2  0  0  0  0  0  0
  -24.6500  -31.0580   22.0960 N   0  0  0  0  0  0  0  0  0  0  0  0
  -23.5310  -32.1400   23.7470 O   0  0  0  0  0  0  0  0  0  0  0  0
  -22.7320  -29.4470   22.5410 C   0  0  0  0  0  0  0  0  0  0  0  0
  -21.4050  -29.2660   22.4320 N   0  0  0  0  0  0  0  0  0  0  0  0
  -23.4230  -28.8230   23.3510 O   0  0  0  0  0  0  0  0  0  0  0  0
  -20.9060  -29.8220   21.7510 H   0  0  0  0  0  0  0  0  0  0  0  0
  -18.0380  -28.0580   22.9690 C   0  0  0  0  0  0  0  0  0  0  0  0
  -20.5980  -28.3290   23.2150 C   0  0  0  0  0  3  0  0  0  0  0  0
  -20.7010  -26.8950   22.6440 C   0  0  0  0  0  2  0  0  0  0  0  0
  -19.5910  -26.5630   21.6410 C   0  0  0  0  0  2  0  0  0  0  0  0
  -18.2150  -26.7060   22.2970 C   0  0  0  0  0  2  0  0  0  0  0  0
  -19.1580  -28.8260   23.3860 C   0  0  0  0  0  0  0  0  0  0  0  0
  -18.9400  -30.0900   23.9740 C   0  0  0  0  0  3  0  0  0  0  0  0
  -17.6350  -30.5880   24.1490 C   0  0  0  0  0  3  0  0  0  0  0  0
  -16.5300  -29.8170   23.7490 C   0  0  0  0  0  3  0  0  0  0  0  0
  -16.7330  -28.5530   23.1640 C   0  0  0  0  0  3  0  0  0  0  0  0
  -25.8990  -32.4960   23.7980 C   0  0  0  0  0  3  0  0  0  0  0  0
  -26.4490  -31.7090   25.0510 C   0  0  1  0  0  0  0  0  0  0  0  0
  -25.3820  -31.4520   26.1410 C   0  0  0  0  0  1  0  0  0  0  0  0
  -27.0260  -30.3390   24.6260 C   0  0  0  0  0  1  0  0  0  0  0  0
  -27.6120  -32.4990   25.6950 C   0  0  0  0  0  1  0  0  0  0  0  0
  -25.5880  -33.8870   24.1550 N   0  0  0  0  0  0  0  0  0  0  0  0
  -25.8950  -34.9530   23.4040 C   0  0  0  0  0  0  0  0  0  0  0  0
  -26.5420  -34.8690   22.3560 O   0  0  0  0  0  0  0  0  0  0  0  0
  -25.0120  -34.0260   24.9720 H   0  0  0  0  0  0  0  0  0  0  0  0
  -24.1470  -36.7380   23.1190 C   0  0  0  0  0  1  0  0  0  0  0  0
  -25.4110  -36.3310   23.8930 C   0  0  0  0  0  3  0  0  0  0  0  0
  -27.5610  -37.2180   24.6790 C   0  0  0  0  0  1  0  0  0  0  0  0
  -26.4330  -37.3930   23.7690 N   0  0  0  0  0  0  0  0  0  0  0  0
  -26.0250  -38.3080   23.9420 H   0  0  0  0  0  0  0  0  0  0  0  0
  1  3  2  0
  2  9  1  0
  2  1  1  0
  4  2  1  0
  5 10  1  0
  6  9  1  0
  7  5  2  0
  8  6  2  0
  8  7  1  0
  9 10  2  0
 10 12  1  0
 11  8  1  0
 13  7  1  0
 13 16  1  0
 14 13  2  0
 15 14  1  0
 16 22  1  0
 16 23  2  0
 17 22  1  0
 18 19  1  0
 18 17  1  0
 20 19  1  0
 20 27  1  0
 20 21  1  0
 22 21  1  0
 24 25  2  0
 25 26  1  0
 25 44  1  0
 26 29  1  0
 27 24  1  0
 27 28  1  0
 28 26  2  0
 29 30  1  0
 30 31  2  0
 32 35  1  0
 32 31  1  0
 33 32  2  0
 34 33  1  0
 34 29  2  0
 35 36  1  0
 36 37  1  0
 37 38  2  0
 39 38  1  0
 39 43  1  0
 40 39  2  0
 41 36  2  0
 41 40  1  0
 42 41  1  0
 44 45  1  0
 45 48  1  0
 45 47  1  0
 46 44  2  0
 49 50  1  0
 49 24  1  0
 51 49  1  0
 53 52  2  0
 53  1  1  0
 54 53  1  0
 55 54  1  0
 56 52  1  0
 57 68  2  0
 58 56  1  0
 58 63  1  0
 59 67  1  0
 59 69  1  0
 60 66  1  0
 60 62  1  0
 61 67  1  0
 62 61  1  0
 63 62  2  0
 64 65  1  0
 64 58  2  0
 65 60  2  0
 66 59  1  0
 67 57  1  0
 69 71  2  0
 70 69  1  0
 72 70  1  0
 73 82  2  0
 73 78  1  0
 74 70  1  0
 74 78  1  0
 75 74  1  0
 76 77  1  0
 76 75  1  0
 77 73  1  0
 78 79  2  0
 79 80  1  0
 81 80  2  0
 82 81  1  0
 83 57  1  0
 83 88  1  0
 83 84  1  0
 84 87  1  1
 84 85  1  0
 86 84  1  0
 88 91  1  0
 89 93  1  0
 89 88  1  0
 90 89  2  0
 93 92  1  0
 95 93  1  0
 95 96  1  0
 95 94  1  0
M  ISO  4  13 100  16 100  52 101  56 101
M  END
>  <TORSDO>  (87) 
F 20

>  <SCORE>  (87) 
-14.383

>  <name>  (87) 
86

>  <ligand_id>  (87) 
86

>  <original_smiles>  (87) 
[H]N=C(C(=O)N1C([H])([H])C([H])([H])C([H])([H])C([H])(n2nc(-c3c([H])c([H])c(Oc4c([H])c([H])c(F)c([H])c4F)c([H])c3[H])c(C(=O)N([H])[H])c2N([H])[H])C1([H])[H])c1c([H])c(F)c(N([H])C(=O)C(O[H])=C([H])Oc2c([H])c([H])c3c(c2[H])C([H])([H])N(C(=O)C([H])(N([H])C(=O)C([H])(N([H])C([H])([H])[H])C([H])([H])[H])C(C([H])([H])[H])(C([H])([H])[H])C([H])([H])[H])C([H])(C(=O)N([H])C2([H])c4c([H])c([H])c([H])c([H])c4C([H])([H])C([H])([H])C2([H])[H])C3([H])[H])c([H])c1C([H])([H])[H]

>  <smiles>  (87) 
[H]N=C(C(=O)N1C([H])([H])C([H])([H])C([H])([H])C([H])(n2nc(-c3c([H])c([H])c(Oc4c([H])c([H])c(F)c([H])c4F)c([H])c3[H])c(C(=O)N([H])[H])c2N([H])[H])C1([H])[H])c1c([H])c(F)c(N([H])C(=O)C(O[H])=C([H])Oc2c([H])c([H])c3c(c2[H])C([H])([H])N(C(=O)C([H])(N([H])C(=O)C([H])(N([H])C([H])([H])[H])C([H])([H])[H])C(C([H])([H])[H])(C([H])([H])[H])C([H])([H])[H])C([H])(C(=O)N([H])C2([H])c4c([H])c([H])c([H])c([H])c4C([H])([H])C([H])([H])C2([H])[H])C3([H])[H])c([H])c1C([H])([H])[H]

$$$$
87:0:0
     RDKit          3D

 95104  0  0  1  0  0  0  0  0999 V2000
  -29.1640  -22.6770   19.8310 C   0  0  0  0  0  0  0  0  0  0  0  0
  -29.7370  -23.9390   21.7480 C   0  0  0  0  0  2  0  0  0  0  0  0
  -30.2100  -22.4710   21.8650 C   0  0  0  0  0  2  0  0  0  0  0  0
  -29.4040  -24.1610   20.2620 C   0  0  1  0  0  0  0  0  0  0  0  0
  -30.6320  -24.6960   19.4950 C   0  0  0  0  0  1  0  0  0  0  0  0
  -29.6150  -21.7600   20.7380 N   0  0  0  0  0  0  0  0  0  0  0  0
  -28.6410  -22.4070   18.7460 O   0  0  0  0  0  0  0  0  0  0  0  0
  -28.7050  -18.1800   19.7770 C   0  0  0  0  0  3  0  0  0  0  0  0
  -28.6470  -19.5870   19.9270 C   0  0  0  0  0  3  0  0  0  0  0  0
  -30.6700  -19.4960   21.2150 C   0  0  0  0  0  3  0  0  0  0  0  0
  -29.7690  -17.3690   20.2780 C   0  0  0  0  0  0  0  0  0  0  0  0
  -29.6500  -20.2980   20.6220 C   0  0  0  0  0  0  0  0  0  0  0  0
  -30.7380  -18.0750   21.0470 C   0  0  0  0  0  0  0  0  0  0  0  0
  -31.7760  -17.4110   21.6080 F   0  0  0  0  0  0  0  0  0  0  0  0
  -29.8150  -15.9000   19.8140 C   0  0  0  0  0  0  0  0  0  0  0  0
  -29.2530  -15.6660   18.6980 N   0  0  0  0  0  0  0  0  0  0  0  0
  -28.8350  -16.5040   18.3180 H   0  0  0  0  0  0  0  0  0  0  0  0
  -30.6010  -14.7220   20.5140 C   0  0  0  0  0  0  0  0  0  0  0  0
  -30.4100  -12.4140   19.6280 C   0  0  0  0  0  2  0  0  0  0  0  0
  -29.5080  -12.4280   18.3740 C   0  0  0  0  0  2  0  0  0  0  0  0
  -28.0150  -12.3140   18.7550 C   0  0  0  0  0  2  0  0  0  0  0  0
  -27.5970  -13.2310   19.9370 C   0  0  0  0  0  3  0  0  0  0  0  0
  -28.6370  -13.2110   21.0800 C   0  0  0  0  0  2  0  0  0  0  0  0
  -29.9620  -13.5040   20.5130 N   0  0  0  0  0  0  0  0  0  0  0  0
  -31.8320  -14.7910   20.4730 O   0  0  0  0  0  0  0  0  0  0  0  0
  -25.2010  -13.8590   20.5950 C   0  0  0  0  0  0  0  0  0  0  0  0
  -24.1180  -13.0950   20.9330 C   0  0  0  0  0  0  0  0  0  0  0  0
  -24.5750  -11.7420   20.9320 C   0  0  0  0  0  0  0  0  0  0  0  0
  -26.2430  -12.9650   20.4020 N   0  0  0  0  0  0  0  0  0  0  0  0
  -25.8740  -11.6890   20.6720 N   0  0  0  0  0  0  0  0  0  0  0  0
  -23.8400  -10.4860   21.1070 C   0  0  0  0  0  0  0  0  0  0  0  0
  -24.2540   -9.5170   22.0470 C   0  0  0  0  0  3  0  0  0  0  0  0
  -23.5210   -8.3210   22.2090 C   0  0  0  0  0  3  0  0  0  0  0  0
  -22.3620   -8.0900   21.4320 C   0  0  0  0  0  0  0  0  0  0  0  0
  -21.9680   -9.0480   20.4810 C   0  0  0  0  0  3  0  0  0  0  0  0
  -22.7020  -10.2340   20.3170 C   0  0  0  0  0  3  0  0  0  0  0  0
  -21.6010   -6.9480   21.5050 O   0  0  0  0  0  0  0  0  0  0  0  0
  -21.5410   -6.1980   22.6520 C   0  0  0  0  0  0  0  0  0  0  0  0
  -21.1050   -6.7450   23.8770 C   0  0  0  0  0  3  0  0  0  0  0  0
  -20.9920   -5.9210   25.0150 C   0  0  0  0  0  3  0  0  0  0  0  0
  -21.3030   -4.5520   24.9280 C   0  0  0  0  0  0  0  0  0  0  0  0
  -21.7320   -4.0030   23.7060 C   0  0  0  0  0  3  0  0  0  0  0  0
  -21.8480   -4.8240   22.5710 C   0  0  0  0  0  0  0  0  0  0  0  0
  -22.2420   -4.2870   21.3900 F   0  0  0  0  0  0  0  0  0  0  0  0
  -21.1860   -3.7590   26.0190 F   0  0  0  0  0  0  0  0  0  0  0  0
  -22.7150  -13.5810   21.1490 C   0  0  0  0  0  0  0  0  0  0  0  0
  -21.9510  -12.8970   21.9920 N   0  0  0  0  0  0  0  0  0  0  0  0
  -22.3020  -14.6040   20.6030 O   0  0  0  0  0  0  0  0  0  0  0  0
  -22.2990  -12.0710   22.4580 H   0  0  0  0  0  0  0  0  0  0  0  0
  -21.0070  -13.2040   22.1770 H   0  0  0  0  0  0  0  0  0  0  0  0
  -25.3760  -15.2270   20.4100 N   0  0  0  0  0  0  0  0  0  0  0  0
  -24.6080  -15.8860   20.4850 H   0  0  0  0  0  0  0  0  0  0  0  0
  -26.2370  -15.6570   20.0950 H   0  0  0  0  0  0  0  0  0  0  0  0
  -28.1760  -25.1280   19.9890 C   0  0  0  0  0  2  0  0  0  0  0  0
  -28.3440  -26.5750   20.1940 O   0  0  0  0  0  0  0  0  0  0  0  0
  -24.6000  -31.8830   23.2630 C   0  0  0  0  0  0  0  0  0  0  0  0
  -27.1990  -27.3790   20.1540 C   0  0  0  0  0  0  0  0  0  0  0  0
  -23.3800  -30.4940   21.6240 C   0  0  0  0  0  3  0  0  0  0  0  0
  -24.8190  -28.9570   20.1780 C   0  0  0  0  0  0  0  0  0  0  0  0
  -25.9150  -30.8250   21.4170 C   0  0  0  0  0  2  0  0  0  0  0  0
  -25.9910  -29.4540   20.7640 C   0  0  0  0  0  0  0  0  0  0  0  0
  -27.1810  -28.6750   20.7420 C   0  0  0  0  0  3  0  0  0  0  0  0
  -26.0000  -26.9250   19.5510 C   0  0  0  0  0  3  0  0  0  0  0  0
  -24.8240  -27.6960   19.5640 C   0  0  0  0  0  3  0  0  0  0  0  0
  -23.5790  -29.8250   20.2390 C   0  0  0  0  0  2  0  0  0  0  0  0
  -24.6510  -31.0830   22.1590 N   0  0  0  0  0  0  0  0  0  0  0  0
  -23.5220  -32.1560   23.8110 O   0  0  0  0  0  0  0  0  0  0  0  0
  -22.7290  -29.4710   22.5840 C   0  0  0  0  0  0  0  0  0  0  0  0
  -21.4040  -29.2870   22.4600 N   0  0  0  0  0  0  0  0  0  0  0  0
  -23.4130  -28.8460   23.3970 O   0  0  0  0  0  0  0  0  0  0  0  0
  -20.9120  -29.8420   21.7750 H   0  0  0  0  0  0  0  0  0  0  0  0
  -18.0340  -28.0740   22.9620 C   0  0  0  0  0  0  0  0  0  0  0  0
  -20.5900  -28.3440   23.2290 C   0  0  0  0  0  3  0  0  0  0  0  0
  -20.6980  -26.9140   22.6510 C   0  0  0  0  0  2  0  0  0  0  0  0
  -19.5970  -26.5880   21.6390 C   0  0  0  0  0  2  0  0  0  0  0  0
  -18.2140  -26.7270   22.2850 C   0  0  0  0  0  2  0  0  0  0  0  0
  -19.1500  -28.8410   23.3920 C   0  0  0  0  0  0  0  0  0  0  0  0
  -18.9260  -30.1030   23.9840 C   0  0  0  0  0  3  0  0  0  0  0  0
  -17.6200  -30.5980   24.1520 C   0  0  0  0  0  3  0  0  0  0  0  0
  -16.5180  -29.8290   23.7390 C   0  0  0  0  0  3  0  0  0  0  0  0
  -16.7250  -28.5690   23.1510 C   0  0  0  0  0  3  0  0  0  0  0  0
  -25.8900  -32.5090   23.8770 C   0  0  0  0  0  3  0  0  0  0  0  0
  -26.4060  -31.7390   25.1550 C   0  0  1  0  0  0  0  0  0  0  0  0
  -25.3160  -31.5130   26.2280 C   0  0  0  0  0  1  0  0  0  0  0  0
  -26.9780  -30.3560   24.7660 C   0  0  0  0  0  1  0  0  0  0  0  0
  -27.5640  -32.5280   25.8100 C   0  0  0  0  0  1  0  0  0  0  0  0
  -25.5920  -33.9110   24.2030 N   0  0  0  0  0  0  0  0  0  0  0  0
  -25.9240  -34.9580   23.4360 C   0  0  0  0  0  0  0  0  0  0  0  0
  -26.5850  -34.8450   22.4000 O   0  0  0  0  0  0  0  0  0  0  0  0
  -25.0080  -34.0740   25.0110 H   0  0  0  0  0  0  0  0  0  0  0  0
  -24.2060  -36.7600   23.0790 C   0  0  0  0  0  1  0  0  0  0  0  0
  -25.4470  -36.3510   23.8880 C   0  0  0  0  0  3  0  0  0  0  0  0
  -27.5900  -37.2270   24.7080 C   0  0  0  0  0  1  0  0  0  0  0  0
  -26.4870  -37.3970   23.7670 N   0  0  0  0  0  0  0  0  0  0  0  0
  -26.0870  -38.3200   23.9100 H   0  0  0  0  0  0  0  0  0  0  0  0
  1  4  1  0
  1  6  1  0
  2  3  1  0
  4  5  1  6
  4  2  1  0
  6  3  1  0
  7  1  2  0
  8  9  2  0
  8 11  1  0
  9 12  1  0
 11 13  2  0
 12  6  1  0
 12 10  2  0
 13 10  1  0
 13 14  1  0
 15 11  1  0
 15 18  1  0
 16 15  2  0
 17 16  1  0
 19 24  1  0
 20 21  1  0
 20 19  1  0
 22 21  1  0
 22 29  1  0
 22 23  1  0
 24 18  1  0
 24 23  1  0
 25 18  2  0
 26 27  2  0
 27 46  1  0
 28 27  1  0
 28 31  1  0
 29 26  1  0
 29 30  1  0
 30 28  2  0
 31 32  1  0
 32 33  2  0
 34 37  1  0
 34 33  1  0
 35 34  2  0
 36 35  1  0
 36 31  2  0
 37 38  1  0
 38 39  1  0
 39 40  2  0
 41 40  1  0
 41 45  1  0
 42 41  2  0
 43 38  2  0
 43 42  1  0
 44 43  1  0
 46 47  1  0
 47 50  1  0
 47 49  1  0
 48 46  2  0
 51 52  1  0
 51 26  1  0
 53 51  1  0
 54 55  1  0
 54  4  1  0
 56 67  2  0
 57 55  1  0
 57 62  1  0
 58 66  1  0
 58 68  1  0
 59 65  1  0
 59 61  1  0
 60 66  1  0
 61 60  1  0
 62 61  2  0
 63 64  1  0
 63 57  2  0
 64 59  2  0
 65 58  1  0
 66 56  1  0
 68 70  2  0
 69 68  1  0
 71 69  1  0
 72 81  2  0
 72 77  1  0
 73 69  1  0
 73 77  1  0
 74 73  1  0
 75 76  1  0
 75 74  1  0
 76 72  1  0
 77 78  2  0
 78 79  1  0
 80 79  2  0
 81 80  1  0
 82 56  1  0
 82 87  1  0
 82 83  1  0
 83 86  1  1
 83 84  1  0
 85 83  1  0
 87 90  1  0
 88 92  1  0
 88 87  1  0
 89 88  2  0
 92 91  1  0
 94 92  1  0
 94 95  1  0
 94 93  1  0
M  ISO  4  15 100  18 100  54 101  55 101
M  END
>  <TORSDO>  (88) 
F 19

>  <SCORE>  (88) 
-14.639

>  <name>  (88) 
87

>  <ligand_id>  (88) 
87

>  <original_smiles>  (88) 
[H]N=C(C(=O)N1C([H])([H])C([H])([H])C([H])([H])C([H])(n2nc(-c3c([H])c([H])c(Oc4c([H])c([H])c(F)c([H])c4F)c([H])c3[H])c(C(=O)N([H])[H])c2N([H])[H])C1([H])[H])c1c([H])c([H])c(N2C(=O)C(C([H])([H])[H])(C([H])([H])Oc3c([H])c([H])c4c(c3[H])C([H])([H])N(C(=O)C([H])(N([H])C(=O)C([H])(N([H])C([H])([H])[H])C([H])([H])[H])C(C([H])([H])[H])(C([H])([H])[H])C([H])([H])[H])C([H])(C(=O)N([H])C3([H])c5c([H])c([H])c([H])c([H])c5C([H])([H])C([H])([H])C3([H])[H])C4([H])[H])C([H])([H])C2([H])[H])c([H])c1F

>  <smiles>  (88) 
[H]N=C(C(=O)N1C([H])([H])C([H])([H])C([H])([H])C([H])(n2nc(-c3c([H])c([H])c(Oc4c([H])c([H])c(F)c([H])c4F)c([H])c3[H])c(C(=O)N([H])[H])c2N([H])[H])C1([H])[H])c1c([H])c([H])c(N2C(=O)C(C([H])([H])[H])(C([H])([H])Oc3c([H])c([H])c4c(c3[H])C([H])([H])N(C(=O)C([H])(N([H])C(=O)C([H])(N([H])C([H])([H])[H])C([H])([H])[H])C(C([H])([H])[H])(C([H])([H])[H])C([H])([H])[H])C([H])(C(=O)N([H])C3([H])c5c([H])c([H])c([H])c([H])c5C([H])([H])C([H])([H])C3([H])[H])C4([H])[H])C([H])([H])C2([H])[H])c([H])c1F

$$$$
88:0:0
     RDKit          3D

 93102  0  0  1  0  0  0  0  0999 V2000
  -29.9330  -22.6870   20.7330 C   0  0  0  0  0  0  0  0  0  0  0  0
  -28.1810  -22.2380   19.7310 C   0  0  0  0  0  2  0  0  0  0  0  0
  -28.9490  -23.6160   19.8680 C   0  0  2  0  0  0  0  0  0  0  0  0
  -29.6940  -24.1100   18.6170 C   0  0  0  0  0  1  0  0  0  0  0  0
  -29.2850  -21.4840   20.3600 N   0  0  0  0  0  0  0  0  0  0  0  0
  -30.9230  -22.8680   21.4170 O   0  0  0  0  0  0  0  0  0  0  0  0
  -30.5630  -18.8640   17.8790 C   0  0  0  0  0  3  0  0  0  0  0  0
  -30.1800  -20.0670   18.5070 C   0  0  0  0  0  3  0  0  0  0  0  0
  -30.5330  -17.6250   18.5450 C   0  0  0  0  0  3  0  0  0  0  0  0
  -29.7140  -20.1320   19.8410 C   0  0  0  0  0  0  0  0  0  0  0  0
  -30.1420  -17.5170   19.8980 C   0  0  0  0  0  0  0  0  0  0  0  0
  -29.7290  -18.8140   20.5060 C   0  0  0  0  0  0  0  0  0  0  0  0
  -29.3050  -18.8370   21.7920 F   0  0  0  0  0  0  0  0  0  0  0  0
  -30.7720  -14.9360   20.0250 C   0  0  0  0  0  0  0  0  0  0  0  0
  -30.5150  -12.6660   18.9320 C   0  0  0  0  0  2  0  0  0  0  0  0
  -29.5070  -12.7160   17.7600 C   0  0  0  0  0  2  0  0  0  0  0  0
  -28.0660  -12.5040   18.2590 C   0  0  0  0  0  2  0  0  0  0  0  0
  -27.7520  -13.3500   19.5170 C   0  0  0  0  0  3  0  0  0  0  0  0
  -28.8660  -13.2530   20.5720 C   0  0  0  0  0  2  0  0  0  0  0  0
  -30.1200  -13.7020   19.9340 N   0  0  0  0  0  0  0  0  0  0  0  0
  -31.9040  -15.0030   19.5300 O   0  0  0  0  0  0  0  0  0  0  0  0
  -29.6690  -16.0510   21.9020 C   0  0  0  0  0  1  0  0  0  0  0  0
  -30.1400  -16.1160   20.5140 N   0  0  0  0  0  0  0  0  0  0  0  0
  -25.4160  -13.9090   20.4060 C   0  0  0  0  0  0  0  0  0  0  0  0
  -24.3740  -13.1240   20.8160 C   0  0  0  0  0  0  0  0  0  0  0  0
  -24.8330  -11.7740   20.7190 C   0  0  0  0  0  0  0  0  0  0  0  0
  -26.4410  -13.0370   20.0770 N   0  0  0  0  0  0  0  0  0  0  0  0
  -26.1010  -11.7450   20.3290 N   0  0  0  0  0  0  0  0  0  0  0  0
  -24.1160  -10.5080   20.9200 C   0  0  0  0  0  0  0  0  0  0  0  0
  -24.5560   -9.5480   21.8570 C   0  0  0  0  0  3  0  0  0  0  0  0
  -23.8360   -8.3480   22.0430 C   0  0  0  0  0  3  0  0  0  0  0  0
  -22.6620   -8.1010   21.2930 C   0  0  0  0  0  0  0  0  0  0  0  0
  -22.2410   -9.0490   20.3450 C   0  0  0  0  0  3  0  0  0  0  0  0
  -22.9610  -10.2390   20.1570 C   0  0  0  0  0  3  0  0  0  0  0  0
  -21.9130   -6.9520   21.3890 O   0  0  0  0  0  0  0  0  0  0  0  0
  -21.8050   -6.2600   22.5680 C   0  0  0  0  0  0  0  0  0  0  0  0
  -21.3130   -6.8660   23.7450 C   0  0  0  0  0  3  0  0  0  0  0  0
  -21.1520   -6.0990   24.9160 C   0  0  0  0  0  3  0  0  0  0  0  0
  -21.4720   -4.7280   24.9100 C   0  0  0  0  0  0  0  0  0  0  0  0
  -21.9570   -4.1220   23.7380 C   0  0  0  0  0  3  0  0  0  0  0  0
  -22.1190   -4.8860   22.5690 C   0  0  0  0  0  0  0  0  0  0  0  0
  -22.5670   -4.2930   21.4360 F   0  0  0  0  0  0  0  0  0  0  0  0
  -21.3110   -3.9880   26.0340 F   0  0  0  0  0  0  0  0  0  0  0  0
  -22.9980  -13.5950   21.1860 C   0  0  0  0  0  0  0  0  0  0  0  0
  -22.3300  -12.8860   22.0890 N   0  0  0  0  0  0  0  0  0  0  0  0
  -22.5270  -14.6270   20.7110 O   0  0  0  0  0  0  0  0  0  0  0  0
  -22.7270  -12.0530   22.4980 H   0  0  0  0  0  0  0  0  0  0  0  0
  -21.4080  -13.1820   22.3780 H   0  0  0  0  0  0  0  0  0  0  0  0
  -25.5740  -15.2850   20.2660 N   0  0  0  0  0  0  0  0  0  0  0  0
  -24.8210  -15.9390   20.4500 H   0  0  0  0  0  0  0  0  0  0  0  0
  -26.4160  -15.7360   19.9280 H   0  0  0  0  0  0  0  0  0  0  0  0
  -28.2560  -24.9210   20.5880 C   0  0  0  0  0  2  0  0  0  0  0  0
  -28.4160  -26.3810   20.1870 O   0  0  0  0  0  0  0  0  0  0  0  0
  -24.6340  -31.8640   23.1990 C   0  0  0  0  0  0  0  0  0  0  0  0
  -27.2950  -27.2580   20.1720 C   0  0  0  0  0  0  0  0  0  0  0  0
  -23.4410  -30.4470   21.5640 C   0  0  0  0  0  3  0  0  0  0  0  0
  -24.9100  -28.8880   20.1460 C   0  0  0  0  0  0  0  0  0  0  0  0
  -25.9810  -30.7750   21.3750 C   0  0  0  0  0  2  0  0  0  0  0  0
  -26.0800  -29.3870   20.7350 C   0  0  0  0  0  0  0  0  0  0  0  0
  -27.2740  -28.5860   20.7290 C   0  0  0  0  0  3  0  0  0  0  0  0
  -26.1010  -26.8280   19.5540 C   0  0  0  0  0  3  0  0  0  0  0  0
  -24.9260  -27.6140   19.5480 C   0  0  0  0  0  3  0  0  0  0  0  0
  -23.6660  -29.7590   20.1900 C   0  0  0  0  0  2  0  0  0  0  0  0
  -24.7060  -31.0460   22.1060 N   0  0  0  0  0  0  0  0  0  0  0  0
  -23.5490  -32.1350   23.7350 O   0  0  0  0  0  0  0  0  0  0  0  0
  -22.7800  -29.4360   22.5330 C   0  0  0  0  0  0  0  0  0  0  0  0
  -21.4500  -29.2570   22.4210 N   0  0  0  0  0  0  0  0  0  0  0  0
  -23.4680  -28.8100   23.3450 O   0  0  0  0  0  0  0  0  0  0  0  0
  -20.9480  -29.8210   21.7510 H   0  0  0  0  0  0  0  0  0  0  0  0
  -18.0840  -28.0450   22.9510 C   0  0  0  0  0  0  0  0  0  0  0  0
  -20.6440  -28.3120   23.2000 C   0  0  0  0  0  3  0  0  0  0  0  0
  -20.7410  -26.8800   22.6230 C   0  0  0  0  0  2  0  0  0  0  0  0
  -19.6340  -26.5580   21.6150 C   0  0  0  0  0  2  0  0  0  0  0  0
  -18.2550  -26.7000   22.2690 C   0  0  0  0  0  2  0  0  0  0  0  0
  -19.2030  -28.8110   23.3740 C   0  0  0  0  0  0  0  0  0  0  0  0
  -18.9870  -30.0720   23.9710 C   0  0  0  0  0  3  0  0  0  0  0  0
  -17.6810  -30.5690   24.1420 C   0  0  0  0  0  3  0  0  0  0  0  0
  -16.5760  -29.8020   23.7360 C   0  0  0  0  0  3  0  0  0  0  0  0
  -16.7770  -28.5410   23.1480 C   0  0  0  0  0  3  0  0  0  0  0  0
  -25.9130  -32.5100   23.8160 C   0  0  0  0  0  3  0  0  0  0  0  0
  -25.5930  -33.9040   24.1550 N   0  0  0  0  0  0  0  0  0  0  0  0
  -25.9190  -34.9640   23.4020 C   0  0  0  0  0  0  0  0  0  0  0  0
  -26.5910  -34.8690   22.3710 O   0  0  0  0  0  0  0  0  0  0  0  0
  -25.0000  -34.0510   24.9600 H   0  0  0  0  0  0  0  0  0  0  0  0
  -24.1880  -36.7490   23.0390 C   0  0  0  0  0  1  0  0  0  0  0  0
  -25.4200  -36.3470   23.8640 C   0  0  0  0  0  3  0  0  0  0  0  0
  -27.5410  -37.2330   24.7240 C   0  0  0  0  0  1  0  0  0  0  0  0
  -26.4490  -37.4060   23.7710 N   0  0  0  0  0  0  0  0  0  0  0  0
  -26.0360  -38.3210   23.9230 H   0  0  0  0  0  0  0  0  0  0  0  0
  -26.4380  -31.7400   25.0890 C   0  0  1  0  0  0  0  0  0  0  0  0
  -25.3510  -31.5000   26.1620 C   0  0  0  0  0  1  0  0  0  0  0  0
  -27.0320  -30.3700   24.6910 C   0  0  0  0  0  1  0  0  0  0  0  0
  -27.5840  -32.5420   25.7520 C   0  0  0  0  0  1  0  0  0  0  0  0
  1  6  2  0
  2  3  1  0
  2  5  1  0
  3  4  1  6
  3 52  1  0
  3  1  1  0
  5  1  1  0
  7  8  2  0
  7  9  1  0
  8 10  1  0
  9 11  2  0
 10  5  1  0
 10 12  2  0
 11 12  1  0
 11 23  1  0
 12 13  1  0
 14 23  1  0
 15 20  1  0
 16 17  1  0
 16 15  1  0
 18 17  1  0
 18 27  1  0
 18 19  1  0
 20 14  1  0
 20 19  1  0
 21 14  2  0
 23 22  1  0
 24 25  2  0
 25 44  1  0
 26 25  1  0
 26 29  1  0
 27 28  1  0
 27 24  1  0
 28 26  2  0
 29 30  1  0
 30 31  2  0
 32 35  1  0
 32 31  1  0
 33 32  2  0
 34 33  1  0
 34 29  2  0
 35 36  1  0
 36 41  2  0
 36 37  1  0
 37 38  2  0
 39 38  1  0
 39 43  1  0
 40 39  2  0
 41 40  1  0
 42 41  1  0
 44 45  1  0
 45 48  1  0
 45 47  1  0
 46 44  2  0
 49 24  1  0
 49 50  1  0
 51 49  1  0
 53 52  1  0
 54 65  2  0
 55 53  1  0
 55 60  1  0
 56 64  1  0
 56 66  1  0
 57 63  1  0
 57 59  1  0
 58 64  1  0
 59 58  1  0
 60 59  2  0
 61 55  2  0
 62 61  1  0
 62 57  2  0
 63 56  1  0
 64 54  1  0
 66 68  2  0
 67 66  1  0
 69 67  1  0
 70 79  2  0
 70 75  1  0
 71 67  1  0
 71 75  1  0
 72 71  1  0
 73 74  1  0
 73 72  1  0
 74 70  1  0
 75 76  2  0
 76 77  1  0
 78 77  2  0
 79 78  1  0
 80 54  1  0
 80 81  1  0
 80 90  1  0
 81 84  1  0
 82 86  1  0
 82 81  1  0
 83 82  2  0
 86 85  1  0
 88 86  1  0
 88 89  1  0
 88 87  1  0
 90 93  1  1
 90 91  1  0
 92 90  1  0
M  ISO  4  14 100  23 100  52 101  53 101
M  END
>  <TORSDO>  (89) 
F 18

>  <SCORE>  (89) 
-13.840

>  <name>  (89) 
88

>  <ligand_id>  (89) 
88

>  <original_smiles>  (89) 
[H]c1c([H])c(N(C(=O)N2C([H])([H])C([H])([H])C([H])([H])C([H])(n3nc(-c4c([H])c([H])c(Oc5c([H])c([H])c(F)c([H])c5F)c([H])c4[H])c(C(=O)N([H])[H])c3N([H])[H])C2([H])[H])C([H])([H])[H])c(F)c(N2C(=O)C(C([H])([H])[H])(C([H])([H])Oc3c([H])c([H])c4c(c3[H])C([H])([H])N(C(=O)C([H])(N([H])C(=O)C([H])(N([H])C([H])([H])[H])C([H])([H])[H])C(C([H])([H])[H])(C([H])([H])[H])C([H])([H])[H])C([H])(C(=O)N([H])C3([H])c5c([H])c([H])c([H])c([H])c5C([H])([H])C([H])([H])C3([H])[H])C4([H])[H])C2([H])[H])c1[H]

>  <smiles>  (89) 
[H]c1c([H])c(N(C(=O)N2C([H])([H])C([H])([H])C([H])([H])C([H])(n3nc(-c4c([H])c([H])c(Oc5c([H])c([H])c(F)c([H])c5F)c([H])c4[H])c(C(=O)N([H])[H])c3N([H])[H])C2([H])[H])C([H])([H])[H])c(F)c(N2C(=O)C(C([H])([H])[H])(C([H])([H])Oc3c([H])c([H])c4c(c3[H])C([H])([H])N(C(=O)C([H])(N([H])C(=O)C([H])(N([H])C([H])([H])[H])C([H])([H])[H])C(C([H])([H])[H])(C([H])([H])[H])C([H])([H])[H])C([H])(C(=O)N([H])C3([H])c5c([H])c([H])c([H])c([H])c5C([H])([H])C([H])([H])C3([H])[H])C4([H])[H])C2([H])[H])c1[H]

$$$$
89:0:0
     RDKit          3D

 96104  0  0  1  0  0  0  0  0999 V2000
  -28.8190  -18.3070   20.5840 C   0  0  0  0  0  3  0  0  0  0  0  0
  -28.1330  -19.5120   20.3210 C   0  0  0  0  0  3  0  0  0  0  0  0
  -30.2050  -20.5470   19.6440 C   0  0  0  0  0  3  0  0  0  0  0  0
  -30.2210  -18.1840   20.3990 C   0  0  0  0  0  0  0  0  0  0  0  0
  -28.8170  -20.6630   19.8840 C   0  0  0  0  0  0  0  0  0  0  0  0
  -30.8900  -19.3370   19.9050 C   0  0  0  0  0  0  0  0  0  0  0  0
  -32.2290  -19.2910   19.6860 F   0  0  0  0  0  0  0  0  0  0  0  0
  -28.4870  -23.1300   19.9960 C   0  0  0  0  0  0  0  0  0  0  0  0
  -28.0860  -21.8810   19.6820 N   0  0  0  0  0  0  0  0  0  0  0  0
  -29.5060  -23.3480   20.6590 O   0  0  0  0  0  0  0  0  0  0  0  0
  -27.1390  -21.7930   19.3290 H   0  0  0  0  0  0  0  0  0  0  0  0
  -27.6130  -24.3090   19.5030 C   0  0  0  0  0  2  0  0  0  0  0  0
  -27.9130  -25.6800   20.2000 C   0  0  0  0  0  2  0  0  0  0  0  0
  -27.8120  -26.8440   19.3530 O   0  0  0  0  0  0  0  0  0  0  0  0
  -24.4380  -31.8810   23.1040 C   0  0  0  0  0  0  0  0  0  0  0  0
  -26.6900  -27.6190   19.5190 C   0  0  0  0  0  0  0  0  0  0  0  0
  -23.0530  -30.6070   21.4900 C   0  0  0  0  0  3  0  0  0  0  0  0
  -24.3430  -29.1590   19.8280 C   0  0  0  0  0  0  0  0  0  0  0  0
  -25.5560  -30.9490   21.0840 C   0  0  0  0  0  2  0  0  0  0  0  0
  -25.5580  -29.6240   20.3500 C   0  0  0  0  0  0  0  0  0  0  0  0
  -26.7380  -28.8590   20.1960 C   0  0  0  0  0  3  0  0  0  0  0  0
  -25.4700  -27.1810   18.9740 C   0  0  0  0  0  3  0  0  0  0  0  0
  -24.2970  -27.9390   19.1270 C   0  0  0  0  0  3  0  0  0  0  0  0
  -23.1180  -30.0140   20.0560 C   0  0  0  0  0  2  0  0  0  0  0  0
  -24.3700  -31.1600   21.9480 N   0  0  0  0  0  0  0  0  0  0  0  0
  -23.4190  -32.1330   23.7630 O   0  0  0  0  0  0  0  0  0  0  0  0
  -22.4780  -29.5350   22.4430 C   0  0  0  0  0  0  0  0  0  0  0  0
  -21.1550  -29.3240   22.3770 N   0  0  0  0  0  0  0  0  0  0  0  0
  -23.2210  -28.8930   23.1910 O   0  0  0  0  0  0  0  0  0  0  0  0
  -20.6180  -29.9040   21.7470 H   0  0  0  0  0  0  0  0  0  0  0  0
  -17.8470  -27.9770   22.9340 C   0  0  0  0  0  0  0  0  0  0  0  0
  -20.4000  -28.3330   23.1430 C   0  0  0  0  0  3  0  0  0  0  0  0
  -20.5400  -26.9240   22.5250 C   0  0  0  0  0  2  0  0  0  0  0  0
  -19.4240  -26.5860   21.5310 C   0  0  0  0  0  2  0  0  0  0  0  0
  -18.0590  -26.6540   22.2190 C   0  0  0  0  0  2  0  0  0  0  0  0
  -18.9450  -28.7740   23.3540 C   0  0  0  0  0  0  0  0  0  0  0  0
  -18.6920  -30.0130   23.9820 C   0  0  0  0  0  3  0  0  0  0  0  0
  -17.3730  -30.4590   24.1910 C   0  0  0  0  0  3  0  0  0  0  0  0
  -16.2910  -29.6590   23.7860 C   0  0  0  0  0  3  0  0  0  0  0  0
  -16.5280  -28.4200   23.1660 C   0  0  0  0  0  3  0  0  0  0  0  0
  -25.7930  -32.4450   23.6380 C   0  0  0  0  0  3  0  0  0  0  0  0
  -25.5530  -33.8310   24.0680 N   0  0  0  0  0  0  0  0  0  0  0  0
  -25.8690  -34.9180   23.3500 C   0  0  0  0  0  0  0  0  0  0  0  0
  -26.4640  -34.8580   22.2700 O   0  0  0  0  0  0  0  0  0  0  0  0
  -25.0090  -33.9530   24.9080 H   0  0  0  0  0  0  0  0  0  0  0  0
  -24.1780  -36.7750   23.2200 C   0  0  0  0  0  1  0  0  0  0  0  0
  -25.4570  -36.2880   23.9200 C   0  0  0  0  0  3  0  0  0  0  0  0
  -27.6690  -37.0630   24.6570 C   0  0  0  0  0  1  0  0  0  0  0  0
  -26.5140  -37.3160   23.7970 N   0  0  0  0  0  0  0  0  0  0  0  0
  -26.1480  -38.2350   24.0220 H   0  0  0  0  0  0  0  0  0  0  0  0
  -26.4110  -31.5880   24.8110 C   0  0  1  0  0  0  0  0  0  0  0  0
  -25.4160  -31.3090   25.9600 C   0  0  0  0  0  1  0  0  0  0  0  0
  -26.9170  -30.2250   24.2860 C   0  0  0  0  0  1  0  0  0  0  0  0
  -27.6420  -32.3150   25.3970 C   0  0  0  0  0  1  0  0  0  0  0  0
  -30.9920  -16.9140   20.7090 C   0  0  0  0  0  3  0  0  0  0  0  0
  -30.6930  -14.6890   19.5930 C   0  0  0  0  0  0  0  0  0  0  0  0
  -30.2550  -12.4700   18.5990 C   0  0  0  0  0  2  0  0  0  0  0  0
  -29.2080  -12.5810   17.4760 C   0  0  0  0  0  2  0  0  0  0  0  0
  -27.7810  -12.4830   18.0490 C   0  0  0  0  0  2  0  0  0  0  0  0
  -27.5590  -13.3940   19.2860 C   0  0  0  0  0  3  0  0  0  0  0  0
  -28.7190  -13.2660   20.3000 C   0  0  0  0  0  2  0  0  0  0  0  0
  -29.9820  -13.5250   19.5900 N   0  0  0  0  0  0  0  0  0  0  0  0
  -31.6900  -14.8560   18.8870 O   0  0  0  0  0  0  0  0  0  0  0  0
  -30.2480  -15.6760   20.3880 N   0  0  0  0  0  0  0  0  0  0  0  0
  -29.4520  -15.4660   20.9690 H   0  0  0  0  0  0  0  0  0  0  0  0
  -25.2820  -14.0500   20.2850 C   0  0  0  0  0  0  0  0  0  0  0  0
  -24.2270  -13.2990   20.7400 C   0  0  0  0  0  0  0  0  0  0  0  0
  -24.6210  -11.9370   20.5920 C   0  0  0  0  0  0  0  0  0  0  0  0
  -26.2550  -13.1440   19.9020 N   0  0  0  0  0  0  0  0  0  0  0  0
  -25.8670  -11.8640   20.1370 N   0  0  0  0  0  0  0  0  0  0  0  0
  -23.8630  -10.6920   20.8080 C   0  0  0  0  0  0  0  0  0  0  0  0
  -24.3290   -9.6890   21.6860 C   0  0  0  0  0  3  0  0  0  0  0  0
  -23.5760   -8.5130   21.8920 C   0  0  0  0  0  3  0  0  0  0  0  0
  -22.3450   -8.3300   21.2190 C   0  0  0  0  0  0  0  0  0  0  0  0
  -21.8970   -9.3230   20.3320 C   0  0  0  0  0  3  0  0  0  0  0  0
  -22.6490  -10.4930   20.1230 C   0  0  0  0  0  3  0  0  0  0  0  0
  -21.5620   -7.2080   21.3390 O   0  0  0  0  0  0  0  0  0  0  0  0
  -21.5240   -6.4730   22.4970 C   0  0  0  0  0  0  0  0  0  0  0  0
  -21.1270   -7.0440   23.7250 C   0  0  0  0  0  3  0  0  0  0  0  0
  -21.0350   -6.2370   24.8780 C   0  0  0  0  0  3  0  0  0  0  0  0
  -21.3280   -4.8620   24.8030 C   0  0  0  0  0  0  0  0  0  0  0  0
  -21.7210   -4.2930   23.5790 C   0  0  0  0  0  3  0  0  0  0  0  0
  -21.8110   -5.0950   22.4280 C   0  0  0  0  0  0  0  0  0  0  0  0
  -22.1680   -4.5360   21.2450 F   0  0  0  0  0  0  0  0  0  0  0  0
  -21.2330   -4.0870   25.9070 F   0  0  0  0  0  0  0  0  0  0  0  0
  -22.8940  -13.8170   21.2000 C   0  0  0  0  0  0  0  0  0  0  0  0
  -22.2470  -13.1070   22.1210 N   0  0  0  0  0  0  0  0  0  0  0  0
  -22.4360  -14.8760   20.7740 O   0  0  0  0  0  0  0  0  0  0  0  0
  -22.6340  -12.2510   22.4840 H   0  0  0  0  0  0  0  0  0  0  0  0
  -21.3560  -13.4330   22.4660 H   0  0  0  0  0  0  0  0  0  0  0  0
  -25.4920  -15.4180   20.1500 N   0  0  0  0  0  0  0  0  0  0  0  0
  -24.7940  -16.1140   20.3790 H   0  0  0  0  0  0  0  0  0  0  0  0
  -26.3230  -15.8170   19.7300 H   0  0  0  0  0  0  0  0  0  0  0  0
  -31.2910  -16.9700   22.2220 C   0  0  0  0  0  0  0  0  0  0  0  0
  -31.9710  -18.2200   22.7720 C   0  0  0  0  0  1  0  0  0  0  0  0
  -31.0280  -16.0410   22.9930 O   0  0  0  0  0  0  0  0  0  0  0  0
  2  1  2  0
  3  5  2  0
  3  6  1  0
  4  1  1  0
  4 55  1  0
  5  2  1  0
  6  4  2  0
  7  6  1  0
  8 10  2  0
  9  5  1  0
  9  8  1  0
 11  9  1  0
 12  8  1  0
 12 13  1  0
 14 16  1  0
 14 13  1  0
 15 26  2  0
 16 21  1  0
 17 25  1  0
 17 27  1  0
 18 24  1  0
 18 20  1  0
 19 25  1  0
 20 19  1  0
 21 20  2  0
 22 23  1  0
 22 16  2  0
 23 18  2  0
 24 17  1  0
 25 15  1  0
 27 29  2  0
 28 27  1  0
 30 28  1  0
 31 40  2  0
 31 36  1  0
 32 28  1  0
 32 36  1  0
 33 32  1  0
 34 35  1  0
 34 33  1  0
 35 31  1  0
 36 37  2  0
 37 38  1  0
 39 38  2  0
 40 39  1  0
 41 15  1  0
 41 42  1  0
 41 51  1  0
 42 45  1  0
 43 47  1  0
 43 42  1  0
 44 43  2  0
 47 46  1  0
 49 47  1  0
 49 50  1  0
 49 48  1  0
 51 54  1  1
 51 52  1  0
 53 51  1  0
 55 94  1  0
 56 64  1  0
 57 62  1  0
 58 59  1  0
 58 57  1  0
 60 59  1  0
 60 69  1  0
 60 61  1  0
 62 56  1  0
 62 61  1  0
 63 56  2  0
 64 55  1  0
 64 65  1  0
 66 67  2  0
 67 86  1  0
 68 67  1  0
 68 71  1  0
 69 70  1  0
 69 66  1  0
 70 68  2  0
 71 72  1  0
 72 73  2  0
 74 77  1  0
 74 73  1  0
 75 74  2  0
 76 75  1  0
 76 71  2  0
 77 78  1  0
 78 79  1  0
 79 80  2  0
 81 80  1  0
 81 85  1  0
 82 81  2  0
 83 78  2  0
 83 82  1  0
 84 83  1  0
 86 87  1  0
 87 90  1  0
 87 89  1  0
 88 86  2  0
 91 66  1  0
 91 92  1  0
 93 91  1  0
 94 95  1  0
 94 96  2  0
M  ISO  4  13 101  14 101  56 100  64 100
M  END
>  <TORSDO>  (90) 
F 21

>  <SCORE>  (90) 
-11.309

>  <name>  (90) 
89

>  <ligand_id>  (90) 
89

>  <original_smiles>  (90) 
[H]c1c([H])c([H])c2c(c1[H])C([H])([H])C([H])([H])C([H])([H])C2([H])N([H])C(=O)C1([H])N(C(=O)C([H])(N([H])C(=O)C([H])(N([H])C([H])([H])[H])C([H])([H])[H])C(C([H])([H])[H])(C([H])([H])[H])C([H])([H])[H])C([H])([H])c2c([H])c(OC([H])([H])C([H])([H])C(=O)N([H])c3c([H])c([H])c(C([H])(C(=O)C([H])([H])[H])N([H])C(=O)N4C([H])([H])C([H])([H])C([H])([H])C([H])(n5nc(-c6c([H])c([H])c(Oc7c([H])c([H])c(F)c([H])c7F)c([H])c6[H])c(C(=O)N([H])[H])c5N([H])[H])C4([H])[H])c(F)c3[H])c([H])c([H])c2C1([H])[H]

>  <smiles>  (90) 
[H]c1c([H])c([H])c2c(c1[H])C([H])([H])C([H])([H])C([H])([H])C2([H])N([H])C(=O)C1([H])N(C(=O)C([H])(N([H])C(=O)C([H])(N([H])C([H])([H])[H])C([H])([H])[H])C(C([H])([H])[H])(C([H])([H])[H])C([H])([H])[H])C([H])([H])c2c([H])c(OC([H])([H])C([H])([H])C(=O)N([H])c3c([H])c([H])c(C([H])(C(=O)C([H])([H])[H])N([H])C(=O)N4C([H])([H])C([H])([H])C([H])([H])C([H])(n5nc(-c6c([H])c([H])c(Oc7c([H])c([H])c(F)c([H])c7F)c([H])c6[H])c(C(=O)N([H])[H])c5N([H])[H])C4([H])[H])c(F)c3[H])c([H])c([H])c2C1([H])[H]

$$$$
90:0:0
     RDKit          3D

 98107  0  0  1  0  0  0  0  0999 V2000
  -30.3370  -19.7880   20.0510 C   0  0  0  0  0  3  0  0  0  0  0  0
  -31.2570  -18.6900   22.0210 C   0  0  0  0  0  3  0  0  0  0  0  0
  -30.9370  -18.6420   20.6610 C   0  0  0  0  0  0  0  0  0  0  0  0
  -29.8640  -20.8870   20.8290 C   0  0  0  0  0  0  0  0  0  0  0  0
  -30.7800  -19.7290   22.8270 C   0  0  0  0  0  0  0  0  0  0  0  0
  -30.0310  -20.7820   22.2480 C   0  0  0  0  0  0  0  0  0  0  0  0
  -28.7340  -24.2850   19.7080 C   0  0  0  0  0  0  0  0  0  0  0  0
  -28.6940  -25.6090   19.9800 C   0  0  0  0  0  3  0  0  0  0  0  0
  -28.8070  -23.5650   18.3670 C   0  0  0  0  0  2  0  0  0  0  0  0
  -28.7570  -23.2340   20.7960 C   0  0  0  0  0  2  0  0  0  0  0  0
  -28.9230  -22.0630   18.7450 C   0  0  0  0  0  2  0  0  0  0  0  0
  -29.2320  -22.0020   20.1800 N   0  0  0  0  0  0  0  0  0  0  0  0
  -28.5870  -26.6620   19.0980 O   0  0  0  0  0  0  0  0  0  0  0  0
  -24.6560  -31.2180   22.9790 C   0  0  0  0  0  0  0  0  0  0  0  0
  -27.3980  -27.3420   19.2720 C   0  0  0  0  0  0  0  0  0  0  0  0
  -23.4350  -29.8260   21.3440 C   0  0  0  0  0  3  0  0  0  0  0  0
  -24.8780  -28.5830   19.6320 C   0  0  0  0  0  0  0  0  0  0  0  0
  -25.8740  -30.4750   20.9320 C   0  0  0  0  0  2  0  0  0  0  0  0
  -26.0420  -29.1880   20.1480 C   0  0  0  0  0  0  0  0  0  0  0  0
  -27.2910  -28.5650   19.9820 C   0  0  0  0  0  3  0  0  0  0  0  0
  -26.2130  -26.7640   18.7470 C   0  0  0  0  0  3  0  0  0  0  0  0
  -24.9590  -27.3940   18.9030 C   0  0  0  0  0  3  0  0  0  0  0  0
  -23.5570  -29.2890   19.8910 C   0  0  0  0  0  2  0  0  0  0  0  0
  -24.6730  -30.5060   21.8100 N   0  0  0  0  0  0  0  0  0  0  0  0
  -23.5990  -31.3390   23.6230 O   0  0  0  0  0  0  0  0  0  0  0  0
  -22.9870  -28.6640   22.2500 C   0  0  0  0  0  0  0  0  0  0  0  0
  -21.7350  -28.2230   22.0720 N   0  0  0  0  0  0  0  0  0  0  0  0
  -23.7650  -28.1590   23.0640 O   0  0  0  0  0  0  0  0  0  0  0  0
  -21.1490  -28.7390   21.4300 H   0  0  0  0  0  0  0  0  0  0  0  0
  -18.7200  -26.2240   22.2320 C   0  0  0  0  0  0  0  0  0  0  0  0
  -21.0920  -27.1100   22.7740 C   0  0  0  0  0  3  0  0  0  0  0  0
  -21.6110  -25.7290   22.2980 C   0  0  0  0  0  2  0  0  0  0  0  0
  -20.7600  -25.1590   21.1460 C   0  0  0  0  0  2  0  0  0  0  0  0
  -19.3190  -24.9530   21.6230 C   0  0  0  0  0  2  0  0  0  0  0  0
  -19.5650  -27.2530   22.7400 C   0  0  0  0  0  0  0  0  0  0  0  0
  -18.9820  -28.4450   23.2400 C   0  0  0  0  0  3  0  0  0  0  0  0
  -17.5850  -28.5950   23.2450 C   0  0  0  0  0  3  0  0  0  0  0  0
  -16.7530  -27.5620   22.7830 C   0  0  0  0  0  3  0  0  0  0  0  0
  -17.3170  -26.3870   22.2680 C   0  0  0  0  0  3  0  0  0  0  0  0
  -25.9150  -31.9270   23.5440 C   0  0  0  0  0  3  0  0  0  0  0  0
  -26.5960  -31.1300   24.7240 C   0  0  1  0  0  0  0  0  0  0  0  0
  -25.6180  -30.7270   25.8530 C   0  0  0  0  0  1  0  0  0  0  0  0
  -27.2500  -29.8350   24.1880 C   0  0  0  0  0  1  0  0  0  0  0  0
  -27.7300  -31.9740   25.3460 C   0  0  0  0  0  1  0  0  0  0  0  0
  -25.5200  -33.2720   23.9850 N   0  0  0  0  0  0  0  0  0  0  0  0
  -25.7640  -34.3990   23.3130 C   0  0  0  0  0  0  0  0  0  0  0  0
  -26.4340  -34.4170   22.2750 O   0  0  0  0  0  0  0  0  0  0  0  0
  -24.9120  -33.3180   24.7860 H   0  0  0  0  0  0  0  0  0  0  0  0
  -23.9260  -36.0940   23.0820 C   0  0  0  0  0  1  0  0  0  0  0  0
  -25.1860  -35.7110   23.8690 C   0  0  0  0  0  3  0  0  0  0  0  0
  -27.2600  -36.6550   24.7880 C   0  0  0  0  0  1  0  0  0  0  0  0
  -26.1490  -36.8300   23.8600 N   0  0  0  0  0  0  0  0  0  0  0  0
  -25.6860  -37.7080   24.0710 H   0  0  0  0  0  0  0  0  0  0  0  0
  -30.9320  -19.6380   24.2220 N   0  0  0  0  0  0  0  0  0  0  0  0
  -30.0040  -19.7330   24.6540 H   0  0  0  0  0  0  0  0  0  0  0  0
  -31.3590  -20.4410   24.6670 H   0  0  0  0  0  0  0  0  0  0  0  0
  -29.3950  -21.6600   23.1370 N   0  0  0  0  0  0  0  0  0  0  0  0
  -29.9990  -22.1170   23.7990 H   0  0  0  0  0  0  0  0  0  0  0  0
  -28.7760  -22.2960   22.6750 H   0  0  0  0  0  0  0  0  0  0  0  0
  -31.3680  -17.3950   19.8900 C   0  0  0  0  0  2  0  0  0  0  0  0
  -31.3620  -14.9600   20.4910 C   0  0  0  0  0  0  0  0  0  0  0  0
  -31.1800  -12.5690   20.0090 C   0  0  0  0  0  2  0  0  0  0  0  0
  -30.3880  -12.3790   18.6920 C   0  0  0  0  0  2  0  0  0  0  0  0
  -28.8690  -12.3500   18.9620 C   0  0  0  0  0  2  0  0  0  0  0  0
  -28.3930  -13.4740   19.9250 C   0  0  0  0  0  3  0  0  0  0  0  0
  -29.3170  -13.6800   21.1470 C   0  0  0  0  0  2  0  0  0  0  0  0
  -30.6810  -13.7990   20.6420 N   0  0  0  0  0  0  0  0  0  0  0  0
  -32.5910  -14.9550   20.4220 O   0  0  0  0  0  0  0  0  0  0  0  0
  -30.6770  -16.1050   20.2150 N   0  0  0  0  0  0  0  0  0  0  0  0
  -29.6570  -16.1380   20.2050 H   0  0  0  0  0  0  0  0  0  0  0  0
  -26.0110  -14.2780   20.4620 C   0  0  0  0  0  0  0  0  0  0  0  0
  -24.8610  -13.5970   20.7450 C   0  0  0  0  0  0  0  0  0  0  0  0
  -25.2100  -12.2050   20.7760 C   0  0  0  0  0  0  0  0  0  0  0  0
  -26.9930  -13.3060   20.3220 N   0  0  0  0  0  0  0  0  0  0  0  0
  -26.5130  -12.0570   20.5730 N   0  0  0  0  0  0  0  0  0  0  0  0
  -24.3560  -11.0150   20.9080 C   0  0  0  0  0  0  0  0  0  0  0  0
  -24.6860   -9.9710   21.8000 C   0  0  0  0  0  3  0  0  0  0  0  0
  -23.8370   -8.8540   21.9320 C   0  0  0  0  0  3  0  0  0  0  0  0
  -22.6450   -8.7720   21.1710 C   0  0  0  0  0  0  0  0  0  0  0  0
  -22.3390   -9.8010   20.2630 C   0  0  0  0  0  3  0  0  0  0  0  0
  -23.1870  -10.9090   20.1260 C   0  0  0  0  0  3  0  0  0  0  0  0
  -21.7700   -7.7100   21.2150 O   0  0  0  0  0  0  0  0  0  0  0  0
  -21.7290   -6.8530   22.2850 C   0  0  0  0  0  0  0  0  0  0  0  0
  -21.4750   -7.3110   23.5970 C   0  0  0  0  0  3  0  0  0  0  0  0
  -21.3740   -6.3900   24.6570 C   0  0  0  0  0  3  0  0  0  0  0  0
  -21.5170   -5.0110   24.4090 C   0  0  0  0  0  0  0  0  0  0  0  0
  -21.7750   -4.5530   23.1060 C   0  0  0  0  0  3  0  0  0  0  0  0
  -21.8770   -5.4710   22.0450 C   0  0  0  0  0  0  0  0  0  0  0  0
  -22.0960   -5.0250   20.7860 F   0  0  0  0  0  0  0  0  0  0  0  0
  -21.4170   -4.1200   25.4260 F   0  0  0  0  0  0  0  0  0  0  0  0
  -23.4890  -14.1930   20.8890 C   0  0  0  0  0  0  0  0  0  0  0  0
  -22.6400  -13.5860   21.7130 N   0  0  0  0  0  0  0  0  0  0  0  0
  -23.1810  -15.2310   20.3030 O   0  0  0  0  0  0  0  0  0  0  0  0
  -22.9060  -12.7440   22.2060 H   0  0  0  0  0  0  0  0  0  0  0  0
  -21.7120  -13.9660   21.8460 H   0  0  0  0  0  0  0  0  0  0  0  0
  -26.3060  -15.6290   20.2990 N   0  0  0  0  0  0  0  0  0  0  0  0
  -25.5940  -16.3440   20.3580 H   0  0  0  0  0  0  0  0  0  0  0  0
  -27.2220  -16.0080   20.1040 H   0  0  0  0  0  0  0  0  0  0  0  0
  1  3  2  0
  1  4  1  0
  2  5  2  0
  3  2  1  0
  4  6  2  0
  5 54  1  0
  6  5  1  0
  6 57  1  0
  7  8  2  0
  7 10  1  0
  9 11  1  0
  9  7  1  0
 11 12  1  0
 12 10  1  0
 12  4  1  0
 13 15  1  0
 13  8  1  0
 14 25  2  0
 15 20  1  0
 16 24  1  0
 16 26  1  0
 17 23  1  0
 17 19  1  0
 18 24  1  0
 19 18  1  0
 20 19  2  0
 21 22  1  0
 21 15  2  0
 22 17  2  0
 23 16  1  0
 24 14  1  0
 26 28  2  0
 27 26  1  0
 29 27  1  0
 30 39  2  0
 30 35  1  0
 31 27  1  0
 32 31  1  0
 33 34  1  0
 33 32  1  0
 34 30  1  0
 35 31  1  0
 35 36  2  0
 36 37  1  0
 38 37  2  0
 39 38  1  0
 40 14  1  0
 40 45  1  0
 40 41  1  0
 41 44  1  1
 41 42  1  0
 43 41  1  0
 45 48  1  0
 46 50  1  0
 46 45  1  0
 47 46  2  0
 50 49  1  0
 52 50  1  0
 52 53  1  0
 52 51  1  0
 54 55  1  0
 54 56  1  0
 57 58  1  0
 59 57  1  0
 60 69  1  0
 60  3  1  0
 61 67  1  0
 62 67  1  0
 63 64  1  0
 63 62  1  0
 65 64  1  0
 65 74  1  0
 65 66  1  0
 67 66  1  0
 68 61  2  0
 69 61  1  0
 70 69  1  0
 71 72  2  0
 72 73  1  0
 72 91  1  0
 73 76  1  0
 74 71  1  0
 74 75  1  0
 75 73  2  0
 76 77  1  0
 77 78  2  0
 79 82  1  0
 79 78  1  0
 80 79  2  0
 81 80  1  0
 81 76  2  0
 82 83  1  0
 83 84  1  0
 84 85  2  0
 86 85  1  0
 86 90  1  0
 87 86  2  0
 88 83  2  0
 88 87  1  0
 89 88  1  0
 91 92  1  0
 92 95  1  0
 92 94  1  0
 93 91  2  0
 96 97  1  0
 96 71  1  0
 98 96  1  0
M  ISO  4   8 101  13 101  61 100  69 100
M  END
>  <TORSDO>  (91) 
F 20

>  <SCORE>  (91) 
-11.892

>  <name>  (91) 
90

>  <ligand_id>  (91) 
90

>  <original_smiles>  (91) 
[H]C(Oc1c([H])c([H])c2c(c1[H])C([H])([H])N(C(=O)C([H])(N([H])C(=O)C([H])(N([H])C([H])([H])[H])C([H])([H])[H])C(C([H])([H])[H])(C([H])([H])[H])C([H])([H])[H])C([H])(C(=O)N([H])C1([H])c3c([H])c([H])c([H])c([H])c3C([H])([H])C([H])([H])C1([H])[H])C2([H])[H])=C1C([H])([H])N(c2c([H])c(C([H])([H])N([H])C(=O)N3C([H])([H])C([H])([H])C([H])([H])C([H])(n4nc(-c5c([H])c([H])c(Oc6c([H])c([H])c(F)c([H])c6F)c([H])c5[H])c(C(=O)N([H])[H])c4N([H])[H])C3([H])[H])c([H])c(N([H])[H])c2N([H])[H])C([H])([H])C1([H])[H]

>  <smiles>  (91) 
[H]C(Oc1c([H])c([H])c2c(c1[H])C([H])([H])N(C(=O)C([H])(N([H])C(=O)C([H])(N([H])C([H])([H])[H])C([H])([H])[H])C(C([H])([H])[H])(C([H])([H])[H])C([H])([H])[H])C([H])(C(=O)N([H])C1([H])c3c([H])c([H])c([H])c([H])c3C([H])([H])C([H])([H])C1([H])[H])C2([H])[H])=C1C([H])([H])N(c2c([H])c(C([H])([H])N([H])C(=O)N3C([H])([H])C([H])([H])C([H])([H])C([H])(n4nc(-c5c([H])c([H])c(Oc6c([H])c([H])c(F)c([H])c6F)c([H])c5[H])c(C(=O)N([H])[H])c4N([H])[H])C3([H])[H])c([H])c(N([H])[H])c2N([H])[H])C([H])([H])C1([H])[H]

$$$$
91:0:0
     RDKit          3D

 96105  0  0  1  0  0  0  0  0999 V2000
  -31.2770  -21.8000   19.6540 C   0  0  0  0  0  0  0  0  0  0  0  0
  -31.5230  -23.2840   19.3500 C   0  0  0  0  0  2  0  0  0  0  0  0
  -30.6070  -24.2550   20.1010 C   0  0  0  0  0  2  0  0  0  0  0  0
  -28.9560  -22.3700   20.3450 C   0  0  0  0  0  2  0  0  0  0  0  0
  -29.1450  -23.8950   19.8710 C   0  0  0  0  0  3  0  0  0  0  0  0
  -30.0280  -21.3600   19.9770 N   0  0  0  0  0  0  0  0  0  0  0  0
  -32.2540  -21.0480   19.5680 O   0  0  0  0  0  0  0  0  0  0  0  0
  -30.1440  -19.3390   21.4740 C   0  0  0  0  0  3  0  0  0  0  0  0
  -30.2690  -17.9330   21.6640 C   0  0  0  0  0  3  0  0  0  0  0  0
  -29.8260  -17.5540   19.3390 C   0  0  0  0  0  3  0  0  0  0  0  0
  -29.8900  -19.9070   20.2020 C   0  0  0  0  0  0  0  0  0  0  0  0
  -30.1580  -16.9830   20.6010 C   0  0  0  0  0  0  0  0  0  0  0  0
  -29.6920  -18.9700   19.1420 C   0  0  0  0  0  0  0  0  0  0  0  0
  -30.8020  -14.6020   19.9280 C   0  0  0  0  0  0  0  0  0  0  0  0
  -30.4170  -12.4720   18.6840 C   0  0  0  0  0  2  0  0  0  0  0  0
  -29.3670  -12.6690   17.5720 C   0  0  0  0  0  2  0  0  0  0  0  0
  -27.9420  -12.4680   18.1250 C   0  0  0  0  0  2  0  0  0  0  0  0
  -27.7040  -13.2650   19.4330 C   0  0  0  0  0  3  0  0  0  0  0  0
  -28.8510  -13.0370   20.4350 C   0  0  0  0  0  2  0  0  0  0  0  0
  -30.1160  -13.4180   19.7800 N   0  0  0  0  0  0  0  0  0  0  0  0
  -31.8180  -14.8270   19.2620 O   0  0  0  0  0  0  0  0  0  0  0  0
  -30.5580  -15.1200   22.2420 C   0  0  0  0  0  1  0  0  0  0  0  0
  -30.3460  -15.5300   20.8430 N   0  0  0  0  0  0  0  0  0  0  0  0
  -25.3890  -13.8290   20.3970 C   0  0  0  0  0  0  0  0  0  0  0  0
  -24.3600  -13.0360   20.8340 C   0  0  0  0  0  0  0  0  0  0  0  0
  -24.8190  -11.6890   20.7080 C   0  0  0  0  0  0  0  0  0  0  0  0
  -26.4050  -12.9610   20.0290 N   0  0  0  0  0  0  0  0  0  0  0  0
  -26.0740  -11.6670   20.2760 N   0  0  0  0  0  0  0  0  0  0  0  0
  -24.1150  -10.4170   20.9150 C   0  0  0  0  0  0  0  0  0  0  0  0
  -24.5790   -9.4570   21.8420 C   0  0  0  0  0  3  0  0  0  0  0  0
  -23.8740   -8.2490   22.0350 C   0  0  0  0  0  3  0  0  0  0  0  0
  -22.6900   -7.9940   21.3040 C   0  0  0  0  0  0  0  0  0  0  0  0
  -22.2450   -8.9410   20.3650 C   0  0  0  0  0  3  0  0  0  0  0  0
  -22.9520  -10.1400   20.1690 C   0  0  0  0  0  3  0  0  0  0  0  0
  -21.9540   -6.8380   21.4080 O   0  0  0  0  0  0  0  0  0  0  0  0
  -21.8730   -6.1410   22.5860 C   0  0  0  0  0  0  0  0  0  0  0  0
  -21.3910   -6.7330   23.7740 C   0  0  0  0  0  3  0  0  0  0  0  0
  -21.2610   -5.9600   24.9440 C   0  0  0  0  0  3  0  0  0  0  0  0
  -21.6010   -4.5930   24.9270 C   0  0  0  0  0  0  0  0  0  0  0  0
  -22.0750   -3.9990   23.7440 C   0  0  0  0  0  3  0  0  0  0  0  0
  -22.2070   -4.7710   22.5770 C   0  0  0  0  0  0  0  0  0  0  0  0
  -22.6450   -4.1890   21.4340 F   0  0  0  0  0  0  0  0  0  0  0  0
  -21.4680   -3.8470   26.0490 F   0  0  0  0  0  0  0  0  0  0  0  0
  -22.9940  -13.4970   21.2530 C   0  0  0  0  0  0  0  0  0  0  0  0
  -22.3590  -12.7760   22.1710 N   0  0  0  0  0  0  0  0  0  0  0  0
  -22.5010  -14.5300   20.8010 O   0  0  0  0  0  0  0  0  0  0  0  0
  -22.7720  -11.9420   22.5600 H   0  0  0  0  0  0  0  0  0  0  0  0
  -21.4450  -13.0640   22.4900 H   0  0  0  0  0  0  0  0  0  0  0  0
  -25.5410  -15.2040   20.2610 N   0  0  0  0  0  0  0  0  0  0  0  0
  -24.7980  -15.8630   20.4710 H   0  0  0  0  0  0  0  0  0  0  0  0
  -26.3750  -15.6560   19.9020 H   0  0  0  0  0  0  0  0  0  0  0  0
  -29.3620  -19.4330   17.8690 N   0  0  0  0  0  0  0  0  0  0  0  0
  -28.8340  -18.8050   17.2710 H   0  0  0  0  0  0  0  0  0  0  0  0
  -29.0210  -20.3850   17.8020 H   0  0  0  0  0  0  0  0  0  0  0  0
  -28.1890  -25.0160   20.4960 C   0  0  0  0  0  2  0  0  0  0  0  0
  -28.4070  -26.4490   20.1580 O   0  0  0  0  0  0  0  0  0  0  0  0
  -24.6440  -31.8410   23.1580 C   0  0  0  0  0  0  0  0  0  0  0  0
  -27.2890  -27.2940   20.1280 C   0  0  0  0  0  0  0  0  0  0  0  0
  -23.4500  -30.4390   21.5120 C   0  0  0  0  0  3  0  0  0  0  0  0
  -24.9150  -28.8880   20.0970 C   0  0  0  0  0  0  0  0  0  0  0  0
  -25.9900  -30.7620   21.3470 C   0  0  0  0  0  2  0  0  0  0  0  0
  -26.0760  -29.3840   20.7050 C   0  0  0  0  0  0  0  0  0  0  0  0
  -27.2670  -28.5980   20.7090 C   0  0  0  0  0  3  0  0  0  0  0  0
  -26.1170  -26.8600   19.4740 C   0  0  0  0  0  3  0  0  0  0  0  0
  -24.9380  -27.6330   19.4700 C   0  0  0  0  0  3  0  0  0  0  0  0
  -23.6730  -29.7590   20.1350 C   0  0  0  0  0  2  0  0  0  0  0  0
  -24.7130  -31.0330   22.0610 N   0  0  0  0  0  0  0  0  0  0  0  0
  -23.5580  -32.1170   23.6880 O   0  0  0  0  0  0  0  0  0  0  0  0
  -22.7860  -29.4230   22.4720 C   0  0  0  0  0  0  0  0  0  0  0  0
  -21.4590  -29.2530   22.3460 N   0  0  0  0  0  0  0  0  0  0  0  0
  -23.4640  -28.7900   23.2850 O   0  0  0  0  0  0  0  0  0  0  0  0
  -20.9730  -29.8160   21.6620 H   0  0  0  0  0  0  0  0  0  0  0  0
  -18.0760  -28.0780   22.8610 C   0  0  0  0  0  0  0  0  0  0  0  0
  -20.6370  -28.3190   23.1160 C   0  0  0  0  0  3  0  0  0  0  0  0
  -20.7230  -26.8870   22.5390 C   0  0  0  0  0  2  0  0  0  0  0  0
  -19.6140  -26.5760   21.5280 C   0  0  0  0  0  2  0  0  0  0  0  0
  -18.2370  -26.7290   22.1800 C   0  0  0  0  0  2  0  0  0  0  0  0
  -19.2020  -28.8300   23.2870 C   0  0  0  0  0  0  0  0  0  0  0  0
  -18.9970  -30.0910   23.8860 C   0  0  0  0  0  3  0  0  0  0  0  0
  -17.6970  -30.6030   24.0580 C   0  0  0  0  0  3  0  0  0  0  0  0
  -16.5840  -29.8490   23.6440 C   0  0  0  0  0  3  0  0  0  0  0  0
  -16.7750  -28.5870   23.0550 C   0  0  0  0  0  3  0  0  0  0  0  0
  -25.9230  -32.4760   23.7850 C   0  0  0  0  0  3  0  0  0  0  0  0
  -26.4420  -31.7020   25.0600 C   0  0  1  0  0  0  0  0  0  0  0  0
  -25.3470  -31.4520   26.1240 C   0  0  0  0  0  1  0  0  0  0  0  0
  -27.0390  -30.3300   24.6670 C   0  0  0  0  0  1  0  0  0  0  0  0
  -27.5830  -32.5060   25.7270 C   0  0  0  0  0  1  0  0  0  0  0  0
  -25.6050  -33.8720   24.1220 N   0  0  0  0  0  0  0  0  0  0  0  0
  -25.9360  -34.9310   23.3710 C   0  0  0  0  0  0  0  0  0  0  0  0
  -26.6120  -34.8350   22.3430 O   0  0  0  0  0  0  0  0  0  0  0  0
  -25.0010  -34.0150   24.9190 H   0  0  0  0  0  0  0  0  0  0  0  0
  -24.2040  -36.7210   23.0140 C   0  0  0  0  0  1  0  0  0  0  0  0
  -25.4400  -36.3160   23.8320 C   0  0  0  0  0  3  0  0  0  0  0  0
  -27.5660  -37.2030   24.6820 C   0  0  0  0  0  1  0  0  0  0  0  0
  -26.4690  -37.3730   23.7320 N   0  0  0  0  0  0  0  0  0  0  0  0
  -26.0590  -38.2920   23.8800 H   0  0  0  0  0  0  0  0  0  0  0  0
  1  6  1  0
  2  1  1  0
  2  3  1  0
  5  3  1  0
  5  4  1  0
  5 55  1  0
  6 11  1  0
  6  4  1  0
  7  1  2  0
  8  9  1  0
 10 12  1  0
 11  8  2  0
 12 23  1  0
 12  9  2  0
 13 10  2  0
 13 11  1  0
 14 23  1  0
 15 20  1  0
 16 17  1  0
 16 15  1  0
 18 17  1  0
 18 27  1  0
 18 19  1  0
 20 14  1  0
 20 19  1  0
 21 14  2  0
 23 22  1  0
 24 25  2  0
 25 44  1  0
 26 25  1  0
 26 29  1  0
 27 28  1  0
 27 24  1  0
 28 26  2  0
 29 30  1  0
 30 31  2  0
 32 35  1  0
 32 31  1  0
 33 32  2  0
 34 33  1  0
 34 29  2  0
 35 36  1  0
 36 37  1  0
 37 38  2  0
 39 38  1  0
 39 43  1  0
 40 39  2  0
 41 36  2  0
 41 40  1  0
 42 41  1  0
 44 45  1  0
 45 48  1  0
 45 47  1  0
 46 44  2  0
 49 24  1  0
 49 50  1  0
 51 49  1  0
 52 13  1  0
 53 52  1  0
 54 52  1  0
 56 55  1  0
 57 68  2  0
 58 56  1  0
 58 63  1  0
 59 67  1  0
 59 69  1  0
 60 66  1  0
 60 62  1  0
 61 67  1  0
 62 63  2  0
 62 61  1  0
 64 58  2  0
 65 64  1  0
 65 60  2  0
 66 59  1  0
 67 57  1  0
 69 71  2  0
 70 69  1  0
 72 70  1  0
 73 82  2  0
 73 78  1  0
 74 70  1  0
 74 78  1  0
 75 74  1  0
 76 77  1  0
 76 75  1  0
 77 73  1  0
 78 79  2  0
 79 80  1  0
 81 80  2  0
 82 81  1  0
 83 57  1  0
 83 88  1  0
 83 84  1  0
 84 87  1  1
 84 85  1  0
 86 84  1  0
 88 91  1  0
 89 93  1  0
 89 88  1  0
 90 89  2  0
 93 92  1  0
 95 93  1  0
 95 96  1  0
 95 94  1  0
M  ISO  4  14 100  23 100  55 101  56 101
M  END
>  <TORSDO>  (92) 
F 19

>  <SCORE>  (92) 
-13.194

>  <name>  (92) 
91

>  <ligand_id>  (92) 
91

>  <original_smiles>  (92) 
[H]c1c([H])c([H])c2c(c1[H])C([H])([H])C([H])([H])C([H])([H])C2([H])N([H])C(=O)C1([H])N(C(=O)C([H])(N([H])C(=O)C([H])(N([H])C([H])([H])[H])C([H])([H])[H])C(C([H])([H])[H])(C([H])([H])[H])C([H])([H])[H])C([H])([H])c2c([H])c(OC([H])([H])C3([H])C([H])([H])N(c4c([H])c([H])c(N(C(=O)N5C([H])([H])C([H])([H])C([H])([H])C([H])(n6nc(-c7c([H])c([H])c(Oc8c([H])c([H])c(F)c([H])c8F)c([H])c7[H])c(C(=O)N([H])[H])c6N([H])[H])C5([H])[H])C([H])([H])[H])c([H])c4N([H])[H])C(=O)C([H])([H])C3([H])[H])c([H])c([H])c2C1([H])[H]

>  <smiles>  (92) 
[H]c1c([H])c([H])c2c(c1[H])C([H])([H])C([H])([H])C([H])([H])C2([H])N([H])C(=O)C1([H])N(C(=O)C([H])(N([H])C(=O)C([H])(N([H])C([H])([H])[H])C([H])([H])[H])C(C([H])([H])[H])(C([H])([H])[H])C([H])([H])[H])C([H])([H])c2c([H])c(OC([H])([H])C3([H])C([H])([H])N(c4c([H])c([H])c(N(C(=O)N5C([H])([H])C([H])([H])C([H])([H])C([H])(n6nc(-c7c([H])c([H])c(Oc8c([H])c([H])c(F)c([H])c8F)c([H])c7[H])c(C(=O)N([H])[H])c6N([H])[H])C5([H])[H])C([H])([H])[H])c([H])c4N([H])[H])C(=O)C([H])([H])C3([H])[H])c([H])c([H])c2C1([H])[H]

$$$$
92:0:0
     RDKit          3D

 93101  0  0  1  0  0  0  0  0999 V2000
  -31.0440  -17.9210   20.9800 C   0  0  0  0  0  3  0  0  0  0  0  0
  -31.0170  -19.3490   20.9610 C   0  0  0  0  0  3  0  0  0  0  0  0
  -29.8860  -17.1610   20.6720 C   0  0  0  0  0  0  0  0  0  0  0  0
  -28.7120  -19.3430   20.2730 C   0  0  0  0  0  0  0  0  0  0  0  0
  -29.8650  -20.1180   20.6240 C   0  0  0  0  0  0  0  0  0  0  0  0
  -28.7320  -17.9110   20.3220 C   0  0  0  0  0  0  0  0  0  0  0  0
  -27.5960  -17.2320   20.0210 F   0  0  0  0  0  0  0  0  0  0  0  0
  -30.5900  -14.6670   20.4570 C   0  0  0  0  0  0  0  0  0  0  0  0
  -30.3840  -12.4340   19.3740 C   0  0  0  0  0  2  0  0  0  0  0  0
  -29.4650  -12.6110   18.1460 C   0  0  0  0  0  2  0  0  0  0  0  0
  -27.9830  -12.4480   18.5430 C   0  0  0  0  0  2  0  0  0  0  0  0
  -27.6110  -13.2870   19.7970 C   0  0  0  0  0  3  0  0  0  0  0  0
  -28.6560  -13.1000   20.9230 C   0  0  0  0  0  2  0  0  0  0  0  0
  -29.9770  -13.4430   20.3710 N   0  0  0  0  0  0  0  0  0  0  0  0
  -31.7550  -14.8320   20.0890 O   0  0  0  0  0  0  0  0  0  0  0  0
  -29.7670  -15.7090   20.7890 N   0  0  0  0  0  0  0  0  0  0  0  0
  -28.8210  -15.4060   20.9630 H   0  0  0  0  0  0  0  0  0  0  0  0
  -25.2050  -13.8960   20.4650 C   0  0  0  0  0  0  0  0  0  0  0  0
  -24.1310  -13.1310   20.8280 C   0  0  0  0  0  0  0  0  0  0  0  0
  -24.5910  -11.7790   20.8220 C   0  0  0  0  0  0  0  0  0  0  0  0
  -26.2520  -13.0120   20.2610 N   0  0  0  0  0  0  0  0  0  0  0  0
  -25.8850  -11.7340   20.5320 N   0  0  0  0  0  0  0  0  0  0  0  0
  -23.8570  -10.5230   21.0160 C   0  0  0  0  0  0  0  0  0  0  0  0
  -24.2810   -9.5590   21.9540 C   0  0  0  0  0  3  0  0  0  0  0  0
  -23.5500   -8.3670   22.1380 C   0  0  0  0  0  3  0  0  0  0  0  0
  -22.3780   -8.1290   21.3820 C   0  0  0  0  0  0  0  0  0  0  0  0
  -21.9710   -9.0820   20.4310 C   0  0  0  0  0  3  0  0  0  0  0  0
  -22.7040  -10.2670   20.2460 C   0  0  0  0  0  3  0  0  0  0  0  0
  -21.6150   -6.9890   21.4750 O   0  0  0  0  0  0  0  0  0  0  0  0
  -21.5680   -6.2450   22.6260 C   0  0  0  0  0  0  0  0  0  0  0  0
  -21.1500   -6.8030   23.8550 C   0  0  0  0  0  3  0  0  0  0  0  0
  -21.0490   -5.9860   25.0000 C   0  0  0  0  0  3  0  0  0  0  0  0
  -21.3540   -4.6150   24.9150 C   0  0  0  0  0  0  0  0  0  0  0  0
  -21.7640   -4.0570   23.6910 C   0  0  0  0  0  3  0  0  0  0  0  0
  -21.8670   -4.8700   22.5500 C   0  0  0  0  0  0  0  0  0  0  0  0
  -22.2420   -4.3240   21.3670 F   0  0  0  0  0  0  0  0  0  0  0  0
  -21.2500   -3.8280   26.0120 F   0  0  0  0  0  0  0  0  0  0  0  0
  -22.7300  -13.6170   21.0690 C   0  0  0  0  0  0  0  0  0  0  0  0
  -21.9880  -12.9390   21.9390 N   0  0  0  0  0  0  0  0  0  0  0  0
  -22.3030  -14.6330   20.5280 O   0  0  0  0  0  0  0  0  0  0  0  0
  -22.3460  -12.1180   22.4060 H   0  0  0  0  0  0  0  0  0  0  0  0
  -21.0470  -13.2450   22.1390 H   0  0  0  0  0  0  0  0  0  0  0  0
  -25.3670  -15.2650   20.2790 N   0  0  0  0  0  0  0  0  0  0  0  0
  -24.5930  -15.9090   20.3920 H   0  0  0  0  0  0  0  0  0  0  0  0
  -26.2150  -15.7410   19.9910 H   0  0  0  0  0  0  0  0  0  0  0  0
  -27.5080  -19.9390   19.8890 N   0  0  0  0  0  0  0  0  0  0  0  0
  -27.5530  -20.8340   19.4220 H   0  0  0  0  0  0  0  0  0  0  0  0
  -26.8250  -19.3080   19.4770 H   0  0  0  0  0  0  0  0  0  0  0  0
  -29.9800  -21.5340   20.7120 O   0  0  0  0  0  0  0  0  0  0  0  0
  -29.0050  -22.5090   20.2100 C   0  0  0  0  0  3  0  0  0  0  0  0
  -29.2640  -24.0470   20.5470 C   0  0  0  0  0  3  0  0  0  0  0  0
  -28.2370  -25.0940   19.9390 C   0  0  0  0  0  2  0  0  0  0  0  0
  -28.3890  -26.5330   20.2520 O   0  0  0  0  0  0  0  0  0  0  0  0
  -24.6330  -31.8880   23.2680 C   0  0  0  0  0  0  0  0  0  0  0  0
  -27.2550  -27.3580   20.1950 C   0  0  0  0  0  0  0  0  0  0  0  0
  -23.4290  -30.4980   21.6210 C   0  0  0  0  0  3  0  0  0  0  0  0
  -24.8790  -28.9570   20.1950 C   0  0  0  0  0  0  0  0  0  0  0  0
  -25.9670  -30.8230   21.4350 C   0  0  0  0  0  2  0  0  0  0  0  0
  -26.0490  -29.4490   20.7830 C   0  0  0  0  0  0  0  0  0  0  0  0
  -27.2380  -28.6630   20.7760 C   0  0  0  0  0  3  0  0  0  0  0  0
  -26.0560  -26.9150   19.5810 C   0  0  0  0  0  3  0  0  0  0  0  0
  -24.8830  -27.6900   19.5890 C   0  0  0  0  0  3  0  0  0  0  0  0
  -23.6430  -29.8330   20.2370 C   0  0  0  0  0  2  0  0  0  0  0  0
  -24.6950  -31.0850   22.1660 N   0  0  0  0  0  0  0  0  0  0  0  0
  -23.5500  -32.1600   23.8050 O   0  0  0  0  0  0  0  0  0  0  0  0
  -22.7720  -29.4710   22.5740 C   0  0  0  0  0  0  0  0  0  0  0  0
  -21.4480  -29.2910   22.4440 N   0  0  0  0  0  0  0  0  0  0  0  0
  -23.4510  -28.8410   23.3910 O   0  0  0  0  0  0  0  0  0  0  0  0
  -20.9640  -29.8460   21.7530 H   0  0  0  0  0  0  0  0  0  0  0  0
  -18.0680  -28.1030   22.9380 C   0  0  0  0  0  0  0  0  0  0  0  0
  -20.6270  -28.3510   23.2090 C   0  0  0  0  0  3  0  0  0  0  0  0
  -20.7260  -26.9250   22.6220 C   0  0  0  0  0  2  0  0  0  0  0  0
  -19.6220  -26.6100   21.6080 C   0  0  0  0  0  2  0  0  0  0  0  0
  -18.2400  -26.7580   22.2530 C   0  0  0  0  0  2  0  0  0  0  0  0
  -19.1900  -28.8580   23.3710 C   0  0  0  0  0  0  0  0  0  0  0  0
  -18.9760  -30.1170   23.9740 C   0  0  0  0  0  3  0  0  0  0  0  0
  -17.6730  -30.6210   24.1460 C   0  0  0  0  0  3  0  0  0  0  0  0
  -16.5650  -29.8640   23.7260 C   0  0  0  0  0  3  0  0  0  0  0  0
  -16.7640  -28.6070   23.1290 C   0  0  0  0  0  3  0  0  0  0  0  0
  -25.9170  -32.5160   23.8940 C   0  0  0  0  0  3  0  0  0  0  0  0
  -25.6080  -33.9130   24.2220 N   0  0  0  0  0  0  0  0  0  0  0  0
  -25.9260  -34.9640   23.4550 C   0  0  0  0  0  0  0  0  0  0  0  0
  -26.5830  -34.8600   22.4150 O   0  0  0  0  0  0  0  0  0  0  0  0
  -25.0240  -34.0690   25.0300 H   0  0  0  0  0  0  0  0  0  0  0  0
  -24.1760  -36.7420   23.1260 C   0  0  0  0  0  1  0  0  0  0  0  0
  -25.4360  -36.3520   23.9130 C   0  0  0  0  0  3  0  0  0  0  0  0
  -27.5830  -37.2550   24.6910 C   0  0  0  0  0  1  0  0  0  0  0  0
  -26.4580  -37.4130   23.7730 N   0  0  0  0  0  0  0  0  0  0  0  0
  -26.0470  -38.3290   23.9300 H   0  0  0  0  0  0  0  0  0  0  0  0
  -26.4240  -31.7450   25.1750 C   0  0  1  0  0  0  0  0  0  0  0  0
  -25.3230  -31.5100   26.2370 C   0  0  0  0  0  1  0  0  0  0  0  0
  -27.0070  -30.3680   24.7860 C   0  0  0  0  0  1  0  0  0  0  0  0
  -27.5720  -32.5370   25.8430 C   0  0  0  0  0  1  0  0  0  0  0  0
  2  1  1  0
  3 16  1  0
  3  1  2  0
  4  6  2  0
  4  5  1  0
  5 49  1  0
  5  2  2  0
  6  3  1  0
  7  6  1  0
  8 16  1  0
  9 14  1  0
 10 11  1  0
 10  9  1  0
 12 11  1  0
 12 21  1  0
 12 13  1  0
 14  8  1  0
 14 13  1  0
 15  8  2  0
 16 17  1  0
 18 19  2  0
 19 38  1  0
 20 19  1  0
 20 23  1  0
 21 18  1  0
 21 22  1  0
 22 20  2  0
 23 24  1  0
 24 25  2  0
 26 29  1  0
 26 25  1  0
 27 26  2  0
 28 27  1  0
 28 23  2  0
 29 30  1  0
 30 31  1  0
 31 32  2  0
 33 32  1  0
 33 37  1  0
 34 33  2  0
 35 30  2  0
 35 34  1  0
 36 35  1  0
 38 39  1  0
 39 42  1  0
 39 41  1  0
 40 38  2  0
 43 44  1  0
 43 18  1  0
 45 43  1  0
 46  4  1  0
 47 46  1  0
 48 46  1  0
 50 51  2  0
 50 49  1  0
 52 53  1  0
 52 51  1  0
 54 65  2  0
 55 53  1  0
 55 60  1  0
 56 64  1  0
 56 66  1  0
 57 63  1  0
 57 59  1  0
 58 64  1  0
 59 58  1  0
 60 59  2  0
 61 62  1  0
 61 55  2  0
 62 57  2  0
 63 56  1  0
 64 54  1  0
 66 68  2  0
 67 66  1  0
 69 67  1  0
 70 79  2  0
 70 75  1  0
 71 67  1  0
 71 75  1  0
 72 71  1  0
 73 74  1  0
 73 72  1  0
 74 70  1  0
 75 76  2  0
 76 77  1  0
 78 77  2  0
 79 78  1  0
 80 54  1  0
 80 81  1  0
 80 90  1  0
 81 84  1  0
 82 86  1  0
 82 81  1  0
 83 82  2  0
 86 85  1  0
 88 86  1  0
 88 89  1  0
 88 87  1  0
 90 93  1  1
 90 91  1  0
 92 90  1  0
M  ISO  4   8 100  16 100  52 101  53 101
M  END
>  <TORSDO>  (93) 
F 21

>  <SCORE>  (93) 
-14.133

>  <name>  (93) 
92

>  <ligand_id>  (93) 
92

>  <original_smiles>  (93) 
[H]c1c([H])c([H])c2c(c1[H])C([H])([H])C([H])([H])C([H])([H])C2([H])N([H])C(=O)C1([H])N(C(=O)C([H])(N([H])C(=O)C([H])(N([H])C([H])([H])[H])C([H])([H])[H])C(C([H])([H])[H])(C([H])([H])[H])C([H])([H])[H])C([H])([H])c2c([H])c(OC([H])([H])C([H])([H])C([H])([H])Oc3c([H])c([H])c(N([H])C(=O)N4C([H])([H])C([H])([H])C([H])([H])C([H])(n5nc(-c6c([H])c([H])c(Oc7c([H])c([H])c(F)c([H])c7F)c([H])c6[H])c(C(=O)N([H])[H])c5N([H])[H])C4([H])[H])c(F)c3N([H])[H])c([H])c([H])c2C1([H])[H]

>  <smiles>  (93) 
[H]c1c([H])c([H])c2c(c1[H])C([H])([H])C([H])([H])C([H])([H])C2([H])N([H])C(=O)C1([H])N(C(=O)C([H])(N([H])C(=O)C([H])(N([H])C([H])([H])[H])C([H])([H])[H])C(C([H])([H])[H])(C([H])([H])[H])C([H])([H])[H])C([H])([H])c2c([H])c(OC([H])([H])C([H])([H])C([H])([H])Oc3c([H])c([H])c(N([H])C(=O)N4C([H])([H])C([H])([H])C([H])([H])C([H])(n5nc(-c6c([H])c([H])c(Oc7c([H])c([H])c(F)c([H])c7F)c([H])c6[H])c(C(=O)N([H])[H])c5N([H])[H])C4([H])[H])c(F)c3N([H])[H])c([H])c([H])c2C1([H])[H]

$$$$
93:0:0
     RDKit          3D

 93102  0  0  1  0  0  0  0  0999 V2000
  -28.4930  -21.4170   19.0750 C   0  0  0  0  0  0  0  0  0  0  0  0
  -27.9860  -22.8780   18.9870 C   0  0  0  0  0  2  0  0  0  0  0  0
  -29.0200  -22.4190   21.0450 C   0  0  0  0  0  2  0  0  0  0  0  0
  -28.7370  -23.6550   20.0850 C   0  0  0  0  0  3  0  0  0  0  0  0
  -29.0430  -21.1230   20.2720 N   0  0  0  0  0  0  0  0  0  0  0  0
  -28.4050  -20.6580   18.1080 O   0  0  0  0  0  0  0  0  0  0  0  0
  -31.4720  -18.8190   22.0770 C   0  0  0  0  0  3  0  0  0  0  0  0
  -30.7400  -19.9400   21.6420 C   0  0  0  0  0  3  0  0  0  0  0  0
  -31.1750  -17.5250   21.6150 C   0  0  0  0  0  3  0  0  0  0  0  0
  -29.6910  -19.8380   20.6970 C   0  0  0  0  0  0  0  0  0  0  0  0
  -30.1210  -17.3000   20.7100 C   0  0  0  0  0  0  0  0  0  0  0  0
  -29.3810  -18.4730   20.2580 C   0  0  0  0  0  0  0  0  0  0  0  0
  -28.3460  -18.2630   19.4140 F   0  0  0  0  0  0  0  0  0  0  0  0
  -30.5780  -14.7690   20.2710 C   0  0  0  0  0  0  0  0  0  0  0  0
  -30.3730  -12.5020   19.2470 C   0  0  0  0  0  2  0  0  0  0  0  0
  -29.4150  -12.5660   18.0390 C   0  0  0  0  0  2  0  0  0  0  0  0
  -27.9530  -12.3880   18.4950 C   0  0  0  0  0  2  0  0  0  0  0  0
  -27.5930  -13.2850   19.7100 C   0  0  0  0  0  3  0  0  0  0  0  0
  -28.6660  -13.2030   20.8140 C   0  0  0  0  0  2  0  0  0  0  0  0
  -29.9490  -13.5520   20.1930 N   0  0  0  0  0  0  0  0  0  0  0  0
  -31.7750  -14.8630   19.9820 O   0  0  0  0  0  0  0  0  0  0  0  0
  -29.7820  -15.8970   20.3830 N   0  0  0  0  0  0  0  0  0  0  0  0
  -28.7950  -15.7200   20.2800 H   0  0  0  0  0  0  0  0  0  0  0  0
  -25.2210  -13.8770   20.4900 C   0  0  0  0  0  0  0  0  0  0  0  0
  -24.1610  -13.1010   20.8730 C   0  0  0  0  0  0  0  0  0  0  0  0
  -24.6230  -11.7500   20.8240 C   0  0  0  0  0  0  0  0  0  0  0  0
  -26.2580  -12.9960   20.2240 N   0  0  0  0  0  0  0  0  0  0  0  0
  -25.9080  -11.7120   20.4920 N   0  0  0  0  0  0  0  0  0  0  0  0
  -23.8980  -10.4870   21.0180 C   0  0  0  0  0  0  0  0  0  0  0  0
  -24.3320   -9.5200   21.9510 C   0  0  0  0  0  3  0  0  0  0  0  0
  -23.6070   -8.3220   22.1280 C   0  0  0  0  0  3  0  0  0  0  0  0
  -22.4350   -8.0840   21.3750 C   0  0  0  0  0  0  0  0  0  0  0  0
  -22.0210   -9.0380   20.4270 C   0  0  0  0  0  3  0  0  0  0  0  0
  -22.7470  -10.2280   20.2480 C   0  0  0  0  0  3  0  0  0  0  0  0
  -21.6790   -6.9390   21.4650 O   0  0  0  0  0  0  0  0  0  0  0  0
  -21.6180   -6.2060   22.6240 C   0  0  0  0  0  0  0  0  0  0  0  0
  -21.1540   -6.7640   23.8350 C   0  0  0  0  0  3  0  0  0  0  0  0
  -21.0420   -5.9580   24.9840 C   0  0  0  0  0  3  0  0  0  0  0  0
  -21.3800   -4.5930   24.9240 C   0  0  0  0  0  0  0  0  0  0  0  0
  -21.8380   -4.0330   23.7180 C   0  0  0  0  0  3  0  0  0  0  0  0
  -21.9520   -4.8370   22.5700 C   0  0  0  0  0  0  0  0  0  0  0  0
  -22.3710   -4.2890   21.4040 F   0  0  0  0  0  0  0  0  0  0  0  0
  -21.2660   -3.8150   26.0260 F   0  0  0  0  0  0  0  0  0  0  0  0
  -22.7690  -13.5750   21.1750 C   0  0  0  0  0  0  0  0  0  0  0  0
  -22.0530  -12.8620   22.0390 N   0  0  0  0  0  0  0  0  0  0  0  0
  -22.3250  -14.6100   20.6780 O   0  0  0  0  0  0  0  0  0  0  0  0
  -22.4260  -12.0230   22.4580 H   0  0  0  0  0  0  0  0  0  0  0  0
  -21.1200  -13.1550   22.2860 H   0  0  0  0  0  0  0  0  0  0  0  0
  -25.3860  -15.2500   20.3200 N   0  0  0  0  0  0  0  0  0  0  0  0
  -24.6190  -15.9020   20.4470 H   0  0  0  0  0  0  0  0  0  0  0  0
  -26.2210  -15.6960   19.9620 H   0  0  0  0  0  0  0  0  0  0  0  0
  -28.0300  -24.9870   20.6910 C   0  0  0  0  0  2  0  0  0  0  0  0
  -28.2960  -26.3990   20.2360 O   0  0  0  0  0  0  0  0  0  0  0  0
  -24.5860  -31.8950   23.2440 C   0  0  0  0  0  0  0  0  0  0  0  0
  -27.2120  -27.3020   20.2090 C   0  0  0  0  0  0  0  0  0  0  0  0
  -23.3990  -30.5010   21.5880 C   0  0  0  0  0  3  0  0  0  0  0  0
  -24.8620  -28.9400   20.1810 C   0  0  0  0  0  0  0  0  0  0  0  0
  -25.9450  -30.8070   21.4330 C   0  0  0  0  0  2  0  0  0  0  0  0
  -26.0290  -29.4230   20.7880 C   0  0  0  0  0  0  0  0  0  0  0  0
  -27.2110  -28.6160   20.7880 C   0  0  0  0  0  3  0  0  0  0  0  0
  -26.0290  -26.8900   19.5650 C   0  0  0  0  0  3  0  0  0  0  0  0
  -24.8650  -27.6810   19.5600 C   0  0  0  0  0  3  0  0  0  0  0  0
  -23.6270  -29.8200   20.2140 C   0  0  0  0  0  2  0  0  0  0  0  0
  -24.6630  -31.0880   22.1440 N   0  0  0  0  0  0  0  0  0  0  0  0
  -23.4970  -32.1710   23.7660 O   0  0  0  0  0  0  0  0  0  0  0  0
  -22.7250  -29.4860   22.5420 C   0  0  0  0  0  0  0  0  0  0  0  0
  -21.3990  -29.3160   22.4080 N   0  0  0  0  0  0  0  0  0  0  0  0
  -23.3950  -28.8550   23.3650 O   0  0  0  0  0  0  0  0  0  0  0  0
  -20.9180  -29.8750   21.7180 H   0  0  0  0  0  0  0  0  0  0  0  0
  -18.0160  -28.1310   22.9120 C   0  0  0  0  0  0  0  0  0  0  0  0
  -20.5760  -28.3770   23.1720 C   0  0  0  0  0  3  0  0  0  0  0  0
  -20.6630  -26.9490   22.5850 C   0  0  0  0  0  2  0  0  0  0  0  0
  -19.5580  -26.6450   21.5690 C   0  0  0  0  0  2  0  0  0  0  0  0
  -18.1790  -26.7880   22.2200 C   0  0  0  0  0  2  0  0  0  0  0  0
  -19.1400  -28.8840   23.3460 C   0  0  0  0  0  0  0  0  0  0  0  0
  -18.9310  -30.1430   23.9520 C   0  0  0  0  0  3  0  0  0  0  0  0
  -17.6300  -30.6500   24.1250 C   0  0  0  0  0  3  0  0  0  0  0  0
  -16.5200  -29.8970   23.7040 C   0  0  0  0  0  3  0  0  0  0  0  0
  -16.7140  -28.6400   23.1040 C   0  0  0  0  0  3  0  0  0  0  0  0
  -25.8590  -32.5280   23.8830 C   0  0  0  0  0  3  0  0  0  0  0  0
  -25.5450  -33.9310   24.1970 N   0  0  0  0  0  0  0  0  0  0  0  0
  -25.8930  -34.9800   23.4380 C   0  0  0  0  0  0  0  0  0  0  0  0
  -26.5780  -34.8660   22.4180 O   0  0  0  0  0  0  0  0  0  0  0  0
  -24.9260  -34.0900   24.9800 H   0  0  0  0  0  0  0  0  0  0  0  0
  -24.1840  -36.7880   23.0430 C   0  0  0  0  0  1  0  0  0  0  0  0
  -25.4070  -36.3750   23.8800 C   0  0  0  0  0  3  0  0  0  0  0  0
  -27.5310  -37.2560   24.7430 C   0  0  0  0  0  1  0  0  0  0  0  0
  -26.4490  -37.4190   23.7770 N   0  0  0  0  0  0  0  0  0  0  0  0
  -26.0470  -38.3450   23.9020 H   0  0  0  0  0  0  0  0  0  0  0  0
  -26.3530  -31.7670   25.1770 C   0  0  1  0  0  0  0  0  0  0  0  0
  -25.2460  -31.5420   26.2330 C   0  0  0  0  0  1  0  0  0  0  0  0
  -26.9390  -30.3840   24.8100 C   0  0  0  0  0  1  0  0  0  0  0  0
  -27.4970  -32.5640   25.8470 C   0  0  0  0  0  1  0  0  0  0  0  0
  1  5  1  0
  2  1  1  0
  2  4  1  0
  4 52  1  0
  4  3  1  0
  5 10  1  0
  5  3  1  0
  6  1  2  0
  8  7  1  0
  9  7  2  0
 10  8  2  0
 11  9  1  0
 12 10  1  0
 12 11  2  0
 13 12  1  0
 14 22  1  0
 15 20  1  0
 16 17  1  0
 16 15  1  0
 18 17  1  0
 18 27  1  0
 18 19  1  0
 20 14  1  0
 20 19  1  0
 21 14  2  0
 22 11  1  0
 23 22  1  0
 24 25  2  0
 25 44  1  0
 26 25  1  0
 26 29  1  0
 27 24  1  0
 27 28  1  0
 28 26  2  0
 29 30  1  0
 30 31  2  0
 32 35  1  0
 32 31  1  0
 33 32  2  0
 34 33  1  0
 34 29  2  0
 35 36  1  0
 36 37  1  0
 37 38  2  0
 39 38  1  0
 39 43  1  0
 40 39  2  0
 41 36  2  0
 41 40  1  0
 42 41  1  0
 44 45  1  0
 45 48  1  0
 45 47  1  0
 46 44  2  0
 49 50  1  0
 49 24  1  0
 51 49  1  0
 53 52  1  0
 54 65  2  0
 55 53  1  0
 55 60  1  0
 56 64  1  0
 56 66  1  0
 57 63  1  0
 57 59  1  0
 58 64  1  0
 59 60  2  0
 59 58  1  0
 61 55  2  0
 62 61  1  0
 62 57  2  0
 63 56  1  0
 64 54  1  0
 66 68  2  0
 67 66  1  0
 69 67  1  0
 70 79  2  0
 70 75  1  0
 71 67  1  0
 71 75  1  0
 72 71  1  0
 73 74  1  0
 73 72  1  0
 74 70  1  0
 75 76  2  0
 76 77  1  0
 78 77  2  0
 79 78  1  0
 80 54  1  0
 80 81  1  0
 80 90  1  0
 81 84  1  0
 82 86  1  0
 82 81  1  0
 83 82  2  0
 86 85  1  0
 88 86  1  0
 88 89  1  0
 88 87  1  0
 90 93  1  1
 90 91  1  0
 92 90  1  0
M  ISO  4  14 100  22 100  52 101  53 101
M  END
>  <TORSDO>  (94) 
F 18

>  <SCORE>  (94) 
-15.105

>  <name>  (94) 
93

>  <ligand_id>  (94) 
93

>  <original_smiles>  (94) 
[H]c1c([H])c(N([H])C(=O)N2C([H])([H])C([H])([H])C([H])([H])C([H])(n3nc(-c4c([H])c([H])c(Oc5c([H])c([H])c(F)c([H])c5F)c([H])c4[H])c(C(=O)N([H])[H])c3N([H])[H])C2([H])[H])c(F)c(N2C(=O)C([H])([H])C([H])(C([H])([H])Oc3c([H])c([H])c4c(c3[H])C([H])([H])N(C(=O)C([H])(N([H])C(=O)C([H])(N([H])C([H])([H])[H])C([H])([H])[H])C(C([H])([H])[H])(C([H])([H])[H])C([H])([H])[H])C([H])(C(=O)N([H])C3([H])c5c([H])c([H])c([H])c([H])c5C([H])([H])C([H])([H])C3([H])[H])C4([H])[H])C2([H])[H])c1[H]

>  <smiles>  (94) 
[H]c1c([H])c(N([H])C(=O)N2C([H])([H])C([H])([H])C([H])([H])C([H])(n3nc(-c4c([H])c([H])c(Oc5c([H])c([H])c(F)c([H])c5F)c([H])c4[H])c(C(=O)N([H])[H])c3N([H])[H])C2([H])[H])c(F)c(N2C(=O)C([H])([H])C([H])(C([H])([H])Oc3c([H])c([H])c4c(c3[H])C([H])([H])N(C(=O)C([H])(N([H])C(=O)C([H])(N([H])C([H])([H])[H])C([H])([H])[H])C(C([H])([H])[H])(C([H])([H])[H])C([H])([H])[H])C([H])(C(=O)N([H])C3([H])c5c([H])c([H])c([H])c([H])c5C([H])([H])C([H])([H])C3([H])[H])C4([H])[H])C2([H])[H])c1[H]

$$$$
94:0:0
     RDKit          3D

 97106  0  0  1  0  0  0  0  0999 V2000
  -31.8830  -24.5360   20.3930 C   0  0  0  0  0  0  0  0  0  0  0  0
  -29.3370  -23.2000   19.9310 C   0  0  0  0  0  0  0  0  0  0  0  0
  -30.7270  -25.3100   19.7840 C   0  0  0  0  0  2  0  0  0  0  0  0
  -31.7810  -23.0040   20.3730 C   0  0  0  0  0  2  0  0  0  0  0  0
  -29.4170  -24.7010   20.2910 C   0  0  0  0  0  3  0  0  0  0  0  0
  -30.4230  -22.4120   20.1890 N   0  0  0  0  0  0  0  0  0  0  0  0
  -32.8710  -25.1130   20.8520 O   0  0  0  0  0  0  0  0  0  0  0  0
  -28.3020  -22.7720   19.4090 O   0  0  0  0  0  0  0  0  0  0  0  0
  -31.3640  -18.7930   19.6450 C   0  0  0  0  0  3  0  0  0  0  0  0
  -31.4580  -20.1870   19.7850 C   0  0  0  0  0  3  0  0  0  0  0  0
  -29.1300  -20.2620   20.4590 C   0  0  0  0  0  3  0  0  0  0  0  0
  -30.1470  -18.1170   19.8750 C   0  0  0  0  0  0  0  0  0  0  0  0
  -30.3290  -20.9650   20.1440 C   0  0  0  0  0  0  0  0  0  0  0  0
  -29.0290  -18.8600   20.3130 C   0  0  0  0  0  0  0  0  0  0  0  0
  -27.8410  -18.2530   20.5440 F   0  0  0  0  0  0  0  0  0  0  0  0
  -30.7290  -14.6200   20.4080 C   0  0  0  0  0  0  0  0  0  0  0  0
  -30.4310  -12.4170   19.3970 C   0  0  0  0  0  2  0  0  0  0  0  0
  -29.5170  -12.5960   18.1680 C   0  0  0  0  0  2  0  0  0  0  0  0
  -28.0360  -12.4710   18.5750 C   0  0  0  0  0  2  0  0  0  0  0  0
  -27.6720  -13.3450   19.8050 C   0  0  0  0  0  3  0  0  0  0  0  0
  -28.7130  -13.1990   20.9390 C   0  0  0  0  0  2  0  0  0  0  0  0
  -30.0470  -13.4460   20.3760 N   0  0  0  0  0  0  0  0  0  0  0  0
  -31.9210  -14.6980   20.0910 O   0  0  0  0  0  0  0  0  0  0  0  0
  -30.0700  -16.6700   19.4900 C   0  0  0  0  0  0  0  0  0  0  0  0
  -29.9750  -15.7340   20.4560 N   0  0  0  0  0  0  0  0  0  0  0  0
  -30.1830  -16.3860   18.2910 O   0  0  0  0  0  0  0  0  0  0  0  0
  -29.5910  -15.9960   21.3500 H   0  0  0  0  0  0  0  0  0  0  0  0
  -25.2670  -13.9400   20.5010 C   0  0  0  0  0  0  0  0  0  0  0  0
  -24.1990  -13.1620   20.8600 C   0  0  0  0  0  0  0  0  0  0  0  0
  -24.6670  -11.8120   20.8350 C   0  0  0  0  0  0  0  0  0  0  0  0
  -26.3170  -13.0620   20.2780 N   0  0  0  0  0  0  0  0  0  0  0  0
  -25.9610  -11.7790   20.5410 N   0  0  0  0  0  0  0  0  0  0  0  0
  -23.9430  -10.5470   21.0190 C   0  0  0  0  0  0  0  0  0  0  0  0
  -24.3590   -9.5890   21.9710 C   0  0  0  0  0  3  0  0  0  0  0  0
  -23.6370   -8.3880   22.1430 C   0  0  0  0  0  3  0  0  0  0  0  0
  -22.4850   -8.1360   21.3610 C   0  0  0  0  0  0  0  0  0  0  0  0
  -22.0880   -9.0810   20.3980 C   0  0  0  0  0  3  0  0  0  0  0  0
  -22.8110  -10.2730   20.2260 C   0  0  0  0  0  3  0  0  0  0  0  0
  -21.7360   -6.9860   21.4400 O   0  0  0  0  0  0  0  0  0  0  0  0
  -21.6550   -6.2600   22.6010 C   0  0  0  0  0  0  0  0  0  0  0  0
  -21.1270   -6.8090   23.7900 C   0  0  0  0  0  3  0  0  0  0  0  0
  -20.9970   -6.0060   24.9410 C   0  0  0  0  0  3  0  0  0  0  0  0
  -21.3870   -4.6540   24.9020 C   0  0  0  0  0  0  0  0  0  0  0  0
  -21.9070   -4.1030   23.7180 C   0  0  0  0  0  3  0  0  0  0  0  0
  -22.0390   -4.9050   22.5710 C   0  0  0  0  0  0  0  0  0  0  0  0
  -22.5220   -4.3640   21.4260 F   0  0  0  0  0  0  0  0  0  0  0  0
  -21.2550   -3.8780   26.0040 F   0  0  0  0  0  0  0  0  0  0  0  0
  -22.7950  -13.6330   21.1140 C   0  0  0  0  0  0  0  0  0  0  0  0
  -22.0560  -12.9300   21.9650 N   0  0  0  0  0  0  0  0  0  0  0  0
  -22.3610  -14.6590   20.5940 O   0  0  0  0  0  0  0  0  0  0  0  0
  -22.4170  -12.0980   22.4090 H   0  0  0  0  0  0  0  0  0  0  0  0
  -21.1140  -13.2290   22.1740 H   0  0  0  0  0  0  0  0  0  0  0  0
  -25.4330  -15.3110   20.3270 N   0  0  0  0  0  0  0  0  0  0  0  0
  -24.6690  -15.9660   20.4500 H   0  0  0  0  0  0  0  0  0  0  0  0
  -26.2980  -15.7600   20.0520 H   0  0  0  0  0  0  0  0  0  0  0  0
  -28.1780  -25.4670   19.8050 C   0  0  0  0  0  2  0  0  0  0  0  0
  -28.2590  -26.8580   20.1150 O   0  0  0  0  0  0  0  0  0  0  0  0
  -24.4260  -31.9240   23.2780 C   0  0  0  0  0  0  0  0  0  0  0  0
  -27.0790  -27.5720   20.0900 C   0  0  0  0  0  0  0  0  0  0  0  0
  -23.2280  -30.5740   21.5880 C   0  0  0  0  0  3  0  0  0  0  0  0
  -24.6840  -29.0770   20.1290 C   0  0  0  0  0  0  0  0  0  0  0  0
  -25.7560  -30.9240   21.4220 C   0  0  0  0  0  2  0  0  0  0  0  0
  -25.8370  -29.5740   20.7470 C   0  0  0  0  0  0  0  0  0  0  0  0
  -27.0360  -28.8280   20.7320 C   0  0  0  0  0  3  0  0  0  0  0  0
  -25.9100  -27.0920   19.4530 C   0  0  0  0  0  3  0  0  0  0  0  0
  -24.7150  -27.8310   19.4800 C   0  0  0  0  0  3  0  0  0  0  0  0
  -23.4440  -29.9400   20.1870 C   0  0  0  0  0  2  0  0  0  0  0  0
  -24.4890  -31.1540   22.1540 N   0  0  0  0  0  0  0  0  0  0  0  0
  -23.3400  -32.1860   23.8140 O   0  0  0  0  0  0  0  0  0  0  0  0
  -22.5690  -29.5260   22.5100 C   0  0  0  0  0  0  0  0  0  0  0  0
  -21.2450  -29.3530   22.3590 N   0  0  0  0  0  0  0  0  0  0  0  0
  -23.2420  -28.8740   23.3140 O   0  0  0  0  0  0  0  0  0  0  0  0
  -20.7690  -29.9320   21.6820 H   0  0  0  0  0  0  0  0  0  0  0  0
  -17.8540  -28.1940   22.8220 C   0  0  0  0  0  0  0  0  0  0  0  0
  -20.4160  -28.3960   23.0900 C   0  0  0  0  0  3  0  0  0  0  0  0
  -20.4920  -26.9910   22.4490 C   0  0  0  0  0  2  0  0  0  0  0  0
  -19.3780  -26.7280   21.4310 C   0  0  0  0  0  2  0  0  0  0  0  0
  -18.0040  -26.8710   22.0920 C   0  0  0  0  0  2  0  0  0  0  0  0
  -18.9870  -28.9180   23.2770 C   0  0  0  0  0  0  0  0  0  0  0  0
  -18.7950  -30.1590   23.9200 C   0  0  0  0  0  3  0  0  0  0  0  0
  -17.5000  -30.6770   24.1150 C   0  0  0  0  0  3  0  0  0  0  0  0
  -16.3810  -29.9470   23.6750 C   0  0  0  0  0  3  0  0  0  0  0  0
  -16.5580  -28.7080   23.0360 C   0  0  0  0  0  3  0  0  0  0  0  0
  -25.7100  -32.5290   23.9270 C   0  0  0  0  0  3  0  0  0  0  0  0
  -25.4170  -33.9290   24.2540 N   0  0  0  0  0  0  0  0  0  0  0  0
  -25.7910  -34.9770   23.5080 C   0  0  0  0  0  0  0  0  0  0  0  0
  -26.4900  -34.8620   22.4970 O   0  0  0  0  0  0  0  0  0  0  0  0
  -24.8050  -34.0930   25.0390 H   0  0  0  0  0  0  0  0  0  0  0  0
  -24.1290  -36.8140   23.0730 C   0  0  0  0  0  1  0  0  0  0  0  0
  -25.3110  -36.3720   23.9520 C   0  0  0  0  0  3  0  0  0  0  0  0
  -27.4090  -37.2010   24.9270 C   0  0  0  0  0  1  0  0  0  0  0  0
  -26.3750  -37.3990   23.9150 N   0  0  0  0  0  0  0  0  0  0  0  0
  -25.9840  -38.3290   24.0400 H   0  0  0  0  0  0  0  0  0  0  0  0
  -26.1850  -31.7450   25.2120 C   0  0  1  0  0  0  0  0  0  0  0  0
  -25.0660  -31.5130   26.2530 C   0  0  0  0  0  1  0  0  0  0  0  0
  -26.7610  -30.3640   24.8180 C   0  0  0  0  0  1  0  0  0  0  0  0
  -27.3250  -32.5270   25.9080 C   0  0  0  0  0  1  0  0  0  0  0  0
  1  7  2  0
  2  6  1  0
  2  5  1  0
  3  5  1  0
  3  1  1  0
  4  1  1  0
  5 56  1  0
  6  4  1  0
  8  2  2  0
  9 10  2  0
  9 12  1  0
 10 13  1  0
 12 14  2  0
 13  6  1  0
 13 11  2  0
 14 11  1  0
 14 15  1  0
 16 25  1  0
 17 22  1  0
 18 19  1  0
 18 17  1  0
 20 19  1  0
 20 31  1  0
 20 21  1  0
 22 16  1  0
 22 21  1  0
 23 16  2  0
 24 12  1  0
 24 25  1  0
 25 27  1  0
 26 24  2  0
 28 29  2  0
 29 48  1  0
 30 29  1  0
 30 33  1  0
 31 28  1  0
 31 32  1  0
 32 30  2  0
 33 34  1  0
 34 35  2  0
 36 39  1  0
 36 35  1  0
 37 36  2  0
 38 37  1  0
 38 33  2  0
 39 40  1  0
 40 41  1  0
 41 42  2  0
 43 42  1  0
 43 47  1  0
 44 43  2  0
 45 40  2  0
 45 44  1  0
 46 45  1  0
 48 49  1  0
 49 52  1  0
 49 51  1  0
 50 48  2  0
 53 54  1  0
 53 28  1  0
 55 53  1  0
 56 57  1  0
 58 69  2  0
 59 57  1  0
 59 64  1  0
 60 68  1  0
 60 70  1  0
 61 67  1  0
 61 63  1  0
 62 68  1  0
 63 62  1  0
 64 63  2  0
 65 66  1  0
 65 59  2  0
 66 61  2  0
 67 60  1  0
 68 58  1  0
 70 72  2  0
 71 70  1  0
 73 71  1  0
 74 83  2  0
 74 79  1  0
 75 71  1  0
 75 79  1  0
 76 75  1  0
 77 78  1  0
 77 76  1  0
 78 74  1  0
 79 80  2  0
 80 81  1  0
 82 81  2  0
 83 82  1  0
 84 58  1  0
 84 85  1  0
 84 94  1  0
 85 88  1  0
 86 90  1  0
 86 85  1  0
 87 86  2  0
 90 89  1  0
 92 90  1  0
 92 93  1  0
 92 91  1  0
 94 97  1  1
 94 95  1  0
 96 94  1  0
M  ISO  4  16 100  25 100  56 101  57 101
M  END
>  <TORSDO>  (95) 
F 18

>  <SCORE>  (95) 
-14.438

>  <name>  (95) 
94

>  <ligand_id>  (95) 
94

>  <original_smiles>  (95) 
[H]c1c([H])c([H])c2c(c1[H])C([H])([H])C([H])([H])C([H])([H])C2([H])N([H])C(=O)C1([H])N(C(=O)C([H])(N([H])C(=O)C([H])(N([H])C([H])([H])[H])C([H])([H])[H])C(C([H])([H])[H])(C([H])([H])[H])C([H])([H])[H])C([H])([H])c2c([H])c(OC([H])([H])C3([H])C(=O)N(c4c([H])c([H])c(C(=O)N([H])C(=O)N5C([H])([H])C([H])([H])C([H])([H])C([H])(n6nc(-c7c([H])c([H])c(Oc8c([H])c([H])c(F)c([H])c8F)c([H])c7[H])c(C(=O)N([H])[H])c6N([H])[H])C5([H])[H])c(F)c4[H])C([H])([H])C(=O)C3([H])[H])c([H])c([H])c2C1([H])[H]

>  <smiles>  (95) 
[H]c1c([H])c([H])c2c(c1[H])C([H])([H])C([H])([H])C([H])([H])C2([H])N([H])C(=O)C1([H])N(C(=O)C([H])(N([H])C(=O)C([H])(N([H])C([H])([H])[H])C([H])([H])[H])C(C([H])([H])[H])(C([H])([H])[H])C([H])([H])[H])C([H])([H])c2c([H])c(OC([H])([H])C3([H])C(=O)N(c4c([H])c([H])c(C(=O)N([H])C(=O)N5C([H])([H])C([H])([H])C([H])([H])C([H])(n6nc(-c7c([H])c([H])c(Oc8c([H])c([H])c(F)c([H])c8F)c([H])c7[H])c(C(=O)N([H])[H])c6N([H])[H])C5([H])[H])c(F)c4[H])C([H])([H])C(=O)C3([H])[H])c([H])c([H])c2C1([H])[H]

$$$$
95:0:0
     RDKit          3D

 96105  0  0  1  0  0  0  0  0999 V2000
  -31.1110  -20.3090   19.5630 C   0  0  0  0  0  3  0  0  0  0  0  0
  -31.5550  -17.8890   19.5340 C   0  0  0  0  0  3  0  0  0  0  0  0
  -29.8270  -20.1490   20.1350 C   0  0  0  0  0  0  0  0  0  0  0  0
  -31.9470  -19.2160   19.2670 C   0  0  0  0  0  0  0  0  0  0  0  0
  -30.3050  -17.5680   20.1180 C   0  0  0  0  0  0  0  0  0  0  0  0
  -29.4540  -18.7390   20.4040 C   0  0  0  0  0  0  0  0  0  0  0  0
  -28.2410  -18.4830   20.9490 F   0  0  0  0  0  0  0  0  0  0  0  0
  -30.6570  -14.9100   20.1490 C   0  0  0  0  0  0  0  0  0  0  0  0
  -30.4120  -12.6220   19.1440 C   0  0  0  0  0  2  0  0  0  0  0  0
  -29.4570  -12.6800   17.9320 C   0  0  0  0  0  2  0  0  0  0  0  0
  -27.9980  -12.4950   18.3890 C   0  0  0  0  0  2  0  0  0  0  0  0
  -27.6410  -13.3780   19.6140 C   0  0  0  0  0  3  0  0  0  0  0  0
  -28.7220  -13.3220   20.7150 C   0  0  0  0  0  2  0  0  0  0  0  0
  -29.9980  -13.6920   20.0900 N   0  0  0  0  0  0  0  0  0  0  0  0
  -31.8510  -14.9170   19.8460 O   0  0  0  0  0  0  0  0  0  0  0  0
  -29.9450  -16.1100   20.3580 N   0  0  0  0  0  0  0  0  0  0  0  0
  -28.9920  -15.9700   20.6550 H   0  0  0  0  0  0  0  0  0  0  0  0
  -25.2630  -13.9460   20.3750 C   0  0  0  0  0  0  0  0  0  0  0  0
  -24.2100  -13.1660   20.7650 C   0  0  0  0  0  0  0  0  0  0  0  0
  -24.6850  -11.8190   20.7430 C   0  0  0  0  0  0  0  0  0  0  0  0
  -26.3110  -13.0750   20.1320 N   0  0  0  0  0  0  0  0  0  0  0  0
  -25.9730  -11.7910   20.4190 N   0  0  0  0  0  0  0  0  0  0  0  0
  -23.9710  -10.5520   20.9530 C   0  0  0  0  0  0  0  0  0  0  0  0
  -24.4130   -9.6020   21.9010 C   0  0  0  0  0  3  0  0  0  0  0  0
  -23.6970   -8.4020   22.0990 C   0  0  0  0  0  3  0  0  0  0  0  0
  -22.5240   -8.1430   21.3500 C   0  0  0  0  0  0  0  0  0  0  0  0
  -22.1020   -9.0810   20.3910 C   0  0  0  0  0  3  0  0  0  0  0  0
  -22.8190  -10.2730   20.1920 C   0  0  0  0  0  3  0  0  0  0  0  0
  -21.7800   -6.9930   21.4560 O   0  0  0  0  0  0  0  0  0  0  0  0
  -21.7340   -6.2700   22.6220 C   0  0  0  0  0  0  0  0  0  0  0  0
  -21.2890   -6.8390   23.8340 C   0  0  0  0  0  3  0  0  0  0  0  0
  -21.1920   -6.0420   24.9930 C   0  0  0  0  0  3  0  0  0  0  0  0
  -21.5300   -4.6770   24.9380 C   0  0  0  0  0  0  0  0  0  0  0  0
  -21.9680   -4.1070   23.7300 C   0  0  0  0  0  3  0  0  0  0  0  0
  -22.0670   -4.9020   22.5740 C   0  0  0  0  0  0  0  0  0  0  0  0
  -22.4690   -4.3420   21.4080 F   0  0  0  0  0  0  0  0  0  0  0  0
  -21.4300   -3.9090   26.0490 F   0  0  0  0  0  0  0  0  0  0  0  0
  -22.8110  -13.6340   21.0470 C   0  0  0  0  0  0  0  0  0  0  0  0
  -22.0990  -12.9410   21.9270 N   0  0  0  0  0  0  0  0  0  0  0  0
  -22.3600  -14.6510   20.5220 O   0  0  0  0  0  0  0  0  0  0  0  0
  -22.4770  -12.1180   22.3730 H   0  0  0  0  0  0  0  0  0  0  0  0
  -21.1610  -13.2370   22.1590 H   0  0  0  0  0  0  0  0  0  0  0  0
  -25.4120  -15.3160   20.1810 N   0  0  0  0  0  0  0  0  0  0  0  0
  -24.6400  -15.9640   20.2990 H   0  0  0  0  0  0  0  0  0  0  0  0
  -26.2480  -15.7620   19.8280 H   0  0  0  0  0  0  0  0  0  0  0  0
  -28.1860  -23.6590   20.7280 C   0  0  0  0  0  0  0  0  0  0  0  0
  -29.1700  -22.7580   20.0360 C   0  0  0  0  0  0  0  0  0  0  0  0
  -27.8620  -25.0340   20.7280 C   0  0  0  0  0  3  0  0  0  0  0  0
  -27.3870  -22.7430   21.6230 C   0  0  0  0  0  3  0  0  0  0  0  0
  -27.8810  -21.3130   21.3450 C   0  0  0  0  0  3  0  0  0  0  0  0
  -29.0230  -21.4090   20.4400 N   0  0  0  0  0  0  0  0  0  0  0  0
  -29.9890  -23.1520   19.2020 O   0  0  0  0  0  0  0  0  0  0  0  0
  -28.2520  -26.2780   20.1150 O   0  0  0  0  0  0  0  0  0  0  0  0
  -24.6200  -31.8550   23.1730 C   0  0  0  0  0  0  0  0  0  0  0  0
  -27.2340  -27.2770   20.0570 C   0  0  0  0  0  0  0  0  0  0  0  0
  -23.4270  -30.4780   21.5100 C   0  0  0  0  0  3  0  0  0  0  0  0
  -24.8890  -28.9540   20.0540 C   0  0  0  0  0  0  0  0  0  0  0  0
  -25.9740  -30.7850   21.3450 C   0  0  0  0  0  2  0  0  0  0  0  0
  -26.0610  -29.4110   20.6720 C   0  0  0  0  0  0  0  0  0  0  0  0
  -27.2400  -28.5850   20.6660 C   0  0  0  0  0  3  0  0  0  0  0  0
  -26.0440  -26.9100   19.3940 C   0  0  0  0  0  3  0  0  0  0  0  0
  -24.8880  -27.7130   19.4010 C   0  0  0  0  0  3  0  0  0  0  0  0
  -23.6500  -29.8300   20.1190 C   0  0  0  0  0  2  0  0  0  0  0  0
  -24.6930  -31.0580   22.0650 N   0  0  0  0  0  0  0  0  0  0  0  0
  -23.5330  -32.1210   23.7080 O   0  0  0  0  0  0  0  0  0  0  0  0
  -22.7610  -29.4470   22.4540 C   0  0  0  0  0  0  0  0  0  0  0  0
  -21.4310  -29.2850   22.3410 N   0  0  0  0  0  0  0  0  0  0  0  0
  -23.4410  -28.7960   23.2510 O   0  0  0  0  0  0  0  0  0  0  0  0
  -20.9390  -29.8630   21.6730 H   0  0  0  0  0  0  0  0  0  0  0  0
  -18.0440  -28.1260   22.8870 C   0  0  0  0  0  0  0  0  0  0  0  0
  -20.6130  -28.3360   23.0990 C   0  0  0  0  0  3  0  0  0  0  0  0
  -20.6760  -26.9230   22.4740 C   0  0  0  0  0  2  0  0  0  0  0  0
  -19.5430  -26.6530   21.4780 C   0  0  0  0  0  2  0  0  0  0  0  0
  -18.1800  -26.7990   22.1600 C   0  0  0  0  0  2  0  0  0  0  0  0
  -19.1850  -28.8550   23.3140 C   0  0  0  0  0  0  0  0  0  0  0  0
  -19.0020  -30.0990   23.9560 C   0  0  0  0  0  3  0  0  0  0  0  0
  -17.7100  -30.6140   24.1730 C   0  0  0  0  0  3  0  0  0  0  0  0
  -16.5830  -29.8820   23.7610 C   0  0  0  0  0  3  0  0  0  0  0  0
  -16.7510  -28.6400   23.1240 C   0  0  0  0  0  3  0  0  0  0  0  0
  -25.8960  -32.4860   23.8090 C   0  0  0  0  0  3  0  0  0  0  0  0
  -25.5800  -33.8800   24.1560 N   0  0  0  0  0  0  0  0  0  0  0  0
  -25.8960  -34.9450   23.4080 C   0  0  0  0  0  0  0  0  0  0  0  0
  -26.5540  -34.8580   22.3670 O   0  0  0  0  0  0  0  0  0  0  0  0
  -24.9950  -34.0210   24.9670 H   0  0  0  0  0  0  0  0  0  0  0  0
  -24.1550  -36.7350   23.0950 C   0  0  0  0  0  1  0  0  0  0  0  0
  -25.4070  -36.3260   23.8880 C   0  0  0  0  0  3  0  0  0  0  0  0
  -27.5430  -37.2130   24.7120 C   0  0  0  0  0  1  0  0  0  0  0  0
  -26.4330  -37.3850   23.7790 N   0  0  0  0  0  0  0  0  0  0  0  0
  -26.0230  -38.3010   23.9410 H   0  0  0  0  0  0  0  0  0  0  0  0
  -26.4080  -31.7030   25.0790 C   0  0  1  0  0  0  0  0  0  0  0  0
  -25.3120  -31.4510   26.1400 C   0  0  0  0  0  1  0  0  0  0  0  0
  -26.9980  -30.3320   24.6780 C   0  0  0  0  0  1  0  0  0  0  0  0
  -27.5530  -32.4940   25.7550 C   0  0  0  0  0  1  0  0  0  0  0  0
  -33.2000  -19.4570   18.7040 N   0  0  0  0  0  0  0  0  0  0  0  0
  -33.3960  -20.3610   18.2850 H   0  0  0  0  0  0  0  0  0  0  0  0
  -33.7100  -18.6940   18.2680 H   0  0  0  0  0  0  0  0  0  0  0  0
  1  3  1  0
  2  5  2  0
  3  6  2  0
  3 51  1  0
  4  2  1  0
  4  1  2  0
  5 16  1  0
  5  6  1  0
  6  7  1  0
  8 16  1  0
  9 14  1  0
 10 11  1  0
 10  9  1  0
 12 11  1  0
 12 21  1  0
 12 13  1  0
 14  8  1  0
 14 13  1  0
 15  8  2  0
 16 17  1  0
 18 19  2  0
 19 38  1  0
 20 19  1  0
 20 23  1  0
 21 18  1  0
 21 22  1  0
 22 20  2  0
 23 24  1  0
 24 25  2  0
 26 29  1  0
 26 25  1  0
 27 26  2  0
 28 27  1  0
 28 23  2  0
 29 30  1  0
 30 31  1  0
 31 32  2  0
 33 32  1  0
 33 37  1  0
 34 33  2  0
 35 30  2  0
 35 34  1  0
 36 35  1  0
 38 39  1  0
 39 42  1  0
 39 41  1  0
 40 38  2  0
 43 44  1  0
 43 18  1  0
 45 43  1  0
 46 48  2  0
 46 49  1  0
 47 51  1  0
 47 46  1  0
 50 49  2  0
 51 50  1  0
 52 47  2  0
 53 48  1  0
 54 65  2  0
 55 53  1  0
 55 60  1  0
 56 64  1  0
 56 66  1  0
 57 63  1  0
 57 59  1  0
 58 64  1  0
 59 58  1  0
 60 59  2  0
 61 62  1  0
 61 55  2  0
 62 57  2  0
 63 56  1  0
 64 54  1  0
 66 68  2  0
 67 66  1  0
 69 67  1  0
 70 79  2  0
 70 75  1  0
 71 67  1  0
 71 75  1  0
 72 71  1  0
 73 74  1  0
 73 72  1  0
 74 70  1  0
 75 76  2  0
 76 77  1  0
 78 77  2  0
 79 78  1  0
 80 54  1  0
 80 81  1  0
 80 90  1  0
 81 84  1  0
 82 86  1  0
 82 81  1  0
 83 82  2  0
 86 85  1  0
 88 86  1  0
 88 89  1  0
 88 87  1  0
 90 93  1  1
 90 91  1  0
 92 90  1  0
 94  4  1  0
 95 94  1  0
 96 94  1  0
M  ISO  4   8 100  16 100  48 101  53 101
M  END
>  <TORSDO>  (96) 
F 18

>  <SCORE>  (96) 
-14.762

>  <name>  (96) 
95

>  <ligand_id>  (96) 
95

>  <original_smiles>  (96) 
[H]C(Oc1c([H])c([H])c2c(c1[H])C([H])([H])N(C(=O)C([H])(N([H])C(=O)C([H])(N([H])C([H])([H])[H])C([H])([H])[H])C(C([H])([H])[H])(C([H])([H])[H])C([H])([H])[H])C([H])(C(=O)N([H])C1([H])c3c([H])c([H])c([H])c([H])c3C([H])([H])C([H])([H])C1([H])[H])C2([H])[H])=C1C(=O)N(c2c([H])c(N([H])[H])c([H])c(N([H])C(=O)N3C([H])([H])C([H])([H])C([H])([H])C([H])(n4nc(-c5c([H])c([H])c(Oc6c([H])c([H])c(F)c([H])c6F)c([H])c5[H])c(C(=O)N([H])[H])c4N([H])[H])C3([H])[H])c2F)C([H])([H])C1([H])[H]

>  <smiles>  (96) 
[H]C(Oc1c([H])c([H])c2c(c1[H])C([H])([H])N(C(=O)C([H])(N([H])C(=O)C([H])(N([H])C([H])([H])[H])C([H])([H])[H])C(C([H])([H])[H])(C([H])([H])[H])C([H])([H])[H])C([H])(C(=O)N([H])C1([H])c3c([H])c([H])c([H])c([H])c3C([H])([H])C([H])([H])C1([H])[H])C2([H])[H])=C1C(=O)N(c2c([H])c(N([H])[H])c([H])c(N([H])C(=O)N3C([H])([H])C([H])([H])C([H])([H])C([H])(n4nc(-c5c([H])c([H])c(Oc6c([H])c([H])c(F)c([H])c6F)c([H])c5[H])c(C(=O)N([H])[H])c4N([H])[H])C3([H])[H])c2F)C([H])([H])C1([H])[H]

$$$$
